0
                    3D
 Structure written by MMmdl.
147155  0  0  1  0            999 V2000
  -30.4751  -15.1823   20.3805 C   0  0  0  0  0  0
  -30.4354  -12.7503   19.5208 C   0  0  0  0  0  0
  -29.5293  -12.5597   18.2802 C   0  0  0  0  0  0
  -28.0737  -12.3019   18.7063 C   0  0  0  0  0  0
  -27.6140  -13.2691   19.8262 C   0  0  2  0  0  0
  -28.6501  -13.4142   20.9608 C   0  0  0  0  0  0
  -25.2396  -13.8243   20.5741 C   0  0  0  0  0  0
  -24.1743  -13.0438   20.9256 C   0  0  0  0  0  0
  -24.6391  -11.6934   20.8765 C   0  0  0  0  0  0
  -23.9084  -10.4293   21.0410 C   0  0  0  0  0  0
  -24.3633   -9.4206   21.9185 C   0  0  0  0  0  0
  -23.6307   -8.2242   22.0750 C   0  0  0  0  0  0
  -22.4286   -8.0281   21.3544 C   0  0  0  0  0  0
  -21.9928   -9.0255   20.4643 C   0  0  0  0  0  0
  -22.7259  -10.2134   20.3055 C   0  0  0  0  0  0
  -21.6855   -6.0739   22.5281 C   0  0  0  0  0  0
  -21.4015   -6.5642   23.8214 C   0  0  0  0  0  0
  -21.3659   -5.6794   24.9175 C   0  0  0  0  0  0
  -21.6045   -4.3055   24.7226 C   0  0  0  0  0  0
  -21.8819   -3.8149   23.4346 C   0  0  0  0  0  0
  -21.9196   -4.6968   22.3404 C   0  0  0  0  0  0
  -22.7761  -13.5192   21.1912 C   0  0  0  0  0  0
  -22.1663   -4.2153   21.0981 F   0  0  0  0  0  0
  -21.5631   -3.4538   25.7738 F   0  0  0  0  0  0
  -29.8927  -13.8922   20.3375 N   0  0  0  0  0  0
  -26.2822  -12.9509   20.3229 N   0  0  0  0  0  0
  -25.9325  -11.6618   20.5732 N   0  0  0  0  0  0
  -22.0426  -12.8163   22.0464 N   0  0  0  0  0  0
  -25.4030  -15.1977   20.4173 N   0  0  0  0  0  0
  -31.6935  -15.1828   20.1597 O   0  0  0  0  0  0
  -21.6644   -6.8882   21.4241 O   0  0  0  0  0  0
  -22.3438  -14.5497   20.6759 O   0  0  0  0  0  0
  -24.6588  -31.8286   23.1761 C   0  0  0  0  0  0
  -25.9293  -32.4618   23.8201 C   0  0  1  0  0  0
  -27.2114  -26.9740   20.1745 C   0  0  0  0  0  0
  -25.5981  -33.8429   24.2108 N   0  0  0  0  0  0
  -23.4707  -30.4443   21.5237 C   0  0  2  0  0  0
  -24.9232  -28.8455   20.1093 C   0  0  0  0  0  0
  -22.7642  -29.4472   22.4790 C   0  0  0  0  0  0
  -18.0320  -28.1410   22.8475 C   0  0  0  0  0  0
  -24.1486  -36.7203   23.2645 C   0  0  0  0  0  0
  -26.0381  -30.6502   21.4006 C   0  0  0  0  0  0
  -26.1063  -29.2463   20.7427 C   0  0  0  0  0  0
  -27.2474  -28.3300   20.7549 C   0  0  0  0  0  0
  -26.0015  -26.7223   19.4877 C   0  0  0  0  0  0
  -24.8939  -27.6023   19.4623 C   0  0  0  0  0  0
  -23.7077  -29.7672   20.1472 C   0  0  0  0  0  0
  -25.4125  -36.2979   24.0306 C   0  0  1  0  0  0
  -20.5944  -28.3749   23.1193 C   0  0  2  0  0  0
  -20.6796  -26.9435   22.5401 C   0  0  0  0  0  0
  -19.5767  -26.6385   21.5213 C   0  0  0  0  0  0
  -18.1950  -26.7945   22.1627 C   0  0  0  0  0  0
  -19.1582  -28.8900   23.2826 C   0  0  0  0  0  0
  -18.9495  -30.1489   23.8861 C   0  0  0  0  0  0
  -17.6490  -30.6605   24.0555 C   0  0  0  0  0  0
  -25.9093  -34.9366   23.5024 C   0  0  0  0  0  0
  -16.5377  -29.9094   23.6348 C   0  0  0  0  0  0
  -16.7304  -28.6512   23.0375 C   0  0  0  0  0  0
  -26.4558  -31.6552   25.0712 C   0  0  0  0  0  0
  -25.3702  -31.3799   26.1381 C   0  0  0  0  0  0
  -27.0443  -30.2921   24.6420 C   0  0  0  0  0  0
  -27.6054  -32.4355   25.7514 C   0  0  0  0  0  0
  -27.5563  -37.1755   24.8468 C   0  0  0  0  0  0
  -21.4319  -29.3048   22.3543 N   0  0  0  0  0  0
  -26.4267  -37.3717   23.9420 N   0  0  0  0  0  0
  -24.7433  -30.9997   22.0872 N   0  0  0  0  0  0
  -23.4214  -28.8031   23.3007 O   0  0  0  0  0  0
  -28.1962  -25.8671   20.2637 O   0  0  0  0  0  0
  -26.5687  -34.8895   22.4609 O   0  0  0  0  0  0
  -23.5671  -32.1232   23.6885 O   0  0  0  0  0  0
  -28.2774  -20.1783   20.9076 C   0  0  0  0  0  0
  -30.1456  -20.7584   19.6963 C   0  0  0  0  0  0
  -27.8545  -21.6057   20.8710 C   0  0  0  0  0  0
  -29.7223  -22.1796   19.6571 C   0  0  0  0  0  0
  -29.4725  -19.6132   20.3050 C   0  0  0  0  0  0
  -28.5298  -22.7500   20.2537 C   0  0  0  0  0  0
  -30.1825  -18.0265   20.3361 C   0  0  0  0  0  0
  -27.8040  -24.3101   20.0193 C   0  0  0  0  0  0
  -29.7353  -16.4509   20.4631 N   0  0  0  0  0  0
  -31.4594  -12.9371   19.1947 H   0  0  0  0  0  0
  -30.4796  -11.8355   20.1142 H   0  0  0  0  0  0
  -29.8932  -11.7354   17.6652 H   0  0  0  0  0  0
  -29.5747  -13.4531   17.6556 H   0  0  0  0  0  0
  -28.0144  -11.2735   19.0644 H   0  0  0  0  0  0
  -27.4061  -12.3652   17.8463 H   0  0  0  0  0  0
  -27.5393  -14.2436   19.3423 H   0  0  0  0  0  0
  -28.7973  -12.4727   21.4919 H   0  0  0  0  0  0
  -28.3051  -14.1392   21.6999 H   0  0  0  0  0  0
  -25.2775   -9.5686   22.4766 H   0  0  0  0  0  0
  -24.0018   -7.4629   22.7465 H   0  0  0  0  0  0
  -21.0861   -8.8777   19.8943 H   0  0  0  0  0  0
  -22.3716  -10.9677   19.6168 H   0  0  0  0  0  0
  -21.2001   -7.6149   23.9719 H   0  0  0  0  0  0
  -21.1482   -6.0522   25.9080 H   0  0  0  0  0  0
  -22.0598   -2.7611   23.2844 H   0  0  0  0  0  0
  -22.4066  -11.9826   22.4836 H   0  0  0  0  0  0
  -21.1039  -13.1162   22.2684 H   0  0  0  0  0  0
  -24.6307  -15.8462   20.5268 H   0  0  0  0  0  0
  -26.2426  -15.6401   20.0678 H   0  0  0  0  0  0
  -26.7360  -32.5170   23.0915 H   0  0  0  0  0  0
  -25.0108  -33.9519   25.0247 H   0  0  0  0  0  0
  -22.7817  -31.2753   21.3586 H   0  0  0  0  0  0
  -23.3765  -35.9516   23.3288 H   0  0  0  0  0  0
  -24.3561  -36.8862   22.2063 H   0  0  0  0  0  0
  -23.7225  -37.6381   23.6704 H   0  0  0  0  0  0
  -26.2147  -31.3959   20.6243 H   0  0  0  0  0  0
  -26.8998  -30.7033   22.0539 H   0  0  0  0  0  0
  -28.1398  -28.6311   21.2848 H   0  0  0  0  0  0
  -25.8646  -25.7763   18.9864 H   0  0  0  0  0  0
  -23.9957  -27.2900   18.9472 H   0  0  0  0  0  0
  -23.8604  -30.5388   19.3918 H   0  0  0  0  0  0
  -22.8182  -29.2207   19.8291 H   0  0  0  0  0  0
  -25.1322  -36.1770   25.0795 H   0  0  0  0  0  0
  -21.0038  -28.3354   24.1314 H   0  0  0  0  0  0
  -20.5671  -26.2370   23.3639 H   0  0  0  0  0  0
  -21.6659  -26.7417   22.1202 H   0  0  0  0  0  0
  -19.6920  -25.6286   21.1269 H   0  0  0  0  0  0
  -19.6698  -27.3172   20.6723 H   0  0  0  0  0  0
  -17.4213  -26.6691   21.4036 H   0  0  0  0  0  0
  -18.0346  -26.0100   22.9037 H   0  0  0  0  0  0
  -19.7970  -30.7314   24.2214 H   0  0  0  0  0  0
  -17.5045  -31.6283   24.5161 H   0  0  0  0  0  0
  -15.5376  -30.2985   23.7697 H   0  0  0  0  0  0
  -15.8703  -28.0812   22.7124 H   0  0  0  0  0  0
  -24.5887  -30.7140   25.7706 H   0  0  0  0  0  0
  -24.8887  -32.3001   26.4697 H   0  0  0  0  0  0
  -25.7949  -30.9045   27.0232 H   0  0  0  0  0  0
  -26.3101  -29.6613   24.1393 H   0  0  0  0  0  0
  -27.3950  -29.7270   25.5066 H   0  0  0  0  0  0
  -27.9059  -30.4114   23.9849 H   0  0  0  0  0  0
  -27.2623  -33.3701   26.1969 H   0  0  0  0  0  0
  -28.3933  -32.6842   25.0392 H   0  0  0  0  0  0
  -28.0644  -31.8559   26.5535 H   0  0  0  0  0  0
  -28.2564  -38.0066   24.7527 H   0  0  0  0  0  0
  -28.1075  -36.2596   24.6281 H   0  0  0  0  0  0
  -27.2284  -37.1386   25.8872 H   0  0  0  0  0  0
  -20.9555  -29.8749   21.6692 H   0  0  0  0  0  0
  -26.0113  -38.2769   24.1454 H   0  0  0  0  0  0
  -27.6291  -19.4927   21.4361 H   0  0  0  0  0  0
  -31.0814  -20.5404   19.1999 H   0  0  0  0  0  0
  -26.9033  -21.8209   21.3381 H   0  0  0  0  0  0
  -30.3513  -22.8578   19.0974 H   0  0  0  0  0  0
  -30.9305  -18.1209   21.1241 H   0  0  0  0  0  0
  -30.7794  -18.0194   19.4234 H   0  0  0  0  0  0
  -26.8452  -24.2068   20.5276 H   0  0  0  0  0  0
  -27.5507  -24.2802   18.9596 H   0  0  0  0  0  0
  -28.7435  -16.3219   20.5965 H   0  0  0  0  0  0
  1 25  1  0  0  0
  1 30  2  0  0  0
  1 79  1  0  0  0
  2  3  1  0  0  0
  2 25  1  0  0  0
  2 80  1  0  0  0
  2 81  1  0  0  0
  3  4  1  0  0  0
  3 82  1  0  0  0
  3 83  1  0  0  0
  4  5  1  0  0  0
  4 84  1  0  0  0
  4 85  1  0  0  0
  5  6  1  0  0  0
  5 26  1  0  0  0
  5 86  1  0  0  0
  6 25  1  0  0  0
  6 87  1  0  0  0
  6 88  1  0  0  0
  7  8  2  0  0  0
  7 26  1  0  0  0
  7 29  1  0  0  0
  8  9  1  0  0  0
  8 22  1  0  0  0
  9 10  1  0  0  0
  9 27  2  0  0  0
 10 11  2  0  0  0
 10 15  1  0  0  0
 11 12  1  0  0  0
 11 89  1  0  0  0
 12 13  2  0  0  0
 12 90  1  0  0  0
 13 14  1  0  0  0
 13 31  1  0  0  0
 14 15  2  0  0  0
 14 91  1  0  0  0
 15 92  1  0  0  0
 16 17  2  0  0  0
 16 21  1  0  0  0
 16 31  1  0  0  0
 17 18  1  0  0  0
 17 93  1  0  0  0
 18 19  2  0  0  0
 18 94  1  0  0  0
 19 20  1  0  0  0
 19 24  1  0  0  0
 20 21  2  0  0  0
 20 95  1  0  0  0
 21 23  1  0  0  0
 22 28  1  0  0  0
 22 32  2  0  0  0
 26 27  1  0  0  0
 28 96  1  0  0  0
 28 97  1  0  0  0
 29 98  1  0  0  0
 29 99  1  0  0  0
 33 34  1  0  0  0
 33 66  1  0  0  0
 33 70  2  0  0  0
 34 36  1  0  0  0
 34 59  1  0  0  0
 34100  1  0  0  0
 35 44  2  0  0  0
 35 45  1  0  0  0
 35 68  1  0  0  0
 36 56  1  0  0  0
 36101  1  0  0  0
 37 39  1  0  0  0
 37 47  1  0  0  0
 37 66  1  0  0  0
 37102  1  0  0  0
 38 43  2  0  0  0
 38 46  1  0  0  0
 38 47  1  0  0  0
 39 64  1  0  0  0
 39 67  2  0  0  0
 40 52  1  0  0  0
 40 53  2  0  0  0
 40 58  1  0  0  0
 41103  1  0  0  0
 41104  1  0  0  0
 41105  1  0  0  0
 41 48  1  0  0  0
 42 43  1  0  0  0
 42 66  1  0  0  0
 42106  1  0  0  0
 42107  1  0  0  0
 43 44  1  0  0  0
 44108  1  0  0  0
 45 46  2  0  0  0
 45109  1  0  0  0
 46110  1  0  0  0
 47111  1  0  0  0
 47112  1  0  0  0
 48 56  1  0  0  0
 48 65  1  0  0  0
 48113  1  0  0  0
 49 50  1  0  0  0
 49 53  1  0  0  0
 49 64  1  0  0  0
 49114  1  0  0  0
 50 51  1  0  0  0
 50115  1  0  0  0
 50116  1  0  0  0
 51 52  1  0  0  0
 51117  1  0  0  0
 51118  1  0  0  0
 52119  1  0  0  0
 52120  1  0  0  0
 53 54  1  0  0  0
 54 55  2  0  0  0
 54121  1  0  0  0
 55 57  1  0  0  0
 55122  1  0  0  0
 56 69  2  0  0  0
 57 58  2  0  0  0
 57123  1  0  0  0
 58124  1  0  0  0
 59 60  1  0  0  0
 59 61  1  0  0  0
 59 62  1  0  0  0
 60125  1  0  0  0
 60126  1  0  0  0
 60127  1  0  0  0
 61128  1  0  0  0
 61129  1  0  0  0
 61130  1  0  0  0
 62131  1  0  0  0
 62132  1  0  0  0
 62133  1  0  0  0
 63 65  1  0  0  0
 63134  1  0  0  0
 63135  1  0  0  0
 63136  1  0  0  0
 64137  1  0  0  0
 65138  1  0  0  0
 68 78  1  0  0  0
 71 73  2  0  0  0
 71 75  1  0  0  0
 71139  1  0  0  0
 72 74  1  0  0  0
 72 75  2  0  0  0
 72140  1  0  0  0
 73 76  1  0  0  0
 73141  1  0  0  0
 74 76  2  0  0  0
 74142  1  0  0  0
 75 77  1  0  0  0
 76 78  1  0  0  0
 77 79  1  0  0  0
 77143  1  0  0  0
 77144  1  0  0  0
 78145  1  0  0  0
 78146  1  0  0  0
 79147  1  0  0  0
M  ISO  4   1 100  68 101  78 101  79 100
M  END
> <chiral flag>
0

> <version>
0

> <s_m_source_file>
/data/baiqing/PycharmProjects/Reinvent-master-3.2/result/LINK_invent/BTK/process_docking_weight1_custom_sum_contain_oxygen_bond_distance_aromatic_linkinvent_7_9_3/rearranged_h_0127.sdf

> <i_m_source_file_index>
1

> <r_mmod_Potential_Energy-OPLS-2005>
1015.4599609375

> <r_mmod_Stretch_Energy-OPLS-2005>
443.456787109375

> <r_mmod_Bend_Energy-OPLS-2005>
422.297058105469

> <r_mmod_Torsional_Energy-OPLS-2005>
215.021911621094

> <r_mmod_Improper_Torsional_Energy-OPLS-2005>
7.18429374694824

> <r_mmod_Van_der_Waal_Energy-OPLS-2005>
133.087112426758

> <r_mmod_Electrostatic_Energy-OPLS-2005>
-379.332244873047

> <r_mmod_Solvation_Energy-OPLS-2005>
-213.699493408203

> <b_mmod_Minimization_Converged-OPLS-2005>
0

> <r_mmod_RMS_Derivative-OPLS-2005>
0.623550474643707

$$$$
1
                    3D
 Structure written by MMmdl.
163171  0  0  1  0            999 V2000
  -30.6889  -14.6257   20.4842 C   0  0  0  0  0  0
  -30.4167  -12.3869   19.4576 C   0  0  0  0  0  0
  -29.4989  -12.4892   18.2225 C   0  0  0  0  0  0
  -28.0236  -12.3379   18.6380 C   0  0  0  0  0  0
  -27.6449  -13.2289   19.8529 C   0  0  2  0  0  0
  -28.6913  -13.1369   20.9858 C   0  0  0  0  0  0
  -25.2521  -13.8203   20.5700 C   0  0  0  0  0  0
  -24.1808  -13.0447   20.9203 C   0  0  0  0  0  0
  -24.6394  -11.6921   20.8750 C   0  0  0  0  0  0
  -23.9075  -10.4296   21.0408 C   0  0  0  0  0  0
  -24.3620   -9.4211   21.9189 C   0  0  0  0  0  0
  -23.6290   -8.2249   22.0756 C   0  0  0  0  0  0
  -22.4275   -8.0286   21.3545 C   0  0  0  0  0  0
  -21.9916   -9.0262   20.4647 C   0  0  0  0  0  0
  -22.7246  -10.2141   20.3058 C   0  0  0  0  0  0
  -21.6854   -6.0735   22.5276 C   0  0  0  0  0  0
  -21.4009   -6.5638   23.8207 C   0  0  0  0  0  0
  -21.3658   -5.6791   24.9170 C   0  0  0  0  0  0
  -21.6046   -4.3054   24.7221 C   0  0  0  0  0  0
  -21.8822   -3.8148   23.4343 C   0  0  0  0  0  0
  -21.9192   -4.6964   22.3399 C   0  0  0  0  0  0
  -22.7828  -13.5225   21.1860 C   0  0  0  0  0  0
  -22.1661   -4.2149   21.0979 F   0  0  0  0  0  0
  -21.5632   -3.4541   25.7739 F   0  0  0  0  0  0
  -30.0021  -13.4445   20.4020 N   0  0  0  0  0  0
  -26.2952  -12.9412   20.3299 N   0  0  0  0  0  0
  -25.9325  -11.6556   20.5764 N   0  0  0  0  0  0
  -22.0472  -12.8212   22.0413 N   0  0  0  0  0  0
  -25.4224  -15.1923   20.4114 N   0  0  0  0  0  0
  -31.8741  -14.6839   20.1514 O   0  0  0  0  0  0
  -21.6640   -6.8880   21.4240 O   0  0  0  0  0  0
  -22.3511  -14.5534   20.6712 O   0  0  0  0  0  0
  -24.6276  -31.8617   23.2071 C   0  0  0  0  0  0
  -25.9129  -32.4789   23.8396 C   0  0  1  0  0  0
  -27.2078  -27.3173   20.1086 C   0  0  0  0  0  0
  -25.5951  -33.8590   24.2318 N   0  0  0  0  0  0
  -23.4194  -30.4907   21.5500 C   0  0  2  0  0  0
  -24.8616  -28.9553   20.1083 C   0  0  0  0  0  0
  -22.7489  -29.4640   22.4939 C   0  0  0  0  0  0
  -18.0295  -28.1382   22.8486 C   0  0  0  0  0  0
  -24.1488  -36.7285   23.2639 C   0  0  0  0  0  0
  -25.9636  -30.7901   21.3828 C   0  0  0  0  0  0
  -26.0331  -29.4207   20.7185 C   0  0  0  0  0  0
  -27.2091  -28.6116   20.7151 C   0  0  0  0  0  0
  -26.0141  -26.9197   19.4571 C   0  0  0  0  0  0
  -24.8536  -27.7092   19.4697 C   0  0  0  0  0  0
  -23.6329  -29.8377   20.1614 C   0  0  0  0  0  0
  -25.4115  -36.3088   24.0334 C   0  0  1  0  0  0
  -20.5893  -28.3695   23.1272 C   0  0  2  0  0  0
  -20.6788  -26.9417   22.5407 C   0  0  0  0  0  0
  -19.5759  -26.6383   21.5216 C   0  0  0  0  0  0
  -18.1935  -26.7928   22.1618 C   0  0  0  0  0  0
  -19.1545  -28.8856   23.2871 C   0  0  0  0  0  0
  -18.9467  -30.1453   23.8891 C   0  0  0  0  0  0
  -17.6469  -30.6585   24.0569 C   0  0  0  0  0  0
  -25.9055  -34.9455   23.5119 C   0  0  0  0  0  0
  -16.5357  -29.9084   23.6335 C   0  0  0  0  0  0
  -16.7283  -28.6498   23.0360 C   0  0  0  0  0  0
  -26.4509  -31.6597   25.0764 C   0  0  0  0  0  0
  -25.3736  -31.3726   26.1483 C   0  0  0  0  0  0
  -27.0371  -30.3028   24.6230 C   0  0  0  0  0  0
  -27.6071  -32.4338   25.7525 C   0  0  0  0  0  0
  -27.5580  -37.1798   24.8471 C   0  0  0  0  0  0
  -21.4205  -29.3049   22.3674 N   0  0  0  0  0  0
  -26.4294  -37.3780   23.9410 N   0  0  0  0  0  0
  -24.6886  -31.0635   22.1026 N   0  0  0  0  0  0
  -23.4223  -28.8167   23.3004 O   0  0  0  0  0  0
  -28.3057  -26.4399   20.1798 O   0  0  0  0  0  0
  -26.5613  -34.8910   22.4679 O   0  0  0  0  0  0
  -23.5443  -32.1425   23.7396 O   0  0  0  0  0  0
  -29.4032  -20.8013   21.4324 C   0  0  0  0  0  0
  -29.5295  -19.0286   19.3498 C   0  0  0  0  0  0
  -29.8139  -19.4567   21.6882 C   0  0  0  0  0  0
  -29.9198  -18.5216   20.6126 C   0  0  0  0  0  0
  -29.0777  -21.2124   20.1236 C   0  0  0  0  0  0
  -31.8717  -20.7600   23.9672 C   0  0  0  0  0  0
  -32.0962  -18.3205   24.5796 C   0  0  0  0  0  0
  -30.1555  -19.0593   23.1188 C   0  0  0  0  0  0
  -30.6725  -17.1392   20.7300 C   0  0  0  0  0  0
  -28.9936  -23.8304   20.3676 C   0  0  0  0  0  0
  -28.0506  -25.0111   19.8774 C   0  0  0  0  0  0
  -31.6310  -19.3135   23.5024 C   0  0  0  0  0  0
  -29.1166  -20.3102   19.1181 N   0  0  0  0  0  0
  -28.6458  -22.5162   19.7475 N   0  0  0  0  0  0
  -30.0052  -15.7893   20.7372 N   0  0  0  0  0  0
  -31.4614  -12.4761   19.1553 H   0  0  0  0  0  0
  -30.3255  -11.4058   19.9259 H   0  0  0  0  0  0
  -29.7606  -11.7207   17.4932 H   0  0  0  0  0  0
  -29.6480  -13.4488   17.7245 H   0  0  0  0  0  0
  -27.8607  -11.2882   18.8852 H   0  0  0  0  0  0
  -27.3687  -12.5541   17.7929 H   0  0  0  0  0  0
  -27.6499  -14.2558   19.4871 H   0  0  0  0  0  0
  -28.7003  -12.1394   21.4269 H   0  0  0  0  0  0
  -28.4480  -13.8279   21.7946 H   0  0  0  0  0  0
  -25.2762   -9.5688   22.4763 H   0  0  0  0  0  0
  -23.9998   -7.4643   22.7479 H   0  0  0  0  0  0
  -21.0848   -8.8783   19.8949 H   0  0  0  0  0  0
  -22.3704  -10.9682   19.6167 H   0  0  0  0  0  0
  -21.1998   -7.6148   23.9707 H   0  0  0  0  0  0
  -21.1474   -6.0525   25.9074 H   0  0  0  0  0  0
  -22.0603   -2.7611   23.2847 H   0  0  0  0  0  0
  -22.4096  -11.9882   22.4812 H   0  0  0  0  0  0
  -21.1092  -13.1243   22.2618 H   0  0  0  0  0  0
  -24.6570  -15.8481   20.5250 H   0  0  0  0  0  0
  -26.2730  -15.6322   20.0842 H   0  0  0  0  0  0
  -26.7197  -32.5452   23.1145 H   0  0  0  0  0  0
  -25.0125  -33.9744   25.0482 H   0  0  0  0  0  0
  -22.7128  -31.3121   21.4152 H   0  0  0  0  0  0
  -23.3758  -35.9610   23.3300 H   0  0  0  0  0  0
  -24.3574  -36.8907   22.2054 H   0  0  0  0  0  0
  -23.7224  -37.6477   23.6665 H   0  0  0  0  0  0
  -26.1026  -31.5577   20.6206 H   0  0  0  0  0  0
  -26.8413  -30.8306   22.0162 H   0  0  0  0  0  0
  -28.1032  -28.9579   21.2146 H   0  0  0  0  0  0
  -25.9323  -25.9786   18.9347 H   0  0  0  0  0  0
  -23.9568  -27.3516   18.9818 H   0  0  0  0  0  0
  -23.7570  -30.6226   19.4140 H   0  0  0  0  0  0
  -22.7506  -29.2746   19.8531 H   0  0  0  0  0  0
  -25.1287  -36.1947   25.0827 H   0  0  0  0  0  0
  -20.9981  -28.3281   24.1397 H   0  0  0  0  0  0
  -20.5718  -26.2304   23.3612 H   0  0  0  0  0  0
  -21.6655  -26.7474   22.1184 H   0  0  0  0  0  0
  -19.6927  -25.6295   21.1253 H   0  0  0  0  0  0
  -19.6689  -27.3190   20.6739 H   0  0  0  0  0  0
  -17.4213  -26.6683   21.4014 H   0  0  0  0  0  0
  -18.0318  -26.0069   22.9006 H   0  0  0  0  0  0
  -19.7945  -30.7262   24.2269 H   0  0  0  0  0  0
  -17.5029  -31.6270   24.5168 H   0  0  0  0  0  0
  -15.5359  -30.2988   23.7660 H   0  0  0  0  0  0
  -15.8681  -28.0819   22.7083 H   0  0  0  0  0  0
  -24.5928  -30.7060   25.7802 H   0  0  0  0  0  0
  -24.8905  -32.2885   26.4901 H   0  0  0  0  0  0
  -25.8054  -30.8914   27.0269 H   0  0  0  0  0  0
  -26.2962  -29.6754   24.1267 H   0  0  0  0  0  0
  -27.4081  -29.7304   25.4739 H   0  0  0  0  0  0
  -27.8824  -30.4317   23.9465 H   0  0  0  0  0  0
  -27.2708  -33.3664   26.2069 H   0  0  0  0  0  0
  -28.3900  -32.6854   25.0357 H   0  0  0  0  0  0
  -28.0727  -31.8486   26.5466 H   0  0  0  0  0  0
  -28.2600  -38.0095   24.7531 H   0  0  0  0  0  0
  -28.1073  -36.2622   24.6293 H   0  0  0  0  0  0
  -27.2294  -37.1452   25.8874 H   0  0  0  0  0  0
  -20.9386  -29.8785   21.6892 H   0  0  0  0  0  0
  -26.0176  -38.2852   24.1418 H   0  0  0  0  0  0
  -29.3404  -21.5074   22.2491 H   0  0  0  0  0  0
  -29.6132  -18.4029   18.4734 H   0  0  0  0  0  0
  -32.9151  -20.9158   24.2437 H   0  0  0  0  0  0
  -31.2601  -21.0078   24.8360 H   0  0  0  0  0  0
  -31.6358  -21.4765   23.1802 H   0  0  0  0  0  0
  -33.1403  -18.4873   24.8464 H   0  0  0  0  0  0
  -32.0112  -17.2904   24.2306 H   0  0  0  0  0  0
  -31.5024  -18.4122   25.4903 H   0  0  0  0  0  0
  -29.9093  -18.0037   23.2384 H   0  0  0  0  0  0
  -29.4898  -19.5765   23.8117 H   0  0  0  0  0  0
  -31.3322  -17.1662   21.5974 H   0  0  0  0  0  0
  -31.3633  -17.1454   19.8843 H   0  0  0  0  0  0
  -28.9531  -23.7495   21.4540 H   0  0  0  0  0  0
  -30.0272  -24.0611   20.1088 H   0  0  0  0  0  0
  -27.0726  -24.7388   20.2776 H   0  0  0  0  0  0
  -27.9751  -24.9415   18.7909 H   0  0  0  0  0  0
  -32.2529  -19.1332   22.6235 H   0  0  0  0  0  0
  -28.3613  -22.5877   18.7771 H   0  0  0  0  0  0
  -29.0213  -15.7330   20.9513 H   0  0  0  0  0  0
  1 25  1  0  0  0
  1 30  2  0  0  0
  1 85  1  0  0  0
  2  3  1  0  0  0
  2 25  1  0  0  0
  2 86  1  0  0  0
  2 87  1  0  0  0
  3  4  1  0  0  0
  3 88  1  0  0  0
  3 89  1  0  0  0
  4  5  1  0  0  0
  4 90  1  0  0  0
  4 91  1  0  0  0
  5  6  1  0  0  0
  5 26  1  0  0  0
  5 92  1  0  0  0
  6 25  1  0  0  0
  6 93  1  0  0  0
  6 94  1  0  0  0
  7  8  2  0  0  0
  7 26  1  0  0  0
  7 29  1  0  0  0
  8  9  1  0  0  0
  8 22  1  0  0  0
  9 10  1  0  0  0
  9 27  2  0  0  0
 10 11  2  0  0  0
 10 15  1  0  0  0
 11 12  1  0  0  0
 11 95  1  0  0  0
 12 13  2  0  0  0
 12 96  1  0  0  0
 13 14  1  0  0  0
 13 31  1  0  0  0
 14 15  2  0  0  0
 14 97  1  0  0  0
 15 98  1  0  0  0
 16 17  2  0  0  0
 16 21  1  0  0  0
 16 31  1  0  0  0
 17 18  1  0  0  0
 17 99  1  0  0  0
 18 19  2  0  0  0
 18100  1  0  0  0
 19 20  1  0  0  0
 19 24  1  0  0  0
 20 21  2  0  0  0
 20101  1  0  0  0
 21 23  1  0  0  0
 22 28  1  0  0  0
 22 32  2  0  0  0
 26 27  1  0  0  0
 28102  1  0  0  0
 28103  1  0  0  0
 29104  1  0  0  0
 29105  1  0  0  0
 33 34  1  0  0  0
 33 66  1  0  0  0
 33 70  2  0  0  0
 34 36  1  0  0  0
 34 59  1  0  0  0
 34106  1  0  0  0
 35 44  2  0  0  0
 35 45  1  0  0  0
 35 68  1  0  0  0
 36 56  1  0  0  0
 36107  1  0  0  0
 37 39  1  0  0  0
 37 47  1  0  0  0
 37 66  1  0  0  0
 37108  1  0  0  0
 38 43  2  0  0  0
 38 46  1  0  0  0
 38 47  1  0  0  0
 39 64  1  0  0  0
 39 67  2  0  0  0
 40 52  1  0  0  0
 40 53  2  0  0  0
 40 58  1  0  0  0
 41109  1  0  0  0
 41110  1  0  0  0
 41111  1  0  0  0
 41 48  1  0  0  0
 42 43  1  0  0  0
 42 66  1  0  0  0
 42112  1  0  0  0
 42113  1  0  0  0
 43 44  1  0  0  0
 44114  1  0  0  0
 45 46  2  0  0  0
 45115  1  0  0  0
 46116  1  0  0  0
 47117  1  0  0  0
 47118  1  0  0  0
 48 56  1  0  0  0
 48 65  1  0  0  0
 48119  1  0  0  0
 49 50  1  0  0  0
 49 53  1  0  0  0
 49 64  1  0  0  0
 49120  1  0  0  0
 50 51  1  0  0  0
 50121  1  0  0  0
 50122  1  0  0  0
 51 52  1  0  0  0
 51123  1  0  0  0
 51124  1  0  0  0
 52125  1  0  0  0
 52126  1  0  0  0
 53 54  1  0  0  0
 54 55  2  0  0  0
 54127  1  0  0  0
 55 57  1  0  0  0
 55128  1  0  0  0
 56 69  2  0  0  0
 57 58  2  0  0  0
 57129  1  0  0  0
 58130  1  0  0  0
 59 60  1  0  0  0
 59 61  1  0  0  0
 59 62  1  0  0  0
 60131  1  0  0  0
 60132  1  0  0  0
 60133  1  0  0  0
 61134  1  0  0  0
 61135  1  0  0  0
 61136  1  0  0  0
 62137  1  0  0  0
 62138  1  0  0  0
 62139  1  0  0  0
 63 65  1  0  0  0
 63140  1  0  0  0
 63141  1  0  0  0
 63142  1  0  0  0
 64143  1  0  0  0
 65144  1  0  0  0
 68 81  1  0  0  0
 71 73  2  0  0  0
 71 75  1  0  0  0
 71145  1  0  0  0
 72 74  2  0  0  0
 72 83  1  0  0  0
 72146  1  0  0  0
 73 74  1  0  0  0
 73 78  1  0  0  0
 74 79  1  0  0  0
 75 83  2  0  0  0
 75 84  1  0  0  0
 76147  1  0  0  0
 76148  1  0  0  0
 76149  1  0  0  0
 76 82  1  0  0  0
 77 82  1  0  0  0
 77150  1  0  0  0
 77151  1  0  0  0
 77152  1  0  0  0
 78 82  1  0  0  0
 78153  1  0  0  0
 78154  1  0  0  0
 79 85  1  0  0  0
 79155  1  0  0  0
 79156  1  0  0  0
 80 81  1  0  0  0
 80 84  1  0  0  0
 80157  1  0  0  0
 80158  1  0  0  0
 81159  1  0  0  0
 81160  1  0  0  0
 82161  1  0  0  0
 84162  1  0  0  0
 85163  1  0  0  0
M  ISO  4   1 100  68 101  81 101  85 100
M  END
> <chiral flag>
0

> <version>
0

> <s_m_source_file>
/data/baiqing/PycharmProjects/Reinvent-master-3.2/result/LINK_invent/BTK/process_docking_weight1_custom_sum_contain_oxygen_bond_distance_aromatic_linkinvent_7_9_3/rearranged_h_0127.sdf

> <i_m_source_file_index>
2

> <r_mmod_Potential_Energy-OPLS-2005>
-120.915756225586

> <r_mmod_Stretch_Energy-OPLS-2005>
73.8080062866211

> <r_mmod_Bend_Energy-OPLS-2005>
162.248992919922

> <r_mmod_Torsional_Energy-OPLS-2005>
210.439559936523

> <r_mmod_Improper_Torsional_Energy-OPLS-2005>
7.43791961669922

> <r_mmod_Van_der_Waal_Energy-OPLS-2005>
152.128555297852

> <r_mmod_Electrostatic_Energy-OPLS-2005>
-552.835876464844

> <r_mmod_Solvation_Energy-OPLS-2005>
-228.183013916016

> <b_mmod_Minimization_Converged-OPLS-2005>
0

> <r_mmod_RMS_Derivative-OPLS-2005>
1.2719269990921

$$$$
2
                    3D
 Structure written by MMmdl.
160168  0  0  1  0            999 V2000
  -30.7532  -14.3867   20.6749 C   0  0  0  0  0  0
  -30.4198  -12.2989   19.4040 C   0  0  0  0  0  0
  -29.4867  -12.5029   18.1954 C   0  0  0  0  0  0
  -28.0136  -12.3313   18.6144 C   0  0  0  0  0  0
  -27.6583  -13.1796   19.8599 C   0  0  2  0  0  0
  -28.6943  -12.9591   20.9867 C   0  0  0  0  0  0
  -25.2630  -13.8119   20.5624 C   0  0  0  0  0  0
  -24.1870  -13.0452   20.9197 C   0  0  0  0  0  0
  -24.6354  -11.6894   20.8741 C   0  0  0  0  0  0
  -23.9014  -10.4301   21.0429 C   0  0  0  0  0  0
  -24.3594   -9.4217   21.9192 C   0  0  0  0  0  0
  -23.6283   -8.2245   22.0756 C   0  0  0  0  0  0
  -22.4258   -8.0286   21.3552 C   0  0  0  0  0  0
  -21.9888   -9.0253   20.4649 C   0  0  0  0  0  0
  -22.7196  -10.2141   20.3069 C   0  0  0  0  0  0
  -21.6859   -6.0734   22.5278 C   0  0  0  0  0  0
  -21.4007   -6.5640   23.8206 C   0  0  0  0  0  0
  -21.3652   -5.6799   24.9175 C   0  0  0  0  0  0
  -21.6052   -4.3060   24.7229 C   0  0  0  0  0  0
  -21.8823   -3.8147   23.4349 C   0  0  0  0  0  0
  -21.9188   -4.6963   22.3405 C   0  0  0  0  0  0
  -22.7910  -13.5283   21.1866 C   0  0  0  0  0  0
  -22.1666   -4.2154   21.0985 F   0  0  0  0  0  0
  -21.5624   -3.4540   25.7737 F   0  0  0  0  0  0
  -30.0339  -13.2561   20.4504 N   0  0  0  0  0  0
  -26.2987  -12.9204   20.3229 N   0  0  0  0  0  0
  -25.9241  -11.6405   20.5690 N   0  0  0  0  0  0
  -22.0530  -12.8265   22.0394 N   0  0  0  0  0  0
  -25.4455  -15.1832   20.3934 N   0  0  0  0  0  0
  -31.8121  -14.6457   20.0982 O   0  0  0  0  0  0
  -21.6647   -6.8870   21.4233 O   0  0  0  0  0  0
  -22.3638  -14.5617   20.6721 O   0  0  0  0  0  0
  -24.6114  -31.8701   23.2136 C   0  0  0  0  0  0
  -25.9031  -32.4842   23.8421 C   0  0  1  0  0  0
  -27.2289  -27.4588   20.0824 C   0  0  0  0  0  0
  -25.5909  -33.8642   24.2365 N   0  0  0  0  0  0
  -23.3963  -30.4983   21.5528 C   0  0  2  0  0  0
  -24.8383  -28.9635   20.1184 C   0  0  0  0  0  0
  -22.7368  -29.4715   22.4996 C   0  0  0  0  0  0
  -18.0266  -28.1380   22.8497 C   0  0  0  0  0  0
  -24.1492  -36.7323   23.2636 C   0  0  0  0  0  0
  -25.9251  -30.8428   21.3635 C   0  0  0  0  0  0
  -25.9997  -29.4795   20.7078 C   0  0  0  0  0  0
  -27.1971  -28.7354   20.6823 C   0  0  0  0  0  0
  -26.0485  -26.9511   19.4929 C   0  0  0  0  0  0
  -24.8568  -27.6974   19.5090 C   0  0  0  0  0  0
  -23.6023  -29.8308   20.1679 C   0  0  0  0  0  0
  -25.4108  -36.3128   24.0351 C   0  0  1  0  0  0
  -20.5852  -28.3684   23.1292 C   0  0  2  0  0  0
  -20.6774  -26.9410   22.5413 C   0  0  0  0  0  0
  -19.5741  -26.6370   21.5222 C   0  0  0  0  0  0
  -18.1919  -26.7916   22.1653 C   0  0  0  0  0  0
  -19.1513  -28.8848   23.2901 C   0  0  0  0  0  0
  -18.9445  -30.1452   23.8912 C   0  0  0  0  0  0
  -17.6445  -30.6597   24.0555 C   0  0  0  0  0  0
  -25.9035  -34.9493   23.5146 C   0  0  0  0  0  0
  -16.5334  -29.9091   23.6331 C   0  0  0  0  0  0
  -16.7250  -28.6506   23.0356 C   0  0  0  0  0  0
  -26.4456  -31.6612   25.0748 C   0  0  0  0  0  0
  -25.3731  -31.3712   26.1502 C   0  0  0  0  0  0
  -27.0296  -30.3065   24.6127 C   0  0  0  0  0  0
  -27.6051  -32.4307   25.7492 C   0  0  0  0  0  0
  -27.5582  -37.1818   24.8465 C   0  0  0  0  0  0
  -21.4103  -29.3082   22.3716 N   0  0  0  0  0  0
  -26.4294  -37.3808   23.9410 N   0  0  0  0  0  0
  -24.6627  -31.0836   22.1021 N   0  0  0  0  0  0
  -23.4136  -28.8246   23.3024 O   0  0  0  0  0  0
  -28.4160  -26.7642   20.0748 O   0  0  0  0  0  0
  -26.5585  -34.8928   22.4706 O   0  0  0  0  0  0
  -23.5329  -32.1446   23.7569 O   0  0  0  0  0  0
  -28.0097  -21.0266   23.4760 C   0  0  0  0  0  0
  -26.0260  -20.5747   22.1424 C   0  0  0  0  0  0
  -27.9650  -22.3810   23.0922 C   0  0  0  0  0  0
  -25.9949  -21.9267   21.7432 C   0  0  0  0  0  0
  -27.0478  -20.1131   22.9995 C   0  0  0  0  0  0
  -26.9672  -22.8427   22.1986 C   0  0  0  0  0  0
  -27.1306  -18.6447   23.3946 C   0  0  0  0  0  0
  -29.2782  -16.1981   21.3523 C   0  0  0  0  0  0
  -28.7359  -16.8913   22.6172 C   0  0  0  0  0  0
  -27.9823  -25.0068   21.7421 C   0  0  0  0  0  0
  -28.3655  -25.3508   20.2875 C   0  0  0  0  0  0
  -30.3065  -15.1959   21.6426 N   0  0  0  0  0  0
  -27.6638  -17.8501   22.2704 N   0  3  0  0  0  0
  -26.8421  -24.1450   21.7601 O   0  0  0  0  0  0
  -31.4631  -12.4049   19.1023 H   0  0  0  0  0  0
  -30.3291  -11.2835   19.7911 H   0  0  0  0  0  0
  -29.7322  -11.7886   17.4099 H   0  0  0  0  0  0
  -29.6397  -13.4950   17.7678 H   0  0  0  0  0  0
  -27.8486  -11.2735   18.8250 H   0  0  0  0  0  0
  -27.3512  -12.5763   17.7844 H   0  0  0  0  0  0
  -27.7021  -14.2145   19.5300 H   0  0  0  0  0  0
  -28.6657  -11.9237   21.3284 H   0  0  0  0  0  0
  -28.4351  -13.5536   21.8630 H   0  0  0  0  0  0
  -25.2760   -9.5700   22.4731 H   0  0  0  0  0  0
  -24.0013   -7.4644   22.7468 H   0  0  0  0  0  0
  -21.0827   -8.8764   19.8953 H   0  0  0  0  0  0
  -22.3668  -10.9675   19.6165 H   0  0  0  0  0  0
  -21.1996   -7.6156   23.9709 H   0  0  0  0  0  0
  -21.1471   -6.0535   25.9079 H   0  0  0  0  0  0
  -22.0607   -2.7610   23.2854 H   0  0  0  0  0  0
  -22.4131  -11.9885   22.4713 H   0  0  0  0  0  0
  -21.1153  -13.1277   22.2623 H   0  0  0  0  0  0
  -24.5996  -15.7398   20.3282 H   0  0  0  0  0  0
  -26.1406  -15.4806   19.7197 H   0  0  0  0  0  0
  -26.7102  -32.5531   23.1181 H   0  0  0  0  0  0
  -25.0098  -33.9807   25.0533 H   0  0  0  0  0  0
  -22.6869  -31.3176   21.4137 H   0  0  0  0  0  0
  -23.3748  -35.9661   23.3316 H   0  0  0  0  0  0
  -24.3591  -36.8919   22.2042 H   0  0  0  0  0  0
  -23.7243  -37.6541   23.6632 H   0  0  0  0  0  0
  -26.0434  -31.6130   20.5993 H   0  0  0  0  0  0
  -26.8109  -30.8888   21.9854 H   0  0  0  0  0  0
  -28.0962  -29.1332   21.1288 H   0  0  0  0  0  0
  -26.0301  -25.9901   19.0036 H   0  0  0  0  0  0
  -23.9653  -27.2958   19.0468 H   0  0  0  0  0  0
  -23.7134  -30.6066   19.4076 H   0  0  0  0  0  0
  -22.7248  -29.2533   19.8706 H   0  0  0  0  0  0
  -25.1278  -36.2007   25.0841 H   0  0  0  0  0  0
  -20.9943  -28.3249   24.1405 H   0  0  0  0  0  0
  -20.5690  -26.2278   23.3610 H   0  0  0  0  0  0
  -21.6652  -26.7466   22.1211 H   0  0  0  0  0  0
  -19.6886  -25.6269   21.1277 H   0  0  0  0  0  0
  -19.6671  -27.3163   20.6741 H   0  0  0  0  0  0
  -17.4179  -26.6626   21.4076 H   0  0  0  0  0  0
  -18.0332  -26.0085   22.9087 H   0  0  0  0  0  0
  -19.7926  -30.7267   24.2287 H   0  0  0  0  0  0
  -17.5012  -31.6272   24.5151 H   0  0  0  0  0  0
  -15.5349  -30.2998   23.7678 H   0  0  0  0  0  0
  -15.8655  -28.0830   22.7067 H   0  0  0  0  0  0
  -24.5887  -30.7081   25.7828 H   0  0  0  0  0  0
  -24.8931  -32.2865   26.4975 H   0  0  0  0  0  0
  -25.8071  -30.8850   27.0246 H   0  0  0  0  0  0
  -26.2864  -29.6823   24.1153 H   0  0  0  0  0  0
  -27.4047  -29.7308   25.4596 H   0  0  0  0  0  0
  -27.8703  -30.4407   23.9320 H   0  0  0  0  0  0
  -27.2711  -33.3589   26.2137 H   0  0  0  0  0  0
  -28.3821  -32.6881   25.0281 H   0  0  0  0  0  0
  -28.0770  -31.8386   26.5340 H   0  0  0  0  0  0
  -28.2606  -38.0110   24.7500 H   0  0  0  0  0  0
  -28.1075  -36.2634   24.6306 H   0  0  0  0  0  0
  -27.2304  -37.1493   25.8875 H   0  0  0  0  0  0
  -20.9284  -29.8806   21.6917 H   0  0  0  0  0  0
  -26.0194  -38.2900   24.1387 H   0  0  0  0  0  0
  -28.7935  -20.6959   24.1447 H   0  0  0  0  0  0
  -25.2638  -19.8958   21.7826 H   0  0  0  0  0  0
  -28.7092  -23.0346   23.5201 H   0  0  0  0  0  0
  -25.2154  -22.2688   21.0766 H   0  0  0  0  0  0
  -26.1413  -18.2793   23.6709 H   0  0  0  0  0  0
  -27.7626  -18.5432   24.2789 H   0  0  0  0  0  0
  -28.4478  -15.7480   20.8161 H   0  0  0  0  0  0
  -29.7055  -16.9403   20.6757 H   0  0  0  0  0  0
  -28.3405  -16.1534   23.3168 H   0  0  0  0  0  0
  -29.5439  -17.4195   23.1287 H   0  0  0  0  0  0
  -27.7012  -25.9089   22.2852 H   0  0  0  0  0  0
  -28.8666  -24.6355   22.2517 H   0  0  0  0  0  0
  -27.7211  -24.8430   19.5722 H   0  0  0  0  0  0
  -29.3619  -24.9603   20.0866 H   0  0  0  0  0  0
  -31.0828  -15.6163   22.1328 H   0  0  0  0  0  0
  -28.0191  -18.5019   21.5916 H   0  0  0  0  0  0
  -26.8945  -17.3557   21.8473 H   0  0  0  0  0  0
  1 25  1  0  0  0
  1 30  2  0  0  0
  1 82  1  0  0  0
  2  3  1  0  0  0
  2 25  1  0  0  0
  2 85  1  0  0  0
  2 86  1  0  0  0
  3  4  1  0  0  0
  3 87  1  0  0  0
  3 88  1  0  0  0
  4  5  1  0  0  0
  4 89  1  0  0  0
  4 90  1  0  0  0
  5  6  1  0  0  0
  5 26  1  0  0  0
  5 91  1  0  0  0
  6 25  1  0  0  0
  6 92  1  0  0  0
  6 93  1  0  0  0
  7  8  2  0  0  0
  7 26  1  0  0  0
  7 29  1  0  0  0
  8  9  1  0  0  0
  8 22  1  0  0  0
  9 10  1  0  0  0
  9 27  2  0  0  0
 10 11  2  0  0  0
 10 15  1  0  0  0
 11 12  1  0  0  0
 11 94  1  0  0  0
 12 13  2  0  0  0
 12 95  1  0  0  0
 13 14  1  0  0  0
 13 31  1  0  0  0
 14 15  2  0  0  0
 14 96  1  0  0  0
 15 97  1  0  0  0
 16 17  2  0  0  0
 16 21  1  0  0  0
 16 31  1  0  0  0
 17 18  1  0  0  0
 17 98  1  0  0  0
 18 19  2  0  0  0
 18 99  1  0  0  0
 19 20  1  0  0  0
 19 24  1  0  0  0
 20 21  2  0  0  0
 20100  1  0  0  0
 21 23  1  0  0  0
 22 28  1  0  0  0
 22 32  2  0  0  0
 26 27  1  0  0  0
 28101  1  0  0  0
 28102  1  0  0  0
 29103  1  0  0  0
 29104  1  0  0  0
 33 34  1  0  0  0
 33 66  1  0  0  0
 33 70  2  0  0  0
 34 36  1  0  0  0
 34 59  1  0  0  0
 34105  1  0  0  0
 35 44  2  0  0  0
 35 45  1  0  0  0
 35 68  1  0  0  0
 36 56  1  0  0  0
 36106  1  0  0  0
 37 39  1  0  0  0
 37 47  1  0  0  0
 37 66  1  0  0  0
 37107  1  0  0  0
 38 43  2  0  0  0
 38 46  1  0  0  0
 38 47  1  0  0  0
 39 64  1  0  0  0
 39 67  2  0  0  0
 40 52  1  0  0  0
 40 53  2  0  0  0
 40 58  1  0  0  0
 41108  1  0  0  0
 41109  1  0  0  0
 41110  1  0  0  0
 41 48  1  0  0  0
 42 43  1  0  0  0
 42 66  1  0  0  0
 42111  1  0  0  0
 42112  1  0  0  0
 43 44  1  0  0  0
 44113  1  0  0  0
 45 46  2  0  0  0
 45114  1  0  0  0
 46115  1  0  0  0
 47116  1  0  0  0
 47117  1  0  0  0
 48 56  1  0  0  0
 48 65  1  0  0  0
 48118  1  0  0  0
 49 50  1  0  0  0
 49 53  1  0  0  0
 49 64  1  0  0  0
 49119  1  0  0  0
 50 51  1  0  0  0
 50120  1  0  0  0
 50121  1  0  0  0
 51 52  1  0  0  0
 51122  1  0  0  0
 51123  1  0  0  0
 52124  1  0  0  0
 52125  1  0  0  0
 53 54  1  0  0  0
 54 55  2  0  0  0
 54126  1  0  0  0
 55 57  1  0  0  0
 55127  1  0  0  0
 56 69  2  0  0  0
 57 58  2  0  0  0
 57128  1  0  0  0
 58129  1  0  0  0
 59 60  1  0  0  0
 59 61  1  0  0  0
 59 62  1  0  0  0
 60130  1  0  0  0
 60131  1  0  0  0
 60132  1  0  0  0
 61133  1  0  0  0
 61134  1  0  0  0
 61135  1  0  0  0
 62136  1  0  0  0
 62137  1  0  0  0
 62138  1  0  0  0
 63 65  1  0  0  0
 63139  1  0  0  0
 63140  1  0  0  0
 63141  1  0  0  0
 64142  1  0  0  0
 65143  1  0  0  0
 68 81  1  0  0  0
 71 73  2  0  0  0
 71 75  1  0  0  0
 71144  1  0  0  0
 72 74  1  0  0  0
 72 75  2  0  0  0
 72145  1  0  0  0
 73 76  1  0  0  0
 73146  1  0  0  0
 74 76  2  0  0  0
 74147  1  0  0  0
 75 77  1  0  0  0
 76 84  1  0  0  0
 77 83  1  0  0  0
 77148  1  0  0  0
 77149  1  0  0  0
 78 79  1  0  0  0
 78 82  1  0  0  0
 78150  1  0  0  0
 78151  1  0  0  0
 79 83  1  0  0  0
 79152  1  0  0  0
 79153  1  0  0  0
 80 81  1  0  0  0
 80 84  1  0  0  0
 80154  1  0  0  0
 80155  1  0  0  0
 81156  1  0  0  0
 81157  1  0  0  0
 82158  1  0  0  0
 83159  1  0  0  0
 83160  1  0  0  0
M  CHG  1  83   1
M  ISO  4   1 100  68 101  81 101  82 100
M  END
> <chiral flag>
0

> <version>
0

> <s_m_source_file>
/data/baiqing/PycharmProjects/Reinvent-master-3.2/result/LINK_invent/BTK/process_docking_weight1_custom_sum_contain_oxygen_bond_distance_aromatic_linkinvent_7_9_3/rearranged_h_0127.sdf

> <i_m_source_file_index>
3

> <r_mmod_Potential_Energy-OPLS-2005>
-256.303863525391

> <r_mmod_Stretch_Energy-OPLS-2005>
32.6000709533691

> <r_mmod_Bend_Energy-OPLS-2005>
104.403160095215

> <r_mmod_Torsional_Energy-OPLS-2005>
270.790496826172

> <r_mmod_Improper_Torsional_Energy-OPLS-2005>
11.0860061645508

> <r_mmod_Van_der_Waal_Energy-OPLS-2005>
154.164840698242

> <r_mmod_Electrostatic_Energy-OPLS-2005>
-346.932922363281

> <r_mmod_Solvation_Energy-OPLS-2005>
-491.326202392578

> <b_mmod_Minimization_Converged-OPLS-2005>
0

> <r_mmod_RMS_Derivative-OPLS-2005>
2.7075526714325

$$$$
3
                    3D
 Structure written by MMmdl.
163172  0  0  1  0            999 V2000
  -30.6738  -14.5691   20.5364 C   0  0  0  0  0  0
  -30.4302  -12.3598   19.4380 C   0  0  0  0  0  0
  -29.5009  -12.5053   18.2147 C   0  0  0  0  0  0
  -28.0241  -12.3528   18.6302 C   0  0  0  0  0  0
  -27.6562  -13.2164   19.8658 C   0  0  2  0  0  0
  -28.7012  -13.0536   20.9921 C   0  0  0  0  0  0
  -25.2581  -13.8174   20.5679 C   0  0  0  0  0  0
  -24.1854  -13.0443   20.9188 C   0  0  0  0  0  0
  -24.6417  -11.6911   20.8747 C   0  0  0  0  0  0
  -23.9080  -10.4300   21.0418 C   0  0  0  0  0  0
  -24.3626   -9.4212   21.9197 C   0  0  0  0  0  0
  -23.6299   -8.2246   22.0762 C   0  0  0  0  0  0
  -22.4283   -8.0286   21.3543 C   0  0  0  0  0  0
  -21.9921   -9.0263   20.4644 C   0  0  0  0  0  0
  -22.7254  -10.2141   20.3060 C   0  0  0  0  0  0
  -21.6856   -6.0742   22.5278 C   0  0  0  0  0  0
  -21.4014   -6.5641   23.8211 C   0  0  0  0  0  0
  -21.3656   -5.6793   24.9172 C   0  0  0  0  0  0
  -21.6049   -4.3060   24.7222 C   0  0  0  0  0  0
  -21.8818   -3.8151   23.4343 C   0  0  0  0  0  0
  -21.9195   -4.6971   22.3402 C   0  0  0  0  0  0
  -22.7871  -13.5236   21.1846 C   0  0  0  0  0  0
  -22.1668   -4.2159   21.0981 F   0  0  0  0  0  0
  -21.5627   -3.4542   25.7735 F   0  0  0  0  0  0
  -30.0209  -13.3750   20.4250 N   0  0  0  0  0  0
  -26.3015  -12.9349   20.3342 N   0  0  0  0  0  0
  -25.9345  -11.6497   20.5768 N   0  0  0  0  0  0
  -22.0506  -12.8221   22.0388 N   0  0  0  0  0  0
  -25.4285  -15.1883   20.4068 N   0  0  0  0  0  0
  -31.8279  -14.7276   20.1329 O   0  0  0  0  0  0
  -21.6637   -6.8889   21.4242 O   0  0  0  0  0  0
  -22.3561  -14.5556   20.6714 O   0  0  0  0  0  0
  -24.6218  -31.8648   23.2092 C   0  0  0  0  0  0
  -25.9076  -32.4809   23.8408 C   0  0  1  0  0  0
  -27.2228  -27.3680   20.1101 C   0  0  0  0  0  0
  -25.5924  -33.8610   24.2334 N   0  0  0  0  0  0
  -23.4144  -30.4858   21.5519 C   0  0  2  0  0  0
  -24.8602  -28.9458   20.1191 C   0  0  0  0  0  0
  -22.7454  -29.4636   22.5001 C   0  0  0  0  0  0
  -18.0275  -28.1394   22.8501 C   0  0  0  0  0  0
  -24.1478  -36.7289   23.2638 C   0  0  0  0  0  0
  -25.9496  -30.8065   21.3763 C   0  0  0  0  0  0
  -26.0242  -29.4330   20.7286 C   0  0  0  0  0  0
  -27.2098  -28.6486   20.7288 C   0  0  0  0  0  0
  -26.0544  -26.9331   19.4564 C   0  0  0  0  0  0
  -24.8717  -27.6946   19.4805 C   0  0  0  0  0  0
  -23.6265  -29.8209   20.1678 C   0  0  0  0  0  0
  -25.4106  -36.3096   24.0335 C   0  0  1  0  0  0
  -20.5869  -28.3688   23.1314 C   0  0  2  0  0  0
  -20.6779  -26.9420   22.5419 C   0  0  0  0  0  0
  -19.5752  -26.6390   21.5232 C   0  0  0  0  0  0
  -18.1919  -26.7937   22.1617 C   0  0  0  0  0  0
  -19.1525  -28.8857   23.2895 C   0  0  0  0  0  0
  -18.9449  -30.1447   23.8922 C   0  0  0  0  0  0
  -17.6455  -30.6595   24.0575 C   0  0  0  0  0  0
  -25.9060  -34.9464   23.5136 C   0  0  0  0  0  0
  -16.5341  -29.9097   23.6344 C   0  0  0  0  0  0
  -16.7267  -28.6512   23.0373 C   0  0  0  0  0  0
  -26.4487  -31.6598   25.0757 C   0  0  0  0  0  0
  -25.3719  -31.3683   26.1476 C   0  0  0  0  0  0
  -27.0326  -30.3038   24.6157 C   0  0  0  0  0  0
  -27.6101  -32.4302   25.7491 C   0  0  0  0  0  0
  -27.5579  -37.1774   24.8454 C   0  0  0  0  0  0
  -21.4180  -29.3027   22.3714 N   0  0  0  0  0  0
  -26.4283  -37.3794   23.9425 N   0  0  0  0  0  0
  -24.6801  -31.0683   22.1035 N   0  0  0  0  0  0
  -23.4181  -28.8174   23.3080 O   0  0  0  0  0  0
  -28.3474  -26.5537   20.0782 O   0  0  0  0  0  0
  -26.5614  -34.8918   22.4697 O   0  0  0  0  0  0
  -23.5388  -32.1440   23.7439 O   0  0  0  0  0  0
  -26.5833  -22.2848   19.4941 C   0  0  0  0  0  0
  -26.8226  -23.5865   19.9626 C   0  0  0  0  0  0
  -27.6336  -21.3390   19.4951 C   0  0  0  0  0  0
  -28.1110  -23.9639   20.3849 C   0  0  0  0  0  0
  -28.8852  -21.7411   20.0081 C   0  0  0  0  0  0
  -26.1640  -18.2752   18.1293 C   0  0  0  0  0  0
  -25.1945  -19.1702   18.8718 C   0  0  0  0  0  0
  -26.3970  -19.7621   18.1791 C   0  0  0  0  0  0
  -30.0544  -20.7212   19.9924 C   0  0  0  0  0  0
  -28.3570  -25.3925   20.9695 C   0  0  0  0  0  0
  -30.3695  -17.0241   21.2570 C   0  0  0  0  0  0
  -29.7142  -18.1714   20.3940 C   0  0  0  0  0  0
  -29.1178  -23.0309   20.4264 N   0  0  0  0  0  0
  -29.9367  -15.6221   20.9747 N   0  0  0  0  0  0
  -29.9498  -19.5582   20.9364 N   0  3  0  0  0  0
  -27.5059  -20.0520   19.0194 O   0  0  0  0  0  0
  -31.4739  -12.4656   19.1369 H   0  0  0  0  0  0
  -30.3427  -11.3610   19.8676 H   0  0  0  0  0  0
  -29.7529  -11.7611   17.4574 H   0  0  0  0  0  0
  -29.6516  -13.4805   17.7486 H   0  0  0  0  0  0
  -27.8545  -11.2990   18.8543 H   0  0  0  0  0  0
  -27.3680  -12.5939   17.7934 H   0  0  0  0  0  0
  -27.6809  -14.2552   19.5356 H   0  0  0  0  0  0
  -28.6992  -12.0312   21.3729 H   0  0  0  0  0  0
  -28.4581  -13.6882   21.8452 H   0  0  0  0  0  0
  -25.2765   -9.5692   22.4780 H   0  0  0  0  0  0
  -24.0011   -7.4635   22.7485 H   0  0  0  0  0  0
  -21.0850   -8.8783   19.8944 H   0  0  0  0  0  0
  -22.3715  -10.9687   19.6172 H   0  0  0  0  0  0
  -21.2000   -7.6148   23.9721 H   0  0  0  0  0  0
  -21.1480   -6.0520   25.9078 H   0  0  0  0  0  0
  -22.0600   -2.7613   23.2837 H   0  0  0  0  0  0
  -22.4093  -11.9856   22.4744 H   0  0  0  0  0  0
  -21.1135  -13.1258   22.2602 H   0  0  0  0  0  0
  -24.6518  -15.8351   20.4834 H   0  0  0  0  0  0
  -26.2692  -15.6196   20.0482 H   0  0  0  0  0  0
  -26.7157  -32.5500   23.1180 H   0  0  0  0  0  0
  -25.0097  -33.9802   25.0490 H   0  0  0  0  0  0
  -22.7075  -31.3051   21.4099 H   0  0  0  0  0  0
  -23.3764  -35.9593   23.3282 H   0  0  0  0  0  0
  -24.3584  -36.8949   22.2062 H   0  0  0  0  0  0
  -23.7198  -37.6468   23.6675 H   0  0  0  0  0  0
  -26.0651  -31.5646   20.6002 H   0  0  0  0  0  0
  -26.8373  -30.8687   21.9941 H   0  0  0  0  0  0
  -28.1060  -29.0158   21.2113 H   0  0  0  0  0  0
  -26.0601  -26.0120   18.8970 H   0  0  0  0  0  0
  -23.9827  -27.3262   18.9882 H   0  0  0  0  0  0
  -23.7433  -30.5987   19.4123 H   0  0  0  0  0  0
  -22.7483  -29.2450   19.8704 H   0  0  0  0  0  0
  -25.1261  -36.1970   25.0822 H   0  0  0  0  0  0
  -20.9954  -28.3265   24.1436 H   0  0  0  0  0  0
  -20.5712  -26.2297   23.3612 H   0  0  0  0  0  0
  -21.6645  -26.7485   22.1182 H   0  0  0  0  0  0
  -19.6939  -25.6310   21.1243 H   0  0  0  0  0  0
  -19.6707  -27.3222   20.6782 H   0  0  0  0  0  0
  -17.4201  -26.6719   21.3994 H   0  0  0  0  0  0
  -18.0287  -26.0057   22.8991 H   0  0  0  0  0  0
  -19.7918  -30.7248   24.2313 H   0  0  0  0  0  0
  -17.5005  -31.6284   24.5153 H   0  0  0  0  0  0
  -15.5344  -30.3003   23.7653 H   0  0  0  0  0  0
  -15.8665  -28.0832   22.7106 H   0  0  0  0  0  0
  -24.5996  -30.6929   25.7792 H   0  0  0  0  0  0
  -24.8771  -32.2794   26.4834 H   0  0  0  0  0  0
  -25.8038  -30.8937   27.0298 H   0  0  0  0  0  0
  -26.2898  -29.6779   24.1213 H   0  0  0  0  0  0
  -27.4098  -29.7293   25.4625 H   0  0  0  0  0  0
  -27.8705  -30.4356   23.9317 H   0  0  0  0  0  0
  -27.2826  -33.3685   26.1974 H   0  0  0  0  0  0
  -28.3925  -32.6720   25.0286 H   0  0  0  0  0  0
  -28.0720  -31.8453   26.5457 H   0  0  0  0  0  0
  -28.2542  -38.0121   24.7600 H   0  0  0  0  0  0
  -28.1122  -36.2662   24.6153 H   0  0  0  0  0  0
  -27.2310  -37.1294   25.8855 H   0  0  0  0  0  0
  -20.9375  -29.8719   21.6892 H   0  0  0  0  0  0
  -26.0158  -38.2849   24.1514 H   0  0  0  0  0  0
  -25.5918  -22.0242   19.1549 H   0  0  0  0  0  0
  -25.9970  -24.2767   20.0203 H   0  0  0  0  0  0
  -25.8368  -17.8519   17.1817 H   0  0  0  0  0  0
  -26.8138  -17.6377   18.7243 H   0  0  0  0  0  0
  -25.2021  -19.1506   19.9598 H   0  0  0  0  0  0
  -24.2199  -19.3234   18.4125 H   0  0  0  0  0  0
  -26.3086  -20.3380   17.2580 H   0  0  0  0  0  0
  -30.9699  -21.2575   20.2409 H   0  0  0  0  0  0
  -30.1976  -20.3714   18.9699 H   0  0  0  0  0  0
  -29.3301  -25.3875   21.4609 H   0  0  0  0  0  0
  -27.6321  -25.5427   21.7714 H   0  0  0  0  0  0
  -30.1506  -17.2098   22.3095 H   0  0  0  0  0  0
  -31.4551  -17.0951   21.1709 H   0  0  0  0  0  0
  -28.6378  -18.0165   20.3299 H   0  0  0  0  0  0
  -30.0935  -18.1017   19.3735 H   0  0  0  0  0  0
  -28.9889  -15.3936   21.2358 H   0  0  0  0  0  0
  -29.2377  -19.7816   21.6110 H   0  0  0  0  0  0
  -30.8258  -19.5481   21.4300 H   0  0  0  0  0  0
  1 25  1  0  0  0
  1 30  2  0  0  0
  1 84  1  0  0  0
  2  3  1  0  0  0
  2 25  1  0  0  0
  2 87  1  0  0  0
  2 88  1  0  0  0
  3  4  1  0  0  0
  3 89  1  0  0  0
  3 90  1  0  0  0
  4  5  1  0  0  0
  4 91  1  0  0  0
  4 92  1  0  0  0
  5  6  1  0  0  0
  5 26  1  0  0  0
  5 93  1  0  0  0
  6 25  1  0  0  0
  6 94  1  0  0  0
  6 95  1  0  0  0
  7  8  2  0  0  0
  7 26  1  0  0  0
  7 29  1  0  0  0
  8  9  1  0  0  0
  8 22  1  0  0  0
  9 10  1  0  0  0
  9 27  2  0  0  0
 10 11  2  0  0  0
 10 15  1  0  0  0
 11 12  1  0  0  0
 11 96  1  0  0  0
 12 13  2  0  0  0
 12 97  1  0  0  0
 13 14  1  0  0  0
 13 31  1  0  0  0
 14 15  2  0  0  0
 14 98  1  0  0  0
 15 99  1  0  0  0
 16 17  2  0  0  0
 16 21  1  0  0  0
 16 31  1  0  0  0
 17 18  1  0  0  0
 17100  1  0  0  0
 18 19  2  0  0  0
 18101  1  0  0  0
 19 20  1  0  0  0
 19 24  1  0  0  0
 20 21  2  0  0  0
 20102  1  0  0  0
 21 23  1  0  0  0
 22 28  1  0  0  0
 22 32  2  0  0  0
 26 27  1  0  0  0
 28103  1  0  0  0
 28104  1  0  0  0
 29105  1  0  0  0
 29106  1  0  0  0
 33 34  1  0  0  0
 33 66  1  0  0  0
 33 70  2  0  0  0
 34 36  1  0  0  0
 34 59  1  0  0  0
 34107  1  0  0  0
 35 44  2  0  0  0
 35 45  1  0  0  0
 35 68  1  0  0  0
 36 56  1  0  0  0
 36108  1  0  0  0
 37 39  1  0  0  0
 37 47  1  0  0  0
 37 66  1  0  0  0
 37109  1  0  0  0
 38 43  2  0  0  0
 38 46  1  0  0  0
 38 47  1  0  0  0
 39 64  1  0  0  0
 39 67  2  0  0  0
 40 52  1  0  0  0
 40 53  2  0  0  0
 40 58  1  0  0  0
 41110  1  0  0  0
 41111  1  0  0  0
 41112  1  0  0  0
 41 48  1  0  0  0
 42 43  1  0  0  0
 42 66  1  0  0  0
 42113  1  0  0  0
 42114  1  0  0  0
 43 44  1  0  0  0
 44115  1  0  0  0
 45 46  2  0  0  0
 45116  1  0  0  0
 46117  1  0  0  0
 47118  1  0  0  0
 47119  1  0  0  0
 48 56  1  0  0  0
 48 65  1  0  0  0
 48120  1  0  0  0
 49 50  1  0  0  0
 49 53  1  0  0  0
 49 64  1  0  0  0
 49121  1  0  0  0
 50 51  1  0  0  0
 50122  1  0  0  0
 50123  1  0  0  0
 51 52  1  0  0  0
 51124  1  0  0  0
 51125  1  0  0  0
 52126  1  0  0  0
 52127  1  0  0  0
 53 54  1  0  0  0
 54 55  2  0  0  0
 54128  1  0  0  0
 55 57  1  0  0  0
 55129  1  0  0  0
 56 69  2  0  0  0
 57 58  2  0  0  0
 57130  1  0  0  0
 58131  1  0  0  0
 59 60  1  0  0  0
 59 61  1  0  0  0
 59 62  1  0  0  0
 60132  1  0  0  0
 60133  1  0  0  0
 60134  1  0  0  0
 61135  1  0  0  0
 61136  1  0  0  0
 61137  1  0  0  0
 62138  1  0  0  0
 62139  1  0  0  0
 62140  1  0  0  0
 63 65  1  0  0  0
 63141  1  0  0  0
 63142  1  0  0  0
 63143  1  0  0  0
 64144  1  0  0  0
 65145  1  0  0  0
 68 80  1  0  0  0
 71 72  2  0  0  0
 71 73  1  0  0  0
 71146  1  0  0  0
 72 74  1  0  0  0
 72147  1  0  0  0
 73 75  2  0  0  0
 73 86  1  0  0  0
 74 80  1  0  0  0
 74 83  2  0  0  0
 75 79  1  0  0  0
 75 83  1  0  0  0
 76 77  1  0  0  0
 76 78  1  0  0  0
 76148  1  0  0  0
 76149  1  0  0  0
 77 78  1  0  0  0
 77150  1  0  0  0
 77151  1  0  0  0
 78 86  1  0  0  0
 78152  1  0  0  0
 79 85  1  0  0  0
 79153  1  0  0  0
 79154  1  0  0  0
 80155  1  0  0  0
 80156  1  0  0  0
 81 82  1  0  0  0
 81 84  1  0  0  0
 81157  1  0  0  0
 81158  1  0  0  0
 82 85  1  0  0  0
 82159  1  0  0  0
 82160  1  0  0  0
 84161  1  0  0  0
 85162  1  0  0  0
 85163  1  0  0  0
M  CHG  1  85   1
M  ISO  4   1 100  68 101  80 101  84 100
M  END
> <chiral flag>
0

> <version>
0

> <s_m_source_file>
/data/baiqing/PycharmProjects/Reinvent-master-3.2/result/LINK_invent/BTK/process_docking_weight1_custom_sum_contain_oxygen_bond_distance_aromatic_linkinvent_7_9_3/rearranged_h_0127.sdf

> <i_m_source_file_index>
4

> <r_mmod_Potential_Energy-OPLS-2005>
-380.855499267578

> <r_mmod_Stretch_Energy-OPLS-2005>
58.8359794616699

> <r_mmod_Bend_Energy-OPLS-2005>
129.741180419922

> <r_mmod_Torsional_Energy-OPLS-2005>
268.191070556641

> <r_mmod_Improper_Torsional_Energy-OPLS-2005>
4.41128873825073

> <r_mmod_Van_der_Waal_Energy-OPLS-2005>
138.527404785156

> <r_mmod_Electrostatic_Energy-OPLS-2005>
-534.819091796875

> <r_mmod_Solvation_Energy-OPLS-2005>
-474.828491210938

> <b_mmod_Minimization_Converged-OPLS-2005>
0

> <r_mmod_RMS_Derivative-OPLS-2005>
2.57730650901794

$$$$
4
                    3D
 Structure written by MMmdl.
164172  0  0  1  0            999 V2000
  -30.7039  -14.5584   20.4847 C   0  0  0  0  0  0
  -30.4382  -12.3675   19.3762 C   0  0  0  0  0  0
  -29.4610  -12.4138   18.1838 C   0  0  0  0  0  0
  -27.9979  -12.2770   18.6411 C   0  0  0  0  0  0
  -27.6472  -13.1813   19.8497 C   0  0  2  0  0  0
  -28.7174  -13.0684   20.9571 C   0  0  0  0  0  0
  -25.2637  -13.8119   20.5697 C   0  0  0  0  0  0
  -24.1850  -13.0429   20.9188 C   0  0  0  0  0  0
  -24.6384  -11.6894   20.8781 C   0  0  0  0  0  0
  -23.9046  -10.4285   21.0427 C   0  0  0  0  0  0
  -24.3610   -9.4197   21.9176 C   0  0  0  0  0  0
  -23.6296   -8.2235   22.0736 C   0  0  0  0  0  0
  -22.4274   -8.0276   21.3539 C   0  0  0  0  0  0
  -21.9903   -9.0263   20.4647 C   0  0  0  0  0  0
  -22.7245  -10.2142   20.3064 C   0  0  0  0  0  0
  -21.6864   -6.0717   22.5270 C   0  0  0  0  0  0
  -21.3997   -6.5620   23.8201 C   0  0  0  0  0  0
  -21.3651   -5.6781   24.9166 C   0  0  0  0  0  0
  -21.6057   -4.3050   24.7224 C   0  0  0  0  0  0
  -21.8834   -3.8128   23.4351 C   0  0  0  0  0  0
  -21.9204   -4.6939   22.3402 C   0  0  0  0  0  0
  -22.7878  -13.5221   21.1832 C   0  0  0  0  0  0
  -22.1657   -4.2106   21.0983 F   0  0  0  0  0  0
  -21.5654   -3.4546   25.7744 F   0  0  0  0  0  0
  -30.0178  -13.3855   20.3573 N   0  0  0  0  0  0
  -26.3014  -12.9215   20.3395 N   0  0  0  0  0  0
  -25.9307  -11.6411   20.5884 N   0  0  0  0  0  0
  -22.0488  -12.8167   22.0355 N   0  0  0  0  0  0
  -25.4484  -15.1832   20.4041 N   0  0  0  0  0  0
  -31.9175  -14.6093   20.2773 O   0  0  0  0  0  0
  -21.6655   -6.8865   21.4232 O   0  0  0  0  0  0
  -22.3575  -14.5535   20.6722 O   0  0  0  0  0  0
  -24.6173  -31.8662   23.2063 C   0  0  0  0  0  0
  -25.9060  -32.4802   23.8369 C   0  0  1  0  0  0
  -27.2314  -27.4063   20.1386 C   0  0  0  0  0  0
  -25.5930  -33.8603   24.2343 N   0  0  0  0  0  0
  -23.4058  -30.4879   21.5452 C   0  0  2  0  0  0
  -24.8578  -28.9540   20.1094 C   0  0  0  0  0  0
  -22.7424  -29.4651   22.4961 C   0  0  0  0  0  0
  -18.0274  -28.1376   22.8490 C   0  0  0  0  0  0
  -24.1466  -36.7252   23.2642 C   0  0  0  0  0  0
  -25.9357  -30.8299   21.3593 C   0  0  0  0  0  0
  -26.0167  -29.4611   20.7128 C   0  0  0  0  0  0
  -27.2102  -28.6960   20.7231 C   0  0  0  0  0  0
  -26.0649  -26.9302   19.5035 C   0  0  0  0  0  0
  -24.8799  -27.6901   19.4934 C   0  0  0  0  0  0
  -23.6163  -29.8163   20.1609 C   0  0  0  0  0  0
  -25.4086  -36.3094   24.0359 C   0  0  1  0  0  0
  -20.5873  -28.3667   23.1310 C   0  0  2  0  0  0
  -20.6765  -26.9404   22.5414 C   0  0  0  0  0  0
  -19.5750  -26.6390   21.5206 C   0  0  0  0  0  0
  -18.1919  -26.7938   22.1594 C   0  0  0  0  0  0
  -19.1527  -28.8835   23.2893 C   0  0  0  0  0  0
  -18.9450  -30.1445   23.8890 C   0  0  0  0  0  0
  -17.6462  -30.6582   24.0551 C   0  0  0  0  0  0
  -25.9034  -34.9463   23.5138 C   0  0  0  0  0  0
  -16.5347  -29.9080   23.6344 C   0  0  0  0  0  0
  -16.7263  -28.6495   23.0354 C   0  0  0  0  0  0
  -26.4510  -31.6561   25.0688 C   0  0  0  0  0  0
  -25.3784  -31.3586   26.1422 C   0  0  0  0  0  0
  -27.0367  -30.3028   24.6011 C   0  0  0  0  0  0
  -27.6077  -32.4262   25.7498 C   0  0  0  0  0  0
  -27.5567  -37.1797   24.8462 C   0  0  0  0  0  0
  -21.4150  -29.3032   22.3707 N   0  0  0  0  0  0
  -26.4254  -37.3798   23.9439 N   0  0  0  0  0  0
  -24.6708  -31.0762   22.0954 N   0  0  0  0  0  0
  -23.4190  -28.8208   23.3013 O   0  0  0  0  0  0
  -28.3492  -26.5932   20.2066 O   0  0  0  0  0  0
  -26.5564  -34.8937   22.4692 O   0  0  0  0  0  0
  -23.5358  -32.1413   23.7449 O   0  0  0  0  0  0
  -30.1833  -17.3200   18.6896 C   0  0  0  0  0  0
  -31.2286  -17.5891   19.7529 C   0  0  0  0  0  0
  -29.3860  -16.1248   19.2296 C   0  0  0  0  0  0
  -30.5726  -17.0032   21.0145 C   0  0  1  0  0  0
  -30.8461  -22.3308   22.6150 C   0  0  0  0  0  0
  -29.5231  -18.0084   21.6314 C   0  0  0  0  0  0
  -29.1645  -24.2440   20.7971 C   0  0  0  0  0  0
  -29.1233  -20.5358   21.8936 C   0  0  0  0  0  0
  -28.1476  -25.4075   21.0211 C   0  0  0  0  0  0
  -29.7790  -21.9341   21.5781 C   0  0  1  0  0  0
  -29.9727  -15.7198   20.5293 N   0  0  0  0  0  0
  -28.7720  -23.0145   21.5249 N   0  0  0  0  0  0
  -30.0796  -19.3898   21.7817 N   0  3  0  0  0  0
  -31.4461  -12.5443   18.9923 H   0  0  0  0  0  0
  -30.4588  -11.3768   19.8317 H   0  0  0  0  0  0
  -29.6923  -11.6009   17.4923 H   0  0  0  0  0  0
  -29.5772  -13.3345   17.6128 H   0  0  0  0  0  0
  -27.8416  -11.2294   18.9031 H   0  0  0  0  0  0
  -27.3186  -12.4807   17.8118 H   0  0  0  0  0  0
  -27.6425  -14.1983   19.4725 H   0  0  0  0  0  0
  -28.7502  -12.0538   21.3577 H   0  0  0  0  0  0
  -28.4998  -13.7359   21.7911 H   0  0  0  0  0  0
  -25.2774   -9.5688   22.4715 H   0  0  0  0  0  0
  -24.0035   -7.4629   22.7442 H   0  0  0  0  0  0
  -21.0840   -8.8842   19.8942 H   0  0  0  0  0  0
  -22.3753  -10.9694   19.6166 H   0  0  0  0  0  0
  -21.1951   -7.6121   23.9687 H   0  0  0  0  0  0
  -21.1448   -6.0501   25.9068 H   0  0  0  0  0  0
  -22.0612   -2.7587   23.2884 H   0  0  0  0  0  0
  -22.4053  -11.9726   22.4603 H   0  0  0  0  0  0
  -21.1123  -13.1187   22.2580 H   0  0  0  0  0  0
  -24.6969  -15.8562   20.5030 H   0  0  0  0  0  0
  -26.3204  -15.6092   20.1170 H   0  0  0  0  0  0
  -26.7137  -32.5548   23.1139 H   0  0  0  0  0  0
  -25.0200  -33.9748   25.0572 H   0  0  0  0  0  0
  -22.6941  -31.3042   21.4020 H   0  0  0  0  0  0
  -23.3783  -35.9525   23.3249 H   0  0  0  0  0  0
  -24.3580  -36.8901   22.2066 H   0  0  0  0  0  0
  -23.7131  -37.6408   23.6676 H   0  0  0  0  0  0
  -26.0419  -31.5906   20.5842 H   0  0  0  0  0  0
  -26.8261  -30.8914   21.9739 H   0  0  0  0  0  0
  -28.0973  -29.0754   21.2117 H   0  0  0  0  0  0
  -26.0669  -25.9554   19.0357 H   0  0  0  0  0  0
  -23.9943  -27.2929   19.0169 H   0  0  0  0  0  0
  -23.7138  -30.5855   19.3936 H   0  0  0  0  0  0
  -22.7450  -29.2244   19.8733 H   0  0  0  0  0  0
  -25.1254  -36.1944   25.0848 H   0  0  0  0  0  0
  -20.9964  -28.3225   24.1432 H   0  0  0  0  0  0
  -20.5671  -26.2266   23.3592 H   0  0  0  0  0  0
  -21.6627  -26.7447   22.1200 H   0  0  0  0  0  0
  -19.6898  -25.6303   21.1224 H   0  0  0  0  0  0
  -19.6707  -27.3208   20.6743 H   0  0  0  0  0  0
  -17.4215  -26.6737   21.3961 H   0  0  0  0  0  0
  -18.0265  -26.0059   22.8956 H   0  0  0  0  0  0
  -19.7937  -30.7261   24.2244 H   0  0  0  0  0  0
  -17.5023  -31.6274   24.5136 H   0  0  0  0  0  0
  -15.5345  -30.2963   23.7691 H   0  0  0  0  0  0
  -15.8664  -28.0819   22.7061 H   0  0  0  0  0  0
  -24.5986  -30.6925   25.7712 H   0  0  0  0  0  0
  -24.8956  -32.2704   26.4943 H   0  0  0  0  0  0
  -25.8166  -30.8691   27.0129 H   0  0  0  0  0  0
  -26.2894  -29.6755   24.1137 H   0  0  0  0  0  0
  -27.4263  -29.7278   25.4422 H   0  0  0  0  0  0
  -27.8670  -30.4388   23.9074 H   0  0  0  0  0  0
  -27.2734  -33.3624   26.1982 H   0  0  0  0  0  0
  -28.3986  -32.6683   25.0386 H   0  0  0  0  0  0
  -28.0621  -31.8403   26.5501 H   0  0  0  0  0  0
  -28.2534  -38.0146   24.7587 H   0  0  0  0  0  0
  -28.1112  -36.2680   24.6182 H   0  0  0  0  0  0
  -27.2310  -37.1293   25.8868 H   0  0  0  0  0  0
  -20.9300  -29.8740   21.6937 H   0  0  0  0  0  0
  -26.0130  -38.2869   24.1466 H   0  0  0  0  0  0
  -30.6481  -17.1190   17.7223 H   0  0  0  0  0  0
  -29.5214  -18.1794   18.5730 H   0  0  0  0  0  0
  -31.5122  -18.6371   19.8172 H   0  0  0  0  0  0
  -32.1411  -17.0396   19.5074 H   0  0  0  0  0  0
  -29.3909  -15.3362   18.4801 H   0  0  0  0  0  0
  -28.3414  -16.4128   19.3642 H   0  0  0  0  0  0
  -31.3399  -16.8089   21.7686 H   0  0  0  0  0  0
  -31.5764  -21.5360   22.7610 H   0  0  0  0  0  0
  -30.4037  -22.5526   23.5866 H   0  0  0  0  0  0
  -31.4083  -23.2128   22.3060 H   0  0  0  0  0  0
  -29.1710  -17.6422   22.5984 H   0  0  0  0  0  0
  -28.6347  -18.0651   21.0041 H   0  0  0  0  0  0
  -30.1555  -24.5824   21.0981 H   0  0  0  0  0  0
  -29.2216  -24.0156   19.7325 H   0  0  0  0  0  0
  -28.3171  -20.3733   21.1789 H   0  0  0  0  0  0
  -28.6627  -20.5324   22.8825 H   0  0  0  0  0  0
  -28.1928  -25.7169   22.0676 H   0  0  0  0  0  0
  -27.1443  -25.0048   20.8813 H   0  0  0  0  0  0
  -30.2501  -21.8591   20.5961 H   0  0  0  0  0  0
  -27.9207  -22.6553   21.0986 H   0  0  0  0  0  0
  -30.6207  -19.5556   20.9497 H   0  0  0  0  0  0
  -30.7105  -19.4002   22.5662 H   0  0  0  0  0  0
  1 25  1  0  0  0
  1 30  2  0  0  0
  1 81  1  0  0  0
  2  3  1  0  0  0
  2 25  1  0  0  0
  2 84  1  0  0  0
  2 85  1  0  0  0
  3  4  1  0  0  0
  3 86  1  0  0  0
  3 87  1  0  0  0
  4  5  1  0  0  0
  4 88  1  0  0  0
  4 89  1  0  0  0
  5  6  1  0  0  0
  5 26  1  0  0  0
  5 90  1  0  0  0
  6 25  1  0  0  0
  6 91  1  0  0  0
  6 92  1  0  0  0
  7  8  2  0  0  0
  7 26  1  0  0  0
  7 29  1  0  0  0
  8  9  1  0  0  0
  8 22  1  0  0  0
  9 10  1  0  0  0
  9 27  2  0  0  0
 10 11  2  0  0  0
 10 15  1  0  0  0
 11 12  1  0  0  0
 11 93  1  0  0  0
 12 13  2  0  0  0
 12 94  1  0  0  0
 13 14  1  0  0  0
 13 31  1  0  0  0
 14 15  2  0  0  0
 14 95  1  0  0  0
 15 96  1  0  0  0
 16 17  2  0  0  0
 16 21  1  0  0  0
 16 31  1  0  0  0
 17 18  1  0  0  0
 17 97  1  0  0  0
 18 19  2  0  0  0
 18 98  1  0  0  0
 19 20  1  0  0  0
 19 24  1  0  0  0
 20 21  2  0  0  0
 20 99  1  0  0  0
 21 23  1  0  0  0
 22 28  1  0  0  0
 22 32  2  0  0  0
 26 27  1  0  0  0
 28100  1  0  0  0
 28101  1  0  0  0
 29102  1  0  0  0
 29103  1  0  0  0
 33 34  1  0  0  0
 33 66  1  0  0  0
 33 70  2  0  0  0
 34 36  1  0  0  0
 34 59  1  0  0  0
 34104  1  0  0  0
 35 44  2  0  0  0
 35 45  1  0  0  0
 35 68  1  0  0  0
 36 56  1  0  0  0
 36105  1  0  0  0
 37 39  1  0  0  0
 37 47  1  0  0  0
 37 66  1  0  0  0
 37106  1  0  0  0
 38 43  2  0  0  0
 38 46  1  0  0  0
 38 47  1  0  0  0
 39 64  1  0  0  0
 39 67  2  0  0  0
 40 52  1  0  0  0
 40 53  2  0  0  0
 40 58  1  0  0  0
 41107  1  0  0  0
 41108  1  0  0  0
 41109  1  0  0  0
 41 48  1  0  0  0
 42 43  1  0  0  0
 42 66  1  0  0  0
 42110  1  0  0  0
 42111  1  0  0  0
 43 44  1  0  0  0
 44112  1  0  0  0
 45 46  2  0  0  0
 45113  1  0  0  0
 46114  1  0  0  0
 47115  1  0  0  0
 47116  1  0  0  0
 48 56  1  0  0  0
 48 65  1  0  0  0
 48117  1  0  0  0
 49 50  1  0  0  0
 49 53  1  0  0  0
 49 64  1  0  0  0
 49118  1  0  0  0
 50 51  1  0  0  0
 50119  1  0  0  0
 50120  1  0  0  0
 51 52  1  0  0  0
 51121  1  0  0  0
 51122  1  0  0  0
 52123  1  0  0  0
 52124  1  0  0  0
 53 54  1  0  0  0
 54 55  2  0  0  0
 54125  1  0  0  0
 55 57  1  0  0  0
 55126  1  0  0  0
 56 69  2  0  0  0
 57 58  2  0  0  0
 57127  1  0  0  0
 58128  1  0  0  0
 59 60  1  0  0  0
 59 61  1  0  0  0
 59 62  1  0  0  0
 60129  1  0  0  0
 60130  1  0  0  0
 60131  1  0  0  0
 61132  1  0  0  0
 61133  1  0  0  0
 61134  1  0  0  0
 62135  1  0  0  0
 62136  1  0  0  0
 62137  1  0  0  0
 63 65  1  0  0  0
 63138  1  0  0  0
 63139  1  0  0  0
 63140  1  0  0  0
 64141  1  0  0  0
 65142  1  0  0  0
 68 79  1  0  0  0
 71 72  1  0  0  0
 71 73  1  0  0  0
 71143  1  0  0  0
 71144  1  0  0  0
 72 74  1  0  0  0
 72145  1  0  0  0
 72146  1  0  0  0
 73 81  1  0  0  0
 73147  1  0  0  0
 73148  1  0  0  0
 74 76  1  0  0  0
 74 81  1  0  0  0
 74149  1  0  0  0
 75150  1  0  0  0
 75151  1  0  0  0
 75152  1  0  0  0
 75 80  1  0  0  0
 76 83  1  0  0  0
 76153  1  0  0  0
 76154  1  0  0  0
 77 79  1  0  0  0
 77 82  1  0  0  0
 77155  1  0  0  0
 77156  1  0  0  0
 78 80  1  0  0  0
 78 83  1  0  0  0
 78157  1  0  0  0
 78158  1  0  0  0
 79159  1  0  0  0
 79160  1  0  0  0
 80 82  1  0  0  0
 80161  1  0  0  0
 82162  1  0  0  0
 83163  1  0  0  0
 83164  1  0  0  0
M  CHG  1  83   1
M  ISO  4   1 100  68 101  79 101  81 100
M  END
> <chiral flag>
0

> <version>
0

> <s_m_source_file>
/data/baiqing/PycharmProjects/Reinvent-master-3.2/result/LINK_invent/BTK/process_docking_weight1_custom_sum_contain_oxygen_bond_distance_aromatic_linkinvent_7_9_3/rearranged_h_0127.sdf

> <i_m_source_file_index>
5

> <r_mmod_Potential_Energy-OPLS-2005>
137.901458740234

> <r_mmod_Stretch_Energy-OPLS-2005>
53.1263542175293

> <r_mmod_Bend_Energy-OPLS-2005>
140.762054443359

> <r_mmod_Torsional_Energy-OPLS-2005>
394.205505371094

> <r_mmod_Improper_Torsional_Energy-OPLS-2005>
13.3728103637695

> <r_mmod_Van_der_Waal_Energy-OPLS-2005>
135.682708740234

> <r_mmod_Electrostatic_Energy-OPLS-2005>
-174.900360107422

> <r_mmod_Solvation_Energy-OPLS-2005>
-463.300964355469

> <b_mmod_Minimization_Converged-OPLS-2005>
0

> <r_mmod_RMS_Derivative-OPLS-2005>
4.24742650985718

$$$$
5
                    3D
 Structure written by MMmdl.
165174  0  0  1  0            999 V2000
  -30.3618  -14.9126   20.2229 C   0  0  0  0  0  0
  -30.4263  -12.5106   19.4581 C   0  0  0  0  0  0
  -29.4867  -12.4091   18.2231 C   0  0  0  0  0  0
  -28.0220  -12.2293   18.6669 C   0  0  0  0  0  0
  -27.6161  -13.1903   19.8074 C   0  0  2  0  0  0
  -28.6592  -13.2195   20.9443 C   0  0  0  0  0  0
  -25.2444  -13.8120   20.5594 C   0  0  0  0  0  0
  -24.1783  -13.0410   20.9272 C   0  0  0  0  0  0
  -24.6362  -11.6855   20.8888 C   0  0  0  0  0  0
  -23.9065  -10.4246   21.0511 C   0  0  0  0  0  0
  -24.3629   -9.4165   21.9283 C   0  0  0  0  0  0
  -23.6286   -8.2219   22.0797 C   0  0  0  0  0  0
  -22.4297   -8.0283   21.3557 C   0  0  0  0  0  0
  -21.9921   -9.0277   20.4702 C   0  0  0  0  0  0
  -22.7249  -10.2152   20.3142 C   0  0  0  0  0  0
  -21.6855   -6.0765   22.5278 C   0  0  0  0  0  0
  -21.3991   -6.5645   23.8216 C   0  0  0  0  0  0
  -21.3644   -5.6790   24.9174 C   0  0  0  0  0  0
  -21.6042   -4.3059   24.7216 C   0  0  0  0  0  0
  -21.8827   -3.8162   23.4333 C   0  0  0  0  0  0
  -21.9181   -4.6988   22.3392 C   0  0  0  0  0  0
  -22.7862  -13.5272   21.1894 C   0  0  0  0  0  0
  -22.1674   -4.2161   21.0981 F   0  0  0  0  0  0
  -21.5623   -3.4547   25.7736 F   0  0  0  0  0  0
  -29.9138  -13.6147   20.3126 N   0  0  0  0  0  0
  -26.2782  -12.9213   20.3093 N   0  0  0  0  0  0
  -25.9258  -11.6379   20.5840 N   0  0  0  0  0  0
  -22.0476  -12.8300   22.0418 N   0  0  0  0  0  0
  -25.4091  -15.1760   20.3578 N   0  0  0  0  0  0
  -31.5611  -15.1095   20.0399 O   0  0  0  0  0  0
  -21.6626   -6.8928   21.4258 O   0  0  0  0  0  0
  -22.3564  -14.5543   20.6688 O   0  0  0  0  0  0
  -24.6475  -31.8461   23.2117 C   0  0  0  0  0  0
  -25.9147  -32.4716   23.8343 C   0  0  1  0  0  0
  -27.0782  -27.1635   20.0083 C   0  0  0  0  0  0
  -25.6037  -33.8596   24.2342 N   0  0  0  0  0  0
  -23.4133  -30.4750   21.5867 C   0  0  2  0  0  0
  -24.8385  -28.9582   20.0798 C   0  0  0  0  0  0
  -22.7353  -29.4335   22.4951 C   0  0  0  0  0  0
  -18.0584  -28.1189   22.7872 C   0  0  0  0  0  0
  -24.1493  -36.7252   23.2666 C   0  0  0  0  0  0
  -25.9904  -30.7149   21.4054 C   0  0  0  0  0  0
  -26.0305  -29.3492   20.7041 C   0  0  0  0  0  0
  -27.1640  -28.4604   20.6687 C   0  0  0  0  0  0
  -25.8793  -26.8845   19.3340 C   0  0  0  0  0  0
  -24.7791  -27.7580   19.3591 C   0  0  0  0  0  0
  -23.6110  -29.8604   20.1833 C   0  0  0  0  0  0
  -25.4107  -36.3121   24.0380 C   0  0  1  0  0  0
  -20.6111  -28.3190   23.1716 C   0  0  2  0  0  0
  -20.7003  -26.8525   22.6687 C   0  0  0  0  0  0
  -19.6898  -26.5537   21.5668 C   0  0  0  0  0  0
  -18.2442  -26.8068   22.0142 C   0  0  0  0  0  0
  -19.1733  -28.8541   23.2904 C   0  0  0  0  0  0
  -18.9576  -30.1203   23.8888 C   0  0  0  0  0  0
  -17.6454  -30.5994   24.0544 C   0  0  0  0  0  0
  -25.9047  -34.9442   23.5125 C   0  0  0  0  0  0
  -16.5422  -29.8373   23.6309 C   0  0  0  0  0  0
  -16.7357  -28.5996   22.9930 C   0  0  0  0  0  0
  -26.4460  -31.6612   25.0729 C   0  0  0  0  0  0
  -25.3720  -31.3804   26.1518 C   0  0  0  0  0  0
  -27.0310  -30.3037   24.6300 C   0  0  0  0  0  0
  -27.6078  -32.4339   25.7517 C   0  0  0  0  0  0
  -27.5574  -37.1801   24.8482 C   0  0  0  0  0  0
  -21.4070  -29.2520   22.3687 N   0  0  0  0  0  0
  -26.4273  -37.3812   23.9415 N   0  0  0  0  0  0
  -24.7019  -31.0178   22.1224 N   0  0  0  0  0  0
  -23.3934  -28.7853   23.3006 O   0  0  0  0  0  0
  -28.0311  -26.1098   19.9517 O   0  0  0  0  0  0
  -26.5665  -34.8927   22.4739 O   0  0  0  0  0  0
  -23.5605  -32.1367   23.7363 O   0  0  0  0  0  0
  -26.1445  -20.0448   21.0019 C   0  0  0  0  0  0
  -27.8004  -19.7430   19.3256 C   0  0  0  0  0  0
  -26.7927  -20.6508   19.9027 C   0  0  0  0  0  0
  -26.4879  -18.8029   21.5046 C   0  0  0  0  0  0
  -28.1232  -18.4212   19.9103 C   0  0  0  0  0  0
  -25.2369  -21.9501   18.2434 C   0  0  0  0  0  0
  -24.2083  -23.1063   18.3010 C   0  0  0  0  0  0
  -25.1009  -22.6283   20.4089 C   0  0  0  0  0  0
  -26.2317  -22.1307   19.4318 C   0  0  1  0  0  0
  -25.7221  -18.2162   22.6528 C   0  0  0  0  0  0
  -29.2441  -17.3250   19.4476 C   0  0  0  0  0  0
  -27.1965  -23.4476   19.0958 C   0  0  0  0  0  0
  -27.5746  -24.6574   20.1634 C   0  0  0  0  0  0
  -27.4781  -18.0250   21.0058 N   0  0  0  0  0  0
  -29.3526  -15.9114   20.0966 N   0  0  0  0  0  0
  -24.2617  -23.5958   19.6907 N   0  3  0  0  0  0
  -31.4670  -12.6552   19.1557 H   0  0  0  0  0  0
  -30.3859  -11.5676   20.0148 H   0  0  0  0  0  0
  -29.7768  -11.5329   17.6302 H   0  0  0  0  0  0
  -29.5916  -13.2739   17.5536 H   0  0  0  0  0  0
  -27.9367  -11.2168   19.0211 H   0  0  0  0  0  0
  -27.3457  -12.3086   17.8167 H   0  0  0  0  0  0
  -27.5772  -14.1769   19.3465 H   0  0  0  0  0  0
  -28.7366  -12.2596   21.4515 H   0  0  0  0  0  0
  -28.3791  -13.9399   21.7208 H   0  0  0  0  0  0
  -25.2807   -9.5599   22.4837 H   0  0  0  0  0  0
  -23.9986   -7.4588   22.7475 H   0  0  0  0  0  0
  -21.0883   -8.8857   19.8983 H   0  0  0  0  0  0
  -22.3788  -10.9740   19.6238 H   0  0  0  0  0  0
  -21.1993   -7.6155   23.9715 H   0  0  0  0  0  0
  -21.1451   -6.0532   25.9071 H   0  0  0  0  0  0
  -22.0619   -2.7624   23.2833 H   0  0  0  0  0  0
  -22.4057  -11.9962   22.4832 H   0  0  0  0  0  0
  -21.1107  -13.1355   22.2635 H   0  0  0  0  0  0
  -24.5948  -15.7699   20.4073 H   0  0  0  0  0  0
  -26.0879  -15.5176   19.6889 H   0  0  0  0  0  0
  -26.7221  -32.5313   23.1117 H   0  0  0  0  0  0
  -24.9940  -33.9713   25.0326 H   0  0  0  0  0  0
  -22.7033  -31.3113   21.4905 H   0  0  0  0  0  0
  -23.3756  -35.9577   23.3378 H   0  0  0  0  0  0
  -24.3519  -36.8823   22.2049 H   0  0  0  0  0  0
  -23.7149  -37.6467   23.6595 H   0  0  0  0  0  0
  -26.1471  -31.4872   20.6575 H   0  0  0  0  0  0
  -26.8703  -30.7551   22.0327 H   0  0  0  0  0  0
  -28.0878  -28.7025   21.1906 H   0  0  0  0  0  0
  -25.7857  -26.0008   18.7443 H   0  0  0  0  0  0
  -23.8958  -27.5166   18.7855 H   0  0  0  0  0  0
  -23.7255  -30.6827   19.4671 H   0  0  0  0  0  0
  -22.7271  -29.3018   19.8921 H   0  0  0  0  0  0
  -25.1261  -36.2036   25.0870 H   0  0  0  0  0  0
  -21.0188  -28.3077   24.1672 H   0  0  0  0  0  0
  -20.5338  -26.1945   23.5273 H   0  0  0  0  0  0
  -21.7038  -26.5944   22.3620 H   0  0  0  0  0  0
  -19.9759  -27.0980   20.6426 H   0  0  0  0  0  0
  -19.7727  -25.4747   21.3335 H   0  0  0  0  0  0
  -17.6131  -26.8396   21.1219 H   0  0  0  0  0  0
  -17.9194  -25.9705   22.5974 H   0  0  0  0  0  0
  -19.8115  -30.7132   24.2280 H   0  0  0  0  0  0
  -17.4939  -31.5579   24.5311 H   0  0  0  0  0  0
  -15.5473  -30.2160   23.7779 H   0  0  0  0  0  0
  -15.8825  -28.0586   22.6277 H   0  0  0  0  0  0
  -24.5888  -30.7116   25.7887 H   0  0  0  0  0  0
  -24.8840  -32.2986   26.4913 H   0  0  0  0  0  0
  -25.8018  -30.9036   27.0373 H   0  0  0  0  0  0
  -26.2871  -29.6798   24.1322 H   0  0  0  0  0  0
  -27.4000  -29.7310   25.4838 H   0  0  0  0  0  0
  -27.8797  -30.4328   23.9561 H   0  0  0  0  0  0
  -27.2722  -33.3683   26.2138 H   0  0  0  0  0  0
  -28.3853  -32.6943   25.0264 H   0  0  0  0  0  0
  -28.0828  -31.8430   26.5445 H   0  0  0  0  0  0
  -28.2666  -38.0069   24.7528 H   0  0  0  0  0  0
  -28.1032  -36.2578   24.6329 H   0  0  0  0  0  0
  -27.2274  -37.1472   25.8907 H   0  0  0  0  0  0
  -20.8594  -29.8171   21.7235 H   0  0  0  0  0  0
  -26.0209  -38.2928   24.1421 H   0  0  0  0  0  0
  -25.3032  -20.4666   21.5329 H   0  0  0  0  0  0
  -28.3367  -19.9911   18.4215 H   0  0  0  0  0  0
  -25.7286  -21.8727   17.2702 H   0  0  0  0  0  0
  -24.6622  -21.0130   18.3794 H   0  0  0  0  0  0
  -23.2084  -22.7518   18.0990 H   0  0  0  0  0  0
  -24.4259  -23.9090   17.5967 H   0  0  0  0  0  0
  -25.4855  -22.9866   21.3718 H   0  0  0  0  0  0
  -24.3451  -21.8600   20.6113 H   0  0  0  0  0  0
  -25.8678  -18.8583   23.5032 H   0  0  0  0  0  0
  -26.0713  -17.2193   22.8784 H   0  0  0  0  0  0
  -24.6378  -18.1751   22.4855 H   0  0  0  0  0  0
  -30.2176  -17.8189   19.4585 H   0  0  0  0  0  0
  -29.0309  -17.1546   18.3894 H   0  0  0  0  0  0
  -26.6955  -23.9485   18.2670 H   0  0  0  0  0  0
  -28.0764  -23.0667   18.5884 H   0  0  0  0  0  0
  -28.4298  -24.2327   20.6868 H   0  0  0  0  0  0
  -26.8105  -24.6856   20.9194 H   0  0  0  0  0  0
  -28.4320  -15.5439   20.3034 H   0  0  0  0  0  0
  -23.3361  -23.6591   20.0963 H   0  0  0  0  0  0
  -24.6770  -24.5200   19.7550 H   0  0  0  0  0  0
  1 25  1  0  0  0
  1 30  2  0  0  0
  1 85  1  0  0  0
  2  3  1  0  0  0
  2 25  1  0  0  0
  2 87  1  0  0  0
  2 88  1  0  0  0
  3  4  1  0  0  0
  3 89  1  0  0  0
  3 90  1  0  0  0
  4  5  1  0  0  0
  4 91  1  0  0  0
  4 92  1  0  0  0
  5  6  1  0  0  0
  5 26  1  0  0  0
  5 93  1  0  0  0
  6 25  1  0  0  0
  6 94  1  0  0  0
  6 95  1  0  0  0
  7  8  2  0  0  0
  7 26  1  0  0  0
  7 29  1  0  0  0
  8  9  1  0  0  0
  8 22  1  0  0  0
  9 10  1  0  0  0
  9 27  2  0  0  0
 10 11  2  0  0  0
 10 15  1  0  0  0
 11 12  1  0  0  0
 11 96  1  0  0  0
 12 13  2  0  0  0
 12 97  1  0  0  0
 13 14  1  0  0  0
 13 31  1  0  0  0
 14 15  2  0  0  0
 14 98  1  0  0  0
 15 99  1  0  0  0
 16 17  2  0  0  0
 16 21  1  0  0  0
 16 31  1  0  0  0
 17 18  1  0  0  0
 17100  1  0  0  0
 18 19  2  0  0  0
 18101  1  0  0  0
 19 20  1  0  0  0
 19 24  1  0  0  0
 20 21  2  0  0  0
 20102  1  0  0  0
 21 23  1  0  0  0
 22 28  1  0  0  0
 22 32  2  0  0  0
 26 27  1  0  0  0
 28103  1  0  0  0
 28104  1  0  0  0
 29105  1  0  0  0
 29106  1  0  0  0
 33 34  1  0  0  0
 33 66  1  0  0  0
 33 70  2  0  0  0
 34 36  1  0  0  0
 34 59  1  0  0  0
 34107  1  0  0  0
 35 44  2  0  0  0
 35 45  1  0  0  0
 35 68  1  0  0  0
 36 56  1  0  0  0
 36108  1  0  0  0
 37 39  1  0  0  0
 37 47  1  0  0  0
 37 66  1  0  0  0
 37109  1  0  0  0
 38 43  2  0  0  0
 38 46  1  0  0  0
 38 47  1  0  0  0
 39 64  1  0  0  0
 39 67  2  0  0  0
 40 52  1  0  0  0
 40 53  2  0  0  0
 40 58  1  0  0  0
 41110  1  0  0  0
 41111  1  0  0  0
 41112  1  0  0  0
 41 48  1  0  0  0
 42 43  1  0  0  0
 42 66  1  0  0  0
 42113  1  0  0  0
 42114  1  0  0  0
 43 44  1  0  0  0
 44115  1  0  0  0
 45 46  2  0  0  0
 45116  1  0  0  0
 46117  1  0  0  0
 47118  1  0  0  0
 47119  1  0  0  0
 48 56  1  0  0  0
 48 65  1  0  0  0
 48120  1  0  0  0
 49 50  1  0  0  0
 49 53  1  0  0  0
 49 64  1  0  0  0
 49121  1  0  0  0
 50 51  1  0  0  0
 50122  1  0  0  0
 50123  1  0  0  0
 51 52  1  0  0  0
 51124  1  0  0  0
 51125  1  0  0  0
 52126  1  0  0  0
 52127  1  0  0  0
 53 54  1  0  0  0
 54 55  2  0  0  0
 54128  1  0  0  0
 55 57  1  0  0  0
 55129  1  0  0  0
 56 69  2  0  0  0
 57 58  2  0  0  0
 57130  1  0  0  0
 58131  1  0  0  0
 59 60  1  0  0  0
 59 61  1  0  0  0
 59 62  1  0  0  0
 60132  1  0  0  0
 60133  1  0  0  0
 60134  1  0  0  0
 61135  1  0  0  0
 61136  1  0  0  0
 61137  1  0  0  0
 62138  1  0  0  0
 62139  1  0  0  0
 62140  1  0  0  0
 63 65  1  0  0  0
 63141  1  0  0  0
 63142  1  0  0  0
 63143  1  0  0  0
 64144  1  0  0  0
 65145  1  0  0  0
 68 83  1  0  0  0
 71 73  2  0  0  0
 71 74  1  0  0  0
 71146  1  0  0  0
 72 73  1  0  0  0
 72 75  2  0  0  0
 72147  1  0  0  0
 73 79  1  0  0  0
 74 80  1  0  0  0
 74 84  2  0  0  0
 75 81  1  0  0  0
 75 84  1  0  0  0
 76 77  1  0  0  0
 76 79  1  0  0  0
 76148  1  0  0  0
 76149  1  0  0  0
 77 86  1  0  0  0
 77150  1  0  0  0
 77151  1  0  0  0
 78 79  1  0  0  0
 78 86  1  0  0  0
 78152  1  0  0  0
 78153  1  0  0  0
 79 82  1  0  0  0
 80154  1  0  0  0
 80155  1  0  0  0
 80156  1  0  0  0
 81 85  1  0  0  0
 81157  1  0  0  0
 81158  1  0  0  0
 82 83  1  0  0  0
 82159  1  0  0  0
 82160  1  0  0  0
 83161  1  0  0  0
 83162  1  0  0  0
 85163  1  0  0  0
 86164  1  0  0  0
 86165  1  0  0  0
M  CHG  1  86   1
M  ISO  4   1 100  68 101  83 101  85 100
M  END
> <chiral flag>
0

> <version>
0

> <s_m_source_file>
/data/baiqing/PycharmProjects/Reinvent-master-3.2/result/LINK_invent/BTK/process_docking_weight1_custom_sum_contain_oxygen_bond_distance_aromatic_linkinvent_7_9_3/rearranged_h_0127.sdf

> <i_m_source_file_index>
6

> <r_mmod_Potential_Energy-OPLS-2005>
199.370590209961

> <r_mmod_Stretch_Energy-OPLS-2005>
230.153121948242

> <r_mmod_Bend_Energy-OPLS-2005>
311.214660644531

> <r_mmod_Torsional_Energy-OPLS-2005>
324.622711181641

> <r_mmod_Improper_Torsional_Energy-OPLS-2005>
10.334997177124

> <r_mmod_Van_der_Waal_Energy-OPLS-2005>
148.774551391602

> <r_mmod_Electrostatic_Energy-OPLS-2005>
-579.6220703125

> <r_mmod_Solvation_Energy-OPLS-2005>
-496.074188232422

> <b_mmod_Minimization_Converged-OPLS-2005>
0

> <r_mmod_RMS_Derivative-OPLS-2005>
36.6035537719727

$$$$
6
                    3D
 Structure written by MMmdl.
178187  0  0  1  0            999 V2000
  -30.7307  -14.4279   20.5677 C   0  0  0  0  0  0
  -30.4174  -12.2901   19.3981 C   0  0  0  0  0  0
  -29.4882  -12.5359   18.1930 C   0  0  0  0  0  0
  -28.0053  -12.4125   18.6010 C   0  0  0  0  0  0
  -27.6678  -13.2138   19.8885 C   0  0  2  0  0  0
  -28.7148  -12.9611   20.9963 C   0  0  0  0  0  0
  -25.2577  -13.8146   20.5698 C   0  0  0  0  0  0
  -24.1826  -13.0414   20.9186 C   0  0  0  0  0  0
  -24.6393  -11.6880   20.8721 C   0  0  0  0  0  0
  -23.9055  -10.4269   21.0382 C   0  0  0  0  0  0
  -24.3603   -9.4177   21.9151 C   0  0  0  0  0  0
  -23.6301   -8.2199   22.0724 C   0  0  0  0  0  0
  -22.4282   -8.0248   21.3516 C   0  0  0  0  0  0
  -21.9900   -9.0225   20.4639 C   0  0  0  0  0  0
  -22.7218  -10.2111   20.3042 C   0  0  0  0  0  0
  -21.6848   -6.0697   22.5250 C   0  0  0  0  0  0
  -21.4006   -6.5604   23.8179 C   0  0  0  0  0  0
  -21.3671   -5.6773   24.9152 C   0  0  0  0  0  0
  -21.6067   -4.3038   24.7205 C   0  0  0  0  0  0
  -21.8829   -3.8116   23.4327 C   0  0  0  0  0  0
  -21.9189   -4.6928   22.3382 C   0  0  0  0  0  0
  -22.7830  -13.5205   21.1872 C   0  0  0  0  0  0
  -22.1663   -4.2113   21.0957 F   0  0  0  0  0  0
  -21.5663   -3.4533   25.7716 F   0  0  0  0  0  0
  -30.0453  -13.2592   20.4391 N   0  0  0  0  0  0
  -26.3063  -12.9358   20.3470 N   0  0  0  0  0  0
  -25.9339  -11.6495   20.5762 N   0  0  0  0  0  0
  -22.0485  -12.8215   22.0458 N   0  0  0  0  0  0
  -25.4275  -15.1855   20.4094 N   0  0  0  0  0  0
  -31.8581  -14.5798   20.1051 O   0  0  0  0  0  0
  -21.6655   -6.8836   21.4209 O   0  0  0  0  0  0
  -22.3506  -14.5513   20.6722 O   0  0  0  0  0  0
  -24.6126  -31.8687   23.2086 C   0  0  0  0  0  0
  -25.9038  -32.4821   23.8360 C   0  0  1  0  0  0
  -27.2323  -27.4482   20.0881 C   0  0  0  0  0  0
  -25.5909  -33.8613   24.2305 N   0  0  0  0  0  0
  -23.3959  -30.4952   21.5497 C   0  0  2  0  0  0
  -24.8388  -28.9623   20.1131 C   0  0  0  0  0  0
  -22.7380  -29.4687   22.4985 C   0  0  0  0  0  0
  -18.0264  -28.1375   22.8484 C   0  0  0  0  0  0
  -24.1496  -36.7324   23.2634 C   0  0  0  0  0  0
  -25.9220  -30.8432   21.3517 C   0  0  0  0  0  0
  -25.9996  -29.4769   20.7028 C   0  0  0  0  0  0
  -27.1972  -28.7292   20.6839 C   0  0  0  0  0  0
  -26.0472  -26.9405   19.5023 C   0  0  0  0  0  0
  -24.8583  -27.6934   19.5103 C   0  0  0  0  0  0
  -23.5986  -29.8265   20.1638 C   0  0  0  0  0  0
  -25.4112  -36.3102   24.0325 C   0  0  1  0  0  0
  -20.5855  -28.3661   23.1317 C   0  0  2  0  0  0
  -20.6755  -26.9398   22.5411 C   0  0  0  0  0  0
  -19.5748  -26.6393   21.5192 C   0  0  0  0  0  0
  -18.1921  -26.7923   22.1602 C   0  0  0  0  0  0
  -19.1514  -28.8829   23.2908 C   0  0  0  0  0  0
  -18.9445  -30.1432   23.8922 C   0  0  0  0  0  0
  -17.6457  -30.6582   24.0562 C   0  0  0  0  0  0
  -25.9041  -34.9474   23.5110 C   0  0  0  0  0  0
  -16.5347  -29.9091   23.6323 C   0  0  0  0  0  0
  -16.7258  -28.6510   23.0339 C   0  0  0  0  0  0
  -26.4475  -31.6589   25.0680 C   0  0  0  0  0  0
  -25.3763  -31.3684   26.1443 C   0  0  0  0  0  0
  -27.0279  -30.3031   24.6011 C   0  0  0  0  0  0
  -27.6054  -32.4290   25.7452 C   0  0  0  0  0  0
  -27.5588  -37.1807   24.8452 C   0  0  0  0  0  0
  -21.4112  -29.3048   22.3731 N   0  0  0  0  0  0
  -26.4289  -37.3792   23.9415 N   0  0  0  0  0  0
  -24.6623  -31.0820   22.0961 N   0  0  0  0  0  0
  -23.4168  -28.8227   23.3010 O   0  0  0  0  0  0
  -28.4245  -26.7522   20.0952 O   0  0  0  0  0  0
  -26.5608  -34.8932   22.4674 O   0  0  0  0  0  0
  -23.5338  -32.1426   23.7520 O   0  0  0  0  0  0
  -32.3358  -23.5455   20.2182 C   0  0  0  0  0  0
  -30.8987  -25.4242   19.6606 C   0  0  0  0  0  0
  -32.1860  -24.8666   19.7568 C   0  0  0  0  0  0
  -31.2151  -22.7797   20.6044 C   0  0  0  0  0  0
  -29.7575  -24.6759   20.0164 C   0  0  0  0  0  0
  -29.9097  -23.3351   20.4771 C   0  0  0  0  0  0
  -29.7154  -16.9102   18.2710 C   0  0  0  0  0  0
  -28.5236  -17.3730   19.1314 C   0  0  0  0  0  0
  -31.0211  -17.6169   18.6679 C   0  0  0  0  0  0
  -28.8395  -17.5305   20.6364 C   0  0  0  0  0  0
  -31.3595  -17.5402   20.1896 C   0  0  2  0  0  0
  -30.1912  -16.9222   21.0505 C   0  0  2  0  0  0
  -33.4017  -25.7042   19.4041 C   0  0  0  0  0  0
  -28.6757  -22.5200   20.8478 C   0  0  0  0  0  0
  -31.4805  -21.4008   21.2159 C   0  0  0  0  0  0
  -28.3873  -25.3403   19.8615 C   0  0  0  0  0  0
  -31.3355  -20.2130   20.2385 C   0  0  0  0  0  0
  -31.9484  -18.8823   20.7730 C   0  0  2  0  0  0
  -30.0094  -15.4469   21.0660 N   0  0  0  0  0  0
  -33.4195  -18.9054   20.6205 N   0  3  0  0  0  0
  -31.4593  -12.3846   19.0897 H   0  0  0  0  0  0
  -30.3098  -11.2682   19.7646 H   0  0  0  0  0  0
  -29.7178  -11.8436   17.3810 H   0  0  0  0  0  0
  -29.6696  -13.5357   17.7953 H   0  0  0  0  0  0
  -27.7835  -11.3550   18.7494 H   0  0  0  0  0  0
  -27.3651  -12.7490   17.7846 H   0  0  0  0  0  0
  -27.7221  -14.2710   19.6230 H   0  0  0  0  0  0
  -28.6786  -11.9170   21.3105 H   0  0  0  0  0  0
  -28.4930  -13.5418   21.8934 H   0  0  0  0  0  0
  -25.2715   -9.5683   22.4763 H   0  0  0  0  0  0
  -24.0022   -7.4583   22.7431 H   0  0  0  0  0  0
  -21.0830   -8.8745   19.8951 H   0  0  0  0  0  0
  -22.3644  -10.9669   19.6197 H   0  0  0  0  0  0
  -21.1990   -7.6109   23.9676 H   0  0  0  0  0  0
  -21.1510   -6.0492   25.9062 H   0  0  0  0  0  0
  -22.0608   -2.7582   23.2822 H   0  0  0  0  0  0
  -22.4109  -11.9905   22.4895 H   0  0  0  0  0  0
  -21.1097  -13.1226   22.2658 H   0  0  0  0  0  0
  -24.6568  -15.8363   20.5082 H   0  0  0  0  0  0
  -26.2891  -15.6248   20.1146 H   0  0  0  0  0  0
  -26.7115  -32.5533   23.1128 H   0  0  0  0  0  0
  -25.0043  -33.9768   25.0439 H   0  0  0  0  0  0
  -22.6836  -31.3115   21.4146 H   0  0  0  0  0  0
  -23.3743  -35.9672   23.3277 H   0  0  0  0  0  0
  -24.3597  -36.8959   22.2054 H   0  0  0  0  0  0
  -23.7268  -37.6528   23.6663 H   0  0  0  0  0  0
  -26.0237  -31.6071   20.5784 H   0  0  0  0  0  0
  -26.8148  -30.9024   21.9623 H   0  0  0  0  0  0
  -28.0947  -29.1309   21.1337 H   0  0  0  0  0  0
  -26.0188  -25.9696   19.0299 H   0  0  0  0  0  0
  -23.9660  -27.2901   19.0526 H   0  0  0  0  0  0
  -23.6980  -30.6000   19.4012 H   0  0  0  0  0  0
  -22.7214  -29.2432   19.8751 H   0  0  0  0  0  0
  -25.1291  -36.1945   25.0813 H   0  0  0  0  0  0
  -20.9959  -28.3232   24.1434 H   0  0  0  0  0  0
  -20.5635  -26.2272   23.3599 H   0  0  0  0  0  0
  -21.6630  -26.7437   22.1232 H   0  0  0  0  0  0
  -19.6913  -25.6313   21.1211 H   0  0  0  0  0  0
  -19.6693  -27.3212   20.6733 H   0  0  0  0  0  0
  -17.4192  -26.6669   21.3999 H   0  0  0  0  0  0
  -18.0329  -26.0057   22.8996 H   0  0  0  0  0  0
  -19.7926  -30.7224   24.2311 H   0  0  0  0  0  0
  -17.5021  -31.6260   24.5166 H   0  0  0  0  0  0
  -15.5353  -30.3003   23.7632 H   0  0  0  0  0  0
  -15.8656  -28.0841   22.7040 H   0  0  0  0  0  0
  -24.5936  -30.7022   25.7795 H   0  0  0  0  0  0
  -24.8959  -32.2842   26.4899 H   0  0  0  0  0  0
  -25.8147  -30.8857   27.0190 H   0  0  0  0  0  0
  -26.2784  -29.6799   24.1117 H   0  0  0  0  0  0
  -27.4122  -29.7249   25.4425 H   0  0  0  0  0  0
  -27.8591  -30.4341   23.9075 H   0  0  0  0  0  0
  -27.2666  -33.3571   26.2062 H   0  0  0  0  0  0
  -28.3859  -32.6872   25.0284 H   0  0  0  0  0  0
  -28.0726  -31.8389   26.5345 H   0  0  0  0  0  0
  -28.2582  -38.0126   24.7517 H   0  0  0  0  0  0
  -28.1100  -36.2656   24.6234 H   0  0  0  0  0  0
  -27.2316  -37.1413   25.8855 H   0  0  0  0  0  0
  -20.9245  -29.8779   21.6982 H   0  0  0  0  0  0
  -26.0167  -38.2861   24.1422 H   0  0  0  0  0  0
  -33.3280  -23.1220   20.3030 H   0  0  0  0  0  0
  -30.7821  -26.4425   19.3135 H   0  0  0  0  0  0
  -29.4979  -17.0884   17.2172 H   0  0  0  0  0  0
  -29.8427  -15.8332   18.3579 H   0  0  0  0  0  0
  -27.7017  -16.6708   19.0001 H   0  0  0  0  0  0
  -28.1467  -18.3238   18.7554 H   0  0  0  0  0  0
  -30.9249  -18.6447   18.3258 H   0  0  0  0  0  0
  -31.8501  -17.2112   18.0851 H   0  0  0  0  0  0
  -28.0309  -17.0904   21.2227 H   0  0  0  0  0  0
  -28.8350  -18.5901   20.8933 H   0  0  0  0  0  0
  -32.1929  -16.8533   20.2896 H   0  0  0  0  0  0
  -30.3673  -17.1748   22.0968 H   0  0  0  0  0  0
  -34.2578  -25.0781   19.1491 H   0  0  0  0  0  0
  -33.6787  -26.3297   20.2541 H   0  0  0  0  0  0
  -33.1992  -26.3598   18.5550 H   0  0  0  0  0  0
  -28.8725  -21.4578   20.9613 H   0  0  0  0  0  0
  -27.9124  -22.6054   20.0744 H   0  0  0  0  0  0
  -28.2588  -22.8775   21.7895 H   0  0  0  0  0  0
  -30.8431  -21.2503   22.0876 H   0  0  0  0  0  0
  -32.4927  -21.4175   21.6189 H   0  0  0  0  0  0
  -27.6697  -24.8978   20.5523 H   0  0  0  0  0  0
  -28.0477  -25.1360   18.8455 H   0  0  0  0  0  0
  -31.8134  -20.4724   19.2928 H   0  0  0  0  0  0
  -30.2834  -20.0784   20.0005 H   0  0  0  0  0  0
  -31.7831  -18.8637   21.8512 H   0  0  0  0  0  0
  -29.1067  -15.1577   21.4043 H   0  0  0  0  0  0
  -33.6869  -18.9227   19.6526 H   0  0  0  0  0  0
  -33.8273  -18.0857   21.0377 H   0  0  0  0  0  0
  -33.8223  -19.7040   21.0782 H   0  0  0  0  0  0
  1 25  1  0  0  0
  1 30  2  0  0  0
  1 89  1  0  0  0
  2  3  1  0  0  0
  2 25  1  0  0  0
  2 91  1  0  0  0
  2 92  1  0  0  0
  3  4  1  0  0  0
  3 93  1  0  0  0
  3 94  1  0  0  0
  4  5  1  0  0  0
  4 95  1  0  0  0
  4 96  1  0  0  0
  5  6  1  0  0  0
  5 26  1  0  0  0
  5 97  1  0  0  0
  6 25  1  0  0  0
  6 98  1  0  0  0
  6 99  1  0  0  0
  7  8  2  0  0  0
  7 26  1  0  0  0
  7 29  1  0  0  0
  8  9  1  0  0  0
  8 22  1  0  0  0
  9 10  1  0  0  0
  9 27  2  0  0  0
 10 11  2  0  0  0
 10 15  1  0  0  0
 11 12  1  0  0  0
 11100  1  0  0  0
 12 13  2  0  0  0
 12101  1  0  0  0
 13 14  1  0  0  0
 13 31  1  0  0  0
 14 15  2  0  0  0
 14102  1  0  0  0
 15103  1  0  0  0
 16 17  2  0  0  0
 16 21  1  0  0  0
 16 31  1  0  0  0
 17 18  1  0  0  0
 17104  1  0  0  0
 18 19  2  0  0  0
 18105  1  0  0  0
 19 20  1  0  0  0
 19 24  1  0  0  0
 20 21  2  0  0  0
 20106  1  0  0  0
 21 23  1  0  0  0
 22 28  1  0  0  0
 22 32  2  0  0  0
 26 27  1  0  0  0
 28107  1  0  0  0
 28108  1  0  0  0
 29109  1  0  0  0
 29110  1  0  0  0
 33 34  1  0  0  0
 33 66  1  0  0  0
 33 70  2  0  0  0
 34 36  1  0  0  0
 34 59  1  0  0  0
 34111  1  0  0  0
 35 44  2  0  0  0
 35 45  1  0  0  0
 35 68  1  0  0  0
 36 56  1  0  0  0
 36112  1  0  0  0
 37 39  1  0  0  0
 37 47  1  0  0  0
 37 66  1  0  0  0
 37113  1  0  0  0
 38 43  2  0  0  0
 38 46  1  0  0  0
 38 47  1  0  0  0
 39 64  1  0  0  0
 39 67  2  0  0  0
 40 52  1  0  0  0
 40 53  2  0  0  0
 40 58  1  0  0  0
 41114  1  0  0  0
 41115  1  0  0  0
 41116  1  0  0  0
 41 48  1  0  0  0
 42 43  1  0  0  0
 42 66  1  0  0  0
 42117  1  0  0  0
 42118  1  0  0  0
 43 44  1  0  0  0
 44119  1  0  0  0
 45 46  2  0  0  0
 45120  1  0  0  0
 46121  1  0  0  0
 47122  1  0  0  0
 47123  1  0  0  0
 48 56  1  0  0  0
 48 65  1  0  0  0
 48124  1  0  0  0
 49 50  1  0  0  0
 49 53  1  0  0  0
 49 64  1  0  0  0
 49125  1  0  0  0
 50 51  1  0  0  0
 50126  1  0  0  0
 50127  1  0  0  0
 51 52  1  0  0  0
 51128  1  0  0  0
 51129  1  0  0  0
 52130  1  0  0  0
 52131  1  0  0  0
 53 54  1  0  0  0
 54 55  2  0  0  0
 54132  1  0  0  0
 55 57  1  0  0  0
 55133  1  0  0  0
 56 69  2  0  0  0
 57 58  2  0  0  0
 57134  1  0  0  0
 58135  1  0  0  0
 59 60  1  0  0  0
 59 61  1  0  0  0
 59 62  1  0  0  0
 60136  1  0  0  0
 60137  1  0  0  0
 60138  1  0  0  0
 61139  1  0  0  0
 61140  1  0  0  0
 61141  1  0  0  0
 62142  1  0  0  0
 62143  1  0  0  0
 62144  1  0  0  0
 63 65  1  0  0  0
 63145  1  0  0  0
 63146  1  0  0  0
 63147  1  0  0  0
 64148  1  0  0  0
 65149  1  0  0  0
 68 86  1  0  0  0
 71 73  2  0  0  0
 71 74  1  0  0  0
 71150  1  0  0  0
 72 73  1  0  0  0
 72 75  2  0  0  0
 72151  1  0  0  0
 73 83  1  0  0  0
 74 76  2  0  0  0
 74 85  1  0  0  0
 75 76  1  0  0  0
 75 86  1  0  0  0
 76 84  1  0  0  0
 77 78  1  0  0  0
 77 79  1  0  0  0
 77152  1  0  0  0
 77153  1  0  0  0
 78 80  1  0  0  0
 78154  1  0  0  0
 78155  1  0  0  0
 79156  1  0  0  0
 79157  1  0  0  0
 79 81  1  0  0  0
 80 82  1  0  0  0
 80158  1  0  0  0
 80159  1  0  0  0
 81 82  1  0  0  0
 81 88  1  0  0  0
 81160  1  0  0  0
 82 89  1  0  0  0
 82161  1  0  0  0
 83162  1  0  0  0
 83163  1  0  0  0
 83164  1  0  0  0
 84165  1  0  0  0
 84166  1  0  0  0
 84167  1  0  0  0
 85 87  1  0  0  0
 85168  1  0  0  0
 85169  1  0  0  0
 86170  1  0  0  0
 86171  1  0  0  0
 87 88  1  0  0  0
 87172  1  0  0  0
 87173  1  0  0  0
 88 90  1  0  0  0
 88174  1  0  0  0
 89175  1  0  0  0
 90176  1  0  0  0
 90177  1  0  0  0
 90178  1  0  0  0
M  CHG  1  90   1
M  ISO  4   1 100  68 101  86 101  89 100
M  END
> <chiral flag>
0

> <version>
0

> <s_m_source_file>
/data/baiqing/PycharmProjects/Reinvent-master-3.2/result/LINK_invent/BTK/process_docking_weight1_custom_sum_contain_oxygen_bond_distance_aromatic_linkinvent_7_9_3/rearranged_h_0127.sdf

> <i_m_source_file_index>
7

> <r_mmod_Potential_Energy-OPLS-2005>
-167.757568359375

> <r_mmod_Stretch_Energy-OPLS-2005>
45.8524208068848

> <r_mmod_Bend_Energy-OPLS-2005>
124.600708007812

> <r_mmod_Torsional_Energy-OPLS-2005>
277.5361328125

> <r_mmod_Improper_Torsional_Energy-OPLS-2005>
4.51105690002441

> <r_mmod_Van_der_Waal_Energy-OPLS-2005>
169.332763671875

> <r_mmod_Electrostatic_Energy-OPLS-2005>
-326.942443847656

> <r_mmod_Solvation_Energy-OPLS-2005>
-473.867034912109

> <b_mmod_Minimization_Converged-OPLS-2005>
0

> <r_mmod_RMS_Derivative-OPLS-2005>
3.92521476745605

$$$$
7
                    3D
 Structure written by MMmdl.
162171  0  0  1  0            999 V2000
  -30.4976  -15.0111   20.4144 C   0  0  0  0  0  0
  -30.4473  -12.6368   19.4788 C   0  0  0  0  0  0
  -29.5194  -12.5289   18.2460 C   0  0  0  0  0  0
  -28.0567  -12.3001   18.6758 C   0  0  0  0  0  0
  -27.6228  -13.2450   19.8261 C   0  0  2  0  0  0
  -28.6700  -13.2977   20.9557 C   0  0  0  0  0  0
  -25.2450  -13.8196   20.5710 C   0  0  0  0  0  0
  -24.1772  -13.0424   20.9242 C   0  0  0  0  0  0
  -24.6386  -11.6910   20.8763 C   0  0  0  0  0  0
  -23.9072  -10.4284   21.0414 C   0  0  0  0  0  0
  -24.3620   -9.4199   21.9191 C   0  0  0  0  0  0
  -23.6292   -8.2236   22.0758 C   0  0  0  0  0  0
  -22.4276   -8.0275   21.3545 C   0  0  0  0  0  0
  -21.9914   -9.0250   20.4648 C   0  0  0  0  0  0
  -22.7245  -10.2126   20.3060 C   0  0  0  0  0  0
  -21.6855   -6.0732   22.5279 C   0  0  0  0  0  0
  -21.4010   -6.5638   23.8211 C   0  0  0  0  0  0
  -21.3660   -5.6792   24.9174 C   0  0  0  0  0  0
  -21.6043   -4.3054   24.7226 C   0  0  0  0  0  0
  -21.8820   -3.8144   23.4349 C   0  0  0  0  0  0
  -21.9189   -4.6959   22.3404 C   0  0  0  0  0  0
  -22.7794  -13.5201   21.1894 C   0  0  0  0  0  0
  -22.1661   -4.2143   21.0982 F   0  0  0  0  0  0
  -21.5630   -3.4539   25.7739 F   0  0  0  0  0  0
  -29.9264  -13.7386   20.3363 N   0  0  0  0  0  0
  -26.2859  -12.9419   20.3208 N   0  0  0  0  0  0
  -25.9313  -11.6555   20.5727 N   0  0  0  0  0  0
  -22.0442  -12.8186   22.0443 N   0  0  0  0  0  0
  -25.4098  -15.1930   20.4127 N   0  0  0  0  0  0
  -31.7228  -15.0806   20.2673 O   0  0  0  0  0  0
  -21.6640   -6.8874   21.4239 O   0  0  0  0  0  0
  -22.3481  -14.5507   20.6739 O   0  0  0  0  0  0
  -24.6464  -31.8397   23.1820 C   0  0  0  0  0  0
  -25.9219  -32.4671   23.8227 C   0  0  1  0  0  0
  -27.2210  -27.0910   20.1770 C   0  0  0  0  0  0
  -25.5959  -33.8480   24.2153 N   0  0  0  0  0  0
  -23.4519  -30.4547   21.5292 C   0  0  2  0  0  0
  -24.9007  -28.8585   20.1252 C   0  0  0  0  0  0
  -22.7577  -29.4530   22.4857 C   0  0  0  0  0  0
  -18.0304  -28.1405   22.8480 C   0  0  0  0  0  0
  -24.1490  -36.7243   23.2646 C   0  0  0  0  0  0
  -26.0084  -30.7005   21.3832 C   0  0  0  0  0  0
  -26.0793  -29.3006   20.7398 C   0  0  0  0  0  0
  -27.2421  -28.4374   20.7369 C   0  0  0  0  0  0
  -26.0124  -26.7465   19.5385 C   0  0  0  0  0  0
  -24.8811  -27.5958   19.5095 C   0  0  0  0  0  0
  -23.6817  -29.7708   20.1545 C   0  0  0  0  0  0
  -25.4125  -36.3020   24.0316 C   0  0  1  0  0  0
  -20.5916  -28.3732   23.1234 C   0  0  2  0  0  0
  -20.6789  -26.9435   22.5405 C   0  0  0  0  0  0
  -19.5763  -26.6390   21.5212 C   0  0  0  0  0  0
  -18.1943  -26.7946   22.1622 C   0  0  0  0  0  0
  -19.1561  -28.8885   23.2848 C   0  0  0  0  0  0
  -18.9477  -30.1482   23.8875 C   0  0  0  0  0  0
  -17.6474  -30.6600   24.0562 C   0  0  0  0  0  0
  -25.9077  -34.9398   23.5045 C   0  0  0  0  0  0
  -16.5364  -29.9095   23.6341 C   0  0  0  0  0  0
  -16.7287  -28.6513   23.0359 C   0  0  0  0  0  0
  -26.4534  -31.6553   25.0683 C   0  0  0  0  0  0
  -25.3711  -31.3747   26.1371 C   0  0  0  0  0  0
  -27.0409  -30.2952   24.6279 C   0  0  0  0  0  0
  -27.6051  -32.4334   25.7479 C   0  0  0  0  0  0
  -27.5571  -37.1779   24.8470 C   0  0  0  0  0  0
  -21.4265  -29.3051   22.3605 N   0  0  0  0  0  0
  -26.4282  -37.3738   23.9414 N   0  0  0  0  0  0
  -24.7227  -31.0218   22.0867 N   0  0  0  0  0  0
  -23.4203  -28.8084   23.3026 O   0  0  0  0  0  0
  -28.3217  -26.1577   20.0869 O   0  0  0  0  0  0
  -26.5665  -34.8909   22.4626 O   0  0  0  0  0  0
  -23.5577  -32.1283   23.7025 O   0  0  0  0  0  0
  -30.6588  -19.3912   19.2480 C   0  0  0  0  0  0
  -30.8882  -20.6620   18.6711 C   0  0  0  0  0  0
  -28.8952  -20.4198   20.5550 C   0  0  0  0  0  0
  -29.0953  -21.7774   19.9515 C   0  0  0  0  0  0
  -29.6786  -19.1736   20.2316 C   0  0  0  0  0  0
  -30.1477  -21.8326   18.9989 C   0  0  0  0  0  0
  -27.7446  -20.3353   21.5485 C   0  0  0  0  0  0
  -27.2180  -21.7197   22.0077 C   0  0  0  0  0  0
  -28.0992  -23.1127   20.1312 C   0  0  2  0  0  0
  -31.5545  -23.1984   17.4449 C   0  0  0  0  0  0
  -29.7329  -17.6806   20.9807 C   0  0  0  0  0  0
  -28.4744  -24.6968   20.6661 C   0  0  0  0  0  0
  -30.4241  -23.0517   18.3549 N   0  0  0  0  0  0
  -29.6680  -16.1800   20.4357 N   0  0  0  0  0  0
  -26.9071  -22.6222   20.8691 N   0  3  0  0  0  0
  -31.4716  -12.8302   19.1560 H   0  0  0  0  0  0
  -30.4765  -11.6961   20.0312 H   0  0  0  0  0  0
  -29.8496  -11.7203   17.5922 H   0  0  0  0  0  0
  -29.5868  -13.4452   17.6575 H   0  0  0  0  0  0
  -27.9712  -11.2635   19.0039 H   0  0  0  0  0  0
  -27.3866  -12.4047   17.8217 H   0  0  0  0  0  0
  -27.5740  -14.2387   19.3806 H   0  0  0  0  0  0
  -28.7835  -12.3262   21.4390 H   0  0  0  0  0  0
  -28.3622  -13.9991   21.7333 H   0  0  0  0  0  0
  -25.2763   -9.5674   22.4772 H   0  0  0  0  0  0
  -23.9998   -7.4625   22.7480 H   0  0  0  0  0  0
  -21.0847   -8.8769   19.8954 H   0  0  0  0  0  0
  -22.3706  -10.9666   19.6170 H   0  0  0  0  0  0
  -21.2005   -7.6147   23.9711 H   0  0  0  0  0  0
  -21.1481   -6.0525   25.9076 H   0  0  0  0  0  0
  -22.0598   -2.7604   23.2851 H   0  0  0  0  0  0
  -22.4057  -11.9838   22.4815 H   0  0  0  0  0  0
  -21.1060  -13.1206   22.2651 H   0  0  0  0  0  0
  -24.6355  -15.8390   20.5224 H   0  0  0  0  0  0
  -26.2416  -15.6356   20.0464 H   0  0  0  0  0  0
  -26.7279  -32.5262   23.0947 H   0  0  0  0  0  0
  -25.0106  -33.9586   25.0301 H   0  0  0  0  0  0
  -22.7568  -31.2810   21.3661 H   0  0  0  0  0  0
  -23.3763  -35.9564   23.3294 H   0  0  0  0  0  0
  -24.3573  -36.8891   22.2062 H   0  0  0  0  0  0
  -23.7232  -37.6431   23.6692 H   0  0  0  0  0  0
  -26.1609  -31.4450   20.6006 H   0  0  0  0  0  0
  -26.8804  -30.7617   22.0226 H   0  0  0  0  0  0
  -28.1543  -28.7886   21.1989 H   0  0  0  0  0  0
  -25.9386  -25.7861   19.0484 H   0  0  0  0  0  0
  -23.9827  -27.2538   19.0139 H   0  0  0  0  0  0
  -23.8250  -30.5375   19.3921 H   0  0  0  0  0  0
  -22.7951  -29.2146   19.8446 H   0  0  0  0  0  0
  -25.1313  -36.1840   25.0806 H   0  0  0  0  0  0
  -20.9996  -28.3321   24.1361 H   0  0  0  0  0  0
  -20.5688  -26.2345   23.3624 H   0  0  0  0  0  0
  -21.6652  -26.7445   22.1194 H   0  0  0  0  0  0
  -19.6929  -25.6296   21.1256 H   0  0  0  0  0  0
  -19.6704  -27.3189   20.6736 H   0  0  0  0  0  0
  -17.4212  -26.6698   21.4024 H   0  0  0  0  0  0
  -18.0338  -26.0094   22.9022 H   0  0  0  0  0  0
  -19.7949  -30.7305   24.2233 H   0  0  0  0  0  0
  -17.5027  -31.6278   24.5170 H   0  0  0  0  0  0
  -15.5363  -30.2989   23.7688 H   0  0  0  0  0  0
  -15.8686  -28.0826   22.7086 H   0  0  0  0  0  0
  -24.5906  -30.7079   25.7686 H   0  0  0  0  0  0
  -24.8878  -32.2926   26.4726 H   0  0  0  0  0  0
  -25.7992  -30.8967   27.0190 H   0  0  0  0  0  0
  -26.3027  -29.6668   24.1283 H   0  0  0  0  0  0
  -27.4022  -29.7259   25.4854 H   0  0  0  0  0  0
  -27.8935  -30.4194   23.9598 H   0  0  0  0  0  0
  -27.2633  -33.3666   26.1967 H   0  0  0  0  0  0
  -28.3914  -32.6843   25.0344 H   0  0  0  0  0  0
  -28.0664  -31.8513   26.5469 H   0  0  0  0  0  0
  -28.2575  -38.0086   24.7512 H   0  0  0  0  0  0
  -28.1075  -36.2612   24.6299 H   0  0  0  0  0  0
  -27.2288  -37.1423   25.8873 H   0  0  0  0  0  0
  -20.9486  -29.8753   21.6767 H   0  0  0  0  0  0
  -26.0145  -38.2805   24.1417 H   0  0  0  0  0  0
  -31.2963  -18.5680   18.9549 H   0  0  0  0  0  0
  -31.6807  -20.7088   17.9390 H   0  0  0  0  0  0
  -28.0626  -19.7702   22.4247 H   0  0  0  0  0  0
  -26.9371  -19.7652   21.0878 H   0  0  0  0  0  0
  -27.9480  -22.2032   22.6586 H   0  0  0  0  0  0
  -26.3183  -21.5802   22.6084 H   0  0  0  0  0  0
  -27.7308  -23.2810   19.1186 H   0  0  0  0  0  0
  -31.6226  -24.2275   17.0892 H   0  0  0  0  0  0
  -31.4463  -22.5537   16.5711 H   0  0  0  0  0  0
  -32.4959  -22.9570   17.9415 H   0  0  0  0  0  0
  -28.9430  -17.7152   21.7301 H   0  0  0  0  0  0
  -30.6489  -17.7125   21.5721 H   0  0  0  0  0  0
  -29.5561  -24.6477   20.7889 H   0  0  0  0  0  0
  -28.1319  -24.7712   21.6984 H   0  0  0  0  0  0
  -29.8477  -23.8714   18.5142 H   0  0  0  0  0  0
  -28.7080  -15.9074   20.2954 H   0  0  0  0  0  0
  -26.3717  -23.4091   21.2002 H   0  0  0  0  0  0
  -26.3177  -22.1174   20.2268 H   0  0  0  0  0  0
  1 25  1  0  0  0
  1 30  2  0  0  0
  1 84  1  0  0  0
  2  3  1  0  0  0
  2 25  1  0  0  0
  2 86  1  0  0  0
  2 87  1  0  0  0
  3  4  1  0  0  0
  3 88  1  0  0  0
  3 89  1  0  0  0
  4  5  1  0  0  0
  4 90  1  0  0  0
  4 91  1  0  0  0
  5  6  1  0  0  0
  5 26  1  0  0  0
  5 92  1  0  0  0
  6 25  1  0  0  0
  6 93  1  0  0  0
  6 94  1  0  0  0
  7  8  2  0  0  0
  7 26  1  0  0  0
  7 29  1  0  0  0
  8  9  1  0  0  0
  8 22  1  0  0  0
  9 10  1  0  0  0
  9 27  2  0  0  0
 10 11  2  0  0  0
 10 15  1  0  0  0
 11 12  1  0  0  0
 11 95  1  0  0  0
 12 13  2  0  0  0
 12 96  1  0  0  0
 13 14  1  0  0  0
 13 31  1  0  0  0
 14 15  2  0  0  0
 14 97  1  0  0  0
 15 98  1  0  0  0
 16 17  2  0  0  0
 16 21  1  0  0  0
 16 31  1  0  0  0
 17 18  1  0  0  0
 17 99  1  0  0  0
 18 19  2  0  0  0
 18100  1  0  0  0
 19 20  1  0  0  0
 19 24  1  0  0  0
 20 21  2  0  0  0
 20101  1  0  0  0
 21 23  1  0  0  0
 22 28  1  0  0  0
 22 32  2  0  0  0
 26 27  1  0  0  0
 28102  1  0  0  0
 28103  1  0  0  0
 29104  1  0  0  0
 29105  1  0  0  0
 33 34  1  0  0  0
 33 66  1  0  0  0
 33 70  2  0  0  0
 34 36  1  0  0  0
 34 59  1  0  0  0
 34106  1  0  0  0
 35 44  2  0  0  0
 35 45  1  0  0  0
 35 68  1  0  0  0
 36 56  1  0  0  0
 36107  1  0  0  0
 37 39  1  0  0  0
 37 47  1  0  0  0
 37 66  1  0  0  0
 37108  1  0  0  0
 38 43  2  0  0  0
 38 46  1  0  0  0
 38 47  1  0  0  0
 39 64  1  0  0  0
 39 67  2  0  0  0
 40 52  1  0  0  0
 40 53  2  0  0  0
 40 58  1  0  0  0
 41109  1  0  0  0
 41110  1  0  0  0
 41111  1  0  0  0
 41 48  1  0  0  0
 42 43  1  0  0  0
 42 66  1  0  0  0
 42112  1  0  0  0
 42113  1  0  0  0
 43 44  1  0  0  0
 44114  1  0  0  0
 45 46  2  0  0  0
 45115  1  0  0  0
 46116  1  0  0  0
 47117  1  0  0  0
 47118  1  0  0  0
 48 56  1  0  0  0
 48 65  1  0  0  0
 48119  1  0  0  0
 49 50  1  0  0  0
 49 53  1  0  0  0
 49 64  1  0  0  0
 49120  1  0  0  0
 50 51  1  0  0  0
 50121  1  0  0  0
 50122  1  0  0  0
 51 52  1  0  0  0
 51123  1  0  0  0
 51124  1  0  0  0
 52125  1  0  0  0
 52126  1  0  0  0
 53 54  1  0  0  0
 54 55  2  0  0  0
 54127  1  0  0  0
 55 57  1  0  0  0
 55128  1  0  0  0
 56 69  2  0  0  0
 57 58  2  0  0  0
 57129  1  0  0  0
 58130  1  0  0  0
 59 60  1  0  0  0
 59 61  1  0  0  0
 59 62  1  0  0  0
 60131  1  0  0  0
 60132  1  0  0  0
 60133  1  0  0  0
 61134  1  0  0  0
 61135  1  0  0  0
 61136  1  0  0  0
 62137  1  0  0  0
 62138  1  0  0  0
 62139  1  0  0  0
 63 65  1  0  0  0
 63140  1  0  0  0
 63141  1  0  0  0
 63142  1  0  0  0
 64143  1  0  0  0
 65144  1  0  0  0
 68 82  1  0  0  0
 71 72  2  0  0  0
 71 75  1  0  0  0
 71145  1  0  0  0
 72 76  1  0  0  0
 72146  1  0  0  0
 73 74  1  0  0  0
 73 75  2  0  0  0
 73 77  1  0  0  0
 74 76  2  0  0  0
 74 79  1  0  0  0
 75 81  1  0  0  0
 76 83  1  0  0  0
 77 78  1  0  0  0
 77147  1  0  0  0
 77148  1  0  0  0
 78 85  1  0  0  0
 78149  1  0  0  0
 78150  1  0  0  0
 79 82  1  0  0  0
 79 85  1  0  0  0
 79151  1  0  0  0
 80 83  1  0  0  0
 80152  1  0  0  0
 80153  1  0  0  0
 80154  1  0  0  0
 81 84  1  0  0  0
 81155  1  0  0  0
 81156  1  0  0  0
 82157  1  0  0  0
 82158  1  0  0  0
 83159  1  0  0  0
 84160  1  0  0  0
 85161  1  0  0  0
 85162  1  0  0  0
M  CHG  1  85   1
M  ISO  4   1 100  68 101  82 101  84 100
M  END
> <chiral flag>
0

> <version>
0

> <s_m_source_file>
/data/baiqing/PycharmProjects/Reinvent-master-3.2/result/LINK_invent/BTK/process_docking_weight1_custom_sum_contain_oxygen_bond_distance_aromatic_linkinvent_7_9_3/rearranged_h_0127.sdf

> <i_m_source_file_index>
8

> <r_mmod_Potential_Energy-OPLS-2005>
478.363983154297

> <r_mmod_Stretch_Energy-OPLS-2005>
309.984313964844

> <r_mmod_Bend_Energy-OPLS-2005>
355.081268310547

> <r_mmod_Torsional_Energy-OPLS-2005>
269.223052978516

> <r_mmod_Improper_Torsional_Energy-OPLS-2005>
8.22219562530518

> <r_mmod_Van_der_Waal_Energy-OPLS-2005>
130.862319946289

> <r_mmod_Electrostatic_Energy-OPLS-2005>
-332.418121337891

> <r_mmod_Solvation_Energy-OPLS-2005>
-491.873229980469

> <b_mmod_Minimization_Converged-OPLS-2005>
0

> <r_mmod_RMS_Derivative-OPLS-2005>
0.654412150382996

$$$$
8
                    3D
 Structure written by MMmdl.
152160  0  0  1  0            999 V2000
  -30.5040  -15.0439   20.4019 C   0  0  0  0  0  0
  -30.4411  -12.6531   19.5041 C   0  0  0  0  0  0
  -29.5264  -12.5411   18.2617 C   0  0  0  0  0  0
  -28.0633  -12.3081   18.6828 C   0  0  0  0  0  0
  -27.6233  -13.2544   19.8299 C   0  0  2  0  0  0
  -28.6637  -13.3266   20.9667 C   0  0  0  0  0  0
  -25.2441  -13.8216   20.5707 C   0  0  0  0  0  0
  -24.1770  -13.0435   20.9237 C   0  0  0  0  0  0
  -24.6396  -11.6924   20.8758 C   0  0  0  0  0  0
  -23.9084  -10.4295   21.0408 C   0  0  0  0  0  0
  -24.3629   -9.4207   21.9185 C   0  0  0  0  0  0
  -23.6302   -8.2243   22.0754 C   0  0  0  0  0  0
  -22.4285   -8.0281   21.3543 C   0  0  0  0  0  0
  -21.9923   -9.0257   20.4646 C   0  0  0  0  0  0
  -22.7255  -10.2135   20.3056 C   0  0  0  0  0  0
  -21.6856   -6.0738   22.5279 C   0  0  0  0  0  0
  -21.4016   -6.5640   23.8212 C   0  0  0  0  0  0
  -21.3661   -5.6792   24.9173 C   0  0  0  0  0  0
  -21.6045   -4.3056   24.7224 C   0  0  0  0  0  0
  -21.8820   -3.8147   23.4345 C   0  0  0  0  0  0
  -21.9194   -4.6964   22.3401 C   0  0  0  0  0  0
  -22.7791  -13.5206   21.1886 C   0  0  0  0  0  0
  -22.1662   -4.2149   21.0980 F   0  0  0  0  0  0
  -21.5627   -3.4538   25.7735 F   0  0  0  0  0  0
  -29.9243  -13.7681   20.3565 N   0  0  0  0  0  0
  -26.2859  -12.9456   20.3212 N   0  0  0  0  0  0
  -25.9325  -11.6582   20.5724 N   0  0  0  0  0  0
  -22.0438  -12.8197   22.0440 N   0  0  0  0  0  0
  -25.4092  -15.1947   20.4117 N   0  0  0  0  0  0
  -31.7184  -15.0926   20.1729 O   0  0  0  0  0  0
  -21.6643   -6.8882   21.4241 O   0  0  0  0  0  0
  -22.3477  -14.5509   20.6725 O   0  0  0  0  0  0
  -24.6492  -31.8377   23.1817 C   0  0  0  0  0  0
  -25.9234  -32.4660   23.8235 C   0  0  1  0  0  0
  -27.2169  -27.0699   20.1705 C   0  0  0  0  0  0
  -25.5957  -33.8470   24.2148 N   0  0  0  0  0  0
  -23.4562  -30.4528   21.5292 C   0  0  2  0  0  0
  -24.9061  -28.8615   20.1162 C   0  0  0  0  0  0
  -22.7595  -29.4511   22.4847 C   0  0  0  0  0  0
  -18.0307  -28.1400   22.8476 C   0  0  0  0  0  0
  -24.1493  -36.7242   23.2644 C   0  0  0  0  0  0
  -26.0156  -30.6909   21.3884 C   0  0  0  0  0  0
  -26.0861  -29.2936   20.7350 C   0  0  0  0  0  0
  -27.2431  -28.4173   20.7361 C   0  0  0  0  0  0
  -26.0101  -26.7495   19.5149 C   0  0  0  0  0  0
  -24.8845  -27.6059   19.4882 C   0  0  0  0  0  0
  -23.6868  -29.7734   20.1525 C   0  0  0  0  0  0
  -25.4129  -36.3013   24.0308 C   0  0  1  0  0  0
  -20.5924  -28.3730   23.1228 C   0  0  2  0  0  0
  -20.6791  -26.9427   22.5407 C   0  0  0  0  0  0
  -19.5765  -26.6380   21.5216 C   0  0  0  0  0  0
  -18.1946  -26.7937   22.1625 C   0  0  0  0  0  0
  -19.1564  -28.8884   23.2841 C   0  0  0  0  0  0
  -18.9480  -30.1479   23.8867 C   0  0  0  0  0  0
  -17.6474  -30.6595   24.0557 C   0  0  0  0  0  0
  -25.9083  -34.9389   23.5043 C   0  0  0  0  0  0
  -16.5365  -29.9086   23.6338 C   0  0  0  0  0  0
  -16.7289  -28.6505   23.0358 C   0  0  0  0  0  0
  -26.4534  -31.6555   25.0706 C   0  0  0  0  0  0
  -25.3698  -31.3763   26.1386 C   0  0  0  0  0  0
  -27.0411  -30.2944   24.6331 C   0  0  0  0  0  0
  -27.6049  -32.4338   25.7499 C   0  0  0  0  0  0
  -27.5574  -37.1778   24.8464 C   0  0  0  0  0  0
  -21.4281  -29.3043   22.3593 N   0  0  0  0  0  0
  -26.4287  -37.3734   23.9405 N   0  0  0  0  0  0
  -24.7274  -31.0172   22.0878 N   0  0  0  0  0  0
  -23.4208  -28.8072   23.3032 O   0  0  0  0  0  0
  -28.2776  -26.0742   20.1877 O   0  0  0  0  0  0
  -26.5680  -34.8900   22.4629 O   0  0  0  0  0  0
  -23.5596  -32.1281   23.6998 O   0  0  0  0  0  0
  -30.1331  -23.4712   17.3417 C   0  0  0  0  0  0
  -30.4530  -22.1194   17.3994 C   0  0  0  0  0  0
  -29.3972  -24.0504   18.3797 C   0  0  0  0  0  0
  -30.0254  -21.3480   18.4854 C   0  0  0  0  0  0
  -28.9291  -23.3552   19.5261 C   0  0  0  0  0  0
  -29.2566  -21.8370   19.5777 C   0  0  0  0  0  0
  -28.0981  -24.5022   20.3991 C   0  0  0  0  0  0
  -28.9476  -19.1066   20.1502 C   0  0  0  0  0  0
  -30.0339  -17.8292   20.5324 C   0  0  0  0  0  0
  -29.0449  -20.6693   20.4897 N   0  0  0  0  0  0
  -29.7186  -16.2492   20.5010 N   0  0  0  0  0  0
  -31.4705  -12.8289   19.1884 H   0  0  0  0  0  0
  -30.4564  -11.7147   20.0610 H   0  0  0  0  0  0
  -29.8650  -11.7334   17.6114 H   0  0  0  0  0  0
  -29.5961  -13.4574   17.6733 H   0  0  0  0  0  0
  -27.9793  -11.2714   19.0104 H   0  0  0  0  0  0
  -27.3986  -12.4112   17.8244 H   0  0  0  0  0  0
  -27.5717  -14.2465   19.3803 H   0  0  0  0  0  0
  -28.7766  -12.3624   21.4644 H   0  0  0  0  0  0
  -28.3460  -14.0370   21.7318 H   0  0  0  0  0  0
  -25.2774   -9.5683   22.4762 H   0  0  0  0  0  0
  -24.0007   -7.4639   22.7477 H   0  0  0  0  0  0
  -21.0852   -8.8782   19.8960 H   0  0  0  0  0  0
  -22.3712  -10.9673   19.6168 H   0  0  0  0  0  0
  -21.2010   -7.6148   23.9717 H   0  0  0  0  0  0
  -21.1481   -6.0521   25.9077 H   0  0  0  0  0  0
  -22.0598   -2.7609   23.2844 H   0  0  0  0  0  0
  -22.4060  -11.9869   22.4842 H   0  0  0  0  0  0
  -21.1051  -13.1217   22.2635 H   0  0  0  0  0  0
  -24.6352  -15.8420   20.5161 H   0  0  0  0  0  0
  -26.2433  -15.6339   20.0447 H   0  0  0  0  0  0
  -26.7300  -32.5247   23.0959 H   0  0  0  0  0  0
  -25.0062  -33.9574   25.0268 H   0  0  0  0  0  0
  -22.7621  -31.2802   21.3678 H   0  0  0  0  0  0
  -23.3762  -35.9566   23.3289 H   0  0  0  0  0  0
  -24.3572  -36.8899   22.2062 H   0  0  0  0  0  0
  -23.7243  -37.6427   23.6701 H   0  0  0  0  0  0
  -26.1770  -31.4399   20.6118 H   0  0  0  0  0  0
  -26.8835  -30.7458   22.0341 H   0  0  0  0  0  0
  -28.1469  -28.7488   21.2279 H   0  0  0  0  0  0
  -25.9196  -25.7906   19.0247 H   0  0  0  0  0  0
  -23.9854  -27.2721   18.9885 H   0  0  0  0  0  0
  -23.8304  -30.5434   19.3937 H   0  0  0  0  0  0
  -22.7996  -29.2191   19.8407 H   0  0  0  0  0  0
  -25.1323  -36.1830   25.0801 H   0  0  0  0  0  0
  -21.0010  -28.3323   24.1352 H   0  0  0  0  0  0
  -20.5687  -26.2341   23.3631 H   0  0  0  0  0  0
  -21.6656  -26.7430   22.1203 H   0  0  0  0  0  0
  -19.6928  -25.6283   21.1265 H   0  0  0  0  0  0
  -19.6704  -27.3173   20.6734 H   0  0  0  0  0  0
  -17.4217  -26.6680   21.4027 H   0  0  0  0  0  0
  -18.0343  -26.0085   22.9028 H   0  0  0  0  0  0
  -19.7954  -30.7304   24.2224 H   0  0  0  0  0  0
  -17.5025  -31.6271   24.5166 H   0  0  0  0  0  0
  -15.5364  -30.2976   23.7680 H   0  0  0  0  0  0
  -15.8690  -28.0812   22.7091 H   0  0  0  0  0  0
  -24.5880  -30.7114   25.7695 H   0  0  0  0  0  0
  -24.8886  -32.2951   26.4745 H   0  0  0  0  0  0
  -25.7959  -30.8969   27.0209 H   0  0  0  0  0  0
  -26.3042  -29.6650   24.1327 H   0  0  0  0  0  0
  -27.3990  -29.7266   25.4930 H   0  0  0  0  0  0
  -27.8963  -30.4167   23.9681 H   0  0  0  0  0  0
  -27.2629  -33.3661   26.2008 H   0  0  0  0  0  0
  -28.3896  -32.6867   25.0355 H   0  0  0  0  0  0
  -28.0680  -31.8512   26.5474 H   0  0  0  0  0  0
  -28.2580  -38.0084   24.7510 H   0  0  0  0  0  0
  -28.1081  -36.2612   24.6293 H   0  0  0  0  0  0
  -27.2287  -37.1426   25.8865 H   0  0  0  0  0  0
  -20.9509  -29.8738   21.6745 H   0  0  0  0  0  0
  -26.0146  -38.2798   24.1409 H   0  0  0  0  0  0
  -30.4549  -24.0720   16.5017 H   0  0  0  0  0  0
  -31.0335  -21.6656   16.6082 H   0  0  0  0  0  0
  -29.1824  -25.1018   18.2609 H   0  0  0  0  0  0
  -30.3499  -20.3191   18.4504 H   0  0  0  0  0  0
  -28.3283  -24.3089   21.4470 H   0  0  0  0  0  0
  -27.0408  -24.2588   20.2991 H   0  0  0  0  0  0
  -28.0113  -18.8165   20.6293 H   0  0  0  0  0  0
  -28.7145  -19.0185   19.0880 H   0  0  0  0  0  0
  -30.3742  -18.0135   21.5519 H   0  0  0  0  0  0
  -30.9247  -17.9715   19.9192 H   0  0  0  0  0  0
  -28.6055  -20.9131   21.3757 H   0  0  0  0  0  0
  -28.7369  -16.0462   20.6167 H   0  0  0  0  0  0
  1 25  1  0  0  0
  1 30  2  0  0  0
  1 81  1  0  0  0
  2  3  1  0  0  0
  2 25  1  0  0  0
  2 82  1  0  0  0
  2 83  1  0  0  0
  3  4  1  0  0  0
  3 84  1  0  0  0
  3 85  1  0  0  0
  4  5  1  0  0  0
  4 86  1  0  0  0
  4 87  1  0  0  0
  5  6  1  0  0  0
  5 26  1  0  0  0
  5 88  1  0  0  0
  6 25  1  0  0  0
  6 89  1  0  0  0
  6 90  1  0  0  0
  7  8  2  0  0  0
  7 26  1  0  0  0
  7 29  1  0  0  0
  8  9  1  0  0  0
  8 22  1  0  0  0
  9 10  1  0  0  0
  9 27  2  0  0  0
 10 11  2  0  0  0
 10 15  1  0  0  0
 11 12  1  0  0  0
 11 91  1  0  0  0
 12 13  2  0  0  0
 12 92  1  0  0  0
 13 14  1  0  0  0
 13 31  1  0  0  0
 14 15  2  0  0  0
 14 93  1  0  0  0
 15 94  1  0  0  0
 16 17  2  0  0  0
 16 21  1  0  0  0
 16 31  1  0  0  0
 17 18  1  0  0  0
 17 95  1  0  0  0
 18 19  2  0  0  0
 18 96  1  0  0  0
 19 20  1  0  0  0
 19 24  1  0  0  0
 20 21  2  0  0  0
 20 97  1  0  0  0
 21 23  1  0  0  0
 22 28  1  0  0  0
 22 32  2  0  0  0
 26 27  1  0  0  0
 28 98  1  0  0  0
 28 99  1  0  0  0
 29100  1  0  0  0
 29101  1  0  0  0
 33 34  1  0  0  0
 33 66  1  0  0  0
 33 70  2  0  0  0
 34 36  1  0  0  0
 34 59  1  0  0  0
 34102  1  0  0  0
 35 44  2  0  0  0
 35 45  1  0  0  0
 35 68  1  0  0  0
 36 56  1  0  0  0
 36103  1  0  0  0
 37 39  1  0  0  0
 37 47  1  0  0  0
 37 66  1  0  0  0
 37104  1  0  0  0
 38 43  2  0  0  0
 38 46  1  0  0  0
 38 47  1  0  0  0
 39 64  1  0  0  0
 39 67  2  0  0  0
 40 52  1  0  0  0
 40 53  2  0  0  0
 40 58  1  0  0  0
 41105  1  0  0  0
 41106  1  0  0  0
 41107  1  0  0  0
 41 48  1  0  0  0
 42 43  1  0  0  0
 42 66  1  0  0  0
 42108  1  0  0  0
 42109  1  0  0  0
 43 44  1  0  0  0
 44110  1  0  0  0
 45 46  2  0  0  0
 45111  1  0  0  0
 46112  1  0  0  0
 47113  1  0  0  0
 47114  1  0  0  0
 48 56  1  0  0  0
 48 65  1  0  0  0
 48115  1  0  0  0
 49 50  1  0  0  0
 49 53  1  0  0  0
 49 64  1  0  0  0
 49116  1  0  0  0
 50 51  1  0  0  0
 50117  1  0  0  0
 50118  1  0  0  0
 51 52  1  0  0  0
 51119  1  0  0  0
 51120  1  0  0  0
 52121  1  0  0  0
 52122  1  0  0  0
 53 54  1  0  0  0
 54 55  2  0  0  0
 54123  1  0  0  0
 55 57  1  0  0  0
 55124  1  0  0  0
 56 69  2  0  0  0
 57 58  2  0  0  0
 57125  1  0  0  0
 58126  1  0  0  0
 59 60  1  0  0  0
 59 61  1  0  0  0
 59 62  1  0  0  0
 60127  1  0  0  0
 60128  1  0  0  0
 60129  1  0  0  0
 61130  1  0  0  0
 61131  1  0  0  0
 61132  1  0  0  0
 62133  1  0  0  0
 62134  1  0  0  0
 62135  1  0  0  0
 63 65  1  0  0  0
 63136  1  0  0  0
 63137  1  0  0  0
 63138  1  0  0  0
 64139  1  0  0  0
 65140  1  0  0  0
 68 77  1  0  0  0
 71 72  2  0  0  0
 71 73  1  0  0  0
 71141  1  0  0  0
 72 74  1  0  0  0
 72142  1  0  0  0
 73 75  2  0  0  0
 73143  1  0  0  0
 74 76  2  0  0  0
 74144  1  0  0  0
 75 76  1  0  0  0
 75 77  1  0  0  0
 76 80  1  0  0  0
 77145  1  0  0  0
 77146  1  0  0  0
 78 79  1  0  0  0
 78 80  1  0  0  0
 78147  1  0  0  0
 78148  1  0  0  0
 79 81  1  0  0  0
 79149  1  0  0  0
 79150  1  0  0  0
 80151  1  0  0  0
 81152  1  0  0  0
M  ISO  4   1 100  68 101  77 101  81 100
M  END
> <chiral flag>
0

> <version>
0

> <s_m_source_file>
/data/baiqing/PycharmProjects/Reinvent-master-3.2/result/LINK_invent/BTK/process_docking_weight1_custom_sum_contain_oxygen_bond_distance_aromatic_linkinvent_7_9_3/rearranged_h_0127.sdf

> <i_m_source_file_index>
9

> <r_mmod_Potential_Energy-OPLS-2005>
732.74853515625

> <r_mmod_Stretch_Energy-OPLS-2005>
360.010192871094

> <r_mmod_Bend_Energy-OPLS-2005>
374.433563232422

> <r_mmod_Torsional_Energy-OPLS-2005>
217.633102416992

> <r_mmod_Improper_Torsional_Energy-OPLS-2005>
5.55056858062744

> <r_mmod_Van_der_Waal_Energy-OPLS-2005>
135.489044189453

> <r_mmod_Electrostatic_Energy-OPLS-2005>
-387.115570068359

> <r_mmod_Solvation_Energy-OPLS-2005>
-230.194732666016

> <b_mmod_Minimization_Converged-OPLS-2005>
0

> <r_mmod_RMS_Derivative-OPLS-2005>
0.545259058475494

$$$$
9
                    3D
 Structure written by MMmdl.
172181  0  0  1  0            999 V2000
  -30.4763  -15.1748   20.3869 C   0  0  0  0  0  0
  -30.4353  -12.7450   19.5220 C   0  0  0  0  0  0
  -29.5327  -12.5659   18.2770 C   0  0  0  0  0  0
  -28.0755  -12.3066   18.6997 C   0  0  0  0  0  0
  -27.6149  -13.2697   19.8236 C   0  0  2  0  0  0
  -28.6487  -13.4086   20.9605 C   0  0  0  0  0  0
  -25.2395  -13.8242   20.5715 C   0  0  0  0  0  0
  -24.1744  -13.0441   20.9237 C   0  0  0  0  0  0
  -24.6388  -11.6939   20.8750 C   0  0  0  0  0  0
  -23.9085  -10.4297   21.0402 C   0  0  0  0  0  0
  -24.3634   -9.4208   21.9173 C   0  0  0  0  0  0
  -23.6306   -8.2243   22.0751 C   0  0  0  0  0  0
  -22.4287   -8.0279   21.3541 C   0  0  0  0  0  0
  -21.9924   -9.0253   20.4644 C   0  0  0  0  0  0
  -22.7257  -10.2130   20.3049 C   0  0  0  0  0  0
  -21.6854   -6.0733   22.5278 C   0  0  0  0  0  0
  -21.4019   -6.5637   23.8210 C   0  0  0  0  0  0
  -21.3660   -5.6786   24.9170 C   0  0  0  0  0  0
  -21.6042   -4.3047   24.7223 C   0  0  0  0  0  0
  -21.8821   -3.8144   23.4344 C   0  0  0  0  0  0
  -21.9192   -4.6962   22.3402 C   0  0  0  0  0  0
  -22.7761  -13.5206   21.1884 C   0  0  0  0  0  0
  -22.1664   -4.2151   21.0979 F   0  0  0  0  0  0
  -21.5626   -3.4531   25.7737 F   0  0  0  0  0  0
  -29.8943  -13.8854   20.3418 N   0  0  0  0  0  0
  -26.2822  -12.9505   20.3198 N   0  0  0  0  0  0
  -25.9326  -11.6620   20.5717 N   0  0  0  0  0  0
  -22.0411  -12.8192   22.0440 N   0  0  0  0  0  0
  -25.4040  -15.1970   20.4135 N   0  0  0  0  0  0
  -31.6940  -15.1780   20.1638 O   0  0  0  0  0  0
  -21.6644   -6.8879   21.4241 O   0  0  0  0  0  0
  -22.3453  -14.5504   20.6718 O   0  0  0  0  0  0
  -24.6599  -31.8289   23.1762 C   0  0  0  0  0  0
  -25.9297  -32.4616   23.8208 C   0  0  1  0  0  0
  -27.2114  -26.9695   20.1793 C   0  0  0  0  0  0
  -25.5978  -33.8427   24.2115 N   0  0  0  0  0  0
  -23.4727  -30.4442   21.5254 C   0  0  2  0  0  0
  -24.9247  -28.8438   20.1145 C   0  0  0  0  0  0
  -22.7655  -29.4474   22.4804 C   0  0  0  0  0  0
  -18.0322  -28.1407   22.8470 C   0  0  0  0  0  0
  -24.1492  -36.7221   23.2647 C   0  0  0  0  0  0
  -26.0405  -30.6485   21.4026 C   0  0  0  0  0  0
  -26.1085  -29.2432   20.7473 C   0  0  0  0  0  0
  -27.2501  -28.3269   20.7567 C   0  0  0  0  0  0
  -26.0024  -26.7242   19.4874 C   0  0  0  0  0  0
  -24.8946  -27.6033   19.4638 C   0  0  0  0  0  0
  -23.7104  -29.7671   20.1498 C   0  0  0  0  0  0
  -25.4129  -36.2988   24.0308 C   0  0  1  0  0  0
  -20.5945  -28.3754   23.1193 C   0  0  2  0  0  0
  -20.6801  -26.9438   22.5402 C   0  0  0  0  0  0
  -19.5772  -26.6379   21.5215 C   0  0  0  0  0  0
  -18.1956  -26.7941   22.1626 C   0  0  0  0  0  0
  -19.1580  -28.8900   23.2823 C   0  0  0  0  0  0
  -18.9490  -30.1492   23.8853 C   0  0  0  0  0  0
  -17.6481  -30.6596   24.0557 C   0  0  0  0  0  0
  -25.9094  -34.9368   23.5029 C   0  0  0  0  0  0
  -16.5373  -29.9082   23.6342 C   0  0  0  0  0  0
  -16.7303  -28.6505   23.0356 C   0  0  0  0  0  0
  -26.4553  -31.6539   25.0716 C   0  0  0  0  0  0
  -25.3685  -31.3779   26.1380 C   0  0  0  0  0  0
  -27.0438  -30.2905   24.6426 C   0  0  0  0  0  0
  -27.6057  -32.4334   25.7514 C   0  0  0  0  0  0
  -27.5575  -37.1768   24.8464 C   0  0  0  0  0  0
  -21.4329  -29.3056   22.3550 N   0  0  0  0  0  0
  -26.4282  -37.3717   23.9412 N   0  0  0  0  0  0
  -24.7455  -30.9991   22.0886 N   0  0  0  0  0  0
  -23.4221  -28.8033   23.3026 O   0  0  0  0  0  0
  -28.2032  -25.8655   20.2318 O   0  0  0  0  0  0
  -26.5697  -34.8892   22.4623 O   0  0  0  0  0  0
  -23.5676  -32.1236   23.6879 O   0  0  0  0  0  0
  -29.1393  -20.4452   21.5026 C   0  0  0  0  0  0
  -28.7441  -21.8757   21.4784 C   0  0  0  0  0  0
  -29.2245  -20.4476   19.2090 C   0  0  0  0  0  0
  -29.4136  -19.5830   20.3656 C   0  0  0  0  0  0
  -28.5539  -22.7456   20.3224 C   0  0  0  0  0  0
  -28.8066  -21.8786   19.1679 C   0  0  0  0  0  0
  -24.5266  -18.9965   21.2445 C   0  0  0  0  0  0
  -23.1442  -18.9593   20.5805 C   0  0  0  0  0  0
  -25.4574  -19.7413   20.2741 C   0  0  0  0  0  0
  -23.2060  -19.9974   19.4605 C   0  0  0  0  0  0
  -24.6573  -19.9444   18.9748 C   0  0  0  0  0  0
  -28.5725  -22.4445   17.7688 C   0  0  0  0  0  0
  -30.1686  -18.0197   20.3698 C   0  0  0  0  0  0
  -27.7775  -24.3015   20.3698 C   0  0  0  0  0  0
  -25.0684  -21.1877   18.1609 C   0  0  0  0  0  0
  -27.0922  -22.3937   17.3341 C   0  0  0  0  0  0
  -29.7333  -16.4394   20.4756 N   0  0  0  0  0  0
  -26.4701  -21.1017   17.6992 N   0  3  0  0  0  0
  -31.4625  -12.9271   19.2047 H   0  0  0  0  0  0
  -30.4698  -11.8269   20.1098 H   0  0  0  0  0  0
  -29.8989  -11.7490   17.6528 H   0  0  0  0  0  0
  -29.5808  -13.4675   17.6640 H   0  0  0  0  0  0
  -28.0137  -11.2766   19.0527 H   0  0  0  0  0  0
  -27.4101  -12.3753   17.8383 H   0  0  0  0  0  0
  -27.5418  -14.2469   19.3442 H   0  0  0  0  0  0
  -28.7897  -12.4637   21.4874 H   0  0  0  0  0  0
  -28.3052  -14.1314   21.7019 H   0  0  0  0  0  0
  -25.2780   -9.5686   22.4746 H   0  0  0  0  0  0
  -24.0010   -7.4640   22.7479 H   0  0  0  0  0  0
  -21.0846   -8.8779   19.8959 H   0  0  0  0  0  0
  -22.3715  -10.9668   19.6159 H   0  0  0  0  0  0
  -21.2020   -7.6147   23.9714 H   0  0  0  0  0  0
  -21.1479   -6.0516   25.9069 H   0  0  0  0  0  0
  -22.0604   -2.7612   23.2835 H   0  0  0  0  0  0
  -22.4034  -11.9882   22.4861 H   0  0  0  0  0  0
  -21.1018  -13.1209   22.2628 H   0  0  0  0  0  0
  -24.6293  -15.8432   20.5140 H   0  0  0  0  0  0
  -26.2429  -15.6356   20.0605 H   0  0  0  0  0  0
  -26.7369  -32.5162   23.0930 H   0  0  0  0  0  0
  -25.0069  -33.9504   25.0228 H   0  0  0  0  0  0
  -22.7846  -31.2757   21.3603 H   0  0  0  0  0  0
  -23.3763  -35.9542   23.3277 H   0  0  0  0  0  0
  -24.3581  -36.8893   22.2069 H   0  0  0  0  0  0
  -23.7234  -37.6400   23.6711 H   0  0  0  0  0  0
  -26.2156  -31.3909   20.6231 H   0  0  0  0  0  0
  -26.9029  -30.7042   22.0551 H   0  0  0  0  0  0
  -28.1467  -28.6296   21.2792 H   0  0  0  0  0  0
  -25.8711  -25.7941   18.9582 H   0  0  0  0  0  0
  -23.9992  -27.2968   18.9410 H   0  0  0  0  0  0
  -23.8654  -30.5376   19.3938 H   0  0  0  0  0  0
  -22.8205  -29.2215   19.8320 H   0  0  0  0  0  0
  -25.1320  -36.1798   25.0797 H   0  0  0  0  0  0
  -21.0034  -28.3357   24.1317 H   0  0  0  0  0  0
  -20.5691  -26.2369   23.3639 H   0  0  0  0  0  0
  -21.6666  -26.7424   22.1202 H   0  0  0  0  0  0
  -19.6932  -25.6280   21.1272 H   0  0  0  0  0  0
  -19.6702  -27.3167   20.6724 H   0  0  0  0  0  0
  -17.4224  -26.6684   21.4032 H   0  0  0  0  0  0
  -18.0355  -26.0094   22.9034 H   0  0  0  0  0  0
  -19.7963  -30.7326   24.2202 H   0  0  0  0  0  0
  -17.5028  -31.6269   24.5173 H   0  0  0  0  0  0
  -15.5369  -30.2965   23.7691 H   0  0  0  0  0  0
  -15.8708  -28.0808   22.7085 H   0  0  0  0  0  0
  -24.5874  -30.7125   25.7685 H   0  0  0  0  0  0
  -24.8864  -32.2973   26.4707 H   0  0  0  0  0  0
  -25.7917  -30.9004   27.0226 H   0  0  0  0  0  0
  -26.3092  -29.6593   24.1414 H   0  0  0  0  0  0
  -27.3955  -29.7262   25.5074 H   0  0  0  0  0  0
  -27.9045  -30.4086   23.9840 H   0  0  0  0  0  0
  -27.2632  -33.3666   26.1997 H   0  0  0  0  0  0
  -28.3914  -32.6845   25.0375 H   0  0  0  0  0  0
  -28.0677  -31.8525   26.5509 H   0  0  0  0  0  0
  -28.2568  -38.0088   24.7527 H   0  0  0  0  0  0
  -28.1093  -36.2616   24.6262 H   0  0  0  0  0  0
  -27.2298  -37.1383   25.8869 H   0  0  0  0  0  0
  -20.9579  -29.8740   21.6676 H   0  0  0  0  0  0
  -26.0134  -38.2780   24.1415 H   0  0  0  0  0  0
  -29.2622  -19.9993   22.4803 H   0  0  0  0  0  0
  -28.5429  -22.3229   22.4418 H   0  0  0  0  0  0
  -29.4331  -19.9742   18.2588 H   0  0  0  0  0  0
  -24.8860  -17.9873   21.4494 H   0  0  0  0  0  0
  -24.4838  -19.5201   22.2008 H   0  0  0  0  0  0
  -22.3356  -19.1561   21.2861 H   0  0  0  0  0  0
  -22.9688  -17.9710   20.1521 H   0  0  0  0  0  0
  -26.3818  -19.1878   20.1051 H   0  0  0  0  0  0
  -25.7332  -20.7027   20.7125 H   0  0  0  0  0  0
  -22.9785  -20.9846   19.8679 H   0  0  0  0  0  0
  -22.4881  -19.7953   18.6644 H   0  0  0  0  0  0
  -24.7696  -19.0516   18.3560 H   0  0  0  0  0  0
  -29.1819  -21.8958   17.0491 H   0  0  0  0  0  0
  -28.9343  -23.4728   17.7259 H   0  0  0  0  0  0
  -30.9086  -18.1136   21.1646 H   0  0  0  0  0  0
  -30.7737  -18.0391   19.4629 H   0  0  0  0  0  0
  -27.2977  -24.2868   21.3492 H   0  0  0  0  0  0
  -26.9419  -24.1612   19.6958 H   0  0  0  0  0  0
  -24.9300  -22.0712   18.7867 H   0  0  0  0  0  0
  -24.4163  -21.3121   17.2951 H   0  0  0  0  0  0
  -26.9980  -22.5640   16.2611 H   0  0  0  0  0  0
  -26.5534  -23.2135   17.8029 H   0  0  0  0  0  0
  -28.7427  -16.3043   20.6095 H   0  0  0  0  0  0
  -26.5457  -20.4514   16.9327 H   0  0  0  0  0  0
  -27.0185  -20.7406   18.4652 H   0  0  0  0  0  0
  1 25  1  0  0  0
  1 30  2  0  0  0
  1 87  1  0  0  0
  2  3  1  0  0  0
  2 25  1  0  0  0
  2 89  1  0  0  0
  2 90  1  0  0  0
  3  4  1  0  0  0
  3 91  1  0  0  0
  3 92  1  0  0  0
  4  5  1  0  0  0
  4 93  1  0  0  0
  4 94  1  0  0  0
  5  6  1  0  0  0
  5 26  1  0  0  0
  5 95  1  0  0  0
  6 25  1  0  0  0
  6 96  1  0  0  0
  6 97  1  0  0  0
  7  8  2  0  0  0
  7 26  1  0  0  0
  7 29  1  0  0  0
  8  9  1  0  0  0
  8 22  1  0  0  0
  9 10  1  0  0  0
  9 27  2  0  0  0
 10 11  2  0  0  0
 10 15  1  0  0  0
 11 12  1  0  0  0
 11 98  1  0  0  0
 12 13  2  0  0  0
 12 99  1  0  0  0
 13 14  1  0  0  0
 13 31  1  0  0  0
 14 15  2  0  0  0
 14100  1  0  0  0
 15101  1  0  0  0
 16 17  2  0  0  0
 16 21  1  0  0  0
 16 31  1  0  0  0
 17 18  1  0  0  0
 17102  1  0  0  0
 18 19  2  0  0  0
 18103  1  0  0  0
 19 20  1  0  0  0
 19 24  1  0  0  0
 20 21  2  0  0  0
 20104  1  0  0  0
 21 23  1  0  0  0
 22 28  1  0  0  0
 22 32  2  0  0  0
 26 27  1  0  0  0
 28105  1  0  0  0
 28106  1  0  0  0
 29107  1  0  0  0
 29108  1  0  0  0
 33 34  1  0  0  0
 33 66  1  0  0  0
 33 70  2  0  0  0
 34 36  1  0  0  0
 34 59  1  0  0  0
 34109  1  0  0  0
 35 44  2  0  0  0
 35 45  1  0  0  0
 35 68  1  0  0  0
 36 56  1  0  0  0
 36110  1  0  0  0
 37 39  1  0  0  0
 37 47  1  0  0  0
 37 66  1  0  0  0
 37111  1  0  0  0
 38 43  2  0  0  0
 38 46  1  0  0  0
 38 47  1  0  0  0
 39 64  1  0  0  0
 39 67  2  0  0  0
 40 52  1  0  0  0
 40 53  2  0  0  0
 40 58  1  0  0  0
 41112  1  0  0  0
 41113  1  0  0  0
 41114  1  0  0  0
 41 48  1  0  0  0
 42 43  1  0  0  0
 42 66  1  0  0  0
 42115  1  0  0  0
 42116  1  0  0  0
 43 44  1  0  0  0
 44117  1  0  0  0
 45 46  2  0  0  0
 45118  1  0  0  0
 46119  1  0  0  0
 47120  1  0  0  0
 47121  1  0  0  0
 48 56  1  0  0  0
 48 65  1  0  0  0
 48122  1  0  0  0
 49 50  1  0  0  0
 49 53  1  0  0  0
 49 64  1  0  0  0
 49123  1  0  0  0
 50 51  1  0  0  0
 50124  1  0  0  0
 50125  1  0  0  0
 51 52  1  0  0  0
 51126  1  0  0  0
 51127  1  0  0  0
 52128  1  0  0  0
 52129  1  0  0  0
 53 54  1  0  0  0
 54 55  2  0  0  0
 54130  1  0  0  0
 55 57  1  0  0  0
 55131  1  0  0  0
 56 69  2  0  0  0
 57 58  2  0  0  0
 57132  1  0  0  0
 58133  1  0  0  0
 59 60  1  0  0  0
 59 61  1  0  0  0
 59 62  1  0  0  0
 60134  1  0  0  0
 60135  1  0  0  0
 60136  1  0  0  0
 61137  1  0  0  0
 61138  1  0  0  0
 61139  1  0  0  0
 62140  1  0  0  0
 62141  1  0  0  0
 62142  1  0  0  0
 63 65  1  0  0  0
 63143  1  0  0  0
 63144  1  0  0  0
 63145  1  0  0  0
 64146  1  0  0  0
 65147  1  0  0  0
 68 84  1  0  0  0
 71 72  2  0  0  0
 71 74  1  0  0  0
 71148  1  0  0  0
 72 75  1  0  0  0
 72149  1  0  0  0
 73 74  2  0  0  0
 73 76  1  0  0  0
 73150  1  0  0  0
 74 83  1  0  0  0
 75 76  2  0  0  0
 75 84  1  0  0  0
 76 82  1  0  0  0
 77 78  1  0  0  0
 77 79  1  0  0  0
 77151  1  0  0  0
 77152  1  0  0  0
 78 80  1  0  0  0
 78153  1  0  0  0
 78154  1  0  0  0
 79 81  1  0  0  0
 79155  1  0  0  0
 79156  1  0  0  0
 80 81  1  0  0  0
 80157  1  0  0  0
 80158  1  0  0  0
 81 85  1  0  0  0
 81159  1  0  0  0
 82 86  1  0  0  0
 82160  1  0  0  0
 82161  1  0  0  0
 83 87  1  0  0  0
 83162  1  0  0  0
 83163  1  0  0  0
 84164  1  0  0  0
 84165  1  0  0  0
 85 88  1  0  0  0
 85166  1  0  0  0
 85167  1  0  0  0
 86 88  1  0  0  0
 86168  1  0  0  0
 86169  1  0  0  0
 87170  1  0  0  0
 88171  1  0  0  0
 88172  1  0  0  0
M  CHG  1  88   1
M  ISO  4   1 100  68 101  84 101  87 100
M  END
> <chiral flag>
0

> <version>
0

> <s_m_source_file>
/data/baiqing/PycharmProjects/Reinvent-master-3.2/result/LINK_invent/BTK/process_docking_weight1_custom_sum_contain_oxygen_bond_distance_aromatic_linkinvent_7_9_3/rearranged_h_0127.sdf

> <i_m_source_file_index>
10

> <r_mmod_Potential_Energy-OPLS-2005>
955.37255859375

> <r_mmod_Stretch_Energy-OPLS-2005>
448.045654296875

> <r_mmod_Bend_Energy-OPLS-2005>
436.245056152344

> <r_mmod_Torsional_Energy-OPLS-2005>
322.676116943359

> <r_mmod_Improper_Torsional_Energy-OPLS-2005>
10.2015447616577

> <r_mmod_Van_der_Waal_Energy-OPLS-2005>
117.723159790039

> <r_mmod_Electrostatic_Energy-OPLS-2005>
-297.875854492188

> <r_mmod_Solvation_Energy-OPLS-2005>
-464.502380371094

> <b_mmod_Minimization_Converged-OPLS-2005>
0

> <r_mmod_RMS_Derivative-OPLS-2005>
1.24953663349152

$$$$
10
                    3D
 Structure written by MMmdl.
168177  0  0  1  0            999 V2000
  -30.7817  -14.3772   20.6289 C   0  0  0  0  0  0
  -30.3988  -12.2589   19.4342 C   0  0  0  0  0  0
  -29.4904  -12.5011   18.2134 C   0  0  0  0  0  0
  -28.0127  -12.3664   18.6206 C   0  0  0  0  0  0
  -27.6659  -13.2040   19.8806 C   0  0  2  0  0  0
  -28.6998  -12.9897   21.0124 C   0  0  0  0  0  0
  -25.2599  -13.8158   20.5677 C   0  0  0  0  0  0
  -24.1835  -13.0447   20.9153 C   0  0  0  0  0  0
  -24.6385  -11.6910   20.8720 C   0  0  0  0  0  0
  -23.9047  -10.4301   21.0394 C   0  0  0  0  0  0
  -24.3593   -9.4229   21.9181 C   0  0  0  0  0  0
  -23.6280   -8.2251   22.0759 C   0  0  0  0  0  0
  -22.4269   -8.0278   21.3541 C   0  0  0  0  0  0
  -21.9896   -9.0253   20.4639 C   0  0  0  0  0  0
  -22.7215  -10.2135   20.3050 C   0  0  0  0  0  0
  -21.6858   -6.0723   22.5279 C   0  0  0  0  0  0
  -21.4017   -6.5625   23.8208 C   0  0  0  0  0  0
  -21.3667   -5.6785   24.9176 C   0  0  0  0  0  0
  -21.6039   -4.3049   24.7232 C   0  0  0  0  0  0
  -21.8823   -3.8135   23.4351 C   0  0  0  0  0  0
  -21.9197   -4.6949   22.3407 C   0  0  0  0  0  0
  -22.7866  -13.5250   21.1820 C   0  0  0  0  0  0
  -22.1664   -4.2118   21.0989 F   0  0  0  0  0  0
  -21.5633   -3.4550   25.7753 F   0  0  0  0  0  0
  -30.0480  -13.2437   20.4721 N   0  0  0  0  0  0
  -26.3043  -12.9319   20.3383 N   0  0  0  0  0  0
  -25.9306  -11.6479   20.5758 N   0  0  0  0  0  0
  -22.0500  -12.8240   22.0372 N   0  0  0  0  0  0
  -25.4371  -15.1874   20.4095 N   0  0  0  0  0  0
  -31.8413  -14.5712   20.0290 O   0  0  0  0  0  0
  -21.6652   -6.8860   21.4229 O   0  0  0  0  0  0
  -22.3564  -14.5570   20.6695 O   0  0  0  0  0  0
  -24.6114  -31.8747   23.2167 C   0  0  0  0  0  0
  -25.9040  -32.4834   23.8440 C   0  0  1  0  0  0
  -27.2315  -27.4533   20.0827 C   0  0  0  0  0  0
  -25.5971  -33.8651   24.2387 N   0  0  0  0  0  0
  -23.3980  -30.5020   21.5546 C   0  0  2  0  0  0
  -24.8427  -28.9678   20.1207 C   0  0  0  0  0  0
  -22.7398  -29.4701   22.4977 C   0  0  0  0  0  0
  -18.0296  -28.1348   22.8515 C   0  0  0  0  0  0
  -24.1483  -36.7264   23.2625 C   0  0  0  0  0  0
  -25.9296  -30.8320   21.3805 C   0  0  0  0  0  0
  -26.0010  -29.4708   20.7260 C   0  0  0  0  0  0
  -27.1923  -28.7147   20.7145 C   0  0  0  0  0  0
  -26.0466  -26.9578   19.4845 C   0  0  0  0  0  0
  -24.8583  -27.7082   19.5052 C   0  0  0  0  0  0
  -23.6083  -29.8379   20.1696 C   0  0  0  0  0  0
  -25.4115  -36.3108   24.0329 C   0  0  1  0  0  0
  -20.5894  -28.3646   23.1296 C   0  0  2  0  0  0
  -20.6788  -26.9378   22.5397 C   0  0  0  0  0  0
  -19.5754  -26.6357   21.5209 C   0  0  0  0  0  0
  -18.1932  -26.7906   22.1625 C   0  0  0  0  0  0
  -19.1541  -28.8829   23.2908 C   0  0  0  0  0  0
  -18.9465  -30.1445   23.8900 C   0  0  0  0  0  0
  -17.6473  -30.6563   24.0569 C   0  0  0  0  0  0
  -25.9052  -34.9476   23.5133 C   0  0  0  0  0  0
  -16.5364  -29.9058   23.6335 C   0  0  0  0  0  0
  -16.7290  -28.6471   23.0365 C   0  0  0  0  0  0
  -26.4503  -31.6619   25.0761 C   0  0  0  0  0  0
  -25.3800  -31.3707   26.1518 C   0  0  0  0  0  0
  -27.0405  -30.3090   24.6172 C   0  0  0  0  0  0
  -27.6087  -32.4391   25.7485 C   0  0  0  0  0  0
  -27.5585  -37.1771   24.8467 C   0  0  0  0  0  0
  -21.4141  -29.3033   22.3690 N   0  0  0  0  0  0
  -26.4297  -37.3792   23.9414 N   0  0  0  0  0  0
  -24.6633  -31.0854   22.1077 N   0  0  0  0  0  0
  -23.4178  -28.8224   23.2999 O   0  0  0  0  0  0
  -28.4208  -26.7580   20.0863 O   0  0  0  0  0  0
  -26.5529  -34.8888   22.4638 O   0  0  0  0  0  0
  -23.5305  -32.1525   23.7564 O   0  0  0  0  0  0
  -28.9877  -19.6760   22.2256 C   0  0  0  0  0  0
  -28.6658  -20.9272   21.6788 C   0  0  0  0  0  0
  -31.2641  -19.8771   21.3630 C   0  0  0  0  0  0
  -30.2650  -19.1132   22.0333 C   0  0  0  0  0  0
  -29.6034  -21.6257   20.8935 C   0  0  0  0  0  0
  -30.9176  -21.1136   20.7443 C   0  0  0  0  0  0
  -32.7030  -19.3842   21.2657 C   0  0  0  0  0  0
  -33.6659  -20.5574   21.0724 C   0  0  0  0  0  0
  -33.2192  -21.3570   19.8497 C   0  0  0  0  0  0
  -30.4576  -17.6564   22.4619 C   0  0  0  0  0  0
  -29.1320  -22.8778   20.1629 C   0  0  0  0  0  0
  -30.6398  -16.7495   21.2257 C   0  0  0  0  0  0
  -29.9662  -25.0636   19.3066 C   0  0  0  0  0  0
  -28.5974  -25.7379   19.1068 C   0  0  0  0  0  0
  -31.8503  -21.8500   19.9836 N   0  0  0  0  0  0
  -30.2561  -15.3415   21.3979 N   0  0  0  0  0  0
  -29.9765  -24.0658   20.4098 N   0  3  0  0  0  0
  -31.4505  -12.3041   19.1448 H   0  0  0  0  0  0
  -30.2453  -11.2485   19.8188 H   0  0  0  0  0  0
  -29.7229  -11.7868   17.4228 H   0  0  0  0  0  0
  -29.6741  -13.4936   17.7992 H   0  0  0  0  0  0
  -27.8193  -11.3100   18.8107 H   0  0  0  0  0  0
  -27.3629  -12.6474   17.7901 H   0  0  0  0  0  0
  -27.7154  -14.2522   19.5852 H   0  0  0  0  0  0
  -28.6455  -11.9661   21.3868 H   0  0  0  0  0  0
  -28.4583  -13.6234   21.8660 H   0  0  0  0  0  0
  -25.2738   -9.5710   22.4762 H   0  0  0  0  0  0
  -23.9997   -7.4648   22.7488 H   0  0  0  0  0  0
  -21.0830   -8.8752   19.8948 H   0  0  0  0  0  0
  -22.3667  -10.9661   19.6156 H   0  0  0  0  0  0
  -21.2008   -7.6138   23.9689 H   0  0  0  0  0  0
  -21.1482   -6.0532   25.9067 H   0  0  0  0  0  0
  -22.0593   -2.7596   23.2879 H   0  0  0  0  0  0
  -22.4122  -11.9898   22.4740 H   0  0  0  0  0  0
  -21.1110  -13.1239   22.2549 H   0  0  0  0  0  0
  -24.6783  -15.8507   20.5202 H   0  0  0  0  0  0
  -26.3026  -15.6200   20.1108 H   0  0  0  0  0  0
  -26.7085  -32.5548   23.1169 H   0  0  0  0  0  0
  -25.0350  -33.9848   25.0685 H   0  0  0  0  0  0
  -22.6864  -31.3198   21.4156 H   0  0  0  0  0  0
  -23.3781  -35.9560   23.3331 H   0  0  0  0  0  0
  -24.3571  -36.8866   22.2034 H   0  0  0  0  0  0
  -23.7189  -37.6448   23.6636 H   0  0  0  0  0  0
  -26.0603  -31.5976   20.6158 H   0  0  0  0  0  0
  -26.8107  -30.8717   22.0114 H   0  0  0  0  0  0
  -28.0886  -29.1011   21.1793 H   0  0  0  0  0  0
  -25.9963  -25.9970   18.9988 H   0  0  0  0  0  0
  -23.9638  -27.3106   19.0435 H   0  0  0  0  0  0
  -23.7229  -30.6145   19.4137 H   0  0  0  0  0  0
  -22.7338  -29.2587   19.8715 H   0  0  0  0  0  0
  -25.1283  -36.1969   25.0825 H   0  0  0  0  0  0
  -21.0028  -28.3214   24.1395 H   0  0  0  0  0  0
  -20.5720  -26.2240   23.3581 H   0  0  0  0  0  0
  -21.6637  -26.7400   22.1160 H   0  0  0  0  0  0
  -19.6905  -25.6261   21.1248 H   0  0  0  0  0  0
  -19.6714  -27.3151   20.6730 H   0  0  0  0  0  0
  -17.4214  -26.6715   21.3995 H   0  0  0  0  0  0
  -18.0300  -25.9985   22.8961 H   0  0  0  0  0  0
  -19.7938  -30.7282   24.2217 H   0  0  0  0  0  0
  -17.5022  -31.6241   24.5159 H   0  0  0  0  0  0
  -15.5370  -30.2973   23.7633 H   0  0  0  0  0  0
  -15.8691  -28.0810   22.7061 H   0  0  0  0  0  0
  -24.5946  -30.7084   25.7855 H   0  0  0  0  0  0
  -24.9004  -32.2873   26.5000 H   0  0  0  0  0  0
  -25.8160  -30.8853   27.0264 H   0  0  0  0  0  0
  -26.2982  -29.6768   24.1314 H   0  0  0  0  0  0
  -27.4308  -29.7399   25.4621 H   0  0  0  0  0  0
  -27.8738  -30.4427   23.9263 H   0  0  0  0  0  0
  -27.2709  -33.3702   26.2035 H   0  0  0  0  0  0
  -28.3887  -32.6975   25.0305 H   0  0  0  0  0  0
  -28.0781  -31.8586   26.5430 H   0  0  0  0  0  0
  -28.2576  -38.0087   24.7590 H   0  0  0  0  0  0
  -28.1116  -36.2633   24.6262 H   0  0  0  0  0  0
  -27.2314  -37.1421   25.8867 H   0  0  0  0  0  0
  -20.9287  -29.8764   21.6944 H   0  0  0  0  0  0
  -26.0199  -38.2871   24.1471 H   0  0  0  0  0  0
  -28.2261  -19.1273   22.7599 H   0  0  0  0  0  0
  -27.6666  -21.3161   21.8127 H   0  0  0  0  0  0
  -32.7846  -18.7175   20.4087 H   0  0  0  0  0  0
  -32.9860  -18.8211   22.1536 H   0  0  0  0  0  0
  -34.6899  -20.2059   20.9401 H   0  0  0  0  0  0
  -33.6660  -21.1969   21.9573 H   0  0  0  0  0  0
  -33.2850  -20.7319   18.9563 H   0  0  0  0  0  0
  -33.8925  -22.2011   19.6839 H   0  0  0  0  0  0
  -29.5803  -17.3325   23.0246 H   0  0  0  0  0  0
  -31.2976  -17.5652   23.1511 H   0  0  0  0  0  0
  -28.1039  -23.1097   20.4423 H   0  0  0  0  0  0
  -29.1217  -22.6314   19.1005 H   0  0  0  0  0  0
  -31.6682  -16.8401   20.8774 H   0  0  0  0  0  0
  -30.0173  -17.1246   20.4123 H   0  0  0  0  0  0
  -30.7267  -25.8207   19.4853 H   0  0  0  0  0  0
  -30.2537  -24.5576   18.3842 H   0  0  0  0  0  0
  -27.8124  -24.9857   19.1484 H   0  0  0  0  0  0
  -28.5490  -26.2047   18.1200 H   0  0  0  0  0  0
  -31.4928  -22.2257   19.1083 H   0  0  0  0  0  0
  -29.3876  -15.1363   21.8675 H   0  0  0  0  0  0
  -30.9172  -23.7052   20.5169 H   0  0  0  0  0  0
  -29.7197  -24.4996   21.2833 H   0  0  0  0  0  0
  1 25  1  0  0  0
  1 30  2  0  0  0
  1 86  1  0  0  0
  2  3  1  0  0  0
  2 25  1  0  0  0
  2 88  1  0  0  0
  2 89  1  0  0  0
  3  4  1  0  0  0
  3 90  1  0  0  0
  3 91  1  0  0  0
  4  5  1  0  0  0
  4 92  1  0  0  0
  4 93  1  0  0  0
  5  6  1  0  0  0
  5 26  1  0  0  0
  5 94  1  0  0  0
  6 25  1  0  0  0
  6 95  1  0  0  0
  6 96  1  0  0  0
  7  8  2  0  0  0
  7 26  1  0  0  0
  7 29  1  0  0  0
  8  9  1  0  0  0
  8 22  1  0  0  0
  9 10  1  0  0  0
  9 27  2  0  0  0
 10 11  2  0  0  0
 10 15  1  0  0  0
 11 12  1  0  0  0
 11 97  1  0  0  0
 12 13  2  0  0  0
 12 98  1  0  0  0
 13 14  1  0  0  0
 13 31  1  0  0  0
 14 15  2  0  0  0
 14 99  1  0  0  0
 15100  1  0  0  0
 16 17  2  0  0  0
 16 21  1  0  0  0
 16 31  1  0  0  0
 17 18  1  0  0  0
 17101  1  0  0  0
 18 19  2  0  0  0
 18102  1  0  0  0
 19 20  1  0  0  0
 19 24  1  0  0  0
 20 21  2  0  0  0
 20103  1  0  0  0
 21 23  1  0  0  0
 22 28  1  0  0  0
 22 32  2  0  0  0
 26 27  1  0  0  0
 28104  1  0  0  0
 28105  1  0  0  0
 29106  1  0  0  0
 29107  1  0  0  0
 33 34  1  0  0  0
 33 66  1  0  0  0
 33 70  2  0  0  0
 34 36  1  0  0  0
 34 59  1  0  0  0
 34108  1  0  0  0
 35 44  2  0  0  0
 35 45  1  0  0  0
 35 68  1  0  0  0
 36 56  1  0  0  0
 36109  1  0  0  0
 37 39  1  0  0  0
 37 47  1  0  0  0
 37 66  1  0  0  0
 37110  1  0  0  0
 38 43  2  0  0  0
 38 46  1  0  0  0
 38 47  1  0  0  0
 39 64  1  0  0  0
 39 67  2  0  0  0
 40 52  1  0  0  0
 40 53  2  0  0  0
 40 58  1  0  0  0
 41111  1  0  0  0
 41112  1  0  0  0
 41113  1  0  0  0
 41 48  1  0  0  0
 42 43  1  0  0  0
 42 66  1  0  0  0
 42114  1  0  0  0
 42115  1  0  0  0
 43 44  1  0  0  0
 44116  1  0  0  0
 45 46  2  0  0  0
 45117  1  0  0  0
 46118  1  0  0  0
 47119  1  0  0  0
 47120  1  0  0  0
 48 56  1  0  0  0
 48 65  1  0  0  0
 48121  1  0  0  0
 49 50  1  0  0  0
 49 53  1  0  0  0
 49 64  1  0  0  0
 49122  1  0  0  0
 50 51  1  0  0  0
 50123  1  0  0  0
 50124  1  0  0  0
 51 52  1  0  0  0
 51125  1  0  0  0
 51126  1  0  0  0
 52127  1  0  0  0
 52128  1  0  0  0
 53 54  1  0  0  0
 54 55  2  0  0  0
 54129  1  0  0  0
 55 57  1  0  0  0
 55130  1  0  0  0
 56 69  2  0  0  0
 57 58  2  0  0  0
 57131  1  0  0  0
 58132  1  0  0  0
 59 60  1  0  0  0
 59 61  1  0  0  0
 59 62  1  0  0  0
 60133  1  0  0  0
 60134  1  0  0  0
 60135  1  0  0  0
 61136  1  0  0  0
 61137  1  0  0  0
 61138  1  0  0  0
 62139  1  0  0  0
 62140  1  0  0  0
 62141  1  0  0  0
 63 65  1  0  0  0
 63142  1  0  0  0
 63143  1  0  0  0
 63144  1  0  0  0
 64145  1  0  0  0
 65146  1  0  0  0
 68 84  1  0  0  0
 71 72  2  0  0  0
 71 74  1  0  0  0
 71147  1  0  0  0
 72 75  1  0  0  0
 72148  1  0  0  0
 73 74  2  0  0  0
 73 76  1  0  0  0
 73 77  1  0  0  0
 74 80  1  0  0  0
 75 76  2  0  0  0
 75 81  1  0  0  0
 76 85  1  0  0  0
 77 78  1  0  0  0
 77149  1  0  0  0
 77150  1  0  0  0
 78 79  1  0  0  0
 78151  1  0  0  0
 78152  1  0  0  0
 79 85  1  0  0  0
 79153  1  0  0  0
 79154  1  0  0  0
 80 82  1  0  0  0
 80155  1  0  0  0
 80156  1  0  0  0
 81 87  1  0  0  0
 81157  1  0  0  0
 81158  1  0  0  0
 82 86  1  0  0  0
 82159  1  0  0  0
 82160  1  0  0  0
 83 84  1  0  0  0
 83 87  1  0  0  0
 83161  1  0  0  0
 83162  1  0  0  0
 84163  1  0  0  0
 84164  1  0  0  0
 85165  1  0  0  0
 86166  1  0  0  0
 87167  1  0  0  0
 87168  1  0  0  0
M  CHG  1  87   1
M  ISO  4   1 100  68 101  84 101  86 100
M  END
> <chiral flag>
0

> <version>
0

> <s_m_source_file>
/data/baiqing/PycharmProjects/Reinvent-master-3.2/result/LINK_invent/BTK/process_docking_weight1_custom_sum_contain_oxygen_bond_distance_aromatic_linkinvent_7_9_3/rearranged_h_0127.sdf

> <i_m_source_file_index>
11

> <r_mmod_Potential_Energy-OPLS-2005>
-249.198043823242

> <r_mmod_Stretch_Energy-OPLS-2005>
36.7268867492676

> <r_mmod_Bend_Energy-OPLS-2005>
104.619575500488

> <r_mmod_Torsional_Energy-OPLS-2005>
223.163146972656

> <r_mmod_Improper_Torsional_Energy-OPLS-2005>
7.60001087188721

> <r_mmod_Van_der_Waal_Energy-OPLS-2005>
179.486404418945

> <r_mmod_Electrostatic_Energy-OPLS-2005>
-369.614685058594

> <r_mmod_Solvation_Energy-OPLS-2005>
-441.454559326172

> <b_mmod_Minimization_Converged-OPLS-2005>
0

> <r_mmod_RMS_Derivative-OPLS-2005>
3.73324108123779

$$$$
11
                    3D
 Structure written by MMmdl.
160168  0  0  1  0            999 V2000
  -30.6721  -14.6509   20.5152 C   0  0  0  0  0  0
  -30.4251  -12.4104   19.4549 C   0  0  0  0  0  0
  -29.5009  -12.5074   18.2237 C   0  0  0  0  0  0
  -28.0273  -12.3432   18.6402 C   0  0  0  0  0  0
  -27.6472  -13.2289   19.8574 C   0  0  2  0  0  0
  -28.6936  -13.1285   20.9888 C   0  0  0  0  0  0
  -25.2528  -13.8201   20.5701 C   0  0  0  0  0  0
  -24.1811  -13.0449   20.9202 C   0  0  0  0  0  0
  -24.6398  -11.6922   20.8745 C   0  0  0  0  0  0
  -23.9070  -10.4297   21.0402 C   0  0  0  0  0  0
  -24.3619   -9.4214   21.9183 C   0  0  0  0  0  0
  -23.6295   -8.2248   22.0756 C   0  0  0  0  0  0
  -22.4277   -8.0282   21.3546 C   0  0  0  0  0  0
  -21.9912   -9.0255   20.4647 C   0  0  0  0  0  0
  -22.7241  -10.2134   20.3052 C   0  0  0  0  0  0
  -21.6852   -6.0735   22.5279 C   0  0  0  0  0  0
  -21.4015   -6.5638   23.8212 C   0  0  0  0  0  0
  -21.3658   -5.6792   24.9173 C   0  0  0  0  0  0
  -21.6042   -4.3056   24.7222 C   0  0  0  0  0  0
  -21.8821   -3.8146   23.4343 C   0  0  0  0  0  0
  -21.9197   -4.6964   22.3401 C   0  0  0  0  0  0
  -22.7831  -13.5228   21.1860 C   0  0  0  0  0  0
  -22.1662   -4.2150   21.0979 F   0  0  0  0  0  0
  -21.5628   -3.4540   25.7734 F   0  0  0  0  0  0
  -30.0026  -13.4579   20.4092 N   0  0  0  0  0  0
  -26.2966  -12.9403   20.3319 N   0  0  0  0  0  0
  -25.9331  -11.6545   20.5763 N   0  0  0  0  0  0
  -22.0477  -12.8211   22.0414 N   0  0  0  0  0  0
  -25.4231  -15.1921   20.4113 N   0  0  0  0  0  0
  -31.8408  -14.7451   20.1337 O   0  0  0  0  0  0
  -21.6643   -6.8877   21.4238 O   0  0  0  0  0  0
  -22.3516  -14.5537   20.6717 O   0  0  0  0  0  0
  -24.6283  -31.8582   23.2023 C   0  0  0  0  0  0
  -25.9124  -32.4768   23.8352 C   0  0  1  0  0  0
  -27.2160  -27.3004   20.1113 C   0  0  0  0  0  0
  -25.5940  -33.8570   24.2271 N   0  0  0  0  0  0
  -23.4227  -30.4854   21.5445 C   0  0  2  0  0  0
  -24.8675  -28.9459   20.1075 C   0  0  0  0  0  0
  -22.7484  -29.4626   22.4909 C   0  0  0  0  0  0
  -18.0287  -28.1375   22.8487 C   0  0  0  0  0  0
  -24.1498  -36.7292   23.2640 C   0  0  0  0  0  0
  -25.9679  -30.7829   21.3793 C   0  0  0  0  0  0
  -26.0397  -29.4112   20.7173 C   0  0  0  0  0  0
  -27.2172  -28.6004   20.7112 C   0  0  0  0  0  0
  -26.0183  -26.9029   19.4688 C   0  0  0  0  0  0
  -24.8605  -27.6976   19.4739 C   0  0  0  0  0  0
  -23.6377  -29.8276   20.1577 C   0  0  0  0  0  0
  -25.4120  -36.3072   24.0325 C   0  0  1  0  0  0
  -20.5893  -28.3686   23.1269 C   0  0  2  0  0  0
  -20.6777  -26.9406   22.5399 C   0  0  0  0  0  0
  -19.5754  -26.6375   21.5205 C   0  0  0  0  0  0
  -18.1935  -26.7921   22.1614 C   0  0  0  0  0  0
  -19.1541  -28.8849   23.2875 C   0  0  0  0  0  0
  -18.9466  -30.1456   23.8889 C   0  0  0  0  0  0
  -17.6465  -30.6581   24.0568 C   0  0  0  0  0  0
  -25.9059  -34.9443   23.5091 C   0  0  0  0  0  0
  -16.5355  -29.9081   23.6332 C   0  0  0  0  0  0
  -16.7273  -28.6498   23.0353 C   0  0  0  0  0  0
  -26.4498  -31.6576   25.0725 C   0  0  0  0  0  0
  -25.3731  -31.3707   26.1452 C   0  0  0  0  0  0
  -27.0344  -30.2995   24.6202 C   0  0  0  0  0  0
  -27.6061  -32.4310   25.7489 C   0  0  0  0  0  0
  -27.5580  -37.1809   24.8465 C   0  0  0  0  0  0
  -21.4194  -29.3048   22.3665 N   0  0  0  0  0  0
  -26.4293  -37.3769   23.9406 N   0  0  0  0  0  0
  -24.6916  -31.0594   22.0983 N   0  0  0  0  0  0
  -23.4204  -28.8153   23.2982 O   0  0  0  0  0  0
  -28.3133  -26.4148   20.1717 O   0  0  0  0  0  0
  -26.5627  -34.8910   22.4656 O   0  0  0  0  0  0
  -23.5440  -32.1376   23.7345 O   0  0  0  0  0  0
  -30.8054  -19.5862   20.6277 C   0  0  0  0  0  0
  -28.5732  -18.7526   20.9052 C   0  0  0  0  0  0
  -30.3125  -20.9140   20.4264 C   0  0  0  0  0  0
  -28.0803  -20.0760   20.6842 C   0  0  0  0  0  0
  -29.9610  -18.4683   20.9061 C   0  0  0  0  0  0
  -28.9244  -21.2021   20.4678 C   0  0  0  0  0  0
  -31.5316  -15.8545   23.4641 C   0  0  0  0  0  0
  -31.3321  -18.3493   23.5324 C   0  0  0  0  0  0
  -29.0198  -23.7662   20.3264 C   0  0  0  0  0  0
  -28.0302  -24.9666   19.9549 C   0  0  0  0  0  0
  -30.5806  -17.0845   21.3741 C   0  0  1  0  0  0
  -30.7297  -17.0613   22.9339 C   0  0  0  0  0  0
  -29.9846  -15.7637   20.9410 N   0  0  0  0  0  0
  -28.3239  -22.4694   20.2968 O   0  0  0  0  0  0
  -31.4673  -12.5173   19.1498 H   0  0  0  0  0  0
  -30.3506  -11.4242   19.9162 H   0  0  0  0  0  0
  -29.7682  -11.7465   17.4890 H   0  0  0  0  0  0
  -29.6407  -13.4712   17.7315 H   0  0  0  0  0  0
  -27.8714  -11.2923   18.8861 H   0  0  0  0  0  0
  -27.3694  -12.5574   17.7970 H   0  0  0  0  0  0
  -27.6537  -14.2582   19.4980 H   0  0  0  0  0  0
  -28.7097  -12.1239   21.4143 H   0  0  0  0  0  0
  -28.4394  -13.7993   21.8107 H   0  0  0  0  0  0
  -25.2762   -9.5691   22.4764 H   0  0  0  0  0  0
  -24.0002   -7.4640   22.7480 H   0  0  0  0  0  0
  -21.0844   -8.8772   19.8954 H   0  0  0  0  0  0
  -22.3699  -10.9670   19.6162 H   0  0  0  0  0  0
  -21.2006   -7.6150   23.9713 H   0  0  0  0  0  0
  -21.1476   -6.0524   25.9075 H   0  0  0  0  0  0
  -22.0601   -2.7611   23.2845 H   0  0  0  0  0  0
  -22.4086  -11.9861   22.4779 H   0  0  0  0  0  0
  -21.1103  -13.1238   22.2631 H   0  0  0  0  0  0
  -24.6538  -15.8450   20.5136 H   0  0  0  0  0  0
  -26.2697  -15.6298   20.0714 H   0  0  0  0  0  0
  -26.7199  -32.5422   23.1102 H   0  0  0  0  0  0
  -25.0101  -33.9721   25.0431 H   0  0  0  0  0  0
  -22.7179  -31.3071   21.4023 H   0  0  0  0  0  0
  -23.3750  -35.9636   23.3303 H   0  0  0  0  0  0
  -24.3596  -36.8903   22.2056 H   0  0  0  0  0  0
  -23.7255  -37.6497   23.6666 H   0  0  0  0  0  0
  -26.1080  -31.5482   20.6146 H   0  0  0  0  0  0
  -26.8464  -30.8251   22.0120 H   0  0  0  0  0  0
  -28.1128  -28.9499   21.2062 H   0  0  0  0  0  0
  -25.9322  -25.9546   18.9614 H   0  0  0  0  0  0
  -23.9647  -27.3379   18.9859 H   0  0  0  0  0  0
  -23.7591  -30.6073   19.4046 H   0  0  0  0  0  0
  -22.7582  -29.2590   19.8490 H   0  0  0  0  0  0
  -25.1298  -36.1927   25.0818 H   0  0  0  0  0  0
  -20.9988  -28.3253   24.1389 H   0  0  0  0  0  0
  -20.5673  -26.2290   23.3598 H   0  0  0  0  0  0
  -21.6648  -26.7431   22.1197 H   0  0  0  0  0  0
  -19.6921  -25.6284   21.1236 H   0  0  0  0  0  0
  -19.6697  -27.3191   20.6744 H   0  0  0  0  0  0
  -17.4205  -26.6675   21.4019 H   0  0  0  0  0  0
  -18.0339  -26.0048   22.8999 H   0  0  0  0  0  0
  -19.7944  -30.7279   24.2241 H   0  0  0  0  0  0
  -17.5021  -31.6262   24.5173 H   0  0  0  0  0  0
  -15.5360  -30.2988   23.7660 H   0  0  0  0  0  0
  -15.8668  -28.0823   22.7069 H   0  0  0  0  0  0
  -24.5936  -30.7012   25.7793 H   0  0  0  0  0  0
  -24.8886  -32.2858   26.4867 H   0  0  0  0  0  0
  -25.8061  -30.8907   27.0237 H   0  0  0  0  0  0
  -26.2913  -29.6739   24.1238 H   0  0  0  0  0  0
  -27.4033  -29.7262   25.4717 H   0  0  0  0  0  0
  -27.8794  -30.4258   23.9428 H   0  0  0  0  0  0
  -27.2688  -33.3632   26.2032 H   0  0  0  0  0  0
  -28.3894  -32.6823   25.0326 H   0  0  0  0  0  0
  -28.0706  -31.8443   26.5425 H   0  0  0  0  0  0
  -28.2598  -38.0110   24.7513 H   0  0  0  0  0  0
  -28.1070  -36.2633   24.6285 H   0  0  0  0  0  0
  -27.2300  -37.1455   25.8870 H   0  0  0  0  0  0
  -20.9361  -29.8798   21.6907 H   0  0  0  0  0  0
  -26.0164  -38.2843   24.1394 H   0  0  0  0  0  0
  -31.8765  -19.4400   20.6262 H   0  0  0  0  0  0
  -27.8709  -17.9614   21.1256 H   0  0  0  0  0  0
  -31.0207  -21.7114   20.2530 H   0  0  0  0  0  0
  -27.0113  -20.2336   20.7159 H   0  0  0  0  0  0
  -31.6718  -15.9168   24.5440 H   0  0  0  0  0  0
  -32.5209  -15.8034   23.0075 H   0  0  0  0  0  0
  -31.0238  -14.9085   23.2798 H   0  0  0  0  0  0
  -31.4398  -18.2699   24.6149 H   0  0  0  0  0  0
  -30.7026  -19.2213   23.3550 H   0  0  0  0  0  0
  -32.3200  -18.5557   23.1196 H   0  0  0  0  0  0
  -29.4197  -23.9165   21.3293 H   0  0  0  0  0  0
  -29.8667  -23.7557   19.6395 H   0  0  0  0  0  0
  -27.1163  -24.7433   20.5075 H   0  0  0  0  0  0
  -27.7902  -24.8378   18.8989 H   0  0  0  0  0  0
  -31.5939  -17.1065   20.9694 H   0  0  0  0  0  0
  -29.7245  -16.9831   23.3510 H   0  0  0  0  0  0
  -29.0087  -15.6266   21.1516 H   0  0  0  0  0  0
  1 25  1  0  0  0
  1 30  2  0  0  0
  1 83  1  0  0  0
  2  3  1  0  0  0
  2 25  1  0  0  0
  2 85  1  0  0  0
  2 86  1  0  0  0
  3  4  1  0  0  0
  3 87  1  0  0  0
  3 88  1  0  0  0
  4  5  1  0  0  0
  4 89  1  0  0  0
  4 90  1  0  0  0
  5  6  1  0  0  0
  5 26  1  0  0  0
  5 91  1  0  0  0
  6 25  1  0  0  0
  6 92  1  0  0  0
  6 93  1  0  0  0
  7  8  2  0  0  0
  7 26  1  0  0  0
  7 29  1  0  0  0
  8  9  1  0  0  0
  8 22  1  0  0  0
  9 10  1  0  0  0
  9 27  2  0  0  0
 10 11  2  0  0  0
 10 15  1  0  0  0
 11 12  1  0  0  0
 11 94  1  0  0  0
 12 13  2  0  0  0
 12 95  1  0  0  0
 13 14  1  0  0  0
 13 31  1  0  0  0
 14 15  2  0  0  0
 14 96  1  0  0  0
 15 97  1  0  0  0
 16 17  2  0  0  0
 16 21  1  0  0  0
 16 31  1  0  0  0
 17 18  1  0  0  0
 17 98  1  0  0  0
 18 19  2  0  0  0
 18 99  1  0  0  0
 19 20  1  0  0  0
 19 24  1  0  0  0
 20 21  2  0  0  0
 20100  1  0  0  0
 21 23  1  0  0  0
 22 28  1  0  0  0
 22 32  2  0  0  0
 26 27  1  0  0  0
 28101  1  0  0  0
 28102  1  0  0  0
 29103  1  0  0  0
 29104  1  0  0  0
 33 34  1  0  0  0
 33 66  1  0  0  0
 33 70  2  0  0  0
 34 36  1  0  0  0
 34 59  1  0  0  0
 34105  1  0  0  0
 35 44  2  0  0  0
 35 45  1  0  0  0
 35 68  1  0  0  0
 36 56  1  0  0  0
 36106  1  0  0  0
 37 39  1  0  0  0
 37 47  1  0  0  0
 37 66  1  0  0  0
 37107  1  0  0  0
 38 43  2  0  0  0
 38 46  1  0  0  0
 38 47  1  0  0  0
 39 64  1  0  0  0
 39 67  2  0  0  0
 40 52  1  0  0  0
 40 53  2  0  0  0
 40 58  1  0  0  0
 41108  1  0  0  0
 41109  1  0  0  0
 41110  1  0  0  0
 41 48  1  0  0  0
 42 43  1  0  0  0
 42 66  1  0  0  0
 42111  1  0  0  0
 42112  1  0  0  0
 43 44  1  0  0  0
 44113  1  0  0  0
 45 46  2  0  0  0
 45114  1  0  0  0
 46115  1  0  0  0
 47116  1  0  0  0
 47117  1  0  0  0
 48 56  1  0  0  0
 48 65  1  0  0  0
 48118  1  0  0  0
 49 50  1  0  0  0
 49 53  1  0  0  0
 49 64  1  0  0  0
 49119  1  0  0  0
 50 51  1  0  0  0
 50120  1  0  0  0
 50121  1  0  0  0
 51 52  1  0  0  0
 51122  1  0  0  0
 51123  1  0  0  0
 52124  1  0  0  0
 52125  1  0  0  0
 53 54  1  0  0  0
 54 55  2  0  0  0
 54126  1  0  0  0
 55 57  1  0  0  0
 55127  1  0  0  0
 56 69  2  0  0  0
 57 58  2  0  0  0
 57128  1  0  0  0
 58129  1  0  0  0
 59 60  1  0  0  0
 59 61  1  0  0  0
 59 62  1  0  0  0
 60130  1  0  0  0
 60131  1  0  0  0
 60132  1  0  0  0
 61133  1  0  0  0
 61134  1  0  0  0
 61135  1  0  0  0
 62136  1  0  0  0
 62137  1  0  0  0
 62138  1  0  0  0
 63 65  1  0  0  0
 63139  1  0  0  0
 63140  1  0  0  0
 63141  1  0  0  0
 64142  1  0  0  0
 65143  1  0  0  0
 68 80  1  0  0  0
 71 73  2  0  0  0
 71 75  1  0  0  0
 71144  1  0  0  0
 72 74  1  0  0  0
 72 75  2  0  0  0
 72145  1  0  0  0
 73 76  1  0  0  0
 73146  1  0  0  0
 74 76  2  0  0  0
 74147  1  0  0  0
 75 81  1  0  0  0
 76 84  1  0  0  0
 77148  1  0  0  0
 77149  1  0  0  0
 77150  1  0  0  0
 77 82  1  0  0  0
 78 82  1  0  0  0
 78151  1  0  0  0
 78152  1  0  0  0
 78153  1  0  0  0
 79 80  1  0  0  0
 79 84  1  0  0  0
 79154  1  0  0  0
 79155  1  0  0  0
 80156  1  0  0  0
 80157  1  0  0  0
 81 82  1  0  0  0
 81 83  1  0  0  0
 81158  1  0  0  0
 82159  1  0  0  0
 83160  1  0  0  0
M  ISO  4   1 100  68 101  80 101  83 100
M  END
> <chiral flag>
0

> <version>
0

> <s_m_source_file>
/data/baiqing/PycharmProjects/Reinvent-master-3.2/result/LINK_invent/BTK/process_docking_weight1_custom_sum_contain_oxygen_bond_distance_aromatic_linkinvent_7_9_3/rearranged_h_0127.sdf

> <i_m_source_file_index>
12

> <r_mmod_Potential_Energy-OPLS-2005>
49.6517601013184

> <r_mmod_Stretch_Energy-OPLS-2005>
89.8981781005859

> <r_mmod_Bend_Energy-OPLS-2005>
163.323486328125

> <r_mmod_Torsional_Energy-OPLS-2005>
207.400451660156

> <r_mmod_Improper_Torsional_Energy-OPLS-2005>
3.8160572052002

> <r_mmod_Van_der_Waal_Energy-OPLS-2005>
151.15771484375

> <r_mmod_Electrostatic_Energy-OPLS-2005>
-421.610778808594

> <r_mmod_Solvation_Energy-OPLS-2005>
-202.022598266602

> <b_mmod_Minimization_Converged-OPLS-2005>
0

> <r_mmod_RMS_Derivative-OPLS-2005>
1.11310970783234

$$$$
12
                    3D
 Structure written by MMmdl.
172181  0  0  1  0            999 V2000
  -30.6681  -14.4714   20.5615 C   0  0  0  0  0  0
  -30.4287  -12.3019   19.3877 C   0  0  0  0  0  0
  -29.4906  -12.5035   18.1797 C   0  0  0  0  0  0
  -28.0064  -12.3855   18.5901 C   0  0  0  0  0  0
  -27.6624  -13.1988   19.8662 C   0  0  2  0  0  0
  -28.7116  -12.9431   20.9731 C   0  0  0  0  0  0
  -25.2612  -13.8139   20.5561 C   0  0  0  0  0  0
  -24.1853  -13.0412   20.9153 C   0  0  0  0  0  0
  -24.6408  -11.6893   20.8749 C   0  0  0  0  0  0
  -23.9049  -10.4271   21.0408 C   0  0  0  0  0  0
  -24.3560   -9.4184   21.9206 C   0  0  0  0  0  0
  -23.6237   -8.2221   22.0749 C   0  0  0  0  0  0
  -22.4245   -8.0240   21.3517 C   0  0  0  0  0  0
  -21.9876   -9.0239   20.4645 C   0  0  0  0  0  0
  -22.7206  -10.2131   20.3068 C   0  0  0  0  0  0
  -21.6832   -6.0700   22.5282 C   0  0  0  0  0  0
  -21.4040   -6.5608   23.8222 C   0  0  0  0  0  0
  -21.3697   -5.6766   24.9192 C   0  0  0  0  0  0
  -21.6043   -4.3017   24.7242 C   0  0  0  0  0  0
  -21.8796   -3.8109   23.4355 C   0  0  0  0  0  0
  -21.9185   -4.6930   22.3414 C   0  0  0  0  0  0
  -22.7896  -13.5253   21.1821 C   0  0  0  0  0  0
  -22.1618   -4.2096   21.0987 F   0  0  0  0  0  0
  -21.5647   -3.4510   25.7760 F   0  0  0  0  0  0
  -30.0375  -13.2733   20.4200 N   0  0  0  0  0  0
  -26.3035  -12.9290   20.3324 N   0  0  0  0  0  0
  -25.9339  -11.6459   20.5789 N   0  0  0  0  0  0
  -22.0492  -12.8315   22.0378 N   0  0  0  0  0  0
  -25.4388  -15.1853   20.3836 N   0  0  0  0  0  0
  -31.7842  -14.7132   20.0902 O   0  0  0  0  0  0
  -21.6607   -6.8835   21.4223 O   0  0  0  0  0  0
  -22.3596  -14.5542   20.6636 O   0  0  0  0  0  0
  -24.6159  -31.8653   23.2098 C   0  0  0  0  0  0
  -25.9071  -32.4812   23.8377 C   0  0  1  0  0  0
  -27.2145  -27.4088   20.1217 C   0  0  0  0  0  0
  -25.5939  -33.8611   24.2337 N   0  0  0  0  0  0
  -23.4060  -30.4897   21.5477 C   0  0  2  0  0  0
  -24.8556  -28.9573   20.1113 C   0  0  0  0  0  0
  -22.7423  -29.4643   22.4941 C   0  0  0  0  0  0
  -18.0315  -28.1299   22.8512 C   0  0  0  0  0  0
  -24.1492  -36.7335   23.2628 C   0  0  0  0  0  0
  -25.9366  -30.8204   21.3733 C   0  0  0  0  0  0
  -26.0127  -29.4530   20.7271 C   0  0  0  0  0  0
  -27.1984  -28.6814   20.7400 C   0  0  0  0  0  0
  -26.0684  -26.9699   19.4321 C   0  0  0  0  0  0
  -24.8773  -27.7146   19.4576 C   0  0  0  0  0  0
  -23.6197  -29.8249   20.1620 C   0  0  0  0  0  0
  -25.4113  -36.3106   24.0329 C   0  0  1  0  0  0
  -20.5892  -28.3688   23.1310 C   0  0  2  0  0  0
  -20.6893  -26.9430   22.5373 C   0  0  0  0  0  0
  -19.5823  -26.6299   21.5256 C   0  0  0  0  0  0
  -18.2030  -26.7795   22.1725 C   0  0  0  0  0  0
  -19.1536  -28.8813   23.2906 C   0  0  0  0  0  0
  -18.9397  -30.1405   23.8938 C   0  0  0  0  0  0
  -17.6383  -30.6482   24.0607 C   0  0  0  0  0  0
  -25.9037  -34.9469   23.5124 C   0  0  0  0  0  0
  -16.5304  -29.8978   23.6292 C   0  0  0  0  0  0
  -16.7294  -28.6386   23.0339 C   0  0  0  0  0  0
  -26.4515  -31.6561   25.0692 C   0  0  0  0  0  0
  -25.3802  -31.3670   26.1447 C   0  0  0  0  0  0
  -27.0314  -30.2972   24.6098 C   0  0  0  0  0  0
  -27.6084  -32.4262   25.7482 C   0  0  0  0  0  0
  -27.5579  -37.1831   24.8459 C   0  0  0  0  0  0
  -21.4133  -29.3088   22.3744 N   0  0  0  0  0  0
  -26.4296  -37.3785   23.9403 N   0  0  0  0  0  0
  -24.6694  -31.0741   22.1022 N   0  0  0  0  0  0
  -23.4219  -28.8078   23.2889 O   0  0  0  0  0  0
  -28.3268  -26.6008   20.1466 O   0  0  0  0  0  0
  -26.5565  -34.8913   22.4666 O   0  0  0  0  0  0
  -23.5338  -32.1405   23.7485 O   0  0  0  0  0  0
  -26.0882  -21.5767   23.2325 C   0  0  0  0  0  0
  -27.1151  -20.6384   23.0014 C   0  0  0  0  0  0
  -28.3175  -22.2500   21.5993 C   0  0  0  0  0  0
  -26.1917  -22.8507   22.6423 C   0  0  0  0  0  0
  -27.2832  -23.1897   21.8358 C   0  0  0  0  0  0
  -28.2258  -20.9565   22.1825 C   0  0  0  0  0  0
  -25.9195  -25.1448   22.0537 C   0  0  0  0  0  0
  -27.0858  -24.5661   21.1987 C   0  0  1  0  0  0
  -25.1503  -23.9550   22.6642 C   0  0  2  0  0  0
  -23.2271  -23.6464   24.2083 C   0  0  0  0  0  0
  -25.4291  -24.2212   25.1507 C   0  0  0  0  0  0
  -29.2909  -19.8879   21.9253 C   0  0  0  0  0  0
  -28.3378  -25.5026   21.0980 C   0  0  0  0  0  0
  -30.1438  -16.8811   21.1929 C   0  0  0  0  0  0
  -28.8957  -17.6798   20.7102 C   0  0  0  0  0  0
  -29.9045  -15.4302   21.1230 N   0  0  0  0  0  0
  -29.0316  -19.1622   20.6635 N   0  3  0  0  0  0
  -24.5314  -24.3091   23.9732 N   0  3  0  0  0  0
  -31.4709  -12.4021   19.0807 H   0  0  0  0  0  0
  -30.3309  -11.2862   19.7758 H   0  0  0  0  0  0
  -29.7162  -11.7813   17.3941 H   0  0  0  0  0  0
  -29.6699  -13.4840   17.7432 H   0  0  0  0  0  0
  -27.7855  -11.3295   18.7578 H   0  0  0  0  0  0
  -27.3650  -12.6954   17.7644 H   0  0  0  0  0  0
  -27.7132  -14.2511   19.5825 H   0  0  0  0  0  0
  -28.7018  -11.8909   21.2647 H   0  0  0  0  0  0
  -28.4805  -13.4957   21.8852 H   0  0  0  0  0  0
  -25.2689   -9.5688   22.4792 H   0  0  0  0  0  0
  -23.9940   -7.4623   22.7470 H   0  0  0  0  0  0
  -21.0798   -8.8755   19.8966 H   0  0  0  0  0  0
  -22.3618  -10.9660   19.6171 H   0  0  0  0  0  0
  -21.2016   -7.6114   23.9720 H   0  0  0  0  0  0
  -21.1574   -6.0497   25.9101 H   0  0  0  0  0  0
  -22.0555   -2.7559   23.2883 H   0  0  0  0  0  0
  -22.4006  -11.9980   22.4849 H   0  0  0  0  0  0
  -21.1130  -13.1445   22.2548 H   0  0  0  0  0  0
  -24.6529  -15.8294   20.3762 H   0  0  0  0  0  0
  -26.2922  -15.6018   20.0375 H   0  0  0  0  0  0
  -26.7151  -32.5527   23.1126 H   0  0  0  0  0  0
  -25.0156  -33.9755   25.0524 H   0  0  0  0  0  0
  -22.6963  -31.3061   21.4070 H   0  0  0  0  0  0
  -23.3720  -35.9691   23.3286 H   0  0  0  0  0  0
  -24.3580  -36.8932   22.2033 H   0  0  0  0  0  0
  -23.7268  -37.6562   23.6622 H   0  0  0  0  0  0
  -26.0576  -31.5827   20.6026 H   0  0  0  0  0  0
  -26.8206  -30.8728   21.9949 H   0  0  0  0  0  0
  -28.0873  -29.0525   21.2289 H   0  0  0  0  0  0
  -26.0789  -26.0276   18.9038 H   0  0  0  0  0  0
  -23.9949  -27.3372   18.9562 H   0  0  0  0  0  0
  -23.7367  -30.6002   19.4039 H   0  0  0  0  0  0
  -22.7435  -29.2466   19.8607 H   0  0  0  0  0  0
  -25.1278  -36.1970   25.0816 H   0  0  0  0  0  0
  -20.9977  -28.3258   24.1423 H   0  0  0  0  0  0
  -20.6012  -26.2255   23.3529 H   0  0  0  0  0  0
  -21.6755  -26.7639   22.1042 H   0  0  0  0  0  0
  -19.7058  -25.6197   21.1347 H   0  0  0  0  0  0
  -19.6675  -27.3051   20.6725 H   0  0  0  0  0  0
  -17.4270  -26.6352   21.4185 H   0  0  0  0  0  0
  -18.0567  -25.9995   22.9205 H   0  0  0  0  0  0
  -19.7828  -30.7242   24.2404 H   0  0  0  0  0  0
  -17.4882  -31.6115   24.5264 H   0  0  0  0  0  0
  -15.5296  -30.2826   23.7627 H   0  0  0  0  0  0
  -15.8733  -28.0654   22.7053 H   0  0  0  0  0  0
  -24.6033  -30.6937   25.7826 H   0  0  0  0  0  0
  -24.8940  -32.2802   26.4863 H   0  0  0  0  0  0
  -25.8190  -30.8908   27.0221 H   0  0  0  0  0  0
  -26.2826  -29.6736   24.1200 H   0  0  0  0  0  0
  -27.4073  -29.7220   25.4572 H   0  0  0  0  0  0
  -27.8684  -30.4211   23.9233 H   0  0  0  0  0  0
  -27.2710  -33.3554   26.2083 H   0  0  0  0  0  0
  -28.3918  -32.6826   25.0345 H   0  0  0  0  0  0
  -28.0734  -31.8373   26.5389 H   0  0  0  0  0  0
  -28.2609  -38.0122   24.7485 H   0  0  0  0  0  0
  -28.1066  -36.2643   24.6303 H   0  0  0  0  0  0
  -27.2295  -37.1515   25.8866 H   0  0  0  0  0  0
  -20.9260  -29.8889   21.7041 H   0  0  0  0  0  0
  -26.0181  -38.2860   24.1388 H   0  0  0  0  0  0
  -25.2345  -21.3025   23.8349 H   0  0  0  0  0  0
  -27.0285  -19.6550   23.4433 H   0  0  0  0  0  0
  -29.1501  -22.4976   20.9562 H   0  0  0  0  0  0
  -25.2443  -25.8202   21.5347 H   0  0  0  0  0  0
  -26.3702  -25.7194   22.8635 H   0  0  0  0  0  0
  -26.7319  -24.3440   20.1932 H   0  0  0  0  0  0
  -24.3683  -23.6716   21.9553 H   0  0  0  0  0  0
  -22.5286  -23.8577   23.3981 H   0  0  0  0  0  0
  -22.7719  -24.0063   25.1297 H   0  0  0  0  0  0
  -23.3318  -22.5659   24.2896 H   0  0  0  0  0  0
  -26.4047  -24.6620   24.9489 H   0  0  0  0  0  0
  -25.5834  -23.1907   25.4673 H   0  0  0  0  0  0
  -25.0018  -24.7618   25.9943 H   0  0  0  0  0  0
  -29.3446  -19.2084   22.7775 H   0  0  0  0  0  0
  -30.2732  -20.3559   21.8540 H   0  0  0  0  0  0
  -28.6154  -25.8738   22.0833 H   0  0  0  0  0  0
  -29.1837  -24.8919   20.7864 H   0  0  0  0  0  0
  -30.3897  -17.1146   22.2290 H   0  0  0  0  0  0
  -31.0029  -17.1609   20.5850 H   0  0  0  0  0  0
  -28.0147  -17.4271   21.2980 H   0  0  0  0  0  0
  -28.6653  -17.3685   19.6893 H   0  0  0  0  0  0
  -29.0146  -15.1048   21.4710 H   0  0  0  0  0  0
  -29.7293  -19.4336   19.9912 H   0  0  0  0  0  0
  -28.1591  -19.5244   20.3141 H   0  0  0  0  0  0
  -24.3001  -25.2868   23.8850 H   0  0  0  0  0  0
  1 25  1  0  0  0
  1 30  2  0  0  0
  1 86  1  0  0  0
  2  3  1  0  0  0
  2 25  1  0  0  0
  2 89  1  0  0  0
  2 90  1  0  0  0
  3  4  1  0  0  0
  3 91  1  0  0  0
  3 92  1  0  0  0
  4  5  1  0  0  0
  4 93  1  0  0  0
  4 94  1  0  0  0
  5  6  1  0  0  0
  5 26  1  0  0  0
  5 95  1  0  0  0
  6 25  1  0  0  0
  6 96  1  0  0  0
  6 97  1  0  0  0
  7  8  2  0  0  0
  7 26  1  0  0  0
  7 29  1  0  0  0
  8  9  1  0  0  0
  8 22  1  0  0  0
  9 10  1  0  0  0
  9 27  2  0  0  0
 10 11  2  0  0  0
 10 15  1  0  0  0
 11 12  1  0  0  0
 11 98  1  0  0  0
 12 13  2  0  0  0
 12 99  1  0  0  0
 13 14  1  0  0  0
 13 31  1  0  0  0
 14 15  2  0  0  0
 14100  1  0  0  0
 15101  1  0  0  0
 16 17  2  0  0  0
 16 21  1  0  0  0
 16 31  1  0  0  0
 17 18  1  0  0  0
 17102  1  0  0  0
 18 19  2  0  0  0
 18103  1  0  0  0
 19 20  1  0  0  0
 19 24  1  0  0  0
 20 21  2  0  0  0
 20104  1  0  0  0
 21 23  1  0  0  0
 22 28  1  0  0  0
 22 32  2  0  0  0
 26 27  1  0  0  0
 28105  1  0  0  0
 28106  1  0  0  0
 29107  1  0  0  0
 29108  1  0  0  0
 33 34  1  0  0  0
 33 66  1  0  0  0
 33 70  2  0  0  0
 34 36  1  0  0  0
 34 59  1  0  0  0
 34109  1  0  0  0
 35 44  2  0  0  0
 35 45  1  0  0  0
 35 68  1  0  0  0
 36 56  1  0  0  0
 36110  1  0  0  0
 37 39  1  0  0  0
 37 47  1  0  0  0
 37 66  1  0  0  0
 37111  1  0  0  0
 38 43  2  0  0  0
 38 46  1  0  0  0
 38 47  1  0  0  0
 39 64  1  0  0  0
 39 67  2  0  0  0
 40 52  1  0  0  0
 40 53  2  0  0  0
 40 58  1  0  0  0
 41112  1  0  0  0
 41113  1  0  0  0
 41114  1  0  0  0
 41 48  1  0  0  0
 42 43  1  0  0  0
 42 66  1  0  0  0
 42115  1  0  0  0
 42116  1  0  0  0
 43 44  1  0  0  0
 44117  1  0  0  0
 45 46  2  0  0  0
 45118  1  0  0  0
 46119  1  0  0  0
 47120  1  0  0  0
 47121  1  0  0  0
 48 56  1  0  0  0
 48 65  1  0  0  0
 48122  1  0  0  0
 49 50  1  0  0  0
 49 53  1  0  0  0
 49 64  1  0  0  0
 49123  1  0  0  0
 50 51  1  0  0  0
 50124  1  0  0  0
 50125  1  0  0  0
 51 52  1  0  0  0
 51126  1  0  0  0
 51127  1  0  0  0
 52128  1  0  0  0
 52129  1  0  0  0
 53 54  1  0  0  0
 54 55  2  0  0  0
 54130  1  0  0  0
 55 57  1  0  0  0
 55131  1  0  0  0
 56 69  2  0  0  0
 57 58  2  0  0  0
 57132  1  0  0  0
 58133  1  0  0  0
 59 60  1  0  0  0
 59 61  1  0  0  0
 59 62  1  0  0  0
 60134  1  0  0  0
 60135  1  0  0  0
 60136  1  0  0  0
 61137  1  0  0  0
 61138  1  0  0  0
 61139  1  0  0  0
 62140  1  0  0  0
 62141  1  0  0  0
 62142  1  0  0  0
 63 65  1  0  0  0
 63143  1  0  0  0
 63144  1  0  0  0
 63145  1  0  0  0
 64146  1  0  0  0
 65147  1  0  0  0
 68 83  1  0  0  0
 71 72  2  0  0  0
 71 74  1  0  0  0
 71148  1  0  0  0
 72 76  1  0  0  0
 72149  1  0  0  0
 73 75  1  0  0  0
 73 76  2  0  0  0
 73150  1  0  0  0
 74 75  2  0  0  0
 74 79  1  0  0  0
 75 78  1  0  0  0
 76 82  1  0  0  0
 77 78  1  0  0  0
 77151  1  0  0  0
 77152  1  0  0  0
 77 79  1  0  0  0
 78 83  1  0  0  0
 78153  1  0  0  0
 79 88  1  0  0  0
 79154  1  0  0  0
 80155  1  0  0  0
 80156  1  0  0  0
 80157  1  0  0  0
 80 88  1  0  0  0
 81 88  1  0  0  0
 81158  1  0  0  0
 81159  1  0  0  0
 81160  1  0  0  0
 82 87  1  0  0  0
 82161  1  0  0  0
 82162  1  0  0  0
 83163  1  0  0  0
 83164  1  0  0  0
 84 85  1  0  0  0
 84 86  1  0  0  0
 84165  1  0  0  0
 84166  1  0  0  0
 85 87  1  0  0  0
 85167  1  0  0  0
 85168  1  0  0  0
 86169  1  0  0  0
 87170  1  0  0  0
 87171  1  0  0  0
 88172  1  0  0  0
M  CHG  2  87   1  88   1
M  ISO  4   1 100  68 101  83 101  86 100
M  END
> <chiral flag>
0

> <version>
0

> <s_m_source_file>
/data/baiqing/PycharmProjects/Reinvent-master-3.2/result/LINK_invent/BTK/process_docking_weight1_custom_sum_contain_oxygen_bond_distance_aromatic_linkinvent_7_9_3/rearranged_h_0127.sdf

> <i_m_source_file_index>
13

> <r_mmod_Potential_Energy-OPLS-2005>
-381.647033691406

> <r_mmod_Stretch_Energy-OPLS-2005>
42.3714370727539

> <r_mmod_Bend_Energy-OPLS-2005>
164.420196533203

> <r_mmod_Torsional_Energy-OPLS-2005>
241.204696655273

> <r_mmod_Improper_Torsional_Energy-OPLS-2005>
4.84031438827515

> <r_mmod_Van_der_Waal_Energy-OPLS-2005>
135.680847167969

> <r_mmod_Electrostatic_Energy-OPLS-2005>
-101.90885925293

> <r_mmod_Solvation_Energy-OPLS-2005>
-886.517211914062

> <b_mmod_Minimization_Converged-OPLS-2005>
0

> <r_mmod_RMS_Derivative-OPLS-2005>
5.65557670593262

$$$$
13
                    3D
 Structure written by MMmdl.
148157  0  0  1  0            999 V2000
  -30.4325  -15.3564   20.3448 C   0  0  0  0  0  0
  -30.4265  -12.8710   19.5326 C   0  0  0  0  0  0
  -29.5341  -12.5897   18.2974 C   0  0  0  0  0  0
  -28.0911  -12.2929   18.7334 C   0  0  0  0  0  0
  -27.6037  -13.2848   19.8172 C   0  0  2  0  0  0
  -28.6323  -13.5168   20.9464 C   0  0  0  0  0  0
  -25.2356  -13.8262   20.5764 C   0  0  0  0  0  0
  -24.1722  -13.0436   20.9271 C   0  0  0  0  0  0
  -24.6393  -11.6939   20.8769 C   0  0  0  0  0  0
  -23.9096  -10.4291   21.0406 C   0  0  0  0  0  0
  -24.3640   -9.4204   21.9185 C   0  0  0  0  0  0
  -23.6306   -8.2243   22.0754 C   0  0  0  0  0  0
  -22.4286   -8.0286   21.3548 C   0  0  0  0  0  0
  -21.9927   -9.0261   20.4648 C   0  0  0  0  0  0
  -22.7265  -10.2134   20.3056 C   0  0  0  0  0  0
  -21.6856   -6.0743   22.5280 C   0  0  0  0  0  0
  -21.4019   -6.5646   23.8216 C   0  0  0  0  0  0
  -21.3658   -5.6796   24.9176 C   0  0  0  0  0  0
  -21.6042   -4.3059   24.7224 C   0  0  0  0  0  0
  -21.8819   -3.8153   23.4346 C   0  0  0  0  0  0
  -21.9193   -4.6971   22.3403 C   0  0  0  0  0  0
  -22.7737  -13.5179   21.1910 C   0  0  0  0  0  0
  -22.1660   -4.2155   21.0980 F   0  0  0  0  0  0
  -21.5622   -3.4542   25.7737 F   0  0  0  0  0  0
  -29.8516  -14.0434   20.3065 N   0  0  0  0  0  0
  -26.2784  -12.9553   20.3221 N   0  0  0  0  0  0
  -25.9333  -11.6648   20.5725 N   0  0  0  0  0  0
  -22.0396  -12.8166   22.0466 N   0  0  0  0  0  0
  -25.3978  -15.1999   20.4196 N   0  0  0  0  0  0
  -31.6609  -15.2697   20.1660 O   0  0  0  0  0  0
  -21.6642   -6.8889   21.4245 O   0  0  0  0  0  0
  -22.3419  -14.5480   20.6745 O   0  0  0  0  0  0
  -24.6675  -31.8176   23.1654 C   0  0  0  0  0  0
  -25.9335  -32.4555   23.8137 C   0  0  1  0  0  0
  -27.2181  -26.8753   20.1905 C   0  0  0  0  0  0
  -25.5983  -33.8371   24.2036 N   0  0  0  0  0  0
  -23.4847  -30.4268   21.5157 C   0  0  2  0  0  0
  -24.9389  -28.8030   20.1114 C   0  0  0  0  0  0
  -22.7691  -29.4408   22.4761 C   0  0  0  0  0  0
  -18.0325  -28.1411   22.8463 C   0  0  0  0  0  0
  -24.1493  -36.7193   23.2648 C   0  0  0  0  0  0
  -26.0565  -30.6071   21.4037 C   0  0  0  0  0  0
  -26.1236  -29.1912   20.7489 C   0  0  0  0  0  0
  -27.2556  -28.2497   20.7615 C   0  0  0  0  0  0
  -26.0050  -26.6524   19.5002 C   0  0  0  0  0  0
  -24.9082  -27.5558   19.4654 C   0  0  0  0  0  0
  -23.7275  -29.7376   20.1438 C   0  0  0  0  0  0
  -25.4136  -36.2944   24.0292 C   0  0  1  0  0  0
  -20.5953  -28.3759   23.1175 C   0  0  2  0  0  0
  -20.6799  -26.9435   22.5402 C   0  0  0  0  0  0
  -19.5773  -26.6375   21.5214 C   0  0  0  0  0  0
  -18.1956  -26.7943   22.1620 C   0  0  0  0  0  0
  -19.1588  -28.8907   23.2804 C   0  0  0  0  0  0
  -18.9499  -30.1495   23.8841 C   0  0  0  0  0  0
  -17.6491  -30.6598   24.0554 C   0  0  0  0  0  0
  -25.9108  -34.9330   23.4990 C   0  0  0  0  0  0
  -16.5381  -29.9084   23.6344 C   0  0  0  0  0  0
  -16.7307  -28.6506   23.0362 C   0  0  0  0  0  0
  -26.4568  -31.6524   25.0691 C   0  0  0  0  0  0
  -25.3681  -31.3793   26.1339 C   0  0  0  0  0  0
  -27.0480  -30.2884   24.6472 C   0  0  0  0  0  0
  -27.6043  -32.4352   25.7502 C   0  0  0  0  0  0
  -27.5567  -37.1751   24.8465 C   0  0  0  0  0  0
  -21.4355  -29.3038   22.3517 N   0  0  0  0  0  0
  -26.4275  -37.3688   23.9409 N   0  0  0  0  0  0
  -24.7580  -30.9792   22.0814 N   0  0  0  0  0  0
  -23.4215  -28.7986   23.3029 O   0  0  0  0  0  0
  -28.2079  -25.7427   20.2807 O   0  0  0  0  0  0
  -26.5728  -34.8878   22.4592 O   0  0  0  0  0  0
  -23.5734  -32.1169   23.6718 O   0  0  0  0  0  0
  -32.1399  -19.3157   19.4366 C   0  0  0  0  0  0
  -29.6089  -19.7653   20.1789 C   0  0  0  0  0  0
  -30.4935  -20.8080   19.7760 C   0  0  0  0  0  0
  -30.1417  -18.2555   20.1570 C   0  0  0  0  0  0
  -28.3544  -20.8197   20.4850 C   0  0  0  0  0  0
  -28.8245  -22.5002   20.4479 C   0  0  2  0  0  0
  -27.9776  -24.0959   20.0583 C   0  0  0  0  0  0
  -31.7459  -20.5769   19.4135 N   0  0  0  0  0  0
  -31.4340  -18.2411   19.7660 N   0  0  0  0  0  0
  -30.0779  -22.1875   19.7314 N   0  0  0  0  0  0
  -29.7208  -16.6928   20.4042 N   0  0  0  0  0  0
  -31.4437  -13.0674   19.1920 H   0  0  0  0  0  0
  -30.5037  -11.9850   20.1653 H   0  0  0  0  0  0
  -29.9332  -11.7555   17.7191 H   0  0  0  0  0  0
  -29.5453  -13.4571   17.6355 H   0  0  0  0  0  0
  -28.0714  -11.2787   19.1344 H   0  0  0  0  0  0
  -27.4200  -12.2961   17.8737 H   0  0  0  0  0  0
  -27.5006  -14.2347   19.2911 H   0  0  0  0  0  0
  -28.8217  -12.6034   21.5122 H   0  0  0  0  0  0
  -28.2524  -14.2505   21.6592 H   0  0  0  0  0  0
  -25.2781   -9.5678   22.4770 H   0  0  0  0  0  0
  -24.0014   -7.4631   22.7473 H   0  0  0  0  0  0
  -21.0860   -8.8786   19.8953 H   0  0  0  0  0  0
  -22.3725  -10.9678   19.6171 H   0  0  0  0  0  0
  -21.2018   -7.6154   23.9723 H   0  0  0  0  0  0
  -21.1474   -6.0523   25.9078 H   0  0  0  0  0  0
  -22.0597   -2.7615   23.2841 H   0  0  0  0  0  0
  -22.4031  -11.9843   22.4870 H   0  0  0  0  0  0
  -21.1004  -13.1168   22.2659 H   0  0  0  0  0  0
  -24.6235  -15.8459   20.5295 H   0  0  0  0  0  0
  -26.2319  -15.6414   20.0563 H   0  0  0  0  0  0
  -26.7406  -32.5072   23.0851 H   0  0  0  0  0  0
  -25.0068  -33.9438   25.0145 H   0  0  0  0  0  0
  -22.8006  -31.2595   21.3404 H   0  0  0  0  0  0
  -23.3768  -35.9511   23.3271 H   0  0  0  0  0  0
  -24.3570  -36.8885   22.2071 H   0  0  0  0  0  0
  -23.7240  -37.6362   23.6739 H   0  0  0  0  0  0
  -26.2433  -31.3449   20.6221 H   0  0  0  0  0  0
  -26.9143  -30.6657   22.0619 H   0  0  0  0  0  0
  -28.1503  -28.5457   21.2908 H   0  0  0  0  0  0
  -25.8693  -25.6999   19.0084 H   0  0  0  0  0  0
  -24.0097  -27.2524   18.9455 H   0  0  0  0  0  0
  -23.8871  -30.5039   19.3844 H   0  0  0  0  0  0
  -22.8360  -29.1948   19.8248 H   0  0  0  0  0  0
  -25.1338  -36.1728   25.0783 H   0  0  0  0  0  0
  -21.0038  -28.3374   24.1299 H   0  0  0  0  0  0
  -20.5673  -26.2380   23.3651 H   0  0  0  0  0  0
  -21.6663  -26.7402   22.1212 H   0  0  0  0  0  0
  -19.6933  -25.6271   21.1280 H   0  0  0  0  0  0
  -19.6712  -27.3154   20.6719 H   0  0  0  0  0  0
  -17.4224  -26.6682   21.4026 H   0  0  0  0  0  0
  -18.0351  -26.0099   22.9031 H   0  0  0  0  0  0
  -19.7974  -30.7328   24.2184 H   0  0  0  0  0  0
  -17.5042  -31.6271   24.5169 H   0  0  0  0  0  0
  -15.5378  -30.2969   23.7699 H   0  0  0  0  0  0
  -15.8708  -28.0807   22.7108 H   0  0  0  0  0  0
  -24.5880  -30.7126   25.7648 H   0  0  0  0  0  0
  -24.8853  -32.3000   26.4622 H   0  0  0  0  0  0
  -25.7899  -30.9053   27.0210 H   0  0  0  0  0  0
  -26.3162  -29.6540   24.1459 H   0  0  0  0  0  0
  -27.3969  -29.7274   25.5152 H   0  0  0  0  0  0
  -27.9118  -30.4050   23.9926 H   0  0  0  0  0  0
  -27.2597  -33.3703   26.1931 H   0  0  0  0  0  0
  -28.3932  -32.6836   25.0389 H   0  0  0  0  0  0
  -28.0628  -31.8582   26.5542 H   0  0  0  0  0  0
  -28.2557  -38.0071   24.7515 H   0  0  0  0  0  0
  -28.1088  -36.2596   24.6289 H   0  0  0  0  0  0
  -27.2284  -37.1388   25.8867 H   0  0  0  0  0  0
  -20.9622  -29.8719   21.6629 H   0  0  0  0  0  0
  -26.0115  -38.2741   24.1424 H   0  0  0  0  0  0
  -33.1628  -19.1349   19.1429 H   0  0  0  0  0  0
  -27.8862  -20.5784   21.4401 H   0  0  0  0  0  0
  -27.5945  -20.6489   19.7210 H   0  0  0  0  0  0
  -29.1587  -22.6768   21.4714 H   0  0  0  0  0  0
  -27.0037  -23.9608   20.5294 H   0  0  0  0  0  0
  -27.7560  -24.0243   18.9933 H   0  0  0  0  0  0
  -30.7902  -22.9040   19.6427 H   0  0  0  0  0  0
  -28.7349  -16.5829   20.5818 H   0  0  0  0  0  0
  1 25  1  0  0  0
  1 30  2  0  0  0
  1 81  1  0  0  0
  2  3  1  0  0  0
  2 25  1  0  0  0
  2 82  1  0  0  0
  2 83  1  0  0  0
  3  4  1  0  0  0
  3 84  1  0  0  0
  3 85  1  0  0  0
  4  5  1  0  0  0
  4 86  1  0  0  0
  4 87  1  0  0  0
  5  6  1  0  0  0
  5 26  1  0  0  0
  5 88  1  0  0  0
  6 25  1  0  0  0
  6 89  1  0  0  0
  6 90  1  0  0  0
  7  8  2  0  0  0
  7 26  1  0  0  0
  7 29  1  0  0  0
  8  9  1  0  0  0
  8 22  1  0  0  0
  9 10  1  0  0  0
  9 27  2  0  0  0
 10 11  2  0  0  0
 10 15  1  0  0  0
 11 12  1  0  0  0
 11 91  1  0  0  0
 12 13  2  0  0  0
 12 92  1  0  0  0
 13 14  1  0  0  0
 13 31  1  0  0  0
 14 15  2  0  0  0
 14 93  1  0  0  0
 15 94  1  0  0  0
 16 17  2  0  0  0
 16 21  1  0  0  0
 16 31  1  0  0  0
 17 18  1  0  0  0
 17 95  1  0  0  0
 18 19  2  0  0  0
 18 96  1  0  0  0
 19 20  1  0  0  0
 19 24  1  0  0  0
 20 21  2  0  0  0
 20 97  1  0  0  0
 21 23  1  0  0  0
 22 28  1  0  0  0
 22 32  2  0  0  0
 26 27  1  0  0  0
 28 98  1  0  0  0
 28 99  1  0  0  0
 29100  1  0  0  0
 29101  1  0  0  0
 33 34  1  0  0  0
 33 66  1  0  0  0
 33 70  2  0  0  0
 34 36  1  0  0  0
 34 59  1  0  0  0
 34102  1  0  0  0
 35 44  2  0  0  0
 35 45  1  0  0  0
 35 68  1  0  0  0
 36 56  1  0  0  0
 36103  1  0  0  0
 37 39  1  0  0  0
 37 47  1  0  0  0
 37 66  1  0  0  0
 37104  1  0  0  0
 38 43  2  0  0  0
 38 46  1  0  0  0
 38 47  1  0  0  0
 39 64  1  0  0  0
 39 67  2  0  0  0
 40 52  1  0  0  0
 40 53  2  0  0  0
 40 58  1  0  0  0
 41105  1  0  0  0
 41106  1  0  0  0
 41107  1  0  0  0
 41 48  1  0  0  0
 42 43  1  0  0  0
 42 66  1  0  0  0
 42108  1  0  0  0
 42109  1  0  0  0
 43 44  1  0  0  0
 44110  1  0  0  0
 45 46  2  0  0  0
 45111  1  0  0  0
 46112  1  0  0  0
 47113  1  0  0  0
 47114  1  0  0  0
 48 56  1  0  0  0
 48 65  1  0  0  0
 48115  1  0  0  0
 49 50  1  0  0  0
 49 53  1  0  0  0
 49 64  1  0  0  0
 49116  1  0  0  0
 50 51  1  0  0  0
 50117  1  0  0  0
 50118  1  0  0  0
 51 52  1  0  0  0
 51119  1  0  0  0
 51120  1  0  0  0
 52121  1  0  0  0
 52122  1  0  0  0
 53 54  1  0  0  0
 54 55  2  0  0  0
 54123  1  0  0  0
 55 57  1  0  0  0
 55124  1  0  0  0
 56 69  2  0  0  0
 57 58  2  0  0  0
 57125  1  0  0  0
 58126  1  0  0  0
 59 60  1  0  0  0
 59 61  1  0  0  0
 59 62  1  0  0  0
 60127  1  0  0  0
 60128  1  0  0  0
 60129  1  0  0  0
 61130  1  0  0  0
 61131  1  0  0  0
 61132  1  0  0  0
 62133  1  0  0  0
 62134  1  0  0  0
 62135  1  0  0  0
 63 65  1  0  0  0
 63136  1  0  0  0
 63137  1  0  0  0
 63138  1  0  0  0
 64139  1  0  0  0
 65140  1  0  0  0
 68 77  1  0  0  0
 71 78  2  0  0  0
 71 79  1  0  0  0
 71141  1  0  0  0
 72 73  2  0  0  0
 72 74  1  0  0  0
 72 75  1  0  0  0
 73 78  1  0  0  0
 73 80  1  0  0  0
 74 79  2  0  0  0
 74 81  1  0  0  0
 75 76  1  0  0  0
 75142  1  0  0  0
 75143  1  0  0  0
 76 77  1  0  0  0
 76 80  1  0  0  0
 76144  1  0  0  0
 77145  1  0  0  0
 77146  1  0  0  0
 80147  1  0  0  0
 81148  1  0  0  0
M  ISO  4   1 100  68 101  77 101  81 100
M  END
> <chiral flag>
0

> <version>
0

> <s_m_source_file>
/data/baiqing/PycharmProjects/Reinvent-master-3.2/result/LINK_invent/BTK/process_docking_weight1_custom_sum_contain_oxygen_bond_distance_aromatic_linkinvent_7_9_3/rearranged_h_0127.sdf

> <i_m_source_file_index>
14

> <r_mmod_Potential_Energy-OPLS-2005>
1148.08984375

> <r_mmod_Stretch_Energy-OPLS-2005>
661.658996582031

> <r_mmod_Bend_Energy-OPLS-2005>
629.558959960938

> <r_mmod_Torsional_Energy-OPLS-2005>
214.863525390625

> <r_mmod_Improper_Torsional_Energy-OPLS-2005>
5.49441957473755

> <r_mmod_Van_der_Waal_Energy-OPLS-2005>
134.951385498047

> <r_mmod_Electrostatic_Energy-OPLS-2005>
-781.735229492188

> <r_mmod_Solvation_Energy-OPLS-2005>
-262.139801025391

> <b_mmod_Minimization_Converged-OPLS-2005>
0

> <r_mmod_RMS_Derivative-OPLS-2005>
0.629780828952789

$$$$
14
                    3D
 Structure written by MMmdl.
152160  0  0  1  0            999 V2000
  -30.6354  -14.7758   20.4778 C   0  0  0  0  0  0
  -30.4351  -12.4816   19.4884 C   0  0  0  0  0  0
  -29.5179  -12.4982   18.2454 C   0  0  0  0  0  0
  -28.0382  -12.3361   18.6512 C   0  0  0  0  0  0
  -27.6372  -13.2432   19.8472 C   0  0  2  0  0  0
  -28.6834  -13.1895   20.9809 C   0  0  0  0  0  0
  -25.2460  -13.8242   20.5718 C   0  0  0  0  0  0
  -24.1753  -13.0431   20.9262 C   0  0  0  0  0  0
  -24.6376  -11.6930   20.8788 C   0  0  0  0  0  0
  -23.9088  -10.4300   21.0443 C   0  0  0  0  0  0
  -24.3645   -9.4200   21.9211 C   0  0  0  0  0  0
  -23.6332   -8.2229   22.0759 C   0  0  0  0  0  0
  -22.4321   -8.0287   21.3555 C   0  0  0  0  0  0
  -21.9938   -9.0274   20.4664 C   0  0  0  0  0  0
  -22.7277  -10.2153   20.3086 C   0  0  0  0  0  0
  -21.6838   -6.0761   22.5286 C   0  0  0  0  0  0
  -21.4012   -6.5659   23.8228 C   0  0  0  0  0  0
  -21.3662   -5.6804   24.9173 C   0  0  0  0  0  0
  -21.6041   -4.3067   24.7213 C   0  0  0  0  0  0
  -21.8811   -3.8168   23.4324 C   0  0  0  0  0  0
  -21.9170   -4.6990   22.3393 C   0  0  0  0  0  0
  -22.7767  -13.5231   21.1871 C   0  0  0  0  0  0
  -22.1628   -4.2183   21.0956 F   0  0  0  0  0  0
  -21.5642   -3.4533   25.7724 F   0  0  0  0  0  0
  -29.9807  -13.5599   20.4007 N   0  0  0  0  0  0
  -26.2890  -12.9482   20.3283 N   0  0  0  0  0  0
  -25.9293  -11.6611   20.5746 N   0  0  0  0  0  0
  -22.0339  -12.8264   22.0433 N   0  0  0  0  0  0
  -25.4092  -15.1951   20.4101 N   0  0  0  0  0  0
  -31.8220  -14.8387   20.1560 O   0  0  0  0  0  0
  -21.6634   -6.8912   21.4262 O   0  0  0  0  0  0
  -22.3453  -14.5529   20.6707 O   0  0  0  0  0  0
  -24.6306  -31.8542   23.1983 C   0  0  0  0  0  0
  -25.9128  -32.4746   23.8338 C   0  0  1  0  0  0
  -27.2566  -27.2690   20.1479 C   0  0  0  0  0  0
  -25.5921  -33.8556   24.2255 N   0  0  0  0  0  0
  -23.4292  -30.4754   21.5386 C   0  0  2  0  0  0
  -24.8893  -28.9188   20.1138 C   0  0  0  0  0  0
  -22.7500  -29.4582   22.4874 C   0  0  0  0  0  0
  -18.0282  -28.1406   22.8454 C   0  0  0  0  0  0
  -24.1491  -36.7272   23.2633 C   0  0  0  0  0  0
  -25.9750  -30.7693   21.3804 C   0  0  0  0  0  0
  -26.0547  -29.3906   20.7259 C   0  0  0  0  0  0
  -27.2330  -28.5787   20.7351 C   0  0  0  0  0  0
  -26.0657  -26.8654   19.4912 C   0  0  0  0  0  0
  -24.8973  -27.6601   19.4911 C   0  0  0  0  0  0
  -23.6566  -29.8056   20.1562 C   0  0  0  0  0  0
  -25.4108  -36.3049   24.0316 C   0  0  1  0  0  0
  -20.5887  -28.3702   23.1250 C   0  0  2  0  0  0
  -20.6788  -26.9411   22.5401 C   0  0  0  0  0  0
  -19.5774  -26.6377   21.5204 C   0  0  0  0  0  0
  -18.1940  -26.7930   22.1605 C   0  0  0  0  0  0
  -19.1536  -28.8855   23.2839 C   0  0  0  0  0  0
  -18.9469  -30.1466   23.8867 C   0  0  0  0  0  0
  -17.6482  -30.6599   24.0544 C   0  0  0  0  0  0
  -25.9047  -34.9425   23.5091 C   0  0  0  0  0  0
  -16.5363  -29.9115   23.6327 C   0  0  0  0  0  0
  -16.7271  -28.6528   23.0315 C   0  0  0  0  0  0
  -26.4498  -31.6590   25.0738 C   0  0  0  0  0  0
  -25.3723  -31.3762   26.1467 C   0  0  0  0  0  0
  -27.0370  -30.3013   24.6248 C   0  0  0  0  0  0
  -27.6055  -32.4323   25.7516 C   0  0  0  0  0  0
  -27.5566  -37.1774   24.8447 C   0  0  0  0  0  0
  -21.4188  -29.3040   22.3629 N   0  0  0  0  0  0
  -26.4263  -37.3760   23.9417 N   0  0  0  0  0  0
  -24.6969  -31.0513   22.0958 N   0  0  0  0  0  0
  -23.4181  -28.8104   23.2961 O   0  0  0  0  0  0
  -28.3820  -26.4067   20.2685 O   0  0  0  0  0  0
  -26.5616  -34.8902   22.4643 O   0  0  0  0  0  0
  -23.5452  -32.1349   23.7270 O   0  0  0  0  0  0
  -30.6113  -21.8081   22.0561 C   0  0  0  0  0  0
  -29.2262  -22.4372   20.1768 C   0  0  0  0  0  0
  -30.5408  -23.1553   22.4992 C   0  0  0  0  0  0
  -29.9543  -21.3933   20.8686 C   0  0  0  0  0  0
  -29.1551  -23.8102   20.6530 C   0  0  0  0  0  0
  -28.2712  -24.9380   19.9498 C   0  0  0  0  0  0
  -29.5795  -18.7416   20.7857 C   0  0  0  0  0  0
  -30.4707  -17.3909   20.5402 C   0  0  0  0  0  0
  -29.8312  -24.0847   21.8017 N   0  3  0  0  0  0
  -30.1822  -20.0607   20.3375 N   0  0  0  0  0  0
  -29.9310  -15.9580   20.7060 N   0  0  0  0  0  0
  -31.4754  -12.6110   19.1862 H   0  0  0  0  0  0
  -30.3941  -11.5160   19.9936 H   0  0  0  0  0  0
  -29.8059  -11.6976   17.5619 H   0  0  0  0  0  0
  -29.6510  -13.4280   17.6897 H   0  0  0  0  0  0
  -27.8896  -11.2920   18.9246 H   0  0  0  0  0  0
  -27.3889  -12.5201   17.7956 H   0  0  0  0  0  0
  -27.6322  -14.2623   19.4607 H   0  0  0  0  0  0
  -28.7213  -12.1865   21.4090 H   0  0  0  0  0  0
  -28.4103  -13.8569   21.7992 H   0  0  0  0  0  0
  -25.2759   -9.5683   22.4798 H   0  0  0  0  0  0
  -24.0023   -7.4615   22.7485 H   0  0  0  0  0  0
  -21.0850   -8.8832   19.8991 H   0  0  0  0  0  0
  -22.3727  -10.9721   19.6222 H   0  0  0  0  0  0
  -21.2021   -7.6162   23.9754 H   0  0  0  0  0  0
  -21.1501   -6.0506   25.9082 H   0  0  0  0  0  0
  -22.0589   -2.7633   23.2785 H   0  0  0  0  0  0
  -22.3921  -11.9977   22.4958 H   0  0  0  0  0  0
  -21.0965  -13.1384   22.2610 H   0  0  0  0  0  0
  -24.6424  -15.8460   20.5354 H   0  0  0  0  0  0
  -26.2471  -15.6386   20.0536 H   0  0  0  0  0  0
  -26.7183  -32.5413   23.1075 H   0  0  0  0  0  0
  -25.0074  -33.9718   25.0403 H   0  0  0  0  0  0
  -22.7234  -31.2950   21.3881 H   0  0  0  0  0  0
  -23.3751  -35.9607   23.3279 H   0  0  0  0  0  0
  -24.3587  -36.8922   22.2054 H   0  0  0  0  0  0
  -23.7279  -37.6473   23.6678 H   0  0  0  0  0  0
  -26.1104  -31.5259   20.6066 H   0  0  0  0  0  0
  -26.8521  -30.8214   22.0135 H   0  0  0  0  0  0
  -28.1195  -28.9322   21.2409 H   0  0  0  0  0  0
  -25.9968  -25.9114   18.9886 H   0  0  0  0  0  0
  -24.0008  -27.2879   19.0151 H   0  0  0  0  0  0
  -23.7925  -30.5854   19.4063 H   0  0  0  0  0  0
  -22.7746  -29.2483   19.8372 H   0  0  0  0  0  0
  -25.1298  -36.1867   25.0809 H   0  0  0  0  0  0
  -20.9957  -28.3310   24.1382 H   0  0  0  0  0  0
  -20.5711  -26.2302   23.3602 H   0  0  0  0  0  0
  -21.6661  -26.7468   22.1195 H   0  0  0  0  0  0
  -19.6952  -25.6283   21.1249 H   0  0  0  0  0  0
  -19.6750  -27.3168   20.6716 H   0  0  0  0  0  0
  -17.4206  -26.6604   21.4016 H   0  0  0  0  0  0
  -18.0382  -26.0116   22.9056 H   0  0  0  0  0  0
  -19.7954  -30.7255   24.2233 H   0  0  0  0  0  0
  -17.5055  -31.6287   24.5160 H   0  0  0  0  0  0
  -15.5366  -30.3012   23.7704 H   0  0  0  0  0  0
  -15.8653  -28.0884   22.7023 H   0  0  0  0  0  0
  -24.5878  -30.7130   25.7810 H   0  0  0  0  0  0
  -24.8936  -32.2950   26.4865 H   0  0  0  0  0  0
  -25.8043  -30.8961   27.0255 H   0  0  0  0  0  0
  -26.2993  -29.6731   24.1247 H   0  0  0  0  0  0
  -27.4024  -29.7309   25.4793 H   0  0  0  0  0  0
  -27.8863  -30.4296   23.9537 H   0  0  0  0  0  0
  -27.2666  -33.3613   26.2098 H   0  0  0  0  0  0
  -28.3868  -32.6882   25.0353 H   0  0  0  0  0  0
  -28.0704  -31.8433   26.5427 H   0  0  0  0  0  0
  -28.2529  -38.0112   24.7511 H   0  0  0  0  0  0
  -28.1093  -36.2635   24.6224 H   0  0  0  0  0  0
  -27.2269  -37.1380   25.8839 H   0  0  0  0  0  0
  -20.9362  -29.8777   21.6859 H   0  0  0  0  0  0
  -26.0115  -38.2800   24.1494 H   0  0  0  0  0  0
  -31.2140  -21.1153   22.6327 H   0  0  0  0  0  0
  -28.7253  -22.1909   19.2493 H   0  0  0  0  0  0
  -31.0466  -23.5112   23.3954 H   0  0  0  0  0  0
  -27.2555  -24.6069   20.1555 H   0  0  0  0  0  0
  -28.4225  -24.8224   18.8748 H   0  0  0  0  0  0
  -29.3029  -18.8384   21.8388 H   0  0  0  0  0  0
  -28.6435  -18.6427   20.2279 H   0  0  0  0  0  0
  -31.3586  -17.4745   21.1684 H   0  0  0  0  0  0
  -30.8449  -17.4312   19.5177 H   0  0  0  0  0  0
  -29.8127  -25.0399   22.1730 H   0  0  0  0  0  0
  -31.1458  -19.9580   20.0289 H   0  0  0  0  0  0
  -28.9485  -15.8736   20.9208 H   0  0  0  0  0  0
  1 25  1  0  0  0
  1 30  2  0  0  0
  1 81  1  0  0  0
  2  3  1  0  0  0
  2 25  1  0  0  0
  2 82  1  0  0  0
  2 83  1  0  0  0
  3  4  1  0  0  0
  3 84  1  0  0  0
  3 85  1  0  0  0
  4  5  1  0  0  0
  4 86  1  0  0  0
  4 87  1  0  0  0
  5  6  1  0  0  0
  5 26  1  0  0  0
  5 88  1  0  0  0
  6 25  1  0  0  0
  6 89  1  0  0  0
  6 90  1  0  0  0
  7  8  2  0  0  0
  7 26  1  0  0  0
  7 29  1  0  0  0
  8  9  1  0  0  0
  8 22  1  0  0  0
  9 10  1  0  0  0
  9 27  2  0  0  0
 10 11  2  0  0  0
 10 15  1  0  0  0
 11 12  1  0  0  0
 11 91  1  0  0  0
 12 13  2  0  0  0
 12 92  1  0  0  0
 13 14  1  0  0  0
 13 31  1  0  0  0
 14 15  2  0  0  0
 14 93  1  0  0  0
 15 94  1  0  0  0
 16 17  2  0  0  0
 16 21  1  0  0  0
 16 31  1  0  0  0
 17 18  1  0  0  0
 17 95  1  0  0  0
 18 19  2  0  0  0
 18 96  1  0  0  0
 19 20  1  0  0  0
 19 24  1  0  0  0
 20 21  2  0  0  0
 20 97  1  0  0  0
 21 23  1  0  0  0
 22 28  1  0  0  0
 22 32  2  0  0  0
 26 27  1  0  0  0
 28 98  1  0  0  0
 28 99  1  0  0  0
 29100  1  0  0  0
 29101  1  0  0  0
 33 34  1  0  0  0
 33 66  1  0  0  0
 33 70  2  0  0  0
 34 36  1  0  0  0
 34 59  1  0  0  0
 34102  1  0  0  0
 35 44  2  0  0  0
 35 45  1  0  0  0
 35 68  1  0  0  0
 36 56  1  0  0  0
 36103  1  0  0  0
 37 39  1  0  0  0
 37 47  1  0  0  0
 37 66  1  0  0  0
 37104  1  0  0  0
 38 43  2  0  0  0
 38 46  1  0  0  0
 38 47  1  0  0  0
 39 64  1  0  0  0
 39 67  2  0  0  0
 40 52  1  0  0  0
 40 53  2  0  0  0
 40 58  1  0  0  0
 41105  1  0  0  0
 41106  1  0  0  0
 41107  1  0  0  0
 41 48  1  0  0  0
 42 43  1  0  0  0
 42 66  1  0  0  0
 42108  1  0  0  0
 42109  1  0  0  0
 43 44  1  0  0  0
 44110  1  0  0  0
 45 46  2  0  0  0
 45111  1  0  0  0
 46112  1  0  0  0
 47113  1  0  0  0
 47114  1  0  0  0
 48 56  1  0  0  0
 48 65  1  0  0  0
 48115  1  0  0  0
 49 50  1  0  0  0
 49 53  1  0  0  0
 49 64  1  0  0  0
 49116  1  0  0  0
 50 51  1  0  0  0
 50117  1  0  0  0
 50118  1  0  0  0
 51 52  1  0  0  0
 51119  1  0  0  0
 51120  1  0  0  0
 52121  1  0  0  0
 52122  1  0  0  0
 53 54  1  0  0  0
 54 55  2  0  0  0
 54123  1  0  0  0
 55 57  1  0  0  0
 55124  1  0  0  0
 56 69  2  0  0  0
 57 58  2  0  0  0
 57125  1  0  0  0
 58126  1  0  0  0
 59 60  1  0  0  0
 59 61  1  0  0  0
 59 62  1  0  0  0
 60127  1  0  0  0
 60128  1  0  0  0
 60129  1  0  0  0
 61130  1  0  0  0
 61131  1  0  0  0
 61132  1  0  0  0
 62133  1  0  0  0
 62134  1  0  0  0
 62135  1  0  0  0
 63 65  1  0  0  0
 63136  1  0  0  0
 63137  1  0  0  0
 63138  1  0  0  0
 64139  1  0  0  0
 65140  1  0  0  0
 68 76  1  0  0  0
 71 73  2  0  0  0
 71 74  1  0  0  0
 71141  1  0  0  0
 72 74  2  0  0  0
 72 75  1  0  0  0
 72142  1  0  0  0
 73 79  1  0  0  0
 73143  1  0  0  0
 74 80  1  0  0  0
 75 76  1  0  0  0
 75 79  2  0  0  0
 76144  1  0  0  0
 76145  1  0  0  0
 77 78  1  0  0  0
 77 80  1  0  0  0
 77146  1  0  0  0
 77147  1  0  0  0
 78 81  1  0  0  0
 78148  1  0  0  0
 78149  1  0  0  0
 79150  1  0  0  0
 80151  1  0  0  0
 81152  1  0  0  0
M  CHG  1  79   1
M  ISO  4   1 100  68 101  76 101  81 100
M  END
> <chiral flag>
0

> <version>
0

> <s_m_source_file>
/data/baiqing/PycharmProjects/Reinvent-master-3.2/result/LINK_invent/BTK/process_docking_weight1_custom_sum_contain_oxygen_bond_distance_aromatic_linkinvent_7_9_3/rearranged_h_0127.sdf

> <i_m_source_file_index>
15

> <r_mmod_Potential_Energy-OPLS-2005>
-14.7499074935913

> <r_mmod_Stretch_Energy-OPLS-2005>
129.420654296875

> <r_mmod_Bend_Energy-OPLS-2005>
180.460510253906

> <r_mmod_Torsional_Energy-OPLS-2005>
226.725692749023

> <r_mmod_Improper_Torsional_Energy-OPLS-2005>
8.22079086303711

> <r_mmod_Van_der_Waal_Energy-OPLS-2005>
136.758697509766

> <r_mmod_Electrostatic_Energy-OPLS-2005>
-349.769927978516

> <r_mmod_Solvation_Energy-OPLS-2005>
-438.908660888672

> <b_mmod_Minimization_Converged-OPLS-2005>
0

> <r_mmod_RMS_Derivative-OPLS-2005>
7.99448251724243

$$$$
15
                    3D
 Structure written by MMmdl.
155164  0  0  1  0            999 V2000
  -30.5263  -14.9200   20.4325 C   0  0  0  0  0  0
  -30.4518  -12.5687   19.4926 C   0  0  0  0  0  0
  -29.5250  -12.5311   18.2535 C   0  0  0  0  0  0
  -28.0561  -12.3204   18.6701 C   0  0  0  0  0  0
  -27.6376  -13.2413   19.8457 C   0  0  2  0  0  0
  -28.6822  -13.2324   20.9832 C   0  0  0  0  0  0
  -25.2495  -13.8201   20.5698 C   0  0  0  0  0  0
  -24.1797  -13.0438   20.9216 C   0  0  0  0  0  0
  -24.6401  -11.6920   20.8751 C   0  0  0  0  0  0
  -23.9077  -10.4294   21.0409 C   0  0  0  0  0  0
  -24.3626   -9.4208   21.9185 C   0  0  0  0  0  0
  -23.6298   -8.2243   22.0755 C   0  0  0  0  0  0
  -22.4277   -8.0283   21.3546 C   0  0  0  0  0  0
  -21.9914   -9.0259   20.4650 C   0  0  0  0  0  0
  -22.7247  -10.2136   20.3060 C   0  0  0  0  0  0
  -21.6853   -6.0738   22.5277 C   0  0  0  0  0  0
  -21.4015   -6.5640   23.8211 C   0  0  0  0  0  0
  -21.3661   -5.6792   24.9173 C   0  0  0  0  0  0
  -21.6043   -4.3054   24.7223 C   0  0  0  0  0  0
  -21.8819   -3.8148   23.4343 C   0  0  0  0  0  0
  -21.9192   -4.6966   22.3400 C   0  0  0  0  0  0
  -22.7817  -13.5218   21.1871 C   0  0  0  0  0  0
  -22.1661   -4.2154   21.0978 F   0  0  0  0  0  0
  -21.5630   -3.4537   25.7734 F   0  0  0  0  0  0
  -29.9649  -13.6469   20.3962 N   0  0  0  0  0  0
  -26.2925  -12.9422   20.3265 N   0  0  0  0  0  0
  -25.9334  -11.6557   20.5743 N   0  0  0  0  0  0
  -22.0463  -12.8216   22.0433 N   0  0  0  0  0  0
  -25.4157  -15.1929   20.4109 N   0  0  0  0  0  0
  -31.7176  -15.0408   20.1278 O   0  0  0  0  0  0
  -21.6642   -6.8881   21.4239 O   0  0  0  0  0  0
  -22.3500  -14.5519   20.6713 O   0  0  0  0  0  0
  -24.6445  -31.8448   23.1903 C   0  0  0  0  0  0
  -25.9218  -32.4701   23.8284 C   0  0  1  0  0  0
  -27.2139  -27.1323   20.1424 C   0  0  0  0  0  0
  -25.5962  -33.8506   24.2201 N   0  0  0  0  0  0
  -23.4476  -30.4671   21.5365 C   0  0  2  0  0  0
  -24.8970  -28.9010   20.1089 C   0  0  0  0  0  0
  -22.7575  -29.4554   22.4861 C   0  0  0  0  0  0
  -18.0306  -28.1397   22.8476 C   0  0  0  0  0  0
  -24.1492  -36.7258   23.2641 C   0  0  0  0  0  0
  -26.0062  -30.7163   21.3923 C   0  0  0  0  0  0
  -26.0764  -29.3286   20.7319 C   0  0  0  0  0  0
  -27.2344  -28.4598   20.7362 C   0  0  0  0  0  0
  -26.0095  -26.8242   19.4650 C   0  0  0  0  0  0
  -24.8771  -27.6612   19.4601 C   0  0  0  0  0  0
  -23.6744  -29.8027   20.1542 C   0  0  0  0  0  0
  -25.4124  -36.3036   24.0317 C   0  0  1  0  0  0
  -20.5921  -28.3724   23.1231 C   0  0  2  0  0  0
  -20.6789  -26.9426   22.5400 C   0  0  0  0  0  0
  -19.5760  -26.6382   21.5210 C   0  0  0  0  0  0
  -18.1944  -26.7934   22.1625 C   0  0  0  0  0  0
  -19.1564  -28.8877   23.2845 C   0  0  0  0  0  0
  -18.9480  -30.1474   23.8873 C   0  0  0  0  0  0
  -17.6477  -30.6590   24.0559 C   0  0  0  0  0  0
  -25.9074  -34.9411   23.5066 C   0  0  0  0  0  0
  -16.5368  -29.9084   23.6335 C   0  0  0  0  0  0
  -16.7292  -28.6503   23.0355 C   0  0  0  0  0  0
  -26.4534  -31.6566   25.0724 C   0  0  0  0  0  0
  -25.3717  -31.3756   26.1417 C   0  0  0  0  0  0
  -27.0401  -30.2960   24.6309 C   0  0  0  0  0  0
  -27.6062  -32.4334   25.7507 C   0  0  0  0  0  0
  -27.5577  -37.1784   24.8467 C   0  0  0  0  0  0
  -21.4265  -29.3053   22.3606 N   0  0  0  0  0  0
  -26.4288  -37.3748   23.9409 N   0  0  0  0  0  0
  -24.7195  -31.0302   22.0945 N   0  0  0  0  0  0
  -23.4216  -28.8090   23.3003 O   0  0  0  0  0  0
  -28.2461  -26.1164   20.2244 O   0  0  0  0  0  0
  -26.5656  -34.8906   22.4642 O   0  0  0  0  0  0
  -23.5564  -32.1330   23.7120 O   0  0  0  0  0  0
  -29.0898  -19.7477   19.3811 C   0  0  0  0  0  0
  -29.9951  -18.4564   21.5939 C   0  0  0  0  0  0
  -29.2721  -18.3018   19.3655 C   0  0  0  0  0  0
  -29.7451  -17.5593   20.5036 C   0  0  0  0  0  0
  -29.3521  -20.5556   20.5301 C   0  0  0  0  0  0
  -29.3778  -23.6545   18.6130 C   0  0  0  0  0  0
  -28.1814  -24.6189   18.4125 C   0  0  0  0  0  0
  -28.5477  -23.0691   19.7328 C   0  0  2  0  0  0
  -27.8916  -24.6212   19.9464 C   0  0  1  0  0  0
  -28.9082  -17.5378   18.1071 C   0  0  0  0  0  0
  -29.8199  -19.8408   21.6028 N   0  0  0  0  0  0
  -29.6780  -16.0333   20.6369 N   0  0  0  0  0  0
  -29.1672  -22.0214   20.6824 N   0  0  0  0  0  0
  -31.4839  -12.7379   19.1811 H   0  0  0  0  0  0
  -30.4498  -11.6074   20.0087 H   0  0  0  0  0  0
  -29.8380  -11.7399   17.5708 H   0  0  0  0  0  0
  -29.6166  -13.4672   17.7003 H   0  0  0  0  0  0
  -27.9456  -11.2764   18.9659 H   0  0  0  0  0  0
  -27.3931  -12.4665   17.8165 H   0  0  0  0  0  0
  -27.6112  -14.2506   19.4338 H   0  0  0  0  0  0
  -28.7606  -12.2424   21.4350 H   0  0  0  0  0  0
  -28.3861  -13.9103   21.7853 H   0  0  0  0  0  0
  -25.2771   -9.5682   22.4760 H   0  0  0  0  0  0
  -24.0006   -7.4633   22.7472 H   0  0  0  0  0  0
  -21.0845   -8.8781   19.8956 H   0  0  0  0  0  0
  -22.3705  -10.9678   19.6173 H   0  0  0  0  0  0
  -21.2008   -7.6149   23.9716 H   0  0  0  0  0  0
  -21.1483   -6.0522   25.9077 H   0  0  0  0  0  0
  -22.0597   -2.7610   23.2839 H   0  0  0  0  0  0
  -22.4080  -11.9889   22.4842 H   0  0  0  0  0  0
  -21.1079  -13.1243   22.2631 H   0  0  0  0  0  0
  -24.6415  -15.8395   20.5165 H   0  0  0  0  0  0
  -26.2512  -15.6355   20.0525 H   0  0  0  0  0  0
  -26.7281  -32.5308   23.1011 H   0  0  0  0  0  0
  -25.0087  -33.9618   25.0333 H   0  0  0  0  0  0
  -22.7503  -31.2938   21.3850 H   0  0  0  0  0  0
  -23.3759  -35.9585   23.3293 H   0  0  0  0  0  0
  -24.3579  -36.8900   22.2058 H   0  0  0  0  0  0
  -23.7242  -37.6449   23.6684 H   0  0  0  0  0  0
  -26.1638  -31.4713   20.6207 H   0  0  0  0  0  0
  -26.8763  -30.7659   22.0351 H   0  0  0  0  0  0
  -28.1279  -28.7798   21.2535 H   0  0  0  0  0  0
  -25.8920  -25.8909   18.9380 H   0  0  0  0  0  0
  -23.9812  -27.3311   18.9526 H   0  0  0  0  0  0
  -23.8120  -30.5802   19.4018 H   0  0  0  0  0  0
  -22.7888  -29.2469   19.8405 H   0  0  0  0  0  0
  -25.1311  -36.1865   25.0809 H   0  0  0  0  0  0
  -21.0013  -28.3314   24.1352 H   0  0  0  0  0  0
  -20.5684  -26.2337   23.3621 H   0  0  0  0  0  0
  -21.6655  -26.7429   22.1198 H   0  0  0  0  0  0
  -19.6918  -25.6287   21.1253 H   0  0  0  0  0  0
  -19.6692  -27.3180   20.6730 H   0  0  0  0  0  0
  -17.4209  -26.6676   21.4032 H   0  0  0  0  0  0
  -18.0345  -26.0085   22.9032 H   0  0  0  0  0  0
  -19.7957  -30.7296   24.2231 H   0  0  0  0  0  0
  -17.5030  -31.6268   24.5166 H   0  0  0  0  0  0
  -15.5368  -30.2978   23.7671 H   0  0  0  0  0  0
  -15.8693  -28.0814   22.7083 H   0  0  0  0  0  0
  -24.5901  -30.7098   25.7737 H   0  0  0  0  0  0
  -24.8903  -32.2940   26.4786 H   0  0  0  0  0  0
  -25.8001  -30.8965   27.0230 H   0  0  0  0  0  0
  -26.3022  -29.6680   24.1305 H   0  0  0  0  0  0
  -27.4001  -29.7262   25.4885 H   0  0  0  0  0  0
  -27.8937  -30.4193   23.9640 H   0  0  0  0  0  0
  -27.2649  -33.3652   26.2030 H   0  0  0  0  0  0
  -28.3897  -32.6869   25.0353 H   0  0  0  0  0  0
  -28.0704  -31.8498   26.5466 H   0  0  0  0  0  0
  -28.2590  -38.0084   24.7511 H   0  0  0  0  0  0
  -28.1077  -36.2615   24.6297 H   0  0  0  0  0  0
  -27.2295  -37.1435   25.8869 H   0  0  0  0  0  0
  -20.9476  -29.8779   21.6796 H   0  0  0  0  0  0
  -26.0157  -38.2817   24.1412 H   0  0  0  0  0  0
  -28.7192  -20.2359   18.4904 H   0  0  0  0  0  0
  -30.2982  -18.0404   22.5434 H   0  0  0  0  0  0
  -30.2857  -24.1516   18.9591 H   0  0  0  0  0  0
  -29.5697  -22.9803   17.7775 H   0  0  0  0  0  0
  -27.3712  -24.1797   17.8258 H   0  0  0  0  0  0
  -28.4739  -25.5753   17.9763 H   0  0  0  0  0  0
  -27.7474  -22.4743   19.2826 H   0  0  0  0  0  0
  -26.8468  -24.4598   20.2126 H   0  0  0  0  0  0
  -28.6743  -18.2106   17.2819 H   0  0  0  0  0  0
  -28.0407  -16.9023   18.2840 H   0  0  0  0  0  0
  -29.7390  -16.9038   17.7962 H   0  0  0  0  0  0
  -28.7512  -15.7127   20.8744 H   0  0  0  0  0  0
  -29.4146  -22.3870   21.5957 H   0  0  0  0  0  0
  1 25  1  0  0  0
  1 30  2  0  0  0
  1 82  1  0  0  0
  2  3  1  0  0  0
  2 25  1  0  0  0
  2 84  1  0  0  0
  2 85  1  0  0  0
  3  4  1  0  0  0
  3 86  1  0  0  0
  3 87  1  0  0  0
  4  5  1  0  0  0
  4 88  1  0  0  0
  4 89  1  0  0  0
  5  6  1  0  0  0
  5 26  1  0  0  0
  5 90  1  0  0  0
  6 25  1  0  0  0
  6 91  1  0  0  0
  6 92  1  0  0  0
  7  8  2  0  0  0
  7 26  1  0  0  0
  7 29  1  0  0  0
  8  9  1  0  0  0
  8 22  1  0  0  0
  9 10  1  0  0  0
  9 27  2  0  0  0
 10 11  2  0  0  0
 10 15  1  0  0  0
 11 12  1  0  0  0
 11 93  1  0  0  0
 12 13  2  0  0  0
 12 94  1  0  0  0
 13 14  1  0  0  0
 13 31  1  0  0  0
 14 15  2  0  0  0
 14 95  1  0  0  0
 15 96  1  0  0  0
 16 17  2  0  0  0
 16 21  1  0  0  0
 16 31  1  0  0  0
 17 18  1  0  0  0
 17 97  1  0  0  0
 18 19  2  0  0  0
 18 98  1  0  0  0
 19 20  1  0  0  0
 19 24  1  0  0  0
 20 21  2  0  0  0
 20 99  1  0  0  0
 21 23  1  0  0  0
 22 28  1  0  0  0
 22 32  2  0  0  0
 26 27  1  0  0  0
 28100  1  0  0  0
 28101  1  0  0  0
 29102  1  0  0  0
 29103  1  0  0  0
 33 34  1  0  0  0
 33 66  1  0  0  0
 33 70  2  0  0  0
 34 36  1  0  0  0
 34 59  1  0  0  0
 34104  1  0  0  0
 35 44  2  0  0  0
 35 45  1  0  0  0
 35 68  1  0  0  0
 36 56  1  0  0  0
 36105  1  0  0  0
 37 39  1  0  0  0
 37 47  1  0  0  0
 37 66  1  0  0  0
 37106  1  0  0  0
 38 43  2  0  0  0
 38 46  1  0  0  0
 38 47  1  0  0  0
 39 64  1  0  0  0
 39 67  2  0  0  0
 40 52  1  0  0  0
 40 53  2  0  0  0
 40 58  1  0  0  0
 41107  1  0  0  0
 41108  1  0  0  0
 41109  1  0  0  0
 41 48  1  0  0  0
 42 43  1  0  0  0
 42 66  1  0  0  0
 42110  1  0  0  0
 42111  1  0  0  0
 43 44  1  0  0  0
 44112  1  0  0  0
 45 46  2  0  0  0
 45113  1  0  0  0
 46114  1  0  0  0
 47115  1  0  0  0
 47116  1  0  0  0
 48 56  1  0  0  0
 48 65  1  0  0  0
 48117  1  0  0  0
 49 50  1  0  0  0
 49 53  1  0  0  0
 49 64  1  0  0  0
 49118  1  0  0  0
 50 51  1  0  0  0
 50119  1  0  0  0
 50120  1  0  0  0
 51 52  1  0  0  0
 51121  1  0  0  0
 51122  1  0  0  0
 52123  1  0  0  0
 52124  1  0  0  0
 53 54  1  0  0  0
 54 55  2  0  0  0
 54125  1  0  0  0
 55 57  1  0  0  0
 55126  1  0  0  0
 56 69  2  0  0  0
 57 58  2  0  0  0
 57127  1  0  0  0
 58128  1  0  0  0
 59 60  1  0  0  0
 59 61  1  0  0  0
 59 62  1  0  0  0
 60129  1  0  0  0
 60130  1  0  0  0
 60131  1  0  0  0
 61132  1  0  0  0
 61133  1  0  0  0
 61134  1  0  0  0
 62135  1  0  0  0
 62136  1  0  0  0
 62137  1  0  0  0
 63 65  1  0  0  0
 63138  1  0  0  0
 63139  1  0  0  0
 63140  1  0  0  0
 64141  1  0  0  0
 65142  1  0  0  0
 68 79  1  0  0  0
 71 73  2  0  0  0
 71 75  1  0  0  0
 71143  1  0  0  0
 72 74  2  0  0  0
 72 81  1  0  0  0
 72144  1  0  0  0
 73 74  1  0  0  0
 73 80  1  0  0  0
 74 82  1  0  0  0
 75 81  2  0  0  0
 75 83  1  0  0  0
 76 77  1  0  0  0
 76 78  1  0  0  0
 76145  1  0  0  0
 76146  1  0  0  0
 77 79  1  0  0  0
 77147  1  0  0  0
 77148  1  0  0  0
 78 79  1  0  0  0
 78 83  1  0  0  0
 78149  1  0  0  0
 79150  1  0  0  0
 80151  1  0  0  0
 80152  1  0  0  0
 80153  1  0  0  0
 82154  1  0  0  0
 83155  1  0  0  0
M  ISO  4   1 100  68 101  79 101  82 100
M  END
> <chiral flag>
0

> <version>
0

> <s_m_source_file>
/data/baiqing/PycharmProjects/Reinvent-master-3.2/result/LINK_invent/BTK/process_docking_weight1_custom_sum_contain_oxygen_bond_distance_aromatic_linkinvent_7_9_3/rearranged_h_0127.sdf

> <i_m_source_file_index>
16

> <r_mmod_Potential_Energy-OPLS-2005>
339.138610839844

> <r_mmod_Stretch_Energy-OPLS-2005>
220.678375244141

> <r_mmod_Bend_Energy-OPLS-2005>
377.783721923828

> <r_mmod_Torsional_Energy-OPLS-2005>
257.298553466797

> <r_mmod_Improper_Torsional_Energy-OPLS-2005>
6.48452186584473

> <r_mmod_Van_der_Waal_Energy-OPLS-2005>
139.435180664062

> <r_mmod_Electrostatic_Energy-OPLS-2005>
-611.800659179688

> <r_mmod_Solvation_Energy-OPLS-2005>
-238.693450927734

> <b_mmod_Minimization_Converged-OPLS-2005>
0

> <r_mmod_RMS_Derivative-OPLS-2005>
0.4941765666008

$$$$
16
                    3D
 Structure written by MMmdl.
157166  0  0  1  0            999 V2000
  -30.5049  -15.1381   20.4023 C   0  0  0  0  0  0
  -30.4312  -12.7229   19.5125 C   0  0  0  0  0  0
  -29.5216  -12.5701   18.2702 C   0  0  0  0  0  0
  -28.0619  -12.3225   18.6912 C   0  0  0  0  0  0
  -27.6165  -13.2688   19.8353 C   0  0  2  0  0  0
  -28.6607  -13.3637   20.9689 C   0  0  0  0  0  0
  -25.2331  -13.8217   20.5655 C   0  0  0  0  0  0
  -24.1712  -13.0413   20.9243 C   0  0  0  0  0  0
  -24.6388  -11.6922   20.8788 C   0  0  0  0  0  0
  -23.9083  -10.4281   21.0427 C   0  0  0  0  0  0
  -24.3627   -9.4194   21.9201 C   0  0  0  0  0  0
  -23.6303   -8.2232   22.0766 C   0  0  0  0  0  0
  -22.4287   -8.0270   21.3553 C   0  0  0  0  0  0
  -21.9928   -9.0243   20.4655 C   0  0  0  0  0  0
  -22.7260  -10.2119   20.3071 C   0  0  0  0  0  0
  -21.6850   -6.0726   22.5280 C   0  0  0  0  0  0
  -21.4006   -6.5629   23.8211 C   0  0  0  0  0  0
  -21.3663   -5.6785   24.9175 C   0  0  0  0  0  0
  -21.6052   -4.3053   24.7229 C   0  0  0  0  0  0
  -21.8821   -3.8140   23.4352 C   0  0  0  0  0  0
  -21.9196   -4.6953   22.3407 C   0  0  0  0  0  0
  -22.7731  -13.5169   21.1907 C   0  0  0  0  0  0
  -22.1665   -4.2141   21.0982 F   0  0  0  0  0  0
  -21.5640   -3.4536   25.7745 F   0  0  0  0  0  0
  -29.9016  -13.8569   20.3491 N   0  0  0  0  0  0
  -26.2814  -12.9517   20.3266 N   0  0  0  0  0  0
  -25.9335  -11.6625   20.5787 N   0  0  0  0  0  0
  -22.0395  -12.8161   22.0468 N   0  0  0  0  0  0
  -25.3801  -15.1928   20.3909 N   0  0  0  0  0  0
  -31.7127  -15.1217   20.1240 O   0  0  0  0  0  0
  -21.6646   -6.8867   21.4245 O   0  0  0  0  0  0
  -22.3412  -14.5473   20.6743 O   0  0  0  0  0  0
  -24.6543  -31.8322   23.1757 C   0  0  0  0  0  0
  -25.9270  -32.4637   23.8177 C   0  0  1  0  0  0
  -27.2191  -27.0164   20.1726 C   0  0  0  0  0  0
  -25.5987  -33.8440   24.2116 N   0  0  0  0  0  0
  -23.4631  -30.4467   21.5229 C   0  0  2  0  0  0
  -24.9138  -28.8465   20.1089 C   0  0  0  0  0  0
  -22.7622  -29.4487   22.4797 C   0  0  0  0  0  0
  -18.0313  -28.1414   22.8473 C   0  0  0  0  0  0
  -24.1483  -36.7201   23.2646 C   0  0  0  0  0  0
  -26.0247  -30.6691   21.3879 C   0  0  0  0  0  0
  -26.0935  -29.2665   20.7347 C   0  0  0  0  0  0
  -27.2410  -28.3697   20.7435 C   0  0  0  0  0  0
  -26.0100  -26.7205   19.5060 C   0  0  0  0  0  0
  -24.8922  -27.5923   19.4757 C   0  0  0  0  0  0
  -23.6967  -29.7655   20.1461 C   0  0  0  0  0  0
  -25.4121  -36.2993   24.0317 C   0  0  1  0  0  0
  -20.5940  -28.3740   23.1217 C   0  0  2  0  0  0
  -20.6793  -26.9430   22.5409 C   0  0  0  0  0  0
  -19.5766  -26.6393   21.5218 C   0  0  0  0  0  0
  -18.1947  -26.7950   22.1624 C   0  0  0  0  0  0
  -19.1573  -28.8892   23.2841 C   0  0  0  0  0  0
  -18.9490  -30.1484   23.8865 C   0  0  0  0  0  0
  -17.6482  -30.6604   24.0557 C   0  0  0  0  0  0
  -25.9088  -34.9380   23.5031 C   0  0  0  0  0  0
  -16.5374  -29.9094   23.6345 C   0  0  0  0  0  0
  -16.7300  -28.6517   23.0360 C   0  0  0  0  0  0
  -26.4563  -31.6536   25.0653 C   0  0  0  0  0  0
  -25.3721  -31.3748   26.1329 C   0  0  0  0  0  0
  -27.0430  -30.2921   24.6285 C   0  0  0  0  0  0
  -27.6082  -32.4303   25.7456 C   0  0  0  0  0  0
  -27.5561  -37.1761   24.8471 C   0  0  0  0  0  0
  -21.4301  -29.3046   22.3569 N   0  0  0  0  0  0
  -26.4269  -37.3727   23.9426 N   0  0  0  0  0  0
  -24.7352  -31.0076   22.0840 N   0  0  0  0  0  0
  -23.4222  -28.8059   23.2998 O   0  0  0  0  0  0
  -28.2705  -25.9934   20.2576 O   0  0  0  0  0  0
  -26.5668  -34.8909   22.4605 O   0  0  0  0  0  0
  -23.5646  -32.1241   23.6928 O   0  0  0  0  0  0
  -27.6571  -21.6687   20.6968 C   0  0  0  0  0  0
  -29.9529  -22.0692   20.1539 C   0  0  0  0  0  0
  -27.6418  -23.3002   21.0218 C   0  0  0  0  0  0
  -29.5621  -23.5929   19.6144 C   0  0  0  0  0  0
  -28.0764  -18.2461   20.9017 C   0  0  0  0  0  0
  -28.5657  -16.7622   21.1993 C   0  0  0  0  0  0
  -30.1873  -17.9155   20.0316 C   0  0  0  0  0  0
  -28.9240  -20.8345   20.1111 C   0  0  1  0  0  0
  -29.2792  -19.1899   20.6697 C   0  0  1  0  0  0
  -28.2052  -24.3995   19.9939 C   0  0  2  0  0  0
  -29.8009  -16.4329   20.4605 N   0  0  0  0  0  0
  -31.4578  -12.8955   19.1873 H   0  0  0  0  0  0
  -30.4628  -11.7945   20.0850 H   0  0  0  0  0  0
  -29.8738  -11.7573   17.6337 H   0  0  0  0  0  0
  -29.5771  -13.4770   17.6654 H   0  0  0  0  0  0
  -27.9835  -11.2861   19.0211 H   0  0  0  0  0  0
  -27.3964  -12.4224   17.8329 H   0  0  0  0  0  0
  -27.5545  -14.2562   19.3777 H   0  0  0  0  0  0
  -28.8042  -12.3963   21.4522 H   0  0  0  0  0  0
  -28.3310  -14.0388   21.7572 H   0  0  0  0  0  0
  -25.2768   -9.5681   22.4778 H   0  0  0  0  0  0
  -24.0017   -7.4626   22.7490 H   0  0  0  0  0  0
  -21.0859   -8.8763   19.8958 H   0  0  0  0  0  0
  -22.3719  -10.9659   19.6181 H   0  0  0  0  0  0
  -21.1978   -7.6134   23.9709 H   0  0  0  0  0  0
  -21.1492   -6.0514   25.9078 H   0  0  0  0  0  0
  -22.0597   -2.7602   23.2851 H   0  0  0  0  0  0
  -22.4010  -11.9812   22.4833 H   0  0  0  0  0  0
  -21.1024  -13.1204   22.2717 H   0  0  0  0  0  0
  -24.5906  -15.8249   20.4672 H   0  0  0  0  0  0
  -26.2084  -15.6379   20.0192 H   0  0  0  0  0  0
  -26.7325  -32.5203   23.0882 H   0  0  0  0  0  0
  -25.0156  -33.9528   25.0288 H   0  0  0  0  0  0
  -22.7712  -31.2755   21.3592 H   0  0  0  0  0  0
  -23.3779  -35.9496   23.3282 H   0  0  0  0  0  0
  -24.3569  -36.8858   22.2065 H   0  0  0  0  0  0
  -23.7202  -37.6376   23.6690 H   0  0  0  0  0  0
  -26.1872  -31.4149   20.6086 H   0  0  0  0  0  0
  -26.8927  -30.7285   22.0325 H   0  0  0  0  0  0
  -28.1361  -28.6906   21.2578 H   0  0  0  0  0  0
  -25.8951  -25.7590   19.0278 H   0  0  0  0  0  0
  -23.9941  -27.2663   18.9699 H   0  0  0  0  0  0
  -23.8463  -30.5361   19.3891 H   0  0  0  0  0  0
  -22.8068  -29.2182   19.8304 H   0  0  0  0  0  0
  -25.1321  -36.1793   25.0811 H   0  0  0  0  0  0
  -21.0032  -28.3335   24.1341 H   0  0  0  0  0  0
  -20.5681  -26.2352   23.3640 H   0  0  0  0  0  0
  -21.6656  -26.7422   22.1204 H   0  0  0  0  0  0
  -19.6921  -25.6299   21.1261 H   0  0  0  0  0  0
  -19.6710  -27.3189   20.6736 H   0  0  0  0  0  0
  -17.4224  -26.6705   21.4024 H   0  0  0  0  0  0
  -18.0329  -26.0105   22.9028 H   0  0  0  0  0  0
  -19.7965  -30.7309   24.2224 H   0  0  0  0  0  0
  -17.5039  -31.6282   24.5165 H   0  0  0  0  0  0
  -15.5369  -30.2982   23.7693 H   0  0  0  0  0  0
  -15.8705  -28.0830   22.7082 H   0  0  0  0  0  0
  -24.5932  -30.7068   25.7641 H   0  0  0  0  0  0
  -24.8876  -32.2932   26.4641 H   0  0  0  0  0  0
  -25.7991  -30.9000   27.0168 H   0  0  0  0  0  0
  -26.3052  -29.6626   24.1297 H   0  0  0  0  0  0
  -27.4034  -29.7251   25.4876 H   0  0  0  0  0  0
  -27.8970  -30.4146   23.9619 H   0  0  0  0  0  0
  -27.2693  -33.3664   26.1901 H   0  0  0  0  0  0
  -28.3971  -32.6746   25.0330 H   0  0  0  0  0  0
  -28.0643  -31.8488   26.5479 H   0  0  0  0  0  0
  -28.2575  -38.0061   24.7531 H   0  0  0  0  0  0
  -28.1066  -36.2596   24.6288 H   0  0  0  0  0  0
  -27.2284  -37.1393   25.8876 H   0  0  0  0  0  0
  -20.9526  -29.8746   21.6727 H   0  0  0  0  0  0
  -26.0125  -38.2791   24.1444 H   0  0  0  0  0  0
  -26.8199  -21.4711   20.0263 H   0  0  0  0  0  0
  -27.3713  -21.1785   21.6279 H   0  0  0  0  0  0
  -30.2690  -22.1750   21.1932 H   0  0  0  0  0  0
  -30.8586  -21.7590   19.6334 H   0  0  0  0  0  0
  -28.1860  -23.4417   21.9565 H   0  0  0  0  0  0
  -26.6156  -23.5763   21.2654 H   0  0  0  0  0  0
  -29.6280  -23.5802   18.5261 H   0  0  0  0  0  0
  -30.3891  -24.2354   19.9175 H   0  0  0  0  0  0
  -27.4323  -18.6155   21.7007 H   0  0  0  0  0  0
  -27.4657  -18.2387   19.9974 H   0  0  0  0  0  0
  -27.7767  -16.0554   20.9682 H   0  0  0  0  0  0
  -28.7829  -16.6563   22.2635 H   0  0  0  0  0  0
  -31.2436  -18.0767   20.2478 H   0  0  0  0  0  0
  -30.1060  -17.9478   18.9441 H   0  0  0  0  0  0
  -28.7074  -20.6998   19.0503 H   0  0  0  0  0  0
  -29.7080  -19.3532   21.6590 H   0  0  0  0  0  0
  -27.5716  -24.3076   19.1123 H   0  0  0  0  0  0
  1 25  1  0  0  0
  1 30  2  0  0  0
  1 81  1  0  0  0
  2  3  1  0  0  0
  2 25  1  0  0  0
  2 82  1  0  0  0
  2 83  1  0  0  0
  3  4  1  0  0  0
  3 84  1  0  0  0
  3 85  1  0  0  0
  4  5  1  0  0  0
  4 86  1  0  0  0
  4 87  1  0  0  0
  5  6  1  0  0  0
  5 26  1  0  0  0
  5 88  1  0  0  0
  6 25  1  0  0  0
  6 89  1  0  0  0
  6 90  1  0  0  0
  7  8  2  0  0  0
  7 26  1  0  0  0
  7 29  1  0  0  0
  8  9  1  0  0  0
  8 22  1  0  0  0
  9 10  1  0  0  0
  9 27  2  0  0  0
 10 11  2  0  0  0
 10 15  1  0  0  0
 11 12  1  0  0  0
 11 91  1  0  0  0
 12 13  2  0  0  0
 12 92  1  0  0  0
 13 14  1  0  0  0
 13 31  1  0  0  0
 14 15  2  0  0  0
 14 93  1  0  0  0
 15 94  1  0  0  0
 16 17  2  0  0  0
 16 21  1  0  0  0
 16 31  1  0  0  0
 17 18  1  0  0  0
 17 95  1  0  0  0
 18 19  2  0  0  0
 18 96  1  0  0  0
 19 20  1  0  0  0
 19 24  1  0  0  0
 20 21  2  0  0  0
 20 97  1  0  0  0
 21 23  1  0  0  0
 22 28  1  0  0  0
 22 32  2  0  0  0
 26 27  1  0  0  0
 28 98  1  0  0  0
 28 99  1  0  0  0
 29100  1  0  0  0
 29101  1  0  0  0
 33 34  1  0  0  0
 33 66  1  0  0  0
 33 70  2  0  0  0
 34 36  1  0  0  0
 34 59  1  0  0  0
 34102  1  0  0  0
 35 44  2  0  0  0
 35 45  1  0  0  0
 35 68  1  0  0  0
 36 56  1  0  0  0
 36103  1  0  0  0
 37 39  1  0  0  0
 37 47  1  0  0  0
 37 66  1  0  0  0
 37104  1  0  0  0
 38 43  2  0  0  0
 38 46  1  0  0  0
 38 47  1  0  0  0
 39 64  1  0  0  0
 39 67  2  0  0  0
 40 52  1  0  0  0
 40 53  2  0  0  0
 40 58  1  0  0  0
 41105  1  0  0  0
 41106  1  0  0  0
 41107  1  0  0  0
 41 48  1  0  0  0
 42 43  1  0  0  0
 42 66  1  0  0  0
 42108  1  0  0  0
 42109  1  0  0  0
 43 44  1  0  0  0
 44110  1  0  0  0
 45 46  2  0  0  0
 45111  1  0  0  0
 46112  1  0  0  0
 47113  1  0  0  0
 47114  1  0  0  0
 48 56  1  0  0  0
 48 65  1  0  0  0
 48115  1  0  0  0
 49 50  1  0  0  0
 49 53  1  0  0  0
 49 64  1  0  0  0
 49116  1  0  0  0
 50 51  1  0  0  0
 50117  1  0  0  0
 50118  1  0  0  0
 51 52  1  0  0  0
 51119  1  0  0  0
 51120  1  0  0  0
 52121  1  0  0  0
 52122  1  0  0  0
 53 54  1  0  0  0
 54 55  2  0  0  0
 54123  1  0  0  0
 55 57  1  0  0  0
 55124  1  0  0  0
 56 69  2  0  0  0
 57 58  2  0  0  0
 57125  1  0  0  0
 58126  1  0  0  0
 59 60  1  0  0  0
 59 61  1  0  0  0
 59 62  1  0  0  0
 60127  1  0  0  0
 60128  1  0  0  0
 60129  1  0  0  0
 61130  1  0  0  0
 61131  1  0  0  0
 61132  1  0  0  0
 62133  1  0  0  0
 62134  1  0  0  0
 62135  1  0  0  0
 63 65  1  0  0  0
 63136  1  0  0  0
 63137  1  0  0  0
 63138  1  0  0  0
 64139  1  0  0  0
 65140  1  0  0  0
 68 80  1  0  0  0
 71 73  1  0  0  0
 71141  1  0  0  0
 71142  1  0  0  0
 71 78  1  0  0  0
 72 74  1  0  0  0
 72 78  1  0  0  0
 72143  1  0  0  0
 72144  1  0  0  0
 73 80  1  0  0  0
 73145  1  0  0  0
 73146  1  0  0  0
 74 80  1  0  0  0
 74147  1  0  0  0
 74148  1  0  0  0
 75 76  1  0  0  0
 75149  1  0  0  0
 75150  1  0  0  0
 75 79  1  0  0  0
 76 81  1  0  0  0
 76151  1  0  0  0
 76152  1  0  0  0
 77 79  1  0  0  0
 77 81  1  0  0  0
 77153  1  0  0  0
 77154  1  0  0  0
 78 79  1  0  0  0
 78155  1  0  0  0
 79156  1  0  0  0
 80157  1  0  0  0
M  ISO  4   1 100  68 101  80 101  81 100
M  END
> <chiral flag>
0

> <version>
0

> <s_m_source_file>
/data/baiqing/PycharmProjects/Reinvent-master-3.2/result/LINK_invent/BTK/process_docking_weight1_custom_sum_contain_oxygen_bond_distance_aromatic_linkinvent_7_9_3/rearranged_h_0127.sdf

> <i_m_source_file_index>
17

> <r_mmod_Potential_Energy-OPLS-2005>
1147.72741699219

> <r_mmod_Stretch_Energy-OPLS-2005>
390.686859130859

> <r_mmod_Bend_Energy-OPLS-2005>
441.597595214844

> <r_mmod_Torsional_Energy-OPLS-2005>
352.350524902344

> <r_mmod_Improper_Torsional_Energy-OPLS-2005>
7.62091875076294

> <r_mmod_Van_der_Waal_Energy-OPLS-2005>
111.611526489258

> <r_mmod_Electrostatic_Energy-OPLS-2005>
-282.285095214844

> <r_mmod_Solvation_Energy-OPLS-2005>
-196.330352783203

> <b_mmod_Minimization_Converged-OPLS-2005>
0

> <r_mmod_RMS_Derivative-OPLS-2005>
1.60459542274475

$$$$
17
                    3D
 Structure written by MMmdl.
159167  0  0  1  0            999 V2000
  -30.6579  -14.7382   20.4123 C   0  0  0  0  0  0
  -30.4201  -12.4397   19.4801 C   0  0  0  0  0  0
  -29.5124  -12.5088   18.2347 C   0  0  0  0  0  0
  -28.0331  -12.3550   18.6386 C   0  0  0  0  0  0
  -27.6404  -13.2487   19.8468 C   0  0  2  0  0  0
  -28.6898  -13.2088   20.9806 C   0  0  0  0  0  0
  -25.2506  -13.8230   20.5719 C   0  0  0  0  0  0
  -24.1808  -13.0459   20.9212 C   0  0  0  0  0  0
  -24.6420  -11.6935   20.8739 C   0  0  0  0  0  0
  -23.9101  -10.4315   21.0394 C   0  0  0  0  0  0
  -24.3647   -9.4216   21.9167 C   0  0  0  0  0  0
  -23.6335   -8.2250   22.0742 C   0  0  0  0  0  0
  -22.4298   -8.0296   21.3537 C   0  0  0  0  0  0
  -21.9923   -9.0275   20.4652 C   0  0  0  0  0  0
  -22.7254  -10.2150   20.3061 C   0  0  0  0  0  0
  -21.6857   -6.0732   22.5278 C   0  0  0  0  0  0
  -21.4030   -6.5638   23.8202 C   0  0  0  0  0  0
  -21.3655   -5.6803   24.9167 C   0  0  0  0  0  0
  -21.6046   -4.3059   24.7222 C   0  0  0  0  0  0
  -21.8814   -3.8142   23.4347 C   0  0  0  0  0  0
  -21.9189   -4.6957   22.3404 C   0  0  0  0  0  0
  -22.7828  -13.5228   21.1890 C   0  0  0  0  0  0
  -22.1660   -4.2157   21.0983 F   0  0  0  0  0  0
  -21.5629   -3.4535   25.7716 F   0  0  0  0  0  0
  -29.9934  -13.5310   20.3872 N   0  0  0  0  0  0
  -26.2947  -12.9471   20.3291 N   0  0  0  0  0  0
  -25.9359  -11.6579   20.5749 N   0  0  0  0  0  0
  -22.0488  -12.8220   22.0469 N   0  0  0  0  0  0
  -25.4120  -15.1977   20.4153 N   0  0  0  0  0  0
  -31.8549  -14.7763   20.1247 O   0  0  0  0  0  0
  -21.6650   -6.8905   21.4250 O   0  0  0  0  0  0
  -22.3484  -14.5493   20.6693 O   0  0  0  0  0  0
  -24.6328  -31.8563   23.1977 C   0  0  0  0  0  0
  -25.9153  -32.4755   23.8335 C   0  0  1  0  0  0
  -27.2123  -27.2496   20.1030 C   0  0  0  0  0  0
  -25.5953  -33.8554   24.2262 N   0  0  0  0  0  0
  -23.4293  -30.4795   21.5428 C   0  0  2  0  0  0
  -24.8734  -28.9308   20.1038 C   0  0  0  0  0  0
  -22.7515  -29.4584   22.4898 C   0  0  0  0  0  0
  -18.0292  -28.1377   22.8470 C   0  0  0  0  0  0
  -24.1497  -36.7297   23.2639 C   0  0  0  0  0  0
  -25.9764  -30.7603   21.3806 C   0  0  0  0  0  0
  -26.0455  -29.3829   20.7229 C   0  0  0  0  0  0
  -27.2135  -28.5512   20.7201 C   0  0  0  0  0  0
  -26.0205  -26.8917   19.4288 C   0  0  0  0  0  0
  -24.8684  -27.6970   19.4417 C   0  0  0  0  0  0
  -23.6455  -29.8180   20.1571 C   0  0  0  0  0  0
  -25.4125  -36.3073   24.0332 C   0  0  1  0  0  0
  -20.5896  -28.3685   23.1268 C   0  0  2  0  0  0
  -20.6771  -26.9394   22.5423 C   0  0  0  0  0  0
  -19.5765  -26.6356   21.5211 C   0  0  0  0  0  0
  -18.1938  -26.7920   22.1604 C   0  0  0  0  0  0
  -19.1548  -28.8848   23.2865 C   0  0  0  0  0  0
  -18.9464  -30.1445   23.8889 C   0  0  0  0  0  0
  -17.6469  -30.6575   24.0546 C   0  0  0  0  0  0
  -25.9066  -34.9436   23.5096 C   0  0  0  0  0  0
  -16.5354  -29.9079   23.6311 C   0  0  0  0  0  0
  -16.7277  -28.6487   23.0337 C   0  0  0  0  0  0
  -26.4513  -31.6568   25.0716 C   0  0  0  0  0  0
  -25.3737  -31.3766   26.1452 C   0  0  0  0  0  0
  -27.0295  -30.2962   24.6189 C   0  0  0  0  0  0
  -27.6113  -32.4271   25.7451 C   0  0  0  0  0  0
  -27.5593  -37.1796   24.8461 C   0  0  0  0  0  0
  -21.4225  -29.3036   22.3657 N   0  0  0  0  0  0
  -26.4300  -37.3776   23.9411 N   0  0  0  0  0  0
  -24.7001  -31.0504   22.0982 N   0  0  0  0  0  0
  -23.4224  -28.8119   23.3002 O   0  0  0  0  0  0
  -28.3026  -26.3417   20.1737 O   0  0  0  0  0  0
  -26.5628  -34.8921   22.4655 O   0  0  0  0  0  0
  -23.5472  -32.1365   23.7279 O   0  0  0  0  0  0
  -29.6176  -19.8101   19.4650 C   0  0  0  0  0  0
  -29.0441  -20.5507   21.4871 C   0  0  0  0  0  0
  -29.1774  -20.9842   20.1999 C   0  0  0  0  0  0
  -29.7974  -18.7057   20.3074 C   0  0  0  0  0  0
  -28.0989  -17.5177   22.7976 C   0  0  0  0  0  0
  -29.4618  -19.2214   24.0595 C   0  0  0  0  0  0
  -30.4826  -17.2934   20.0520 C   0  0  0  0  0  0
  -28.9209  -23.6427   20.4031 C   0  0  0  0  0  0
  -28.1853  -24.9118   19.6950 C   0  0  0  0  0  0
  -29.3725  -18.3759   22.7798 C   0  0  0  0  0  0
  -29.4075  -19.1896   21.5670 N   0  0  0  0  0  0
  -28.8881  -22.3069   19.6806 N   0  0  0  0  0  0
  -29.9475  -15.9277   20.4863 N   0  0  0  0  0  0
  -31.4690  -12.5224   19.1891 H   0  0  0  0  0  0
  -30.3254  -11.4717   19.9732 H   0  0  0  0  0  0
  -29.7915  -11.7343   17.5181 H   0  0  0  0  0  0
  -29.6587  -13.4635   17.7259 H   0  0  0  0  0  0
  -27.8673  -11.3060   18.8825 H   0  0  0  0  0  0
  -27.3874  -12.5722   17.7863 H   0  0  0  0  0  0
  -27.6255  -14.2699   19.4634 H   0  0  0  0  0  0
  -28.7183  -12.2284   21.4561 H   0  0  0  0  0  0
  -28.4388  -13.9265   21.7635 H   0  0  0  0  0  0
  -25.2800   -9.5670   22.4720 H   0  0  0  0  0  0
  -24.0033   -7.4622   22.7444 H   0  0  0  0  0  0
  -21.0829   -8.8800   19.8971 H   0  0  0  0  0  0
  -22.3711  -10.9687   19.6182 H   0  0  0  0  0  0
  -21.2025   -7.6140   23.9722 H   0  0  0  0  0  0
  -21.1499   -6.0516   25.9083 H   0  0  0  0  0  0
  -22.0592   -2.7600   23.2824 H   0  0  0  0  0  0
  -22.4144  -11.9936   22.4917 H   0  0  0  0  0  0
  -21.1107  -13.1258   22.2686 H   0  0  0  0  0  0
  -24.6348  -15.8417   20.5192 H   0  0  0  0  0  0
  -26.2557  -15.6459   20.0832 H   0  0  0  0  0  0
  -26.7205  -32.5403   23.1061 H   0  0  0  0  0  0
  -25.0100  -33.9684   25.0412 H   0  0  0  0  0  0
  -22.7243  -31.3023   21.4000 H   0  0  0  0  0  0
  -23.3744  -35.9646   23.3324 H   0  0  0  0  0  0
  -24.3583  -36.8886   22.2045 H   0  0  0  0  0  0
  -23.7263  -37.6521   23.6635 H   0  0  0  0  0  0
  -26.1123  -31.5152   20.6057 H   0  0  0  0  0  0
  -26.8569  -30.8142   22.0084 H   0  0  0  0  0  0
  -28.1059  -28.8876   21.2281 H   0  0  0  0  0  0
  -25.9296  -25.9736   18.8721 H   0  0  0  0  0  0
  -23.9782  -27.3612   18.9269 H   0  0  0  0  0  0
  -23.7677  -30.5958   19.4019 H   0  0  0  0  0  0
  -22.7634  -29.2496   19.8534 H   0  0  0  0  0  0
  -25.1294  -36.1935   25.0829 H   0  0  0  0  0  0
  -20.9980  -28.3271   24.1396 H   0  0  0  0  0  0
  -20.5612  -26.2318   23.3647 H   0  0  0  0  0  0
  -21.6656  -26.7382   22.1273 H   0  0  0  0  0  0
  -19.6933  -25.6255   21.1273 H   0  0  0  0  0  0
  -19.6729  -27.3136   20.6722 H   0  0  0  0  0  0
  -17.4221  -26.6656   21.3994 H   0  0  0  0  0  0
  -18.0333  -26.0061   22.8997 H   0  0  0  0  0  0
  -19.7948  -30.7247   24.2279 H   0  0  0  0  0  0
  -17.5022  -31.6258   24.5148 H   0  0  0  0  0  0
  -15.5354  -30.2975   23.7635 H   0  0  0  0  0  0
  -15.8680  -28.0801   22.7059 H   0  0  0  0  0  0
  -24.5962  -30.7028   25.7834 H   0  0  0  0  0  0
  -24.8862  -32.2937   26.4769 H   0  0  0  0  0  0
  -25.8074  -30.9071   27.0287 H   0  0  0  0  0  0
  -26.2828  -29.6744   24.1230 H   0  0  0  0  0  0
  -27.3960  -29.7214   25.4702 H   0  0  0  0  0  0
  -27.8744  -30.4199   23.9409 H   0  0  0  0  0  0
  -27.2785  -33.3590   26.2036 H   0  0  0  0  0  0
  -28.3917  -32.6782   25.0250 H   0  0  0  0  0  0
  -28.0786  -31.8368   26.5343 H   0  0  0  0  0  0
  -28.2639  -38.0063   24.7470 H   0  0  0  0  0  0
  -28.1050  -36.2596   24.6309 H   0  0  0  0  0  0
  -27.2322  -37.1491   25.8868 H   0  0  0  0  0  0
  -20.9407  -29.8793   21.6884 H   0  0  0  0  0  0
  -26.0186  -38.2858   24.1400 H   0  0  0  0  0  0
  -29.8375  -19.7862   18.4076 H   0  0  0  0  0  0
  -28.7246  -21.0902   22.3674 H   0  0  0  0  0  0
  -28.0820  -16.8533   23.6614 H   0  0  0  0  0  0
  -28.0065  -16.8940   21.9092 H   0  0  0  0  0  0
  -27.2047  -18.1420   22.8348 H   0  0  0  0  0  0
  -29.6045  -18.5909   24.9380 H   0  0  0  0  0  0
  -28.5462  -19.7920   24.2204 H   0  0  0  0  0  0
  -30.2966  -19.9226   24.0194 H   0  0  0  0  0  0
  -31.4911  -17.3650   20.4648 H   0  0  0  0  0  0
  -30.6531  -17.2080   18.9762 H   0  0  0  0  0  0
  -28.5025  -23.5142   21.4032 H   0  0  0  0  0  0
  -29.9709  -23.9012   20.5558 H   0  0  0  0  0  0
  -27.1456  -24.5963   19.6854 H   0  0  0  0  0  0
  -28.4980  -24.9388   18.6508 H   0  0  0  0  0  0
  -30.2435  -17.7182   22.7654 H   0  0  0  0  0  0
  -28.9282  -22.3930   18.6653 H   0  0  0  0  0  0
  -28.9596  -15.8629   20.6696 H   0  0  0  0  0  0
  1 25  1  0  0  0
  1 30  2  0  0  0
  1 83  1  0  0  0
  2  3  1  0  0  0
  2 25  1  0  0  0
  2 84  1  0  0  0
  2 85  1  0  0  0
  3  4  1  0  0  0
  3 86  1  0  0  0
  3 87  1  0  0  0
  4  5  1  0  0  0
  4 88  1  0  0  0
  4 89  1  0  0  0
  5  6  1  0  0  0
  5 26  1  0  0  0
  5 90  1  0  0  0
  6 25  1  0  0  0
  6 91  1  0  0  0
  6 92  1  0  0  0
  7  8  2  0  0  0
  7 26  1  0  0  0
  7 29  1  0  0  0
  8  9  1  0  0  0
  8 22  1  0  0  0
  9 10  1  0  0  0
  9 27  2  0  0  0
 10 11  2  0  0  0
 10 15  1  0  0  0
 11 12  1  0  0  0
 11 93  1  0  0  0
 12 13  2  0  0  0
 12 94  1  0  0  0
 13 14  1  0  0  0
 13 31  1  0  0  0
 14 15  2  0  0  0
 14 95  1  0  0  0
 15 96  1  0  0  0
 16 17  2  0  0  0
 16 21  1  0  0  0
 16 31  1  0  0  0
 17 18  1  0  0  0
 17 97  1  0  0  0
 18 19  2  0  0  0
 18 98  1  0  0  0
 19 20  1  0  0  0
 19 24  1  0  0  0
 20 21  2  0  0  0
 20 99  1  0  0  0
 21 23  1  0  0  0
 22 28  1  0  0  0
 22 32  2  0  0  0
 26 27  1  0  0  0
 28100  1  0  0  0
 28101  1  0  0  0
 29102  1  0  0  0
 29103  1  0  0  0
 33 34  1  0  0  0
 33 66  1  0  0  0
 33 70  2  0  0  0
 34 36  1  0  0  0
 34 59  1  0  0  0
 34104  1  0  0  0
 35 44  2  0  0  0
 35 45  1  0  0  0
 35 68  1  0  0  0
 36 56  1  0  0  0
 36105  1  0  0  0
 37 39  1  0  0  0
 37 47  1  0  0  0
 37 66  1  0  0  0
 37106  1  0  0  0
 38 43  2  0  0  0
 38 46  1  0  0  0
 38 47  1  0  0  0
 39 64  1  0  0  0
 39 67  2  0  0  0
 40 52  1  0  0  0
 40 53  2  0  0  0
 40 58  1  0  0  0
 41107  1  0  0  0
 41108  1  0  0  0
 41109  1  0  0  0
 41 48  1  0  0  0
 42 43  1  0  0  0
 42 66  1  0  0  0
 42110  1  0  0  0
 42111  1  0  0  0
 43 44  1  0  0  0
 44112  1  0  0  0
 45 46  2  0  0  0
 45113  1  0  0  0
 46114  1  0  0  0
 47115  1  0  0  0
 47116  1  0  0  0
 48 56  1  0  0  0
 48 65  1  0  0  0
 48117  1  0  0  0
 49 50  1  0  0  0
 49 53  1  0  0  0
 49 64  1  0  0  0
 49118  1  0  0  0
 50 51  1  0  0  0
 50119  1  0  0  0
 50120  1  0  0  0
 51 52  1  0  0  0
 51121  1  0  0  0
 51122  1  0  0  0
 52123  1  0  0  0
 52124  1  0  0  0
 53 54  1  0  0  0
 54 55  2  0  0  0
 54125  1  0  0  0
 55 57  1  0  0  0
 55126  1  0  0  0
 56 69  2  0  0  0
 57 58  2  0  0  0
 57127  1  0  0  0
 58128  1  0  0  0
 59 60  1  0  0  0
 59 61  1  0  0  0
 59 62  1  0  0  0
 60129  1  0  0  0
 60130  1  0  0  0
 60131  1  0  0  0
 61132  1  0  0  0
 61133  1  0  0  0
 61134  1  0  0  0
 62135  1  0  0  0
 62136  1  0  0  0
 62137  1  0  0  0
 63 65  1  0  0  0
 63138  1  0  0  0
 63139  1  0  0  0
 63140  1  0  0  0
 64141  1  0  0  0
 65142  1  0  0  0
 68 79  1  0  0  0
 71 73  1  0  0  0
 71 74  2  0  0  0
 71143  1  0  0  0
 72 73  2  0  0  0
 72 81  1  0  0  0
 72144  1  0  0  0
 73 82  1  0  0  0
 74 77  1  0  0  0
 74 81  1  0  0  0
 75145  1  0  0  0
 75146  1  0  0  0
 75147  1  0  0  0
 75 80  1  0  0  0
 76 80  1  0  0  0
 76148  1  0  0  0
 76149  1  0  0  0
 76150  1  0  0  0
 77 83  1  0  0  0
 77151  1  0  0  0
 77152  1  0  0  0
 78 79  1  0  0  0
 78 82  1  0  0  0
 78153  1  0  0  0
 78154  1  0  0  0
 79155  1  0  0  0
 79156  1  0  0  0
 80 81  1  0  0  0
 80157  1  0  0  0
 82158  1  0  0  0
 83159  1  0  0  0
M  ISO  4   1 100  68 101  79 101  83 100
M  END
> <chiral flag>
0

> <version>
0

> <s_m_source_file>
/data/baiqing/PycharmProjects/Reinvent-master-3.2/result/LINK_invent/BTK/process_docking_weight1_custom_sum_contain_oxygen_bond_distance_aromatic_linkinvent_7_9_3/rearranged_h_0127.sdf

> <i_m_source_file_index>
18

> <r_mmod_Potential_Energy-OPLS-2005>
89.915657043457

> <r_mmod_Stretch_Energy-OPLS-2005>
120.48299407959

> <r_mmod_Bend_Energy-OPLS-2005>
199.178497314453

> <r_mmod_Torsional_Energy-OPLS-2005>
236.206512451172

> <r_mmod_Improper_Torsional_Energy-OPLS-2005>
8.29725742340088

> <r_mmod_Van_der_Waal_Energy-OPLS-2005>
121.994621276855

> <r_mmod_Electrostatic_Energy-OPLS-2005>
-464.274291992188

> <r_mmod_Solvation_Energy-OPLS-2005>
-223.066253662109

> <b_mmod_Minimization_Converged-OPLS-2005>
0

> <r_mmod_RMS_Derivative-OPLS-2005>
5.30685472488403

$$$$
18
                    3D
 Structure written by MMmdl.
149157  0  0  1  0            999 V2000
  -30.3845  -15.3624   20.3711 C   0  0  0  0  0  0
  -30.4292  -12.8720   19.5548 C   0  0  0  0  0  0
  -29.5426  -12.6062   18.3097 C   0  0  0  0  0  0
  -28.0941  -12.3044   18.7294 C   0  0  0  0  0  0
  -27.6043  -13.2837   19.8229 C   0  0  2  0  0  0
  -28.6220  -13.4938   20.9650 C   0  0  0  0  0  0
  -25.2353  -13.8255   20.5757 C   0  0  0  0  0  0
  -24.1721  -13.0437   20.9262 C   0  0  0  0  0  0
  -24.6373  -11.6932   20.8745 C   0  0  0  0  0  0
  -23.9069  -10.4291   21.0391 C   0  0  0  0  0  0
  -24.3616   -9.4208   21.9173 C   0  0  0  0  0  0
  -23.6296   -8.2234   22.0740 C   0  0  0  0  0  0
  -22.4274   -8.0273   21.3531 C   0  0  0  0  0  0
  -21.9909   -9.0240   20.4627 C   0  0  0  0  0  0
  -22.7237  -10.2121   20.3048 C   0  0  0  0  0  0
  -21.6855   -6.0730   22.5281 C   0  0  0  0  0  0
  -21.4019   -6.5628   23.8219 C   0  0  0  0  0  0
  -21.3668   -5.6776   24.9176 C   0  0  0  0  0  0
  -21.6048   -4.3039   24.7222 C   0  0  0  0  0  0
  -21.8819   -3.8134   23.4342 C   0  0  0  0  0  0
  -21.9202   -4.6957   22.3401 C   0  0  0  0  0  0
  -22.7741  -13.5177   21.1926 C   0  0  0  0  0  0
  -22.1663   -4.2146   21.0980 F   0  0  0  0  0  0
  -21.5625   -3.4523   25.7732 F   0  0  0  0  0  0
  -29.8492  -14.0295   20.3504 N   0  0  0  0  0  0
  -26.2762  -12.9539   20.3188 N   0  0  0  0  0  0
  -25.9304  -11.6635   20.5678 N   0  0  0  0  0  0
  -22.0399  -12.8160   22.0479 N   0  0  0  0  0  0
  -25.3993  -15.1991   20.4210 N   0  0  0  0  0  0
  -31.5979  -15.3579   20.1064 O   0  0  0  0  0  0
  -21.6632   -6.8874   21.4246 O   0  0  0  0  0  0
  -22.3417  -14.5469   20.6771 O   0  0  0  0  0  0
  -24.6694  -31.8148   23.1649 C   0  0  0  0  0  0
  -25.9350  -32.4546   23.8134 C   0  0  1  0  0  0
  -27.2209  -26.8539   20.2020 C   0  0  0  0  0  0
  -25.5982  -33.8367   24.2035 N   0  0  0  0  0  0
  -23.4874  -30.4228   21.5139 C   0  0  2  0  0  0
  -24.9453  -28.7987   20.1080 C   0  0  0  0  0  0
  -22.7708  -29.4377   22.4757 C   0  0  0  0  0  0
  -18.0337  -28.1388   22.8455 C   0  0  0  0  0  0
  -24.1497  -36.7198   23.2646 C   0  0  0  0  0  0
  -26.0592  -30.5964   21.4080 C   0  0  0  0  0  0
  -26.1263  -29.1791   20.7561 C   0  0  0  0  0  0
  -27.2513  -28.2273   20.7834 C   0  0  0  0  0  0
  -26.0184  -26.6514   19.4842 C   0  0  0  0  0  0
  -24.9231  -27.5588   19.4484 C   0  0  0  0  0  0
  -23.7327  -29.7338   20.1406 C   0  0  0  0  0  0
  -25.4146  -36.2954   24.0293 C   0  0  1  0  0  0
  -20.5963  -28.3735   23.1177 C   0  0  2  0  0  0
  -20.6796  -26.9404   22.5403 C   0  0  0  0  0  0
  -19.5770  -26.6350   21.5209 C   0  0  0  0  0  0
  -18.1960  -26.7923   22.1611 C   0  0  0  0  0  0
  -19.1597  -28.8884   23.2801 C   0  0  0  0  0  0
  -18.9505  -30.1476   23.8834 C   0  0  0  0  0  0
  -17.6496  -30.6573   24.0549 C   0  0  0  0  0  0
  -25.9109  -34.9329   23.4993 C   0  0  0  0  0  0
  -16.5388  -29.9058   23.6333 C   0  0  0  0  0  0
  -16.7320  -28.6478   23.0355 C   0  0  0  0  0  0
  -26.4576  -31.6517   25.0688 C   0  0  0  0  0  0
  -25.3679  -31.3807   26.1328 C   0  0  0  0  0  0
  -27.0479  -30.2870   24.6478 C   0  0  0  0  0  0
  -27.6054  -32.4339   25.7497 C   0  0  0  0  0  0
  -27.5568  -37.1778   24.8481 C   0  0  0  0  0  0
  -21.4375  -29.3025   22.3525 N   0  0  0  0  0  0
  -26.4295  -37.3686   23.9390 N   0  0  0  0  0  0
  -24.7597  -30.9746   22.0822 N   0  0  0  0  0  0
  -23.4223  -28.7965   23.3031 O   0  0  0  0  0  0
  -28.1917  -25.7031   20.3560 O   0  0  0  0  0  0
  -26.5718  -34.8882   22.4593 O   0  0  0  0  0  0
  -23.5751  -32.1164   23.6688 O   0  0  0  0  0  0
  -28.7419  -19.8989   22.0154 C   0  0  0  0  0  0
  -28.2356  -22.3512   21.9774 C   0  0  0  0  0  0
  -28.3252  -21.1004   22.6531 C   0  0  0  0  0  0
  -29.1147  -19.8539   20.6604 C   0  0  0  0  0  0
  -28.5341  -22.5051   20.6085 C   0  0  0  0  0  0
  -27.9347  -21.0391   24.1196 C   0  0  0  0  0  0
  -29.7520  -18.2963   20.0780 C   0  0  0  0  0  0
  -28.1018  -24.0846   19.8895 C   0  0  0  0  0  0
  -28.9728  -21.1987   20.0103 N   0  0  0  0  0  0
  -29.6140  -16.6495   20.4935 N   0  0  0  0  0  0
  -31.4476  -13.0858   19.2263 H   0  0  0  0  0  0
  -30.5041  -11.9712   20.1682 H   0  0  0  0  0  0
  -29.9446  -11.7816   17.7195 H   0  0  0  0  0  0
  -29.5612  -13.4850   17.6638 H   0  0  0  0  0  0
  -28.0658  -11.2843   19.1139 H   0  0  0  0  0  0
  -27.4276  -12.3262   17.8667 H   0  0  0  0  0  0
  -27.5076  -14.2411   19.3096 H   0  0  0  0  0  0
  -28.8045  -12.5690   21.5139 H   0  0  0  0  0  0
  -28.2299  -14.2118   21.6874 H   0  0  0  0  0  0
  -25.2758   -9.5690   22.4749 H   0  0  0  0  0  0
  -24.0005   -7.4626   22.7450 H   0  0  0  0  0  0
  -21.0836   -8.8746   19.8934 H   0  0  0  0  0  0
  -22.3675  -10.9651   19.6149 H   0  0  0  0  0  0
  -21.2014   -7.6136   23.9732 H   0  0  0  0  0  0
  -21.1489   -6.0494   25.9082 H   0  0  0  0  0  0
  -22.0604   -2.7600   23.2836 H   0  0  0  0  0  0
  -22.3989  -11.9813   22.4860 H   0  0  0  0  0  0
  -21.1026  -13.1191   22.2700 H   0  0  0  0  0  0
  -24.6280  -15.8489   20.5326 H   0  0  0  0  0  0
  -26.2334  -15.6389   20.0555 H   0  0  0  0  0  0
  -26.7410  -32.5069   23.0833 H   0  0  0  0  0  0
  -25.0106  -33.9431   25.0171 H   0  0  0  0  0  0
  -22.8035  -31.2565   21.3389 H   0  0  0  0  0  0
  -23.3754  -35.9539   23.3331 H   0  0  0  0  0  0
  -24.3546  -36.8818   22.2054 H   0  0  0  0  0  0
  -23.7278  -37.6404   23.6687 H   0  0  0  0  0  0
  -26.2477  -31.3300   20.6233 H   0  0  0  0  0  0
  -26.9132  -30.6550   22.0688 H   0  0  0  0  0  0
  -28.1333  -28.5119   21.3390 H   0  0  0  0  0  0
  -25.8774  -25.7076   18.9799 H   0  0  0  0  0  0
  -24.0313  -27.2643   18.9111 H   0  0  0  0  0  0
  -23.8968  -30.5012   19.3827 H   0  0  0  0  0  0
  -22.8404  -29.1933   19.8179 H   0  0  0  0  0  0
  -25.1355  -36.1744   25.0785 H   0  0  0  0  0  0
  -21.0053  -28.3328   24.1299 H   0  0  0  0  0  0
  -20.5649  -26.2357   23.3657 H   0  0  0  0  0  0
  -21.6667  -26.7354   22.1232 H   0  0  0  0  0  0
  -19.6929  -25.6248   21.1268 H   0  0  0  0  0  0
  -19.6708  -27.3131   20.6716 H   0  0  0  0  0  0
  -17.4241  -26.6682   21.4003 H   0  0  0  0  0  0
  -18.0339  -26.0066   22.9004 H   0  0  0  0  0  0
  -19.7979  -30.7309   24.2178 H   0  0  0  0  0  0
  -17.5041  -31.6244   24.5166 H   0  0  0  0  0  0
  -15.5382  -30.2940   23.7685 H   0  0  0  0  0  0
  -15.8724  -28.0775   22.7106 H   0  0  0  0  0  0
  -24.5886  -30.7119   25.7647 H   0  0  0  0  0  0
  -24.8842  -32.3027   26.4565 H   0  0  0  0  0  0
  -25.7885  -30.9103   27.0224 H   0  0  0  0  0  0
  -26.3160  -29.6531   24.1460 H   0  0  0  0  0  0
  -27.3959  -29.7246   25.5153 H   0  0  0  0  0  0
  -27.9124  -30.4032   23.9939 H   0  0  0  0  0  0
  -27.2611  -33.3693   26.1922 H   0  0  0  0  0  0
  -28.3949  -32.6811   25.0386 H   0  0  0  0  0  0
  -28.0631  -31.8567   26.5541 H   0  0  0  0  0  0
  -28.2616  -38.0038   24.7445 H   0  0  0  0  0  0
  -28.1023  -36.2561   24.6415 H   0  0  0  0  0  0
  -27.2262  -37.1555   25.8877 H   0  0  0  0  0  0
  -20.9650  -29.8734   21.6658 H   0  0  0  0  0  0
  -26.0142  -38.2758   24.1324 H   0  0  0  0  0  0
  -28.7985  -18.9835   22.5915 H   0  0  0  0  0  0
  -27.8793  -23.2171   22.5218 H   0  0  0  0  0  0
  -28.4793  -20.2501   24.6414 H   0  0  0  0  0  0
  -26.8681  -20.8332   24.2200 H   0  0  0  0  0  0
  -28.1443  -21.9813   24.6273 H   0  0  0  0  0  0
  -30.8297  -18.4595   20.0719 H   0  0  0  0  0  0
  -29.4869  -18.3000   19.0197 H   0  0  0  0  0  0
  -27.0487  -23.9407   19.6536 H   0  0  0  0  0  0
  -28.5964  -24.0677   18.9181 H   0  0  0  0  0  0
  -28.6676  -16.4540   20.7868 H   0  0  0  0  0  0
  1 25  1  0  0  0
  1 30  2  0  0  0
  1 80  1  0  0  0
  2  3  1  0  0  0
  2 25  1  0  0  0
  2 81  1  0  0  0
  2 82  1  0  0  0
  3  4  1  0  0  0
  3 83  1  0  0  0
  3 84  1  0  0  0
  4  5  1  0  0  0
  4 85  1  0  0  0
  4 86  1  0  0  0
  5  6  1  0  0  0
  5 26  1  0  0  0
  5 87  1  0  0  0
  6 25  1  0  0  0
  6 88  1  0  0  0
  6 89  1  0  0  0
  7  8  2  0  0  0
  7 26  1  0  0  0
  7 29  1  0  0  0
  8  9  1  0  0  0
  8 22  1  0  0  0
  9 10  1  0  0  0
  9 27  2  0  0  0
 10 11  2  0  0  0
 10 15  1  0  0  0
 11 12  1  0  0  0
 11 90  1  0  0  0
 12 13  2  0  0  0
 12 91  1  0  0  0
 13 14  1  0  0  0
 13 31  1  0  0  0
 14 15  2  0  0  0
 14 92  1  0  0  0
 15 93  1  0  0  0
 16 17  2  0  0  0
 16 21  1  0  0  0
 16 31  1  0  0  0
 17 18  1  0  0  0
 17 94  1  0  0  0
 18 19  2  0  0  0
 18 95  1  0  0  0
 19 20  1  0  0  0
 19 24  1  0  0  0
 20 21  2  0  0  0
 20 96  1  0  0  0
 21 23  1  0  0  0
 22 28  1  0  0  0
 22 32  2  0  0  0
 26 27  1  0  0  0
 28 97  1  0  0  0
 28 98  1  0  0  0
 29 99  1  0  0  0
 29100  1  0  0  0
 33 34  1  0  0  0
 33 66  1  0  0  0
 33 70  2  0  0  0
 34 36  1  0  0  0
 34 59  1  0  0  0
 34101  1  0  0  0
 35 44  2  0  0  0
 35 45  1  0  0  0
 35 68  1  0  0  0
 36 56  1  0  0  0
 36102  1  0  0  0
 37 39  1  0  0  0
 37 47  1  0  0  0
 37 66  1  0  0  0
 37103  1  0  0  0
 38 43  2  0  0  0
 38 46  1  0  0  0
 38 47  1  0  0  0
 39 64  1  0  0  0
 39 67  2  0  0  0
 40 52  1  0  0  0
 40 53  2  0  0  0
 40 58  1  0  0  0
 41104  1  0  0  0
 41105  1  0  0  0
 41106  1  0  0  0
 41 48  1  0  0  0
 42 43  1  0  0  0
 42 66  1  0  0  0
 42107  1  0  0  0
 42108  1  0  0  0
 43 44  1  0  0  0
 44109  1  0  0  0
 45 46  2  0  0  0
 45110  1  0  0  0
 46111  1  0  0  0
 47112  1  0  0  0
 47113  1  0  0  0
 48 56  1  0  0  0
 48 65  1  0  0  0
 48114  1  0  0  0
 49 50  1  0  0  0
 49 53  1  0  0  0
 49 64  1  0  0  0
 49115  1  0  0  0
 50 51  1  0  0  0
 50116  1  0  0  0
 50117  1  0  0  0
 51 52  1  0  0  0
 51118  1  0  0  0
 51119  1  0  0  0
 52120  1  0  0  0
 52121  1  0  0  0
 53 54  1  0  0  0
 54 55  2  0  0  0
 54122  1  0  0  0
 55 57  1  0  0  0
 55123  1  0  0  0
 56 69  2  0  0  0
 57 58  2  0  0  0
 57124  1  0  0  0
 58125  1  0  0  0
 59 60  1  0  0  0
 59 61  1  0  0  0
 59 62  1  0  0  0
 60126  1  0  0  0
 60127  1  0  0  0
 60128  1  0  0  0
 61129  1  0  0  0
 61130  1  0  0  0
 61131  1  0  0  0
 62132  1  0  0  0
 62133  1  0  0  0
 62134  1  0  0  0
 63 65  1  0  0  0
 63135  1  0  0  0
 63136  1  0  0  0
 63137  1  0  0  0
 64138  1  0  0  0
 65139  1  0  0  0
 68 78  1  0  0  0
 71 73  2  0  0  0
 71 74  1  0  0  0
 71140  1  0  0  0
 72 73  1  0  0  0
 72 75  2  0  0  0
 72141  1  0  0  0
 73 76  1  0  0  0
 74 77  1  0  0  0
 74 79  2  0  0  0
 75 78  1  0  0  0
 75 79  1  0  0  0
 76142  1  0  0  0
 76143  1  0  0  0
 76144  1  0  0  0
 77 80  1  0  0  0
 77145  1  0  0  0
 77146  1  0  0  0
 78147  1  0  0  0
 78148  1  0  0  0
 80149  1  0  0  0
M  ISO  4   1 100  68 101  78 101  80 100
M  END
> <chiral flag>
0

> <version>
0

> <s_m_source_file>
/data/baiqing/PycharmProjects/Reinvent-master-3.2/result/LINK_invent/BTK/process_docking_weight1_custom_sum_contain_oxygen_bond_distance_aromatic_linkinvent_7_9_3/rearranged_h_0127.sdf

> <i_m_source_file_index>
19

> <r_mmod_Potential_Energy-OPLS-2005>
1294.98950195312

> <r_mmod_Stretch_Energy-OPLS-2005>
699.27490234375

> <r_mmod_Bend_Energy-OPLS-2005>
478.466705322266

> <r_mmod_Torsional_Energy-OPLS-2005>
214.542678833008

> <r_mmod_Improper_Torsional_Energy-OPLS-2005>
5.74660348892212

> <r_mmod_Van_der_Waal_Energy-OPLS-2005>
123.176948547363

> <r_mmod_Electrostatic_Energy-OPLS-2005>
-563.090637207031

> <r_mmod_Solvation_Energy-OPLS-2005>
-240.274658203125

> <b_mmod_Minimization_Converged-OPLS-2005>
0

> <r_mmod_RMS_Derivative-OPLS-2005>
2.56743669509888

$$$$
19
                    3D
 Structure written by MMmdl.
161170  0  0  1  0            999 V2000
  -30.5978  -14.7669   20.4700 C   0  0  0  0  0  0
  -30.4355  -12.4737   19.4728 C   0  0  0  0  0  0
  -29.5092  -12.5058   18.2369 C   0  0  0  0  0  0
  -28.0379  -12.3221   18.6554 C   0  0  0  0  0  0
  -27.6402  -13.2286   19.8499 C   0  0  2  0  0  0
  -28.6843  -13.1713   20.9849 C   0  0  0  0  0  0
  -25.2508  -13.8182   20.5703 C   0  0  0  0  0  0
  -24.1796  -13.0439   20.9226 C   0  0  0  0  0  0
  -24.6387  -11.6918   20.8769 C   0  0  0  0  0  0
  -23.9064  -10.4297   21.0421 C   0  0  0  0  0  0
  -24.3618   -9.4212   21.9197 C   0  0  0  0  0  0
  -23.6300   -8.2241   22.0755 C   0  0  0  0  0  0
  -22.4281   -8.0283   21.3544 C   0  0  0  0  0  0
  -21.9916   -9.0256   20.4646 C   0  0  0  0  0  0
  -22.7239  -10.2138   20.3065 C   0  0  0  0  0  0
  -21.6850   -6.0741   22.5285 C   0  0  0  0  0  0
  -21.4007   -6.5645   23.8220 C   0  0  0  0  0  0
  -21.3662   -5.6794   24.9181 C   0  0  0  0  0  0
  -21.6042   -4.3058   24.7225 C   0  0  0  0  0  0
  -21.8819   -3.8152   23.4348 C   0  0  0  0  0  0
  -21.9193   -4.6970   22.3406 C   0  0  0  0  0  0
  -22.7822  -13.5229   21.1889 C   0  0  0  0  0  0
  -22.1663   -4.2158   21.0981 F   0  0  0  0  0  0
  -21.5632   -3.4541   25.7736 F   0  0  0  0  0  0
  -29.9794  -13.5370   20.3983 N   0  0  0  0  0  0
  -26.2929  -12.9384   20.3284 N   0  0  0  0  0  0
  -25.9316  -11.6534   20.5762 N   0  0  0  0  0  0
  -22.0463  -12.8211   22.0432 N   0  0  0  0  0  0
  -25.4205  -15.1901   20.4103 N   0  0  0  0  0  0
  -31.7907  -14.8668   20.1703 O   0  0  0  0  0  0
  -21.6643   -6.8883   21.4245 O   0  0  0  0  0  0
  -22.3520  -14.5542   20.6741 O   0  0  0  0  0  0
  -24.6332  -31.8526   23.1964 C   0  0  0  0  0  0
  -25.9139  -32.4742   23.8328 C   0  0  1  0  0  0
  -27.2165  -27.2450   20.1445 C   0  0  0  0  0  0
  -25.5927  -33.8547   24.2248 N   0  0  0  0  0  0
  -23.4315  -30.4749   21.5394 C   0  0  2  0  0  0
  -24.8780  -28.9159   20.1133 C   0  0  0  0  0  0
  -22.7516  -29.4596   22.4900 C   0  0  0  0  0  0
  -18.0297  -28.1398   22.8483 C   0  0  0  0  0  0
  -24.1486  -36.7281   23.2645 C   0  0  0  0  0  0
  -25.9782  -30.7643   21.3753 C   0  0  0  0  0  0
  -26.0517  -29.3840   20.7199 C   0  0  0  0  0  0
  -27.2278  -28.5640   20.7151 C   0  0  0  0  0  0
  -26.0195  -26.8439   19.5149 C   0  0  0  0  0  0
  -24.8682  -27.6547   19.4977 C   0  0  0  0  0  0
  -23.6503  -29.8058   20.1567 C   0  0  0  0  0  0
  -25.4110  -36.3066   24.0330 C   0  0  1  0  0  0
  -20.5904  -28.3711   23.1263 C   0  0  2  0  0  0
  -20.6782  -26.9424   22.5408 C   0  0  0  0  0  0
  -19.5755  -26.6390   21.5215 C   0  0  0  0  0  0
  -18.1936  -26.7941   22.1622 C   0  0  0  0  0  0
  -19.1551  -28.8871   23.2868 C   0  0  0  0  0  0
  -18.9468  -30.1470   23.8888 C   0  0  0  0  0  0
  -17.6466  -30.6593   24.0569 C   0  0  0  0  0  0
  -25.9052  -34.9434   23.5093 C   0  0  0  0  0  0
  -16.5361  -29.9088   23.6338 C   0  0  0  0  0  0
  -16.7283  -28.6510   23.0355 C   0  0  0  0  0  0
  -26.4505  -31.6583   25.0730 C   0  0  0  0  0  0
  -25.3733  -31.3727   26.1455 C   0  0  0  0  0  0
  -27.0356  -30.3003   24.6224 C   0  0  0  0  0  0
  -27.6053  -32.4344   25.7489 C   0  0  0  0  0  0
  -27.5572  -37.1796   24.8467 C   0  0  0  0  0  0
  -21.4221  -29.3054   22.3641 N   0  0  0  0  0  0
  -26.4281  -37.3771   23.9413 N   0  0  0  0  0  0
  -24.7007  -31.0489   22.0936 N   0  0  0  0  0  0
  -23.4202  -28.8134   23.3006 O   0  0  0  0  0  0
  -28.3047  -26.3413   20.1571 O   0  0  0  0  0  0
  -26.5633  -34.8912   22.4668 O   0  0  0  0  0  0
  -23.5477  -32.1341   23.7250 O   0  0  0  0  0  0
  -29.0531  -22.3602   17.8522 C   0  0  0  0  0  0
  -29.2257  -21.1767   18.5918 C   0  0  0  0  0  0
  -28.7551  -23.5879   18.4833 C   0  0  0  0  0  0
  -28.6091  -23.6074   19.8944 C   0  0  0  0  0  0
  -29.1142  -21.2002   19.9882 C   0  0  0  0  0  0
  -29.3636  -25.0328   16.3601 C   0  0  0  0  0  0
  -29.6034  -25.9046   17.5656 C   0  0  0  0  0  0
  -28.5617  -24.8098   17.6277 C   0  0  0  0  0  0
  -30.4961  -17.6202   22.3408 C   0  0  0  0  0  0
  -28.0856  -24.9276   20.6532 C   0  0  0  0  0  0
  -29.2164  -18.5420   20.2758 C   0  0  0  0  0  0
  -30.2100  -17.3790   20.8482 C   0  0  2  0  0  0
  -28.8060  -22.4102   20.6061 N   0  0  0  0  0  0
  -29.3636  -19.9901   20.7466 N   0  0  0  0  0  0
  -29.8187  -15.8993   20.6929 N   0  0  0  0  0  0
  -31.4739  -12.6116   19.1665 H   0  0  0  0  0  0
  -30.3946  -11.4996   19.9629 H   0  0  0  0  0  0
  -29.7973  -11.7268   17.5299 H   0  0  0  0  0  0
  -29.6264  -13.4549   17.7117 H   0  0  0  0  0  0
  -27.9057  -11.2749   18.9299 H   0  0  0  0  0  0
  -27.3759  -12.4988   17.8072 H   0  0  0  0  0  0
  -27.6316  -14.2475   19.4630 H   0  0  0  0  0  0
  -28.7285  -12.1741   21.4258 H   0  0  0  0  0  0
  -28.4135  -13.8507   21.7945 H   0  0  0  0  0  0
  -25.2762   -9.5695   22.4780 H   0  0  0  0  0  0
  -24.0019   -7.4629   22.7467 H   0  0  0  0  0  0
  -21.0857   -8.8776   19.8943 H   0  0  0  0  0  0
  -22.3705  -10.9684   19.6182 H   0  0  0  0  0  0
  -21.1990   -7.6152   23.9725 H   0  0  0  0  0  0
  -21.1483   -6.0523   25.9082 H   0  0  0  0  0  0
  -22.0591   -2.7615   23.2843 H   0  0  0  0  0  0
  -22.4079  -11.9864   22.4804 H   0  0  0  0  0  0
  -21.1082  -13.1232   22.2636 H   0  0  0  0  0  0
  -24.6499  -15.8414   20.5137 H   0  0  0  0  0  0
  -26.2587  -15.6264   20.0487 H   0  0  0  0  0  0
  -26.7209  -32.5388   23.1071 H   0  0  0  0  0  0
  -25.0081  -33.9691   25.0401 H   0  0  0  0  0  0
  -22.7303  -31.2983   21.3909 H   0  0  0  0  0  0
  -23.3748  -35.9615   23.3307 H   0  0  0  0  0  0
  -24.3580  -36.8901   22.2060 H   0  0  0  0  0  0
  -23.7227  -37.6475   23.6675 H   0  0  0  0  0  0
  -26.1195  -31.5235   20.6044 H   0  0  0  0  0  0
  -26.8544  -30.8141   22.0098 H   0  0  0  0  0  0
  -28.1301  -28.9210   21.1908 H   0  0  0  0  0  0
  -25.9587  -25.8745   19.0438 H   0  0  0  0  0  0
  -23.9694  -27.2895   19.0196 H   0  0  0  0  0  0
  -23.7773  -30.5800   19.3992 H   0  0  0  0  0  0
  -22.7679  -29.2404   19.8508 H   0  0  0  0  0  0
  -25.1289  -36.1916   25.0824 H   0  0  0  0  0  0
  -21.0007  -28.3288   24.1380 H   0  0  0  0  0  0
  -20.5685  -26.2320   23.3616 H   0  0  0  0  0  0
  -21.6644  -26.7442   22.1198 H   0  0  0  0  0  0
  -19.6912  -25.6298   21.1247 H   0  0  0  0  0  0
  -19.6687  -27.3198   20.6744 H   0  0  0  0  0  0
  -17.4206  -26.6700   21.4025 H   0  0  0  0  0  0
  -18.0324  -26.0086   22.9017 H   0  0  0  0  0  0
  -19.7944  -30.7294   24.2247 H   0  0  0  0  0  0
  -17.5019  -31.6269   24.5174 H   0  0  0  0  0  0
  -15.5361  -30.2986   23.7668 H   0  0  0  0  0  0
  -15.8685  -28.0828   22.7075 H   0  0  0  0  0  0
  -24.5922  -30.7054   25.7794 H   0  0  0  0  0  0
  -24.8905  -32.2888   26.4875 H   0  0  0  0  0  0
  -25.8055  -30.8919   27.0242 H   0  0  0  0  0  0
  -26.2940  -29.6745   24.1246 H   0  0  0  0  0  0
  -27.4034  -29.7276   25.4749 H   0  0  0  0  0  0
  -27.8824  -30.4282   23.9475 H   0  0  0  0  0  0
  -27.2658  -33.3665   26.2022 H   0  0  0  0  0  0
  -28.3865  -32.6872   25.0308 H   0  0  0  0  0  0
  -28.0725  -31.8506   26.5431 H   0  0  0  0  0  0
  -28.2594  -38.0092   24.7508 H   0  0  0  0  0  0
  -28.1058  -36.2618   24.6288 H   0  0  0  0  0  0
  -27.2298  -37.1434   25.8876 H   0  0  0  0  0  0
  -20.9413  -29.8767   21.6836 H   0  0  0  0  0  0
  -26.0156  -38.2844   24.1419 H   0  0  0  0  0  0
  -29.1465  -22.3160   16.7769 H   0  0  0  0  0  0
  -29.4710  -20.2709   18.0583 H   0  0  0  0  0  0
  -30.1589  -24.3361   16.1014 H   0  0  0  0  0  0
  -28.8563  -25.4938   15.5147 H   0  0  0  0  0  0
  -29.2499  -26.9327   17.5100 H   0  0  0  0  0  0
  -30.5304  -25.7580   18.1170 H   0  0  0  0  0  0
  -27.5128  -25.0945   17.5911 H   0  0  0  0  0  0
  -30.9315  -18.6052   22.5110 H   0  0  0  0  0  0
  -31.2072  -16.8914   22.7323 H   0  0  0  0  0  0
  -29.5855  -17.5515   22.9368 H   0  0  0  0  0  0
  -28.5405  -24.9025   21.6437 H   0  0  0  0  0  0
  -27.0246  -24.7667   20.8468 H   0  0  0  0  0  0
  -28.1972  -18.2587   20.5397 H   0  0  0  0  0  0
  -29.2450  -18.5013   19.1886 H   0  0  0  0  0  0
  -31.1600  -17.5039   20.3244 H   0  0  0  0  0  0
  -29.3140  -20.1035   21.7527 H   0  0  0  0  0  0
  -28.8409  -15.7011   20.8422 H   0  0  0  0  0  0
  1 25  1  0  0  0
  1 30  2  0  0  0
  1 85  1  0  0  0
  2  3  1  0  0  0
  2 25  1  0  0  0
  2 86  1  0  0  0
  2 87  1  0  0  0
  3  4  1  0  0  0
  3 88  1  0  0  0
  3 89  1  0  0  0
  4  5  1  0  0  0
  4 90  1  0  0  0
  4 91  1  0  0  0
  5  6  1  0  0  0
  5 26  1  0  0  0
  5 92  1  0  0  0
  6 25  1  0  0  0
  6 93  1  0  0  0
  6 94  1  0  0  0
  7  8  2  0  0  0
  7 26  1  0  0  0
  7 29  1  0  0  0
  8  9  1  0  0  0
  8 22  1  0  0  0
  9 10  1  0  0  0
  9 27  2  0  0  0
 10 11  2  0  0  0
 10 15  1  0  0  0
 11 12  1  0  0  0
 11 95  1  0  0  0
 12 13  2  0  0  0
 12 96  1  0  0  0
 13 14  1  0  0  0
 13 31  1  0  0  0
 14 15  2  0  0  0
 14 97  1  0  0  0
 15 98  1  0  0  0
 16 17  2  0  0  0
 16 21  1  0  0  0
 16 31  1  0  0  0
 17 18  1  0  0  0
 17 99  1  0  0  0
 18 19  2  0  0  0
 18100  1  0  0  0
 19 20  1  0  0  0
 19 24  1  0  0  0
 20 21  2  0  0  0
 20101  1  0  0  0
 21 23  1  0  0  0
 22 28  1  0  0  0
 22 32  2  0  0  0
 26 27  1  0  0  0
 28102  1  0  0  0
 28103  1  0  0  0
 29104  1  0  0  0
 29105  1  0  0  0
 33 34  1  0  0  0
 33 66  1  0  0  0
 33 70  2  0  0  0
 34 36  1  0  0  0
 34 59  1  0  0  0
 34106  1  0  0  0
 35 44  2  0  0  0
 35 45  1  0  0  0
 35 68  1  0  0  0
 36 56  1  0  0  0
 36107  1  0  0  0
 37 39  1  0  0  0
 37 47  1  0  0  0
 37 66  1  0  0  0
 37108  1  0  0  0
 38 43  2  0  0  0
 38 46  1  0  0  0
 38 47  1  0  0  0
 39 64  1  0  0  0
 39 67  2  0  0  0
 40 52  1  0  0  0
 40 53  2  0  0  0
 40 58  1  0  0  0
 41109  1  0  0  0
 41110  1  0  0  0
 41111  1  0  0  0
 41 48  1  0  0  0
 42 43  1  0  0  0
 42 66  1  0  0  0
 42112  1  0  0  0
 42113  1  0  0  0
 43 44  1  0  0  0
 44114  1  0  0  0
 45 46  2  0  0  0
 45115  1  0  0  0
 46116  1  0  0  0
 47117  1  0  0  0
 47118  1  0  0  0
 48 56  1  0  0  0
 48 65  1  0  0  0
 48119  1  0  0  0
 49 50  1  0  0  0
 49 53  1  0  0  0
 49 64  1  0  0  0
 49120  1  0  0  0
 50 51  1  0  0  0
 50121  1  0  0  0
 50122  1  0  0  0
 51 52  1  0  0  0
 51123  1  0  0  0
 51124  1  0  0  0
 52125  1  0  0  0
 52126  1  0  0  0
 53 54  1  0  0  0
 54 55  2  0  0  0
 54127  1  0  0  0
 55 57  1  0  0  0
 55128  1  0  0  0
 56 69  2  0  0  0
 57 58  2  0  0  0
 57129  1  0  0  0
 58130  1  0  0  0
 59 60  1  0  0  0
 59 61  1  0  0  0
 59 62  1  0  0  0
 60131  1  0  0  0
 60132  1  0  0  0
 60133  1  0  0  0
 61134  1  0  0  0
 61135  1  0  0  0
 61136  1  0  0  0
 62137  1  0  0  0
 62138  1  0  0  0
 62139  1  0  0  0
 63 65  1  0  0  0
 63140  1  0  0  0
 63141  1  0  0  0
 63142  1  0  0  0
 64143  1  0  0  0
 65144  1  0  0  0
 68 80  1  0  0  0
 71 72  2  0  0  0
 71 73  1  0  0  0
 71145  1  0  0  0
 72 75  1  0  0  0
 72146  1  0  0  0
 73 74  2  0  0  0
 73 78  1  0  0  0
 74 80  1  0  0  0
 74 83  1  0  0  0
 75 83  2  0  0  0
 75 84  1  0  0  0
 76 77  1  0  0  0
 76 78  1  0  0  0
 76147  1  0  0  0
 76148  1  0  0  0
 77 78  1  0  0  0
 77149  1  0  0  0
 77150  1  0  0  0
 78151  1  0  0  0
 79152  1  0  0  0
 79153  1  0  0  0
 79154  1  0  0  0
 79 82  1  0  0  0
 80155  1  0  0  0
 80156  1  0  0  0
 81 82  1  0  0  0
 81 84  1  0  0  0
 81157  1  0  0  0
 81158  1  0  0  0
 82 85  1  0  0  0
 82159  1  0  0  0
 84160  1  0  0  0
 85161  1  0  0  0
M  ISO  4   1 100  68 101  80 101  85 100
M  END
> <chiral flag>
0

> <version>
0

> <s_m_source_file>
/data/baiqing/PycharmProjects/Reinvent-master-3.2/result/LINK_invent/BTK/process_docking_weight1_custom_sum_contain_oxygen_bond_distance_aromatic_linkinvent_7_9_3/rearranged_h_0127.sdf

> <i_m_source_file_index>
20

> <r_mmod_Potential_Energy-OPLS-2005>
-25.0170822143555

> <r_mmod_Stretch_Energy-OPLS-2005>
135.216506958008

> <r_mmod_Bend_Energy-OPLS-2005>
179.061187744141

> <r_mmod_Torsional_Energy-OPLS-2005>
259.687744140625

> <r_mmod_Improper_Torsional_Energy-OPLS-2005>
5.80628490447998

> <r_mmod_Van_der_Waal_Energy-OPLS-2005>
134.349136352539

> <r_mmod_Electrostatic_Energy-OPLS-2005>
-605.6064453125

> <r_mmod_Solvation_Energy-OPLS-2005>
-228.473052978516

> <b_mmod_Minimization_Converged-OPLS-2005>
0

> <r_mmod_RMS_Derivative-OPLS-2005>
1.34914720058441

$$$$
20
                    3D
 Structure written by MMmdl.
152160  0  0  1  0            999 V2000
  -30.6331  -14.6493   20.4935 C   0  0  0  0  0  0
  -30.4232  -12.3942   19.4619 C   0  0  0  0  0  0
  -29.4994  -12.4987   18.2287 C   0  0  0  0  0  0
  -28.0226  -12.3406   18.6412 C   0  0  0  0  0  0
  -27.6451  -13.2229   19.8614 C   0  0  2  0  0  0
  -28.6876  -13.1040   20.9936 C   0  0  0  0  0  0
  -25.2518  -13.8173   20.5698 C   0  0  0  0  0  0
  -24.1800  -13.0427   20.9184 C   0  0  0  0  0  0
  -24.6381  -11.6903   20.8755 C   0  0  0  0  0  0
  -23.9062  -10.4283   21.0425 C   0  0  0  0  0  0
  -24.3616   -9.4199   21.9199 C   0  0  0  0  0  0
  -23.6292   -8.2235   22.0756 C   0  0  0  0  0  0
  -22.4285   -8.0267   21.3544 C   0  0  0  0  0  0
  -21.9915   -9.0246   20.4648 C   0  0  0  0  0  0
  -22.7240  -10.2121   20.3065 C   0  0  0  0  0  0
  -21.6847   -6.0737   22.5275 C   0  0  0  0  0  0
  -21.4019   -6.5640   23.8213 C   0  0  0  0  0  0
  -21.3658   -5.6791   24.9174 C   0  0  0  0  0  0
  -21.6049   -4.3059   24.7222 C   0  0  0  0  0  0
  -21.8814   -3.8155   23.4339 C   0  0  0  0  0  0
  -21.9190   -4.6966   22.3396 C   0  0  0  0  0  0
  -22.7834  -13.5207   21.1871 C   0  0  0  0  0  0
  -22.1662   -4.2151   21.0969 F   0  0  0  0  0  0
  -21.5622   -3.4547   25.7736 F   0  0  0  0  0  0
  -29.9973  -13.4376   20.4183 N   0  0  0  0  0  0
  -26.2943  -12.9370   20.3333 N   0  0  0  0  0  0
  -25.9313  -11.6518   20.5777 N   0  0  0  0  0  0
  -22.0511  -12.8166   22.0436 N   0  0  0  0  0  0
  -25.4219  -15.1899   20.4113 N   0  0  0  0  0  0
  -31.8099  -14.7710   20.1452 O   0  0  0  0  0  0
  -21.6634   -6.8878   21.4239 O   0  0  0  0  0  0
  -22.3504  -14.5524   20.6750 O   0  0  0  0  0  0
  -24.6287  -31.8557   23.2000 C   0  0  0  0  0  0
  -25.9124  -32.4752   23.8337 C   0  0  1  0  0  0
  -27.2181  -27.3018   20.0952 C   0  0  0  0  0  0
  -25.5925  -33.8550   24.2241 N   0  0  0  0  0  0
  -23.4246  -30.4801   21.5424 C   0  0  2  0  0  0
  -24.8687  -28.9386   20.1041 C   0  0  0  0  0  0
  -22.7494  -29.4570   22.4892 C   0  0  0  0  0  0
  -18.0275  -28.1381   22.8489 C   0  0  0  0  0  0
  -24.1471  -36.7301   23.2633 C   0  0  0  0  0  0
  -25.9677  -30.7775   21.3771 C   0  0  0  0  0  0
  -26.0380  -29.4052   20.7152 C   0  0  0  0  0  0
  -27.2133  -28.5956   20.7048 C   0  0  0  0  0  0
  -26.0128  -26.8798   19.4875 C   0  0  0  0  0  0
  -24.8595  -27.6840   19.4796 C   0  0  0  0  0  0
  -23.6407  -29.8237   20.1544 C   0  0  0  0  0  0
  -25.4092  -36.3052   24.0309 C   0  0  1  0  0  0
  -20.5876  -28.3668   23.1286 C   0  0  2  0  0  0
  -20.6750  -26.9378   22.5401 C   0  0  0  0  0  0
  -19.5717  -26.6363   21.5224 C   0  0  0  0  0  0
  -18.1900  -26.7926   22.1628 C   0  0  0  0  0  0
  -19.1535  -28.8851   23.2881 C   0  0  0  0  0  0
  -18.9475  -30.1461   23.8887 C   0  0  0  0  0  0
  -17.6474  -30.6584   24.0568 C   0  0  0  0  0  0
  -25.9041  -34.9431   23.5079 C   0  0  0  0  0  0
  -16.5364  -29.9084   23.6349 C   0  0  0  0  0  0
  -16.7270  -28.6502   23.0359 C   0  0  0  0  0  0
  -26.4510  -31.6598   25.0746 C   0  0  0  0  0  0
  -25.3734  -31.3758   26.1491 C   0  0  0  0  0  0
  -27.0382  -30.3011   24.6240 C   0  0  0  0  0  0
  -27.6049  -32.4382   25.7524 C   0  0  0  0  0  0
  -27.5579  -37.1754   24.8419 C   0  0  0  0  0  0
  -21.4196  -29.3040   22.3709 N   0  0  0  0  0  0
  -26.4230  -37.3787   23.9449 N   0  0  0  0  0  0
  -24.6932  -31.0541   22.0970 N   0  0  0  0  0  0
  -23.4218  -28.8063   23.2932 O   0  0  0  0  0  0
  -28.3415  -26.4575   20.1529 O   0  0  0  0  0  0
  -26.5599  -34.8912   22.4636 O   0  0  0  0  0  0
  -23.5444  -32.1377   23.7283 O   0  0  0  0  0  0
  -28.3483  -22.6859   19.0070 C   0  0  0  0  0  0
  -29.2556  -23.4929   21.0761 C   0  0  0  0  0  0
  -28.6625  -21.3374   19.3656 C   0  0  0  0  0  0
  -29.5728  -22.1445   21.4363 C   0  0  0  0  0  0
  -28.6504  -23.8081   19.8341 C   0  0  0  0  0  0
  -29.3082  -21.0281   20.5887 C   0  0  0  0  0  0
  -28.4764  -25.2740   19.2741 C   0  0  0  0  0  0
  -29.4345  -18.3817   20.3712 C   0  0  0  0  0  0
  -30.3298  -17.1854   20.9436 C   0  0  0  0  0  0
  -29.7344  -19.7141   20.9885 N   0  0  0  0  0  0
  -29.8739  -15.7547   20.7910 N   0  0  0  0  0  0
  -31.4683  -12.5030   19.1670 H   0  0  0  0  0  0
  -30.3404  -11.4079   19.9208 H   0  0  0  0  0  0
  -29.7634  -11.7369   17.4940 H   0  0  0  0  0  0
  -29.6441  -13.4632   17.7383 H   0  0  0  0  0  0
  -27.8604  -11.2895   18.8840 H   0  0  0  0  0  0
  -27.3667  -12.5642   17.7989 H   0  0  0  0  0  0
  -27.6555  -14.2539   19.5084 H   0  0  0  0  0  0
  -28.6995  -12.0908   21.3999 H   0  0  0  0  0  0
  -28.4362  -13.7600   21.8292 H   0  0  0  0  0  0
  -25.2766   -9.5660   22.4782 H   0  0  0  0  0  0
  -23.9997   -7.4617   22.7487 H   0  0  0  0  0  0
  -21.0847   -8.8780   19.8958 H   0  0  0  0  0  0
  -22.3727  -10.9667   19.6177 H   0  0  0  0  0  0
  -21.2028   -7.6154   23.9709 H   0  0  0  0  0  0
  -21.1483   -6.0534   25.9069 H   0  0  0  0  0  0
  -22.0597   -2.7619   23.2843 H   0  0  0  0  0  0
  -22.4143  -11.9773   22.4711 H   0  0  0  0  0  0
  -21.1168  -13.1203   22.2765 H   0  0  0  0  0  0
  -24.6548  -15.8443   20.5186 H   0  0  0  0  0  0
  -26.2685  -15.6273   20.0704 H   0  0  0  0  0  0
  -26.7191  -32.5393   23.1074 H   0  0  0  0  0  0
  -25.0135  -33.9704   25.0426 H   0  0  0  0  0  0
  -22.7207  -31.3028   21.4011 H   0  0  0  0  0  0
  -23.3743  -35.9617   23.3191 H   0  0  0  0  0  0
  -24.3582  -36.9053   22.2074 H   0  0  0  0  0  0
  -23.7214  -37.6454   23.6754 H   0  0  0  0  0  0
  -26.1015  -31.5383   20.6081 H   0  0  0  0  0  0
  -26.8466  -30.8239   22.0099 H   0  0  0  0  0  0
  -28.1152  -28.9444   21.1889 H   0  0  0  0  0  0
  -25.9065  -25.9038   19.0416 H   0  0  0  0  0  0
  -23.9604  -27.3239   19.0010 H   0  0  0  0  0  0
  -23.7669  -30.6090   19.4075 H   0  0  0  0  0  0
  -22.7579  -29.2623   19.8426 H   0  0  0  0  0  0
  -25.1243  -36.1863   25.0788 H   0  0  0  0  0  0
  -20.9978  -28.3217   24.1399 H   0  0  0  0  0  0
  -20.5667  -26.2243   23.3588 H   0  0  0  0  0  0
  -21.6612  -26.7379   22.1193 H   0  0  0  0  0  0
  -19.6859  -25.6267   21.1257 H   0  0  0  0  0  0
  -19.6673  -27.3173   20.6749 H   0  0  0  0  0  0
  -17.4160  -26.6703   21.4034 H   0  0  0  0  0  0
  -18.0287  -26.0052   22.9016 H   0  0  0  0  0  0
  -19.7948  -30.7301   24.2215 H   0  0  0  0  0  0
  -17.5017  -31.6271   24.5165 H   0  0  0  0  0  0
  -15.5365  -30.2988   23.7664 H   0  0  0  0  0  0
  -15.8661  -28.0838   22.7055 H   0  0  0  0  0  0
  -24.5923  -30.7059   25.7856 H   0  0  0  0  0  0
  -24.8912  -32.2948   26.4871 H   0  0  0  0  0  0
  -25.8089  -30.9014   27.0304 H   0  0  0  0  0  0
  -26.2989  -29.6742   24.1263 H   0  0  0  0  0  0
  -27.4067  -29.7297   25.4760 H   0  0  0  0  0  0
  -27.8833  -30.4274   23.9477 H   0  0  0  0  0  0
  -27.2655  -33.3753   26.1963 H   0  0  0  0  0  0
  -28.3953  -32.6848   25.0415 H   0  0  0  0  0  0
  -28.0611  -31.8605   26.5575 H   0  0  0  0  0  0
  -28.2424  -38.0206   24.7688 H   0  0  0  0  0  0
  -28.1254  -36.2762   24.5966 H   0  0  0  0  0  0
  -27.2348  -37.1064   25.8816 H   0  0  0  0  0  0
  -20.9342  -29.8884   21.7045 H   0  0  0  0  0  0
  -26.0084  -38.2808   24.1636 H   0  0  0  0  0  0
  -27.8990  -22.8593   18.0390 H   0  0  0  0  0  0
  -29.5187  -24.2947   21.7510 H   0  0  0  0  0  0
  -28.4389  -20.5466   18.6618 H   0  0  0  0  0  0
  -30.0599  -21.9842   22.3874 H   0  0  0  0  0  0
  -27.7532  -25.2574   18.4602 H   0  0  0  0  0  0
  -29.4074  -25.4607   18.7390 H   0  0  0  0  0  0
  -28.3804  -18.1576   20.5439 H   0  0  0  0  0  0
  -29.5594  -18.4421   19.2891 H   0  0  0  0  0  0
  -30.4240  -17.3306   22.0217 H   0  0  0  0  0  0
  -31.3419  -17.2909   20.5491 H   0  0  0  0  0  0
  -30.3079  -19.6726   21.8283 H   0  0  0  0  0  0
  -28.9110  -15.5685   21.0252 H   0  0  0  0  0  0
  1 25  1  0  0  0
  1 30  2  0  0  0
  1 81  1  0  0  0
  2  3  1  0  0  0
  2 25  1  0  0  0
  2 82  1  0  0  0
  2 83  1  0  0  0
  3  4  1  0  0  0
  3 84  1  0  0  0
  3 85  1  0  0  0
  4  5  1  0  0  0
  4 86  1  0  0  0
  4 87  1  0  0  0
  5  6  1  0  0  0
  5 26  1  0  0  0
  5 88  1  0  0  0
  6 25  1  0  0  0
  6 89  1  0  0  0
  6 90  1  0  0  0
  7  8  2  0  0  0
  7 26  1  0  0  0
  7 29  1  0  0  0
  8  9  1  0  0  0
  8 22  1  0  0  0
  9 10  1  0  0  0
  9 27  2  0  0  0
 10 11  2  0  0  0
 10 15  1  0  0  0
 11 12  1  0  0  0
 11 91  1  0  0  0
 12 13  2  0  0  0
 12 92  1  0  0  0
 13 14  1  0  0  0
 13 31  1  0  0  0
 14 15  2  0  0  0
 14 93  1  0  0  0
 15 94  1  0  0  0
 16 17  2  0  0  0
 16 21  1  0  0  0
 16 31  1  0  0  0
 17 18  1  0  0  0
 17 95  1  0  0  0
 18 19  2  0  0  0
 18 96  1  0  0  0
 19 20  1  0  0  0
 19 24  1  0  0  0
 20 21  2  0  0  0
 20 97  1  0  0  0
 21 23  1  0  0  0
 22 28  1  0  0  0
 22 32  2  0  0  0
 26 27  1  0  0  0
 28 98  1  0  0  0
 28 99  1  0  0  0
 29100  1  0  0  0
 29101  1  0  0  0
 33 34  1  0  0  0
 33 66  1  0  0  0
 33 70  2  0  0  0
 34 36  1  0  0  0
 34 59  1  0  0  0
 34102  1  0  0  0
 35 44  2  0  0  0
 35 45  1  0  0  0
 35 68  1  0  0  0
 36 56  1  0  0  0
 36103  1  0  0  0
 37 39  1  0  0  0
 37 47  1  0  0  0
 37 66  1  0  0  0
 37104  1  0  0  0
 38 43  2  0  0  0
 38 46  1  0  0  0
 38 47  1  0  0  0
 39 64  1  0  0  0
 39 67  2  0  0  0
 40 52  1  0  0  0
 40 53  2  0  0  0
 40 58  1  0  0  0
 41105  1  0  0  0
 41106  1  0  0  0
 41107  1  0  0  0
 41 48  1  0  0  0
 42 43  1  0  0  0
 42 66  1  0  0  0
 42108  1  0  0  0
 42109  1  0  0  0
 43 44  1  0  0  0
 44110  1  0  0  0
 45 46  2  0  0  0
 45111  1  0  0  0
 46112  1  0  0  0
 47113  1  0  0  0
 47114  1  0  0  0
 48 56  1  0  0  0
 48 65  1  0  0  0
 48115  1  0  0  0
 49 50  1  0  0  0
 49 53  1  0  0  0
 49 64  1  0  0  0
 49116  1  0  0  0
 50 51  1  0  0  0
 50117  1  0  0  0
 50118  1  0  0  0
 51 52  1  0  0  0
 51119  1  0  0  0
 51120  1  0  0  0
 52121  1  0  0  0
 52122  1  0  0  0
 53 54  1  0  0  0
 54 55  2  0  0  0
 54123  1  0  0  0
 55 57  1  0  0  0
 55124  1  0  0  0
 56 69  2  0  0  0
 57 58  2  0  0  0
 57125  1  0  0  0
 58126  1  0  0  0
 59 60  1  0  0  0
 59 61  1  0  0  0
 59 62  1  0  0  0
 60127  1  0  0  0
 60128  1  0  0  0
 60129  1  0  0  0
 61130  1  0  0  0
 61131  1  0  0  0
 61132  1  0  0  0
 62133  1  0  0  0
 62134  1  0  0  0
 62135  1  0  0  0
 63 65  1  0  0  0
 63136  1  0  0  0
 63137  1  0  0  0
 63138  1  0  0  0
 64139  1  0  0  0
 65140  1  0  0  0
 68 77  1  0  0  0
 71 73  2  0  0  0
 71 75  1  0  0  0
 71141  1  0  0  0
 72 74  1  0  0  0
 72 75  2  0  0  0
 72142  1  0  0  0
 73 76  1  0  0  0
 73143  1  0  0  0
 74 76  2  0  0  0
 74144  1  0  0  0
 75 77  1  0  0  0
 76 80  1  0  0  0
 77145  1  0  0  0
 77146  1  0  0  0
 78 79  1  0  0  0
 78 80  1  0  0  0
 78147  1  0  0  0
 78148  1  0  0  0
 79 81  1  0  0  0
 79149  1  0  0  0
 79150  1  0  0  0
 80151  1  0  0  0
 81152  1  0  0  0
M  ISO  4   1 100  68 101  77 101  81 100
M  END
> <chiral flag>
0

> <version>
0

> <s_m_source_file>
/data/baiqing/PycharmProjects/Reinvent-master-3.2/result/LINK_invent/BTK/process_docking_weight1_custom_sum_contain_oxygen_bond_distance_aromatic_linkinvent_7_9_3/rearranged_h_0127.sdf

> <i_m_source_file_index>
21

> <r_mmod_Potential_Energy-OPLS-2005>
6.39830541610718

> <r_mmod_Stretch_Energy-OPLS-2005>
80.6211547851562

> <r_mmod_Bend_Energy-OPLS-2005>
163.270812988281

> <r_mmod_Torsional_Energy-OPLS-2005>
201.040878295898

> <r_mmod_Improper_Torsional_Energy-OPLS-2005>
4.8228611946106

> <r_mmod_Van_der_Waal_Energy-OPLS-2005>
142.937774658203

> <r_mmod_Electrostatic_Energy-OPLS-2005>
-416.407012939453

> <r_mmod_Solvation_Energy-OPLS-2005>
-224.863861083984

> <b_mmod_Minimization_Converged-OPLS-2005>
0

> <r_mmod_RMS_Derivative-OPLS-2005>
3.12634038925171

$$$$
21
                    3D
 Structure written by MMmdl.
165173  0  0  1  0            999 V2000
  -30.7505  -14.5501   20.4195 C   0  0  0  0  0  0
  -30.3822  -12.3306   19.4483 C   0  0  0  0  0  0
  -29.4956  -12.4738   18.1987 C   0  0  0  0  0  0
  -28.0199  -12.3264   18.6162 C   0  0  0  0  0  0
  -27.6289  -13.2375   19.8148 C   0  0  2  0  0  0
  -28.6729  -13.2063   20.9524 C   0  0  0  0  0  0
  -25.2472  -13.8204   20.5679 C   0  0  0  0  0  0
  -24.1755  -13.0430   20.9168 C   0  0  0  0  0  0
  -24.6388  -11.6918   20.8734 C   0  0  0  0  0  0
  -23.9075  -10.4284   21.0443 C   0  0  0  0  0  0
  -24.3628   -9.4205   21.9218 C   0  0  0  0  0  0
  -23.6288   -8.2252   22.0772 C   0  0  0  0  0  0
  -22.4257   -8.0322   21.3577 C   0  0  0  0  0  0
  -21.9928   -9.0279   20.4659 C   0  0  0  0  0  0
  -22.7254  -10.2141   20.3096 C   0  0  0  0  0  0
  -21.6842   -6.0746   22.5294 C   0  0  0  0  0  0
  -21.4007   -6.5647   23.8238 C   0  0  0  0  0  0
  -21.3628   -5.6787   24.9180 C   0  0  0  0  0  0
  -21.6019   -4.3044   24.7218 C   0  0  0  0  0  0
  -21.8801   -3.8145   23.4333 C   0  0  0  0  0  0
  -21.9179   -4.6989   22.3404 C   0  0  0  0  0  0
  -22.7811  -13.5217   21.1833 C   0  0  0  0  0  0
  -22.1664   -4.2206   21.0986 F   0  0  0  0  0  0
  -21.5599   -3.4497   25.7716 F   0  0  0  0  0  0
  -29.9976  -13.4198   20.3609 N   0  0  0  0  0  0
  -26.2868  -12.9439   20.3140 N   0  0  0  0  0  0
  -25.9295  -11.6565   20.5627 N   0  0  0  0  0  0
  -22.0441  -12.8274   22.0424 N   0  0  0  0  0  0
  -25.4188  -15.1922   20.4136 N   0  0  0  0  0  0
  -31.9697  -14.4756   20.3023 O   0  0  0  0  0  0
  -21.6597   -6.8922   21.4272 O   0  0  0  0  0  0
  -22.3540  -14.5560   20.6700 O   0  0  0  0  0  0
  -24.6263  -31.8660   23.2061 C   0  0  0  0  0  0
  -25.9097  -32.4819   23.8412 C   0  0  1  0  0  0
  -27.2341  -27.3425   20.1029 C   0  0  0  0  0  0
  -25.5918  -33.8619   24.2343 N   0  0  0  0  0  0
  -23.4227  -30.4908   21.5470 C   0  0  2  0  0  0
  -24.8723  -28.9599   20.1133 C   0  0  0  0  0  0
  -22.7512  -29.4661   22.4938 C   0  0  0  0  0  0
  -18.0288  -28.1411   22.8474 C   0  0  0  0  0  0
  -24.1473  -36.7310   23.2643 C   0  0  0  0  0  0
  -25.9652  -30.8042   21.3772 C   0  0  0  0  0  0
  -26.0418  -29.4337   20.7205 C   0  0  0  0  0  0
  -27.2248  -28.6342   20.7120 C   0  0  0  0  0  0
  -26.0413  -26.9468   19.4431 C   0  0  0  0  0  0
  -24.8747  -27.7201   19.4647 C   0  0  0  0  0  0
  -23.6375  -29.8294   20.1634 C   0  0  0  0  0  0
  -25.4094  -36.3125   24.0347 C   0  0  1  0  0  0
  -20.5907  -28.3711   23.1251 C   0  0  2  0  0  0
  -20.6760  -26.9422   22.5393 C   0  0  0  0  0  0
  -19.5731  -26.6398   21.5200 C   0  0  0  0  0  0
  -18.1928  -26.7945   22.1627 C   0  0  0  0  0  0
  -19.1551  -28.8872   23.2854 C   0  0  0  0  0  0
  -18.9466  -30.1480   23.8875 C   0  0  0  0  0  0
  -17.6471  -30.6591   24.0576 C   0  0  0  0  0  0
  -25.9030  -34.9482   23.5149 C   0  0  0  0  0  0
  -16.5359  -29.9098   23.6337 C   0  0  0  0  0  0
  -16.7278  -28.6528   23.0317 C   0  0  0  0  0  0
  -26.4482  -31.6599   25.0769 C   0  0  0  0  0  0
  -25.3698  -31.3709   26.1468 C   0  0  0  0  0  0
  -27.0321  -30.3022   24.6222 C   0  0  0  0  0  0
  -27.6079  -32.4297   25.7519 C   0  0  0  0  0  0
  -27.5576  -37.1810   24.8474 C   0  0  0  0  0  0
  -21.4214  -29.3082   22.3666 N   0  0  0  0  0  0
  -26.4290  -37.3803   23.9414 N   0  0  0  0  0  0
  -24.6908  -31.0686   22.1011 N   0  0  0  0  0  0
  -23.4217  -28.8201   23.3020 O   0  0  0  0  0  0
  -28.3337  -26.4628   20.1672 O   0  0  0  0  0  0
  -26.5600  -34.8936   22.4719 O   0  0  0  0  0  0
  -23.5419  -32.1432   23.7373 O   0  0  0  0  0  0
  -28.8300  -18.7133   20.5766 C   0  0  0  0  0  0
  -30.6177  -19.5073   18.8054 C   0  0  0  0  0  0
  -28.5011  -20.2419   20.7618 C   0  0  0  0  0  0
  -30.2798  -20.9648   19.2292 C   0  0  0  0  0  0
  -29.8540  -18.2861   19.4733 C   0  0  1  0  0  0
  -28.7946  -21.1347   19.5327 C   0  0  2  0  0  0
  -31.5882  -16.6887   18.4971 C   0  0  0  0  0  0
  -31.7653  -17.4945   20.9323 C   0  0  0  0  0  0
  -28.9412  -23.7795   20.1301 C   0  0  0  0  0  0
  -28.0576  -25.0547   19.8016 C   0  0  0  0  0  0
  -30.8047  -17.0391   19.8057 C   0  0  0  0  0  0
  -30.1308  -15.7636   20.2668 N   0  0  0  0  0  0
  -28.2480  -22.5471   19.5751 N   0  3  0  0  0  0
  -31.4408  -12.3551   19.1757 H   0  0  0  0  0  0
  -30.2093  -11.3616   19.9170 H   0  0  0  0  0  0
  -29.7671  -11.7277   17.4481 H   0  0  0  0  0  0
  -29.6620  -13.4486   17.7364 H   0  0  0  0  0  0
  -27.8633  -11.2825   18.8816 H   0  0  0  0  0  0
  -27.3679  -12.5148   17.7616 H   0  0  0  0  0  0
  -27.6095  -14.2501   19.4143 H   0  0  0  0  0  0
  -28.6556  -12.2568   21.4872 H   0  0  0  0  0  0
  -28.4483  -13.9826   21.6871 H   0  0  0  0  0  0
  -25.2807   -9.5648   22.4727 H   0  0  0  0  0  0
  -23.9995   -7.4641   22.7511 H   0  0  0  0  0  0
  -21.0856   -8.8793   19.8973 H   0  0  0  0  0  0
  -22.3721  -10.9659   19.6169 H   0  0  0  0  0  0
  -21.2027   -7.6151   23.9770 H   0  0  0  0  0  0
  -21.1461   -6.0487   25.9065 H   0  0  0  0  0  0
  -22.0611   -2.7646   23.2791 H   0  0  0  0  0  0
  -22.3952  -11.9934   22.4868 H   0  0  0  0  0  0
  -21.1096  -13.1450   22.2565 H   0  0  0  0  0  0
  -24.6520  -15.8513   20.4895 H   0  0  0  0  0  0
  -26.2728  -15.6118   20.0714 H   0  0  0  0  0  0
  -26.7198  -32.5525   23.1199 H   0  0  0  0  0  0
  -25.0057  -33.9774   25.0482 H   0  0  0  0  0  0
  -22.7156  -31.3113   21.4033 H   0  0  0  0  0  0
  -23.3747  -35.9636   23.3320 H   0  0  0  0  0  0
  -24.3573  -36.8903   22.2061 H   0  0  0  0  0  0
  -23.7197  -37.6512   23.6630 H   0  0  0  0  0  0
  -26.0891  -31.5679   20.6082 H   0  0  0  0  0  0
  -26.8508  -30.8610   21.9983 H   0  0  0  0  0  0
  -28.1196  -28.9951   21.1992 H   0  0  0  0  0  0
  -25.9590  -26.0237   18.8930 H   0  0  0  0  0  0
  -23.9870  -27.3561   18.9646 H   0  0  0  0  0  0
  -23.7520  -30.6051   19.4057 H   0  0  0  0  0  0
  -22.7610  -29.2505   19.8665 H   0  0  0  0  0  0
  -25.1259  -36.2022   25.0841 H   0  0  0  0  0  0
  -20.9986  -28.3281   24.1368 H   0  0  0  0  0  0
  -20.5633  -26.2339   23.3613 H   0  0  0  0  0  0
  -21.6625  -26.7422   22.1204 H   0  0  0  0  0  0
  -19.6869  -25.6307   21.1234 H   0  0  0  0  0  0
  -19.6634  -27.3203   20.6733 H   0  0  0  0  0  0
  -17.4172  -26.6691   21.4052 H   0  0  0  0  0  0
  -18.0312  -26.0104   22.9051 H   0  0  0  0  0  0
  -19.7939  -30.7315   24.2202 H   0  0  0  0  0  0
  -17.5008  -31.6247   24.5220 H   0  0  0  0  0  0
  -15.5349  -30.2979   23.7653 H   0  0  0  0  0  0
  -15.8691  -28.0859   22.6970 H   0  0  0  0  0  0
  -24.5934  -30.7005   25.7757 H   0  0  0  0  0  0
  -24.8815  -32.2860   26.4844 H   0  0  0  0  0  0
  -25.8005  -30.8925   27.0275 H   0  0  0  0  0  0
  -26.2916  -29.6777   24.1214 H   0  0  0  0  0  0
  -27.3972  -29.7275   25.4747 H   0  0  0  0  0  0
  -27.8800  -30.4305   23.9483 H   0  0  0  0  0  0
  -27.2761  -33.3634   26.2063 H   0  0  0  0  0  0
  -28.3890  -32.6770   25.0318 H   0  0  0  0  0  0
  -28.0729  -31.8421   26.5440 H   0  0  0  0  0  0
  -28.2616  -38.0091   24.7520 H   0  0  0  0  0  0
  -28.1053  -36.2627   24.6304 H   0  0  0  0  0  0
  -27.2298  -37.1464   25.8881 H   0  0  0  0  0  0
  -20.9394  -29.8827   21.6908 H   0  0  0  0  0  0
  -26.0196  -38.2895   24.1407 H   0  0  0  0  0  0
  -27.8979  -18.1849   20.3674 H   0  0  0  0  0  0
  -29.1360  -18.3089   21.5386 H   0  0  0  0  0  0
  -31.6910  -19.4103   18.9359 H   0  0  0  0  0  0
  -30.4839  -19.4286   17.7217 H   0  0  0  0  0  0
  -29.1002  -20.6149   21.5946 H   0  0  0  0  0  0
  -27.4647  -20.3462   21.0831 H   0  0  0  0  0  0
  -30.6039  -21.6680   18.4580 H   0  0  0  0  0  0
  -30.8491  -21.2127   20.1243 H   0  0  0  0  0  0
  -29.2241  -17.9209   18.6577 H   0  0  0  0  0  0
  -28.2446  -20.6877   18.7034 H   0  0  0  0  0  0
  -30.9796  -16.0911   17.8173 H   0  0  0  0  0  0
  -32.4917  -16.1177   18.6987 H   0  0  0  0  0  0
  -31.9521  -17.5333   17.9184 H   0  0  0  0  0  0
  -32.5224  -16.7481   21.1624 H   0  0  0  0  0  0
  -31.2294  -17.6844   21.8625 H   0  0  0  0  0  0
  -32.3064  -18.4024   20.6839 H   0  0  0  0  0  0
  -29.0685  -23.6699   21.2089 H   0  0  0  0  0  0
  -29.9362  -23.8859   19.6965 H   0  0  0  0  0  0
  -27.0962  -24.7939   20.2434 H   0  0  0  0  0  0
  -27.9309  -25.0643   18.7195 H   0  0  0  0  0  0
  -29.1245  -15.7764   20.3533 H   0  0  0  0  0  0
  -28.0773  -22.7703   18.6047 H   0  0  0  0  0  0
  -27.3338  -22.4793   19.9962 H   0  0  0  0  0  0
  1 25  1  0  0  0
  1 30  2  0  0  0
  1 82  1  0  0  0
  2  3  1  0  0  0
  2 25  1  0  0  0
  2 84  1  0  0  0
  2 85  1  0  0  0
  3  4  1  0  0  0
  3 86  1  0  0  0
  3 87  1  0  0  0
  4  5  1  0  0  0
  4 88  1  0  0  0
  4 89  1  0  0  0
  5  6  1  0  0  0
  5 26  1  0  0  0
  5 90  1  0  0  0
  6 25  1  0  0  0
  6 91  1  0  0  0
  6 92  1  0  0  0
  7  8  2  0  0  0
  7 26  1  0  0  0
  7 29  1  0  0  0
  8  9  1  0  0  0
  8 22  1  0  0  0
  9 10  1  0  0  0
  9 27  2  0  0  0
 10 11  2  0  0  0
 10 15  1  0  0  0
 11 12  1  0  0  0
 11 93  1  0  0  0
 12 13  2  0  0  0
 12 94  1  0  0  0
 13 14  1  0  0  0
 13 31  1  0  0  0
 14 15  2  0  0  0
 14 95  1  0  0  0
 15 96  1  0  0  0
 16 17  2  0  0  0
 16 21  1  0  0  0
 16 31  1  0  0  0
 17 18  1  0  0  0
 17 97  1  0  0  0
 18 19  2  0  0  0
 18 98  1  0  0  0
 19 20  1  0  0  0
 19 24  1  0  0  0
 20 21  2  0  0  0
 20 99  1  0  0  0
 21 23  1  0  0  0
 22 28  1  0  0  0
 22 32  2  0  0  0
 26 27  1  0  0  0
 28100  1  0  0  0
 28101  1  0  0  0
 29102  1  0  0  0
 29103  1  0  0  0
 33 34  1  0  0  0
 33 66  1  0  0  0
 33 70  2  0  0  0
 34 36  1  0  0  0
 34 59  1  0  0  0
 34104  1  0  0  0
 35 44  2  0  0  0
 35 45  1  0  0  0
 35 68  1  0  0  0
 36 56  1  0  0  0
 36105  1  0  0  0
 37 39  1  0  0  0
 37 47  1  0  0  0
 37 66  1  0  0  0
 37106  1  0  0  0
 38 43  2  0  0  0
 38 46  1  0  0  0
 38 47  1  0  0  0
 39 64  1  0  0  0
 39 67  2  0  0  0
 40 52  1  0  0  0
 40 53  2  0  0  0
 40 58  1  0  0  0
 41107  1  0  0  0
 41108  1  0  0  0
 41109  1  0  0  0
 41 48  1  0  0  0
 42 43  1  0  0  0
 42 66  1  0  0  0
 42110  1  0  0  0
 42111  1  0  0  0
 43 44  1  0  0  0
 44112  1  0  0  0
 45 46  2  0  0  0
 45113  1  0  0  0
 46114  1  0  0  0
 47115  1  0  0  0
 47116  1  0  0  0
 48 56  1  0  0  0
 48 65  1  0  0  0
 48117  1  0  0  0
 49 50  1  0  0  0
 49 53  1  0  0  0
 49 64  1  0  0  0
 49118  1  0  0  0
 50 51  1  0  0  0
 50119  1  0  0  0
 50120  1  0  0  0
 51 52  1  0  0  0
 51121  1  0  0  0
 51122  1  0  0  0
 52123  1  0  0  0
 52124  1  0  0  0
 53 54  1  0  0  0
 54 55  2  0  0  0
 54125  1  0  0  0
 55 57  1  0  0  0
 55126  1  0  0  0
 56 69  2  0  0  0
 57 58  2  0  0  0
 57127  1  0  0  0
 58128  1  0  0  0
 59 60  1  0  0  0
 59 61  1  0  0  0
 59 62  1  0  0  0
 60129  1  0  0  0
 60130  1  0  0  0
 60131  1  0  0  0
 61132  1  0  0  0
 61133  1  0  0  0
 61134  1  0  0  0
 62135  1  0  0  0
 62136  1  0  0  0
 62137  1  0  0  0
 63 65  1  0  0  0
 63138  1  0  0  0
 63139  1  0  0  0
 63140  1  0  0  0
 64141  1  0  0  0
 65142  1  0  0  0
 68 80  1  0  0  0
 71 73  1  0  0  0
 71143  1  0  0  0
 71144  1  0  0  0
 71 75  1  0  0  0
 72 74  1  0  0  0
 72 75  1  0  0  0
 72145  1  0  0  0
 72146  1  0  0  0
 73 76  1  0  0  0
 73147  1  0  0  0
 73148  1  0  0  0
 74 76  1  0  0  0
 74149  1  0  0  0
 74150  1  0  0  0
 75 81  1  0  0  0
 75151  1  0  0  0
 76 83  1  0  0  0
 76152  1  0  0  0
 77153  1  0  0  0
 77154  1  0  0  0
 77155  1  0  0  0
 77 81  1  0  0  0
 78 81  1  0  0  0
 78156  1  0  0  0
 78157  1  0  0  0
 78158  1  0  0  0
 79 80  1  0  0  0
 79 83  1  0  0  0
 79159  1  0  0  0
 79160  1  0  0  0
 80161  1  0  0  0
 80162  1  0  0  0
 81 82  1  0  0  0
 82163  1  0  0  0
 83164  1  0  0  0
 83165  1  0  0  0
M  CHG  1  83   1
M  ISO  4   1 100  68 101  80 101  82 100
M  END
> <chiral flag>
0

> <version>
0

> <s_m_source_file>
/data/baiqing/PycharmProjects/Reinvent-master-3.2/result/LINK_invent/BTK/process_docking_weight1_custom_sum_contain_oxygen_bond_distance_aromatic_linkinvent_7_9_3/rearranged_h_0127.sdf

> <i_m_source_file_index>
22

> <r_mmod_Potential_Energy-OPLS-2005>
93.7645721435547

> <r_mmod_Stretch_Energy-OPLS-2005>
78.8766021728516

> <r_mmod_Bend_Energy-OPLS-2005>
191.949569702148

> <r_mmod_Torsional_Energy-OPLS-2005>
286.474517822266

> <r_mmod_Improper_Torsional_Energy-OPLS-2005>
8.97134208679199

> <r_mmod_Van_der_Waal_Energy-OPLS-2005>
162.108581542969

> <r_mmod_Electrostatic_Energy-OPLS-2005>
-244.343902587891

> <r_mmod_Solvation_Energy-OPLS-2005>
-452.532806396484

> <b_mmod_Minimization_Converged-OPLS-2005>
0

> <r_mmod_RMS_Derivative-OPLS-2005>
7.32433414459229

$$$$
22
                    3D
 Structure written by MMmdl.
147155  0  0  1  0            999 V2000
  -30.2678  -15.8568   20.3242 C   0  0  0  0  0  0
  -30.3927  -13.2570   19.5310 C   0  0  0  0  0  0
  -29.5470  -12.7100   18.3414 C   0  0  0  0  0  0
  -28.1440  -12.3042   18.8051 C   0  0  0  0  0  0
  -27.5837  -13.3338   19.8084 C   0  0  2  0  0  0
  -28.5857  -13.7827   20.9057 C   0  0  0  0  0  0
  -25.2276  -13.8332   20.5854 C   0  0  0  0  0  0
  -24.1688  -13.0444   20.9311 C   0  0  0  0  0  0
  -24.6424  -11.6964   20.8770 C   0  0  0  0  0  0
  -23.9134  -10.4298   21.0390 C   0  0  0  0  0  0
  -24.3663   -9.4210   21.9175 C   0  0  0  0  0  0
  -23.6320   -8.2253   22.0752 C   0  0  0  0  0  0
  -22.4300   -8.0292   21.3544 C   0  0  0  0  0  0
  -21.9950   -9.0268   20.4642 C   0  0  0  0  0  0
  -22.7297  -10.2138   20.3045 C   0  0  0  0  0  0
  -21.6862   -6.0743   22.5277 C   0  0  0  0  0  0
  -21.4021   -6.5643   23.8211 C   0  0  0  0  0  0
  -21.3661   -5.6795   24.9172 C   0  0  0  0  0  0
  -21.6044   -4.3057   24.7222 C   0  0  0  0  0  0
  -21.8818   -3.8150   23.4343 C   0  0  0  0  0  0
  -21.9196   -4.6969   22.3400 C   0  0  0  0  0  0
  -22.7694  -13.5152   21.1931 C   0  0  0  0  0  0
  -22.1662   -4.2154   21.0977 F   0  0  0  0  0  0
  -21.5627   -3.4540   25.7734 F   0  0  0  0  0  0
  -29.7137  -14.4750   20.2175 N   0  0  0  0  0  0
  -26.2747  -12.9709   20.3298 N   0  0  0  0  0  0
  -25.9381  -11.6749   20.5709 N   0  0  0  0  0  0
  -22.0367  -12.8120   22.0481 N   0  0  0  0  0  0
  -25.3854  -15.2078   20.4312 N   0  0  0  0  0  0
  -31.5027  -15.6774   20.2012 O   0  0  0  0  0  0
  -21.6654   -6.8893   21.4242 O   0  0  0  0  0  0
  -22.3362  -14.5446   20.6764 O   0  0  0  0  0  0
  -24.6986  -31.7815   23.1379 C   0  0  0  0  0  0
  -25.9492  -32.4374   23.7985 C   0  0  1  0  0  0
  -27.2302  -26.5427   20.2295 C   0  0  0  0  0  0
  -25.6007  -33.8208   24.1856 N   0  0  0  0  0  0
  -23.5322  -30.3760   21.4953 C   0  0  2  0  0  0
  -24.9911  -28.6836   20.1205 C   0  0  0  0  0  0
  -22.7834  -29.4215   22.4663 C   0  0  0  0  0  0
  -18.0349  -28.1431   22.8448 C   0  0  0  0  0  0
  -24.1493  -36.7109   23.2657 C   0  0  0  0  0  0
  -26.1189  -30.4610   21.4269 C   0  0  0  0  0  0
  -26.1819  -29.0083   20.7797 C   0  0  0  0  0  0
  -27.2778  -27.9702   20.7978 C   0  0  0  0  0  0
  -26.0064  -26.4687   19.5059 C   0  0  0  0  0  0
  -24.9520  -27.4420   19.4588 C   0  0  0  0  0  0
  -23.7950  -29.6585   20.1371 C   0  0  0  0  0  0
  -25.4150  -36.2839   24.0270 C   0  0  1  0  0  0
  -20.5992  -28.3797   23.1112 C   0  0  2  0  0  0
  -20.6805  -26.9440   22.5407 C   0  0  0  0  0  0
  -19.5784  -26.6365   21.5219 C   0  0  0  0  0  0
  -18.1966  -26.7956   22.1618 C   0  0  0  0  0  0
  -19.1620  -28.8941   23.2756 C   0  0  0  0  0  0
  -18.9524  -30.1521   23.8807 C   0  0  0  0  0  0
  -17.6512  -30.6609   24.0547 C   0  0  0  0  0  0
  -25.9142  -34.9235   23.4912 C   0  0  0  0  0  0
  -16.5399  -29.9088   23.6355 C   0  0  0  0  0  0
  -16.7328  -28.6512   23.0371 C   0  0  0  0  0  0
  -26.4620  -31.6479   25.0676 C   0  0  0  0  0  0
  -25.3643  -31.3844   26.1261 C   0  0  0  0  0  0
  -27.0580  -30.2800   24.6695 C   0  0  0  0  0  0
  -27.6037  -32.4380   25.7503 C   0  0  0  0  0  0
  -27.5556  -37.1708   24.8467 C   0  0  0  0  0  0
  -21.4467  -29.3012   22.3413 N   0  0  0  0  0  0
  -26.4260  -37.3619   23.9412 N   0  0  0  0  0  0
  -24.8085  -30.9101   22.0720 N   0  0  0  0  0  0
  -23.4203  -28.7841   23.3082 O   0  0  0  0  0  0
  -28.1711  -25.2519   20.3204 O   0  0  0  0  0  0
  -26.5805  -34.8845   22.4546 O   0  0  0  0  0  0
  -23.5970  -32.0965   23.6232 O   0  0  0  0  0  0
  -29.8879  -20.4661   19.6856 C   0  0  0  0  0  0
  -27.9692  -19.9954   20.5254 C   0  0  0  0  0  0
  -30.4428  -18.7933   20.0452 C   0  0  0  0  0  0
  -28.4776  -18.2898   20.8404 C   0  0  0  0  0  0
  -28.7797  -21.5379   20.4681 C   0  0  0  0  0  0
  -28.0510  -23.4252   20.1041 C   0  0  0  0  0  0
  -29.6840  -17.3757   20.2690 N   0  0  0  0  0  0
  -31.3683  -13.5347   19.1313 H   0  0  0  0  0  0
  -30.6083  -12.4639   20.2492 H   0  0  0  0  0  0
  -30.0486  -11.8644   17.8689 H   0  0  0  0  0  0
  -29.4650  -13.4850   17.5779 H   0  0  0  0  0  0
  -28.2185  -11.3301   19.2900 H   0  0  0  0  0  0
  -27.4736  -12.1783   17.9539 H   0  0  0  0  0  0
  -27.4087  -14.2173   19.1923 H   0  0  0  0  0  0
  -28.9049  -12.9505   21.5351 H   0  0  0  0  0  0
  -28.1065  -14.5000   21.5736 H   0  0  0  0  0  0
  -25.2800   -9.5683   22.4764 H   0  0  0  0  0  0
  -24.0017   -7.4647   22.7481 H   0  0  0  0  0  0
  -21.0878   -8.8799   19.8950 H   0  0  0  0  0  0
  -22.3754  -10.9680   19.6159 H   0  0  0  0  0  0
  -21.2016   -7.6152   23.9716 H   0  0  0  0  0  0
  -21.1483   -6.0524   25.9075 H   0  0  0  0  0  0
  -22.0595   -2.7612   23.2842 H   0  0  0  0  0  0
  -22.4021  -11.9802   22.4877 H   0  0  0  0  0  0
  -21.0969  -13.1102   22.2678 H   0  0  0  0  0  0
  -24.6150  -15.8567   20.5499 H   0  0  0  0  0  0
  -26.2354  -15.6543   20.1123 H   0  0  0  0  0  0
  -26.7589  -32.4804   23.0702 H   0  0  0  0  0  0
  -25.0042  -33.9220   24.9936 H   0  0  0  0  0  0
  -22.8666  -31.2173   21.2917 H   0  0  0  0  0  0
  -23.3781  -35.9410   23.3250 H   0  0  0  0  0  0
  -24.3555  -36.8852   22.2085 H   0  0  0  0  0  0
  -23.7227  -37.6251   23.6794 H   0  0  0  0  0  0
  -26.3387  -31.1750   20.6320 H   0  0  0  0  0  0
  -26.9636  -30.5345   22.0991 H   0  0  0  0  0  0
  -28.1686  -28.2294   21.3525 H   0  0  0  0  0  0
  -25.8133  -25.5381   18.9909 H   0  0  0  0  0  0
  -24.0579  -27.1821   18.9089 H   0  0  0  0  0  0
  -23.9835  -30.4121   19.3716 H   0  0  0  0  0  0
  -22.8965  -29.1332   19.8089 H   0  0  0  0  0  0
  -25.1365  -36.1575   25.0758 H   0  0  0  0  0  0
  -21.0070  -28.3435   24.1241 H   0  0  0  0  0  0
  -20.5654  -26.2425   23.3684 H   0  0  0  0  0  0
  -21.6665  -26.7357   22.1234 H   0  0  0  0  0  0
  -19.6937  -25.6253   21.1306 H   0  0  0  0  0  0
  -19.6732  -27.3127   20.6710 H   0  0  0  0  0  0
  -17.4237  -26.6701   21.4020 H   0  0  0  0  0  0
  -18.0347  -26.0119   22.9033 H   0  0  0  0  0  0
  -19.8000  -30.7359   24.2137 H   0  0  0  0  0  0
  -17.5063  -31.6280   24.5166 H   0  0  0  0  0  0
  -15.5397  -30.2962   23.7733 H   0  0  0  0  0  0
  -15.8729  -28.0801   22.7137 H   0  0  0  0  0  0
  -24.5863  -30.7162   25.7553 H   0  0  0  0  0  0
  -24.8798  -32.3081   26.4435 H   0  0  0  0  0  0
  -25.7779  -30.9168   27.0206 H   0  0  0  0  0  0
  -26.3328  -29.6361   24.1710 H   0  0  0  0  0  0
  -27.3965  -29.7314   25.5495 H   0  0  0  0  0  0
  -27.9323  -30.3888   24.0277 H   0  0  0  0  0  0
  -27.2558  -33.3774   26.1812 H   0  0  0  0  0  0
  -28.3980  -32.6794   25.0428 H   0  0  0  0  0  0
  -28.0561  -31.8695   26.5639 H   0  0  0  0  0  0
  -28.2527  -38.0045   24.7519 H   0  0  0  0  0  0
  -28.1097  -36.2564   24.6286 H   0  0  0  0  0  0
  -27.2272  -37.1329   25.8868 H   0  0  0  0  0  0
  -20.9810  -29.8645   21.6434 H   0  0  0  0  0  0
  -26.0070  -38.2657   24.1440 H   0  0  0  0  0  0
  -29.5696  -20.4340   18.6413 H   0  0  0  0  0  0
  -30.8115  -21.0437   19.6313 H   0  0  0  0  0  0
  -27.1595  -20.1586   21.2374 H   0  0  0  0  0  0
  -27.4334  -19.9361   19.5754 H   0  0  0  0  0  0
  -31.0627  -18.8886   20.9384 H   0  0  0  0  0  0
  -31.1673  -18.5649   19.2626 H   0  0  0  0  0  0
  -27.5875  -17.6844   20.6658 H   0  0  0  0  0  0
  -28.6135  -18.2320   21.9215 H   0  0  0  0  0  0
  -29.1787  -21.6640   21.4749 H   0  0  0  0  0  0
  -27.0604  -23.3092   20.5441 H   0  0  0  0  0  0
  -27.8517  -23.3763   19.0336 H   0  0  0  0  0  0
  1 25  1  0  0  0
  1 30  2  0  0  0
  1 77  1  0  0  0
  2  3  1  0  0  0
  2 25  1  0  0  0
  2 78  1  0  0  0
  2 79  1  0  0  0
  3  4  1  0  0  0
  3 80  1  0  0  0
  3 81  1  0  0  0
  4  5  1  0  0  0
  4 82  1  0  0  0
  4 83  1  0  0  0
  5  6  1  0  0  0
  5 26  1  0  0  0
  5 84  1  0  0  0
  6 25  1  0  0  0
  6 85  1  0  0  0
  6 86  1  0  0  0
  7  8  2  0  0  0
  7 26  1  0  0  0
  7 29  1  0  0  0
  8  9  1  0  0  0
  8 22  1  0  0  0
  9 10  1  0  0  0
  9 27  2  0  0  0
 10 11  2  0  0  0
 10 15  1  0  0  0
 11 12  1  0  0  0
 11 87  1  0  0  0
 12 13  2  0  0  0
 12 88  1  0  0  0
 13 14  1  0  0  0
 13 31  1  0  0  0
 14 15  2  0  0  0
 14 89  1  0  0  0
 15 90  1  0  0  0
 16 17  2  0  0  0
 16 21  1  0  0  0
 16 31  1  0  0  0
 17 18  1  0  0  0
 17 91  1  0  0  0
 18 19  2  0  0  0
 18 92  1  0  0  0
 19 20  1  0  0  0
 19 24  1  0  0  0
 20 21  2  0  0  0
 20 93  1  0  0  0
 21 23  1  0  0  0
 22 28  1  0  0  0
 22 32  2  0  0  0
 26 27  1  0  0  0
 28 94  1  0  0  0
 28 95  1  0  0  0
 29 96  1  0  0  0
 29 97  1  0  0  0
 33 34  1  0  0  0
 33 66  1  0  0  0
 33 70  2  0  0  0
 34 36  1  0  0  0
 34 59  1  0  0  0
 34 98  1  0  0  0
 35 44  2  0  0  0
 35 45  1  0  0  0
 35 68  1  0  0  0
 36 56  1  0  0  0
 36 99  1  0  0  0
 37 39  1  0  0  0
 37 47  1  0  0  0
 37 66  1  0  0  0
 37100  1  0  0  0
 38 43  2  0  0  0
 38 46  1  0  0  0
 38 47  1  0  0  0
 39 64  1  0  0  0
 39 67  2  0  0  0
 40 52  1  0  0  0
 40 53  2  0  0  0
 40 58  1  0  0  0
 41101  1  0  0  0
 41102  1  0  0  0
 41103  1  0  0  0
 41 48  1  0  0  0
 42 43  1  0  0  0
 42 66  1  0  0  0
 42104  1  0  0  0
 42105  1  0  0  0
 43 44  1  0  0  0
 44106  1  0  0  0
 45 46  2  0  0  0
 45107  1  0  0  0
 46108  1  0  0  0
 47109  1  0  0  0
 47110  1  0  0  0
 48 56  1  0  0  0
 48 65  1  0  0  0
 48111  1  0  0  0
 49 50  1  0  0  0
 49 53  1  0  0  0
 49 64  1  0  0  0
 49112  1  0  0  0
 50 51  1  0  0  0
 50113  1  0  0  0
 50114  1  0  0  0
 51 52  1  0  0  0
 51115  1  0  0  0
 51116  1  0  0  0
 52117  1  0  0  0
 52118  1  0  0  0
 53 54  1  0  0  0
 54 55  2  0  0  0
 54119  1  0  0  0
 55 57  1  0  0  0
 55120  1  0  0  0
 56 69  2  0  0  0
 57 58  2  0  0  0
 57121  1  0  0  0
 58122  1  0  0  0
 59 60  1  0  0  0
 59 61  1  0  0  0
 59 62  1  0  0  0
 60123  1  0  0  0
 60124  1  0  0  0
 60125  1  0  0  0
 61126  1  0  0  0
 61127  1  0  0  0
 61128  1  0  0  0
 62129  1  0  0  0
 62130  1  0  0  0
 62131  1  0  0  0
 63 65  1  0  0  0
 63132  1  0  0  0
 63133  1  0  0  0
 63134  1  0  0  0
 64135  1  0  0  0
 65136  1  0  0  0
 68 76  1  0  0  0
 71 73  1  0  0  0
 71 75  1  0  0  0
 71137  1  0  0  0
 71138  1  0  0  0
 72 74  1  0  0  0
 72 75  1  0  0  0
 72139  1  0  0  0
 72140  1  0  0  0
 73 77  1  0  0  0
 73141  1  0  0  0
 73142  1  0  0  0
 74 77  1  0  0  0
 74143  1  0  0  0
 74144  1  0  0  0
 75 76  1  0  0  0
 75145  1  0  0  0
 76146  1  0  0  0
 76147  1  0  0  0
M  ISO  4   1 100  68 101  76 101  77 100
M  END
> <chiral flag>
0

> <version>
0

> <s_m_source_file>
/data/baiqing/PycharmProjects/Reinvent-master-3.2/result/LINK_invent/BTK/process_docking_weight1_custom_sum_contain_oxygen_bond_distance_aromatic_linkinvent_7_9_3/rearranged_h_0127.sdf

> <i_m_source_file_index>
23

> <r_mmod_Potential_Energy-OPLS-2005>
3558.36840820312

> <r_mmod_Stretch_Energy-OPLS-2005>
1375.01708984375

> <r_mmod_Bend_Energy-OPLS-2005>
961.027893066406

> <r_mmod_Torsional_Energy-OPLS-2005>
310.429077148438

> <r_mmod_Improper_Torsional_Energy-OPLS-2005>
10.2289934158325

> <r_mmod_Van_der_Waal_Energy-OPLS-2005>
121.921272277832

> <r_mmod_Electrostatic_Energy-OPLS-2005>
-266.876007080078

> <r_mmod_Solvation_Energy-OPLS-2005>
-210.197875976562

> <b_mmod_Minimization_Converged-OPLS-2005>
0

> <r_mmod_RMS_Derivative-OPLS-2005>
0.203677028417587

$$$$
23
                    3D
 Structure written by MMmdl.
165174  0  0  1  0            999 V2000
  -30.6805  -14.5299   20.5092 C   0  0  0  0  0  0
  -30.4212  -12.3221   19.4518 C   0  0  0  0  0  0
  -29.5035  -12.4894   18.2217 C   0  0  0  0  0  0
  -28.0219  -12.3506   18.6262 C   0  0  0  0  0  0
  -27.6552  -13.2112   19.8651 C   0  0  2  0  0  0
  -28.6958  -13.0444   20.9984 C   0  0  0  0  0  0
  -25.2549  -13.8154   20.5668 C   0  0  0  0  0  0
  -24.1805  -13.0429   20.9169 C   0  0  0  0  0  0
  -24.6369  -11.6897   20.8724 C   0  0  0  0  0  0
  -23.9036  -10.4291   21.0403 C   0  0  0  0  0  0
  -24.3596   -9.4212   21.9181 C   0  0  0  0  0  0
  -23.6280   -8.2245   22.0751 C   0  0  0  0  0  0
  -22.4264   -8.0276   21.3541 C   0  0  0  0  0  0
  -21.9889   -9.0242   20.4644 C   0  0  0  0  0  0
  -22.7205  -10.2124   20.3052 C   0  0  0  0  0  0
  -21.6843   -6.0734   22.5268 C   0  0  0  0  0  0
  -21.4028   -6.5641   23.8207 C   0  0  0  0  0  0
  -21.3663   -5.6789   24.9166 C   0  0  0  0  0  0
  -21.6034   -4.3052   24.7212 C   0  0  0  0  0  0
  -21.8825   -3.8149   23.4341 C   0  0  0  0  0  0
  -21.9186   -4.6962   22.3400 C   0  0  0  0  0  0
  -22.7834  -13.5242   21.1833 C   0  0  0  0  0  0
  -22.1654   -4.2152   21.0980 F   0  0  0  0  0  0
  -21.5630   -3.4535   25.7727 F   0  0  0  0  0  0
  -30.0243  -13.3379   20.4397 N   0  0  0  0  0  0
  -26.2983  -12.9328   20.3310 N   0  0  0  0  0  0
  -25.9291  -11.6492   20.5743 N   0  0  0  0  0  0
  -22.0464  -12.8249   22.0389 N   0  0  0  0  0  0
  -25.4281  -15.1877   20.4100 N   0  0  0  0  0  0
  -31.8391  -14.6700   20.1075 O   0  0  0  0  0  0
  -21.6633   -6.8866   21.4237 O   0  0  0  0  0  0
  -22.3518  -14.5551   20.6672 O   0  0  0  0  0  0
  -24.6200  -31.8668   23.2098 C   0  0  0  0  0  0
  -25.9072  -32.4815   23.8407 C   0  0  1  0  0  0
  -27.2220  -27.3842   20.0911 C   0  0  0  0  0  0
  -25.5911  -33.8618   24.2334 N   0  0  0  0  0  0
  -23.4094  -30.4937   21.5530 C   0  0  2  0  0  0
  -24.8528  -28.9630   20.1139 C   0  0  0  0  0  0
  -22.7439  -29.4658   22.4967 C   0  0  0  0  0  0
  -18.0281  -28.1387   22.8494 C   0  0  0  0  0  0
  -24.1487  -36.7306   23.2639 C   0  0  0  0  0  0
  -25.9471  -30.8152   21.3743 C   0  0  0  0  0  0
  -26.0210  -29.4506   20.7117 C   0  0  0  0  0  0
  -27.2088  -28.6704   20.6958 C   0  0  0  0  0  0
  -26.0232  -26.9339   19.4815 C   0  0  0  0  0  0
  -24.8515  -27.7055   19.4970 C   0  0  0  0  0  0
  -23.6194  -29.8360   20.1657 C   0  0  0  0  0  0
  -25.4109  -36.3104   24.0337 C   0  0  1  0  0  0
  -20.5879  -28.3683   23.1297 C   0  0  2  0  0  0
  -20.6768  -26.9410   22.5411 C   0  0  0  0  0  0
  -19.5747  -26.6391   21.5208 C   0  0  0  0  0  0
  -18.1928  -26.7931   22.1626 C   0  0  0  0  0  0
  -19.1534  -28.8854   23.2888 C   0  0  0  0  0  0
  -18.9456  -30.1459   23.8903 C   0  0  0  0  0  0
  -17.6458  -30.6590   24.0573 C   0  0  0  0  0  0
  -25.9044  -34.9469   23.5130 C   0  0  0  0  0  0
  -16.5350  -29.9096   23.6328 C   0  0  0  0  0  0
  -16.7268  -28.6512   23.0347 C   0  0  0  0  0  0
  -26.4485  -31.6605   25.0751 C   0  0  0  0  0  0
  -25.3737  -31.3728   26.1492 C   0  0  0  0  0  0
  -27.0323  -30.3037   24.6166 C   0  0  0  0  0  0
  -27.6065  -32.4331   25.7500 C   0  0  0  0  0  0
  -27.5580  -37.1803   24.8462 C   0  0  0  0  0  0
  -21.4163  -29.3046   22.3704 N   0  0  0  0  0  0
  -26.4289  -37.3792   23.9413 N   0  0  0  0  0  0
  -24.6776  -31.0720   22.1037 N   0  0  0  0  0  0
  -23.4178  -28.8181   23.3017 O   0  0  0  0  0  0
  -28.3643  -26.5851   20.1185 O   0  0  0  0  0  0
  -26.5599  -34.8923   22.4689 O   0  0  0  0  0  0
  -23.5376  -32.1462   23.7444 O   0  0  0  0  0  0
  -30.6270  -24.5787   19.6486 C   0  0  0  0  0  0
  -31.6847  -23.6554   19.7367 C   0  0  0  0  0  0
  -31.4324  -22.3711   20.2908 C   0  0  0  0  0  0
  -29.3506  -24.2118   20.0979 C   0  0  0  0  0  0
  -30.1134  -22.0572   20.7142 C   0  0  0  0  0  0
  -32.5829  -21.3618   20.3947 C   0  0  0  0  0  0
  -33.0765  -24.0679   19.2582 C   0  0  0  0  0  0
  -33.9736  -21.9923   20.1973 C   0  0  0  0  0  0
  -29.7604  -20.7030   21.3837 C   0  0  0  0  0  0
  -28.1505  -25.1584   19.9075 C   0  0  0  0  0  0
  -30.1692  -16.9788   20.2500 C   0  0  0  0  0  0
  -29.7375  -18.1750   21.1595 C   0  0  0  0  0  0
  -29.1068  -22.9685   20.6031 N   0  0  0  0  0  0
  -29.9170  -15.6129   20.7832 N   0  0  0  0  0  0
  -33.9626  -22.9106   19.0457 N   0  3  0  0  0  0
  -29.8736  -19.5125   20.4940 N   0  3  0  0  0  0
  -31.4695  -12.4090   19.1611 H   0  0  0  0  0  0
  -30.3162  -11.3236   19.8800 H   0  0  0  0  0  0
  -29.7556  -11.7462   17.4640 H   0  0  0  0  0  0
  -29.6696  -13.4640   17.7613 H   0  0  0  0  0  0
  -27.8361  -11.2972   18.8384 H   0  0  0  0  0  0
  -27.3765  -12.6086   17.7866 H   0  0  0  0  0  0
  -27.6844  -14.2513   19.5371 H   0  0  0  0  0  0
  -28.6706  -12.0265   21.3898 H   0  0  0  0  0  0
  -28.4563  -13.6928   21.8438 H   0  0  0  0  0  0
  -25.2746   -9.5704   22.4737 H   0  0  0  0  0  0
  -23.9992   -7.4649   22.7478 H   0  0  0  0  0  0
  -21.0812   -8.8758   19.8952 H   0  0  0  0  0  0
  -22.3664  -10.9658   19.6154 H   0  0  0  0  0  0
  -21.2035   -7.6148   23.9716 H   0  0  0  0  0  0
  -21.1477   -6.0520   25.9071 H   0  0  0  0  0  0
  -22.0596   -2.7614   23.2830 H   0  0  0  0  0  0
  -22.4059  -11.9933   22.4839 H   0  0  0  0  0  0
  -21.1084  -13.1288   22.2562 H   0  0  0  0  0  0
  -24.6640  -15.8439   20.5299 H   0  0  0  0  0  0
  -26.2757  -15.6262   20.0734 H   0  0  0  0  0  0
  -26.7134  -32.5507   23.1158 H   0  0  0  0  0  0
  -25.0049  -33.9793   25.0467 H   0  0  0  0  0  0
  -22.7011  -31.3136   21.4159 H   0  0  0  0  0  0
  -23.3752  -35.9636   23.3311 H   0  0  0  0  0  0
  -24.3579  -36.8915   22.2051 H   0  0  0  0  0  0
  -23.7239  -37.6513   23.6652 H   0  0  0  0  0  0
  -26.0725  -31.5859   20.6128 H   0  0  0  0  0  0
  -26.8297  -30.8594   22.0001 H   0  0  0  0  0  0
  -28.1068  -29.0416   21.1698 H   0  0  0  0  0  0
  -25.9474  -25.9782   18.9866 H   0  0  0  0  0  0
  -23.9523  -27.3243   19.0321 H   0  0  0  0  0  0
  -23.7356  -30.6179   19.4147 H   0  0  0  0  0  0
  -22.7416  -29.2640   19.8588 H   0  0  0  0  0  0
  -25.1282  -36.1974   25.0828 H   0  0  0  0  0  0
  -20.9962  -28.3250   24.1422 H   0  0  0  0  0  0
  -20.5674  -26.2285   23.3603 H   0  0  0  0  0  0
  -21.6639  -26.7454   22.1205 H   0  0  0  0  0  0
  -19.6910  -25.6303   21.1241 H   0  0  0  0  0  0
  -19.6691  -27.3203   20.6739 H   0  0  0  0  0  0
  -17.4192  -26.6674   21.4034 H   0  0  0  0  0  0
  -18.0339  -26.0079   22.9030 H   0  0  0  0  0  0
  -19.7933  -30.7273   24.2270 H   0  0  0  0  0  0
  -17.5018  -31.6271   24.5173 H   0  0  0  0  0  0
  -15.5354  -30.2999   23.7657 H   0  0  0  0  0  0
  -15.8664  -28.0837   22.7053 H   0  0  0  0  0  0
  -24.5894  -30.7096   25.7822 H   0  0  0  0  0  0
  -24.8946  -32.2890   26.4956 H   0  0  0  0  0  0
  -25.8075  -30.8880   27.0244 H   0  0  0  0  0  0
  -26.2883  -29.6796   24.1199 H   0  0  0  0  0  0
  -27.4047  -29.7282   25.4650 H   0  0  0  0  0  0
  -27.8743  -30.4344   23.9365 H   0  0  0  0  0  0
  -27.2694  -33.3628   26.2096 H   0  0  0  0  0  0
  -28.3854  -32.6898   25.0306 H   0  0  0  0  0  0
  -28.0758  -31.8448   26.5397 H   0  0  0  0  0  0
  -28.2593  -38.0104   24.7515 H   0  0  0  0  0  0
  -28.1080  -36.2635   24.6280 H   0  0  0  0  0  0
  -27.2296  -37.1437   25.8864 H   0  0  0  0  0  0
  -20.9319  -29.8778   21.6940 H   0  0  0  0  0  0
  -26.0181  -38.2868   24.1430 H   0  0  0  0  0  0
  -30.7834  -25.5639   19.2289 H   0  0  0  0  0  0
  -32.4329  -20.5842   19.6445 H   0  0  0  0  0  0
  -32.5691  -20.8701   21.3685 H   0  0  0  0  0  0
  -33.5191  -24.7303   20.0030 H   0  0  0  0  0  0
  -33.0004  -24.6373   18.3309 H   0  0  0  0  0  0
  -34.7208  -21.2119   20.0456 H   0  0  0  0  0  0
  -34.2691  -22.5436   21.0910 H   0  0  0  0  0  0
  -28.7484  -20.7451   21.7885 H   0  0  0  0  0  0
  -30.4195  -20.5755   22.2428 H   0  0  0  0  0  0
  -27.3473  -24.8142   20.5634 H   0  0  0  0  0  0
  -27.8270  -24.9953   18.8791 H   0  0  0  0  0  0
  -31.2266  -17.0980   20.0044 H   0  0  0  0  0  0
  -29.6372  -17.0454   19.2988 H   0  0  0  0  0  0
  -30.3546  -18.1612   22.0610 H   0  0  0  0  0  0
  -28.7044  -18.0480   21.4882 H   0  0  0  0  0  0
  -28.9788  -15.4163   21.1013 H   0  0  0  0  0  0
  -34.8953  -23.2451   18.8686 H   0  0  0  0  0  0
  -33.6478  -22.4142   18.2296 H   0  0  0  0  0  0
  -30.7680  -19.5652   20.0401 H   0  0  0  0  0  0
  -29.1684  -19.6070   19.7799 H   0  0  0  0  0  0
  1 25  1  0  0  0
  1 30  2  0  0  0
  1 84  1  0  0  0
  2  3  1  0  0  0
  2 25  1  0  0  0
  2 87  1  0  0  0
  2 88  1  0  0  0
  3  4  1  0  0  0
  3 89  1  0  0  0
  3 90  1  0  0  0
  4  5  1  0  0  0
  4 91  1  0  0  0
  4 92  1  0  0  0
  5  6  1  0  0  0
  5 26  1  0  0  0
  5 93  1  0  0  0
  6 25  1  0  0  0
  6 94  1  0  0  0
  6 95  1  0  0  0
  7  8  2  0  0  0
  7 26  1  0  0  0
  7 29  1  0  0  0
  8  9  1  0  0  0
  8 22  1  0  0  0
  9 10  1  0  0  0
  9 27  2  0  0  0
 10 11  2  0  0  0
 10 15  1  0  0  0
 11 12  1  0  0  0
 11 96  1  0  0  0
 12 13  2  0  0  0
 12 97  1  0  0  0
 13 14  1  0  0  0
 13 31  1  0  0  0
 14 15  2  0  0  0
 14 98  1  0  0  0
 15 99  1  0  0  0
 16 17  2  0  0  0
 16 21  1  0  0  0
 16 31  1  0  0  0
 17 18  1  0  0  0
 17100  1  0  0  0
 18 19  2  0  0  0
 18101  1  0  0  0
 19 20  1  0  0  0
 19 24  1  0  0  0
 20 21  2  0  0  0
 20102  1  0  0  0
 21 23  1  0  0  0
 22 28  1  0  0  0
 22 32  2  0  0  0
 26 27  1  0  0  0
 28103  1  0  0  0
 28104  1  0  0  0
 29105  1  0  0  0
 29106  1  0  0  0
 33 34  1  0  0  0
 33 66  1  0  0  0
 33 70  2  0  0  0
 34 36  1  0  0  0
 34 59  1  0  0  0
 34107  1  0  0  0
 35 44  2  0  0  0
 35 45  1  0  0  0
 35 68  1  0  0  0
 36 56  1  0  0  0
 36108  1  0  0  0
 37 39  1  0  0  0
 37 47  1  0  0  0
 37 66  1  0  0  0
 37109  1  0  0  0
 38 43  2  0  0  0
 38 46  1  0  0  0
 38 47  1  0  0  0
 39 64  1  0  0  0
 39 67  2  0  0  0
 40 52  1  0  0  0
 40 53  2  0  0  0
 40 58  1  0  0  0
 41110  1  0  0  0
 41111  1  0  0  0
 41112  1  0  0  0
 41 48  1  0  0  0
 42 43  1  0  0  0
 42 66  1  0  0  0
 42113  1  0  0  0
 42114  1  0  0  0
 43 44  1  0  0  0
 44115  1  0  0  0
 45 46  2  0  0  0
 45116  1  0  0  0
 46117  1  0  0  0
 47118  1  0  0  0
 47119  1  0  0  0
 48 56  1  0  0  0
 48 65  1  0  0  0
 48120  1  0  0  0
 49 50  1  0  0  0
 49 53  1  0  0  0
 49 64  1  0  0  0
 49121  1  0  0  0
 50 51  1  0  0  0
 50122  1  0  0  0
 50123  1  0  0  0
 51 52  1  0  0  0
 51124  1  0  0  0
 51125  1  0  0  0
 52126  1  0  0  0
 52127  1  0  0  0
 53 54  1  0  0  0
 54 55  2  0  0  0
 54128  1  0  0  0
 55 57  1  0  0  0
 55129  1  0  0  0
 56 69  2  0  0  0
 57 58  2  0  0  0
 57130  1  0  0  0
 58131  1  0  0  0
 59 60  1  0  0  0
 59 61  1  0  0  0
 59 62  1  0  0  0
 60132  1  0  0  0
 60133  1  0  0  0
 60134  1  0  0  0
 61135  1  0  0  0
 61136  1  0  0  0
 61137  1  0  0  0
 62138  1  0  0  0
 62139  1  0  0  0
 62140  1  0  0  0
 63 65  1  0  0  0
 63141  1  0  0  0
 63142  1  0  0  0
 63143  1  0  0  0
 64144  1  0  0  0
 65145  1  0  0  0
 68 80  1  0  0  0
 71 72  2  0  0  0
 71 74  1  0  0  0
 71146  1  0  0  0
 72 73  1  0  0  0
 72 77  1  0  0  0
 73 75  2  0  0  0
 73 76  1  0  0  0
 74 80  1  0  0  0
 74 83  2  0  0  0
 75 79  1  0  0  0
 75 83  1  0  0  0
 76 78  1  0  0  0
 76147  1  0  0  0
 76148  1  0  0  0
 77 85  1  0  0  0
 77149  1  0  0  0
 77150  1  0  0  0
 78 85  1  0  0  0
 78151  1  0  0  0
 78152  1  0  0  0
 79 86  1  0  0  0
 79153  1  0  0  0
 79154  1  0  0  0
 80155  1  0  0  0
 80156  1  0  0  0
 81 82  1  0  0  0
 81 84  1  0  0  0
 81157  1  0  0  0
 81158  1  0  0  0
 82 86  1  0  0  0
 82159  1  0  0  0
 82160  1  0  0  0
 84161  1  0  0  0
 85162  1  0  0  0
 85163  1  0  0  0
 86164  1  0  0  0
 86165  1  0  0  0
M  CHG  2  85   1  86   1
M  ISO  4   1 100  68 101  80 101  84 100
M  END
> <chiral flag>
0

> <version>
0

> <s_m_source_file>
/data/baiqing/PycharmProjects/Reinvent-master-3.2/result/LINK_invent/BTK/process_docking_weight1_custom_sum_contain_oxygen_bond_distance_aromatic_linkinvent_7_9_3/rearranged_h_0127.sdf

> <i_m_source_file_index>
24

> <r_mmod_Potential_Energy-OPLS-2005>
-696.975036621094

> <r_mmod_Stretch_Energy-OPLS-2005>
50.7686996459961

> <r_mmod_Bend_Energy-OPLS-2005>
102.424781799316

> <r_mmod_Torsional_Energy-OPLS-2005>
224.291213989258

> <r_mmod_Improper_Torsional_Energy-OPLS-2005>
7.856276512146

> <r_mmod_Van_der_Waal_Energy-OPLS-2005>
162.552490234375

> <r_mmod_Electrostatic_Energy-OPLS-2005>
-256.338073730469

> <r_mmod_Solvation_Energy-OPLS-2005>
-1013.17041015625

> <b_mmod_Minimization_Converged-OPLS-2005>
0

> <r_mmod_RMS_Derivative-OPLS-2005>
2.61489415168762

$$$$
24
                    3D
 Structure written by MMmdl.
175183  0  0  1  0            999 V2000
  -30.7012  -14.4473   20.5501 C   0  0  0  0  0  0
  -30.4251  -12.2859   19.4151 C   0  0  0  0  0  0
  -29.5015  -12.5215   18.2013 C   0  0  0  0  0  0
  -28.0215  -12.3797   18.6069 C   0  0  0  0  0  0
  -27.6679  -13.1999   19.8772 C   0  0  2  0  0  0
  -28.7109  -12.9694   21.0005 C   0  0  0  0  0  0
  -25.2599  -13.8140   20.5653 C   0  0  0  0  0  0
  -24.1859  -13.0466   20.9274 C   0  0  0  0  0  0
  -24.6401  -11.6909   20.8776 C   0  0  0  0  0  0
  -23.9079  -10.4305   21.0456 C   0  0  0  0  0  0
  -24.3642   -9.4206   21.9227 C   0  0  0  0  0  0
  -23.6297   -8.2246   22.0786 C   0  0  0  0  0  0
  -22.4276   -8.0313   21.3592 C   0  0  0  0  0  0
  -21.9931   -9.0289   20.4705 C   0  0  0  0  0  0
  -22.7259  -10.2151   20.3097 C   0  0  0  0  0  0
  -21.6834   -6.0749   22.5288 C   0  0  0  0  0  0
  -21.4005   -6.5642   23.8227 C   0  0  0  0  0  0
  -21.3666   -5.6793   24.9192 C   0  0  0  0  0  0
  -21.6031   -4.3050   24.7233 C   0  0  0  0  0  0
  -21.8811   -3.8154   23.4338 C   0  0  0  0  0  0
  -21.9192   -4.6977   22.3399 C   0  0  0  0  0  0
  -22.7857  -13.5295   21.1878 C   0  0  0  0  0  0
  -22.1657   -4.2158   21.0975 F   0  0  0  0  0  0
  -21.5643   -3.4535   25.7745 F   0  0  0  0  0  0
  -30.0475  -13.2623   20.4498 N   0  0  0  0  0  0
  -26.3052  -12.9313   20.3344 N   0  0  0  0  0  0
  -25.9331  -11.6488   20.5769 N   0  0  0  0  0  0
  -22.0398  -12.8359   22.0387 N   0  0  0  0  0  0
  -25.4305  -15.1846   20.3879 N   0  0  0  0  0  0
  -31.8304  -14.6437   20.0927 O   0  0  0  0  0  0
  -21.6650   -6.8896   21.4259 O   0  0  0  0  0  0
  -22.3587  -14.5593   20.6668 O   0  0  0  0  0  0
  -24.6148  -31.8764   23.2203 C   0  0  0  0  0  0
  -25.9050  -32.4882   23.8492 C   0  0  1  0  0  0
  -27.2271  -27.4779   20.0784 C   0  0  0  0  0  0
  -25.5907  -33.8680   24.2422 N   0  0  0  0  0  0
  -23.4006  -30.5010   21.5623 C   0  0  2  0  0  0
  -24.8422  -28.9778   20.1159 C   0  0  0  0  0  0
  -22.7453  -29.4664   22.5040 C   0  0  0  0  0  0
  -18.0311  -28.1345   22.8540 C   0  0  0  0  0  0
  -24.1475  -36.7314   23.2635 C   0  0  0  0  0  0
  -25.9226  -30.8428   21.3741 C   0  0  0  0  0  0
  -25.9980  -29.4805   20.7260 C   0  0  0  0  0  0
  -27.1916  -28.7316   20.7257 C   0  0  0  0  0  0
  -26.0696  -27.0038   19.4284 C   0  0  0  0  0  0
  -24.8673  -27.7295   19.4755 C   0  0  0  0  0  0
  -23.6098  -29.8496   20.1693 C   0  0  0  0  0  0
  -25.4088  -36.3144   24.0365 C   0  0  1  0  0  0
  -20.5900  -28.3688   23.1357 C   0  0  2  0  0  0
  -20.6827  -26.9430   22.5412 C   0  0  0  0  0  0
  -19.5783  -26.6482   21.5203 C   0  0  0  0  0  0
  -18.1974  -26.7894   22.1725 C   0  0  0  0  0  0
  -19.1553  -28.8836   23.2942 C   0  0  0  0  0  0
  -18.9450  -30.1452   23.8959 C   0  0  0  0  0  0
  -17.6457  -30.6570   24.0591 C   0  0  0  0  0  0
  -25.9007  -34.9517   23.5171 C   0  0  0  0  0  0
  -16.5345  -29.9045   23.6366 C   0  0  0  0  0  0
  -16.7301  -28.6454   23.0383 C   0  0  0  0  0  0
  -26.4458  -31.6637   25.0806 C   0  0  0  0  0  0
  -25.3766  -31.3724   26.1590 C   0  0  0  0  0  0
  -27.0246  -30.3102   24.6102 C   0  0  0  0  0  0
  -27.6073  -32.4321   25.7527 C   0  0  0  0  0  0
  -27.5581  -37.1812   24.8464 C   0  0  0  0  0  0
  -21.4183  -29.3084   22.3795 N   0  0  0  0  0  0
  -26.4282  -37.3827   23.9432 N   0  0  0  0  0  0
  -24.6634  -31.0885   22.1103 N   0  0  0  0  0  0
  -23.4262  -28.8185   23.3026 O   0  0  0  0  0  0
  -28.3691  -26.7205   20.0093 O   0  0  0  0  0  0
  -26.5568  -34.8961   22.4718 O   0  0  0  0  0  0
  -23.5335  -32.1507   23.7599 O   0  0  0  0  0  0
  -25.8966  -23.6527   22.8064 C   0  0  0  0  0  0
  -25.9678  -24.2383   21.3842 C   0  0  0  0  0  0
  -27.1843  -23.9138   23.6226 C   0  0  0  0  0  0
  -27.4054  -24.1668   20.8216 C   0  0  1  0  0  0
  -28.4238  -24.9184   21.7480 C   0  0  1  0  0  0
  -30.4487  -26.3124   21.0038 C   0  0  0  0  0  0
  -30.0677  -16.8404   20.4018 C   0  0  0  0  0  0
  -28.6765  -17.4239   20.0687 C   0  0  0  0  0  0
  -28.0600  -22.3267   19.2569 C   0  0  0  0  0  0
  -28.9134  -19.8982   19.6049 C   0  0  0  0  0  0
  -28.9385  -26.3151   21.2513 C   0  0  1  0  0  0
  -27.7791  -20.8217   19.0900 C   0  0  1  0  0  0
  -27.8985  -25.0833   23.1112 N   0  0  0  0  0  0
  -26.5052  -20.5333   19.7551 N   0  0  0  0  0  0
  -29.9362  -15.4778   20.9447 N   0  0  0  0  0  0
  -27.7943  -22.7499   20.6492 N   0  3  0  0  0  0
  -28.7163  -18.5293   19.0846 N   0  3  0  0  0  0
  -31.4727  -12.3729   19.1199 H   0  0  0  0  0  0
  -30.3157  -11.2686   19.7917 H   0  0  0  0  0  0
  -29.7412  -11.8167   17.4042 H   0  0  0  0  0  0
  -29.6790  -13.5139   17.7834 H   0  0  0  0  0  0
  -27.8258  -11.3222   18.7803 H   0  0  0  0  0  0
  -27.3745  -12.6734   17.7783 H   0  0  0  0  0  0
  -27.7162  -14.2472   19.5854 H   0  0  0  0  0  0
  -28.6764  -11.9364   21.3528 H   0  0  0  0  0  0
  -28.4801  -13.5839   21.8708 H   0  0  0  0  0  0
  -25.2763   -9.5659   22.4839 H   0  0  0  0  0  0
  -23.9992   -7.4614   22.7484 H   0  0  0  0  0  0
  -21.0853   -8.8815   19.8999 H   0  0  0  0  0  0
  -22.3721  -10.9726   19.6223 H   0  0  0  0  0  0
  -21.1976   -7.6148   23.9737 H   0  0  0  0  0  0
  -21.1509   -6.0524   25.9099 H   0  0  0  0  0  0
  -22.0584   -2.7625   23.2832 H   0  0  0  0  0  0
  -22.3899  -12.0053   22.4918 H   0  0  0  0  0  0
  -21.1016  -13.1488   22.2476 H   0  0  0  0  0  0
  -24.6188  -15.7929   20.3881 H   0  0  0  0  0  0
  -26.1812  -15.5384   19.8107 H   0  0  0  0  0  0
  -26.7139  -32.5627   23.1281 H   0  0  0  0  0  0
  -25.0171  -33.9851   25.0637 H   0  0  0  0  0  0
  -22.6864  -31.3192   21.4366 H   0  0  0  0  0  0
  -23.3764  -35.9614   23.3290 H   0  0  0  0  0  0
  -24.3575  -36.8912   22.2048 H   0  0  0  0  0  0
  -23.7180  -37.6508   23.6614 H   0  0  0  0  0  0
  -26.0279  -31.6012   20.5968 H   0  0  0  0  0  0
  -26.8137  -30.9050   21.9861 H   0  0  0  0  0  0
  -28.0796  -29.1199   21.2026 H   0  0  0  0  0  0
  -26.0880  -26.0688   18.8885 H   0  0  0  0  0  0
  -23.9819  -27.3383   18.9944 H   0  0  0  0  0  0
  -23.7406  -30.6363   19.4247 H   0  0  0  0  0  0
  -22.7284  -29.2919   19.8503 H   0  0  0  0  0  0
  -25.1233  -36.2037   25.0858 H   0  0  0  0  0  0
  -20.9929  -28.3318   24.1499 H   0  0  0  0  0  0
  -20.5731  -26.2222   23.3533 H   0  0  0  0  0  0
  -21.6698  -26.7486   22.1129 H   0  0  0  0  0  0
  -19.7004  -25.6466   21.1034 H   0  0  0  0  0  0
  -19.6645  -27.3490   20.6890 H   0  0  0  0  0  0
  -17.4161  -26.6466   21.4249 H   0  0  0  0  0  0
  -18.0526  -26.0060   22.9185 H   0  0  0  0  0  0
  -19.7886  -30.7280   24.2392 H   0  0  0  0  0  0
  -17.4988  -31.6231   24.5234 H   0  0  0  0  0  0
  -15.5337  -30.2882   23.7740 H   0  0  0  0  0  0
  -15.8742  -28.0717   22.7108 H   0  0  0  0  0  0
  -24.5961  -30.7015   25.7973 H   0  0  0  0  0  0
  -24.8948  -32.2884   26.5054 H   0  0  0  0  0  0
  -25.8216  -30.8952   27.0347 H   0  0  0  0  0  0
  -26.2783  -29.6943   24.1089 H   0  0  0  0  0  0
  -27.3953  -29.7250   25.4518 H   0  0  0  0  0  0
  -27.8637  -30.4433   23.9274 H   0  0  0  0  0  0
  -27.2738  -33.3614   26.2161 H   0  0  0  0  0  0
  -28.3859  -32.6901   25.0332 H   0  0  0  0  0  0
  -28.0760  -31.8423   26.5413 H   0  0  0  0  0  0
  -28.2611  -38.0098   24.7533 H   0  0  0  0  0  0
  -28.1074  -36.2653   24.6247 H   0  0  0  0  0  0
  -27.2331  -37.1413   25.8875 H   0  0  0  0  0  0
  -20.9421  -29.8814   21.6993 H   0  0  0  0  0  0
  -26.0194  -38.2910   24.1461 H   0  0  0  0  0  0
  -25.7050  -22.5777   22.7652 H   0  0  0  0  0  0
  -25.0337  -24.0738   23.3220 H   0  0  0  0  0  0
  -25.6701  -25.2862   21.4387 H   0  0  0  0  0  0
  -25.2456  -23.7593   20.7216 H   0  0  0  0  0  0
  -27.8433  -23.0447   23.6046 H   0  0  0  0  0  0
  -26.9263  -24.0734   24.6692 H   0  0  0  0  0  0
  -27.4054  -24.6123   19.8307 H   0  0  0  0  0  0
  -29.2984  -24.2722   21.8378 H   0  0  0  0  0  0
  -30.7163  -25.6182   20.2068 H   0  0  0  0  0  0
  -31.0018  -26.0328   21.8990 H   0  0  0  0  0  0
  -30.7935  -27.3051   20.7119 H   0  0  0  0  0  0
  -30.5993  -17.4835   21.1064 H   0  0  0  0  0  0
  -30.6742  -16.8259   19.4922 H   0  0  0  0  0  0
  -28.1550  -17.7367   20.9762 H   0  0  0  0  0  0
  -28.0578  -16.6476   19.6165 H   0  0  0  0  0  0
  -27.3877  -22.8520   18.5789 H   0  0  0  0  0  0
  -29.0734  -22.5962   18.9574 H   0  0  0  0  0  0
  -28.9851  -19.9232   20.6933 H   0  0  0  0  0  0
  -29.8799  -20.2464   19.2329 H   0  0  0  0  0  0
  -28.7620  -27.0686   22.0195 H   0  0  0  0  0  0
  -27.6600  -20.6409   18.0183 H   0  0  0  0  0  0
  -28.6574  -25.3412   23.7345 H   0  0  0  0  0  0
  -26.1451  -19.6201   19.4987 H   0  0  0  0  0  0
  -25.7823  -21.1517   19.3967 H   0  0  0  0  0  0
  -29.0539  -15.2307   21.3681 H   0  0  0  0  0  0
  -27.0245  -22.1569   20.9330 H   0  0  0  0  0  0
  -28.5749  -22.5363   21.2461 H   0  0  0  0  0  0
  -27.8238  -18.5334   18.6179 H   0  0  0  0  0  0
  -29.4030  -18.3346   18.3740 H   0  0  0  0  0  0
  1 25  1  0  0  0
  1 30  2  0  0  0
  1 85  1  0  0  0
  2  3  1  0  0  0
  2 25  1  0  0  0
  2 88  1  0  0  0
  2 89  1  0  0  0
  3  4  1  0  0  0
  3 90  1  0  0  0
  3 91  1  0  0  0
  4  5  1  0  0  0
  4 92  1  0  0  0
  4 93  1  0  0  0
  5  6  1  0  0  0
  5 26  1  0  0  0
  5 94  1  0  0  0
  6 25  1  0  0  0
  6 95  1  0  0  0
  6 96  1  0  0  0
  7  8  2  0  0  0
  7 26  1  0  0  0
  7 29  1  0  0  0
  8  9  1  0  0  0
  8 22  1  0  0  0
  9 10  1  0  0  0
  9 27  2  0  0  0
 10 11  2  0  0  0
 10 15  1  0  0  0
 11 12  1  0  0  0
 11 97  1  0  0  0
 12 13  2  0  0  0
 12 98  1  0  0  0
 13 14  1  0  0  0
 13 31  1  0  0  0
 14 15  2  0  0  0
 14 99  1  0  0  0
 15100  1  0  0  0
 16 17  2  0  0  0
 16 21  1  0  0  0
 16 31  1  0  0  0
 17 18  1  0  0  0
 17101  1  0  0  0
 18 19  2  0  0  0
 18102  1  0  0  0
 19 20  1  0  0  0
 19 24  1  0  0  0
 20 21  2  0  0  0
 20103  1  0  0  0
 21 23  1  0  0  0
 22 28  1  0  0  0
 22 32  2  0  0  0
 26 27  1  0  0  0
 28104  1  0  0  0
 28105  1  0  0  0
 29106  1  0  0  0
 29107  1  0  0  0
 33 34  1  0  0  0
 33 66  1  0  0  0
 33 70  2  0  0  0
 34 36  1  0  0  0
 34 59  1  0  0  0
 34108  1  0  0  0
 35 44  2  0  0  0
 35 45  1  0  0  0
 35 68  1  0  0  0
 36 56  1  0  0  0
 36109  1  0  0  0
 37 39  1  0  0  0
 37 47  1  0  0  0
 37 66  1  0  0  0
 37110  1  0  0  0
 38 43  2  0  0  0
 38 46  1  0  0  0
 38 47  1  0  0  0
 39 64  1  0  0  0
 39 67  2  0  0  0
 40 52  1  0  0  0
 40 53  2  0  0  0
 40 58  1  0  0  0
 41111  1  0  0  0
 41112  1  0  0  0
 41113  1  0  0  0
 41 48  1  0  0  0
 42 43  1  0  0  0
 42 66  1  0  0  0
 42114  1  0  0  0
 42115  1  0  0  0
 43 44  1  0  0  0
 44116  1  0  0  0
 45 46  2  0  0  0
 45117  1  0  0  0
 46118  1  0  0  0
 47119  1  0  0  0
 47120  1  0  0  0
 48 56  1  0  0  0
 48 65  1  0  0  0
 48121  1  0  0  0
 49 50  1  0  0  0
 49 53  1  0  0  0
 49 64  1  0  0  0
 49122  1  0  0  0
 50 51  1  0  0  0
 50123  1  0  0  0
 50124  1  0  0  0
 51 52  1  0  0  0
 51125  1  0  0  0
 51126  1  0  0  0
 52127  1  0  0  0
 52128  1  0  0  0
 53 54  1  0  0  0
 54 55  2  0  0  0
 54129  1  0  0  0
 55 57  1  0  0  0
 55130  1  0  0  0
 56 69  2  0  0  0
 57 58  2  0  0  0
 57131  1  0  0  0
 58132  1  0  0  0
 59 60  1  0  0  0
 59 61  1  0  0  0
 59 62  1  0  0  0
 60133  1  0  0  0
 60134  1  0  0  0
 60135  1  0  0  0
 61136  1  0  0  0
 61137  1  0  0  0
 61138  1  0  0  0
 62139  1  0  0  0
 62140  1  0  0  0
 62141  1  0  0  0
 63 65  1  0  0  0
 63142  1  0  0  0
 63143  1  0  0  0
 63144  1  0  0  0
 64145  1  0  0  0
 65146  1  0  0  0
 68 81  1  0  0  0
 71 72  1  0  0  0
 71 73  1  0  0  0
 71147  1  0  0  0
 71148  1  0  0  0
 72 74  1  0  0  0
 72149  1  0  0  0
 72150  1  0  0  0
 73 83  1  0  0  0
 73151  1  0  0  0
 73152  1  0  0  0
 74 75  1  0  0  0
 74 86  1  0  0  0
 74153  1  0  0  0
 75 81  1  0  0  0
 75 83  1  0  0  0
 75154  1  0  0  0
 76155  1  0  0  0
 76156  1  0  0  0
 76157  1  0  0  0
 76 81  1  0  0  0
 77 78  1  0  0  0
 77 85  1  0  0  0
 77158  1  0  0  0
 77159  1  0  0  0
 78 87  1  0  0  0
 78160  1  0  0  0
 78161  1  0  0  0
 79 82  1  0  0  0
 79 86  1  0  0  0
 79162  1  0  0  0
 79163  1  0  0  0
 80 82  1  0  0  0
 80 87  1  0  0  0
 80164  1  0  0  0
 80165  1  0  0  0
 81166  1  0  0  0
 82 84  1  0  0  0
 82167  1  0  0  0
 83168  1  0  0  0
 84169  1  0  0  0
 84170  1  0  0  0
 85171  1  0  0  0
 86172  1  0  0  0
 86173  1  0  0  0
 87174  1  0  0  0
 87175  1  0  0  0
M  CHG  2  86   1  87   1
M  ISO  4   1 100  68 101  81 101  85 100
M  END
> <chiral flag>
0

> <version>
0

> <s_m_source_file>
/data/baiqing/PycharmProjects/Reinvent-master-3.2/result/LINK_invent/BTK/process_docking_weight1_custom_sum_contain_oxygen_bond_distance_aromatic_linkinvent_7_9_3/rearranged_h_0127.sdf

> <i_m_source_file_index>
25

> <r_mmod_Potential_Energy-OPLS-2005>
-359.060516357422

> <r_mmod_Stretch_Energy-OPLS-2005>
37.0544281005859

> <r_mmod_Bend_Energy-OPLS-2005>
105.425971984863

> <r_mmod_Torsional_Energy-OPLS-2005>
340.67041015625

> <r_mmod_Improper_Torsional_Energy-OPLS-2005>
9.78691864013672

> <r_mmod_Van_der_Waal_Energy-OPLS-2005>
151.345336914062

> <r_mmod_Electrostatic_Energy-OPLS-2005>
-0.918661892414093

> <r_mmod_Solvation_Energy-OPLS-2005>
-1013.81829833984

> <b_mmod_Minimization_Converged-OPLS-2005>
0

> <r_mmod_RMS_Derivative-OPLS-2005>
5.46801471710205

$$$$
25
                    3D
 Structure written by MMmdl.
175184  0  0  1  0            999 V2000
  -30.6462  -14.5238   20.5746 C   0  0  0  0  0  0
  -30.4405  -12.3413   19.4182 C   0  0  0  0  0  0
  -29.4975  -12.5017   18.2053 C   0  0  0  0  0  0
  -28.0188  -12.3533   18.6206 C   0  0  0  0  0  0
  -27.6610  -13.1972   19.8721 C   0  0  2  0  0  0
  -28.7045  -12.9737   20.9894 C   0  0  0  0  0  0
  -25.2604  -13.8128   20.5667 C   0  0  0  0  0  0
  -24.1849  -13.0425   20.9191 C   0  0  0  0  0  0
  -24.6385  -11.6889   20.8747 C   0  0  0  0  0  0
  -23.9043  -10.4279   21.0405 C   0  0  0  0  0  0
  -24.3600   -9.4197   21.9189 C   0  0  0  0  0  0
  -23.6282   -8.2233   22.0752 C   0  0  0  0  0  0
  -22.4269   -8.0270   21.3534 C   0  0  0  0  0  0
  -21.9897   -9.0242   20.4641 C   0  0  0  0  0  0
  -22.7220  -10.2124   20.3055 C   0  0  0  0  0  0
  -21.6852   -6.0728   22.5275 C   0  0  0  0  0  0
  -21.4011   -6.5633   23.8207 C   0  0  0  0  0  0
  -21.3657   -5.6790   24.9168 C   0  0  0  0  0  0
  -21.6042   -4.3052   24.7221 C   0  0  0  0  0  0
  -21.8825   -3.8144   23.4347 C   0  0  0  0  0  0
  -21.9190   -4.6958   22.3401 C   0  0  0  0  0  0
  -22.7876  -13.5235   21.1852 C   0  0  0  0  0  0
  -22.1664   -4.2144   21.0978 F   0  0  0  0  0  0
  -21.5626   -3.4537   25.7735 F   0  0  0  0  0  0
  -30.0276  -13.3170   20.4395 N   0  0  0  0  0  0
  -26.3018  -12.9273   20.3340 N   0  0  0  0  0  0
  -25.9306  -11.6447   20.5765 N   0  0  0  0  0  0
  -22.0507  -12.8226   22.0398 N   0  0  0  0  0  0
  -25.4368  -15.1838   20.4041 N   0  0  0  0  0  0
  -31.7774  -14.7534   20.1370 O   0  0  0  0  0  0
  -21.6632   -6.8872   21.4236 O   0  0  0  0  0  0
  -22.3569  -14.5546   20.6701 O   0  0  0  0  0  0
  -24.6169  -31.8659   23.2071 C   0  0  0  0  0  0
  -25.9044  -32.4817   23.8371 C   0  0  1  0  0  0
  -27.2314  -27.3920   20.0916 C   0  0  0  0  0  0
  -25.5887  -33.8614   24.2315 N   0  0  0  0  0  0
  -23.4069  -30.4885   21.5494 C   0  0  2  0  0  0
  -24.8525  -28.9488   20.1135 C   0  0  0  0  0  0
  -22.7426  -29.4648   22.4982 C   0  0  0  0  0  0
  -18.0273  -28.1383   22.8495 C   0  0  0  0  0  0
  -24.1490  -36.7317   23.2640 C   0  0  0  0  0  0
  -25.9398  -30.8149   21.3678 C   0  0  0  0  0  0
  -26.0145  -29.4456   20.7158 C   0  0  0  0  0  0
  -27.2019  -28.6711   20.7066 C   0  0  0  0  0  0
  -26.0439  -26.9192   19.4859 C   0  0  0  0  0  0
  -24.8635  -27.6867   19.4959 C   0  0  0  0  0  0
  -23.6166  -29.8199   20.1643 C   0  0  0  0  0  0
  -25.4111  -36.3115   24.0337 C   0  0  1  0  0  0
  -20.5869  -28.3676   23.1320 C   0  0  2  0  0  0
  -20.6776  -26.9416   22.5419 C   0  0  0  0  0  0
  -19.5754  -26.6394   21.5218 C   0  0  0  0  0  0
  -18.1921  -26.7934   22.1621 C   0  0  0  0  0  0
  -19.1523  -28.8844   23.2900 C   0  0  0  0  0  0
  -18.9451  -30.1447   23.8921 C   0  0  0  0  0  0
  -17.6449  -30.6595   24.0567 C   0  0  0  0  0  0
  -25.9035  -34.9479   23.5129 C   0  0  0  0  0  0
  -16.5339  -29.9100   23.6326 C   0  0  0  0  0  0
  -16.7264  -28.6512   23.0359 C   0  0  0  0  0  0
  -26.4458  -31.6605   25.0710 C   0  0  0  0  0  0
  -25.3708  -31.3703   26.1446 C   0  0  0  0  0  0
  -27.0291  -30.3050   24.6084 C   0  0  0  0  0  0
  -27.6030  -32.4327   25.7464 C   0  0  0  0  0  0
  -27.5587  -37.1810   24.8466 C   0  0  0  0  0  0
  -21.4152  -29.3039   22.3723 N   0  0  0  0  0  0
  -26.4306  -37.3792   23.9406 N   0  0  0  0  0  0
  -24.6732  -31.0718   22.0990 N   0  0  0  0  0  0
  -23.4193  -28.8188   23.3024 O   0  0  0  0  0  0
  -28.4037  -26.6467   20.1233 O   0  0  0  0  0  0
  -26.5607  -34.8927   22.4697 O   0  0  0  0  0  0
  -23.5350  -32.1433   23.7431 O   0  0  0  0  0  0
  -30.0443  -23.8056   24.9532 C   0  0  0  0  0  0
  -28.6134  -24.0535   24.4546 C   0  0  0  0  0  0
  -31.0599  -24.1279   23.8456 C   0  0  0  0  0  0
  -27.7310  -21.7717   19.2198 C   0  0  0  0  0  0
  -27.1754  -23.1985   19.0876 C   0  0  0  0  0  0
  -28.3440  -23.2821   23.1510 C   0  0  0  0  0  0
  -30.7390  -23.3635   22.5451 C   0  0  0  0  0  0
  -28.4647  -21.6893   20.5673 C   0  0  2  0  0  0
  -27.9690  -24.1119   20.0479 C   0  0  1  0  0  0
  -29.0261  -23.1577   20.7076 C   0  0  1  0  0  0
  -29.4596  -20.4571   20.6018 C   0  0  0  0  0  0
  -28.5207  -25.4174   19.3659 C   0  0  0  0  0  0
  -30.0978  -16.9435   21.3123 C   0  0  0  0  0  0
  -29.1554  -17.8655   20.4653 C   0  0  0  0  0  0
  -29.8602  -15.4955   21.0904 N   0  0  0  0  0  0
  -29.3439  -23.6263   22.0972 N   0  3  0  0  0  0
  -28.8066  -19.1925   21.0738 N   0  3  0  0  0  0
  -31.4780  -12.4802   19.1086 H   0  0  0  0  0  0
  -30.3823  -11.3289   19.8213 H   0  0  0  0  0  0
  -29.7435  -11.7651   17.4389 H   0  0  0  0  0  0
  -29.6501  -13.4810   17.7494 H   0  0  0  0  0  0
  -27.8358  -11.2976   18.8243 H   0  0  0  0  0  0
  -27.3653  -12.6167   17.7881 H   0  0  0  0  0  0
  -27.7043  -14.2435   19.5687 H   0  0  0  0  0  0
  -28.7004  -11.9293   21.3061 H   0  0  0  0  0  0
  -28.4568  -13.5460   21.8841 H   0  0  0  0  0  0
  -25.2747   -9.5671   22.4766 H   0  0  0  0  0  0
  -23.9989   -7.4619   22.7468 H   0  0  0  0  0  0
  -21.0832   -8.8759   19.8948 H   0  0  0  0  0  0
  -22.3681  -10.9663   19.6162 H   0  0  0  0  0  0
  -21.2011   -7.6143   23.9707 H   0  0  0  0  0  0
  -21.1471   -6.0520   25.9071 H   0  0  0  0  0  0
  -22.0611   -2.7606   23.2847 H   0  0  0  0  0  0
  -22.4117  -11.9867   22.4760 H   0  0  0  0  0  0
  -21.1128  -13.1247   22.2613 H   0  0  0  0  0  0
  -24.6656  -15.8369   20.4913 H   0  0  0  0  0  0
  -26.2684  -15.6017   20.0098 H   0  0  0  0  0  0
  -26.7114  -32.5524   23.1129 H   0  0  0  0  0  0
  -25.0016  -33.9764   25.0445 H   0  0  0  0  0  0
  -22.6959  -31.3056   21.4087 H   0  0  0  0  0  0
  -23.3750  -35.9651   23.3309 H   0  0  0  0  0  0
  -24.3579  -36.8929   22.2054 H   0  0  0  0  0  0
  -23.7239  -37.6521   23.6653 H   0  0  0  0  0  0
  -26.0550  -31.5763   20.5950 H   0  0  0  0  0  0
  -26.8276  -30.8723   21.9859 H   0  0  0  0  0  0
  -28.0982  -29.0469   21.1794 H   0  0  0  0  0  0
  -25.9986  -25.9515   19.0084 H   0  0  0  0  0  0
  -23.9704  -27.2979   19.0270 H   0  0  0  0  0  0
  -23.7270  -30.5948   19.4049 H   0  0  0  0  0  0
  -22.7395  -29.2429   19.8679 H   0  0  0  0  0  0
  -25.1285  -36.1983   25.0830 H   0  0  0  0  0  0
  -20.9943  -28.3265   24.1452 H   0  0  0  0  0  0
  -20.5710  -26.2277   23.3609 H   0  0  0  0  0  0
  -21.6639  -26.7500   22.1183 H   0  0  0  0  0  0
  -19.6926  -25.6308   21.1245 H   0  0  0  0  0  0
  -19.6700  -27.3210   20.6756 H   0  0  0  0  0  0
  -17.4197  -26.6682   21.4019 H   0  0  0  0  0  0
  -18.0318  -26.0071   22.9018 H   0  0  0  0  0  0
  -19.7923  -30.7240   24.2319 H   0  0  0  0  0  0
  -17.5016  -31.6286   24.5152 H   0  0  0  0  0  0
  -15.5344  -30.3013   23.7651 H   0  0  0  0  0  0
  -15.8653  -28.0842   22.7082 H   0  0  0  0  0  0
  -24.5885  -30.7056   25.7773 H   0  0  0  0  0  0
  -24.8872  -32.2842   26.4909 H   0  0  0  0  0  0
  -25.8031  -30.8863   27.0208 H   0  0  0  0  0  0
  -26.2844  -29.6800   24.1141 H   0  0  0  0  0  0
  -27.4082  -29.7293   25.4536 H   0  0  0  0  0  0
  -27.8665  -30.4383   23.9227 H   0  0  0  0  0  0
  -27.2675  -33.3635   26.2047 H   0  0  0  0  0  0
  -28.3822  -32.6872   25.0270 H   0  0  0  0  0  0
  -28.0710  -31.8440   26.5365 H   0  0  0  0  0  0
  -28.2604  -38.0110   24.7518 H   0  0  0  0  0  0
  -28.1082  -36.2635   24.6294 H   0  0  0  0  0  0
  -27.2293  -37.1468   25.8866 H   0  0  0  0  0  0
  -20.9319  -29.8758   21.6939 H   0  0  0  0  0  0
  -26.0201  -38.2874   24.1395 H   0  0  0  0  0  0
  -30.1519  -22.7643   25.2616 H   0  0  0  0  0  0
  -30.2436  -24.4109   25.8377 H   0  0  0  0  0  0
  -28.4506  -25.1205   24.2986 H   0  0  0  0  0  0
  -27.8964  -23.7469   25.2172 H   0  0  0  0  0  0
  -32.0660  -23.8763   24.1847 H   0  0  0  0  0  0
  -31.0672  -25.2016   23.6548 H   0  0  0  0  0  0
  -28.4324  -21.6029   18.3997 H   0  0  0  0  0  0
  -26.9463  -21.0192   19.1237 H   0  0  0  0  0  0
  -26.1187  -23.2126   19.3631 H   0  0  0  0  0  0
  -27.2253  -23.5246   18.0477 H   0  0  0  0  0  0
  -27.3295  -23.5001   22.8156 H   0  0  0  0  0  0
  -28.3777  -22.2130   23.3630 H   0  0  0  0  0  0
  -30.8817  -22.2963   22.7088 H   0  0  0  0  0  0
  -31.4503  -23.6639   21.7734 H   0  0  0  0  0  0
  -27.6945  -21.5379   21.3216 H   0  0  0  0  0  0
  -27.2416  -24.4297   20.7944 H   0  0  0  0  0  0
  -29.9314  -23.2140   20.0997 H   0  0  0  0  0  0
  -30.2941  -20.6541   21.2721 H   0  0  0  0  0  0
  -29.9114  -20.3087   19.6200 H   0  0  0  0  0  0
  -28.0842  -25.5669   18.3780 H   0  0  0  0  0  0
  -29.5823  -25.2848   19.1563 H   0  0  0  0  0  0
  -29.9296  -17.1227   22.3749 H   0  0  0  0  0  0
  -31.1423  -17.1988   21.1234 H   0  0  0  0  0  0
  -28.1997  -17.3515   20.3537 H   0  0  0  0  0  0
  -29.5331  -17.9854   19.4490 H   0  0  0  0  0  0
  -28.9582  -15.1585   21.3932 H   0  0  0  0  0  0
  -29.3084  -24.6326   22.0199 H   0  0  0  0  0  0
  -27.8252  -19.2961   20.8721 H   0  0  0  0  0  0
  -28.8770  -19.1257   22.0767 H   0  0  0  0  0  0
  1 25  1  0  0  0
  1 30  2  0  0  0
  1 85  1  0  0  0
  2  3  1  0  0  0
  2 25  1  0  0  0
  2 88  1  0  0  0
  2 89  1  0  0  0
  3  4  1  0  0  0
  3 90  1  0  0  0
  3 91  1  0  0  0
  4  5  1  0  0  0
  4 92  1  0  0  0
  4 93  1  0  0  0
  5  6  1  0  0  0
  5 26  1  0  0  0
  5 94  1  0  0  0
  6 25  1  0  0  0
  6 95  1  0  0  0
  6 96  1  0  0  0
  7  8  2  0  0  0
  7 26  1  0  0  0
  7 29  1  0  0  0
  8  9  1  0  0  0
  8 22  1  0  0  0
  9 10  1  0  0  0
  9 27  2  0  0  0
 10 11  2  0  0  0
 10 15  1  0  0  0
 11 12  1  0  0  0
 11 97  1  0  0  0
 12 13  2  0  0  0
 12 98  1  0  0  0
 13 14  1  0  0  0
 13 31  1  0  0  0
 14 15  2  0  0  0
 14 99  1  0  0  0
 15100  1  0  0  0
 16 17  2  0  0  0
 16 21  1  0  0  0
 16 31  1  0  0  0
 17 18  1  0  0  0
 17101  1  0  0  0
 18 19  2  0  0  0
 18102  1  0  0  0
 19 20  1  0  0  0
 19 24  1  0  0  0
 20 21  2  0  0  0
 20103  1  0  0  0
 21 23  1  0  0  0
 22 28  1  0  0  0
 22 32  2  0  0  0
 26 27  1  0  0  0
 28104  1  0  0  0
 28105  1  0  0  0
 29106  1  0  0  0
 29107  1  0  0  0
 33 34  1  0  0  0
 33 66  1  0  0  0
 33 70  2  0  0  0
 34 36  1  0  0  0
 34 59  1  0  0  0
 34108  1  0  0  0
 35 44  2  0  0  0
 35 45  1  0  0  0
 35 68  1  0  0  0
 36 56  1  0  0  0
 36109  1  0  0  0
 37 39  1  0  0  0
 37 47  1  0  0  0
 37 66  1  0  0  0
 37110  1  0  0  0
 38 43  2  0  0  0
 38 46  1  0  0  0
 38 47  1  0  0  0
 39 64  1  0  0  0
 39 67  2  0  0  0
 40 52  1  0  0  0
 40 53  2  0  0  0
 40 58  1  0  0  0
 41111  1  0  0  0
 41112  1  0  0  0
 41113  1  0  0  0
 41 48  1  0  0  0
 42 43  1  0  0  0
 42 66  1  0  0  0
 42114  1  0  0  0
 42115  1  0  0  0
 43 44  1  0  0  0
 44116  1  0  0  0
 45 46  2  0  0  0
 45117  1  0  0  0
 46118  1  0  0  0
 47119  1  0  0  0
 47120  1  0  0  0
 48 56  1  0  0  0
 48 65  1  0  0  0
 48121  1  0  0  0
 49 50  1  0  0  0
 49 53  1  0  0  0
 49 64  1  0  0  0
 49122  1  0  0  0
 50 51  1  0  0  0
 50123  1  0  0  0
 50124  1  0  0  0
 51 52  1  0  0  0
 51125  1  0  0  0
 51126  1  0  0  0
 52127  1  0  0  0
 52128  1  0  0  0
 53 54  1  0  0  0
 54 55  2  0  0  0
 54129  1  0  0  0
 55 57  1  0  0  0
 55130  1  0  0  0
 56 69  2  0  0  0
 57 58  2  0  0  0
 57131  1  0  0  0
 58132  1  0  0  0
 59 60  1  0  0  0
 59 61  1  0  0  0
 59 62  1  0  0  0
 60133  1  0  0  0
 60134  1  0  0  0
 60135  1  0  0  0
 61136  1  0  0  0
 61137  1  0  0  0
 61138  1  0  0  0
 62139  1  0  0  0
 62140  1  0  0  0
 62141  1  0  0  0
 63 65  1  0  0  0
 63142  1  0  0  0
 63143  1  0  0  0
 63144  1  0  0  0
 64145  1  0  0  0
 65146  1  0  0  0
 68 82  1  0  0  0
 71 72  1  0  0  0
 71 73  1  0  0  0
 71147  1  0  0  0
 71148  1  0  0  0
 72 76  1  0  0  0
 72149  1  0  0  0
 72150  1  0  0  0
 73 77  1  0  0  0
 73151  1  0  0  0
 73152  1  0  0  0
 74 75  1  0  0  0
 74 78  1  0  0  0
 74153  1  0  0  0
 74154  1  0  0  0
 75 79  1  0  0  0
 75155  1  0  0  0
 75156  1  0  0  0
 76157  1  0  0  0
 76158  1  0  0  0
 76 86  1  0  0  0
 77 86  1  0  0  0
 77159  1  0  0  0
 77160  1  0  0  0
 78 80  1  0  0  0
 78 81  1  0  0  0
 78161  1  0  0  0
 79 80  1  0  0  0
 79 82  1  0  0  0
 79162  1  0  0  0
 80 86  1  0  0  0
 80163  1  0  0  0
 81 87  1  0  0  0
 81164  1  0  0  0
 81165  1  0  0  0
 82166  1  0  0  0
 82167  1  0  0  0
 83 84  1  0  0  0
 83 85  1  0  0  0
 83168  1  0  0  0
 83169  1  0  0  0
 84 87  1  0  0  0
 84170  1  0  0  0
 84171  1  0  0  0
 85172  1  0  0  0
 86173  1  0  0  0
 87174  1  0  0  0
 87175  1  0  0  0
M  CHG  2  86   1  87   1
M  ISO  4   1 100  68 101  82 101  85 100
M  END
> <chiral flag>
0

> <version>
0

> <s_m_source_file>
/data/baiqing/PycharmProjects/Reinvent-master-3.2/result/LINK_invent/BTK/process_docking_weight1_custom_sum_contain_oxygen_bond_distance_aromatic_linkinvent_7_9_3/rearranged_h_0127.sdf

> <i_m_source_file_index>
26

> <r_mmod_Potential_Energy-OPLS-2005>
-160.813003540039

> <r_mmod_Stretch_Energy-OPLS-2005>
53.7338027954102

> <r_mmod_Bend_Energy-OPLS-2005>
157.204147338867

> <r_mmod_Torsional_Energy-OPLS-2005>
339.670959472656

> <r_mmod_Improper_Torsional_Energy-OPLS-2005>
3.66920614242554

> <r_mmod_Van_der_Waal_Energy-OPLS-2005>
127.635284423828

> <r_mmod_Electrostatic_Energy-OPLS-2005>
107.572303771973

> <r_mmod_Solvation_Energy-OPLS-2005>
-970.735168457031

> <b_mmod_Minimization_Converged-OPLS-2005>
0

> <r_mmod_RMS_Derivative-OPLS-2005>
1.79101288318634

$$$$
26
                    3D
 Structure written by MMmdl.
176184  0  0  1  0            999 V2000
  -30.6603  -14.5477   20.5481 C   0  0  0  0  0  0
  -30.4309  -12.3469   19.4383 C   0  0  0  0  0  0
  -29.5026  -12.5070   18.2147 C   0  0  0  0  0  0
  -28.0234  -12.3547   18.6234 C   0  0  0  0  0  0
  -27.6570  -13.2061   19.8673 C   0  0  2  0  0  0
  -28.6983  -13.0210   20.9953 C   0  0  0  0  0  0
  -25.2578  -13.8143   20.5649 C   0  0  0  0  0  0
  -24.1859  -13.0445   20.9277 C   0  0  0  0  0  0
  -24.6392  -11.6904   20.8790 C   0  0  0  0  0  0
  -23.9052  -10.4293   21.0433 C   0  0  0  0  0  0
  -24.3608   -9.4203   21.9198 C   0  0  0  0  0  0
  -23.6289   -8.2233   22.0756 C   0  0  0  0  0  0
  -22.4272   -8.0275   21.3543 C   0  0  0  0  0  0
  -21.9908   -9.0252   20.4648 C   0  0  0  0  0  0
  -22.7233  -10.2135   20.3070 C   0  0  0  0  0  0
  -21.6849   -6.0730   22.5277 C   0  0  0  0  0  0
  -21.4008   -6.5633   23.8211 C   0  0  0  0  0  0
  -21.3659   -5.6789   24.9174 C   0  0  0  0  0  0
  -21.6046   -4.3050   24.7225 C   0  0  0  0  0  0
  -21.8821   -3.8140   23.4345 C   0  0  0  0  0  0
  -21.9190   -4.6957   22.3402 C   0  0  0  0  0  0
  -22.7880  -13.5250   21.1894 C   0  0  0  0  0  0
  -22.1662   -4.2144   21.0979 F   0  0  0  0  0  0
  -21.5634   -3.4533   25.7737 F   0  0  0  0  0  0
  -30.0233  -13.3455   20.4428 N   0  0  0  0  0  0
  -26.2988  -12.9301   20.3283 N   0  0  0  0  0  0
  -25.9304  -11.6478   20.5751 N   0  0  0  0  0  0
  -22.0470  -12.8249   22.0410 N   0  0  0  0  0  0
  -25.4304  -15.1831   20.3761 N   0  0  0  0  0  0
  -31.7927  -14.7360   20.0972 O   0  0  0  0  0  0
  -21.6636   -6.8873   21.4238 O   0  0  0  0  0  0
  -22.3630  -14.5574   20.6722 O   0  0  0  0  0  0
  -24.6189  -31.8641   23.2059 C   0  0  0  0  0  0
  -25.9064  -32.4801   23.8374 C   0  0  1  0  0  0
  -27.2321  -27.3863   20.1123 C   0  0  0  0  0  0
  -25.5904  -33.8601   24.2306 N   0  0  0  0  0  0
  -23.4095  -30.4864   21.5472 C   0  0  2  0  0  0
  -24.8565  -28.9449   20.1141 C   0  0  0  0  0  0
  -22.7435  -29.4644   22.4971 C   0  0  0  0  0  0
  -18.0276  -28.1381   22.8491 C   0  0  0  0  0  0
  -24.1485  -36.7302   23.2642 C   0  0  0  0  0  0
  -25.9426  -30.8168   21.3645 C   0  0  0  0  0  0
  -26.0198  -29.4479   20.7103 C   0  0  0  0  0  0
  -27.2120  -28.6794   20.6977 C   0  0  0  0  0  0
  -26.0499  -26.9099   19.5041 C   0  0  0  0  0  0
  -24.8695  -27.6785   19.5040 C   0  0  0  0  0  0
  -23.6203  -29.8167   20.1628 C   0  0  0  0  0  0
  -25.4109  -36.3101   24.0338 C   0  0  1  0  0  0
  -20.5870  -28.3674   23.1308 C   0  0  2  0  0  0
  -20.6767  -26.9405   22.5419 C   0  0  0  0  0  0
  -19.5745  -26.6385   21.5218 C   0  0  0  0  0  0
  -18.1922  -26.7928   22.1625 C   0  0  0  0  0  0
  -19.1526  -28.8844   23.2895 C   0  0  0  0  0  0
  -18.9453  -30.1449   23.8907 C   0  0  0  0  0  0
  -17.6456  -30.6589   24.0565 C   0  0  0  0  0  0
  -25.9041  -34.9465   23.5122 C   0  0  0  0  0  0
  -16.5345  -29.9090   23.6328 C   0  0  0  0  0  0
  -16.7265  -28.6506   23.0350 C   0  0  0  0  0  0
  -26.4478  -31.6590   25.0716 C   0  0  0  0  0  0
  -25.3733  -31.3705   26.1457 C   0  0  0  0  0  0
  -27.0317  -30.3027   24.6115 C   0  0  0  0  0  0
  -27.6048  -32.4316   25.7481 C   0  0  0  0  0  0
  -27.5579  -37.1807   24.8466 C   0  0  0  0  0  0
  -21.4157  -29.3034   22.3711 N   0  0  0  0  0  0
  -26.4291  -37.3789   23.9411 N   0  0  0  0  0  0
  -24.6757  -31.0710   22.0974 N   0  0  0  0  0  0
  -23.4187  -28.8190   23.3032 O   0  0  0  0  0  0
  -28.3863  -26.6149   20.1347 O   0  0  0  0  0  0
  -26.5608  -34.8926   22.4687 O   0  0  0  0  0  0
  -23.5371  -32.1411   23.7428 O   0  0  0  0  0  0
  -29.6562  -25.4771   22.3635 C   0  0  0  0  0  0
  -30.4924  -22.7708   22.6560 C   0  0  0  0  0  0
  -29.4620  -24.5646   21.1240 C   0  0  1  0  0  0
  -29.3738  -23.0399   21.6004 C   0  0  1  0  0  0
  -30.7950  -25.0354   23.2870 C   0  0  1  0  0  0
  -30.9505  -25.9681   24.4936 C   0  0  0  0  0  0
  -31.4155  -19.6477   19.8621 C   0  0  0  0  0  0
  -27.2167  -18.1274   18.9794 C   0  0  0  0  0  0
  -28.2495  -25.1750   20.3348 C   0  0  0  0  0  0
  -30.2652  -17.0284   21.0655 C   0  0  0  0  0  0
  -29.2540  -20.5509   20.8990 C   0  0  0  0  0  0
  -29.8822  -19.4884   19.9144 C   0  0  2  0  0  0
  -29.4840  -17.9440   20.0460 C   0  0  2  0  0  0
  -30.4752  -23.7054   23.7734 N   0  0  0  0  0  0
  -29.9101  -15.5761   21.0224 N   0  0  0  0  0  0
  -29.5016  -21.9978   20.5185 N   0  3  0  0  0  0
  -28.0197  -17.7164   20.1522 N   0  3  0  0  0  0
  -31.4744  -12.4615   19.1395 H   0  0  0  0  0  0
  -30.3497  -11.3413   19.8541 H   0  0  0  0  0  0
  -29.7564  -11.7711   17.4507 H   0  0  0  0  0  0
  -29.6587  -13.4860   17.7591 H   0  0  0  0  0  0
  -27.8451  -11.2993   18.8327 H   0  0  0  0  0  0
  -27.3726  -12.6112   17.7863 H   0  0  0  0  0  0
  -27.6917  -14.2477   19.5503 H   0  0  0  0  0  0
  -28.6914  -11.9906   21.3536 H   0  0  0  0  0  0
  -28.4502  -13.6340   21.8630 H   0  0  0  0  0  0
  -25.2754   -9.5673   22.4773 H   0  0  0  0  0  0
  -23.9999   -7.4617   22.7466 H   0  0  0  0  0  0
  -21.0844   -8.8766   19.8949 H   0  0  0  0  0  0
  -22.3692  -10.9675   19.6179 H   0  0  0  0  0  0
  -21.1993   -7.6142   23.9715 H   0  0  0  0  0  0
  -21.1483   -6.0516   25.9079 H   0  0  0  0  0  0
  -22.0598   -2.7601   23.2844 H   0  0  0  0  0  0
  -22.4040  -11.9892   22.4804 H   0  0  0  0  0  0
  -21.1083  -13.1290   22.2570 H   0  0  0  0  0  0
  -24.5521  -15.6910   20.4118 H   0  0  0  0  0  0
  -25.9066  -15.3769   19.5058 H   0  0  0  0  0  0
  -26.7134  -32.5499   23.1134 H   0  0  0  0  0  0
  -25.0051  -33.9756   25.0449 H   0  0  0  0  0  0
  -22.7002  -31.3046   21.4055 H   0  0  0  0  0  0
  -23.3750  -35.9632   23.3310 H   0  0  0  0  0  0
  -24.3575  -36.8912   22.2055 H   0  0  0  0  0  0
  -23.7232  -37.6506   23.6652 H   0  0  0  0  0  0
  -26.0610  -31.5818   20.5958 H   0  0  0  0  0  0
  -26.8279  -30.8689   21.9867 H   0  0  0  0  0  0
  -28.1099  -29.0632   21.1618 H   0  0  0  0  0  0
  -26.0316  -25.9408   19.0266 H   0  0  0  0  0  0
  -23.9765  -27.2878   19.0359 H   0  0  0  0  0  0
  -23.7319  -30.5910   19.4029 H   0  0  0  0  0  0
  -22.7430  -29.2389   19.8663 H   0  0  0  0  0  0
  -25.1288  -36.1963   25.0832 H   0  0  0  0  0  0
  -20.9960  -28.3243   24.1430 H   0  0  0  0  0  0
  -20.5673  -26.2283   23.3611 H   0  0  0  0  0  0
  -21.6635  -26.7450   22.1207 H   0  0  0  0  0  0
  -19.6906  -25.6300   21.1240 H   0  0  0  0  0  0
  -19.6687  -27.3202   20.6754 H   0  0  0  0  0  0
  -17.4197  -26.6683   21.4021 H   0  0  0  0  0  0
  -18.0315  -26.0066   22.9015 H   0  0  0  0  0  0
  -19.7930  -30.7259   24.2280 H   0  0  0  0  0  0
  -17.5014  -31.6269   24.5164 H   0  0  0  0  0  0
  -15.5347  -30.2997   23.7650 H   0  0  0  0  0  0
  -15.8664  -28.0833   22.7058 H   0  0  0  0  0  0
  -24.5899  -30.7064   25.7785 H   0  0  0  0  0  0
  -24.8932  -32.2864   26.4914 H   0  0  0  0  0  0
  -25.8073  -30.8861   27.0212 H   0  0  0  0  0  0
  -26.2872  -29.6784   24.1160 H   0  0  0  0  0  0
  -27.4070  -29.7268   25.4585 H   0  0  0  0  0  0
  -27.8714  -30.4341   23.9285 H   0  0  0  0  0  0
  -27.2665  -33.3612   26.2073 H   0  0  0  0  0  0
  -28.3851  -32.6884   25.0304 H   0  0  0  0  0  0
  -28.0724  -31.8431   26.5386 H   0  0  0  0  0  0
  -28.2604  -38.0098   24.7511 H   0  0  0  0  0  0
  -28.1068  -36.2630   24.6297 H   0  0  0  0  0  0
  -27.2297  -37.1459   25.8869 H   0  0  0  0  0  0
  -20.9325  -29.8754   21.6926 H   0  0  0  0  0  0
  -26.0180  -38.2869   24.1407 H   0  0  0  0  0  0
  -28.7244  -25.5299   22.9304 H   0  0  0  0  0  0
  -29.8681  -26.4987   22.0450 H   0  0  0  0  0  0
  -31.4773  -22.7905   22.1850 H   0  0  0  0  0  0
  -30.3902  -21.7845   23.1035 H   0  0  0  0  0  0
  -30.3532  -24.6712   20.5045 H   0  0  0  0  0  0
  -28.4043  -22.8972   22.0816 H   0  0  0  0  0  0
  -31.7391  -25.0192   22.7368 H   0  0  0  0  0  0
  -30.0413  -26.0095   25.0952 H   0  0  0  0  0  0
  -31.1747  -26.9857   24.1708 H   0  0  0  0  0  0
  -31.7673  -25.6501   25.1427 H   0  0  0  0  0  0
  -31.7126  -20.6448   19.5374 H   0  0  0  0  0  0
  -31.8630  -18.9448   19.1578 H   0  0  0  0  0  0
  -31.8718  -19.4733   20.8376 H   0  0  0  0  0  0
  -26.1731  -17.8448   19.1211 H   0  0  0  0  0  0
  -27.5705  -17.6439   18.0679 H   0  0  0  0  0  0
  -27.2417  -19.2061   18.8271 H   0  0  0  0  0  0
  -27.3357  -24.9609   20.8927 H   0  0  0  0  0  0
  -28.1478  -24.6878   19.3647 H   0  0  0  0  0  0
  -30.0901  -17.3863   22.0807 H   0  0  0  0  0  0
  -31.3390  -17.1350   20.9053 H   0  0  0  0  0  0
  -29.6215  -20.3222   21.8964 H   0  0  0  0  0  0
  -28.1731  -20.4196   20.9560 H   0  0  0  0  0  0
  -29.5314  -19.7797   18.9233 H   0  0  0  0  0  0
  -29.7584  -17.5145   19.0798 H   0  0  0  0  0  0
  -31.1918  -23.4205   24.4380 H   0  0  0  0  0  0
  -29.0382  -15.2938   21.4454 H   0  0  0  0  0  0
  -30.4353  -22.0686   20.1477 H   0  0  0  0  0  0
  -28.8706  -22.2324   19.7689 H   0  0  0  0  0  0
  -27.8797  -16.7266   20.2616 H   0  0  0  0  0  0
  -27.6447  -18.1435   20.9842 H   0  0  0  0  0  0
  1 25  1  0  0  0
  1 30  2  0  0  0
  1 85  1  0  0  0
  2  3  1  0  0  0
  2 25  1  0  0  0
  2 88  1  0  0  0
  2 89  1  0  0  0
  3  4  1  0  0  0
  3 90  1  0  0  0
  3 91  1  0  0  0
  4  5  1  0  0  0
  4 92  1  0  0  0
  4 93  1  0  0  0
  5  6  1  0  0  0
  5 26  1  0  0  0
  5 94  1  0  0  0
  6 25  1  0  0  0
  6 95  1  0  0  0
  6 96  1  0  0  0
  7  8  2  0  0  0
  7 26  1  0  0  0
  7 29  1  0  0  0
  8  9  1  0  0  0
  8 22  1  0  0  0
  9 10  1  0  0  0
  9 27  2  0  0  0
 10 11  2  0  0  0
 10 15  1  0  0  0
 11 12  1  0  0  0
 11 97  1  0  0  0
 12 13  2  0  0  0
 12 98  1  0  0  0
 13 14  1  0  0  0
 13 31  1  0  0  0
 14 15  2  0  0  0
 14 99  1  0  0  0
 15100  1  0  0  0
 16 17  2  0  0  0
 16 21  1  0  0  0
 16 31  1  0  0  0
 17 18  1  0  0  0
 17101  1  0  0  0
 18 19  2  0  0  0
 18102  1  0  0  0
 19 20  1  0  0  0
 19 24  1  0  0  0
 20 21  2  0  0  0
 20103  1  0  0  0
 21 23  1  0  0  0
 22 28  1  0  0  0
 22 32  2  0  0  0
 26 27  1  0  0  0
 28104  1  0  0  0
 28105  1  0  0  0
 29106  1  0  0  0
 29107  1  0  0  0
 33 34  1  0  0  0
 33 66  1  0  0  0
 33 70  2  0  0  0
 34 36  1  0  0  0
 34 59  1  0  0  0
 34108  1  0  0  0
 35 44  2  0  0  0
 35 45  1  0  0  0
 35 68  1  0  0  0
 36 56  1  0  0  0
 36109  1  0  0  0
 37 39  1  0  0  0
 37 47  1  0  0  0
 37 66  1  0  0  0
 37110  1  0  0  0
 38 43  2  0  0  0
 38 46  1  0  0  0
 38 47  1  0  0  0
 39 64  1  0  0  0
 39 67  2  0  0  0
 40 52  1  0  0  0
 40 53  2  0  0  0
 40 58  1  0  0  0
 41111  1  0  0  0
 41112  1  0  0  0
 41113  1  0  0  0
 41 48  1  0  0  0
 42 43  1  0  0  0
 42 66  1  0  0  0
 42114  1  0  0  0
 42115  1  0  0  0
 43 44  1  0  0  0
 44116  1  0  0  0
 45 46  2  0  0  0
 45117  1  0  0  0
 46118  1  0  0  0
 47119  1  0  0  0
 47120  1  0  0  0
 48 56  1  0  0  0
 48 65  1  0  0  0
 48121  1  0  0  0
 49 50  1  0  0  0
 49 53  1  0  0  0
 49 64  1  0  0  0
 49122  1  0  0  0
 50 51  1  0  0  0
 50123  1  0  0  0
 50124  1  0  0  0
 51 52  1  0  0  0
 51125  1  0  0  0
 51126  1  0  0  0
 52127  1  0  0  0
 52128  1  0  0  0
 53 54  1  0  0  0
 54 55  2  0  0  0
 54129  1  0  0  0
 55 57  1  0  0  0
 55130  1  0  0  0
 56 69  2  0  0  0
 57 58  2  0  0  0
 57131  1  0  0  0
 58132  1  0  0  0
 59 60  1  0  0  0
 59 61  1  0  0  0
 59 62  1  0  0  0
 60133  1  0  0  0
 60134  1  0  0  0
 60135  1  0  0  0
 61136  1  0  0  0
 61137  1  0  0  0
 61138  1  0  0  0
 62139  1  0  0  0
 62140  1  0  0  0
 62141  1  0  0  0
 63 65  1  0  0  0
 63142  1  0  0  0
 63143  1  0  0  0
 63144  1  0  0  0
 64145  1  0  0  0
 65146  1  0  0  0
 68 79  1  0  0  0
 71 73  1  0  0  0
 71 75  1  0  0  0
 71147  1  0  0  0
 71148  1  0  0  0
 72 74  1  0  0  0
 72 84  1  0  0  0
 72149  1  0  0  0
 72150  1  0  0  0
 73 74  1  0  0  0
 73 79  1  0  0  0
 73151  1  0  0  0
 74 86  1  0  0  0
 74152  1  0  0  0
 75 76  1  0  0  0
 75 84  1  0  0  0
 75153  1  0  0  0
 76154  1  0  0  0
 76155  1  0  0  0
 76156  1  0  0  0
 77157  1  0  0  0
 77158  1  0  0  0
 77159  1  0  0  0
 77 82  1  0  0  0
 78 87  1  0  0  0
 78160  1  0  0  0
 78161  1  0  0  0
 78162  1  0  0  0
 79163  1  0  0  0
 79164  1  0  0  0
 80 85  1  0  0  0
 80165  1  0  0  0
 80166  1  0  0  0
 80 83  1  0  0  0
 81 82  1  0  0  0
 81 86  1  0  0  0
 81167  1  0  0  0
 81168  1  0  0  0
 82 83  1  0  0  0
 82169  1  0  0  0
 83 87  1  0  0  0
 83170  1  0  0  0
 84171  1  0  0  0
 85172  1  0  0  0
 86173  1  0  0  0
 86174  1  0  0  0
 87175  1  0  0  0
 87176  1  0  0  0
M  CHG  2  86   1  87   1
M  ISO  4   1 100  68 101  79 101  85 100
M  END
> <chiral flag>
0

> <version>
0

> <s_m_source_file>
/data/baiqing/PycharmProjects/Reinvent-master-3.2/result/LINK_invent/BTK/process_docking_weight1_custom_sum_contain_oxygen_bond_distance_aromatic_linkinvent_7_9_3/rearranged_h_0127.sdf

> <i_m_source_file_index>
27

> <r_mmod_Potential_Energy-OPLS-2005>
-297.537750244141

> <r_mmod_Stretch_Energy-OPLS-2005>
66.3186645507812

> <r_mmod_Bend_Energy-OPLS-2005>
129.349639892578

> <r_mmod_Torsional_Energy-OPLS-2005>
322.411468505859

> <r_mmod_Improper_Torsional_Energy-OPLS-2005>
9.63809967041016

> <r_mmod_Van_der_Waal_Energy-OPLS-2005>
130.62109375

> <r_mmod_Electrostatic_Energy-OPLS-2005>
33.9897384643555

> <r_mmod_Solvation_Energy-OPLS-2005>
-1013.03149414062

> <b_mmod_Minimization_Converged-OPLS-2005>
0

> <r_mmod_RMS_Derivative-OPLS-2005>
0.534132540225983

$$$$
27
                    3D
 Structure written by MMmdl.
163172  0  0  1  0            999 V2000
  -30.6867  -14.5867   20.6208 C   0  0  0  0  0  0
  -30.4173  -12.3849   19.4679 C   0  0  0  0  0  0
  -29.5028  -12.5202   18.2332 C   0  0  0  0  0  0
  -28.0251  -12.3504   18.6308 C   0  0  0  0  0  0
  -27.6439  -13.2161   19.8542 C   0  0  2  0  0  0
  -28.6709  -13.0611   20.9914 C   0  0  0  0  0  0
  -25.2478  -13.8150   20.5647 C   0  0  0  0  0  0
  -24.1785  -13.0416   20.9234 C   0  0  0  0  0  0
  -24.6341  -11.6892   20.8735 C   0  0  0  0  0  0
  -23.9024  -10.4272   21.0373 C   0  0  0  0  0  0
  -24.3592   -9.4199   21.9138 C   0  0  0  0  0  0
  -23.6286   -8.2239   22.0721 C   0  0  0  0  0  0
  -22.4278   -8.0260   21.3525 C   0  0  0  0  0  0
  -21.9882   -9.0227   20.4642 C   0  0  0  0  0  0
  -22.7189  -10.2111   20.3046 C   0  0  0  0  0  0
  -21.6849   -6.0756   22.5290 C   0  0  0  0  0  0
  -21.4002   -6.5654   23.8222 C   0  0  0  0  0  0
  -21.3655   -5.6805   24.9184 C   0  0  0  0  0  0
  -21.6052   -4.3069   24.7225 C   0  0  0  0  0  0
  -21.8808   -3.8167   23.4342 C   0  0  0  0  0  0
  -21.9183   -4.6987   22.3399 C   0  0  0  0  0  0
  -22.7816  -13.5207   21.1952 C   0  0  0  0  0  0
  -22.1656   -4.2188   21.0981 F   0  0  0  0  0  0
  -21.5625   -3.4542   25.7727 F   0  0  0  0  0  0
  -30.0056  -13.4004   20.4641 N   0  0  0  0  0  0
  -26.2886  -12.9340   20.3196 N   0  0  0  0  0  0
  -25.9240  -11.6492   20.5668 N   0  0  0  0  0  0
  -22.0530  -12.8148   22.0516 N   0  0  0  0  0  0
  -25.4069  -15.1874   20.4004 N   0  0  0  0  0  0
  -31.7602  -14.7633   20.0369 O   0  0  0  0  0  0
  -21.6629   -6.8870   21.4239 O   0  0  0  0  0  0
  -22.3472  -14.5525   20.6839 O   0  0  0  0  0  0
  -24.6201  -31.8637   23.2046 C   0  0  0  0  0  0
  -25.9068  -32.4800   23.8373 C   0  0  1  0  0  0
  -27.2342  -27.3662   20.1345 C   0  0  0  0  0  0
  -25.5928  -33.8601   24.2315 N   0  0  0  0  0  0
  -23.4119  -30.4812   21.5477 C   0  0  2  0  0  0
  -24.8618  -28.9317   20.1237 C   0  0  0  0  0  0
  -22.7430  -29.4621   22.4986 C   0  0  0  0  0  0
  -18.0254  -28.1391   22.8466 C   0  0  0  0  0  0
  -24.1490  -36.7312   23.2632 C   0  0  0  0  0  0
  -25.9440  -30.8141   21.3611 C   0  0  0  0  0  0
  -26.0255  -29.4370   20.7199 C   0  0  0  0  0  0
  -27.2168  -28.6655   20.7120 C   0  0  0  0  0  0
  -26.0519  -26.8851   19.5336 C   0  0  0  0  0  0
  -24.8741  -27.6593   19.5239 C   0  0  0  0  0  0
  -23.6279  -29.8101   20.1640 C   0  0  0  0  0  0
  -25.4113  -36.3099   24.0327 C   0  0  1  0  0  0
  -20.5854  -28.3696   23.1297 C   0  0  2  0  0  0
  -20.6765  -26.9418   22.5430 C   0  0  0  0  0  0
  -19.5761  -26.6380   21.5209 C   0  0  0  0  0  0
  -18.1927  -26.7919   22.1616 C   0  0  0  0  0  0
  -19.1502  -28.8845   23.2871 C   0  0  0  0  0  0
  -18.9430  -30.1454   23.8893 C   0  0  0  0  0  0
  -17.6441  -30.6601   24.0542 C   0  0  0  0  0  0
  -25.9045  -34.9464   23.5113 C   0  0  0  0  0  0
  -16.5332  -29.9101   23.6325 C   0  0  0  0  0  0
  -16.7239  -28.6519   23.0332 C   0  0  0  0  0  0
  -26.4480  -31.6591   25.0710 C   0  0  0  0  0  0
  -25.3759  -31.3716   26.1475 C   0  0  0  0  0  0
  -27.0311  -30.3031   24.6100 C   0  0  0  0  0  0
  -27.6063  -32.4299   25.7483 C   0  0  0  0  0  0
  -27.5586  -37.1817   24.8469 C   0  0  0  0  0  0
  -21.4149  -29.3049   22.3721 N   0  0  0  0  0  0
  -26.4299  -37.3794   23.9409 N   0  0  0  0  0  0
  -24.6782  -31.0688   22.0971 N   0  0  0  0  0  0
  -23.4169  -28.8184   23.3068 O   0  0  0  0  0  0
  -28.3876  -26.5936   20.1187 O   0  0  0  0  0  0
  -26.5595  -34.8907   22.4673 O   0  0  0  0  0  0
  -23.5387  -32.1409   23.7406 O   0  0  0  0  0  0
  -27.0730  -18.6763   20.2230 C   0  0  0  0  0  0
  -28.0532  -17.7006   20.4823 C   0  0  0  0  0  0
  -27.3952  -20.0389   20.3736 C   0  0  0  0  0  0
  -29.3498  -18.1053   20.8545 C   0  0  0  0  0  0
  -28.6948  -20.4047   20.7664 C   0  0  0  0  0  0
  -31.0675  -16.2075   23.4163 C   0  0  0  0  0  0
  -29.9524  -15.3897   22.7813 C   0  0  0  0  0  0
  -30.4733  -17.0648   21.1812 C   0  0  1  0  0  0
  -31.1446  -17.4392   22.5320 C   0  0  2  0  0  0
  -28.9872  -21.8863   21.1568 C   0  0  0  0  0  0
  -28.1554  -24.0169   19.8725 C   0  0  0  0  0  0
  -28.3676  -25.2878   20.7785 C   0  0  0  0  0  0
  -29.6547  -19.4460   20.9545 N   0  0  0  0  0  0
  -30.0929  -15.6044   21.3337 N   0  0  0  0  0  0
  -29.1271  -22.8606   20.0310 N   0  3  0  0  0  0
  -32.4924  -17.8706   22.3905 O   0  0  0  0  0  0
  -31.4646  -12.4767   19.1794 H   0  0  0  0  0  0
  -30.3241  -11.3844   19.8964 H   0  0  0  0  0  0
  -29.7688  -11.7793   17.4778 H   0  0  0  0  0  0
  -29.6517  -13.4965   17.7680 H   0  0  0  0  0  0
  -27.8595  -11.2972   18.8603 H   0  0  0  0  0  0
  -27.3777  -12.5846   17.7849 H   0  0  0  0  0  0
  -27.6641  -14.2531   19.5219 H   0  0  0  0  0  0
  -28.6681  -12.0405   21.3812 H   0  0  0  0  0  0
  -28.3571  -13.6887   21.8211 H   0  0  0  0  0  0
  -25.2713   -9.5726   22.4707 H   0  0  0  0  0  0
  -24.0018   -7.4625   22.7396 H   0  0  0  0  0  0
  -21.0841   -8.8730   19.8916 H   0  0  0  0  0  0
  -22.3610  -10.9661   19.6196 H   0  0  0  0  0  0
  -21.1989   -7.6163   23.9728 H   0  0  0  0  0  0
  -21.1491   -6.0547   25.9094 H   0  0  0  0  0  0
  -22.0587   -2.7627   23.2830 H   0  0  0  0  0  0
  -22.4198  -11.9773   22.4794 H   0  0  0  0  0  0
  -21.1158  -13.1119   22.2826 H   0  0  0  0  0  0
  -24.6242  -15.8269   20.4996 H   0  0  0  0  0  0
  -26.2259  -15.6147   19.9917 H   0  0  0  0  0  0
  -26.7141  -32.5490   23.1146 H   0  0  0  0  0  0
  -25.0087  -33.9793   25.0461 H   0  0  0  0  0  0
  -22.7046  -31.3007   21.4038 H   0  0  0  0  0  0
  -23.3742  -35.9662   23.3304 H   0  0  0  0  0  0
  -24.3582  -36.8915   22.2048 H   0  0  0  0  0  0
  -23.7263  -37.6526   23.6640 H   0  0  0  0  0  0
  -26.0486  -31.5739   20.5848 H   0  0  0  0  0  0
  -26.8333  -30.8789   21.9783 H   0  0  0  0  0  0
  -28.1149  -29.0544   21.1701 H   0  0  0  0  0  0
  -26.0384  -25.9071   19.0734 H   0  0  0  0  0  0
  -23.9774  -27.2702   19.0609 H   0  0  0  0  0  0
  -23.7496  -30.5851   19.4051 H   0  0  0  0  0  0
  -22.7492  -29.2407   19.8566 H   0  0  0  0  0  0
  -25.1294  -36.1965   25.0823 H   0  0  0  0  0  0
  -20.9877  -28.3256   24.1446 H   0  0  0  0  0  0
  -20.5655  -26.2302   23.3613 H   0  0  0  0  0  0
  -21.6636  -26.7461   22.1245 H   0  0  0  0  0  0
  -19.6954  -25.6277   21.1271 H   0  0  0  0  0  0
  -19.6701  -27.3158   20.6714 H   0  0  0  0  0  0
  -17.4190  -26.6578   21.4038 H   0  0  0  0  0  0
  -18.0374  -26.0092   22.9030 H   0  0  0  0  0  0
  -19.7909  -30.7254   24.2269 H   0  0  0  0  0  0
  -17.5006  -31.6290   24.5118 H   0  0  0  0  0  0
  -15.5338  -30.3008   23.7650 H   0  0  0  0  0  0
  -15.8643  -28.0843   22.7065 H   0  0  0  0  0  0
  -24.5933  -30.7050   25.7840 H   0  0  0  0  0  0
  -24.8945  -32.2872   26.4913 H   0  0  0  0  0  0
  -25.8115  -30.8916   27.0246 H   0  0  0  0  0  0
  -26.2863  -29.6804   24.1132 H   0  0  0  0  0  0
  -27.4053  -29.7255   25.4565 H   0  0  0  0  0  0
  -27.8705  -30.4340   23.9267 H   0  0  0  0  0  0
  -27.2691  -33.3591   26.2086 H   0  0  0  0  0  0
  -28.3870  -32.6864   25.0311 H   0  0  0  0  0  0
  -28.0732  -31.8402   26.5386 H   0  0  0  0  0  0
  -28.2612  -38.0100   24.7495 H   0  0  0  0  0  0
  -28.1060  -36.2635   24.6314 H   0  0  0  0  0  0
  -27.2298  -37.1499   25.8867 H   0  0  0  0  0  0
  -20.9340  -29.8740   21.6890 H   0  0  0  0  0  0
  -26.0174  -38.2870   24.1411 H   0  0  0  0  0  0
  -26.0697  -18.3815   19.9511 H   0  0  0  0  0  0
  -27.8039  -16.6526   20.4037 H   0  0  0  0  0  0
  -26.6304  -20.7921   20.2401 H   0  0  0  0  0  0
  -32.0022  -15.6451   23.3754 H   0  0  0  0  0  0
  -30.8673  -16.4467   24.4618 H   0  0  0  0  0  0
  -30.0487  -14.3471   23.0943 H   0  0  0  0  0  0
  -28.9720  -15.7417   23.1025 H   0  0  0  0  0  0
  -31.1948  -17.1655   20.3695 H   0  0  0  0  0  0
  -30.5880  -18.2320   23.0329 H   0  0  0  0  0  0
  -29.9218  -21.9068   21.7185 H   0  0  0  0  0  0
  -28.2258  -22.2337   21.8561 H   0  0  0  0  0  0
  -28.2508  -24.3408   18.8370 H   0  0  0  0  0  0
  -27.1298  -23.6618   19.9706 H   0  0  0  0  0  0
  -29.3274  -25.1981   21.2897 H   0  0  0  0  0  0
  -27.6308  -25.2908   21.5863 H   0  0  0  0  0  0
  -29.1009  -22.2948   19.1970 H   0  0  0  0  0  0
  -30.0639  -23.2270   20.0822 H   0  0  0  0  0  0
  -32.4744  -18.7174   21.9519 H   0  0  0  0  0  0
  1 25  1  0  0  0
  1 30  2  0  0  0
  1 84  1  0  0  0
  2  3  1  0  0  0
  2 25  1  0  0  0
  2 87  1  0  0  0
  2 88  1  0  0  0
  3  4  1  0  0  0
  3 89  1  0  0  0
  3 90  1  0  0  0
  4  5  1  0  0  0
  4 91  1  0  0  0
  4 92  1  0  0  0
  5  6  1  0  0  0
  5 26  1  0  0  0
  5 93  1  0  0  0
  6 25  1  0  0  0
  6 94  1  0  0  0
  6 95  1  0  0  0
  7  8  2  0  0  0
  7 26  1  0  0  0
  7 29  1  0  0  0
  8  9  1  0  0  0
  8 22  1  0  0  0
  9 10  1  0  0  0
  9 27  2  0  0  0
 10 11  2  0  0  0
 10 15  1  0  0  0
 11 12  1  0  0  0
 11 96  1  0  0  0
 12 13  2  0  0  0
 12 97  1  0  0  0
 13 14  1  0  0  0
 13 31  1  0  0  0
 14 15  2  0  0  0
 14 98  1  0  0  0
 15 99  1  0  0  0
 16 17  2  0  0  0
 16 21  1  0  0  0
 16 31  1  0  0  0
 17 18  1  0  0  0
 17100  1  0  0  0
 18 19  2  0  0  0
 18101  1  0  0  0
 19 20  1  0  0  0
 19 24  1  0  0  0
 20 21  2  0  0  0
 20102  1  0  0  0
 21 23  1  0  0  0
 22 28  1  0  0  0
 22 32  2  0  0  0
 26 27  1  0  0  0
 28103  1  0  0  0
 28104  1  0  0  0
 29105  1  0  0  0
 29106  1  0  0  0
 33 34  1  0  0  0
 33 66  1  0  0  0
 33 70  2  0  0  0
 34 36  1  0  0  0
 34 59  1  0  0  0
 34107  1  0  0  0
 35 44  2  0  0  0
 35 45  1  0  0  0
 35 68  1  0  0  0
 36 56  1  0  0  0
 36108  1  0  0  0
 37 39  1  0  0  0
 37 47  1  0  0  0
 37 66  1  0  0  0
 37109  1  0  0  0
 38 43  2  0  0  0
 38 46  1  0  0  0
 38 47  1  0  0  0
 39 64  1  0  0  0
 39 67  2  0  0  0
 40 52  1  0  0  0
 40 53  2  0  0  0
 40 58  1  0  0  0
 41110  1  0  0  0
 41111  1  0  0  0
 41112  1  0  0  0
 41 48  1  0  0  0
 42 43  1  0  0  0
 42 66  1  0  0  0
 42113  1  0  0  0
 42114  1  0  0  0
 43 44  1  0  0  0
 44115  1  0  0  0
 45 46  2  0  0  0
 45116  1  0  0  0
 46117  1  0  0  0
 47118  1  0  0  0
 47119  1  0  0  0
 48 56  1  0  0  0
 48 65  1  0  0  0
 48120  1  0  0  0
 49 50  1  0  0  0
 49 53  1  0  0  0
 49 64  1  0  0  0
 49121  1  0  0  0
 50 51  1  0  0  0
 50122  1  0  0  0
 50123  1  0  0  0
 51 52  1  0  0  0
 51124  1  0  0  0
 51125  1  0  0  0
 52126  1  0  0  0
 52127  1  0  0  0
 53 54  1  0  0  0
 54 55  2  0  0  0
 54128  1  0  0  0
 55 57  1  0  0  0
 55129  1  0  0  0
 56 69  2  0  0  0
 57 58  2  0  0  0
 57130  1  0  0  0
 58131  1  0  0  0
 59 60  1  0  0  0
 59 61  1  0  0  0
 59 62  1  0  0  0
 60132  1  0  0  0
 60133  1  0  0  0
 60134  1  0  0  0
 61135  1  0  0  0
 61136  1  0  0  0
 61137  1  0  0  0
 62138  1  0  0  0
 62139  1  0  0  0
 62140  1  0  0  0
 63 65  1  0  0  0
 63141  1  0  0  0
 63142  1  0  0  0
 63143  1  0  0  0
 64144  1  0  0  0
 65145  1  0  0  0
 68 82  1  0  0  0
 71 72  2  0  0  0
 71 73  1  0  0  0
 71146  1  0  0  0
 72 74  1  0  0  0
 72147  1  0  0  0
 73 75  2  0  0  0
 73148  1  0  0  0
 74 83  2  0  0  0
 74 78  1  0  0  0
 75 80  1  0  0  0
 75 83  1  0  0  0
 76 77  1  0  0  0
 76 79  1  0  0  0
 76149  1  0  0  0
 76150  1  0  0  0
 77 84  1  0  0  0
 77151  1  0  0  0
 77152  1  0  0  0
 78 79  1  0  0  0
 78 84  1  0  0  0
 78153  1  0  0  0
 79 86  1  0  0  0
 79154  1  0  0  0
 80 85  1  0  0  0
 80155  1  0  0  0
 80156  1  0  0  0
 81 82  1  0  0  0
 81 85  1  0  0  0
 81157  1  0  0  0
 81158  1  0  0  0
 82159  1  0  0  0
 82160  1  0  0  0
 85161  1  0  0  0
 85162  1  0  0  0
 86163  1  0  0  0
M  CHG  1  85   1
M  ISO  4   1 100  68 101  82 101  84 100
M  END
> <chiral flag>
0

> <version>
0

> <s_m_source_file>
/data/baiqing/PycharmProjects/Reinvent-master-3.2/result/LINK_invent/BTK/process_docking_weight1_custom_sum_contain_oxygen_bond_distance_aromatic_linkinvent_7_9_3/rearranged_h_0127.sdf

> <i_m_source_file_index>
28

> <r_mmod_Potential_Energy-OPLS-2005>
-164.892333984375

> <r_mmod_Stretch_Energy-OPLS-2005>
69.9830932617188

> <r_mmod_Bend_Energy-OPLS-2005>
156.834701538086

> <r_mmod_Torsional_Energy-OPLS-2005>
337.665374755859

> <r_mmod_Improper_Torsional_Energy-OPLS-2005>
8.20164966583252

> <r_mmod_Van_der_Waal_Energy-OPLS-2005>
140.840667724609

> <r_mmod_Electrostatic_Energy-OPLS-2005>
-427.656280517578

> <r_mmod_Solvation_Energy-OPLS-2005>
-480.325622558594

> <b_mmod_Minimization_Converged-OPLS-2005>
0

> <r_mmod_RMS_Derivative-OPLS-2005>
4.46947860717773

$$$$
28
                    3D
 Structure written by MMmdl.
161170  0  0  1  0            999 V2000
  -30.5644  -14.7542   20.4567 C   0  0  0  0  0  0
  -30.4474  -12.4591   19.4635 C   0  0  0  0  0  0
  -29.5137  -12.5135   18.2321 C   0  0  0  0  0  0
  -28.0393  -12.3297   18.6462 C   0  0  0  0  0  0
  -27.6453  -13.2190   19.8546 C   0  0  2  0  0  0
  -28.6928  -13.1266   20.9863 C   0  0  0  0  0  0
  -25.2530  -13.8148   20.5696 C   0  0  0  0  0  0
  -24.1814  -13.0413   20.9219 C   0  0  0  0  0  0
  -24.6391  -11.6890   20.8753 C   0  0  0  0  0  0
  -23.9063  -10.4278   21.0412 C   0  0  0  0  0  0
  -24.3615   -9.4194   21.9190 C   0  0  0  0  0  0
  -23.6287   -8.2233   22.0757 C   0  0  0  0  0  0
  -22.4270   -8.0275   21.3544 C   0  0  0  0  0  0
  -21.9904   -9.0251   20.4648 C   0  0  0  0  0  0
  -22.7236  -10.2127   20.3059 C   0  0  0  0  0  0
  -21.6850   -6.0731   22.5279 C   0  0  0  0  0  0
  -21.4013   -6.5637   23.8211 C   0  0  0  0  0  0
  -21.3658   -5.6791   24.9174 C   0  0  0  0  0  0
  -21.6044   -4.3054   24.7225 C   0  0  0  0  0  0
  -21.8820   -3.8144   23.4348 C   0  0  0  0  0  0
  -21.9191   -4.6960   22.3402 C   0  0  0  0  0  0
  -22.7837  -13.5213   21.1870 C   0  0  0  0  0  0
  -22.1661   -4.2145   21.0980 F   0  0  0  0  0  0
  -21.5627   -3.4538   25.7739 F   0  0  0  0  0  0
  -29.9942  -13.5008   20.4114 N   0  0  0  0  0  0
  -26.2951  -12.9337   20.3281 N   0  0  0  0  0  0
  -25.9317  -11.6492   20.5749 N   0  0  0  0  0  0
  -22.0474  -12.8212   22.0426 N   0  0  0  0  0  0
  -25.4171  -15.1871   20.4106 N   0  0  0  0  0  0
  -31.7487  -14.9129   20.1426 O   0  0  0  0  0  0
  -21.6634   -6.8875   21.4240 O   0  0  0  0  0  0
  -22.3528  -14.5519   20.6710 O   0  0  0  0  0  0
  -24.6312  -31.8538   23.1962 C   0  0  0  0  0  0
  -25.9135  -32.4746   23.8314 C   0  0  1  0  0  0
  -27.2288  -27.2602   20.1260 C   0  0  0  0  0  0
  -25.5929  -33.8548   24.2242 N   0  0  0  0  0  0
  -23.4280  -30.4744   21.5400 C   0  0  2  0  0  0
  -24.8751  -28.9153   20.1123 C   0  0  0  0  0  0
  -22.7499  -29.4592   22.4914 C   0  0  0  0  0  0
  -18.0292  -28.1385   22.8482 C   0  0  0  0  0  0
  -24.1490  -36.7281   23.2640 C   0  0  0  0  0  0
  -25.9729  -30.7663   21.3746 C   0  0  0  0  0  0
  -26.0459  -29.3877   20.7173 C   0  0  0  0  0  0
  -27.2228  -28.5735   20.7091 C   0  0  0  0  0  0
  -26.0289  -26.8466   19.5058 C   0  0  0  0  0  0
  -24.8716  -27.6529   19.4972 C   0  0  0  0  0  0
  -23.6458  -29.8032   20.1578 C   0  0  0  0  0  0
  -25.4118  -36.3064   24.0323 C   0  0  1  0  0  0
  -20.5894  -28.3694   23.1271 C   0  0  2  0  0  0
  -20.6778  -26.9411   22.5410 C   0  0  0  0  0  0
  -19.5756  -26.6381   21.5211 C   0  0  0  0  0  0
  -18.1936  -26.7927   22.1622 C   0  0  0  0  0  0
  -19.1545  -28.8857   23.2872 C   0  0  0  0  0  0
  -18.9466  -30.1457   23.8891 C   0  0  0  0  0  0
  -17.6465  -30.6585   24.0561 C   0  0  0  0  0  0
  -25.9057  -34.9435   23.5088 C   0  0  0  0  0  0
  -16.5356  -29.9082   23.6330 C   0  0  0  0  0  0
  -16.7278  -28.6500   23.0352 C   0  0  0  0  0  0
  -26.4503  -31.6577   25.0709 C   0  0  0  0  0  0
  -25.3725  -31.3734   26.1431 C   0  0  0  0  0  0
  -27.0351  -30.2992   24.6201 C   0  0  0  0  0  0
  -27.6053  -32.4323   25.7485 C   0  0  0  0  0  0
  -27.5578  -37.1798   24.8465 C   0  0  0  0  0  0
  -21.4206  -29.3039   22.3658 N   0  0  0  0  0  0
  -26.4293  -37.3763   23.9403 N   0  0  0  0  0  0
  -24.6965  -31.0498   22.0936 N   0  0  0  0  0  0
  -23.4196  -28.8143   23.3023 O   0  0  0  0  0  0
  -28.3598  -26.4106   20.1734 O   0  0  0  0  0  0
  -26.5634  -34.8913   22.4659 O   0  0  0  0  0  0
  -23.5462  -32.1362   23.7258 O   0  0  0  0  0  0
  -30.3556  -19.5754   21.3260 C   0  0  0  0  0  0
  -30.5021  -18.1458   21.3218 C   0  0  0  0  0  0
  -28.6891  -19.4303   19.6336 C   0  0  0  0  0  0
  -28.8123  -17.9904   19.6191 C   0  0  0  0  0  0
  -29.4284  -20.2805   20.5009 C   0  0  0  0  0  0
  -29.7298  -17.2888   20.4860 C   0  0  0  0  0  0
  -27.9593  -17.2365   18.6330 C   0  0  0  0  0  0
  -27.8001  -22.4461   20.8066 C   0  0  0  0  0  0
  -29.8184  -22.7464   19.4296 C   0  0  0  0  0  0
  -27.7052  -24.0197   21.0304 C   0  0  0  0  0  0
  -29.7384  -24.3155   19.6618 C   0  0  0  0  0  0
  -29.2439  -21.8758   20.5916 C   0  0  2  0  0  0
  -28.3149  -24.9271   19.9053 C   0  0  2  0  0  0
  -26.6908  -17.6166   18.5465 N   0  0  0  0  0  0
  -29.6919  -15.8086   20.6798 N   0  0  0  0  0  0
  -28.3977  -16.2960   17.9736 O   0  0  0  0  0  0
  -31.4839  -12.6110   19.1572 H   0  0  0  0  0  0
  -30.4132  -11.4753   19.9339 H   0  0  0  0  0  0
  -29.7969  -11.7477   17.5088 H   0  0  0  0  0  0
  -29.6319  -13.4725   17.7245 H   0  0  0  0  0  0
  -27.8974  -11.2787   18.9013 H   0  0  0  0  0  0
  -27.3810  -12.5286   17.7998 H   0  0  0  0  0  0
  -27.6414  -14.2426   19.4852 H   0  0  0  0  0  0
  -28.7332  -12.1154   21.3939 H   0  0  0  0  0  0
  -28.4245  -13.7765   21.8209 H   0  0  0  0  0  0
  -25.2761   -9.5667   22.4764 H   0  0  0  0  0  0
  -23.9992   -7.4623   22.7476 H   0  0  0  0  0  0
  -21.0833   -8.8774   19.8957 H   0  0  0  0  0  0
  -22.3698  -10.9669   19.6170 H   0  0  0  0  0  0
  -21.2009   -7.6147   23.9713 H   0  0  0  0  0  0
  -21.1478   -6.0522   25.9076 H   0  0  0  0  0  0
  -22.0602   -2.7606   23.2850 H   0  0  0  0  0  0
  -22.4084  -11.9873   22.4819 H   0  0  0  0  0  0
  -21.1094  -13.1247   22.2629 H   0  0  0  0  0  0
  -24.6328  -15.8226   20.5060 H   0  0  0  0  0  0
  -26.2270  -15.6271   19.9944 H   0  0  0  0  0  0
  -26.7199  -32.5393   23.1053 H   0  0  0  0  0  0
  -25.0067  -33.9681   25.0382 H   0  0  0  0  0  0
  -22.7247  -31.2965   21.3917 H   0  0  0  0  0  0
  -23.3749  -35.9618   23.3307 H   0  0  0  0  0  0
  -24.3577  -36.8900   22.2053 H   0  0  0  0  0  0
  -23.7249  -37.6485   23.6665 H   0  0  0  0  0  0
  -26.1111  -31.5268   20.6049 H   0  0  0  0  0  0
  -26.8505  -30.8158   22.0078 H   0  0  0  0  0  0
  -28.1224  -28.9340   21.1880 H   0  0  0  0  0  0
  -25.9538  -25.8797   19.0332 H   0  0  0  0  0  0
  -23.9726  -27.2835   19.0230 H   0  0  0  0  0  0
  -23.7702  -30.5772   19.3995 H   0  0  0  0  0  0
  -22.7640  -29.2360   19.8544 H   0  0  0  0  0  0
  -25.1302  -36.1910   25.0816 H   0  0  0  0  0  0
  -20.9986  -28.3275   24.1392 H   0  0  0  0  0  0
  -20.5673  -26.2305   23.3614 H   0  0  0  0  0  0
  -21.6648  -26.7432   22.1208 H   0  0  0  0  0  0
  -19.6918  -25.6290   21.1243 H   0  0  0  0  0  0
  -19.6695  -27.3188   20.6739 H   0  0  0  0  0  0
  -17.4205  -26.6672   21.4026 H   0  0  0  0  0  0
  -18.0338  -26.0070   22.9020 H   0  0  0  0  0  0
  -19.7942  -30.7275   24.2257 H   0  0  0  0  0  0
  -17.5019  -31.6265   24.5163 H   0  0  0  0  0  0
  -15.5357  -30.2983   23.7655 H   0  0  0  0  0  0
  -15.8679  -28.0816   22.7071 H   0  0  0  0  0  0
  -24.5899  -30.7083   25.7762 H   0  0  0  0  0  0
  -24.8919  -32.2908   26.4842 H   0  0  0  0  0  0
  -25.8040  -30.8921   27.0216 H   0  0  0  0  0  0
  -26.2935  -29.6734   24.1221 H   0  0  0  0  0  0
  -27.4025  -29.7261   25.4724 H   0  0  0  0  0  0
  -27.8815  -30.4262   23.9448 H   0  0  0  0  0  0
  -27.2655  -33.3626   26.2049 H   0  0  0  0  0  0
  -28.3870  -32.6878   25.0319 H   0  0  0  0  0  0
  -28.0714  -31.8458   26.5412 H   0  0  0  0  0  0
  -28.2601  -38.0089   24.7497 H   0  0  0  0  0  0
  -28.1069  -36.2618   24.6310 H   0  0  0  0  0  0
  -27.2294  -37.1468   25.8867 H   0  0  0  0  0  0
  -20.9394  -29.8755   21.6855 H   0  0  0  0  0  0
  -26.0171  -38.2838   24.1396 H   0  0  0  0  0  0
  -30.9643  -20.1412   22.0177 H   0  0  0  0  0  0
  -31.1923  -17.7019   22.0256 H   0  0  0  0  0  0
  -27.9884  -19.9004   18.9576 H   0  0  0  0  0  0
  -27.1788  -22.1745   19.9523 H   0  0  0  0  0  0
  -27.3530  -21.9471   21.6668 H   0  0  0  0  0  0
  -30.8616  -22.4720   19.2695 H   0  0  0  0  0  0
  -29.3001  -22.4950   18.5033 H   0  0  0  0  0  0
  -28.2014  -24.2604   21.9712 H   0  0  0  0  0  0
  -26.6597  -24.2934   21.1745 H   0  0  0  0  0  0
  -30.1893  -24.8182   18.8057 H   0  0  0  0  0  0
  -30.3719  -24.5672   20.5133 H   0  0  0  0  0  0
  -29.8073  -22.1580   21.4824 H   0  0  0  0  0  0
  -27.7588  -24.7585   18.9837 H   0  0  0  0  0  0
  -26.3521  -18.3761   19.1180 H   0  0  0  0  0  0
  -26.0640  -17.1611   17.9000 H   0  0  0  0  0  0
  -28.7609  -15.4537   20.8329 H   0  0  0  0  0  0
  1 25  1  0  0  0
  1 30  2  0  0  0
  1 85  1  0  0  0
  2  3  1  0  0  0
  2 25  1  0  0  0
  2 87  1  0  0  0
  2 88  1  0  0  0
  3  4  1  0  0  0
  3 89  1  0  0  0
  3 90  1  0  0  0
  4  5  1  0  0  0
  4 91  1  0  0  0
  4 92  1  0  0  0
  5  6  1  0  0  0
  5 26  1  0  0  0
  5 93  1  0  0  0
  6 25  1  0  0  0
  6 94  1  0  0  0
  6 95  1  0  0  0
  7  8  2  0  0  0
  7 26  1  0  0  0
  7 29  1  0  0  0
  8  9  1  0  0  0
  8 22  1  0  0  0
  9 10  1  0  0  0
  9 27  2  0  0  0
 10 11  2  0  0  0
 10 15  1  0  0  0
 11 12  1  0  0  0
 11 96  1  0  0  0
 12 13  2  0  0  0
 12 97  1  0  0  0
 13 14  1  0  0  0
 13 31  1  0  0  0
 14 15  2  0  0  0
 14 98  1  0  0  0
 15 99  1  0  0  0
 16 17  2  0  0  0
 16 21  1  0  0  0
 16 31  1  0  0  0
 17 18  1  0  0  0
 17100  1  0  0  0
 18 19  2  0  0  0
 18101  1  0  0  0
 19 20  1  0  0  0
 19 24  1  0  0  0
 20 21  2  0  0  0
 20102  1  0  0  0
 21 23  1  0  0  0
 22 28  1  0  0  0
 22 32  2  0  0  0
 26 27  1  0  0  0
 28103  1  0  0  0
 28104  1  0  0  0
 29105  1  0  0  0
 29106  1  0  0  0
 33 34  1  0  0  0
 33 66  1  0  0  0
 33 70  2  0  0  0
 34 36  1  0  0  0
 34 59  1  0  0  0
 34107  1  0  0  0
 35 44  2  0  0  0
 35 45  1  0  0  0
 35 68  1  0  0  0
 36 56  1  0  0  0
 36108  1  0  0  0
 37 39  1  0  0  0
 37 47  1  0  0  0
 37 66  1  0  0  0
 37109  1  0  0  0
 38 43  2  0  0  0
 38 46  1  0  0  0
 38 47  1  0  0  0
 39 64  1  0  0  0
 39 67  2  0  0  0
 40 52  1  0  0  0
 40 53  2  0  0  0
 40 58  1  0  0  0
 41110  1  0  0  0
 41111  1  0  0  0
 41112  1  0  0  0
 41 48  1  0  0  0
 42 43  1  0  0  0
 42 66  1  0  0  0
 42113  1  0  0  0
 42114  1  0  0  0
 43 44  1  0  0  0
 44115  1  0  0  0
 45 46  2  0  0  0
 45116  1  0  0  0
 46117  1  0  0  0
 47118  1  0  0  0
 47119  1  0  0  0
 48 56  1  0  0  0
 48 65  1  0  0  0
 48120  1  0  0  0
 49 50  1  0  0  0
 49 53  1  0  0  0
 49 64  1  0  0  0
 49121  1  0  0  0
 50 51  1  0  0  0
 50122  1  0  0  0
 50123  1  0  0  0
 51 52  1  0  0  0
 51124  1  0  0  0
 51125  1  0  0  0
 52126  1  0  0  0
 52127  1  0  0  0
 53 54  1  0  0  0
 54 55  2  0  0  0
 54128  1  0  0  0
 55 57  1  0  0  0
 55129  1  0  0  0
 56 69  2  0  0  0
 57 58  2  0  0  0
 57130  1  0  0  0
 58131  1  0  0  0
 59 60  1  0  0  0
 59 61  1  0  0  0
 59 62  1  0  0  0
 60132  1  0  0  0
 60133  1  0  0  0
 60134  1  0  0  0
 61135  1  0  0  0
 61136  1  0  0  0
 61137  1  0  0  0
 62138  1  0  0  0
 62139  1  0  0  0
 62140  1  0  0  0
 63 65  1  0  0  0
 63141  1  0  0  0
 63142  1  0  0  0
 63143  1  0  0  0
 64144  1  0  0  0
 65145  1  0  0  0
 68 83  1  0  0  0
 71 72  2  0  0  0
 71 75  1  0  0  0
 71146  1  0  0  0
 72 76  1  0  0  0
 72147  1  0  0  0
 73 74  1  0  0  0
 73 75  2  0  0  0
 73148  1  0  0  0
 74 76  2  0  0  0
 74 77  1  0  0  0
 75 82  1  0  0  0
 76 85  1  0  0  0
 77 84  1  0  0  0
 77 86  2  0  0  0
 78 80  1  0  0  0
 78 82  1  0  0  0
 78149  1  0  0  0
 78150  1  0  0  0
 79 81  1  0  0  0
 79 82  1  0  0  0
 79151  1  0  0  0
 79152  1  0  0  0
 80 83  1  0  0  0
 80153  1  0  0  0
 80154  1  0  0  0
 81 83  1  0  0  0
 81155  1  0  0  0
 81156  1  0  0  0
 82157  1  0  0  0
 83158  1  0  0  0
 84159  1  0  0  0
 84160  1  0  0  0
 85161  1  0  0  0
M  ISO  4   1 100  68 101  83 101  85 100
M  END
> <chiral flag>
0

> <version>
0

> <s_m_source_file>
/data/baiqing/PycharmProjects/Reinvent-master-3.2/result/LINK_invent/BTK/process_docking_weight1_custom_sum_contain_oxygen_bond_distance_aromatic_linkinvent_7_9_3/rearranged_h_0127.sdf

> <i_m_source_file_index>
29

> <r_mmod_Potential_Energy-OPLS-2005>
97.195442199707

> <r_mmod_Stretch_Energy-OPLS-2005>
115.802207946777

> <r_mmod_Bend_Energy-OPLS-2005>
171.756500244141

> <r_mmod_Torsional_Energy-OPLS-2005>
265.926147460938

> <r_mmod_Improper_Torsional_Energy-OPLS-2005>
6.82452392578125

> <r_mmod_Van_der_Waal_Energy-OPLS-2005>
127.524238586426

> <r_mmod_Electrostatic_Energy-OPLS-2005>
-440.781158447266

> <r_mmod_Solvation_Energy-OPLS-2005>
-234.596252441406

> <b_mmod_Minimization_Converged-OPLS-2005>
0

> <r_mmod_RMS_Derivative-OPLS-2005>
0.307951658964157

$$$$
29
                    3D
 Structure written by MMmdl.
162170  0  0  1  0            999 V2000
  -30.5747  -14.6953   20.4968 C   0  0  0  0  0  0
  -30.4240  -12.4324   19.4590 C   0  0  0  0  0  0
  -29.5020  -12.5174   18.2233 C   0  0  0  0  0  0
  -28.0218  -12.3524   18.6284 C   0  0  0  0  0  0
  -27.6327  -13.2239   19.8524 C   0  0  2  0  0  0
  -28.6718  -13.1069   20.9860 C   0  0  0  0  0  0
  -25.2469  -13.8187   20.5671 C   0  0  0  0  0  0
  -24.1778  -13.0426   20.9217 C   0  0  0  0  0  0
  -24.6348  -11.6899   20.8708 C   0  0  0  0  0  0
  -23.9016  -10.4286   21.0368 C   0  0  0  0  0  0
  -24.3573   -9.4233   21.9170 C   0  0  0  0  0  0
  -23.6275   -8.2256   22.0751 C   0  0  0  0  0  0
  -22.4260   -8.0273   21.3555 C   0  0  0  0  0  0
  -21.9873   -9.0229   20.4659 C   0  0  0  0  0  0
  -22.7173  -10.2125   20.3048 C   0  0  0  0  0  0
  -21.6860   -6.0725   22.5273 C   0  0  0  0  0  0
  -21.4018   -6.5633   23.8209 C   0  0  0  0  0  0
  -21.3668   -5.6793   24.9178 C   0  0  0  0  0  0
  -21.6028   -4.3041   24.7223 C   0  0  0  0  0  0
  -21.8827   -3.8139   23.4345 C   0  0  0  0  0  0
  -21.9209   -4.6948   22.3409 C   0  0  0  0  0  0
  -22.7812  -13.5192   21.1890 C   0  0  0  0  0  0
  -22.1664   -4.2141   21.0976 F   0  0  0  0  0  0
  -21.5634   -3.4524   25.7732 F   0  0  0  0  0  0
  -29.9761  -13.4644   20.4189 N   0  0  0  0  0  0
  -26.2848  -12.9366   20.3221 N   0  0  0  0  0  0
  -25.9261  -11.6517   20.5697 N   0  0  0  0  0  0
  -22.0447  -12.8203   22.0453 N   0  0  0  0  0  0
  -25.4190  -15.1918   20.4042 N   0  0  0  0  0  0
  -31.7542  -14.8389   20.1596 O   0  0  0  0  0  0
  -21.6644   -6.8861   21.4249 O   0  0  0  0  0  0
  -22.3482  -14.5489   20.6726 O   0  0  0  0  0  0
  -24.6292  -31.8567   23.2054 C   0  0  0  0  0  0
  -25.9121  -32.4811   23.8380 C   0  0  1  0  0  0
  -27.2166  -27.2977   20.1139 C   0  0  0  0  0  0
  -25.5927  -33.8616   24.2275 N   0  0  0  0  0  0
  -23.4247  -30.4791   21.5419 C   0  0  2  0  0  0
  -24.8682  -28.9361   20.0991 C   0  0  0  0  0  0
  -22.7481  -29.4594   22.4905 C   0  0  0  0  0  0
  -18.0248  -28.1417   22.8466 C   0  0  0  0  0  0
  -24.1479  -36.7334   23.2637 C   0  0  0  0  0  0
  -25.9643  -30.7797   21.3782 C   0  0  0  0  0  0
  -26.0344  -29.4041   20.7209 C   0  0  0  0  0  0
  -27.2051  -28.5893   20.7302 C   0  0  0  0  0  0
  -26.0450  -26.9031   19.4383 C   0  0  0  0  0  0
  -24.8774  -27.6887   19.4512 C   0  0  0  0  0  0
  -23.6412  -29.8223   20.1526 C   0  0  0  0  0  0
  -25.4118  -36.3116   24.0318 C   0  0  1  0  0  0
  -20.5852  -28.3716   23.1268 C   0  0  2  0  0  0
  -20.6788  -26.9449   22.5401 C   0  0  0  0  0  0
  -19.5772  -26.6395   21.5207 C   0  0  0  0  0  0
  -18.1924  -26.7966   22.1590 C   0  0  0  0  0  0
  -19.1508  -28.8892   23.2865 C   0  0  0  0  0  0
  -18.9445  -30.1475   23.8907 C   0  0  0  0  0  0
  -17.6461  -30.6634   24.0552 C   0  0  0  0  0  0
  -25.9046  -34.9491   23.5079 C   0  0  0  0  0  0
  -16.5344  -29.9134   23.6319 C   0  0  0  0  0  0
  -16.7246  -28.6542   23.0357 C   0  0  0  0  0  0
  -26.4486  -31.6667   25.0779 C   0  0  0  0  0  0
  -25.3712  -31.3813   26.1484 C   0  0  0  0  0  0
  -27.0329  -30.3112   24.6250 C   0  0  0  0  0  0
  -27.6051  -32.4390   25.7557 C   0  0  0  0  0  0
  -27.5571  -37.1817   24.8446 C   0  0  0  0  0  0
  -21.4167  -29.3048   22.3648 N   0  0  0  0  0  0
  -26.4293  -37.3822   23.9390 N   0  0  0  0  0  0
  -24.6927  -31.0536   22.1018 N   0  0  0  0  0  0
  -23.4165  -28.8126   23.2993 O   0  0  0  0  0  0
  -28.3158  -26.4324   20.2348 O   0  0  0  0  0  0
  -26.5616  -34.8963   22.4650 O   0  0  0  0  0  0
  -23.5445  -32.1330   23.7375 O   0  0  0  0  0  0
  -26.6828  -23.7795   20.7940 C   0  0  0  0  0  0
  -25.4234  -23.1921   20.1366 C   0  0  0  0  0  0
  -27.0475  -23.3100   18.4205 C   0  0  0  0  0  0
  -27.8160  -23.6982   19.7365 C   0  0  2  0  0  0
  -28.8412  -22.4883   20.1182 C   0  0  0  0  0  0
  -28.5065  -25.1602   19.4835 C   0  0  0  0  0  0
  -30.1298  -17.2650   20.7034 C   0  0  0  0  0  0
  -28.3642  -20.9410   20.2519 C   0  0  0  0  0  0
  -28.9742  -18.3919   20.5941 C   0  0  0  0  0  0
  -29.7699  -15.7862   20.7538 N   0  0  0  0  0  0
  -25.6008  -23.3688   18.6907 N   0  3  0  0  0  0
  -29.4129  -19.8623   20.5346 N   0  3  0  0  0  0
  -31.4633  -12.5747   19.1578 H   0  0  0  0  0  0
  -30.3780  -11.4410   19.9123 H   0  0  0  0  0  0
  -29.7748  -11.7573   17.4909 H   0  0  0  0  0  0
  -29.6429  -13.4805   17.7303 H   0  0  0  0  0  0
  -27.8579  -11.3005   18.8610 H   0  0  0  0  0  0
  -27.3719  -12.5830   17.7801 H   0  0  0  0  0  0
  -27.6362  -14.2548   19.5009 H   0  0  0  0  0  0
  -28.7013  -12.0920   21.3838 H   0  0  0  0  0  0
  -28.4085  -13.7597   21.8207 H   0  0  0  0  0  0
  -25.2702   -9.5723   22.4741 H   0  0  0  0  0  0
  -24.0025   -7.4625   22.7413 H   0  0  0  0  0  0
  -21.0838   -8.8686   19.8923 H   0  0  0  0  0  0
  -22.3596  -10.9654   19.6146 H   0  0  0  0  0  0
  -21.2000   -7.6139   23.9708 H   0  0  0  0  0  0
  -21.1492   -6.0522   25.9087 H   0  0  0  0  0  0
  -22.0608   -2.7602   23.2832 H   0  0  0  0  0  0
  -22.4019  -11.9863   22.4864 H   0  0  0  0  0  0
  -21.1057  -13.1246   22.2608 H   0  0  0  0  0  0
  -24.6432  -15.8409   20.4688 H   0  0  0  0  0  0
  -26.2554  -15.6146   20.0209 H   0  0  0  0  0  0
  -26.7194  -32.5484   23.1138 H   0  0  0  0  0  0
  -25.0160  -33.9777   25.0473 H   0  0  0  0  0  0
  -22.7207  -31.3011   21.3993 H   0  0  0  0  0  0
  -23.3776  -35.9635   23.3288 H   0  0  0  0  0  0
  -24.3543  -36.8956   22.2042 H   0  0  0  0  0  0
  -23.7186  -37.6523   23.6676 H   0  0  0  0  0  0
  -26.0805  -31.5437   20.6073 H   0  0  0  0  0  0
  -26.8576  -30.8418   21.9909 H   0  0  0  0  0  0
  -28.0968  -28.9314   21.2368 H   0  0  0  0  0  0
  -26.0161  -25.9632   18.9175 H   0  0  0  0  0  0
  -23.9839  -27.3324   18.9551 H   0  0  0  0  0  0
  -23.7781  -30.6077   19.4069 H   0  0  0  0  0  0
  -22.7603  -29.2617   19.8323 H   0  0  0  0  0  0
  -25.1278  -36.1996   25.0818 H   0  0  0  0  0  0
  -20.9912  -28.3338   24.1401 H   0  0  0  0  0  0
  -20.5723  -26.2331   23.3595 H   0  0  0  0  0  0
  -21.6662  -26.7520   22.1180 H   0  0  0  0  0  0
  -19.6955  -25.6287   21.1275 H   0  0  0  0  0  0
  -19.6782  -27.3189   20.6735 H   0  0  0  0  0  0
  -17.4198  -26.6684   21.3981 H   0  0  0  0  0  0
  -18.0355  -26.0110   22.8994 H   0  0  0  0  0  0
  -19.7925  -30.7248   24.2344 H   0  0  0  0  0  0
  -17.5013  -31.6305   24.5151 H   0  0  0  0  0  0
  -15.5353  -30.3053   23.7660 H   0  0  0  0  0  0
  -15.8614  -28.0863   22.7135 H   0  0  0  0  0  0
  -24.5923  -30.7126   25.7798 H   0  0  0  0  0  0
  -24.8895  -32.2981   26.4907 H   0  0  0  0  0  0
  -25.7998  -30.9008   27.0283 H   0  0  0  0  0  0
  -26.2916  -29.6869   24.1262 H   0  0  0  0  0  0
  -27.3978  -29.7364   25.4765 H   0  0  0  0  0  0
  -27.8784  -30.4419   23.9498 H   0  0  0  0  0  0
  -27.2737  -33.3742   26.2119 H   0  0  0  0  0  0
  -28.3924  -32.6862   25.0413 H   0  0  0  0  0  0
  -28.0700  -31.8536   26.5506 H   0  0  0  0  0  0
  -28.2578  -38.0126   24.7502 H   0  0  0  0  0  0
  -28.1052  -36.2634   24.6262 H   0  0  0  0  0  0
  -27.2248  -37.1441   25.8839 H   0  0  0  0  0  0
  -20.9372  -29.8801   21.6878 H   0  0  0  0  0  0
  -26.0160  -38.2876   24.1498 H   0  0  0  0  0  0
  -26.9254  -23.2527   21.7207 H   0  0  0  0  0  0
  -26.4834  -24.8118   21.0815 H   0  0  0  0  0  0
  -24.5016  -23.6592   20.4879 H   0  0  0  0  0  0
  -25.3493  -22.1234   20.3396 H   0  0  0  0  0  0
  -27.2827  -22.2974   18.1023 H   0  0  0  0  0  0
  -27.2849  -23.9170   17.5460 H   0  0  0  0  0  0
  -29.3175  -22.7505   21.0644 H   0  0  0  0  0  0
  -29.6476  -22.5109   19.3845 H   0  0  0  0  0  0
  -28.4183  -25.4545   18.4371 H   0  0  0  0  0  0
  -29.5801  -24.9860   19.5794 H   0  0  0  0  0  0
  -30.7161  -17.4559   21.6032 H   0  0  0  0  0  0
  -30.8123  -17.4043   19.8647 H   0  0  0  0  0  0
  -27.8715  -20.6320   19.3335 H   0  0  0  0  0  0
  -27.5976  -20.8754   21.0232 H   0  0  0  0  0  0
  -28.2958  -18.2902   21.4423 H   0  0  0  0  0  0
  -28.3701  -18.1917   19.7080 H   0  0  0  0  0  0
  -28.8185  -15.5648   21.0115 H   0  0  0  0  0  0
  -25.2413  -24.2696   18.4175 H   0  0  0  0  0  0
  -25.0926  -22.6780   18.1589 H   0  0  0  0  0  0
  -29.8513  -20.0755   21.4158 H   0  0  0  0  0  0
  -30.1167  -19.9379   19.8179 H   0  0  0  0  0  0
  1 25  1  0  0  0
  1 30  2  0  0  0
  1 80  1  0  0  0
  2  3  1  0  0  0
  2 25  1  0  0  0
  2 83  1  0  0  0
  2 84  1  0  0  0
  3  4  1  0  0  0
  3 85  1  0  0  0
  3 86  1  0  0  0
  4  5  1  0  0  0
  4 87  1  0  0  0
  4 88  1  0  0  0
  5  6  1  0  0  0
  5 26  1  0  0  0
  5 89  1  0  0  0
  6 25  1  0  0  0
  6 90  1  0  0  0
  6 91  1  0  0  0
  7  8  2  0  0  0
  7 26  1  0  0  0
  7 29  1  0  0  0
  8  9  1  0  0  0
  8 22  1  0  0  0
  9 10  1  0  0  0
  9 27  2  0  0  0
 10 11  2  0  0  0
 10 15  1  0  0  0
 11 12  1  0  0  0
 11 92  1  0  0  0
 12 13  2  0  0  0
 12 93  1  0  0  0
 13 14  1  0  0  0
 13 31  1  0  0  0
 14 15  2  0  0  0
 14 94  1  0  0  0
 15 95  1  0  0  0
 16 17  2  0  0  0
 16 21  1  0  0  0
 16 31  1  0  0  0
 17 18  1  0  0  0
 17 96  1  0  0  0
 18 19  2  0  0  0
 18 97  1  0  0  0
 19 20  1  0  0  0
 19 24  1  0  0  0
 20 21  2  0  0  0
 20 98  1  0  0  0
 21 23  1  0  0  0
 22 28  1  0  0  0
 22 32  2  0  0  0
 26 27  1  0  0  0
 28 99  1  0  0  0
 28100  1  0  0  0
 29101  1  0  0  0
 29102  1  0  0  0
 33 34  1  0  0  0
 33 66  1  0  0  0
 33 70  2  0  0  0
 34 36  1  0  0  0
 34 59  1  0  0  0
 34103  1  0  0  0
 35 44  2  0  0  0
 35 45  1  0  0  0
 35 68  1  0  0  0
 36 56  1  0  0  0
 36104  1  0  0  0
 37 39  1  0  0  0
 37 47  1  0  0  0
 37 66  1  0  0  0
 37105  1  0  0  0
 38 43  2  0  0  0
 38 46  1  0  0  0
 38 47  1  0  0  0
 39 64  1  0  0  0
 39 67  2  0  0  0
 40 52  1  0  0  0
 40 53  2  0  0  0
 40 58  1  0  0  0
 41106  1  0  0  0
 41107  1  0  0  0
 41108  1  0  0  0
 41 48  1  0  0  0
 42 43  1  0  0  0
 42 66  1  0  0  0
 42109  1  0  0  0
 42110  1  0  0  0
 43 44  1  0  0  0
 44111  1  0  0  0
 45 46  2  0  0  0
 45112  1  0  0  0
 46113  1  0  0  0
 47114  1  0  0  0
 47115  1  0  0  0
 48 56  1  0  0  0
 48 65  1  0  0  0
 48116  1  0  0  0
 49 50  1  0  0  0
 49 53  1  0  0  0
 49 64  1  0  0  0
 49117  1  0  0  0
 50 51  1  0  0  0
 50118  1  0  0  0
 50119  1  0  0  0
 51 52  1  0  0  0
 51120  1  0  0  0
 51121  1  0  0  0
 52122  1  0  0  0
 52123  1  0  0  0
 53 54  1  0  0  0
 54 55  2  0  0  0
 54124  1  0  0  0
 55 57  1  0  0  0
 55125  1  0  0  0
 56 69  2  0  0  0
 57 58  2  0  0  0
 57126  1  0  0  0
 58127  1  0  0  0
 59 60  1  0  0  0
 59 61  1  0  0  0
 59 62  1  0  0  0
 60128  1  0  0  0
 60129  1  0  0  0
 60130  1  0  0  0
 61131  1  0  0  0
 61132  1  0  0  0
 61133  1  0  0  0
 62134  1  0  0  0
 62135  1  0  0  0
 62136  1  0  0  0
 63 65  1  0  0  0
 63137  1  0  0  0
 63138  1  0  0  0
 63139  1  0  0  0
 64140  1  0  0  0
 65141  1  0  0  0
 68 76  1  0  0  0
 71 72  1  0  0  0
 71 74  1  0  0  0
 71142  1  0  0  0
 71143  1  0  0  0
 72 81  1  0  0  0
 72144  1  0  0  0
 72145  1  0  0  0
 73 74  1  0  0  0
 73 81  1  0  0  0
 73146  1  0  0  0
 73147  1  0  0  0
 74 75  1  0  0  0
 74 76  1  0  0  0
 75 78  1  0  0  0
 75148  1  0  0  0
 75149  1  0  0  0
 76150  1  0  0  0
 76151  1  0  0  0
 77 79  1  0  0  0
 77 80  1  0  0  0
 77152  1  0  0  0
 77153  1  0  0  0
 78 82  1  0  0  0
 78154  1  0  0  0
 78155  1  0  0  0
 79 82  1  0  0  0
 79156  1  0  0  0
 79157  1  0  0  0
 80158  1  0  0  0
 81159  1  0  0  0
 81160  1  0  0  0
 82161  1  0  0  0
 82162  1  0  0  0
M  CHG  2  81   1  82   1
M  ISO  4   1 100  68 101  76 101  80 100
M  END
> <chiral flag>
0

> <version>
0

> <s_m_source_file>
/data/baiqing/PycharmProjects/Reinvent-master-3.2/result/LINK_invent/BTK/process_docking_weight1_custom_sum_contain_oxygen_bond_distance_aromatic_linkinvent_7_9_3/rearranged_h_0127.sdf

> <i_m_source_file_index>
30

> <r_mmod_Potential_Energy-OPLS-2005>
-153.833129882812

> <r_mmod_Stretch_Energy-OPLS-2005>
116.333427429199

> <r_mmod_Bend_Energy-OPLS-2005>
201.057052612305

> <r_mmod_Torsional_Energy-OPLS-2005>
297.614471435547

> <r_mmod_Improper_Torsional_Energy-OPLS-2005>
5.05866575241089

> <r_mmod_Van_der_Waal_Energy-OPLS-2005>
116.005638122559

> <r_mmod_Electrostatic_Energy-OPLS-2005>
60.5820541381836

> <r_mmod_Solvation_Energy-OPLS-2005>
-1019.80059814453

> <b_mmod_Minimization_Converged-OPLS-2005>
0

> <r_mmod_RMS_Derivative-OPLS-2005>
5.64772462844849

$$$$
30
                    3D
 Structure written by MMmdl.
160168  0  0  1  0            999 V2000
  -30.6004  -14.6629   20.4700 C   0  0  0  0  0  0
  -30.4433  -12.3954   19.4650 C   0  0  0  0  0  0
  -29.5173  -12.5127   18.2320 C   0  0  0  0  0  0
  -28.0354  -12.3495   18.6338 C   0  0  0  0  0  0
  -27.6529  -13.2174   19.8626 C   0  0  2  0  0  0
  -28.6971  -13.0749   20.9909 C   0  0  0  0  0  0
  -25.2566  -13.8159   20.5682 C   0  0  0  0  0  0
  -24.1834  -13.0427   20.9192 C   0  0  0  0  0  0
  -24.6410  -11.6897   20.8734 C   0  0  0  0  0  0
  -23.9074  -10.4284   21.0390 C   0  0  0  0  0  0
  -24.3634   -9.4204   21.9178 C   0  0  0  0  0  0
  -23.6316   -8.2232   22.0763 C   0  0  0  0  0  0
  -22.4295   -8.0274   21.3549 C   0  0  0  0  0  0
  -21.9921   -9.0237   20.4648 C   0  0  0  0  0  0
  -22.7238  -10.2118   20.3045 C   0  0  0  0  0  0
  -21.6859   -6.0736   22.5289 C   0  0  0  0  0  0
  -21.4013   -6.5648   23.8217 C   0  0  0  0  0  0
  -21.3649   -5.6804   24.9183 C   0  0  0  0  0  0
  -21.6054   -4.3068   24.7237 C   0  0  0  0  0  0
  -21.8819   -3.8152   23.4359 C   0  0  0  0  0  0
  -21.9191   -4.6965   22.3415 C   0  0  0  0  0  0
  -22.7854  -13.5214   21.1853 C   0  0  0  0  0  0
  -22.1666   -4.2157   21.0986 F   0  0  0  0  0  0
  -21.5619   -3.4546   25.7744 F   0  0  0  0  0  0
  -30.0153  -13.4201   20.4387 N   0  0  0  0  0  0
  -26.2992  -12.9332   20.3312 N   0  0  0  0  0  0
  -25.9335  -11.6485   20.5745 N   0  0  0  0  0  0
  -22.0503  -12.8194   22.0407 N   0  0  0  0  0  0
  -25.4283  -15.1890   20.4098 N   0  0  0  0  0  0
  -31.7875  -14.7895   20.1545 O   0  0  0  0  0  0
  -21.6649   -6.8880   21.4252 O   0  0  0  0  0  0
  -22.3527  -14.5513   20.6709 O   0  0  0  0  0  0
  -24.6266  -31.8581   23.2005 C   0  0  0  0  0  0
  -25.9106  -32.4762   23.8331 C   0  0  1  0  0  0
  -27.2295  -27.3176   20.1025 C   0  0  0  0  0  0
  -25.5910  -33.8575   24.2250 N   0  0  0  0  0  0
  -23.4203  -30.4811   21.5436 C   0  0  2  0  0  0
  -24.8636  -28.9333   20.1126 C   0  0  0  0  0  0
  -22.7471  -29.4607   22.4935 C   0  0  0  0  0  0
  -18.0278  -28.1387   22.8471 C   0  0  0  0  0  0
  -24.1492  -36.7311   23.2634 C   0  0  0  0  0  0
  -25.9619  -30.7860   21.3712 C   0  0  0  0  0  0
  -26.0321  -29.4124   20.7153 C   0  0  0  0  0  0
  -27.2126  -28.6128   20.7042 C   0  0  0  0  0  0
  -26.0292  -26.8836   19.4925 C   0  0  0  0  0  0
  -24.8623  -27.6721   19.4993 C   0  0  0  0  0  0
  -23.6335  -29.8143   20.1591 C   0  0  0  0  0  0
  -25.4118  -36.3076   24.0312 C   0  0  1  0  0  0
  -20.5879  -28.3680   23.1291 C   0  0  2  0  0  0
  -20.6772  -26.9400   22.5423 C   0  0  0  0  0  0
  -19.5751  -26.6381   21.5222 C   0  0  0  0  0  0
  -18.1926  -26.7922   22.1616 C   0  0  0  0  0  0
  -19.1537  -28.8852   23.2864 C   0  0  0  0  0  0
  -18.9458  -30.1453   23.8867 C   0  0  0  0  0  0
  -17.6463  -30.6578   24.0569 C   0  0  0  0  0  0
  -25.9051  -34.9448   23.5090 C   0  0  0  0  0  0
  -16.5350  -29.9080   23.6347 C   0  0  0  0  0  0
  -16.7268  -28.6518   23.0331 C   0  0  0  0  0  0
  -26.4477  -31.6592   25.0721 C   0  0  0  0  0  0
  -25.3701  -31.3772   26.1452 C   0  0  0  0  0  0
  -27.0312  -30.3004   24.6188 C   0  0  0  0  0  0
  -27.6008  -32.4353   25.7513 C   0  0  0  0  0  0
  -27.5578  -37.1799   24.8453 C   0  0  0  0  0  0
  -21.4182  -29.3026   22.3680 N   0  0  0  0  0  0
  -26.4285  -37.3775   23.9390 N   0  0  0  0  0  0
  -24.6888  -31.0585   22.0949 N   0  0  0  0  0  0
  -23.4198  -28.8143   23.3007 O   0  0  0  0  0  0
  -28.3899  -26.5250   20.1399 O   0  0  0  0  0  0
  -26.5637  -34.8919   22.4666 O   0  0  0  0  0  0
  -23.5430  -32.1386   23.7336 O   0  0  0  0  0  0
  -27.9918  -22.4842   22.0693 C   0  0  0  0  0  0
  -27.8145  -23.9951   21.9545 C   0  0  0  0  0  0
  -28.4537  -22.4344   20.6056 C   0  0  1  0  0  0
  -28.7583  -24.0079   20.7441 C   0  0  1  0  0  0
  -31.6000  -17.4265   21.7212 C   0  0  0  0  0  0
  -29.6949  -15.9730   20.5699 C   0  0  0  0  0  0
  -29.4677  -21.2736   20.2111 C   0  0  0  0  0  0
  -28.4451  -25.1191   19.6684 C   0  0  0  0  0  0
  -29.2406  -19.8408   20.8945 C   0  0  0  0  0  0
  -30.1655  -17.3982   21.1571 C   0  0  2  0  0  0
  -29.9282  -18.6289   20.2818 N   0  3  0  0  0  0
  -31.4868  -12.5186   19.1669 H   0  0  0  0  0  0
  -30.3738  -11.3978   19.9023 H   0  0  0  0  0  0
  -29.7848  -11.7669   17.4820 H   0  0  0  0  0  0
  -29.6655  -13.4832   17.7554 H   0  0  0  0  0  0
  -27.8658  -11.2955   18.8587 H   0  0  0  0  0  0
  -27.3870  -12.5878   17.7900 H   0  0  0  0  0  0
  -27.6662  -14.2511   19.5228 H   0  0  0  0  0  0
  -28.7055  -12.0502   21.3669 H   0  0  0  0  0  0
  -28.4429  -13.6943   21.8505 H   0  0  0  0  0  0
  -25.2769   -9.5686   22.4758 H   0  0  0  0  0  0
  -24.0030   -7.4618   22.7474 H   0  0  0  0  0  0
  -21.0856   -8.8740   19.8957 H   0  0  0  0  0  0
  -22.3686  -10.9657   19.6160 H   0  0  0  0  0  0
  -21.2016   -7.6156   23.9732 H   0  0  0  0  0  0
  -21.1471   -6.0527   25.9088 H   0  0  0  0  0  0
  -22.0610   -2.7615   23.2854 H   0  0  0  0  0  0
  -22.4118  -11.9858   22.4802 H   0  0  0  0  0  0
  -21.1110  -13.1197   22.2604 H   0  0  0  0  0  0
  -24.6642  -15.8468   20.5224 H   0  0  0  0  0  0
  -26.2786  -15.6250   20.0795 H   0  0  0  0  0  0
  -26.7167  -32.5421   23.1068 H   0  0  0  0  0  0
  -25.0027  -33.9718   25.0377 H   0  0  0  0  0  0
  -22.7145  -31.3005   21.3976 H   0  0  0  0  0  0
  -23.3736  -35.9660   23.3306 H   0  0  0  0  0  0
  -24.3590  -36.8961   22.2050 H   0  0  0  0  0  0
  -23.7277  -37.6520   23.6676 H   0  0  0  0  0  0
  -26.0931  -31.5463   20.5999 H   0  0  0  0  0  0
  -26.8425  -30.8323   21.9993 H   0  0  0  0  0  0
  -28.1130  -28.9769   21.1762 H   0  0  0  0  0  0
  -25.9357  -25.9284   19.0032 H   0  0  0  0  0  0
  -23.9654  -27.2957   19.0282 H   0  0  0  0  0  0
  -23.7523  -30.5877   19.4011 H   0  0  0  0  0  0
  -22.7535  -29.2415   19.8589 H   0  0  0  0  0  0
  -25.1302  -36.1917   25.0801 H   0  0  0  0  0  0
  -20.9948  -28.3243   24.1418 H   0  0  0  0  0  0
  -20.5703  -26.2252   23.3607 H   0  0  0  0  0  0
  -21.6636  -26.7450   22.1184 H   0  0  0  0  0  0
  -19.6916  -25.6300   21.1230 H   0  0  0  0  0  0
  -19.6700  -27.3203   20.6770 H   0  0  0  0  0  0
  -17.4193  -26.6662   21.4016 H   0  0  0  0  0  0
  -18.0313  -26.0078   22.9026 H   0  0  0  0  0  0
  -19.7942  -30.7292   24.2184 H   0  0  0  0  0  0
  -17.5022  -31.6250   24.5185 H   0  0  0  0  0  0
  -15.5350  -30.2969   23.7713 H   0  0  0  0  0  0
  -15.8660  -28.0866   22.7004 H   0  0  0  0  0  0
  -24.5834  -30.7158   25.7817 H   0  0  0  0  0  0
  -24.8932  -32.2958   26.4872 H   0  0  0  0  0  0
  -25.8009  -30.8959   27.0237 H   0  0  0  0  0  0
  -26.2893  -29.6766   24.1179 H   0  0  0  0  0  0
  -27.3956  -29.7251   25.4712 H   0  0  0  0  0  0
  -27.8790  -30.4294   23.9456 H   0  0  0  0  0  0
  -27.2565  -33.3639   26.2084 H   0  0  0  0  0  0
  -28.3817  -32.6950   25.0356 H   0  0  0  0  0  0
  -28.0652  -31.8481   26.5444 H   0  0  0  0  0  0
  -28.2566  -38.0115   24.7512 H   0  0  0  0  0  0
  -28.1085  -36.2641   24.6255 H   0  0  0  0  0  0
  -27.2295  -37.1465   25.8853 H   0  0  0  0  0  0
  -20.9339  -29.8773   21.6930 H   0  0  0  0  0  0
  -26.0164  -38.2841   24.1398 H   0  0  0  0  0  0
  -27.0698  -21.9377   22.2764 H   0  0  0  0  0  0
  -28.7787  -22.2191   22.7768 H   0  0  0  0  0  0
  -28.1682  -24.5621   22.8175 H   0  0  0  0  0  0
  -26.7951  -24.2836   21.6888 H   0  0  0  0  0  0
  -27.5558  -22.3352   19.9909 H   0  0  0  0  0  0
  -29.7814  -24.1221   21.1114 H   0  0  0  0  0  0
  -31.7551  -16.6229   22.4414 H   0  0  0  0  0  0
  -31.8006  -18.3630   22.2418 H   0  0  0  0  0  0
  -32.3480  -17.3217   20.9352 H   0  0  0  0  0  0
  -29.3433  -16.1342   19.5515 H   0  0  0  0  0  0
  -28.7909  -15.7173   21.1171 H   0  0  0  0  0  0
  -30.4857  -21.5985   20.4270 H   0  0  0  0  0  0
  -29.4357  -21.1453   19.1288 H   0  0  0  0  0  0
  -27.5873  -24.8105   19.0815 H   0  0  0  0  0  0
  -29.2574  -25.1033   18.9396 H   0  0  0  0  0  0
  -28.1711  -19.6242   20.9166 H   0  0  0  0  0  0
  -29.5466  -19.9188   21.9373 H   0  0  0  0  0  0
  -29.5222  -17.5479   22.0257 H   0  0  0  0  0  0
  -30.8312  -18.9228   19.9424 H   0  0  0  0  0  0
  -29.3938  -18.3632   19.4696 H   0  0  0  0  0  0
  1 25  1  0  0  0
  1 30  2  0  0  0
  1 76  1  0  0  0
  2  3  1  0  0  0
  2 25  1  0  0  0
  2 82  1  0  0  0
  2 83  1  0  0  0
  3  4  1  0  0  0
  3 84  1  0  0  0
  3 85  1  0  0  0
  4  5  1  0  0  0
  4 86  1  0  0  0
  4 87  1  0  0  0
  5  6  1  0  0  0
  5 26  1  0  0  0
  5 88  1  0  0  0
  6 25  1  0  0  0
  6 89  1  0  0  0
  6 90  1  0  0  0
  7  8  2  0  0  0
  7 26  1  0  0  0
  7 29  1  0  0  0
  8  9  1  0  0  0
  8 22  1  0  0  0
  9 10  1  0  0  0
  9 27  2  0  0  0
 10 11  2  0  0  0
 10 15  1  0  0  0
 11 12  1  0  0  0
 11 91  1  0  0  0
 12 13  2  0  0  0
 12 92  1  0  0  0
 13 14  1  0  0  0
 13 31  1  0  0  0
 14 15  2  0  0  0
 14 93  1  0  0  0
 15 94  1  0  0  0
 16 17  2  0  0  0
 16 21  1  0  0  0
 16 31  1  0  0  0
 17 18  1  0  0  0
 17 95  1  0  0  0
 18 19  2  0  0  0
 18 96  1  0  0  0
 19 20  1  0  0  0
 19 24  1  0  0  0
 20 21  2  0  0  0
 20 97  1  0  0  0
 21 23  1  0  0  0
 22 28  1  0  0  0
 22 32  2  0  0  0
 26 27  1  0  0  0
 28 98  1  0  0  0
 28 99  1  0  0  0
 29100  1  0  0  0
 29101  1  0  0  0
 33 34  1  0  0  0
 33 66  1  0  0  0
 33 70  2  0  0  0
 34 36  1  0  0  0
 34 59  1  0  0  0
 34102  1  0  0  0
 35 44  2  0  0  0
 35 45  1  0  0  0
 35 68  1  0  0  0
 36 56  1  0  0  0
 36103  1  0  0  0
 37 39  1  0  0  0
 37 47  1  0  0  0
 37 66  1  0  0  0
 37104  1  0  0  0
 38 43  2  0  0  0
 38 46  1  0  0  0
 38 47  1  0  0  0
 39 64  1  0  0  0
 39 67  2  0  0  0
 40 52  1  0  0  0
 40 53  2  0  0  0
 40 58  1  0  0  0
 41105  1  0  0  0
 41106  1  0  0  0
 41107  1  0  0  0
 41 48  1  0  0  0
 42 43  1  0  0  0
 42 66  1  0  0  0
 42108  1  0  0  0
 42109  1  0  0  0
 43 44  1  0  0  0
 44110  1  0  0  0
 45 46  2  0  0  0
 45111  1  0  0  0
 46112  1  0  0  0
 47113  1  0  0  0
 47114  1  0  0  0
 48 56  1  0  0  0
 48 65  1  0  0  0
 48115  1  0  0  0
 49 50  1  0  0  0
 49 53  1  0  0  0
 49 64  1  0  0  0
 49116  1  0  0  0
 50 51  1  0  0  0
 50117  1  0  0  0
 50118  1  0  0  0
 51 52  1  0  0  0
 51119  1  0  0  0
 51120  1  0  0  0
 52121  1  0  0  0
 52122  1  0  0  0
 53 54  1  0  0  0
 54 55  2  0  0  0
 54123  1  0  0  0
 55 57  1  0  0  0
 55124  1  0  0  0
 56 69  2  0  0  0
 57 58  2  0  0  0
 57125  1  0  0  0
 58126  1  0  0  0
 59 60  1  0  0  0
 59 61  1  0  0  0
 59 62  1  0  0  0
 60127  1  0  0  0
 60128  1  0  0  0
 60129  1  0  0  0
 61130  1  0  0  0
 61131  1  0  0  0
 61132  1  0  0  0
 62133  1  0  0  0
 62134  1  0  0  0
 62135  1  0  0  0
 63 65  1  0  0  0
 63136  1  0  0  0
 63137  1  0  0  0
 63138  1  0  0  0
 64139  1  0  0  0
 65140  1  0  0  0
 68 78  1  0  0  0
 71 72  1  0  0  0
 71 73  1  0  0  0
 71141  1  0  0  0
 71142  1  0  0  0
 72 74  1  0  0  0
 72143  1  0  0  0
 72144  1  0  0  0
 73 74  1  0  0  0
 73 77  1  0  0  0
 73145  1  0  0  0
 74 78  1  0  0  0
 74146  1  0  0  0
 75147  1  0  0  0
 75148  1  0  0  0
 75149  1  0  0  0
 75 80  1  0  0  0
 76 80  1  0  0  0
 76150  1  0  0  0
 76151  1  0  0  0
 77 79  1  0  0  0
 77152  1  0  0  0
 77153  1  0  0  0
 78154  1  0  0  0
 78155  1  0  0  0
 79 81  1  0  0  0
 79156  1  0  0  0
 79157  1  0  0  0
 80 81  1  0  0  0
 80158  1  0  0  0
 81159  1  0  0  0
 81160  1  0  0  0
M  CHG  1  81   1
M  ISO  4   1 100  68 101  76 100  78 101
M  END
> <chiral flag>
0

> <version>
0

> <s_m_source_file>
/data/baiqing/PycharmProjects/Reinvent-master-3.2/result/LINK_invent/BTK/process_docking_weight1_custom_sum_contain_oxygen_bond_distance_aromatic_linkinvent_7_9_3/rearranged_h_0127.sdf

> <i_m_source_file_index>
31

> <r_mmod_Potential_Energy-OPLS-2005>
20.8972759246826

> <r_mmod_Stretch_Energy-OPLS-2005>
92.829963684082

> <r_mmod_Bend_Energy-OPLS-2005>
173.876907348633

> <r_mmod_Torsional_Energy-OPLS-2005>
219.215728759766

> <r_mmod_Improper_Torsional_Energy-OPLS-2005>
7.63010215759277

> <r_mmod_Van_der_Waal_Energy-OPLS-2005>
121.610176086426

> <r_mmod_Electrostatic_Energy-OPLS-2005>
-187.955871582031

> <r_mmod_Solvation_Energy-OPLS-2005>
-456.104400634766

> <b_mmod_Minimization_Converged-OPLS-2005>
0

> <r_mmod_RMS_Derivative-OPLS-2005>
2.95051193237305

$$$$
31
                    3D
 Structure written by MMmdl.
174182  0  0  1  0            999 V2000
  -30.7641  -14.3894   20.6332 C   0  0  0  0  0  0
  -30.4225  -12.2727   19.4246 C   0  0  0  0  0  0
  -29.4898  -12.5005   18.2198 C   0  0  0  0  0  0
  -28.0159  -12.3565   18.6420 C   0  0  0  0  0  0
  -27.6687  -13.2011   19.8914 C   0  0  2  0  0  0
  -28.7086  -12.9593   21.0114 C   0  0  0  0  0  0
  -25.2570  -13.8155   20.5745 C   0  0  0  0  0  0
  -24.1845  -13.0426   20.9259 C   0  0  0  0  0  0
  -24.6398  -11.6885   20.8867 C   0  0  0  0  0  0
  -23.9072  -10.4242   21.0525 C   0  0  0  0  0  0
  -24.3610   -9.4103   21.9262 C   0  0  0  0  0  0
  -23.6278   -8.2116   22.0757 C   0  0  0  0  0  0
  -22.4271   -8.0191   21.3507 C   0  0  0  0  0  0
  -21.9960   -9.0192   20.4631 C   0  0  0  0  0  0
  -22.7292  -10.2081   20.3098 C   0  0  0  0  0  0
  -21.6794   -6.0684   22.5287 C   0  0  0  0  0  0
  -21.3965   -6.5600   23.8206 C   0  0  0  0  0  0
  -21.3691   -5.6783   24.9196 C   0  0  0  0  0  0
  -21.6074   -4.3043   24.7274 C   0  0  0  0  0  0
  -21.8793   -3.8119   23.4381 C   0  0  0  0  0  0
  -21.9161   -4.6911   22.3428 C   0  0  0  0  0  0
  -22.7849  -13.5173   21.1924 C   0  0  0  0  0  0
  -22.1635   -4.2093   21.1005 F   0  0  0  0  0  0
  -21.5722   -3.4557   25.7800 F   0  0  0  0  0  0
  -30.0604  -13.2373   20.4708 N   0  0  0  0  0  0
  -26.3046  -12.9322   20.3476 N   0  0  0  0  0  0
  -25.9305  -11.6485   20.5854 N   0  0  0  0  0  0
  -22.0483  -12.8117   22.0462 N   0  0  0  0  0  0
  -25.4322  -15.1858   20.4097 N   0  0  0  0  0  0
  -31.8000  -14.6401   20.0157 O   0  0  0  0  0  0
  -21.6576   -6.8837   21.4234 O   0  0  0  0  0  0
  -22.3493  -14.5446   20.6750 O   0  0  0  0  0  0
  -24.6350  -31.8816   23.2235 C   0  0  0  0  0  0
  -25.9194  -32.4922   23.8546 C   0  0  1  0  0  0
  -27.2211  -27.4697   20.0641 C   0  0  0  0  0  0
  -25.5982  -33.8698   24.2460 N   0  0  0  0  0  0
  -23.4353  -30.5130   21.5768 C   0  0  2  0  0  0
  -24.8547  -28.9975   20.1101 C   0  0  0  0  0  0
  -22.7734  -29.4916   22.5241 C   0  0  0  0  0  0
  -17.9945  -28.1132   22.8749 C   0  0  0  0  0  0
  -24.1491  -36.7354   23.2630 C   0  0  0  0  0  0
  -25.9536  -30.8475   21.3797 C   0  0  0  0  0  0
  -26.0171  -29.4875   20.7206 C   0  0  0  0  0  0
  -27.2036  -28.7218   20.7153 C   0  0  0  0  0  0
  -26.0744  -27.0551   19.3543 C   0  0  0  0  0  0
  -24.8726  -27.7717   19.4309 C   0  0  0  0  0  0
  -23.6222  -29.8607   20.1833 C   0  0  0  0  0  0
  -25.4095  -36.3178   24.0365 C   0  0  1  0  0  0
  -20.4782  -28.4592   22.7763 C   0  0  2  0  0  0
  -20.7010  -26.9616   22.5338 C   0  0  0  0  0  0
  -19.5632  -26.4509   21.6259 C   0  0  0  0  0  0
  -18.1611  -26.7404   22.2145 C   0  0  0  0  0  0
  -19.1150  -28.8957   23.2517 C   0  0  0  0  0  0
  -18.9367  -30.1450   23.8764 C   0  0  0  0  0  0
  -17.6377  -30.6467   24.0808 C   0  0  0  0  0  0
  -25.9052  -34.9526   23.5198 C   0  0  0  0  0  0
  -16.5209  -29.8909   23.6752 C   0  0  0  0  0  0
  -16.6977  -28.6234   23.0920 C   0  0  0  0  0  0
  -26.4544  -31.6624   25.0845 C   0  0  0  0  0  0
  -25.3776  -31.3687   26.1561 C   0  0  0  0  0  0
  -27.0350  -30.3065   24.6171 C   0  0  0  0  0  0
  -27.6138  -32.4292   25.7608 C   0  0  0  0  0  0
  -27.5580  -37.1850   24.8463 C   0  0  0  0  0  0
  -21.4535  -29.4515   22.3997 N   0  0  0  0  0  0
  -26.4286  -37.3856   23.9424 N   0  0  0  0  0  0
  -24.6950  -31.0930   22.1188 N   0  0  0  0  0  0
  -23.4207  -28.7622   23.2762 O   0  0  0  0  0  0
  -28.3241  -26.6500   20.1130 O   0  0  0  0  0  0
  -26.5572  -34.8959   22.4751 O   0  0  0  0  0  0
  -23.5497  -32.1532   23.7593 O   0  0  0  0  0  0
  -31.5327  -18.4440   22.7975 C   0  0  0  0  0  0
  -31.5591  -18.7604   21.3037 C   0  0  0  0  0  0
  -30.7880  -17.1100   22.9733 C   0  0  0  0  0  0
  -30.9993  -17.5273   20.5839 C   0  0  0  0  0  0
  -30.1725  -16.7101   21.6143 C   0  0  0  0  0  0
  -28.6586  -17.0416   21.5090 C   0  0  0  0  0  0
  -28.2187  -18.4445   21.9442 C   0  0  0  0  0  0
  -24.8472  -21.9474   22.4809 C   0  0  0  0  0  0
  -26.7679  -18.7684   21.5481 C   0  0  0  0  0  0
  -25.0351  -20.5417   21.8681 C   0  0  0  0  0  0
  -25.3233  -23.1115   21.5906 C   0  0  0  0  0  0
  -27.1167  -24.5200   20.7003 C   0  0  0  0  0  0
  -28.2112  -25.5632   21.0602 C   0  0  0  0  0  0
  -30.2012  -15.2447   21.4940 N   0  0  0  0  0  0
  -26.2981  -19.9308   22.3212 N   0  3  0  0  0  0
  -26.7420  -23.5472   21.7549 N   0  3  0  0  0  0
  -31.4701  -12.3445   19.1238 H   0  0  0  0  0  0
  -30.3053  -11.2640   19.8193 H   0  0  0  0  0  0
  -29.7185  -11.7897   17.4255 H   0  0  0  0  0  0
  -29.6679  -13.4929   17.8054 H   0  0  0  0  0  0
  -27.8512  -11.3034   18.8721 H   0  0  0  0  0  0
  -27.3468  -12.6006   17.8176 H   0  0  0  0  0  0
  -27.7263  -14.2496   19.6033 H   0  0  0  0  0  0
  -28.6549  -11.9272   21.3582 H   0  0  0  0  0  0
  -28.4588  -13.5564   21.8866 H   0  0  0  0  0  0
  -25.2757   -9.5503   22.4867 H   0  0  0  0  0  0
  -23.9931   -7.4487   22.7469 H   0  0  0  0  0  0
  -21.0887   -8.8728   19.8954 H   0  0  0  0  0  0
  -22.3789  -10.9602   19.6187 H   0  0  0  0  0  0
  -21.1875   -7.6104   23.9680 H   0  0  0  0  0  0
  -21.1602   -6.0542   25.9099 H   0  0  0  0  0  0
  -22.0556   -2.7569   23.2919 H   0  0  0  0  0  0
  -22.4107  -11.9724   22.4772 H   0  0  0  0  0  0
  -21.1063  -13.1064   22.2727 H   0  0  0  0  0  0
  -24.6529  -15.8326   20.4426 H   0  0  0  0  0  0
  -26.2875  -15.6013   20.0710 H   0  0  0  0  0  0
  -26.7326  -32.5669   23.1372 H   0  0  0  0  0  0
  -25.0082  -33.9860   25.0557 H   0  0  0  0  0  0
  -22.7324  -31.3366   21.4417 H   0  0  0  0  0  0
  -23.3749  -35.9701   23.3321 H   0  0  0  0  0  0
  -24.3582  -36.8934   22.2041 H   0  0  0  0  0  0
  -23.7243  -37.6572   23.6611 H   0  0  0  0  0  0
  -26.0681  -31.6192   20.6170 H   0  0  0  0  0  0
  -26.8448  -30.9047   21.9924 H   0  0  0  0  0  0
  -28.0910  -29.0799   21.2192 H   0  0  0  0  0  0
  -26.0916  -26.1468   18.7697 H   0  0  0  0  0  0
  -23.9867  -27.4050   18.9329 H   0  0  0  0  0  0
  -23.7260  -30.6414   19.4280 H   0  0  0  0  0  0
  -22.7441  -29.2821   19.8966 H   0  0  0  0  0  0
  -25.1269  -36.2071   25.0858 H   0  0  0  0  0  0
  -20.1600  -28.6763   21.7559 H   0  0  0  0  0  0
  -20.7042  -26.4272   23.4849 H   0  0  0  0  0  0
  -21.6649  -26.7715   22.0565 H   0  0  0  0  0  0
  -19.6748  -25.3772   21.4616 H   0  0  0  0  0  0
  -19.6527  -26.8966   20.6350 H   0  0  0  0  0  0
  -17.4107  -26.6087   21.4351 H   0  0  0  0  0  0
  -17.9335  -25.9921   22.9751 H   0  0  0  0  0  0
  -19.7940  -30.7461   24.1502 H   0  0  0  0  0  0
  -17.4977  -31.6193   24.5318 H   0  0  0  0  0  0
  -15.5253  -30.2810   23.8336 H   0  0  0  0  0  0
  -15.8287  -28.0453   22.8037 H   0  0  0  0  0  0
  -24.5962  -30.7038   25.7858 H   0  0  0  0  0  0
  -24.8934  -32.2820   26.5043 H   0  0  0  0  0  0
  -25.8109  -30.8815   27.0303 H   0  0  0  0  0  0
  -26.2887  -29.6838   24.1218 H   0  0  0  0  0  0
  -27.4120  -29.7295   25.4615 H   0  0  0  0  0  0
  -27.8741  -30.4393   23.9339 H   0  0  0  0  0  0
  -27.2794  -33.3568   26.2259 H   0  0  0  0  0  0
  -28.3913  -32.6869   25.0409 H   0  0  0  0  0  0
  -28.0852  -31.8353   26.5447 H   0  0  0  0  0  0
  -28.2627  -38.0123   24.7518 H   0  0  0  0  0  0
  -28.1064  -36.2660   24.6302 H   0  0  0  0  0  0
  -27.2303  -37.1522   25.8869 H   0  0  0  0  0  0
  -21.0689  -30.1717   21.8031 H   0  0  0  0  0  0
  -26.0195  -38.2950   24.1418 H   0  0  0  0  0  0
  -31.0353  -19.2467   23.3442 H   0  0  0  0  0  0
  -32.5462  -18.3702   23.1874 H   0  0  0  0  0  0
  -32.5695  -19.0017   20.9705 H   0  0  0  0  0  0
  -30.9510  -19.6426   21.1001 H   0  0  0  0  0  0
  -30.0450  -17.1543   23.7686 H   0  0  0  0  0  0
  -31.5258  -16.3715   23.2906 H   0  0  0  0  0  0
  -31.8737  -16.9948   20.2187 H   0  0  0  0  0  0
  -30.4154  -17.8083   19.7058 H   0  0  0  0  0  0
  -28.0922  -16.3336   22.1215 H   0  0  0  0  0  0
  -28.3298  -16.8609   20.4833 H   0  0  0  0  0  0
  -28.8657  -19.2040   21.5162 H   0  0  0  0  0  0
  -28.3329  -18.5194   23.0272 H   0  0  0  0  0  0
  -25.2453  -22.0196   23.4930 H   0  0  0  0  0  0
  -23.7691  -22.0736   22.5935 H   0  0  0  0  0  0
  -26.1054  -17.9226   21.7315 H   0  0  0  0  0  0
  -26.7188  -18.9795   20.4773 H   0  0  0  0  0  0
  -24.9788  -20.5853   20.7810 H   0  0  0  0  0  0
  -24.2080  -19.8988   22.1780 H   0  0  0  0  0  0
  -24.6970  -23.9742   21.8243 H   0  0  0  0  0  0
  -25.1213  -22.8815   20.5429 H   0  0  0  0  0  0
  -27.3652  -24.0042   19.7718 H   0  0  0  0  0  0
  -26.1787  -25.0271   20.5376 H   0  0  0  0  0  0
  -29.1768  -25.0607   21.1060 H   0  0  0  0  0  0
  -28.0328  -25.9753   22.0531 H   0  0  0  0  0  0
  -29.4753  -14.7936   22.0284 H   0  0  0  0  0  0
  -27.0344  -20.6114   22.2948 H   0  0  0  0  0  0
  -26.1796  -19.6506   23.2817 H   0  0  0  0  0  0
  -27.3915  -22.7802   21.7013 H   0  0  0  0  0  0
  -26.8383  -23.9723   22.6679 H   0  0  0  0  0  0
  1 25  1  0  0  0
  1 30  2  0  0  0
  1 84  1  0  0  0
  2  3  1  0  0  0
  2 25  1  0  0  0
  2 87  1  0  0  0
  2 88  1  0  0  0
  3  4  1  0  0  0
  3 89  1  0  0  0
  3 90  1  0  0  0
  4  5  1  0  0  0
  4 91  1  0  0  0
  4 92  1  0  0  0
  5  6  1  0  0  0
  5 26  1  0  0  0
  5 93  1  0  0  0
  6 25  1  0  0  0
  6 94  1  0  0  0
  6 95  1  0  0  0
  7  8  2  0  0  0
  7 26  1  0  0  0
  7 29  1  0  0  0
  8  9  1  0  0  0
  8 22  1  0  0  0
  9 10  1  0  0  0
  9 27  2  0  0  0
 10 11  2  0  0  0
 10 15  1  0  0  0
 11 12  1  0  0  0
 11 96  1  0  0  0
 12 13  2  0  0  0
 12 97  1  0  0  0
 13 14  1  0  0  0
 13 31  1  0  0  0
 14 15  2  0  0  0
 14 98  1  0  0  0
 15 99  1  0  0  0
 16 17  2  0  0  0
 16 21  1  0  0  0
 16 31  1  0  0  0
 17 18  1  0  0  0
 17100  1  0  0  0
 18 19  2  0  0  0
 18101  1  0  0  0
 19 20  1  0  0  0
 19 24  1  0  0  0
 20 21  2  0  0  0
 20102  1  0  0  0
 21 23  1  0  0  0
 22 28  1  0  0  0
 22 32  2  0  0  0
 26 27  1  0  0  0
 28103  1  0  0  0
 28104  1  0  0  0
 29105  1  0  0  0
 29106  1  0  0  0
 33 34  1  0  0  0
 33 66  1  0  0  0
 33 70  2  0  0  0
 34 36  1  0  0  0
 34 59  1  0  0  0
 34107  1  0  0  0
 35 44  2  0  0  0
 35 45  1  0  0  0
 35 68  1  0  0  0
 36 56  1  0  0  0
 36108  1  0  0  0
 37 39  1  0  0  0
 37 47  1  0  0  0
 37 66  1  0  0  0
 37109  1  0  0  0
 38 43  2  0  0  0
 38 46  1  0  0  0
 38 47  1  0  0  0
 39 64  1  0  0  0
 39 67  2  0  0  0
 40 52  1  0  0  0
 40 53  2  0  0  0
 40 58  1  0  0  0
 41110  1  0  0  0
 41111  1  0  0  0
 41112  1  0  0  0
 41 48  1  0  0  0
 42 43  1  0  0  0
 42 66  1  0  0  0
 42113  1  0  0  0
 42114  1  0  0  0
 43 44  1  0  0  0
 44115  1  0  0  0
 45 46  2  0  0  0
 45116  1  0  0  0
 46117  1  0  0  0
 47118  1  0  0  0
 47119  1  0  0  0
 48 56  1  0  0  0
 48 65  1  0  0  0
 48120  1  0  0  0
 49 50  1  0  0  0
 49 53  1  0  0  0
 49 64  1  0  0  0
 49121  1  0  0  0
 50 51  1  0  0  0
 50122  1  0  0  0
 50123  1  0  0  0
 51 52  1  0  0  0
 51124  1  0  0  0
 51125  1  0  0  0
 52126  1  0  0  0
 52127  1  0  0  0
 53 54  1  0  0  0
 54 55  2  0  0  0
 54128  1  0  0  0
 55 57  1  0  0  0
 55129  1  0  0  0
 56 69  2  0  0  0
 57 58  2  0  0  0
 57130  1  0  0  0
 58131  1  0  0  0
 59 60  1  0  0  0
 59 61  1  0  0  0
 59 62  1  0  0  0
 60132  1  0  0  0
 60133  1  0  0  0
 60134  1  0  0  0
 61135  1  0  0  0
 61136  1  0  0  0
 61137  1  0  0  0
 62138  1  0  0  0
 62139  1  0  0  0
 62140  1  0  0  0
 63 65  1  0  0  0
 63141  1  0  0  0
 63142  1  0  0  0
 63143  1  0  0  0
 64144  1  0  0  0
 65145  1  0  0  0
 68 83  1  0  0  0
 71 72  1  0  0  0
 71 73  1  0  0  0
 71146  1  0  0  0
 71147  1  0  0  0
 72 74  1  0  0  0
 72148  1  0  0  0
 72149  1  0  0  0
 73 75  1  0  0  0
 73150  1  0  0  0
 73151  1  0  0  0
 74 75  1  0  0  0
 74152  1  0  0  0
 74153  1  0  0  0
 75 76  1  0  0  0
 75 84  1  0  0  0
 76 77  1  0  0  0
 76154  1  0  0  0
 76155  1  0  0  0
 77 79  1  0  0  0
 77156  1  0  0  0
 77157  1  0  0  0
 78 80  1  0  0  0
 78 81  1  0  0  0
 78158  1  0  0  0
 78159  1  0  0  0
 79 85  1  0  0  0
 79160  1  0  0  0
 79161  1  0  0  0
 80 85  1  0  0  0
 80162  1  0  0  0
 80163  1  0  0  0
 81 86  1  0  0  0
 81164  1  0  0  0
 81165  1  0  0  0
 82 83  1  0  0  0
 82 86  1  0  0  0
 82166  1  0  0  0
 82167  1  0  0  0
 83168  1  0  0  0
 83169  1  0  0  0
 84170  1  0  0  0
 85171  1  0  0  0
 85172  1  0  0  0
 86173  1  0  0  0
 86174  1  0  0  0
M  CHG  2  85   1  86   1
M  ISO  4   1 100  68 101  83 101  84 100
M  END
> <chiral flag>
0

> <version>
0

> <s_m_source_file>
/data/baiqing/PycharmProjects/Reinvent-master-3.2/result/LINK_invent/BTK/process_docking_weight1_custom_sum_contain_oxygen_bond_distance_aromatic_linkinvent_7_9_3/rearranged_h_0127.sdf

> <i_m_source_file_index>
32

> <r_mmod_Potential_Energy-OPLS-2005>
-57.0769157409668

> <r_mmod_Stretch_Energy-OPLS-2005>
33.055793762207

> <r_mmod_Bend_Energy-OPLS-2005>
242.862014770508

> <r_mmod_Torsional_Energy-OPLS-2005>
328.211791992188

> <r_mmod_Improper_Torsional_Energy-OPLS-2005>
4.50698328018188

> <r_mmod_Van_der_Waal_Energy-OPLS-2005>
155.002227783203

> <r_mmod_Electrostatic_Energy-OPLS-2005>
170.338851928711

> <r_mmod_Solvation_Energy-OPLS-2005>
-1027.70739746094

> <b_mmod_Minimization_Converged-OPLS-2005>
0

> <r_mmod_RMS_Derivative-OPLS-2005>
5.72673225402832

$$$$
32
                    3D
 Structure written by MMmdl.
159167  0  0  1  0            999 V2000
  -30.5484  -14.7734   20.4850 C   0  0  0  0  0  0
  -30.4577  -12.4795   19.4609 C   0  0  0  0  0  0
  -29.5172  -12.5213   18.2325 C   0  0  0  0  0  0
  -28.0438  -12.3306   18.6484 C   0  0  0  0  0  0
  -27.6495  -13.2180   19.8573 C   0  0  2  0  0  0
  -28.6974  -13.1119   20.9884 C   0  0  0  0  0  0
  -25.2558  -13.8160   20.5689 C   0  0  0  0  0  0
  -24.1830  -13.0430   20.9208 C   0  0  0  0  0  0
  -24.6397  -11.6901   20.8745 C   0  0  0  0  0  0
  -23.9064  -10.4288   21.0409 C   0  0  0  0  0  0
  -24.3615   -9.4203   21.9185 C   0  0  0  0  0  0
  -23.6290   -8.2239   22.0754 C   0  0  0  0  0  0
  -22.4272   -8.0278   21.3544 C   0  0  0  0  0  0
  -21.9907   -9.0253   20.4647 C   0  0  0  0  0  0
  -22.7237  -10.2133   20.3058 C   0  0  0  0  0  0
  -21.6851   -6.0734   22.5278 C   0  0  0  0  0  0
  -21.4013   -6.5638   23.8212 C   0  0  0  0  0  0
  -21.3658   -5.6790   24.9173 C   0  0  0  0  0  0
  -21.6044   -4.3054   24.7224 C   0  0  0  0  0  0
  -21.8820   -3.8146   23.4345 C   0  0  0  0  0  0
  -21.9193   -4.6962   22.3402 C   0  0  0  0  0  0
  -22.7852  -13.5228   21.1864 C   0  0  0  0  0  0
  -22.1662   -4.2148   21.0979 F   0  0  0  0  0  0
  -21.5629   -3.4538   25.7738 F   0  0  0  0  0  0
  -29.9977  -13.5086   20.4211 N   0  0  0  0  0  0
  -26.2974  -12.9336   20.3291 N   0  0  0  0  0  0
  -25.9325  -11.6495   20.5747 N   0  0  0  0  0  0
  -22.0486  -12.8222   22.0415 N   0  0  0  0  0  0
  -25.4272  -15.1883   20.4093 N   0  0  0  0  0  0
  -31.7112  -14.9687   20.1140 O   0  0  0  0  0  0
  -21.6636   -6.8876   21.4240 O   0  0  0  0  0  0
  -22.3548  -14.5538   20.6711 O   0  0  0  0  0  0
  -24.6340  -31.8531   23.1962 C   0  0  0  0  0  0
  -25.9151  -32.4745   23.8315 C   0  0  1  0  0  0
  -27.2242  -27.2390   20.1283 C   0  0  0  0  0  0
  -25.5935  -33.8547   24.2238 N   0  0  0  0  0  0
  -23.4319  -30.4759   21.5407 C   0  0  2  0  0  0
  -24.8797  -28.9199   20.1118 C   0  0  0  0  0  0
  -22.7517  -29.4593   22.4902 C   0  0  0  0  0  0
  -18.0295  -28.1392   22.8485 C   0  0  0  0  0  0
  -24.1488  -36.7273   23.2641 C   0  0  0  0  0  0
  -25.9807  -30.7604   21.3785 C   0  0  0  0  0  0
  -26.0544  -29.3810   20.7196 C   0  0  0  0  0  0
  -27.2287  -28.5553   20.7130 C   0  0  0  0  0  0
  -26.0198  -26.8527   19.4950 C   0  0  0  0  0  0
  -24.8695  -27.6648   19.4880 C   0  0  0  0  0  0
  -23.6517  -29.8097   20.1576 C   0  0  0  0  0  0
  -25.4117  -36.3061   24.0325 C   0  0  1  0  0  0
  -20.5902  -28.3704   23.1263 C   0  0  2  0  0  0
  -20.6784  -26.9419   22.5407 C   0  0  0  0  0  0
  -19.5757  -26.6384   21.5215 C   0  0  0  0  0  0
  -18.1937  -26.7933   22.1628 C   0  0  0  0  0  0
  -19.1550  -28.8865   23.2870 C   0  0  0  0  0  0
  -18.9472  -30.1464   23.8891 C   0  0  0  0  0  0
  -17.6471  -30.6593   24.0562 C   0  0  0  0  0  0
  -25.9059  -34.9435   23.5085 C   0  0  0  0  0  0
  -16.5361  -29.9090   23.6335 C   0  0  0  0  0  0
  -16.7281  -28.6507   23.0357 C   0  0  0  0  0  0
  -26.4509  -31.6578   25.0714 C   0  0  0  0  0  0
  -25.3722  -31.3736   26.1426 C   0  0  0  0  0  0
  -27.0359  -30.2993   24.6213 C   0  0  0  0  0  0
  -27.6053  -32.4324   25.7495 C   0  0  0  0  0  0
  -27.5577  -37.1791   24.8468 C   0  0  0  0  0  0
  -21.4221  -29.3046   22.3648 N   0  0  0  0  0  0
  -26.4287  -37.3765   23.9414 N   0  0  0  0  0  0
  -24.7017  -31.0479   22.0947 N   0  0  0  0  0  0
  -23.4206  -28.8133   23.3008 O   0  0  0  0  0  0
  -28.3177  -26.3304   20.1801 O   0  0  0  0  0  0
  -26.5639  -34.8919   22.4659 O   0  0  0  0  0  0
  -23.5482  -32.1358   23.7244 O   0  0  0  0  0  0
  -28.8108  -17.8174   21.9659 C   0  0  0  0  0  0
  -29.5916  -17.2698   20.9796 C   0  0  0  0  0  0
  -29.5286  -19.5762   20.7301 C   0  0  0  0  0  0
  -29.0656  -20.7548   23.7371 C   0  0  0  0  0  0
  -30.2890  -23.8921   19.1890 C   0  0  0  0  0  0
  -29.8182  -21.0861   20.2819 C   0  0  0  0  0  0
  -28.1148  -20.1235   22.7105 C   0  0  0  0  0  0
  -28.0615  -24.8396   20.0731 C   0  0  0  0  0  0
  -29.2099  -23.6902   20.2644 C   0  0  1  0  0  0
  -28.8068  -19.1917   21.8081 N   0  0  0  0  0  0
  -30.0232  -18.3821   20.2271 N   0  3  0  0  0  0
  -29.6605  -15.7833   20.8280 N   0  0  0  0  0  0
  -28.7854  -22.2172   20.2700 N   0  0  0  0  0  0
  -31.4896  -12.6503   19.1492 H   0  0  0  0  0  0
  -30.4444  -11.4925   19.9258 H   0  0  0  0  0  0
  -29.8038  -11.7539   17.5121 H   0  0  0  0  0  0
  -29.6288  -13.4774   17.7187 H   0  0  0  0  0  0
  -27.9071  -11.2794   18.9047 H   0  0  0  0  0  0
  -27.3827  -12.5251   17.8031 H   0  0  0  0  0  0
  -27.6515  -14.2446   19.4911 H   0  0  0  0  0  0
  -28.7456  -12.0918   21.3727 H   0  0  0  0  0  0
  -28.4193  -13.7345   21.8402 H   0  0  0  0  0  0
  -25.2761   -9.5676   22.4759 H   0  0  0  0  0  0
  -23.9999   -7.4629   22.7472 H   0  0  0  0  0  0
  -21.0840   -8.8773   19.8954 H   0  0  0  0  0  0
  -22.3696  -10.9672   19.6168 H   0  0  0  0  0  0
  -21.2002   -7.6146   23.9714 H   0  0  0  0  0  0
  -21.1480   -6.0521   25.9076 H   0  0  0  0  0  0
  -22.0600   -2.7608   23.2846 H   0  0  0  0  0  0
  -22.4093  -11.9877   22.4800 H   0  0  0  0  0  0
  -21.1104  -13.1250   22.2613 H   0  0  0  0  0  0
  -24.6511  -15.8345   20.5039 H   0  0  0  0  0  0
  -26.2528  -15.6210   20.0162 H   0  0  0  0  0  0
  -26.7217  -32.5391   23.1054 H   0  0  0  0  0  0
  -25.0069  -33.9679   25.0375 H   0  0  0  0  0  0
  -22.7294  -31.2989   21.3932 H   0  0  0  0  0  0
  -23.3757  -35.9599   23.3300 H   0  0  0  0  0  0
  -24.3574  -36.8900   22.2056 H   0  0  0  0  0  0
  -23.7236  -37.6470   23.6671 H   0  0  0  0  0  0
  -26.1212  -31.5208   20.6091 H   0  0  0  0  0  0
  -26.8571  -30.8098   22.0129 H   0  0  0  0  0  0
  -28.1273  -28.9049   21.2015 H   0  0  0  0  0  0
  -25.9287  -25.8959   19.0057 H   0  0  0  0  0  0
  -23.9706  -27.3054   19.0062 H   0  0  0  0  0  0
  -23.7790  -30.5860   19.4022 H   0  0  0  0  0  0
  -22.7692  -29.2452   19.8508 H   0  0  0  0  0  0
  -25.1300  -36.1900   25.0818 H   0  0  0  0  0  0
  -20.9995  -28.3285   24.1384 H   0  0  0  0  0  0
  -20.5683  -26.2315   23.3614 H   0  0  0  0  0  0
  -21.6651  -26.7438   22.1201 H   0  0  0  0  0  0
  -19.6919  -25.6293   21.1248 H   0  0  0  0  0  0
  -19.6696  -27.3193   20.6744 H   0  0  0  0  0  0
  -17.4205  -26.6680   21.4032 H   0  0  0  0  0  0
  -18.0338  -26.0077   22.9026 H   0  0  0  0  0  0
  -19.7949  -30.7282   24.2256 H   0  0  0  0  0  0
  -17.5027  -31.6273   24.5163 H   0  0  0  0  0  0
  -15.5363  -30.2992   23.7663 H   0  0  0  0  0  0
  -15.8680  -28.0824   22.7079 H   0  0  0  0  0  0
  -24.5914  -30.7066   25.7754 H   0  0  0  0  0  0
  -24.8895  -32.2908   26.4810 H   0  0  0  0  0  0
  -25.8030  -30.8945   27.0227 H   0  0  0  0  0  0
  -26.2948  -29.6734   24.1228 H   0  0  0  0  0  0
  -27.4030  -29.7260   25.4736 H   0  0  0  0  0  0
  -27.8830  -30.4263   23.9468 H   0  0  0  0  0  0
  -27.2656  -33.3640   26.2037 H   0  0  0  0  0  0
  -28.3886  -32.6857   25.0337 H   0  0  0  0  0  0
  -28.0696  -31.8470   26.5442 H   0  0  0  0  0  0
  -28.2587  -38.0093   24.7515 H   0  0  0  0  0  0
  -28.1076  -36.2622   24.6291 H   0  0  0  0  0  0
  -27.2294  -37.1434   25.8870 H   0  0  0  0  0  0
  -20.9409  -29.8766   21.6849 H   0  0  0  0  0  0
  -26.0161  -38.2835   24.1423 H   0  0  0  0  0  0
  -28.2589  -17.3438   22.7659 H   0  0  0  0  0  0
  -28.5197  -21.4109   24.4153 H   0  0  0  0  0  0
  -29.8380  -21.3531   23.2540 H   0  0  0  0  0  0
  -29.5591  -19.9915   24.3398 H   0  0  0  0  0  0
  -30.6234  -24.9304   19.1755 H   0  0  0  0  0  0
  -29.9125  -23.6601   18.1923 H   0  0  0  0  0  0
  -31.1745  -23.2830   19.3696 H   0  0  0  0  0  0
  -30.2585  -21.0129   19.2868 H   0  0  0  0  0  0
  -30.6289  -21.3977   20.9412 H   0  0  0  0  0  0
  -27.6000  -20.8797   22.1210 H   0  0  0  0  0  0
  -27.3328  -19.5673   23.2286 H   0  0  0  0  0  0
  -27.2631  -24.6120   20.7810 H   0  0  0  0  0  0
  -27.6424  -24.6585   19.0839 H   0  0  0  0  0  0
  -29.6761  -23.8728   21.2341 H   0  0  0  0  0  0
  -30.6122  -18.3275   19.4059 H   0  0  0  0  0  0
  -28.8154  -15.3410   21.1527 H   0  0  0  0  0  0
  -28.2133  -22.0761   19.4418 H   0  0  0  0  0  0
  1 25  1  0  0  0
  1 30  2  0  0  0
  1 82  1  0  0  0
  2  3  1  0  0  0
  2 25  1  0  0  0
  2 84  1  0  0  0
  2 85  1  0  0  0
  3  4  1  0  0  0
  3 86  1  0  0  0
  3 87  1  0  0  0
  4  5  1  0  0  0
  4 88  1  0  0  0
  4 89  1  0  0  0
  5  6  1  0  0  0
  5 26  1  0  0  0
  5 90  1  0  0  0
  6 25  1  0  0  0
  6 91  1  0  0  0
  6 92  1  0  0  0
  7  8  2  0  0  0
  7 26  1  0  0  0
  7 29  1  0  0  0
  8  9  1  0  0  0
  8 22  1  0  0  0
  9 10  1  0  0  0
  9 27  2  0  0  0
 10 11  2  0  0  0
 10 15  1  0  0  0
 11 12  1  0  0  0
 11 93  1  0  0  0
 12 13  2  0  0  0
 12 94  1  0  0  0
 13 14  1  0  0  0
 13 31  1  0  0  0
 14 15  2  0  0  0
 14 95  1  0  0  0
 15 96  1  0  0  0
 16 17  2  0  0  0
 16 21  1  0  0  0
 16 31  1  0  0  0
 17 18  1  0  0  0
 17 97  1  0  0  0
 18 19  2  0  0  0
 18 98  1  0  0  0
 19 20  1  0  0  0
 19 24  1  0  0  0
 20 21  2  0  0  0
 20 99  1  0  0  0
 21 23  1  0  0  0
 22 28  1  0  0  0
 22 32  2  0  0  0
 26 27  1  0  0  0
 28100  1  0  0  0
 28101  1  0  0  0
 29102  1  0  0  0
 29103  1  0  0  0
 33 34  1  0  0  0
 33 66  1  0  0  0
 33 70  2  0  0  0
 34 36  1  0  0  0
 34 59  1  0  0  0
 34104  1  0  0  0
 35 44  2  0  0  0
 35 45  1  0  0  0
 35 68  1  0  0  0
 36 56  1  0  0  0
 36105  1  0  0  0
 37 39  1  0  0  0
 37 47  1  0  0  0
 37 66  1  0  0  0
 37106  1  0  0  0
 38 43  2  0  0  0
 38 46  1  0  0  0
 38 47  1  0  0  0
 39 64  1  0  0  0
 39 67  2  0  0  0
 40 52  1  0  0  0
 40 53  2  0  0  0
 40 58  1  0  0  0
 41107  1  0  0  0
 41108  1  0  0  0
 41109  1  0  0  0
 41 48  1  0  0  0
 42 43  1  0  0  0
 42 66  1  0  0  0
 42110  1  0  0  0
 42111  1  0  0  0
 43 44  1  0  0  0
 44112  1  0  0  0
 45 46  2  0  0  0
 45113  1  0  0  0
 46114  1  0  0  0
 47115  1  0  0  0
 47116  1  0  0  0
 48 56  1  0  0  0
 48 65  1  0  0  0
 48117  1  0  0  0
 49 50  1  0  0  0
 49 53  1  0  0  0
 49 64  1  0  0  0
 49118  1  0  0  0
 50 51  1  0  0  0
 50119  1  0  0  0
 50120  1  0  0  0
 51 52  1  0  0  0
 51121  1  0  0  0
 51122  1  0  0  0
 52123  1  0  0  0
 52124  1  0  0  0
 53 54  1  0  0  0
 54 55  2  0  0  0
 54125  1  0  0  0
 55 57  1  0  0  0
 55126  1  0  0  0
 56 69  2  0  0  0
 57 58  2  0  0  0
 57127  1  0  0  0
 58128  1  0  0  0
 59 60  1  0  0  0
 59 61  1  0  0  0
 59 62  1  0  0  0
 60129  1  0  0  0
 60130  1  0  0  0
 60131  1  0  0  0
 61132  1  0  0  0
 61133  1  0  0  0
 61134  1  0  0  0
 62135  1  0  0  0
 62136  1  0  0  0
 62137  1  0  0  0
 63 65  1  0  0  0
 63138  1  0  0  0
 63139  1  0  0  0
 63140  1  0  0  0
 64141  1  0  0  0
 65142  1  0  0  0
 68 78  1  0  0  0
 71 72  2  0  0  0
 71 80  1  0  0  0
 71143  1  0  0  0
 72 81  1  0  0  0
 72 82  1  0  0  0
 73 76  1  0  0  0
 73 80  1  0  0  0
 73 81  2  0  0  0
 74 77  1  0  0  0
 74144  1  0  0  0
 74145  1  0  0  0
 74146  1  0  0  0
 75147  1  0  0  0
 75148  1  0  0  0
 75149  1  0  0  0
 75 79  1  0  0  0
 76 83  1  0  0  0
 76150  1  0  0  0
 76151  1  0  0  0
 77 80  1  0  0  0
 77152  1  0  0  0
 77153  1  0  0  0
 78 79  1  0  0  0
 78154  1  0  0  0
 78155  1  0  0  0
 79 83  1  0  0  0
 79156  1  0  0  0
 81157  1  0  0  0
 82158  1  0  0  0
 83159  1  0  0  0
M  CHG  1  81   1
M  ISO  4   1 100  68 101  78 101  82 100
M  END
> <chiral flag>
0

> <version>
0

> <s_m_source_file>
/data/baiqing/PycharmProjects/Reinvent-master-3.2/result/LINK_invent/BTK/process_docking_weight1_custom_sum_contain_oxygen_bond_distance_aromatic_linkinvent_7_9_3/rearranged_h_0127.sdf

> <i_m_source_file_index>
33

> <r_mmod_Potential_Energy-OPLS-2005>
172.361038208008

> <r_mmod_Stretch_Energy-OPLS-2005>
141.479949951172

> <r_mmod_Bend_Energy-OPLS-2005>
224.173049926758

> <r_mmod_Torsional_Energy-OPLS-2005>
235.543228149414

> <r_mmod_Improper_Torsional_Energy-OPLS-2005>
5.37345314025879

> <r_mmod_Van_der_Waal_Energy-OPLS-2005>
117.813095092773

> <r_mmod_Electrostatic_Energy-OPLS-2005>
-219.186096191406

> <r_mmod_Solvation_Energy-OPLS-2005>
-431.685607910156

> <b_mmod_Minimization_Converged-OPLS-2005>
0

> <r_mmod_RMS_Derivative-OPLS-2005>
0.341436743736267

$$$$
33
                    3D
 Structure written by MMmdl.
162170  0  0  1  0            999 V2000
  -30.5110  -15.0672   20.4104 C   0  0  0  0  0  0
  -30.4393  -12.6723   19.5119 C   0  0  0  0  0  0
  -29.5261  -12.5455   18.2692 C   0  0  0  0  0  0
  -28.0648  -12.3071   18.6905 C   0  0  0  0  0  0
  -27.6212  -13.2594   19.8308 C   0  0  2  0  0  0
  -28.6600  -13.3482   20.9690 C   0  0  0  0  0  0
  -25.2420  -13.8228   20.5717 C   0  0  0  0  0  0
  -24.1757  -13.0436   20.9237 C   0  0  0  0  0  0
  -24.6391  -11.6929   20.8756 C   0  0  0  0  0  0
  -23.9083  -10.4294   21.0411 C   0  0  0  0  0  0
  -24.3631   -9.4209   21.9190 C   0  0  0  0  0  0
  -23.6301   -8.2246   22.0757 C   0  0  0  0  0  0
  -22.4285   -8.0282   21.3548 C   0  0  0  0  0  0
  -21.9924   -9.0258   20.4649 C   0  0  0  0  0  0
  -22.7255  -10.2137   20.3061 C   0  0  0  0  0  0
  -21.6854   -6.0742   22.5281 C   0  0  0  0  0  0
  -21.4008   -6.5645   23.8215 C   0  0  0  0  0  0
  -21.3658   -5.6798   24.9177 C   0  0  0  0  0  0
  -21.6044   -4.3059   24.7225 C   0  0  0  0  0  0
  -21.8817   -3.8153   23.4345 C   0  0  0  0  0  0
  -21.9190   -4.6970   22.3402 C   0  0  0  0  0  0
  -22.7778  -13.5202   21.1889 C   0  0  0  0  0  0
  -22.1661   -4.2157   21.0979 F   0  0  0  0  0  0
  -21.5631   -3.4542   25.7737 F   0  0  0  0  0  0
  -29.9204  -13.7935   20.3600 N   0  0  0  0  0  0
  -26.2848  -12.9481   20.3226 N   0  0  0  0  0  0
  -25.9326  -11.6601   20.5735 N   0  0  0  0  0  0
  -22.0433  -12.8187   22.0447 N   0  0  0  0  0  0
  -25.4080  -15.1956   20.4137 N   0  0  0  0  0  0
  -31.7220  -15.0993   20.1636 O   0  0  0  0  0  0
  -21.6643   -6.8885   21.4244 O   0  0  0  0  0  0
  -22.3458  -14.5510   20.6738 O   0  0  0  0  0  0
  -24.6524  -31.8359   23.1810 C   0  0  0  0  0  0
  -25.9255  -32.4658   23.8234 C   0  0  1  0  0  0
  -27.2132  -27.0421   20.1680 C   0  0  0  0  0  0
  -25.5972  -33.8465   24.2147 N   0  0  0  0  0  0
  -23.4613  -30.4537   21.5282 C   0  0  2  0  0  0
  -24.9118  -28.8655   20.1123 C   0  0  0  0  0  0
  -22.7618  -29.4511   22.4817 C   0  0  0  0  0  0
  -18.0313  -28.1407   22.8476 C   0  0  0  0  0  0
  -24.1483  -36.7227   23.2647 C   0  0  0  0  0  0
  -26.0247  -30.6811   21.3938 C   0  0  0  0  0  0
  -26.0942  -29.2833   20.7364 C   0  0  0  0  0  0
  -27.2444  -28.3911   20.7419 C   0  0  0  0  0  0
  -26.0008  -26.7524   19.5015 C   0  0  0  0  0  0
  -24.8837  -27.6167   19.4772 C   0  0  0  0  0  0
  -23.6942  -29.7800   20.1503 C   0  0  0  0  0  0
  -25.4120  -36.3005   24.0313 C   0  0  1  0  0  0
  -20.5935  -28.3743   23.1210 C   0  0  2  0  0  0
  -20.6793  -26.9436   22.5401 C   0  0  0  0  0  0
  -19.5764  -26.6379   21.5218 C   0  0  0  0  0  0
  -18.1944  -26.7946   22.1623 C   0  0  0  0  0  0
  -19.1572  -28.8893   23.2836 C   0  0  0  0  0  0
  -18.9493  -30.1486   23.8866 C   0  0  0  0  0  0
  -17.6486  -30.6604   24.0561 C   0  0  0  0  0  0
  -25.9079  -34.9385   23.5037 C   0  0  0  0  0  0
  -16.5373  -29.9093   23.6344 C   0  0  0  0  0  0
  -16.7294  -28.6514   23.0368 C   0  0  0  0  0  0
  -26.4543  -31.6563   25.0714 C   0  0  0  0  0  0
  -25.3699  -31.3783   26.1392 C   0  0  0  0  0  0
  -27.0431  -30.2950   24.6364 C   0  0  0  0  0  0
  -27.6050  -32.4353   25.7507 C   0  0  0  0  0  0
  -27.5565  -37.1769   24.8470 C   0  0  0  0  0  0
  -21.4299  -29.3056   22.3575 N   0  0  0  0  0  0
  -26.4270  -37.3734   23.9420 N   0  0  0  0  0  0
  -24.7333  -31.0137   22.0886 N   0  0  0  0  0  0
  -23.4223  -28.8059   23.3001 O   0  0  0  0  0  0
  -28.2361  -25.9931   20.2368 O   0  0  0  0  0  0
  -26.5675  -34.8900   22.4622 O   0  0  0  0  0  0
  -23.5617  -32.1267   23.6973 O   0  0  0  0  0  0
  -29.2050  -22.0820   21.4204 C   0  0  0  0  0  0
  -29.9255  -20.6091   21.2772 C   0  0  0  0  0  0
  -28.0724  -21.6680   19.3956 C   0  0  0  0  0  0
  -28.7853  -22.9222   20.1212 C   0  0  1  0  0  0
  -29.2249  -19.3400   20.5611 C   0  0  1  0  0  0
  -28.7318  -20.1573   19.2518 C   0  0  1  0  0  0
  -27.2023  -17.4612   16.9472 C   0  0  0  0  0  0
  -30.1612  -17.8630   20.4798 C   0  0  0  0  0  0
  -27.8999  -24.4317   20.1617 C   0  0  0  0  0  0
  -28.3118  -18.2823   17.6185 C   0  0  0  0  0  0
  -29.7540  -16.2967   20.5315 N   0  0  0  0  0  0
  -27.7548  -19.3354   18.4970 N   0  3  0  0  0  0
  -31.4682  -12.8460   19.1921 H   0  0  0  0  0  0
  -30.4605  -11.7388   20.0767 H   0  0  0  0  0  0
  -29.8695  -11.7343   17.6258 H   0  0  0  0  0  0
  -29.5902  -13.4579   17.6741 H   0  0  0  0  0  0
  -27.9847  -11.2721   19.0253 H   0  0  0  0  0  0
  -27.3988  -12.4016   17.8322 H   0  0  0  0  0  0
  -27.5645  -14.2475   19.3722 H   0  0  0  0  0  0
  -28.7773  -12.3894   21.4760 H   0  0  0  0  0  0
  -28.3362  -14.0642   21.7264 H   0  0  0  0  0  0
  -25.2777   -9.5685   22.4767 H   0  0  0  0  0  0
  -24.0010   -7.4635   22.7477 H   0  0  0  0  0  0
  -21.0856   -8.8775   19.8954 H   0  0  0  0  0  0
  -22.3712  -10.9675   19.6171 H   0  0  0  0  0  0
  -21.1997   -7.6153   23.9718 H   0  0  0  0  0  0
  -21.1482   -6.0529   25.9079 H   0  0  0  0  0  0
  -22.0596   -2.7615   23.2841 H   0  0  0  0  0  0
  -22.4053  -11.9846   22.4824 H   0  0  0  0  0  0
  -21.1051  -13.1201   22.2663 H   0  0  0  0  0  0
  -24.6362  -15.8446   20.5240 H   0  0  0  0  0  0
  -26.2534  -15.6348   20.0777 H   0  0  0  0  0  0
  -26.7320  -32.5237   23.0953 H   0  0  0  0  0  0
  -25.0113  -33.9569   25.0293 H   0  0  0  0  0  0
  -22.7693  -31.2828   21.3665 H   0  0  0  0  0  0
  -23.3761  -35.9544   23.3289 H   0  0  0  0  0  0
  -24.3567  -36.8881   22.2066 H   0  0  0  0  0  0
  -23.7212  -37.6403   23.6701 H   0  0  0  0  0  0
  -26.1917  -31.4302   20.6184 H   0  0  0  0  0  0
  -26.8907  -30.7349   22.0417 H   0  0  0  0  0  0
  -28.1424  -28.7082   21.2533 H   0  0  0  0  0  0
  -25.8698  -25.8035   19.0067 H   0  0  0  0  0  0
  -23.9830  -27.2909   18.9752 H   0  0  0  0  0  0
  -23.8427  -30.5529   19.3951 H   0  0  0  0  0  0
  -22.8072  -29.2288   19.8327 H   0  0  0  0  0  0
  -25.1306  -36.1817   25.0803 H   0  0  0  0  0  0
  -21.0025  -28.3334   24.1331 H   0  0  0  0  0  0
  -20.5689  -26.2359   23.3631 H   0  0  0  0  0  0
  -21.6656  -26.7429   22.1195 H   0  0  0  0  0  0
  -19.6925  -25.6280   21.1270 H   0  0  0  0  0  0
  -19.6700  -27.3171   20.6735 H   0  0  0  0  0  0
  -17.4215  -26.6702   21.4025 H   0  0  0  0  0  0
  -18.0332  -26.0095   22.9025 H   0  0  0  0  0  0
  -19.7972  -30.7314   24.2220 H   0  0  0  0  0  0
  -17.5044  -31.6285   24.5164 H   0  0  0  0  0  0
  -15.5377  -30.2992   23.7695 H   0  0  0  0  0  0
  -15.8693  -28.0821   22.7109 H   0  0  0  0  0  0
  -24.5890  -30.7119   25.7710 H   0  0  0  0  0  0
  -24.8878  -32.2977   26.4726 H   0  0  0  0  0  0
  -25.7958  -30.9016   27.0231 H   0  0  0  0  0  0
  -26.3082  -29.6650   24.1342 H   0  0  0  0  0  0
  -27.3990  -29.7274   25.4974 H   0  0  0  0  0  0
  -27.9006  -30.4175   23.9743 H   0  0  0  0  0  0
  -27.2628  -33.3690   26.1983 H   0  0  0  0  0  0
  -28.3914  -32.6860   25.0374 H   0  0  0  0  0  0
  -28.0661  -31.8549   26.5508 H   0  0  0  0  0  0
  -28.2565  -38.0083   24.7529 H   0  0  0  0  0  0
  -28.1073  -36.2611   24.6271 H   0  0  0  0  0  0
  -27.2291  -37.1381   25.8875 H   0  0  0  0  0  0
  -20.9525  -29.8776   21.6745 H   0  0  0  0  0  0
  -26.0124  -38.2791   24.1452 H   0  0  0  0  0  0
  -29.8639  -22.7156   22.0153 H   0  0  0  0  0  0
  -28.3161  -21.9548   22.0403 H   0  0  0  0  0  0
  -30.1926  -20.2897   22.2854 H   0  0  0  0  0  0
  -30.8851  -20.7733   20.7847 H   0  0  0  0  0  0
  -27.8288  -22.0082   18.3881 H   0  0  0  0  0  0
  -27.1030  -21.5449   19.8813 H   0  0  0  0  0  0
  -29.6966  -23.1282   19.5585 H   0  0  0  0  0  0
  -28.3455  -19.1092   21.1629 H   0  0  0  0  0  0
  -29.6084  -20.2885   18.6142 H   0  0  0  0  0  0
  -27.6297  -16.6854   16.3112 H   0  0  0  0  0  0
  -26.5661  -18.0867   16.3203 H   0  0  0  0  0  0
  -26.5691  -16.9658   17.6840 H   0  0  0  0  0  0
  -30.8405  -17.9398   21.3294 H   0  0  0  0  0  0
  -30.8289  -17.9658   19.6238 H   0  0  0  0  0  0
  -27.1116  -24.2847   20.9006 H   0  0  0  0  0  0
  -27.3853  -24.3720   19.2052 H   0  0  0  0  0  0
  -28.9439  -18.7403   16.8568 H   0  0  0  0  0  0
  -28.9451  -17.6045   18.1844 H   0  0  0  0  0  0
  -28.7731  -16.1305   20.7009 H   0  0  0  0  0  0
  -27.2346  -19.9617   17.9041 H   0  0  0  0  0  0
  -27.1004  -18.9301   19.1465 H   0  0  0  0  0  0
  1 25  1  0  0  0
  1 30  2  0  0  0
  1 81  1  0  0  0
  2  3  1  0  0  0
  2 25  1  0  0  0
  2 83  1  0  0  0
  2 84  1  0  0  0
  3  4  1  0  0  0
  3 85  1  0  0  0
  3 86  1  0  0  0
  4  5  1  0  0  0
  4 87  1  0  0  0
  4 88  1  0  0  0
  5  6  1  0  0  0
  5 26  1  0  0  0
  5 89  1  0  0  0
  6 25  1  0  0  0
  6 90  1  0  0  0
  6 91  1  0  0  0
  7  8  2  0  0  0
  7 26  1  0  0  0
  7 29  1  0  0  0
  8  9  1  0  0  0
  8 22  1  0  0  0
  9 10  1  0  0  0
  9 27  2  0  0  0
 10 11  2  0  0  0
 10 15  1  0  0  0
 11 12  1  0  0  0
 11 92  1  0  0  0
 12 13  2  0  0  0
 12 93  1  0  0  0
 13 14  1  0  0  0
 13 31  1  0  0  0
 14 15  2  0  0  0
 14 94  1  0  0  0
 15 95  1  0  0  0
 16 17  2  0  0  0
 16 21  1  0  0  0
 16 31  1  0  0  0
 17 18  1  0  0  0
 17 96  1  0  0  0
 18 19  2  0  0  0
 18 97  1  0  0  0
 19 20  1  0  0  0
 19 24  1  0  0  0
 20 21  2  0  0  0
 20 98  1  0  0  0
 21 23  1  0  0  0
 22 28  1  0  0  0
 22 32  2  0  0  0
 26 27  1  0  0  0
 28 99  1  0  0  0
 28100  1  0  0  0
 29101  1  0  0  0
 29102  1  0  0  0
 33 34  1  0  0  0
 33 66  1  0  0  0
 33 70  2  0  0  0
 34 36  1  0  0  0
 34 59  1  0  0  0
 34103  1  0  0  0
 35 44  2  0  0  0
 35 45  1  0  0  0
 35 68  1  0  0  0
 36 56  1  0  0  0
 36104  1  0  0  0
 37 39  1  0  0  0
 37 47  1  0  0  0
 37 66  1  0  0  0
 37105  1  0  0  0
 38 43  2  0  0  0
 38 46  1  0  0  0
 38 47  1  0  0  0
 39 64  1  0  0  0
 39 67  2  0  0  0
 40 52  1  0  0  0
 40 53  2  0  0  0
 40 58  1  0  0  0
 41106  1  0  0  0
 41107  1  0  0  0
 41108  1  0  0  0
 41 48  1  0  0  0
 42 43  1  0  0  0
 42 66  1  0  0  0
 42109  1  0  0  0
 42110  1  0  0  0
 43 44  1  0  0  0
 44111  1  0  0  0
 45 46  2  0  0  0
 45112  1  0  0  0
 46113  1  0  0  0
 47114  1  0  0  0
 47115  1  0  0  0
 48 56  1  0  0  0
 48 65  1  0  0  0
 48116  1  0  0  0
 49 50  1  0  0  0
 49 53  1  0  0  0
 49 64  1  0  0  0
 49117  1  0  0  0
 50 51  1  0  0  0
 50118  1  0  0  0
 50119  1  0  0  0
 51 52  1  0  0  0
 51120  1  0  0  0
 51121  1  0  0  0
 52122  1  0  0  0
 52123  1  0  0  0
 53 54  1  0  0  0
 54 55  2  0  0  0
 54124  1  0  0  0
 55 57  1  0  0  0
 55125  1  0  0  0
 56 69  2  0  0  0
 57 58  2  0  0  0
 57126  1  0  0  0
 58127  1  0  0  0
 59 60  1  0  0  0
 59 61  1  0  0  0
 59 62  1  0  0  0
 60128  1  0  0  0
 60129  1  0  0  0
 60130  1  0  0  0
 61131  1  0  0  0
 61132  1  0  0  0
 61133  1  0  0  0
 62134  1  0  0  0
 62135  1  0  0  0
 62136  1  0  0  0
 63 65  1  0  0  0
 63137  1  0  0  0
 63138  1  0  0  0
 63139  1  0  0  0
 64140  1  0  0  0
 65141  1  0  0  0
 68 79  1  0  0  0
 71 72  1  0  0  0
 71 74  1  0  0  0
 71142  1  0  0  0
 71143  1  0  0  0
 72 75  1  0  0  0
 72144  1  0  0  0
 72145  1  0  0  0
 73 74  1  0  0  0
 73 76  1  0  0  0
 73146  1  0  0  0
 73147  1  0  0  0
 74 79  1  0  0  0
 74148  1  0  0  0
 75 76  1  0  0  0
 75 78  1  0  0  0
 75149  1  0  0  0
 76 82  1  0  0  0
 76150  1  0  0  0
 77 80  1  0  0  0
 77151  1  0  0  0
 77152  1  0  0  0
 77153  1  0  0  0
 78 81  1  0  0  0
 78154  1  0  0  0
 78155  1  0  0  0
 79156  1  0  0  0
 79157  1  0  0  0
 80 82  1  0  0  0
 80158  1  0  0  0
 80159  1  0  0  0
 81160  1  0  0  0
 82161  1  0  0  0
 82162  1  0  0  0
M  CHG  1  82   1
M  ISO  4   1 100  68 101  79 101  81 100
M  END
> <chiral flag>
0

> <version>
0

> <s_m_source_file>
/data/baiqing/PycharmProjects/Reinvent-master-3.2/result/LINK_invent/BTK/process_docking_weight1_custom_sum_contain_oxygen_bond_distance_aromatic_linkinvent_7_9_3/rearranged_h_0127.sdf

> <i_m_source_file_index>
34

> <r_mmod_Potential_Energy-OPLS-2005>
706.658447265625

> <r_mmod_Stretch_Energy-OPLS-2005>
371.790130615234

> <r_mmod_Bend_Energy-OPLS-2005>
380.765625

> <r_mmod_Torsional_Energy-OPLS-2005>
257.331939697266

> <r_mmod_Improper_Torsional_Energy-OPLS-2005>
4.05271434783936

> <r_mmod_Van_der_Waal_Energy-OPLS-2005>
111.33553314209

> <r_mmod_Electrostatic_Energy-OPLS-2005>
-221.14338684082

> <r_mmod_Solvation_Energy-OPLS-2005>
-484.663024902344

> <b_mmod_Minimization_Converged-OPLS-2005>
0

> <r_mmod_RMS_Derivative-OPLS-2005>
0.845407843589783

$$$$
34
                    3D
 Structure written by MMmdl.
147155  0  0  1  0            999 V2000
  -30.5308  -15.0053   20.4123 C   0  0  0  0  0  0
  -30.4378  -12.6261   19.5038 C   0  0  0  0  0  0
  -29.5239  -12.5385   18.2605 C   0  0  0  0  0  0
  -28.0549  -12.3241   18.6698 C   0  0  0  0  0  0
  -27.6251  -13.2569   19.8345 C   0  0  2  0  0  0
  -28.6676  -13.3104   20.9709 C   0  0  0  0  0  0
  -25.2435  -13.8254   20.5737 C   0  0  0  0  0  0
  -24.1764  -13.0449   20.9259 C   0  0  0  0  0  0
  -24.6397  -11.6949   20.8763 C   0  0  0  0  0  0
  -23.9075  -10.4310   21.0400 C   0  0  0  0  0  0
  -24.3621   -9.4222   21.9173 C   0  0  0  0  0  0
  -23.6295   -8.2256   22.0757 C   0  0  0  0  0  0
  -22.4275   -8.0287   21.3551 C   0  0  0  0  0  0
  -21.9911   -9.0261   20.4653 C   0  0  0  0  0  0
  -22.7241  -10.2142   20.3054 C   0  0  0  0  0  0
  -21.6853   -6.0732   22.5284 C   0  0  0  0  0  0
  -21.4012   -6.5635   23.8215 C   0  0  0  0  0  0
  -21.3664   -5.6789   24.9176 C   0  0  0  0  0  0
  -21.6052   -4.3052   24.7227 C   0  0  0  0  0  0
  -21.8817   -3.8139   23.4349 C   0  0  0  0  0  0
  -21.9191   -4.6957   22.3402 C   0  0  0  0  0  0
  -22.7777  -13.5205   21.1897 C   0  0  0  0  0  0
  -22.1649   -4.2137   21.0979 F   0  0  0  0  0  0
  -21.5630   -3.4537   25.7742 F   0  0  0  0  0  0
  -29.9361  -13.7384   20.3661 N   0  0  0  0  0  0
  -26.2863  -12.9501   20.3244 N   0  0  0  0  0  0
  -25.9325  -11.6624   20.5737 N   0  0  0  0  0  0
  -22.0426  -12.8180   22.0454 N   0  0  0  0  0  0
  -25.4068  -15.1987   20.4170 N   0  0  0  0  0  0
  -31.7393  -15.0516   20.1585 O   0  0  0  0  0  0
  -21.6653   -6.8866   21.4243 O   0  0  0  0  0  0
  -22.3446  -14.5497   20.6734 O   0  0  0  0  0  0
  -24.6496  -31.8395   23.1848 C   0  0  0  0  0  0
  -25.9238  -32.4669   23.8265 C   0  0  1  0  0  0
  -27.2131  -27.0806   20.1547 C   0  0  0  0  0  0
  -25.5968  -33.8479   24.2176 N   0  0  0  0  0  0
  -23.4560  -30.4595   21.5316 C   0  0  2  0  0  0
  -24.9064  -28.8836   20.1085 C   0  0  0  0  0  0
  -22.7585  -29.4537   22.4829 C   0  0  0  0  0  0
  -18.0303  -28.1410   22.8470 C   0  0  0  0  0  0
  -24.1493  -36.7240   23.2643 C   0  0  0  0  0  0
  -26.0183  -30.6953   21.3960 C   0  0  0  0  0  0
  -26.0870  -29.3030   20.7338 C   0  0  0  0  0  0
  -27.2392  -28.4181   20.7426 C   0  0  0  0  0  0
  -26.0074  -26.7906   19.4739 C   0  0  0  0  0  0
  -24.8827  -27.6419   19.4629 C   0  0  0  0  0  0
  -23.6860  -29.7909   20.1520 C   0  0  0  0  0  0
  -25.4124  -36.3010   24.0314 C   0  0  1  0  0  0
  -20.5924  -28.3744   23.1220 C   0  0  2  0  0  0
  -20.6785  -26.9442   22.5393 C   0  0  0  0  0  0
  -19.5749  -26.6378   21.5219 C   0  0  0  0  0  0
  -18.1933  -26.7940   22.1636 C   0  0  0  0  0  0
  -19.1561  -28.8887   23.2836 C   0  0  0  0  0  0
  -18.9486  -30.1479   23.8871 C   0  0  0  0  0  0
  -17.6480  -30.6600   24.0556 C   0  0  0  0  0  0
  -25.9077  -34.9388   23.5051 C   0  0  0  0  0  0
  -16.5370  -29.9092   23.6333 C   0  0  0  0  0  0
  -16.7291  -28.6506   23.0368 C   0  0  0  0  0  0
  -26.4537  -31.6558   25.0732 C   0  0  0  0  0  0
  -25.3700  -31.3778   26.1416 C   0  0  0  0  0  0
  -27.0419  -30.2936   24.6390 C   0  0  0  0  0  0
  -27.6048  -32.4344   25.7529 C   0  0  0  0  0  0
  -27.5574  -37.1776   24.8463 C   0  0  0  0  0  0
  -21.4267  -29.3072   22.3585 N   0  0  0  0  0  0
  -26.4282  -37.3729   23.9406 N   0  0  0  0  0  0
  -24.7278  -31.0209   22.0915 N   0  0  0  0  0  0
  -23.4195  -28.8069   23.2992 O   0  0  0  0  0  0
  -28.2235  -26.0313   20.2469 O   0  0  0  0  0  0
  -26.5663  -34.8890   22.4634 O   0  0  0  0  0  0
  -23.5597  -32.1298   23.7024 O   0  0  0  0  0  0
  -29.9444  -22.6938   20.7536 C   0  0  0  0  0  0
  -28.1898  -21.7277   20.0670 C   0  0  0  0  0  0
  -28.6393  -23.0664   20.2677 C   0  0  0  0  0  0
  -27.8393  -24.5233   19.9830 C   0  0  0  0  0  0
  -28.9458  -19.0487   20.3965 C   0  0  0  0  0  0
  -30.0980  -17.7862   20.4890 C   0  0  0  0  0  0
  -30.2029  -21.3487   20.8379 N   0  0  0  0  0  0
  -29.1164  -20.6548   20.3850 N   0  0  0  0  0  0
  -29.7622  -16.2117   20.5366 N   0  0  0  0  0  0
  -30.4410  -11.6821   20.0509 H   0  0  0  0  0  0
  -31.4694  -12.7883   19.1892 H   0  0  0  0  0  0
  -29.8544  -11.7310   17.6058 H   0  0  0  0  0  0
  -29.6099  -13.4604   17.6839 H   0  0  0  0  0  0
  -27.9432  -11.2802   18.9647 H   0  0  0  0  0  0
  -27.4014  -12.4665   17.8082 H   0  0  0  0  0  0
  -27.5819  -14.2578   19.4038 H   0  0  0  0  0  0
  -28.7669  -12.3440   21.4684 H   0  0  0  0  0  0
  -28.3589  -14.0237   21.7361 H   0  0  0  0  0  0
  -25.2768   -9.5697   22.4738 H   0  0  0  0  0  0
  -24.0025   -7.4640   22.7469 H   0  0  0  0  0  0
  -21.0847   -8.8763   19.8941 H   0  0  0  0  0  0
  -22.3697  -10.9670   19.6153 H   0  0  0  0  0  0
  -21.2001   -7.6139   23.9708 H   0  0  0  0  0  0
  -21.1493   -6.0524   25.9083 H   0  0  0  0  0  0
  -22.0595   -2.7602   23.2864 H   0  0  0  0  0  0
  -22.4070  -11.9863   22.4849 H   0  0  0  0  0  0
  -21.1035  -13.1180   22.2657 H   0  0  0  0  0  0
  -24.6343  -15.8457   20.5309 H   0  0  0  0  0  0
  -26.2391  -15.6427   20.0522 H   0  0  0  0  0  0
  -26.7317  -32.5255   23.1003 H   0  0  0  0  0  0
  -25.0083  -33.9595   25.0303 H   0  0  0  0  0  0
  -22.7632  -31.2882   21.3727 H   0  0  0  0  0  0
  -23.3758  -35.9568   23.3285 H   0  0  0  0  0  0
  -24.3574  -36.8895   22.2061 H   0  0  0  0  0  0
  -23.7253  -37.6430   23.6698 H   0  0  0  0  0  0
  -26.1893  -31.4504   20.6269 H   0  0  0  0  0  0
  -26.8825  -30.7392   22.0477 H   0  0  0  0  0  0
  -28.1315  -28.7297   21.2673 H   0  0  0  0  0  0
  -25.8806  -25.8505   18.9614 H   0  0  0  0  0  0
  -23.9823  -27.3165   18.9592 H   0  0  0  0  0  0
  -23.8269  -30.5658   19.3978 H   0  0  0  0  0  0
  -22.7999  -29.2371   19.8373 H   0  0  0  0  0  0
  -25.1317  -36.1829   25.0807 H   0  0  0  0  0  0
  -21.0028  -28.3344   24.1334 H   0  0  0  0  0  0
  -21.6642  -26.7435   22.1174 H   0  0  0  0  0  0
  -20.5705  -26.2377   23.3636 H   0  0  0  0  0  0
  -19.6901  -25.6265   21.1306 H   0  0  0  0  0  0
  -19.6671  -27.3154   20.6721 H   0  0  0  0  0  0
  -17.4185  -26.6639   21.4060 H   0  0  0  0  0  0
  -18.0368  -26.0107   22.9065 H   0  0  0  0  0  0
  -19.7968  -30.7284   24.2249 H   0  0  0  0  0  0
  -17.5027  -31.6269   24.5176 H   0  0  0  0  0  0
  -15.5363  -30.2981   23.7669 H   0  0  0  0  0  0
  -15.8692  -28.0798   22.7139 H   0  0  0  0  0  0
  -24.5886  -30.7119   25.7742 H   0  0  0  0  0  0
  -24.8884  -32.2972   26.4753 H   0  0  0  0  0  0
  -25.7959  -30.9013   27.0257 H   0  0  0  0  0  0
  -26.3074  -29.6635   24.1363 H   0  0  0  0  0  0
  -27.3948  -29.7265   25.5016 H   0  0  0  0  0  0
  -27.9015  -30.4129   23.9789 H   0  0  0  0  0  0
  -27.2624  -33.3667   26.2036 H   0  0  0  0  0  0
  -28.3905  -32.6880   25.0397 H   0  0  0  0  0  0
  -28.0679  -31.8529   26.5516 H   0  0  0  0  0  0
  -28.2572  -38.0088   24.7508 H   0  0  0  0  0  0
  -28.1090  -36.2617   24.6290 H   0  0  0  0  0  0
  -27.2289  -37.1422   25.8864 H   0  0  0  0  0  0
  -20.9462  -29.8814   21.6799 H   0  0  0  0  0  0
  -26.0140  -38.2793   24.1407 H   0  0  0  0  0  0
  -30.7303  -23.3701   21.0619 H   0  0  0  0  0  0
  -27.2127  -21.4377   19.7058 H   0  0  0  0  0  0
  -26.8690  -24.4149   20.4693 H   0  0  0  0  0  0
  -27.6081  -24.5154   18.9178 H   0  0  0  0  0  0
  -28.2524  -18.8616   21.2166 H   0  0  0  0  0  0
  -28.3568  -18.8326   19.5042 H   0  0  0  0  0  0
  -30.7911  -17.9302   19.6599 H   0  0  0  0  0  0
  -30.6995  -17.9777   21.3792 H   0  0  0  0  0  0
  -28.7815  -16.0201   20.6795 H   0  0  0  0  0  0
  1 25  1  0  0  0
  1 30  2  0  0  0
  1 79  1  0  0  0
  2  3  1  0  0  0
  2 25  1  0  0  0
  2 80  1  0  0  0
  2 81  1  0  0  0
  3  4  1  0  0  0
  3 82  1  0  0  0
  3 83  1  0  0  0
  4  5  1  0  0  0
  4 84  1  0  0  0
  4 85  1  0  0  0
  5  6  1  0  0  0
  5 26  1  0  0  0
  5 86  1  0  0  0
  6 25  1  0  0  0
  6 87  1  0  0  0
  6 88  1  0  0  0
  7  8  2  0  0  0
  7 26  1  0  0  0
  7 29  1  0  0  0
  8  9  1  0  0  0
  8 22  1  0  0  0
  9 10  1  0  0  0
  9 27  2  0  0  0
 10 11  2  0  0  0
 10 15  1  0  0  0
 11 12  1  0  0  0
 11 89  1  0  0  0
 12 13  2  0  0  0
 12 90  1  0  0  0
 13 14  1  0  0  0
 13 31  1  0  0  0
 14 15  2  0  0  0
 14 91  1  0  0  0
 15 92  1  0  0  0
 16 17  2  0  0  0
 16 21  1  0  0  0
 16 31  1  0  0  0
 17 18  1  0  0  0
 17 93  1  0  0  0
 18 19  2  0  0  0
 18 94  1  0  0  0
 19 20  1  0  0  0
 19 24  1  0  0  0
 20 21  2  0  0  0
 20 95  1  0  0  0
 21 23  1  0  0  0
 22 28  1  0  0  0
 22 32  2  0  0  0
 26 27  1  0  0  0
 28 96  1  0  0  0
 28 97  1  0  0  0
 29 98  1  0  0  0
 29 99  1  0  0  0
 33 34  1  0  0  0
 33 66  1  0  0  0
 33 70  2  0  0  0
 34 36  1  0  0  0
 34 59  1  0  0  0
 34100  1  0  0  0
 35 44  2  0  0  0
 35 45  1  0  0  0
 35 68  1  0  0  0
 36 56  1  0  0  0
 36101  1  0  0  0
 37 39  1  0  0  0
 37 47  1  0  0  0
 37 66  1  0  0  0
 37102  1  0  0  0
 38 43  2  0  0  0
 38 46  1  0  0  0
 38 47  1  0  0  0
 39 64  1  0  0  0
 39 67  2  0  0  0
 40 52  1  0  0  0
 40 53  2  0  0  0
 40 58  1  0  0  0
 41103  1  0  0  0
 41104  1  0  0  0
 41105  1  0  0  0
 41 48  1  0  0  0
 42 43  1  0  0  0
 42 66  1  0  0  0
 42106  1  0  0  0
 42107  1  0  0  0
 43 44  1  0  0  0
 44108  1  0  0  0
 45 46  2  0  0  0
 45109  1  0  0  0
 46110  1  0  0  0
 47111  1  0  0  0
 47112  1  0  0  0
 48 56  1  0  0  0
 48 65  1  0  0  0
 48113  1  0  0  0
 49 50  1  0  0  0
 49 53  1  0  0  0
 49 64  1  0  0  0
 49114  1  0  0  0
 50 51  1  0  0  0
 50115  1  0  0  0
 50116  1  0  0  0
 51 52  1  0  0  0
 51117  1  0  0  0
 51118  1  0  0  0
 52119  1  0  0  0
 52120  1  0  0  0
 53 54  1  0  0  0
 54 55  2  0  0  0
 54121  1  0  0  0
 55 57  1  0  0  0
 55122  1  0  0  0
 56 69  2  0  0  0
 57 58  2  0  0  0
 57123  1  0  0  0
 58124  1  0  0  0
 59 60  1  0  0  0
 59 61  1  0  0  0
 59 62  1  0  0  0
 60125  1  0  0  0
 60126  1  0  0  0
 60127  1  0  0  0
 61128  1  0  0  0
 61129  1  0  0  0
 61130  1  0  0  0
 62131  1  0  0  0
 62132  1  0  0  0
 62133  1  0  0  0
 63 65  1  0  0  0
 63134  1  0  0  0
 63135  1  0  0  0
 63136  1  0  0  0
 64137  1  0  0  0
 65138  1  0  0  0
 68 74  1  0  0  0
 71 73  1  0  0  0
 71 77  2  0  0  0
 71139  1  0  0  0
 72 73  2  0  0  0
 72 78  1  0  0  0
 72140  1  0  0  0
 73 74  1  0  0  0
 74141  1  0  0  0
 74142  1  0  0  0
 75 76  1  0  0  0
 75 78  1  0  0  0
 75143  1  0  0  0
 75144  1  0  0  0
 76 79  1  0  0  0
 76145  1  0  0  0
 76146  1  0  0  0
 77 78  1  0  0  0
 79147  1  0  0  0
M  ISO  4   1 100  68 101  74 101  79 100
M  END
> <chiral flag>
0

> <version>
0

> <s_m_source_file>
/data/baiqing/PycharmProjects/Reinvent-master-3.2/result/LINK_invent/BTK/process_docking_weight1_custom_sum_contain_oxygen_bond_distance_aromatic_linkinvent_7_9_3/rearranged_h_0127.sdf

> <i_m_source_file_index>
35

> <r_mmod_Potential_Energy-OPLS-2005>
596.416564941406

> <r_mmod_Stretch_Energy-OPLS-2005>
310.622619628906

> <r_mmod_Bend_Energy-OPLS-2005>
302.815032958984

> <r_mmod_Torsional_Energy-OPLS-2005>
216.390762329102

> <r_mmod_Improper_Torsional_Energy-OPLS-2005>
4.72734928131104

> <r_mmod_Van_der_Waal_Energy-OPLS-2005>
113.723411560059

> <r_mmod_Electrostatic_Energy-OPLS-2005>
-353.729064941406

> <r_mmod_Solvation_Energy-OPLS-2005>
-242.687622070312

> <b_mmod_Minimization_Converged-OPLS-2005>
0

> <r_mmod_RMS_Derivative-OPLS-2005>
1.89618515968323

$$$$
35
                    3D
 Structure written by MMmdl.
162170  0  0  1  0            999 V2000
  -30.7454  -14.4343   20.6353 C   0  0  0  0  0  0
  -30.4171  -12.3127   19.4111 C   0  0  0  0  0  0
  -29.4880  -12.5167   18.1992 C   0  0  0  0  0  0
  -28.0119  -12.3721   18.6156 C   0  0  0  0  0  0
  -27.6614  -13.2092   19.8744 C   0  0  2  0  0  0
  -28.7024  -12.9873   20.9940 C   0  0  0  0  0  0
  -25.2584  -13.8167   20.5681 C   0  0  0  0  0  0
  -24.1836  -13.0440   20.9173 C   0  0  0  0  0  0
  -24.6395  -11.6908   20.8729 C   0  0  0  0  0  0
  -23.9061  -10.4293   21.0400 C   0  0  0  0  0  0
  -24.3615   -9.4209   21.9179 C   0  0  0  0  0  0
  -23.6292   -8.2244   22.0749 C   0  0  0  0  0  0
  -22.4273   -8.0282   21.3541 C   0  0  0  0  0  0
  -21.9908   -9.0254   20.4642 C   0  0  0  0  0  0
  -22.7234  -10.2133   20.3049 C   0  0  0  0  0  0
  -21.6852   -6.0736   22.5278 C   0  0  0  0  0  0
  -21.4013   -6.5638   23.8213 C   0  0  0  0  0  0
  -21.3660   -5.6790   24.9172 C   0  0  0  0  0  0
  -21.6044   -4.3054   24.7223 C   0  0  0  0  0  0
  -21.8821   -3.8146   23.4344 C   0  0  0  0  0  0
  -21.9193   -4.6965   22.3400 C   0  0  0  0  0  0
  -22.7860  -13.5237   21.1840 C   0  0  0  0  0  0
  -22.1662   -4.2150   21.0978 F   0  0  0  0  0  0
  -21.5628   -3.4537   25.7735 F   0  0  0  0  0  0
  -30.0358  -13.2888   20.4449 N   0  0  0  0  0  0
  -26.3023  -12.9343   20.3364 N   0  0  0  0  0  0
  -25.9322  -11.6498   20.5760 N   0  0  0  0  0  0
  -22.0498  -12.8228   22.0394 N   0  0  0  0  0  0
  -25.4315  -15.1886   20.4106 N   0  0  0  0  0  0
  -31.8253  -14.6505   20.0789 O   0  0  0  0  0  0
  -21.6637   -6.8879   21.4241 O   0  0  0  0  0  0
  -22.3544  -14.5546   20.6692 O   0  0  0  0  0  0
  -24.6158  -31.8683   23.2114 C   0  0  0  0  0  0
  -25.9051  -32.4823   23.8398 C   0  0  1  0  0  0
  -27.2274  -27.4163   20.0891 C   0  0  0  0  0  0
  -25.5910  -33.8621   24.2331 N   0  0  0  0  0  0
  -23.4025  -30.4949   21.5529 C   0  0  2  0  0  0
  -24.8454  -28.9613   20.1161 C   0  0  0  0  0  0
  -22.7409  -29.4666   22.4990 C   0  0  0  0  0  0
  -18.0272  -28.1379   22.8499 C   0  0  0  0  0  0
  -24.1485  -36.7307   23.2638 C   0  0  0  0  0  0
  -25.9349  -30.8266   21.3690 C   0  0  0  0  0  0
  -26.0074  -29.4600   20.7152 C   0  0  0  0  0  0
  -27.1975  -28.6944   20.7008 C   0  0  0  0  0  0
  -26.0437  -26.9488   19.4662 C   0  0  0  0  0  0
  -24.8592  -27.7053   19.4912 C   0  0  0  0  0  0
  -23.6105  -29.8318   20.1663 C   0  0  0  0  0  0
  -25.4109  -36.3112   24.0338 C   0  0  1  0  0  0
  -20.5864  -28.3663   23.1322 C   0  0  2  0  0  0
  -20.6762  -26.9402   22.5416 C   0  0  0  0  0  0
  -19.5738  -26.6391   21.5213 C   0  0  0  0  0  0
  -18.1919  -26.7926   22.1627 C   0  0  0  0  0  0
  -19.1522  -28.8838   23.2910 C   0  0  0  0  0  0
  -18.9450  -30.1447   23.8915 C   0  0  0  0  0  0
  -17.6453  -30.6588   24.0571 C   0  0  0  0  0  0
  -25.9037  -34.9476   23.5130 C   0  0  0  0  0  0
  -16.5343  -29.9093   23.6331 C   0  0  0  0  0  0
  -16.7261  -28.6508   23.0355 C   0  0  0  0  0  0
  -26.4474  -31.6601   25.0726 C   0  0  0  0  0  0
  -25.3742  -31.3706   26.1475 C   0  0  0  0  0  0
  -27.0306  -30.3043   24.6108 C   0  0  0  0  0  0
  -27.6053  -32.4318   25.7487 C   0  0  0  0  0  0
  -27.5579  -37.1813   24.8469 C   0  0  0  0  0  0
  -21.4135  -29.3034   22.3727 N   0  0  0  0  0  0
  -26.4291  -37.3798   23.9411 N   0  0  0  0  0  0
  -24.6694  -31.0779   22.1022 N   0  0  0  0  0  0
  -23.4183  -28.8198   23.3023 O   0  0  0  0  0  0
  -28.4144  -26.7004   20.1008 O   0  0  0  0  0  0
  -26.5599  -34.8927   22.4691 O   0  0  0  0  0  0
  -23.5348  -32.1439   23.7503 O   0  0  0  0  0  0
  -28.4659  -20.9198   22.3906 C   0  0  0  0  0  0
  -29.7549  -20.8308   20.2637 C   0  0  0  0  0  0
  -28.6851  -22.4474   22.4465 C   0  0  0  0  0  0
  -29.9343  -22.3718   20.3314 C   0  0  0  0  0  0
  -29.6194  -20.2006   21.6660 C   0  0  2  0  0  0
  -29.4358  -18.6537   21.6696 C   0  0  0  0  0  0
  -30.6987  -17.8504   21.2688 C   0  0  0  0  0  0
  -30.9072  -16.5083   22.0216 C   0  0  0  0  0  0
  -28.9731  -24.5397   21.1482 C   0  0  0  0  0  0
  -28.4172  -25.2681   19.9024 C   0  0  0  0  0  0
  -30.2023  -15.3428   21.4660 N   0  0  0  0  0  0
  -28.8415  -23.0460   21.0923 N   0  3  2  0  0  0
  -31.4608  -12.4090   19.1069 H   0  0  0  0  0  0
  -30.3173  -11.2993   19.8037 H   0  0  0  0  0  0
  -29.7277  -11.7964   17.4156 H   0  0  0  0  0  0
  -29.6547  -13.5051   17.7682 H   0  0  0  0  0  0
  -27.8249  -11.3154   18.8104 H   0  0  0  0  0  0
  -27.3588  -12.6476   17.7869 H   0  0  0  0  0  0
  -27.7080  -14.2584   19.5819 H   0  0  0  0  0  0
  -28.6771  -11.9505   21.3331 H   0  0  0  0  0  0
  -28.4541  -13.5836   21.8720 H   0  0  0  0  0  0
  -25.2762   -9.5685   22.4750 H   0  0  0  0  0  0
  -24.0003   -7.4634   22.7465 H   0  0  0  0  0  0
  -21.0840   -8.8774   19.8946 H   0  0  0  0  0  0
  -22.3698  -10.9671   19.6155 H   0  0  0  0  0  0
  -21.2006   -7.6145   23.9716 H   0  0  0  0  0  0
  -21.1479   -6.0518   25.9075 H   0  0  0  0  0  0
  -22.0600   -2.7610   23.2841 H   0  0  0  0  0  0
  -22.4113  -11.9894   22.4792 H   0  0  0  0  0  0
  -21.1113  -13.1250   22.2588 H   0  0  0  0  0  0
  -24.6700  -15.8488   20.5245 H   0  0  0  0  0  0
  -26.2929  -15.6261   20.1077 H   0  0  0  0  0  0
  -26.7121  -32.5529   23.1159 H   0  0  0  0  0  0
  -25.0070  -33.9781   25.0483 H   0  0  0  0  0  0
  -22.6916  -31.3129   21.4170 H   0  0  0  0  0  0
  -23.3747  -35.9641   23.3315 H   0  0  0  0  0  0
  -24.3579  -36.8903   22.2050 H   0  0  0  0  0  0
  -23.7233  -37.6515   23.6641 H   0  0  0  0  0  0
  -26.0539  -31.5921   20.6007 H   0  0  0  0  0  0
  -26.8212  -30.8762   21.9899 H   0  0  0  0  0  0
  -28.0942  -29.0791   21.1671 H   0  0  0  0  0  0
  -25.9963  -26.0169   18.9261 H   0  0  0  0  0  0
  -23.9686  -27.3233   19.0108 H   0  0  0  0  0  0
  -23.7228  -30.6088   19.4094 H   0  0  0  0  0  0
  -22.7326  -29.2561   19.8672 H   0  0  0  0  0  0
  -25.1286  -36.1976   25.0830 H   0  0  0  0  0  0
  -20.9963  -28.3224   24.1440 H   0  0  0  0  0  0
  -20.5672  -26.2266   23.3597 H   0  0  0  0  0  0
  -21.6634  -26.7447   22.1207 H   0  0  0  0  0  0
  -19.6897  -25.6308   21.1230 H   0  0  0  0  0  0
  -19.6682  -27.3212   20.6753 H   0  0  0  0  0  0
  -17.4190  -26.6682   21.4027 H   0  0  0  0  0  0
  -18.0321  -26.0059   22.9014 H   0  0  0  0  0  0
  -19.7923  -30.7267   24.2283 H   0  0  0  0  0  0
  -17.5007  -31.6268   24.5174 H   0  0  0  0  0  0
  -15.5347  -30.3007   23.7643 H   0  0  0  0  0  0
  -15.8655  -28.0839   22.7061 H   0  0  0  0  0  0
  -24.5912  -30.7055   25.7812 H   0  0  0  0  0  0
  -24.8934  -32.2859   26.4936 H   0  0  0  0  0  0
  -25.8096  -30.8865   27.0224 H   0  0  0  0  0  0
  -26.2848  -29.6807   24.1163 H   0  0  0  0  0  0
  -27.4075  -29.7280   25.4568 H   0  0  0  0  0  0
  -27.8689  -30.4364   23.9262 H   0  0  0  0  0  0
  -27.2673  -33.3605   26.2098 H   0  0  0  0  0  0
  -28.3844  -32.6897   25.0301 H   0  0  0  0  0  0
  -28.0742  -31.8419   26.5372 H   0  0  0  0  0  0
  -28.2614  -38.0096   24.7516 H   0  0  0  0  0  0
  -28.1057  -36.2630   24.6298 H   0  0  0  0  0  0
  -27.2298  -37.1470   25.8873 H   0  0  0  0  0  0
  -20.9283  -29.8759   21.6960 H   0  0  0  0  0  0
  -26.0179  -38.2875   24.1413 H   0  0  0  0  0  0
  -27.5172  -20.6991   21.8983 H   0  0  0  0  0  0
  -28.3733  -20.5409   23.4092 H   0  0  0  0  0  0
  -30.6088  -20.3954   19.7429 H   0  0  0  0  0  0
  -28.8779  -20.5894   19.6611 H   0  0  0  0  0  0
  -29.5678  -22.6730   23.0474 H   0  0  0  0  0  0
  -27.8374  -22.9066   22.9572 H   0  0  0  0  0  0
  -29.9838  -22.7739   19.3191 H   0  0  0  0  0  0
  -30.8921  -22.6026   20.8006 H   0  0  0  0  0  0
  -30.5313  -20.4215   22.2244 H   0  0  0  0  0  0
  -28.5938  -18.3615   21.0411 H   0  0  0  0  0  0
  -29.1556  -18.3605   22.6821 H   0  0  0  0  0  0
  -31.5699  -18.4652   21.4987 H   0  0  0  0  0  0
  -30.7362  -17.7038   20.1885 H   0  0  0  0  0  0
  -30.6238  -16.6168   23.0693 H   0  0  0  0  0  0
  -31.9774  -16.2913   22.0489 H   0  0  0  0  0  0
  -28.4100  -24.9128   22.0046 H   0  0  0  0  0  0
  -30.0106  -24.8248   21.3265 H   0  0  0  0  0  0
  -27.4424  -24.8380   19.6952 H   0  0  0  0  0  0
  -29.0348  -25.0478   19.0313 H   0  0  0  0  0  0
  -29.3004  -15.1151   21.8579 H   0  0  0  0  0  0
  -27.9777  -22.8468   20.6076 H   0  0  0  0  0  0
  1 25  1  0  0  0
  1 30  2  0  0  0
  1 81  1  0  0  0
  2  3  1  0  0  0
  2 25  1  0  0  0
  2 83  1  0  0  0
  2 84  1  0  0  0
  3  4  1  0  0  0
  3 85  1  0  0  0
  3 86  1  0  0  0
  4  5  1  0  0  0
  4 87  1  0  0  0
  4 88  1  0  0  0
  5  6  1  0  0  0
  5 26  1  0  0  0
  5 89  1  0  0  0
  6 25  1  0  0  0
  6 90  1  0  0  0
  6 91  1  0  0  0
  7  8  2  0  0  0
  7 26  1  0  0  0
  7 29  1  0  0  0
  8  9  1  0  0  0
  8 22  1  0  0  0
  9 10  1  0  0  0
  9 27  2  0  0  0
 10 11  2  0  0  0
 10 15  1  0  0  0
 11 12  1  0  0  0
 11 92  1  0  0  0
 12 13  2  0  0  0
 12 93  1  0  0  0
 13 14  1  0  0  0
 13 31  1  0  0  0
 14 15  2  0  0  0
 14 94  1  0  0  0
 15 95  1  0  0  0
 16 17  2  0  0  0
 16 21  1  0  0  0
 16 31  1  0  0  0
 17 18  1  0  0  0
 17 96  1  0  0  0
 18 19  2  0  0  0
 18 97  1  0  0  0
 19 20  1  0  0  0
 19 24  1  0  0  0
 20 21  2  0  0  0
 20 98  1  0  0  0
 21 23  1  0  0  0
 22 28  1  0  0  0
 22 32  2  0  0  0
 26 27  1  0  0  0
 28 99  1  0  0  0
 28100  1  0  0  0
 29101  1  0  0  0
 29102  1  0  0  0
 33 34  1  0  0  0
 33 66  1  0  0  0
 33 70  2  0  0  0
 34 36  1  0  0  0
 34 59  1  0  0  0
 34103  1  0  0  0
 35 44  2  0  0  0
 35 45  1  0  0  0
 35 68  1  0  0  0
 36 56  1  0  0  0
 36104  1  0  0  0
 37 39  1  0  0  0
 37 47  1  0  0  0
 37 66  1  0  0  0
 37105  1  0  0  0
 38 43  2  0  0  0
 38 46  1  0  0  0
 38 47  1  0  0  0
 39 64  1  0  0  0
 39 67  2  0  0  0
 40 52  1  0  0  0
 40 53  2  0  0  0
 40 58  1  0  0  0
 41106  1  0  0  0
 41107  1  0  0  0
 41108  1  0  0  0
 41 48  1  0  0  0
 42 43  1  0  0  0
 42 66  1  0  0  0
 42109  1  0  0  0
 42110  1  0  0  0
 43 44  1  0  0  0
 44111  1  0  0  0
 45 46  2  0  0  0
 45112  1  0  0  0
 46113  1  0  0  0
 47114  1  0  0  0
 47115  1  0  0  0
 48 56  1  0  0  0
 48 65  1  0  0  0
 48116  1  0  0  0
 49 50  1  0  0  0
 49 53  1  0  0  0
 49 64  1  0  0  0
 49117  1  0  0  0
 50 51  1  0  0  0
 50118  1  0  0  0
 50119  1  0  0  0
 51 52  1  0  0  0
 51120  1  0  0  0
 51121  1  0  0  0
 52122  1  0  0  0
 52123  1  0  0  0
 53 54  1  0  0  0
 54 55  2  0  0  0
 54124  1  0  0  0
 55 57  1  0  0  0
 55125  1  0  0  0
 56 69  2  0  0  0
 57 58  2  0  0  0
 57126  1  0  0  0
 58127  1  0  0  0
 59 60  1  0  0  0
 59 61  1  0  0  0
 59 62  1  0  0  0
 60128  1  0  0  0
 60129  1  0  0  0
 60130  1  0  0  0
 61131  1  0  0  0
 61132  1  0  0  0
 61133  1  0  0  0
 62134  1  0  0  0
 62135  1  0  0  0
 62136  1  0  0  0
 63 65  1  0  0  0
 63137  1  0  0  0
 63138  1  0  0  0
 63139  1  0  0  0
 64140  1  0  0  0
 65141  1  0  0  0
 68 80  1  0  0  0
 71 73  1  0  0  0
 71 75  1  0  0  0
 71142  1  0  0  0
 71143  1  0  0  0
 72 74  1  0  0  0
 72 75  1  0  0  0
 72144  1  0  0  0
 72145  1  0  0  0
 73 82  1  0  0  0
 73146  1  0  0  0
 73147  1  0  0  0
 74 82  1  0  0  0
 74148  1  0  0  0
 74149  1  0  0  0
 75 76  1  0  0  0
 75150  1  0  0  0
 76 77  1  0  0  0
 76151  1  0  0  0
 76152  1  0  0  0
 77 78  1  0  0  0
 77153  1  0  0  0
 77154  1  0  0  0
 78 81  1  0  0  0
 78155  1  0  0  0
 78156  1  0  0  0
 79 80  1  0  0  0
 79157  1  0  0  0
 79158  1  0  0  0
 79 82  1  0  0  0
 80159  1  0  0  0
 80160  1  0  0  0
 81161  1  0  0  0
 82162  1  0  0  0
M  CHG  1  82   1
M  ISO  4   1 100  68 101  80 101  81 100
M  END
> <chiral flag>
0

> <version>
0

> <s_m_source_file>
/data/baiqing/PycharmProjects/Reinvent-master-3.2/result/LINK_invent/BTK/process_docking_weight1_custom_sum_contain_oxygen_bond_distance_aromatic_linkinvent_7_9_3/rearranged_h_0127.sdf

> <i_m_source_file_index>
36

> <r_mmod_Potential_Energy-OPLS-2005>
-109.406791687012

> <r_mmod_Stretch_Energy-OPLS-2005>
39.3456535339355

> <r_mmod_Bend_Energy-OPLS-2005>
108.23274230957

> <r_mmod_Torsional_Energy-OPLS-2005>
242.395843505859

> <r_mmod_Improper_Torsional_Energy-OPLS-2005>
1.91621148586273

> <r_mmod_Van_der_Waal_Energy-OPLS-2005>
142.442794799805

> <r_mmod_Electrostatic_Energy-OPLS-2005>
-230.884811401367

> <r_mmod_Solvation_Energy-OPLS-2005>
-424.283264160156

> <b_mmod_Minimization_Converged-OPLS-2005>
0

> <r_mmod_RMS_Derivative-OPLS-2005>
0.693249762058258

$$$$
36
                    3D
 Structure written by MMmdl.
159167  0  0  1  0            999 V2000
  -30.6913  -14.4567   20.5894 C   0  0  0  0  0  0
  -30.4259  -12.3052   19.4080 C   0  0  0  0  0  0
  -29.4906  -12.5098   18.1976 C   0  0  0  0  0  0
  -28.0116  -12.3715   18.6112 C   0  0  0  0  0  0
  -27.6635  -13.2007   19.8765 C   0  0  2  0  0  0
  -28.7058  -12.9573   20.9916 C   0  0  0  0  0  0
  -25.2609  -13.8144   20.5681 C   0  0  0  0  0  0
  -24.1848  -13.0434   20.9175 C   0  0  0  0  0  0
  -24.6387  -11.6894   20.8732 C   0  0  0  0  0  0
  -23.9044  -10.4289   21.0405 C   0  0  0  0  0  0
  -24.3597   -9.4209   21.9179 C   0  0  0  0  0  0
  -23.6281   -8.2242   22.0748 C   0  0  0  0  0  0
  -22.4269   -8.0273   21.3542 C   0  0  0  0  0  0
  -21.9897   -9.0245   20.4650 C   0  0  0  0  0  0
  -22.7214  -10.2131   20.3054 C   0  0  0  0  0  0
  -21.6855   -6.0727   22.5277 C   0  0  0  0  0  0
  -21.4012   -6.5630   23.8208 C   0  0  0  0  0  0
  -21.3661   -5.6785   24.9174 C   0  0  0  0  0  0
  -21.6049   -4.3050   24.7228 C   0  0  0  0  0  0
  -21.8817   -3.8137   23.4351 C   0  0  0  0  0  0
  -21.9193   -4.6956   22.3407 C   0  0  0  0  0  0
  -22.7870  -13.5243   21.1839 C   0  0  0  0  0  0
  -22.1660   -4.2135   21.0988 F   0  0  0  0  0  0
  -21.5632   -3.4533   25.7746 F   0  0  0  0  0  0
  -30.0370  -13.2739   20.4431 N   0  0  0  0  0  0
  -26.3039  -12.9297   20.3377 N   0  0  0  0  0  0
  -25.9318  -11.6465   20.5769 N   0  0  0  0  0  0
  -22.0508  -12.8243   22.0401 N   0  0  0  0  0  0
  -25.4368  -15.1857   20.4068 N   0  0  0  0  0  0
  -31.7961  -14.6879   20.0883 O   0  0  0  0  0  0
  -21.6640   -6.8869   21.4237 O   0  0  0  0  0  0
  -22.3569  -14.5563   20.6702 O   0  0  0  0  0  0
  -24.6142  -31.8677   23.2103 C   0  0  0  0  0  0
  -25.9038  -32.4822   23.8395 C   0  0  1  0  0  0
  -27.2333  -27.4435   20.0918 C   0  0  0  0  0  0
  -25.5894  -33.8619   24.2331 N   0  0  0  0  0  0
  -23.4024  -30.4904   21.5509 C   0  0  2  0  0  0
  -24.8501  -28.9564   20.1135 C   0  0  0  0  0  0
  -22.7412  -29.4653   22.4997 C   0  0  0  0  0  0
  -18.0267  -28.1378   22.8492 C   0  0  0  0  0  0
  -24.1484  -36.7319   23.2639 C   0  0  0  0  0  0
  -25.9304  -30.8356   21.3625 C   0  0  0  0  0  0
  -26.0095  -29.4702   20.7097 C   0  0  0  0  0  0
  -27.2079  -28.7206   20.6964 C   0  0  0  0  0  0
  -26.0625  -26.9383   19.4941 C   0  0  0  0  0  0
  -24.8710  -27.6893   19.5028 C   0  0  0  0  0  0
  -23.6105  -29.8219   20.1653 C   0  0  0  0  0  0
  -25.4103  -36.3110   24.0337 C   0  0  1  0  0  0
  -20.5857  -28.3657   23.1321 C   0  0  2  0  0  0
  -20.6753  -26.9396   22.5414 C   0  0  0  0  0  0
  -19.5732  -26.6386   21.5211 C   0  0  0  0  0  0
  -18.1913  -26.7921   22.1625 C   0  0  0  0  0  0
  -19.1516  -28.8834   23.2903 C   0  0  0  0  0  0
  -18.9446  -30.1446   23.8910 C   0  0  0  0  0  0
  -17.6450  -30.6586   24.0565 C   0  0  0  0  0  0
  -25.9028  -34.9474   23.5131 C   0  0  0  0  0  0
  -16.5341  -29.9090   23.6328 C   0  0  0  0  0  0
  -16.7257  -28.6506   23.0346 C   0  0  0  0  0  0
  -26.4470  -31.6597   25.0723 C   0  0  0  0  0  0
  -25.3750  -31.3704   26.1486 C   0  0  0  0  0  0
  -27.0301  -30.3037   24.6099 C   0  0  0  0  0  0
  -27.6046  -32.4321   25.7484 C   0  0  0  0  0  0
  -27.5579  -37.1812   24.8467 C   0  0  0  0  0  0
  -21.4138  -29.3025   22.3734 N   0  0  0  0  0  0
  -26.4290  -37.3791   23.9411 N   0  0  0  0  0  0
  -24.6672  -31.0785   22.0996 N   0  0  0  0  0  0
  -23.4186  -28.8193   23.3037 O   0  0  0  0  0  0
  -28.3737  -26.6749   20.0785 O   0  0  0  0  0  0
  -26.5590  -34.8923   22.4698 O   0  0  0  0  0  0
  -23.5337  -32.1418   23.7506 O   0  0  0  0  0  0
  -27.8410  -21.9495   21.1566 C   0  0  0  0  0  0
  -29.4315  -22.4558   19.3895 C   0  0  0  0  0  0
  -27.7655  -23.3215   21.4778 C   0  0  0  0  0  0
  -29.3479  -23.8325   19.7071 C   0  0  0  0  0  0
  -28.6764  -21.5011   20.1103 C   0  0  0  0  0  0
  -28.5129  -24.2790   20.7556 C   0  0  0  0  0  0
  -29.7091  -26.1336   21.9863 C   0  0  0  0  0  0
  -28.7008  -20.0157   19.7305 C   0  0  0  0  0  0
  -30.3020  -16.8495   21.3205 C   0  0  0  0  0  0
  -29.3937  -17.7212   20.4122 C   0  0  0  0  0  0
  -28.4671  -25.7530   21.1742 C   0  0  1  0  0  0
  -29.9837  -15.4167   21.2089 N   0  0  0  0  0  0
  -29.5749  -19.1875   20.5968 N   0  3  0  0  0  0
  -31.4672  -12.4174   19.1017 H   0  0  0  0  0  0
  -30.3365  -11.2880   19.7940 H   0  0  0  0  0  0
  -29.7270  -11.7898   17.4135 H   0  0  0  0  0  0
  -29.6575  -13.4977   17.7656 H   0  0  0  0  0  0
  -27.8157  -11.3147   18.7977 H   0  0  0  0  0  0
  -27.3610  -12.6567   17.7837 H   0  0  0  0  0  0
  -27.7162  -14.2523   19.5943 H   0  0  0  0  0  0
  -28.6845  -11.9130   21.3054 H   0  0  0  0  0  0
  -28.4630  -13.5285   21.8888 H   0  0  0  0  0  0
  -25.2738   -9.5685   22.4752 H   0  0  0  0  0  0
  -23.9997   -7.4635   22.7463 H   0  0  0  0  0  0
  -21.0823   -8.8752   19.8965 H   0  0  0  0  0  0
  -22.3656  -10.9664   19.6165 H   0  0  0  0  0  0
  -21.1997   -7.6137   23.9704 H   0  0  0  0  0  0
  -21.1491   -6.0521   25.9079 H   0  0  0  0  0  0
  -22.0601   -2.7601   23.2856 H   0  0  0  0  0  0
  -22.4106  -11.9889   22.4780 H   0  0  0  0  0  0
  -21.1139  -13.1298   22.2624 H   0  0  0  0  0  0
  -24.6703  -15.8430   20.5004 H   0  0  0  0  0  0
  -26.2830  -15.6116   20.0514 H   0  0  0  0  0  0
  -26.7116  -32.5532   23.1166 H   0  0  0  0  0  0
  -25.0045  -33.9778   25.0476 H   0  0  0  0  0  0
  -22.6902  -31.3064   21.4124 H   0  0  0  0  0  0
  -23.3733  -35.9667   23.3317 H   0  0  0  0  0  0
  -24.3577  -36.8917   22.2051 H   0  0  0  0  0  0
  -23.7252  -37.6535   23.6642 H   0  0  0  0  0  0
  -26.0416  -31.6028   20.5949 H   0  0  0  0  0  0
  -26.8184  -30.8887   21.9806 H   0  0  0  0  0  0
  -28.1065  -29.1129   21.1515 H   0  0  0  0  0  0
  -26.0758  -25.9639   19.0259 H   0  0  0  0  0  0
  -23.9800  -27.2875   19.0403 H   0  0  0  0  0  0
  -23.7155  -30.5967   19.4050 H   0  0  0  0  0  0
  -22.7349  -29.2401   19.8719 H   0  0  0  0  0  0
  -25.1281  -36.1974   25.0828 H   0  0  0  0  0  0
  -20.9946  -28.3219   24.1444 H   0  0  0  0  0  0
  -20.5654  -26.2269   23.3600 H   0  0  0  0  0  0
  -21.6625  -26.7439   22.1213 H   0  0  0  0  0  0
  -19.6893  -25.6306   21.1227 H   0  0  0  0  0  0
  -19.6675  -27.3207   20.6752 H   0  0  0  0  0  0
  -17.4185  -26.6674   21.4027 H   0  0  0  0  0  0
  -18.0314  -26.0063   22.9022 H   0  0  0  0  0  0
  -19.7925  -30.7253   24.2286 H   0  0  0  0  0  0
  -17.5009  -31.6264   24.5168 H   0  0  0  0  0  0
  -15.5342  -30.2995   23.7647 H   0  0  0  0  0  0
  -15.8656  -28.0833   22.7052 H   0  0  0  0  0  0
  -24.5906  -30.7068   25.7834 H   0  0  0  0  0  0
  -24.8963  -32.2862   26.4961 H   0  0  0  0  0  0
  -25.8113  -30.8855   27.0229 H   0  0  0  0  0  0
  -26.2844  -29.6801   24.1155 H   0  0  0  0  0  0
  -27.4071  -29.7268   25.4556 H   0  0  0  0  0  0
  -27.8678  -30.4352   23.9246 H   0  0  0  0  0  0
  -27.2654  -33.3598   26.2105 H   0  0  0  0  0  0
  -28.3827  -32.6924   25.0297 H   0  0  0  0  0  0
  -28.0751  -31.8428   26.5364 H   0  0  0  0  0  0
  -28.2606  -38.0097   24.7493 H   0  0  0  0  0  0
  -28.1057  -36.2627   24.6309 H   0  0  0  0  0  0
  -27.2296  -37.1491   25.8869 H   0  0  0  0  0  0
  -20.9297  -29.8761   21.6968 H   0  0  0  0  0  0
  -26.0179  -38.2872   24.1399 H   0  0  0  0  0  0
  -27.2427  -21.2421   21.7151 H   0  0  0  0  0  0
  -30.0708  -22.1398   18.5759 H   0  0  0  0  0  0
  -27.1265  -23.6372   22.2911 H   0  0  0  0  0  0
  -29.9333  -24.5497   19.1481 H   0  0  0  0  0  0
  -29.8073  -25.5020   22.8699 H   0  0  0  0  0  0
  -29.6514  -27.1681   22.3241 H   0  0  0  0  0  0
  -30.6191  -26.0246   21.3961 H   0  0  0  0  0  0
  -29.0143  -19.9082   18.6916 H   0  0  0  0  0  0
  -27.6773  -19.6385   19.7789 H   0  0  0  0  0  0
  -30.1661  -17.1356   22.3643 H   0  0  0  0  0  0
  -31.3532  -17.0318   21.0896 H   0  0  0  0  0  0
  -28.3490  -17.4771   20.6090 H   0  0  0  0  0  0
  -29.5779  -17.4710   19.3664 H   0  0  0  0  0  0
  -27.6044  -25.8685   21.8357 H   0  0  0  0  0  0
  -29.0969  -15.1192   21.5876 H   0  0  0  0  0  0
  -29.3709  -19.4230   21.5533 H   0  0  0  0  0  0
  -30.5312  -19.4411   20.4147 H   0  0  0  0  0  0
  1 25  1  0  0  0
  1 30  2  0  0  0
  1 82  1  0  0  0
  2  3  1  0  0  0
  2 25  1  0  0  0
  2 84  1  0  0  0
  2 85  1  0  0  0
  3  4  1  0  0  0
  3 86  1  0  0  0
  3 87  1  0  0  0
  4  5  1  0  0  0
  4 88  1  0  0  0
  4 89  1  0  0  0
  5  6  1  0  0  0
  5 26  1  0  0  0
  5 90  1  0  0  0
  6 25  1  0  0  0
  6 91  1  0  0  0
  6 92  1  0  0  0
  7  8  2  0  0  0
  7 26  1  0  0  0
  7 29  1  0  0  0
  8  9  1  0  0  0
  8 22  1  0  0  0
  9 10  1  0  0  0
  9 27  2  0  0  0
 10 11  2  0  0  0
 10 15  1  0  0  0
 11 12  1  0  0  0
 11 93  1  0  0  0
 12 13  2  0  0  0
 12 94  1  0  0  0
 13 14  1  0  0  0
 13 31  1  0  0  0
 14 15  2  0  0  0
 14 95  1  0  0  0
 15 96  1  0  0  0
 16 17  2  0  0  0
 16 21  1  0  0  0
 16 31  1  0  0  0
 17 18  1  0  0  0
 17 97  1  0  0  0
 18 19  2  0  0  0
 18 98  1  0  0  0
 19 20  1  0  0  0
 19 24  1  0  0  0
 20 21  2  0  0  0
 20 99  1  0  0  0
 21 23  1  0  0  0
 22 28  1  0  0  0
 22 32  2  0  0  0
 26 27  1  0  0  0
 28100  1  0  0  0
 28101  1  0  0  0
 29102  1  0  0  0
 29103  1  0  0  0
 33 34  1  0  0  0
 33 66  1  0  0  0
 33 70  2  0  0  0
 34 36  1  0  0  0
 34 59  1  0  0  0
 34104  1  0  0  0
 35 44  2  0  0  0
 35 45  1  0  0  0
 35 68  1  0  0  0
 36 56  1  0  0  0
 36105  1  0  0  0
 37 39  1  0  0  0
 37 47  1  0  0  0
 37 66  1  0  0  0
 37106  1  0  0  0
 38 43  2  0  0  0
 38 46  1  0  0  0
 38 47  1  0  0  0
 39 64  1  0  0  0
 39 67  2  0  0  0
 40 52  1  0  0  0
 40 53  2  0  0  0
 40 58  1  0  0  0
 41107  1  0  0  0
 41108  1  0  0  0
 41109  1  0  0  0
 41 48  1  0  0  0
 42 43  1  0  0  0
 42 66  1  0  0  0
 42110  1  0  0  0
 42111  1  0  0  0
 43 44  1  0  0  0
 44112  1  0  0  0
 45 46  2  0  0  0
 45113  1  0  0  0
 46114  1  0  0  0
 47115  1  0  0  0
 47116  1  0  0  0
 48 56  1  0  0  0
 48 65  1  0  0  0
 48117  1  0  0  0
 49 50  1  0  0  0
 49 53  1  0  0  0
 49 64  1  0  0  0
 49118  1  0  0  0
 50 51  1  0  0  0
 50119  1  0  0  0
 50120  1  0  0  0
 51 52  1  0  0  0
 51121  1  0  0  0
 51122  1  0  0  0
 52123  1  0  0  0
 52124  1  0  0  0
 53 54  1  0  0  0
 54 55  2  0  0  0
 54125  1  0  0  0
 55 57  1  0  0  0
 55126  1  0  0  0
 56 69  2  0  0  0
 57 58  2  0  0  0
 57127  1  0  0  0
 58128  1  0  0  0
 59 60  1  0  0  0
 59 61  1  0  0  0
 59 62  1  0  0  0
 60129  1  0  0  0
 60130  1  0  0  0
 60131  1  0  0  0
 61132  1  0  0  0
 61133  1  0  0  0
 61134  1  0  0  0
 62135  1  0  0  0
 62136  1  0  0  0
 62137  1  0  0  0
 63 65  1  0  0  0
 63138  1  0  0  0
 63139  1  0  0  0
 63140  1  0  0  0
 64141  1  0  0  0
 65142  1  0  0  0
 68 81  1  0  0  0
 71 73  2  0  0  0
 71 75  1  0  0  0
 71143  1  0  0  0
 72 74  1  0  0  0
 72 75  2  0  0  0
 72144  1  0  0  0
 73 76  1  0  0  0
 73145  1  0  0  0
 74 76  2  0  0  0
 74146  1  0  0  0
 75 78  1  0  0  0
 76 81  1  0  0  0
 77147  1  0  0  0
 77148  1  0  0  0
 77149  1  0  0  0
 77 81  1  0  0  0
 78 83  1  0  0  0
 78150  1  0  0  0
 78151  1  0  0  0
 79 80  1  0  0  0
 79 82  1  0  0  0
 79152  1  0  0  0
 79153  1  0  0  0
 80 83  1  0  0  0
 80154  1  0  0  0
 80155  1  0  0  0
 81156  1  0  0  0
 82157  1  0  0  0
 83158  1  0  0  0
 83159  1  0  0  0
M  CHG  1  83   1
M  ISO  4   1 100  68 101  81 101  82 100
M  END
> <chiral flag>
0

> <version>
0

> <s_m_source_file>
/data/baiqing/PycharmProjects/Reinvent-master-3.2/result/LINK_invent/BTK/process_docking_weight1_custom_sum_contain_oxygen_bond_distance_aromatic_linkinvent_7_9_3/rearranged_h_0127.sdf

> <i_m_source_file_index>
37

> <r_mmod_Potential_Energy-OPLS-2005>
-324.930206298828

> <r_mmod_Stretch_Energy-OPLS-2005>
35.767219543457

> <r_mmod_Bend_Energy-OPLS-2005>
86.0593414306641

> <r_mmod_Torsional_Energy-OPLS-2005>
222.359756469727

> <r_mmod_Improper_Torsional_Energy-OPLS-2005>
3.4945011138916

> <r_mmod_Van_der_Waal_Energy-OPLS-2005>
141.724746704102

> <r_mmod_Electrostatic_Energy-OPLS-2005>
-338.466522216797

> <r_mmod_Solvation_Energy-OPLS-2005>
-486.637817382812

> <b_mmod_Minimization_Converged-OPLS-2005>
0

> <r_mmod_RMS_Derivative-OPLS-2005>
1.42261850833893

$$$$
37
                    3D
 Structure written by MMmdl.
183192  0  0  1  0            999 V2000
  -30.7953  -14.3339   20.7092 C   0  0  0  0  0  0
  -30.4109  -12.2878   19.3870 C   0  0  0  0  0  0
  -29.4787  -12.5338   18.1887 C   0  0  0  0  0  0
  -28.0055  -12.3850   18.6087 C   0  0  0  0  0  0
  -27.6659  -13.2057   19.8800 C   0  0  2  0  0  0
  -28.7039  -12.9516   20.9959 C   0  0  0  0  0  0
  -25.2600  -13.8170   20.5681 C   0  0  0  0  0  0
  -24.1841  -13.0440   20.9170 C   0  0  0  0  0  0
  -24.6395  -11.6913   20.8730 C   0  0  0  0  0  0
  -23.9062  -10.4293   21.0403 C   0  0  0  0  0  0
  -24.3613   -9.4214   21.9182 C   0  0  0  0  0  0
  -23.6290   -8.2245   22.0752 C   0  0  0  0  0  0
  -22.4270   -8.0281   21.3543 C   0  0  0  0  0  0
  -21.9909   -9.0255   20.4646 C   0  0  0  0  0  0
  -22.7237  -10.2140   20.3054 C   0  0  0  0  0  0
  -21.6851   -6.0736   22.5279 C   0  0  0  0  0  0
  -21.4013   -6.5638   23.8211 C   0  0  0  0  0  0
  -21.3660   -5.6790   24.9173 C   0  0  0  0  0  0
  -21.6042   -4.3052   24.7223 C   0  0  0  0  0  0
  -21.8820   -3.8148   23.4341 C   0  0  0  0  0  0
  -21.9190   -4.6965   22.3399 C   0  0  0  0  0  0
  -22.7864  -13.5238   21.1833 C   0  0  0  0  0  0
  -22.1660   -4.2150   21.0978 F   0  0  0  0  0  0
  -21.5629   -3.4536   25.7736 F   0  0  0  0  0  0
  -30.0505  -13.2256   20.4607 N   0  0  0  0  0  0
  -26.3041  -12.9340   20.3387 N   0  0  0  0  0  0
  -25.9319  -11.6493   20.5756 N   0  0  0  0  0  0
  -22.0501  -12.8229   22.0392 N   0  0  0  0  0  0
  -25.4324  -15.1884   20.4087 N   0  0  0  0  0  0
  -31.7852  -14.6485   20.0390 O   0  0  0  0  0  0
  -21.6635   -6.8881   21.4239 O   0  0  0  0  0  0
  -22.3551  -14.5548   20.6689 O   0  0  0  0  0  0
  -24.6087  -31.8729   23.2116 C   0  0  0  0  0  0
  -25.9004  -32.4858   23.8397 C   0  0  1  0  0  0
  -27.2427  -27.4755   20.0878 C   0  0  0  0  0  0
  -25.5882  -33.8652   24.2325 N   0  0  0  0  0  0
  -23.3958  -30.4940   21.5526 C   0  0  2  0  0  0
  -24.8453  -28.9594   20.1224 C   0  0  0  0  0  0
  -22.7377  -29.4664   22.5001 C   0  0  0  0  0  0
  -18.0275  -28.1351   22.8494 C   0  0  0  0  0  0
  -24.1500  -36.7297   23.2647 C   0  0  0  0  0  0
  -25.9235  -30.8430   21.3698 C   0  0  0  0  0  0
  -26.0025  -29.4824   20.7152 C   0  0  0  0  0  0
  -27.2053  -28.7464   20.6968 C   0  0  0  0  0  0
  -26.0733  -26.9532   19.4983 C   0  0  0  0  0  0
  -24.8730  -27.6901   19.5162 C   0  0  0  0  0  0
  -23.6044  -29.8231   20.1693 C   0  0  0  0  0  0
  -25.4125  -36.3123   24.0347 C   0  0  1  0  0  0
  -20.5862  -28.3633   23.1332 C   0  0  2  0  0  0
  -20.6752  -26.9374   22.5435 C   0  0  0  0  0  0
  -19.5744  -26.6361   21.5203 C   0  0  0  0  0  0
  -18.1918  -26.7909   22.1609 C   0  0  0  0  0  0
  -19.1520  -28.8806   23.2929 C   0  0  0  0  0  0
  -18.9457  -30.1404   23.8957 C   0  0  0  0  0  0
  -17.6473  -30.6581   24.0555 C   0  0  0  0  0  0
  -25.9043  -34.9494   23.5133 C   0  0  0  0  0  0
  -16.5354  -29.9087   23.6315 C   0  0  0  0  0  0
  -16.7269  -28.6486   23.0363 C   0  0  0  0  0  0
  -26.4433  -31.6645   25.0730 C   0  0  0  0  0  0
  -25.3688  -31.3854   26.1498 C   0  0  0  0  0  0
  -27.0218  -30.3050   24.6117 C   0  0  0  0  0  0
  -27.6001  -32.4383   25.7493 C   0  0  0  0  0  0
  -27.5598  -37.1826   24.8463 C   0  0  0  0  0  0
  -21.4113  -29.3015   22.3743 N   0  0  0  0  0  0
  -26.4319  -37.3797   23.9400 N   0  0  0  0  0  0
  -24.6599  -31.0837   22.1021 N   0  0  0  0  0  0
  -23.4167  -28.8208   23.3035 O   0  0  0  0  0  0
  -28.4210  -26.7789   20.0131 O   0  0  0  0  0  0
  -26.5604  -34.8924   22.4691 O   0  0  0  0  0  0
  -23.5278  -32.1473   23.7521 O   0  0  0  0  0  0
  -32.0554  -22.8477   24.8716 C   0  0  0  0  0  0
  -32.4007  -22.7207   22.3723 C   0  0  0  0  0  0
  -30.7087  -23.5512   24.6565 C   0  0  0  0  0  0
  -31.0536  -23.4369   22.1537 C   0  0  0  0  0  0
  -32.4231  -16.2508   22.8124 C   0  0  0  0  0  0
  -30.4844  -17.4478   21.7001 C   0  0  0  0  0  0
  -31.5058  -15.0179   22.9454 C   0  0  0  0  0  0
  -29.6494  -16.1582   21.8696 C   0  0  0  0  0  0
  -32.4145  -21.9236   23.6955 C   0  0  1  0  0  0
  -30.6894  -24.3567   23.3417 C   0  0  1  0  0  0
  -31.6115  -17.5686   22.7554 C   0  0  0  0  0  0
  -35.7825  -20.2793   23.5119 C   0  0  0  0  0  0
  -29.3017  -26.0832   22.1408 C   0  0  0  0  0  0
  -33.6115  -18.9665   23.3836 C   0  0  0  0  0  0
  -28.5206  -25.6576   20.8857 C   0  0  0  0  0  0
  -34.2906  -20.3408   23.1501 C   0  0  1  0  0  0
  -30.5139  -14.9720   21.8659 N   0  0  0  0  0  0
  -33.7405  -21.4015   23.9964 N   0  0  0  0  0  0
  -29.3720  -25.0130   23.1651 N   0  3  0  0  0  0
  -32.4566  -18.7605   22.4818 N   0  3  0  0  0  0
  -31.4534  -12.3849   19.0786 H   0  0  0  0  0  0
  -30.3063  -11.2630   19.7464 H   0  0  0  0  0  0
  -29.7097  -11.8372   17.3814 H   0  0  0  0  0  0
  -29.6481  -13.5342   17.7875 H   0  0  0  0  0  0
  -27.8136  -11.3263   18.7876 H   0  0  0  0  0  0
  -27.3499  -12.6782   17.7879 H   0  0  0  0  0  0
  -27.7224  -14.2596   19.6066 H   0  0  0  0  0  0
  -28.6567  -11.9134   21.3282 H   0  0  0  0  0  0
  -28.4565  -13.5489   21.8741 H   0  0  0  0  0  0
  -25.2757   -9.5685   22.4758 H   0  0  0  0  0  0
  -23.9997   -7.4639   22.7471 H   0  0  0  0  0  0
  -21.0838   -8.8779   19.8951 H   0  0  0  0  0  0
  -22.3696  -10.9675   19.6163 H   0  0  0  0  0  0
  -21.2008   -7.6146   23.9718 H   0  0  0  0  0  0
  -21.1479   -6.0517   25.9077 H   0  0  0  0  0  0
  -22.0599   -2.7608   23.2842 H   0  0  0  0  0  0
  -22.4105  -11.9881   22.4772 H   0  0  0  0  0  0
  -21.1118  -13.1254   22.2590 H   0  0  0  0  0  0
  -24.6684  -15.8467   20.5164 H   0  0  0  0  0  0
  -26.2912  -15.6268   20.1000 H   0  0  0  0  0  0
  -26.7081  -32.5585   23.1172 H   0  0  0  0  0  0
  -25.0062  -33.9844   25.0478 H   0  0  0  0  0  0
  -22.6842  -31.3105   21.4133 H   0  0  0  0  0  0
  -23.3790  -35.9606   23.3322 H   0  0  0  0  0  0
  -24.3592  -36.8870   22.2057 H   0  0  0  0  0  0
  -23.7194  -37.6477   23.6658 H   0  0  0  0  0  0
  -26.0482  -31.6177   20.6119 H   0  0  0  0  0  0
  -26.8028  -30.8807   22.0011 H   0  0  0  0  0  0
  -28.1037  -29.1496   21.1440 H   0  0  0  0  0  0
  -26.1002  -25.9889   19.0105 H   0  0  0  0  0  0
  -23.9848  -27.2810   19.0522 H   0  0  0  0  0  0
  -23.7072  -30.5971   19.4089 H   0  0  0  0  0  0
  -22.7292  -29.2386   19.8776 H   0  0  0  0  0  0
  -25.1297  -36.2013   25.0844 H   0  0  0  0  0  0
  -20.9967  -28.3203   24.1440 H   0  0  0  0  0  0
  -20.5611  -26.2246   23.3621 H   0  0  0  0  0  0
  -21.6631  -26.7395   22.1261 H   0  0  0  0  0  0
  -19.6922  -25.6271   21.1231 H   0  0  0  0  0  0
  -19.6696  -27.3166   20.6735 H   0  0  0  0  0  0
  -17.4181  -26.6656   21.4017 H   0  0  0  0  0  0
  -18.0324  -26.0026   22.8984 H   0  0  0  0  0  0
  -19.7942  -30.7170   24.2379 H   0  0  0  0  0  0
  -17.5039  -31.6286   24.5113 H   0  0  0  0  0  0
  -15.5361  -30.3015   23.7593 H   0  0  0  0  0  0
  -15.8666  -28.0816   22.7083 H   0  0  0  0  0  0
  -24.5745  -30.7337   25.7850 H   0  0  0  0  0  0
  -24.9059  -32.3102   26.4977 H   0  0  0  0  0  0
  -25.7990  -30.8944   27.0234 H   0  0  0  0  0  0
  -26.2753  -29.6925   24.1048 H   0  0  0  0  0  0
  -27.3780  -29.7183   25.4593 H   0  0  0  0  0  0
  -27.8720  -30.4314   23.9401 H   0  0  0  0  0  0
  -27.2568  -33.3640   26.2134 H   0  0  0  0  0  0
  -28.3789  -32.7030   25.0336 H   0  0  0  0  0  0
  -28.0708  -31.8470   26.5353 H   0  0  0  0  0  0
  -28.2648  -38.0101   24.7491 H   0  0  0  0  0  0
  -28.1057  -36.2628   24.6318 H   0  0  0  0  0  0
  -27.2328  -37.1495   25.8870 H   0  0  0  0  0  0
  -20.9234  -29.8778   21.7028 H   0  0  0  0  0  0
  -26.0223  -38.2889   24.1370 H   0  0  0  0  0  0
  -32.0172  -22.2803   25.8032 H   0  0  0  0  0  0
  -32.8354  -23.6010   25.0011 H   0  0  0  0  0  0
  -33.2016  -23.4625   22.3750 H   0  0  0  0  0  0
  -32.5941  -22.0661   21.5228 H   0  0  0  0  0  0
  -30.5171  -24.2127   25.5030 H   0  0  0  0  0  0
  -29.9105  -22.8069   24.6602 H   0  0  0  0  0  0
  -30.2695  -22.6934   22.0059 H   0  0  0  0  0  0
  -31.1097  -24.0130   21.2302 H   0  0  0  0  0  0
  -33.0395  -16.1519   21.9179 H   0  0  0  0  0  0
  -33.1105  -16.2588   23.6588 H   0  0  0  0  0  0
  -29.8255  -18.3159   21.7525 H   0  0  0  0  0  0
  -30.9163  -17.4556   20.6979 H   0  0  0  0  0  0
  -30.9846  -15.0351   23.9036 H   0  0  0  0  0  0
  -32.1061  -14.1058   22.9482 H   0  0  0  0  0  0
  -28.9046  -16.0928   21.0739 H   0  0  0  0  0  0
  -29.0867  -16.1893   22.8038 H   0  0  0  0  0  0
  -31.6859  -21.1126   23.6614 H   0  0  0  0  0  0
  -31.4449  -25.1412   23.4243 H   0  0  0  0  0  0
  -31.1442  -17.7164   23.7310 H   0  0  0  0  0  0
  -36.3057  -19.5397   22.9046 H   0  0  0  0  0  0
  -35.9383  -20.0102   24.5580 H   0  0  0  0  0  0
  -36.2740  -21.2379   23.3399 H   0  0  0  0  0  0
  -28.7992  -26.9346   22.6000 H   0  0  0  0  0  0
  -30.2959  -26.4353   21.8616 H   0  0  0  0  0  0
  -33.3165  -18.8475   24.4274 H   0  0  0  0  0  0
  -34.3345  -18.1747   23.1783 H   0  0  0  0  0  0
  -27.5392  -25.2586   21.1493 H   0  0  0  0  0  0
  -29.0505  -24.8647   20.3580 H   0  0  0  0  0  0
  -34.2306  -20.6194   22.0975 H   0  0  0  0  0  0
  -33.7858  -21.1190   24.9724 H   0  0  0  0  0  0
  -29.1554  -25.4564   24.0447 H   0  0  0  0  0  0
  -28.6515  -24.3261   23.0046 H   0  0  0  0  0  0
  -31.8759  -19.5801   22.5461 H   0  0  0  0  0  0
  -32.8057  -18.7115   21.5375 H   0  0  0  0  0  0
  1 25  1  0  0  0
  1 30  2  0  0  0
  1 87  1  0  0  0
  2  3  1  0  0  0
  2 25  1  0  0  0
  2 91  1  0  0  0
  2 92  1  0  0  0
  3  4  1  0  0  0
  3 93  1  0  0  0
  3 94  1  0  0  0
  4  5  1  0  0  0
  4 95  1  0  0  0
  4 96  1  0  0  0
  5  6  1  0  0  0
  5 26  1  0  0  0
  5 97  1  0  0  0
  6 25  1  0  0  0
  6 98  1  0  0  0
  6 99  1  0  0  0
  7  8  2  0  0  0
  7 26  1  0  0  0
  7 29  1  0  0  0
  8  9  1  0  0  0
  8 22  1  0  0  0
  9 10  1  0  0  0
  9 27  2  0  0  0
 10 11  2  0  0  0
 10 15  1  0  0  0
 11 12  1  0  0  0
 11100  1  0  0  0
 12 13  2  0  0  0
 12101  1  0  0  0
 13 14  1  0  0  0
 13 31  1  0  0  0
 14 15  2  0  0  0
 14102  1  0  0  0
 15103  1  0  0  0
 16 17  2  0  0  0
 16 21  1  0  0  0
 16 31  1  0  0  0
 17 18  1  0  0  0
 17104  1  0  0  0
 18 19  2  0  0  0
 18105  1  0  0  0
 19 20  1  0  0  0
 19 24  1  0  0  0
 20 21  2  0  0  0
 20106  1  0  0  0
 21 23  1  0  0  0
 22 28  1  0  0  0
 22 32  2  0  0  0
 26 27  1  0  0  0
 28107  1  0  0  0
 28108  1  0  0  0
 29109  1  0  0  0
 29110  1  0  0  0
 33 34  1  0  0  0
 33 66  1  0  0  0
 33 70  2  0  0  0
 34 36  1  0  0  0
 34 59  1  0  0  0
 34111  1  0  0  0
 35 44  2  0  0  0
 35 45  1  0  0  0
 35 68  1  0  0  0
 36 56  1  0  0  0
 36112  1  0  0  0
 37 39  1  0  0  0
 37 47  1  0  0  0
 37 66  1  0  0  0
 37113  1  0  0  0
 38 43  2  0  0  0
 38 46  1  0  0  0
 38 47  1  0  0  0
 39 64  1  0  0  0
 39 67  2  0  0  0
 40 52  1  0  0  0
 40 53  2  0  0  0
 40 58  1  0  0  0
 41114  1  0  0  0
 41115  1  0  0  0
 41116  1  0  0  0
 41 48  1  0  0  0
 42 43  1  0  0  0
 42 66  1  0  0  0
 42117  1  0  0  0
 42118  1  0  0  0
 43 44  1  0  0  0
 44119  1  0  0  0
 45 46  2  0  0  0
 45120  1  0  0  0
 46121  1  0  0  0
 47122  1  0  0  0
 47123  1  0  0  0
 48 56  1  0  0  0
 48 65  1  0  0  0
 48124  1  0  0  0
 49 50  1  0  0  0
 49 53  1  0  0  0
 49 64  1  0  0  0
 49125  1  0  0  0
 50 51  1  0  0  0
 50126  1  0  0  0
 50127  1  0  0  0
 51 52  1  0  0  0
 51128  1  0  0  0
 51129  1  0  0  0
 52130  1  0  0  0
 52131  1  0  0  0
 53 54  1  0  0  0
 54 55  2  0  0  0
 54132  1  0  0  0
 55 57  1  0  0  0
 55133  1  0  0  0
 56 69  2  0  0  0
 57 58  2  0  0  0
 57134  1  0  0  0
 58135  1  0  0  0
 59 60  1  0  0  0
 59 61  1  0  0  0
 59 62  1  0  0  0
 60136  1  0  0  0
 60137  1  0  0  0
 60138  1  0  0  0
 61139  1  0  0  0
 61140  1  0  0  0
 61141  1  0  0  0
 62142  1  0  0  0
 62143  1  0  0  0
 62144  1  0  0  0
 63 65  1  0  0  0
 63145  1  0  0  0
 63146  1  0  0  0
 63147  1  0  0  0
 64148  1  0  0  0
 65149  1  0  0  0
 68 85  1  0  0  0
 71 73  1  0  0  0
 71 79  1  0  0  0
 71150  1  0  0  0
 71151  1  0  0  0
 72 74  1  0  0  0
 72 79  1  0  0  0
 72152  1  0  0  0
 72153  1  0  0  0
 73 80  1  0  0  0
 73154  1  0  0  0
 73155  1  0  0  0
 74 80  1  0  0  0
 74156  1  0  0  0
 74157  1  0  0  0
 75 77  1  0  0  0
 75 81  1  0  0  0
 75158  1  0  0  0
 75159  1  0  0  0
 76 78  1  0  0  0
 76 81  1  0  0  0
 76160  1  0  0  0
 76161  1  0  0  0
 77 87  1  0  0  0
 77162  1  0  0  0
 77163  1  0  0  0
 78 87  1  0  0  0
 78164  1  0  0  0
 78165  1  0  0  0
 79 88  1  0  0  0
 79166  1  0  0  0
 80 89  1  0  0  0
 80167  1  0  0  0
 81 90  1  0  0  0
 81168  1  0  0  0
 82169  1  0  0  0
 82170  1  0  0  0
 82171  1  0  0  0
 82 86  1  0  0  0
 83 85  1  0  0  0
 83 89  1  0  0  0
 83172  1  0  0  0
 83173  1  0  0  0
 84 86  1  0  0  0
 84 90  1  0  0  0
 84174  1  0  0  0
 84175  1  0  0  0
 85176  1  0  0  0
 85177  1  0  0  0
 86 88  1  0  0  0
 86178  1  0  0  0
 88179  1  0  0  0
 89180  1  0  0  0
 89181  1  0  0  0
 90182  1  0  0  0
 90183  1  0  0  0
M  CHG  2  89   1  90   1
M  ISO  4   1 100  68 101  85 101  87 100
M  END
> <chiral flag>
0

> <version>
0

> <s_m_source_file>
/data/baiqing/PycharmProjects/Reinvent-master-3.2/result/LINK_invent/BTK/process_docking_weight1_custom_sum_contain_oxygen_bond_distance_aromatic_linkinvent_7_9_3/rearranged_h_0127.sdf

> <i_m_source_file_index>
38

> <r_mmod_Potential_Energy-OPLS-2005>
-137.02864074707

> <r_mmod_Stretch_Energy-OPLS-2005>
34.5966339111328

> <r_mmod_Bend_Energy-OPLS-2005>
106.696914672852

> <r_mmod_Torsional_Energy-OPLS-2005>
368.37744140625

> <r_mmod_Improper_Torsional_Energy-OPLS-2005>
6.50700378417969

> <r_mmod_Van_der_Waal_Energy-OPLS-2005>
134.478851318359

> <r_mmod_Electrostatic_Energy-OPLS-2005>
68.1908264160156

> <r_mmod_Solvation_Energy-OPLS-2005>
-862.706237792969

> <b_mmod_Minimization_Converged-OPLS-2005>
0

> <r_mmod_RMS_Derivative-OPLS-2005>
1.98010456562042

$$$$
38
                    3D
 Structure written by MMmdl.
162171  0  0  1  0            999 V2000
  -30.7136  -14.4458   20.6176 C   0  0  0  0  0  0
  -30.4202  -12.3121   19.4073 C   0  0  0  0  0  0
  -29.4891  -12.5176   18.1967 C   0  0  0  0  0  0
  -28.0109  -12.3757   18.6109 C   0  0  0  0  0  0
  -27.6613  -13.2055   19.8753 C   0  0  2  0  0  0
  -28.7013  -12.9693   20.9911 C   0  0  0  0  0  0
  -25.2587  -13.8160   20.5680 C   0  0  0  0  0  0
  -24.1835  -13.0440   20.9176 C   0  0  0  0  0  0
  -24.6377  -11.6904   20.8716 C   0  0  0  0  0  0
  -23.9039  -10.4295   21.0383 C   0  0  0  0  0  0
  -24.3599   -9.4219   21.9166 C   0  0  0  0  0  0
  -23.6291   -8.2246   22.0735 C   0  0  0  0  0  0
  -22.4274   -8.0276   21.3530 C   0  0  0  0  0  0
  -21.9897   -9.0246   20.4632 C   0  0  0  0  0  0
  -22.7210  -10.2134   20.3038 C   0  0  0  0  0  0
  -21.6861   -6.0733   22.5274 C   0  0  0  0  0  0
  -21.4017   -6.5636   23.8207 C   0  0  0  0  0  0
  -21.3656   -5.6787   24.9170 C   0  0  0  0  0  0
  -21.6045   -4.3052   24.7216 C   0  0  0  0  0  0
  -21.8821   -3.8143   23.4337 C   0  0  0  0  0  0
  -21.9195   -4.6961   22.3397 C   0  0  0  0  0  0
  -22.7857  -13.5241   21.1853 C   0  0  0  0  0  0
  -22.1665   -4.2142   21.0977 F   0  0  0  0  0  0
  -21.5632   -3.4535   25.7729 F   0  0  0  0  0  0
  -30.0324  -13.2818   20.4422 N   0  0  0  0  0  0
  -26.3016  -12.9318   20.3361 N   0  0  0  0  0  0
  -25.9304  -11.6474   20.5743 N   0  0  0  0  0  0
  -22.0498  -12.8227   22.0405 N   0  0  0  0  0  0
  -25.4332  -15.1876   20.4108 N   0  0  0  0  0  0
  -31.8146  -14.6619   20.1018 O   0  0  0  0  0  0
  -21.6642   -6.8874   21.4232 O   0  0  0  0  0  0
  -22.3544  -14.5547   20.6705 O   0  0  0  0  0  0
  -24.6142  -31.8685   23.2103 C   0  0  0  0  0  0
  -25.9034  -32.4826   23.8395 C   0  0  1  0  0  0
  -27.2249  -27.4219   20.1010 C   0  0  0  0  0  0
  -25.5896  -33.8624   24.2328 N   0  0  0  0  0  0
  -23.4020  -30.4922   21.5523 C   0  0  2  0  0  0
  -24.8461  -28.9554   20.1182 C   0  0  0  0  0  0
  -22.7409  -29.4663   22.5005 C   0  0  0  0  0  0
  -18.0271  -28.1368   22.8499 C   0  0  0  0  0  0
  -24.1489  -36.7317   23.2639 C   0  0  0  0  0  0
  -25.9321  -30.8299   21.3649 C   0  0  0  0  0  0
  -26.0077  -29.4631   20.7134 C   0  0  0  0  0  0
  -27.2017  -28.7051   20.6979 C   0  0  0  0  0  0
  -26.0468  -26.9348   19.4925 C   0  0  0  0  0  0
  -24.8614  -27.6924   19.5039 C   0  0  0  0  0  0
  -23.6099  -29.8246   20.1669 C   0  0  0  0  0  0
  -25.4110  -36.3115   24.0335 C   0  0  1  0  0  0
  -20.5861  -28.3654   23.1332 C   0  0  2  0  0  0
  -20.6762  -26.9394   22.5422 C   0  0  0  0  0  0
  -19.5742  -26.6385   21.5216 C   0  0  0  0  0  0
  -18.1920  -26.7920   22.1623 C   0  0  0  0  0  0
  -19.1518  -28.8828   23.2912 C   0  0  0  0  0  0
  -18.9442  -30.1437   23.8919 C   0  0  0  0  0  0
  -17.6444  -30.6581   24.0560 C   0  0  0  0  0  0
  -25.9036  -34.9478   23.5128 C   0  0  0  0  0  0
  -16.5337  -29.9082   23.6318 C   0  0  0  0  0  0
  -16.7260  -28.6494   23.0353 C   0  0  0  0  0  0
  -26.4461  -31.6604   25.0724 C   0  0  0  0  0  0
  -25.3733  -31.3701   26.1479 C   0  0  0  0  0  0
  -27.0284  -30.3048   24.6086 C   0  0  0  0  0  0
  -27.6046  -32.4319   25.7479 C   0  0  0  0  0  0
  -27.5584  -37.1816   24.8462 C   0  0  0  0  0  0
  -21.4138  -29.3026   22.3742 N   0  0  0  0  0  0
  -26.4297  -37.3798   23.9406 N   0  0  0  0  0  0
  -24.6681  -31.0777   22.1011 N   0  0  0  0  0  0
  -23.4186  -28.8201   23.3038 O   0  0  0  0  0  0
  -28.3964  -26.6936   20.0767 O   0  0  0  0  0  0
  -26.5598  -34.8926   22.4690 O   0  0  0  0  0  0
  -23.5333  -32.1439   23.7492 O   0  0  0  0  0  0
  -28.7667  -22.1503   20.3902 C   0  0  0  0  0  0
  -28.9514  -20.8082   20.8092 C   0  0  0  0  0  0
  -31.1841  -21.3661   21.5671 C   0  0  0  0  0  0
  -29.7903  -23.1193   20.5470 C   0  0  0  0  0  0
  -31.0168  -22.6946   21.1226 C   0  0  0  0  0  0
  -30.1645  -20.4075   21.4136 C   0  0  0  0  0  0
  -32.1836  -23.6575   21.2510 C   0  0  0  0  0  0
  -32.0922  -24.7835   20.2190 C   0  0  0  0  0  0
  -29.6192  -24.5726   20.0201 C   0  0  1  0  0  0
  -28.3278  -25.3046   20.4711 C   0  0  0  0  0  0
  -29.8758  -17.9078   21.2687 C   0  0  0  0  0  0
  -30.6414  -16.6645   21.7869 C   0  0  0  0  0  0
  -30.4155  -19.1119   21.8977 N   0  0  0  0  0  0
  -30.0825  -15.3829   21.3447 N   0  0  0  0  0  0
  -30.7816  -25.4415   20.3331 N   0  3  0  0  0  0
  -31.4635  -12.4187   19.1048 H   0  0  0  0  0  0
  -30.3250  -11.2954   19.7921 H   0  0  0  0  0  0
  -29.7298  -11.7965   17.4141 H   0  0  0  0  0  0
  -29.6560  -13.5065   17.7664 H   0  0  0  0  0  0
  -27.8206  -11.3186   18.7982 H   0  0  0  0  0  0
  -27.3579  -12.6603   17.7842 H   0  0  0  0  0  0
  -27.7124  -14.2571   19.5915 H   0  0  0  0  0  0
  -28.6787  -11.9281   21.3152 H   0  0  0  0  0  0
  -28.4542  -13.5504   21.8797 H   0  0  0  0  0  0
  -25.2738   -9.5720   22.4741 H   0  0  0  0  0  0
  -24.0012   -7.4641   22.7455 H   0  0  0  0  0  0
  -21.0827   -8.8752   19.8947 H   0  0  0  0  0  0
  -22.3645  -10.9670   19.6155 H   0  0  0  0  0  0
  -21.2004   -7.6142   23.9710 H   0  0  0  0  0  0
  -21.1482   -6.0515   25.9076 H   0  0  0  0  0  0
  -22.0602   -2.7603   23.2835 H   0  0  0  0  0  0
  -22.4114  -11.9887   22.4790 H   0  0  0  0  0  0
  -21.1117  -13.1249   22.2612 H   0  0  0  0  0  0
  -24.6701  -15.8471   20.5190 H   0  0  0  0  0  0
  -26.2914  -15.6234   20.0954 H   0  0  0  0  0  0
  -26.7110  -32.5531   23.1162 H   0  0  0  0  0  0
  -25.0046  -33.9786   25.0474 H   0  0  0  0  0  0
  -22.6907  -31.3090   21.4144 H   0  0  0  0  0  0
  -23.3747  -35.9655   23.3311 H   0  0  0  0  0  0
  -24.3586  -36.8919   22.2052 H   0  0  0  0  0  0
  -23.7239  -37.6524   23.6647 H   0  0  0  0  0  0
  -26.0440  -31.5952   20.5953 H   0  0  0  0  0  0
  -26.8203  -30.8836   21.9826 H   0  0  0  0  0  0
  -28.1006  -29.0954   21.1549 H   0  0  0  0  0  0
  -26.0305  -25.9813   18.9855 H   0  0  0  0  0  0
  -23.9704  -27.3021   19.0319 H   0  0  0  0  0  0
  -23.7202  -30.5995   19.4076 H   0  0  0  0  0  0
  -22.7327  -29.2459   19.8709 H   0  0  0  0  0  0
  -25.1288  -36.1984   25.0828 H   0  0  0  0  0  0
  -20.9948  -28.3210   24.1454 H   0  0  0  0  0  0
  -20.5676  -26.2253   23.3600 H   0  0  0  0  0  0
  -21.6632  -26.7451   22.1205 H   0  0  0  0  0  0
  -19.6902  -25.6302   21.1228 H   0  0  0  0  0  0
  -19.6685  -27.3207   20.6756 H   0  0  0  0  0  0
  -17.4196  -26.6682   21.4019 H   0  0  0  0  0  0
  -18.0314  -26.0053   22.9009 H   0  0  0  0  0  0
  -19.7918  -30.7244   24.2305 H   0  0  0  0  0  0
  -17.4999  -31.6264   24.5153 H   0  0  0  0  0  0
  -15.5336  -30.2986   23.7631 H   0  0  0  0  0  0
  -15.8663  -28.0813   22.7063 H   0  0  0  0  0  0
  -24.5904  -30.7049   25.7815 H   0  0  0  0  0  0
  -24.8921  -32.2851   26.4947 H   0  0  0  0  0  0
  -25.8094  -30.8859   27.0227 H   0  0  0  0  0  0
  -26.2819  -29.6827   24.1135 H   0  0  0  0  0  0
  -27.4053  -29.7265   25.4530 H   0  0  0  0  0  0
  -27.8657  -30.4371   23.9228 H   0  0  0  0  0  0
  -27.2670  -33.3606   26.2093 H   0  0  0  0  0  0
  -28.3833  -32.6902   25.0290 H   0  0  0  0  0  0
  -28.0744  -31.8422   26.5362 H   0  0  0  0  0  0
  -28.2606  -38.0109   24.7508 H   0  0  0  0  0  0
  -28.1074  -36.2640   24.6292 H   0  0  0  0  0  0
  -27.2302  -37.1468   25.8864 H   0  0  0  0  0  0
  -20.9297  -29.8745   21.6964 H   0  0  0  0  0  0
  -26.0188  -38.2878   24.1403 H   0  0  0  0  0  0
  -27.8276  -22.4207   19.9278 H   0  0  0  0  0  0
  -28.1460  -20.0997   20.6763 H   0  0  0  0  0  0
  -32.1246  -21.0799   22.0181 H   0  0  0  0  0  0
  -33.1243  -23.1206   21.1211 H   0  0  0  0  0  0
  -32.1934  -24.0667   22.2620 H   0  0  0  0  0  0
  -32.2168  -24.3929   19.2083 H   0  0  0  0  0  0
  -32.8875  -25.5123   20.3796 H   0  0  0  0  0  0
  -29.5848  -24.4890   18.9330 H   0  0  0  0  0  0
  -28.2352  -25.2653   21.5577 H   0  0  0  0  0  0
  -27.4610  -24.7850   20.0661 H   0  0  0  0  0  0
  -28.8132  -17.8249   21.5016 H   0  0  0  0  0  0
  -29.9650  -17.9830   20.1837 H   0  0  0  0  0  0
  -30.6146  -16.6521   22.8776 H   0  0  0  0  0  0
  -31.6975  -16.7417   21.5195 H   0  0  0  0  0  0
  -31.3087  -18.9850   22.3668 H   0  0  0  0  0  0
  -29.1658  -15.1401   21.6901 H   0  0  0  0  0  0
  -30.7519  -26.2415   19.7199 H   0  0  0  0  0  0
  -30.6829  -25.7887   21.2728 H   0  0  0  0  0  0
  1 25  1  0  0  0
  1 30  2  0  0  0
  1 84  1  0  0  0
  2  3  1  0  0  0
  2 25  1  0  0  0
  2 86  1  0  0  0
  2 87  1  0  0  0
  3  4  1  0  0  0
  3 88  1  0  0  0
  3 89  1  0  0  0
  4  5  1  0  0  0
  4 90  1  0  0  0
  4 91  1  0  0  0
  5  6  1  0  0  0
  5 26  1  0  0  0
  5 92  1  0  0  0
  6 25  1  0  0  0
  6 93  1  0  0  0
  6 94  1  0  0  0
  7  8  2  0  0  0
  7 26  1  0  0  0
  7 29  1  0  0  0
  8  9  1  0  0  0
  8 22  1  0  0  0
  9 10  1  0  0  0
  9 27  2  0  0  0
 10 11  2  0  0  0
 10 15  1  0  0  0
 11 12  1  0  0  0
 11 95  1  0  0  0
 12 13  2  0  0  0
 12 96  1  0  0  0
 13 14  1  0  0  0
 13 31  1  0  0  0
 14 15  2  0  0  0
 14 97  1  0  0  0
 15 98  1  0  0  0
 16 17  2  0  0  0
 16 21  1  0  0  0
 16 31  1  0  0  0
 17 18  1  0  0  0
 17 99  1  0  0  0
 18 19  2  0  0  0
 18100  1  0  0  0
 19 20  1  0  0  0
 19 24  1  0  0  0
 20 21  2  0  0  0
 20101  1  0  0  0
 21 23  1  0  0  0
 22 28  1  0  0  0
 22 32  2  0  0  0
 26 27  1  0  0  0
 28102  1  0  0  0
 28103  1  0  0  0
 29104  1  0  0  0
 29105  1  0  0  0
 33 34  1  0  0  0
 33 66  1  0  0  0
 33 70  2  0  0  0
 34 36  1  0  0  0
 34 59  1  0  0  0
 34106  1  0  0  0
 35 44  2  0  0  0
 35 45  1  0  0  0
 35 68  1  0  0  0
 36 56  1  0  0  0
 36107  1  0  0  0
 37 39  1  0  0  0
 37 47  1  0  0  0
 37 66  1  0  0  0
 37108  1  0  0  0
 38 43  2  0  0  0
 38 46  1  0  0  0
 38 47  1  0  0  0
 39 64  1  0  0  0
 39 67  2  0  0  0
 40 52  1  0  0  0
 40 53  2  0  0  0
 40 58  1  0  0  0
 41109  1  0  0  0
 41110  1  0  0  0
 41111  1  0  0  0
 41 48  1  0  0  0
 42 43  1  0  0  0
 42 66  1  0  0  0
 42112  1  0  0  0
 42113  1  0  0  0
 43 44  1  0  0  0
 44114  1  0  0  0
 45 46  2  0  0  0
 45115  1  0  0  0
 46116  1  0  0  0
 47117  1  0  0  0
 47118  1  0  0  0
 48 56  1  0  0  0
 48 65  1  0  0  0
 48119  1  0  0  0
 49 50  1  0  0  0
 49 53  1  0  0  0
 49 64  1  0  0  0
 49120  1  0  0  0
 50 51  1  0  0  0
 50121  1  0  0  0
 50122  1  0  0  0
 51 52  1  0  0  0
 51123  1  0  0  0
 51124  1  0  0  0
 52125  1  0  0  0
 52126  1  0  0  0
 53 54  1  0  0  0
 54 55  2  0  0  0
 54127  1  0  0  0
 55 57  1  0  0  0
 55128  1  0  0  0
 56 69  2  0  0  0
 57 58  2  0  0  0
 57129  1  0  0  0
 58130  1  0  0  0
 59 60  1  0  0  0
 59 61  1  0  0  0
 59 62  1  0  0  0
 60131  1  0  0  0
 60132  1  0  0  0
 60133  1  0  0  0
 61134  1  0  0  0
 61135  1  0  0  0
 61136  1  0  0  0
 62137  1  0  0  0
 62138  1  0  0  0
 62139  1  0  0  0
 63 65  1  0  0  0
 63140  1  0  0  0
 63141  1  0  0  0
 63142  1  0  0  0
 64143  1  0  0  0
 65144  1  0  0  0
 68 80  1  0  0  0
 71 72  2  0  0  0
 71 74  1  0  0  0
 71145  1  0  0  0
 72 76  1  0  0  0
 72146  1  0  0  0
 73 75  1  0  0  0
 73 76  2  0  0  0
 73147  1  0  0  0
 74 75  2  0  0  0
 74 79  1  0  0  0
 75 77  1  0  0  0
 76 83  1  0  0  0
 77 78  1  0  0  0
 77148  1  0  0  0
 77149  1  0  0  0
 78 85  1  0  0  0
 78150  1  0  0  0
 78151  1  0  0  0
 79 80  1  0  0  0
 79 85  1  0  0  0
 79152  1  0  0  0
 80153  1  0  0  0
 80154  1  0  0  0
 81 82  1  0  0  0
 81 83  1  0  0  0
 81155  1  0  0  0
 81156  1  0  0  0
 82 84  1  0  0  0
 82157  1  0  0  0
 82158  1  0  0  0
 83159  1  0  0  0
 84160  1  0  0  0
 85161  1  0  0  0
 85162  1  0  0  0
M  CHG  1  85   1
M  ISO  4   1 100  68 101  80 101  84 100
M  END
> <chiral flag>
0

> <version>
0

> <s_m_source_file>
/data/baiqing/PycharmProjects/Reinvent-master-3.2/result/LINK_invent/BTK/process_docking_weight1_custom_sum_contain_oxygen_bond_distance_aromatic_linkinvent_7_9_3/rearranged_h_0127.sdf

> <i_m_source_file_index>
39

> <r_mmod_Potential_Energy-OPLS-2005>
-291.525817871094

> <r_mmod_Stretch_Energy-OPLS-2005>
39.4181365966797

> <r_mmod_Bend_Energy-OPLS-2005>
106.079460144043

> <r_mmod_Torsional_Energy-OPLS-2005>
227.810272216797

> <r_mmod_Improper_Torsional_Energy-OPLS-2005>
4.43186902999878

> <r_mmod_Van_der_Waal_Energy-OPLS-2005>
159.564300537109

> <r_mmod_Electrostatic_Energy-OPLS-2005>
-379.977172851562

> <r_mmod_Solvation_Energy-OPLS-2005>
-459.654876708984

> <b_mmod_Minimization_Converged-OPLS-2005>
0

> <r_mmod_RMS_Derivative-OPLS-2005>
1.20243072509766

$$$$
39
                    3D
 Structure written by MMmdl.
156165  0  0  1  0            999 V2000
  -30.5709  -14.8759   20.4536 C   0  0  0  0  0  0
  -30.4481  -12.5475   19.4899 C   0  0  0  0  0  0
  -29.5236  -12.5136   18.2523 C   0  0  0  0  0  0
  -28.0574  -12.3022   18.6719 C   0  0  0  0  0  0
  -27.6379  -13.2358   19.8383 C   0  0  2  0  0  0
  -28.6782  -13.2351   20.9785 C   0  0  0  0  0  0
  -25.2519  -13.8207   20.5664 C   0  0  0  0  0  0
  -24.1812  -13.0470   20.9206 C   0  0  0  0  0  0
  -24.6393  -11.6935   20.8740 C   0  0  0  0  0  0
  -23.9077  -10.4305   21.0398 C   0  0  0  0  0  0
  -24.3635   -9.4228   21.9174 C   0  0  0  0  0  0
  -23.6311   -8.2260   22.0737 C   0  0  0  0  0  0
  -22.4295   -8.0288   21.3531 C   0  0  0  0  0  0
  -21.9927   -9.0266   20.4643 C   0  0  0  0  0  0
  -22.7252  -10.2149   20.3048 C   0  0  0  0  0  0
  -21.6855   -6.0741   22.5275 C   0  0  0  0  0  0
  -21.4030   -6.5642   23.8212 C   0  0  0  0  0  0
  -21.3661   -5.6792   24.9178 C   0  0  0  0  0  0
  -21.6033   -4.3049   24.7216 C   0  0  0  0  0  0
  -21.8826   -3.8142   23.4340 C   0  0  0  0  0  0
  -21.9205   -4.6966   22.3402 C   0  0  0  0  0  0
  -22.7838  -13.5256   21.1862 C   0  0  0  0  0  0
  -22.1659   -4.2158   21.0978 F   0  0  0  0  0  0
  -21.5626   -3.4536   25.7737 F   0  0  0  0  0  0
  -29.9654  -13.6291   20.3901 N   0  0  0  0  0  0
  -26.2936  -12.9415   20.3215 N   0  0  0  0  0  0
  -25.9325  -11.6563   20.5721 N   0  0  0  0  0  0
  -22.0437  -12.8269   22.0397 N   0  0  0  0  0  0
  -25.4222  -15.1928   20.4051 N   0  0  0  0  0  0
  -31.7689  -14.9600   20.1691 O   0  0  0  0  0  0
  -21.6634   -6.8892   21.4240 O   0  0  0  0  0  0
  -22.3535  -14.5551   20.6666 O   0  0  0  0  0  0
  -24.6390  -31.8494   23.1931 C   0  0  0  0  0  0
  -25.9189  -32.4725   23.8303 C   0  0  1  0  0  0
  -27.2113  -27.1765   20.1617 C   0  0  0  0  0  0
  -25.5950  -33.8525   24.2230 N   0  0  0  0  0  0
  -23.4399  -30.4711   21.5370 C   0  0  2  0  0  0
  -24.8920  -28.9090   20.1095 C   0  0  0  0  0  0
  -22.7544  -29.4581   22.4869 C   0  0  0  0  0  0
  -18.0299  -28.1407   22.8489 C   0  0  0  0  0  0
  -24.1486  -36.7261   23.2640 C   0  0  0  0  0  0
  -25.9934  -30.7381   21.3867 C   0  0  0  0  0  0
  -26.0677  -29.3516   20.7320 C   0  0  0  0  0  0
  -27.2319  -28.5003   20.7458 C   0  0  0  0  0  0
  -26.0244  -26.8407   19.4750 C   0  0  0  0  0  0
  -24.8823  -27.6657   19.4619 C   0  0  0  0  0  0
  -23.6652  -29.8050   20.1545 C   0  0  0  0  0  0
  -25.4115  -36.3049   24.0323 C   0  0  1  0  0  0
  -20.5913  -28.3730   23.1246 C   0  0  2  0  0  0
  -20.6781  -26.9443   22.5409 C   0  0  0  0  0  0
  -19.5757  -26.6404   21.5212 C   0  0  0  0  0  0
  -18.1937  -26.7952   22.1629 C   0  0  0  0  0  0
  -19.1555  -28.8886   23.2862 C   0  0  0  0  0  0
  -18.9476  -30.1476   23.8901 C   0  0  0  0  0  0
  -17.6474  -30.6605   24.0566 C   0  0  0  0  0  0
  -25.9068  -34.9422   23.5091 C   0  0  0  0  0  0
  -16.5362  -29.9103   23.6341 C   0  0  0  0  0  0
  -16.7284  -28.6516   23.0373 C   0  0  0  0  0  0
  -26.4539  -31.6565   25.0716 C   0  0  0  0  0  0
  -25.3742  -31.3745   26.1425 C   0  0  0  0  0  0
  -27.0382  -30.2958   24.6250 C   0  0  0  0  0  0
  -27.6081  -32.4324   25.7489 C   0  0  0  0  0  0
  -27.5575  -37.1785   24.8473 C   0  0  0  0  0  0
  -21.4243  -29.3062   22.3617 N   0  0  0  0  0  0
  -26.4281  -37.3755   23.9427 N   0  0  0  0  0  0
  -24.7101  -31.0389   22.0944 N   0  0  0  0  0  0
  -23.4209  -28.8141   23.3010 O   0  0  0  0  0  0
  -28.2276  -26.1664   20.2285 O   0  0  0  0  0  0
  -26.5641  -34.8906   22.4664 O   0  0  0  0  0  0
  -23.5523  -32.1343   23.7192 O   0  0  0  0  0  0
  -29.5252  -22.7782   19.9470 C   0  0  0  0  0  0
  -27.9582  -20.9757   21.2421 C   0  0  0  0  0  0
  -29.8456  -21.3522   19.8757 C   0  0  0  0  0  0
  -29.0212  -20.3554   20.5208 C   0  0  0  0  0  0
  -28.3886  -23.2876   20.6502 C   0  0  0  0  0  0
  -32.3974  -21.5899   19.3486 C   0  0  0  0  0  0
  -31.7143  -21.7112   18.0059 C   0  0  0  0  0  0
  -31.0694  -20.9073   19.1137 C   0  0  0  0  0  0
  -29.0150  -18.7200   20.3118 C   0  0  0  0  0  0
  -27.8054  -24.8168   20.8371 C   0  0  0  0  0  0
  -30.1368  -17.5619   20.7059 C   0  0  0  0  0  0
  -27.6671  -22.3218   21.2999 N   0  0  0  0  0  0
  -29.7893  -16.0339   20.6418 N   0  0  0  0  0  0
  -31.4792  -12.7073   19.1717 H   0  0  0  0  0  0
  -30.4384  -11.5897   20.0102 H   0  0  0  0  0  0
  -29.8373  -11.7203   17.5714 H   0  0  0  0  0  0
  -29.6186  -13.4495   17.7002 H   0  0  0  0  0  0
  -27.9581  -11.2608   18.9838 H   0  0  0  0  0  0
  -27.3916  -12.4232   17.8171 H   0  0  0  0  0  0
  -27.6133  -14.2437   19.4221 H   0  0  0  0  0  0
  -28.7498  -12.2518   21.4486 H   0  0  0  0  0  0
  -28.3804  -13.9330   21.7623 H   0  0  0  0  0  0
  -25.2771   -9.5718   22.4762 H   0  0  0  0  0  0
  -24.0011   -7.4661   22.7466 H   0  0  0  0  0  0
  -21.0840   -8.8801   19.8968 H   0  0  0  0  0  0
  -22.3689  -10.9695   19.6166 H   0  0  0  0  0  0
  -21.2015   -7.6149   23.9735 H   0  0  0  0  0  0
  -21.1472   -6.0498   25.9081 H   0  0  0  0  0  0
  -22.0599   -2.7601   23.2826 H   0  0  0  0  0  0
  -22.4033  -11.9963   22.4889 H   0  0  0  0  0  0
  -21.1053  -13.1311   22.2542 H   0  0  0  0  0  0
  -24.6508  -15.8435   20.5096 H   0  0  0  0  0  0
  -26.2551  -15.6231   20.0248 H   0  0  0  0  0  0
  -26.7254  -32.5359   23.1032 H   0  0  0  0  0  0
  -25.0084  -33.9643   25.0365 H   0  0  0  0  0  0
  -22.7403  -31.2959   21.3851 H   0  0  0  0  0  0
  -23.3751  -35.9593   23.3308 H   0  0  0  0  0  0
  -24.3570  -36.8881   22.2057 H   0  0  0  0  0  0
  -23.7241  -37.6460   23.6660 H   0  0  0  0  0  0
  -26.1405  -31.4953   20.6146 H   0  0  0  0  0  0
  -26.8669  -30.7900   22.0253 H   0  0  0  0  0  0
  -28.1251  -28.8301   21.2588 H   0  0  0  0  0  0
  -25.9601  -25.8921   18.9613 H   0  0  0  0  0  0
  -23.9913  -27.3252   18.9519 H   0  0  0  0  0  0
  -23.7991  -30.5801   19.3988 H   0  0  0  0  0  0
  -22.7816  -29.2446   19.8449 H   0  0  0  0  0  0
  -25.1302  -36.1882   25.0811 H   0  0  0  0  0  0
  -20.9997  -28.3321   24.1365 H   0  0  0  0  0  0
  -20.5675  -26.2354   23.3623 H   0  0  0  0  0  0
  -21.6652  -26.7459   22.1210 H   0  0  0  0  0  0
  -19.6922  -25.6311   21.1255 H   0  0  0  0  0  0
  -19.6689  -27.3206   20.6729 H   0  0  0  0  0  0
  -17.4207  -26.6702   21.4027 H   0  0  0  0  0  0
  -18.0335  -26.0087   22.9021 H   0  0  0  0  0  0
  -19.7946  -30.7286   24.2282 H   0  0  0  0  0  0
  -17.5028  -31.6287   24.5178 H   0  0  0  0  0  0
  -15.5367  -30.3015   23.7655 H   0  0  0  0  0  0
  -15.8673  -28.0820   22.7117 H   0  0  0  0  0  0
  -24.5937  -30.7060   25.7772 H   0  0  0  0  0  0
  -24.8904  -32.2914   26.4784 H   0  0  0  0  0  0
  -25.8045  -30.8986   27.0240 H   0  0  0  0  0  0
  -26.2970  -29.6694   24.1263 H   0  0  0  0  0  0
  -27.4018  -29.7240   25.4798 H   0  0  0  0  0  0
  -27.8878  -30.4203   23.9534 H   0  0  0  0  0  0
  -27.2686  -33.3657   26.1985 H   0  0  0  0  0  0
  -28.3918  -32.6826   25.0329 H   0  0  0  0  0  0
  -28.0700  -31.8494   26.5462 H   0  0  0  0  0  0
  -28.2605  -38.0065   24.7503 H   0  0  0  0  0  0
  -28.1055  -36.2604   24.6317 H   0  0  0  0  0  0
  -27.2295  -37.1457   25.8871 H   0  0  0  0  0  0
  -20.9447  -29.8765   21.6793 H   0  0  0  0  0  0
  -26.0159  -38.2830   24.1413 H   0  0  0  0  0  0
  -30.1570  -23.4978   19.4453 H   0  0  0  0  0  0
  -27.2498  -20.3526   21.7684 H   0  0  0  0  0  0
  -32.4139  -22.4739   19.9862 H   0  0  0  0  0  0
  -33.2856  -20.9625   19.4002 H   0  0  0  0  0  0
  -32.1775  -21.1674   17.1853 H   0  0  0  0  0  0
  -31.2866  -22.6731   17.7333 H   0  0  0  0  0  0
  -31.0791  -19.8306   18.9723 H   0  0  0  0  0  0
  -28.8055  -18.5826   19.2499 H   0  0  0  0  0  0
  -28.0963  -18.3871   20.7966 H   0  0  0  0  0  0
  -27.8591  -24.9957   21.9120 H   0  0  0  0  0  0
  -26.7344  -24.6953   20.6697 H   0  0  0  0  0  0
  -30.4552  -17.7452   21.7333 H   0  0  0  0  0  0
  -31.0277  -17.7279   20.0995 H   0  0  0  0  0  0
  -28.8143  -15.8294   20.8017 H   0  0  0  0  0  0
  1 25  1  0  0  0
  1 30  2  0  0  0
  1 83  1  0  0  0
  2  3  1  0  0  0
  2 25  1  0  0  0
  2 84  1  0  0  0
  2 85  1  0  0  0
  3  4  1  0  0  0
  3 86  1  0  0  0
  3 87  1  0  0  0
  4  5  1  0  0  0
  4 88  1  0  0  0
  4 89  1  0  0  0
  5  6  1  0  0  0
  5 26  1  0  0  0
  5 90  1  0  0  0
  6 25  1  0  0  0
  6 91  1  0  0  0
  6 92  1  0  0  0
  7  8  2  0  0  0
  7 26  1  0  0  0
  7 29  1  0  0  0
  8  9  1  0  0  0
  8 22  1  0  0  0
  9 10  1  0  0  0
  9 27  2  0  0  0
 10 11  2  0  0  0
 10 15  1  0  0  0
 11 12  1  0  0  0
 11 93  1  0  0  0
 12 13  2  0  0  0
 12 94  1  0  0  0
 13 14  1  0  0  0
 13 31  1  0  0  0
 14 15  2  0  0  0
 14 95  1  0  0  0
 15 96  1  0  0  0
 16 17  2  0  0  0
 16 21  1  0  0  0
 16 31  1  0  0  0
 17 18  1  0  0  0
 17 97  1  0  0  0
 18 19  2  0  0  0
 18 98  1  0  0  0
 19 20  1  0  0  0
 19 24  1  0  0  0
 20 21  2  0  0  0
 20 99  1  0  0  0
 21 23  1  0  0  0
 22 28  1  0  0  0
 22 32  2  0  0  0
 26 27  1  0  0  0
 28100  1  0  0  0
 28101  1  0  0  0
 29102  1  0  0  0
 29103  1  0  0  0
 33 34  1  0  0  0
 33 66  1  0  0  0
 33 70  2  0  0  0
 34 36  1  0  0  0
 34 59  1  0  0  0
 34104  1  0  0  0
 35 44  2  0  0  0
 35 45  1  0  0  0
 35 68  1  0  0  0
 36 56  1  0  0  0
 36105  1  0  0  0
 37 39  1  0  0  0
 37 47  1  0  0  0
 37 66  1  0  0  0
 37106  1  0  0  0
 38 43  2  0  0  0
 38 46  1  0  0  0
 38 47  1  0  0  0
 39 64  1  0  0  0
 39 67  2  0  0  0
 40 52  1  0  0  0
 40 53  2  0  0  0
 40 58  1  0  0  0
 41107  1  0  0  0
 41108  1  0  0  0
 41109  1  0  0  0
 41 48  1  0  0  0
 42 43  1  0  0  0
 42 66  1  0  0  0
 42110  1  0  0  0
 42111  1  0  0  0
 43 44  1  0  0  0
 44112  1  0  0  0
 45 46  2  0  0  0
 45113  1  0  0  0
 46114  1  0  0  0
 47115  1  0  0  0
 47116  1  0  0  0
 48 56  1  0  0  0
 48 65  1  0  0  0
 48117  1  0  0  0
 49 50  1  0  0  0
 49 53  1  0  0  0
 49 64  1  0  0  0
 49118  1  0  0  0
 50 51  1  0  0  0
 50119  1  0  0  0
 50120  1  0  0  0
 51 52  1  0  0  0
 51121  1  0  0  0
 51122  1  0  0  0
 52123  1  0  0  0
 52124  1  0  0  0
 53 54  1  0  0  0
 54 55  2  0  0  0
 54125  1  0  0  0
 55 57  1  0  0  0
 55126  1  0  0  0
 56 69  2  0  0  0
 57 58  2  0  0  0
 57127  1  0  0  0
 58128  1  0  0  0
 59 60  1  0  0  0
 59 61  1  0  0  0
 59 62  1  0  0  0
 60129  1  0  0  0
 60130  1  0  0  0
 60131  1  0  0  0
 61132  1  0  0  0
 61133  1  0  0  0
 61134  1  0  0  0
 62135  1  0  0  0
 62136  1  0  0  0
 62137  1  0  0  0
 63 65  1  0  0  0
 63138  1  0  0  0
 63139  1  0  0  0
 63140  1  0  0  0
 64141  1  0  0  0
 65142  1  0  0  0
 68 80  1  0  0  0
 71 73  2  0  0  0
 71 75  1  0  0  0
 71143  1  0  0  0
 72 74  2  0  0  0
 72 82  1  0  0  0
 72144  1  0  0  0
 73 74  1  0  0  0
 73 78  1  0  0  0
 74 79  1  0  0  0
 75 80  1  0  0  0
 75 82  2  0  0  0
 76 77  1  0  0  0
 76 78  1  0  0  0
 76145  1  0  0  0
 76146  1  0  0  0
 77 78  1  0  0  0
 77147  1  0  0  0
 77148  1  0  0  0
 78149  1  0  0  0
 79 81  1  0  0  0
 79150  1  0  0  0
 79151  1  0  0  0
 80152  1  0  0  0
 80153  1  0  0  0
 81 83  1  0  0  0
 81154  1  0  0  0
 81155  1  0  0  0
 83156  1  0  0  0
M  ISO  4   1 100  68 101  80 101  83 100
M  END
> <chiral flag>
0

> <version>
0

> <s_m_source_file>
/data/baiqing/PycharmProjects/Reinvent-master-3.2/result/LINK_invent/BTK/process_docking_weight1_custom_sum_contain_oxygen_bond_distance_aromatic_linkinvent_7_9_3/rearranged_h_0127.sdf

> <i_m_source_file_index>
40

> <r_mmod_Potential_Energy-OPLS-2005>
273.552917480469

> <r_mmod_Stretch_Energy-OPLS-2005>
198.647384643555

> <r_mmod_Bend_Energy-OPLS-2005>
260.441528320312

> <r_mmod_Torsional_Energy-OPLS-2005>
264.408020019531

> <r_mmod_Improper_Torsional_Energy-OPLS-2005>
5.70966720581055

> <r_mmod_Van_der_Waal_Energy-OPLS-2005>
137.028778076172

> <r_mmod_Electrostatic_Energy-OPLS-2005>
-526.904724121094

> <r_mmod_Solvation_Energy-OPLS-2005>
-224.782608032227

> <b_mmod_Minimization_Converged-OPLS-2005>
0

> <r_mmod_RMS_Derivative-OPLS-2005>
2.9545955657959

$$$$
40
                    3D
 Structure written by MMmdl.
167177  0  0  1  0            999 V2000
  -30.5674  -14.9527   20.4178 C   0  0  0  0  0  0
  -30.4294  -12.5934   19.4954 C   0  0  0  0  0  0
  -29.5156  -12.5210   18.2531 C   0  0  0  0  0  0
  -28.0517  -12.3110   18.6808 C   0  0  0  0  0  0
  -27.6241  -13.2532   19.8364 C   0  0  2  0  0  0
  -28.6699  -13.3085   20.9688 C   0  0  0  0  0  0
  -25.2441  -13.8234   20.5739 C   0  0  0  0  0  0
  -24.1754  -13.0456   20.9254 C   0  0  0  0  0  0
  -24.6376  -11.6939   20.8786 C   0  0  0  0  0  0
  -23.9076  -10.4302   21.0438 C   0  0  0  0  0  0
  -24.3622   -9.4213   21.9212 C   0  0  0  0  0  0
  -23.6291   -8.2254   22.0771 C   0  0  0  0  0  0
  -22.4267   -8.0302   21.3571 C   0  0  0  0  0  0
  -21.9905   -9.0274   20.4673 C   0  0  0  0  0  0
  -22.7244  -10.2149   20.3091 C   0  0  0  0  0  0
  -21.6855   -6.0750   22.5300 C   0  0  0  0  0  0
  -21.4016   -6.5654   23.8235 C   0  0  0  0  0  0
  -21.3653   -5.6804   24.9189 C   0  0  0  0  0  0
  -21.6042   -4.3072   24.7233 C   0  0  0  0  0  0
  -21.8808   -3.8165   23.4354 C   0  0  0  0  0  0
  -21.9182   -4.6977   22.3410 C   0  0  0  0  0  0
  -22.7775  -13.5227   21.1901 C   0  0  0  0  0  0
  -22.1653   -4.2175   21.0982 F   0  0  0  0  0  0
  -21.5615   -3.4548   25.7740 F   0  0  0  0  0  0
  -29.9345  -13.7126   20.3483 N   0  0  0  0  0  0
  -26.2866  -12.9468   20.3274 N   0  0  0  0  0  0
  -25.9314  -11.6592   20.5777 N   0  0  0  0  0  0
  -22.0404  -12.8236   22.0455 N   0  0  0  0  0  0
  -25.4128  -15.1966   20.4168 N   0  0  0  0  0  0
  -31.7838  -14.9556   20.2009 O   0  0  0  0  0  0
  -21.6637   -6.8897   21.4268 O   0  0  0  0  0  0
  -22.3471  -14.5529   20.6738 O   0  0  0  0  0  0
  -24.6467  -31.8426   23.1903 C   0  0  0  0  0  0
  -25.9231  -32.4679   23.8282 C   0  0  1  0  0  0
  -27.2035  -27.1112   20.1293 C   0  0  0  0  0  0
  -25.5977  -33.8486   24.2178 N   0  0  0  0  0  0
  -23.4501  -30.4655   21.5374 C   0  0  2  0  0  0
  -24.8985  -28.8998   20.1063 C   0  0  0  0  0  0
  -22.7581  -29.4534   22.4855 C   0  0  0  0  0  0
  -18.0309  -28.1377   22.8469 C   0  0  0  0  0  0
  -24.1497  -36.7234   23.2632 C   0  0  0  0  0  0
  -26.0123  -30.7024   21.4023 C   0  0  0  0  0  0
  -26.0787  -29.3165   20.7333 C   0  0  0  0  0  0
  -27.2324  -28.4364   20.7362 C   0  0  0  0  0  0
  -26.0016  -26.8246   19.4411 C   0  0  0  0  0  0
  -24.8730  -27.6669   19.4457 C   0  0  0  0  0  0
  -23.6772  -29.8036   20.1551 C   0  0  0  0  0  0
  -25.4129  -36.3011   24.0307 C   0  0  1  0  0  0
  -20.5922  -28.3703   23.1222 C   0  0  2  0  0  0
  -20.6792  -26.9404   22.5392 C   0  0  0  0  0  0
  -19.5768  -26.6365   21.5196 C   0  0  0  0  0  0
  -18.1956  -26.7919   22.1617 C   0  0  0  0  0  0
  -19.1568  -28.8863   23.2836 C   0  0  0  0  0  0
  -18.9483  -30.1465   23.8855 C   0  0  0  0  0  0
  -17.6479  -30.6570   24.0547 C   0  0  0  0  0  0
  -25.9092  -34.9391   23.5044 C   0  0  0  0  0  0
  -16.5371  -29.9053   23.6336 C   0  0  0  0  0  0
  -16.7295  -28.6474   23.0353 C   0  0  0  0  0  0
  -26.4525  -31.6565   25.0742 C   0  0  0  0  0  0
  -25.3681  -31.3793   26.1416 C   0  0  0  0  0  0
  -27.0399  -30.2943   24.6399 C   0  0  0  0  0  0
  -27.6051  -32.4348   25.7515 C   0  0  0  0  0  0
  -27.5592  -37.1751   24.8441 C   0  0  0  0  0  0
  -21.4279  -29.3025   22.3585 N   0  0  0  0  0  0
  -26.4277  -37.3743   23.9428 N   0  0  0  0  0  0
  -24.7220  -31.0261   22.0959 N   0  0  0  0  0  0
  -23.4219  -28.8082   23.3017 O   0  0  0  0  0  0
  -28.2106  -26.0666   20.2144 O   0  0  0  0  0  0
  -26.5676  -34.8888   22.4621 O   0  0  0  0  0  0
  -23.5586  -32.1323   23.7101 O   0  0  0  0  0  0
  -28.1593  -20.7162   21.0221 C   0  0  0  0  0  0
  -27.8544  -22.1406   20.9826 C   0  0  0  0  0  0
  -29.5435  -22.4619   19.3956 C   0  0  0  0  0  0
  -29.1629  -20.0471   20.2386 C   0  0  0  0  0  0
  -28.5004  -23.1117   20.1433 C   0  0  0  0  0  0
  -29.8777  -21.0317   19.4441 C   0  0  0  0  0  0
  -31.6210  -19.4288   15.0683 C   0  0  0  0  0  0
  -32.0387  -19.4780   16.5329 C   0  0  0  0  0  0
  -30.3789  -17.4002   19.5465 C   0  0  0  0  0  0
  -29.3749  -17.2267   21.2860 C   0  0  0  0  0  0
  -30.6613  -20.6181   14.9266 C   0  0  0  0  0  0
  -29.3049  -18.3739   20.1792 C   0  0  0  0  0  0
  -30.7786  -19.9902   17.2359 C   0  0  1  0  0  0
  -31.0843  -20.5904   18.6242 C   0  0  0  0  0  0
  -27.8286  -24.6015   19.8229 C   0  0  0  0  0  0
  -29.8456  -16.1833   20.2823 N   0  0  0  0  0  0
  -30.1701  -20.9381   16.2837 N   0  3  0  0  0  0
  -31.4670  -12.7347   19.1905 H   0  0  0  0  0  0
  -30.4072  -11.6532   20.0478 H   0  0  0  0  0  0
  -29.8320  -11.7113   17.5946 H   0  0  0  0  0  0
  -29.6050  -13.4428   17.6747 H   0  0  0  0  0  0
  -27.9579  -11.2751   19.0072 H   0  0  0  0  0  0
  -27.3808  -12.4241   17.8289 H   0  0  0  0  0  0
  -27.5783  -14.2486   19.3946 H   0  0  0  0  0  0
  -28.7640  -12.3462   21.4732 H   0  0  0  0  0  0
  -28.3734  -14.0351   21.7282 H   0  0  0  0  0  0
  -25.2758   -9.5689   22.4795 H   0  0  0  0  0  0
  -24.0017   -7.4627   22.7468 H   0  0  0  0  0  0
  -21.0844   -8.8785   19.8960 H   0  0  0  0  0  0
  -22.3705  -10.9690   19.6211 H   0  0  0  0  0  0
  -21.2033   -7.6164   23.9748 H   0  0  0  0  0  0
  -21.1475   -6.0532   25.9095 H   0  0  0  0  0  0
  -22.0589   -2.7631   23.2843 H   0  0  0  0  0  0
  -22.3967  -11.9902   22.4896 H   0  0  0  0  0  0
  -21.1025  -13.1309   22.2626 H   0  0  0  0  0  0
  -24.6475  -15.8531   20.5194 H   0  0  0  0  0  0
  -26.2705  -15.6342   20.1014 H   0  0  0  0  0  0
  -26.7290  -32.5255   23.0998 H   0  0  0  0  0  0
  -25.0095  -33.9594   25.0305 H   0  0  0  0  0  0
  -22.7535  -31.2933   21.3861 H   0  0  0  0  0  0
  -23.3776  -35.9543   23.3237 H   0  0  0  0  0  0
  -24.3597  -36.8926   22.2060 H   0  0  0  0  0  0
  -23.7226  -37.6402   23.6705 H   0  0  0  0  0  0
  -26.1886  -31.4619   20.6400 H   0  0  0  0  0  0
  -26.8742  -30.7360   22.0559 H   0  0  0  0  0  0
  -28.1232  -28.7468   21.2625 H   0  0  0  0  0  0
  -25.8766  -25.9016   18.8973 H   0  0  0  0  0  0
  -23.9770  -27.3467   18.9320 H   0  0  0  0  0  0
  -23.8171  -30.5811   19.4043 H   0  0  0  0  0  0
  -22.7904  -29.2512   19.8409 H   0  0  0  0  0  0
  -25.1306  -36.1815   25.0797 H   0  0  0  0  0  0
  -21.0017  -28.3294   24.1341 H   0  0  0  0  0  0
  -20.5673  -26.2319   23.3611 H   0  0  0  0  0  0
  -21.6662  -26.7398   22.1196 H   0  0  0  0  0  0
  -19.6926  -25.6264   21.1248 H   0  0  0  0  0  0
  -19.6701  -27.3153   20.6710 H   0  0  0  0  0  0
  -17.4219  -26.6648   21.4032 H   0  0  0  0  0  0
  -18.0364  -26.0061   22.9016 H   0  0  0  0  0  0
  -19.7960  -30.7297   24.2205 H   0  0  0  0  0  0
  -17.5022  -31.6250   24.5143 H   0  0  0  0  0  0
  -15.5368  -30.2931   23.7682 H   0  0  0  0  0  0
  -15.8697  -28.0771   22.7088 H   0  0  0  0  0  0
  -24.5854  -30.7149   25.7733 H   0  0  0  0  0  0
  -24.8871  -32.2990   26.4762 H   0  0  0  0  0  0
  -25.7925  -30.9013   27.0250 H   0  0  0  0  0  0
  -26.3044  -29.6653   24.1374 H   0  0  0  0  0  0
  -27.3923  -29.7274   25.5027 H   0  0  0  0  0  0
  -27.8990  -30.4148   23.9796 H   0  0  0  0  0  0
  -27.2630  -33.3656   26.2053 H   0  0  0  0  0  0
  -28.3864  -32.6910   25.0343 H   0  0  0  0  0  0
  -28.0709  -31.8509   26.5464 H   0  0  0  0  0  0
  -28.2524  -38.0134   24.7606 H   0  0  0  0  0  0
  -28.1178  -36.2672   24.6104 H   0  0  0  0  0  0
  -27.2329  -37.1188   25.8843 H   0  0  0  0  0  0
  -20.9487  -29.8735   21.6750 H   0  0  0  0  0  0
  -26.0126  -38.2787   24.1502 H   0  0  0  0  0  0
  -27.5416  -20.1033   21.6627 H   0  0  0  0  0  0
  -27.0165  -22.4796   21.5776 H   0  0  0  0  0  0
  -30.0929  -23.0884   18.7068 H   0  0  0  0  0  0
  -31.0929  -18.4953   14.8686 H   0  0  0  0  0  0
  -32.4674  -19.4841   14.3825 H   0  0  0  0  0  0
  -32.8555  -20.1921   16.6562 H   0  0  0  0  0  0
  -32.3775  -18.5152   16.9149 H   0  0  0  0  0  0
  -31.4049  -17.6515   19.8263 H   0  0  0  0  0  0
  -30.3058  -17.3089   18.4647 H   0  0  0  0  0  0
  -28.4028  -17.0121   21.7321 H   0  0  0  0  0  0
  -30.1033  -17.4326   22.0719 H   0  0  0  0  0  0
  -29.8375  -20.3885   14.2508 H   0  0  0  0  0  0
  -31.1851  -21.4867   14.5269 H   0  0  0  0  0  0
  -28.3871  -18.1593   19.6279 H   0  0  0  0  0  0
  -30.0760  -19.1629   17.3272 H   0  0  0  0  0  0
  -31.6426  -19.8696   19.2191 H   0  0  0  0  0  0
  -31.7666  -21.4341   18.5163 H   0  0  0  0  0  0
  -26.8148  -24.4596   20.1980 H   0  0  0  0  0  0
  -27.7300  -24.6191   18.7365 H   0  0  0  0  0  0
  -29.1646  -20.8845   16.3250 H   0  0  0  0  0  0
  -30.4498  -21.8781   16.5055 H   0  0  0  0  0  0
  1 25  1  0  0  0
  1 30  2  0  0  0
  1 86  1  0  0  0
  2  3  1  0  0  0
  2 25  1  0  0  0
  2 88  1  0  0  0
  2 89  1  0  0  0
  3  4  1  0  0  0
  3 90  1  0  0  0
  3 91  1  0  0  0
  4  5  1  0  0  0
  4 92  1  0  0  0
  4 93  1  0  0  0
  5  6  1  0  0  0
  5 26  1  0  0  0
  5 94  1  0  0  0
  6 25  1  0  0  0
  6 95  1  0  0  0
  6 96  1  0  0  0
  7  8  2  0  0  0
  7 26  1  0  0  0
  7 29  1  0  0  0
  8  9  1  0  0  0
  8 22  1  0  0  0
  9 10  1  0  0  0
  9 27  2  0  0  0
 10 11  2  0  0  0
 10 15  1  0  0  0
 11 12  1  0  0  0
 11 97  1  0  0  0
 12 13  2  0  0  0
 12 98  1  0  0  0
 13 14  1  0  0  0
 13 31  1  0  0  0
 14 15  2  0  0  0
 14 99  1  0  0  0
 15100  1  0  0  0
 16 17  2  0  0  0
 16 21  1  0  0  0
 16 31  1  0  0  0
 17 18  1  0  0  0
 17101  1  0  0  0
 18 19  2  0  0  0
 18102  1  0  0  0
 19 20  1  0  0  0
 19 24  1  0  0  0
 20 21  2  0  0  0
 20103  1  0  0  0
 21 23  1  0  0  0
 22 28  1  0  0  0
 22 32  2  0  0  0
 26 27  1  0  0  0
 28104  1  0  0  0
 28105  1  0  0  0
 29106  1  0  0  0
 29107  1  0  0  0
 33 34  1  0  0  0
 33 66  1  0  0  0
 33 70  2  0  0  0
 34 36  1  0  0  0
 34 59  1  0  0  0
 34108  1  0  0  0
 35 44  2  0  0  0
 35 45  1  0  0  0
 35 68  1  0  0  0
 36 56  1  0  0  0
 36109  1  0  0  0
 37 39  1  0  0  0
 37 47  1  0  0  0
 37 66  1  0  0  0
 37110  1  0  0  0
 38 43  2  0  0  0
 38 46  1  0  0  0
 38 47  1  0  0  0
 39 64  1  0  0  0
 39 67  2  0  0  0
 40 52  1  0  0  0
 40 53  2  0  0  0
 40 58  1  0  0  0
 41111  1  0  0  0
 41112  1  0  0  0
 41113  1  0  0  0
 41 48  1  0  0  0
 42 43  1  0  0  0
 42 66  1  0  0  0
 42114  1  0  0  0
 42115  1  0  0  0
 43 44  1  0  0  0
 44116  1  0  0  0
 45 46  2  0  0  0
 45117  1  0  0  0
 46118  1  0  0  0
 47119  1  0  0  0
 47120  1  0  0  0
 48 56  1  0  0  0
 48 65  1  0  0  0
 48121  1  0  0  0
 49 50  1  0  0  0
 49 53  1  0  0  0
 49 64  1  0  0  0
 49122  1  0  0  0
 50 51  1  0  0  0
 50123  1  0  0  0
 50124  1  0  0  0
 51 52  1  0  0  0
 51125  1  0  0  0
 51126  1  0  0  0
 52127  1  0  0  0
 52128  1  0  0  0
 53 54  1  0  0  0
 54 55  2  0  0  0
 54129  1  0  0  0
 55 57  1  0  0  0
 55130  1  0  0  0
 56 69  2  0  0  0
 57 58  2  0  0  0
 57131  1  0  0  0
 58132  1  0  0  0
 59 60  1  0  0  0
 59 61  1  0  0  0
 59 62  1  0  0  0
 60133  1  0  0  0
 60134  1  0  0  0
 60135  1  0  0  0
 61136  1  0  0  0
 61137  1  0  0  0
 61138  1  0  0  0
 62139  1  0  0  0
 62140  1  0  0  0
 62141  1  0  0  0
 63 65  1  0  0  0
 63142  1  0  0  0
 63143  1  0  0  0
 63144  1  0  0  0
 64145  1  0  0  0
 65146  1  0  0  0
 68 85  1  0  0  0
 71 72  2  0  0  0
 71 74  1  0  0  0
 71147  1  0  0  0
 72 75  1  0  0  0
 72148  1  0  0  0
 73 75  2  0  0  0
 73 76  1  0  0  0
 73149  1  0  0  0
 74 76  2  0  0  0
 74 82  1  0  0  0
 75 85  1  0  0  0
 76 84  1  0  0  0
 77 78  1  0  0  0
 77 81  1  0  0  0
 77150  1  0  0  0
 77151  1  0  0  0
 78 83  1  0  0  0
 78152  1  0  0  0
 78153  1  0  0  0
 79 82  1  0  0  0
 79 86  1  0  0  0
 79154  1  0  0  0
 79155  1  0  0  0
 80 82  1  0  0  0
 80 86  1  0  0  0
 80156  1  0  0  0
 80157  1  0  0  0
 81 87  1  0  0  0
 81158  1  0  0  0
 81159  1  0  0  0
 82160  1  0  0  0
 83 84  1  0  0  0
 83 87  1  0  0  0
 83161  1  0  0  0
 84162  1  0  0  0
 84163  1  0  0  0
 85164  1  0  0  0
 85165  1  0  0  0
 87166  1  0  0  0
 87167  1  0  0  0
M  CHG  1  87   1
M  ISO  4   1 100  68 101  85 101  86 100
M  END
> <chiral flag>
0

> <version>
0

> <s_m_source_file>
/data/baiqing/PycharmProjects/Reinvent-master-3.2/result/LINK_invent/BTK/process_docking_weight1_custom_sum_contain_oxygen_bond_distance_aromatic_linkinvent_7_9_3/rearranged_h_0127.sdf

> <i_m_source_file_index>
41

> <r_mmod_Potential_Energy-OPLS-2005>
594.601501464844

> <r_mmod_Stretch_Energy-OPLS-2005>
241.535797119141

> <r_mmod_Bend_Energy-OPLS-2005>
322.453674316406

> <r_mmod_Torsional_Energy-OPLS-2005>
355.85205078125

> <r_mmod_Improper_Torsional_Energy-OPLS-2005>
23.9953899383545

> <r_mmod_Van_der_Waal_Energy-OPLS-2005>
131.433517456055

> <r_mmod_Electrostatic_Energy-OPLS-2005>
-231.751190185547

> <r_mmod_Solvation_Energy-OPLS-2005>
-462.617858886719

> <b_mmod_Minimization_Converged-OPLS-2005>
0

> <r_mmod_RMS_Derivative-OPLS-2005>
2.861163854599

$$$$
41
                    3D
 Structure written by MMmdl.
169179  0  0  1  0            999 V2000
  -30.6350  -14.6791   20.5032 C   0  0  0  0  0  0
  -30.4273  -12.4239   19.4564 C   0  0  0  0  0  0
  -29.5011  -12.5059   18.2244 C   0  0  0  0  0  0
  -28.0266  -12.3398   18.6393 C   0  0  0  0  0  0
  -27.6437  -13.2274   19.8539 C   0  0  2  0  0  0
  -28.6885  -13.1279   20.9862 C   0  0  0  0  0  0
  -25.2520  -13.8192   20.5689 C   0  0  0  0  0  0
  -24.1808  -13.0445   20.9203 C   0  0  0  0  0  0
  -24.6390  -11.6925   20.8740 C   0  0  0  0  0  0
  -23.9069  -10.4295   21.0409 C   0  0  0  0  0  0
  -24.3620   -9.4209   21.9185 C   0  0  0  0  0  0
  -23.6296   -8.2246   22.0751 C   0  0  0  0  0  0
  -22.4278   -8.0278   21.3543 C   0  0  0  0  0  0
  -21.9912   -9.0251   20.4640 C   0  0  0  0  0  0
  -22.7243  -10.2133   20.3052 C   0  0  0  0  0  0
  -21.6854   -6.0736   22.5275 C   0  0  0  0  0  0
  -21.4014   -6.5641   23.8211 C   0  0  0  0  0  0
  -21.3660   -5.6794   24.9172 C   0  0  0  0  0  0
  -21.6042   -4.3056   24.7220 C   0  0  0  0  0  0
  -21.8819   -3.8151   23.4346 C   0  0  0  0  0  0
  -21.9193   -4.6966   22.3404 C   0  0  0  0  0  0
  -22.7828  -13.5229   21.1866 C   0  0  0  0  0  0
  -22.1663   -4.2152   21.0981 F   0  0  0  0  0  0
  -21.5631   -3.4544   25.7736 F   0  0  0  0  0  0
  -29.9935  -13.4705   20.4070 N   0  0  0  0  0  0
  -26.2948  -12.9394   20.3295 N   0  0  0  0  0  0
  -25.9320  -11.6538   20.5750 N   0  0  0  0  0  0
  -22.0476  -12.8205   22.0418 N   0  0  0  0  0  0
  -25.4239  -15.1916   20.4120 N   0  0  0  0  0  0
  -31.8192  -14.7875   20.1725 O   0  0  0  0  0  0
  -21.6644   -6.8874   21.4236 O   0  0  0  0  0  0
  -22.3504  -14.5544   20.6726 O   0  0  0  0  0  0
  -24.6281  -31.8570   23.1985 C   0  0  0  0  0  0
  -25.9119  -32.4756   23.8327 C   0  0  1  0  0  0
  -27.2261  -27.3019   20.1406 C   0  0  0  0  0  0
  -25.5927  -33.8559   24.2252 N   0  0  0  0  0  0
  -23.4222  -30.4777   21.5399 C   0  0  2  0  0  0
  -24.8709  -28.9204   20.1181 C   0  0  0  0  0  0
  -22.7477  -29.4618   22.4921 C   0  0  0  0  0  0
  -18.0278  -28.1390   22.8478 C   0  0  0  0  0  0
  -24.1493  -36.7283   23.2646 C   0  0  0  0  0  0
  -25.9621  -30.7840   21.3699 C   0  0  0  0  0  0
  -26.0389  -29.4060   20.7215 C   0  0  0  0  0  0
  -27.2226  -28.6096   20.7177 C   0  0  0  0  0  0
  -26.0395  -26.8597   19.5237 C   0  0  0  0  0  0
  -24.8738  -27.6532   19.5091 C   0  0  0  0  0  0
  -23.6393  -29.8029   20.1591 C   0  0  0  0  0  0
  -25.4113  -36.3065   24.0332 C   0  0  1  0  0  0
  -20.5879  -28.3702   23.1267 C   0  0  2  0  0  0
  -20.6783  -26.9416   22.5411 C   0  0  0  0  0  0
  -19.5759  -26.6381   21.5212 C   0  0  0  0  0  0
  -18.1928  -26.7927   22.1612 C   0  0  0  0  0  0
  -19.1531  -28.8857   23.2870 C   0  0  0  0  0  0
  -18.9461  -30.1458   23.8896 C   0  0  0  0  0  0
  -17.6466  -30.6596   24.0560 C   0  0  0  0  0  0
  -25.9054  -34.9440   23.5089 C   0  0  0  0  0  0
  -16.5355  -29.9092   23.6338 C   0  0  0  0  0  0
  -16.7267  -28.6512   23.0350 C   0  0  0  0  0  0
  -26.4501  -31.6577   25.0709 C   0  0  0  0  0  0
  -25.3734  -31.3701   26.1437 C   0  0  0  0  0  0
  -27.0368  -30.3008   24.6170 C   0  0  0  0  0  0
  -27.6058  -32.4316   25.7474 C   0  0  0  0  0  0
  -27.5566  -37.1790   24.8465 C   0  0  0  0  0  0
  -21.4188  -29.3055   22.3665 N   0  0  0  0  0  0
  -26.4282  -37.3766   23.9415 N   0  0  0  0  0  0
  -24.6895  -31.0578   22.0931 N   0  0  0  0  0  0
  -23.4191  -28.8173   23.3016 O   0  0  0  0  0  0
  -28.3450  -26.4608   20.1084 O   0  0  0  0  0  0
  -26.5632  -34.8917   22.4661 O   0  0  0  0  0  0
  -23.5439  -32.1367   23.7309 O   0  0  0  0  0  0
  -27.9342  -20.4952   19.4723 C   0  0  0  0  0  0
  -27.8772  -19.1560   19.0427 C   0  0  0  0  0  0
  -28.7748  -20.8843   20.5349 C   0  0  0  0  0  0
  -29.5706  -19.8013   21.0976 C   0  0  0  0  0  0
  -29.4731  -18.4445   20.5745 C   0  0  0  0  0  0
  -29.2750  -17.9838   26.0372 C   0  0  0  0  0  0
  -29.3117  -17.9506   24.5035 C   0  0  0  0  0  0
  -29.5506  -19.4884   25.9448 C   0  0  0  0  0  0
  -27.2942  -22.8937   21.3072 C   0  0  0  0  0  0
  -28.6875  -22.3798   21.0589 C   0  0  2  0  0  0
  -28.1595  -23.7468   20.4021 C   0  0  2  0  0  0
  -30.1817  -19.2204   24.5663 C   0  0  0  0  0  0
  -30.5512  -20.1134   22.2388 C   0  0  0  0  0  0
  -30.3748  -17.2136   20.9920 C   0  0  0  0  0  0
  -28.3578  -25.2339   20.9414 C   0  0  0  0  0  0
  -28.6132  -18.1581   19.5761 N   0  0  0  0  0  0
  -29.8885  -15.7923   20.8063 N   0  0  0  0  0  0
  -29.8877  -20.2673   23.5561 N   0  3  0  0  0  0
  -31.4688  -12.5435   19.1530 H   0  0  0  0  0  0
  -30.3636  -11.4394   19.9214 H   0  0  0  0  0  0
  -29.7726  -11.7427   17.4945 H   0  0  0  0  0  0
  -29.6351  -13.4667   17.7254 H   0  0  0  0  0  0
  -27.8691  -11.2888   18.8845 H   0  0  0  0  0  0
  -27.3696  -12.5537   17.7947 H   0  0  0  0  0  0
  -27.6480  -14.2558   19.4911 H   0  0  0  0  0  0
  -28.7121  -12.1209   21.4042 H   0  0  0  0  0  0
  -28.4321  -13.7931   21.8124 H   0  0  0  0  0  0
  -25.2761   -9.5688   22.4769 H   0  0  0  0  0  0
  -24.0006   -7.4635   22.7469 H   0  0  0  0  0  0
  -21.0847   -8.8761   19.8943 H   0  0  0  0  0  0
  -22.3693  -10.9673   19.6164 H   0  0  0  0  0  0
  -21.1998   -7.6149   23.9711 H   0  0  0  0  0  0
  -21.1484   -6.0527   25.9071 H   0  0  0  0  0  0
  -22.0597   -2.7614   23.2846 H   0  0  0  0  0  0
  -22.4108  -11.9849   22.4770 H   0  0  0  0  0  0
  -21.1100  -13.1215   22.2652 H   0  0  0  0  0  0
  -24.6558  -15.8444   20.5179 H   0  0  0  0  0  0
  -26.2708  -15.6322   20.0759 H   0  0  0  0  0  0
  -26.7190  -32.5435   23.1076 H   0  0  0  0  0  0
  -25.0106  -33.9702   25.0412 H   0  0  0  0  0  0
  -22.7177  -31.2977   21.3887 H   0  0  0  0  0  0
  -23.3757  -35.9614   23.3307 H   0  0  0  0  0  0
  -24.3579  -36.8908   22.2062 H   0  0  0  0  0  0
  -23.7254  -37.6484   23.6675 H   0  0  0  0  0  0
  -26.0915  -31.5401   20.5936 H   0  0  0  0  0  0
  -26.8448  -30.8400   21.9960 H   0  0  0  0  0  0
  -28.1251  -28.9811   21.1826 H   0  0  0  0  0  0
  -26.0158  -25.8845   19.0581 H   0  0  0  0  0  0
  -23.9794  -27.2753   19.0343 H   0  0  0  0  0  0
  -23.7616  -30.5750   19.3986 H   0  0  0  0  0  0
  -22.7589  -29.2321   19.8571 H   0  0  0  0  0  0
  -25.1290  -36.1913   25.0824 H   0  0  0  0  0  0
  -20.9952  -28.3294   24.1392 H   0  0  0  0  0  0
  -20.5695  -26.2310   23.3618 H   0  0  0  0  0  0
  -21.6648  -26.7458   22.1187 H   0  0  0  0  0  0
  -19.6935  -25.6291   21.1246 H   0  0  0  0  0  0
  -19.6698  -27.3191   20.6743 H   0  0  0  0  0  0
  -17.4195  -26.6676   21.4019 H   0  0  0  0  0  0
  -18.0319  -26.0057   22.8995 H   0  0  0  0  0  0
  -19.7946  -30.7272   24.2259 H   0  0  0  0  0  0
  -17.5026  -31.6272   24.5168 H   0  0  0  0  0  0
  -15.5360  -30.3002   23.7678 H   0  0  0  0  0  0
  -15.8656  -28.0847   22.7065 H   0  0  0  0  0  0
  -24.5923  -30.7029   25.7766 H   0  0  0  0  0  0
  -24.8914  -32.2863   26.4867 H   0  0  0  0  0  0
  -25.8070  -30.8882   27.0215 H   0  0  0  0  0  0
  -26.2957  -29.6716   24.1232 H   0  0  0  0  0  0
  -27.4129  -29.7299   25.4677 H   0  0  0  0  0  0
  -27.8778  -30.4303   23.9348 H   0  0  0  0  0  0
  -27.2681  -33.3644   26.2003 H   0  0  0  0  0  0
  -28.3890  -32.6837   25.0306 H   0  0  0  0  0  0
  -28.0697  -31.8469   26.5423 H   0  0  0  0  0  0
  -28.2574  -38.0095   24.7514 H   0  0  0  0  0  0
  -28.1065  -36.2628   24.6276 H   0  0  0  0  0  0
  -27.2282  -37.1412   25.8866 H   0  0  0  0  0  0
  -20.9378  -29.8768   21.6856 H   0  0  0  0  0  0
  -26.0155  -38.2837   24.1423 H   0  0  0  0  0  0
  -27.2951  -21.2206   18.9891 H   0  0  0  0  0  0
  -27.2108  -18.8710   18.2415 H   0  0  0  0  0  0
  -30.0979  -17.4305   26.4951 H   0  0  0  0  0  0
  -28.3147  -17.7173   26.4827 H   0  0  0  0  0  0
  -28.3268  -18.1036   24.0570 H   0  0  0  0  0  0
  -29.8027  -17.0643   24.1040 H   0  0  0  0  0  0
  -30.2377  -19.8711   26.7015 H   0  0  0  0  0  0
  -28.6275  -20.0718   25.9107 H   0  0  0  0  0  0
  -27.0917  -23.2385   22.3193 H   0  0  0  0  0  0
  -26.4491  -22.4057   20.8275 H   0  0  0  0  0  0
  -29.4087  -22.5364   21.8539 H   0  0  0  0  0  0
  -27.9822  -23.6923   19.3310 H   0  0  0  0  0  0
  -31.2481  -19.0017   24.6529 H   0  0  0  0  0  0
  -31.0556  -21.0510   22.0071 H   0  0  0  0  0  0
  -31.3647  -19.3906   22.2918 H   0  0  0  0  0  0
  -30.6411  -17.3042   22.0409 H   0  0  0  0  0  0
  -31.3128  -17.3314   20.4483 H   0  0  0  0  0  0
  -29.3271  -25.2453   21.4407 H   0  0  0  0  0  0
  -27.6424  -25.3950   21.7497 H   0  0  0  0  0  0
  -28.8992  -15.6560   20.9410 H   0  0  0  0  0  0
  -30.2364  -21.1331   23.9386 H   0  0  0  0  0  0
  -28.8960  -20.3802   23.4310 H   0  0  0  0  0  0
  1 25  1  0  0  0
  1 30  2  0  0  0
  1 87  1  0  0  0
  2  3  1  0  0  0
  2 25  1  0  0  0
  2 89  1  0  0  0
  2 90  1  0  0  0
  3  4  1  0  0  0
  3 91  1  0  0  0
  3 92  1  0  0  0
  4  5  1  0  0  0
  4 93  1  0  0  0
  4 94  1  0  0  0
  5  6  1  0  0  0
  5 26  1  0  0  0
  5 95  1  0  0  0
  6 25  1  0  0  0
  6 96  1  0  0  0
  6 97  1  0  0  0
  7  8  2  0  0  0
  7 26  1  0  0  0
  7 29  1  0  0  0
  8  9  1  0  0  0
  8 22  1  0  0  0
  9 10  1  0  0  0
  9 27  2  0  0  0
 10 11  2  0  0  0
 10 15  1  0  0  0
 11 12  1  0  0  0
 11 98  1  0  0  0
 12 13  2  0  0  0
 12 99  1  0  0  0
 13 14  1  0  0  0
 13 31  1  0  0  0
 14 15  2  0  0  0
 14100  1  0  0  0
 15101  1  0  0  0
 16 17  2  0  0  0
 16 21  1  0  0  0
 16 31  1  0  0  0
 17 18  1  0  0  0
 17102  1  0  0  0
 18 19  2  0  0  0
 18103  1  0  0  0
 19 20  1  0  0  0
 19 24  1  0  0  0
 20 21  2  0  0  0
 20104  1  0  0  0
 21 23  1  0  0  0
 22 28  1  0  0  0
 22 32  2  0  0  0
 26 27  1  0  0  0
 28105  1  0  0  0
 28106  1  0  0  0
 29107  1  0  0  0
 29108  1  0  0  0
 33 34  1  0  0  0
 33 66  1  0  0  0
 33 70  2  0  0  0
 34 36  1  0  0  0
 34 59  1  0  0  0
 34109  1  0  0  0
 35 44  2  0  0  0
 35 45  1  0  0  0
 35 68  1  0  0  0
 36 56  1  0  0  0
 36110  1  0  0  0
 37 39  1  0  0  0
 37 47  1  0  0  0
 37 66  1  0  0  0
 37111  1  0  0  0
 38 43  2  0  0  0
 38 46  1  0  0  0
 38 47  1  0  0  0
 39 64  1  0  0  0
 39 67  2  0  0  0
 40 52  1  0  0  0
 40 53  2  0  0  0
 40 58  1  0  0  0
 41112  1  0  0  0
 41113  1  0  0  0
 41114  1  0  0  0
 41 48  1  0  0  0
 42 43  1  0  0  0
 42 66  1  0  0  0
 42115  1  0  0  0
 42116  1  0  0  0
 43 44  1  0  0  0
 44117  1  0  0  0
 45 46  2  0  0  0
 45118  1  0  0  0
 46119  1  0  0  0
 47120  1  0  0  0
 47121  1  0  0  0
 48 56  1  0  0  0
 48 65  1  0  0  0
 48122  1  0  0  0
 49 50  1  0  0  0
 49 53  1  0  0  0
 49 64  1  0  0  0
 49123  1  0  0  0
 50 51  1  0  0  0
 50124  1  0  0  0
 50125  1  0  0  0
 51 52  1  0  0  0
 51126  1  0  0  0
 51127  1  0  0  0
 52128  1  0  0  0
 52129  1  0  0  0
 53 54  1  0  0  0
 54 55  2  0  0  0
 54130  1  0  0  0
 55 57  1  0  0  0
 55131  1  0  0  0
 56 69  2  0  0  0
 57 58  2  0  0  0
 57132  1  0  0  0
 58133  1  0  0  0
 59 60  1  0  0  0
 59 61  1  0  0  0
 59 62  1  0  0  0
 60134  1  0  0  0
 60135  1  0  0  0
 60136  1  0  0  0
 61137  1  0  0  0
 61138  1  0  0  0
 61139  1  0  0  0
 62140  1  0  0  0
 62141  1  0  0  0
 62142  1  0  0  0
 63 65  1  0  0  0
 63143  1  0  0  0
 63144  1  0  0  0
 63145  1  0  0  0
 64146  1  0  0  0
 65147  1  0  0  0
 68 85  1  0  0  0
 71 72  2  0  0  0
 71 73  1  0  0  0
 71148  1  0  0  0
 72 86  1  0  0  0
 72149  1  0  0  0
 73 74  2  0  0  0
 73 80  1  0  0  0
 74 75  1  0  0  0
 74 83  1  0  0  0
 75 84  1  0  0  0
 75 86  2  0  0  0
 76 77  1  0  0  0
 76 78  1  0  0  0
 76150  1  0  0  0
 76151  1  0  0  0
 77 82  1  0  0  0
 77152  1  0  0  0
 77153  1  0  0  0
 78 82  1  0  0  0
 78154  1  0  0  0
 78155  1  0  0  0
 79 80  1  0  0  0
 79 81  1  0  0  0
 79156  1  0  0  0
 79157  1  0  0  0
 80 81  1  0  0  0
 80158  1  0  0  0
 81 85  1  0  0  0
 81159  1  0  0  0
 82 88  1  0  0  0
 82160  1  0  0  0
 83 88  1  0  0  0
 83161  1  0  0  0
 83162  1  0  0  0
 84 87  1  0  0  0
 84163  1  0  0  0
 84164  1  0  0  0
 85165  1  0  0  0
 85166  1  0  0  0
 87167  1  0  0  0
 88168  1  0  0  0
 88169  1  0  0  0
M  CHG  1  88   1
M  ISO  4   1 100  68 101  85 101  87 100
M  END
> <chiral flag>
0

> <version>
0

> <s_m_source_file>
/data/baiqing/PycharmProjects/Reinvent-master-3.2/result/LINK_invent/BTK/process_docking_weight1_custom_sum_contain_oxygen_bond_distance_aromatic_linkinvent_7_9_3/rearranged_h_0127.sdf

> <i_m_source_file_index>
42

> <r_mmod_Potential_Energy-OPLS-2005>
-212.682571411133

> <r_mmod_Stretch_Energy-OPLS-2005>
104.834251403809

> <r_mmod_Bend_Energy-OPLS-2005>
185.115447998047

> <r_mmod_Torsional_Energy-OPLS-2005>
293.513000488281

> <r_mmod_Improper_Torsional_Energy-OPLS-2005>
4.04712724685669

> <r_mmod_Van_der_Waal_Energy-OPLS-2005>
132.866592407227

> <r_mmod_Electrostatic_Energy-OPLS-2005>
-500.089141845703

> <r_mmod_Solvation_Energy-OPLS-2005>
-491.284545898438

> <b_mmod_Minimization_Converged-OPLS-2005>
0

> <r_mmod_RMS_Derivative-OPLS-2005>
1.85551130771637

$$$$
42
                    3D
 Structure written by MMmdl.
178187  0  0  1  0            999 V2000
  -30.6762  -14.5113   20.6280 C   0  0  0  0  0  0
  -30.4286  -12.3311   19.4791 C   0  0  0  0  0  0
  -29.5218  -12.5509   18.2457 C   0  0  0  0  0  0
  -28.0354  -12.3969   18.6229 C   0  0  0  0  0  0
  -27.6676  -13.2188   19.8840 C   0  0  2  0  0  0
  -28.6870  -12.9913   21.0183 C   0  0  0  0  0  0
  -25.2559  -13.8126   20.5509 C   0  0  0  0  0  0
  -24.1873  -13.0313   20.9030 C   0  0  0  0  0  0
  -24.6496  -11.6841   20.8732 C   0  0  0  0  0  0
  -23.9148  -10.4221   21.0490 C   0  0  0  0  0  0
  -24.3722   -9.4116   21.9239 C   0  0  0  0  0  0
  -23.6414   -8.2123   22.0712 C   0  0  0  0  0  0
  -22.4335   -8.0269   21.3544 C   0  0  0  0  0  0
  -22.0006   -9.0245   20.4653 C   0  0  0  0  0  0
  -22.7290  -10.2134   20.3160 C   0  0  0  0  0  0
  -21.6871   -6.0737   22.5306 C   0  0  0  0  0  0
  -21.4068   -6.5656   23.8220 C   0  0  0  0  0  0
  -21.3735   -5.6809   24.9184 C   0  0  0  0  0  0
  -21.6093   -4.3047   24.7285 C   0  0  0  0  0  0
  -21.8828   -3.8119   23.4386 C   0  0  0  0  0  0
  -21.9185   -4.6961   22.3439 C   0  0  0  0  0  0
  -22.7927  -13.5107   21.1871 C   0  0  0  0  0  0
  -22.1620   -4.2142   21.1035 F   0  0  0  0  0  0
  -21.5642   -3.4564   25.7794 F   0  0  0  0  0  0
  -30.0338  -13.3122   20.5060 N   0  0  0  0  0  0
  -26.3034  -12.9309   20.3274 N   0  0  0  0  0  0
  -25.9438  -11.6427   20.5827 N   0  0  0  0  0  0
  -22.0583  -12.7907   22.0412 N   0  0  0  0  0  0
  -25.4269  -15.1853   20.3986 N   0  0  0  0  0  0
  -31.7513  -14.7454   20.0660 O   0  0  0  0  0  0
  -21.6613   -6.8918   21.4270 O   0  0  0  0  0  0
  -22.3549  -14.5462   20.6986 O   0  0  0  0  0  0
  -24.6132  -31.8698   23.2108 C   0  0  0  0  0  0
  -25.9022  -32.4845   23.8379 C   0  0  1  0  0  0
  -27.2396  -27.4299   20.0933 C   0  0  0  0  0  0
  -25.5857  -33.8636   24.2318 N   0  0  0  0  0  0
  -23.4021  -30.4899   21.5503 C   0  0  2  0  0  0
  -24.8576  -28.9685   20.0974 C   0  0  0  0  0  0
  -22.7416  -29.4669   22.5014 C   0  0  0  0  0  0
  -18.0281  -28.1381   22.8489 C   0  0  0  0  0  0
  -24.1490  -36.7338   23.2633 C   0  0  0  0  0  0
  -25.9320  -30.8287   21.3698 C   0  0  0  0  0  0
  -26.0118  -29.4662   20.7144 C   0  0  0  0  0  0
  -27.2015  -28.7000   20.7179 C   0  0  0  0  0  0
  -26.0949  -26.9985   19.3875 C   0  0  0  0  0  0
  -24.8979  -27.7367   19.4260 C   0  0  0  0  0  0
  -23.6108  -29.8229   20.1646 C   0  0  0  0  0  0
  -25.4108  -36.3135   24.0336 C   0  0  1  0  0  0
  -20.5862  -28.3681   23.1327 C   0  0  2  0  0  0
  -20.6767  -26.9400   22.5429 C   0  0  0  0  0  0
  -19.5743  -26.6395   21.5225 C   0  0  0  0  0  0
  -18.1932  -26.7930   22.1631 C   0  0  0  0  0  0
  -19.1523  -28.8854   23.2905 C   0  0  0  0  0  0
  -18.9433  -30.1450   23.8926 C   0  0  0  0  0  0
  -17.6427  -30.6581   24.0584 C   0  0  0  0  0  0
  -25.9035  -34.9493   23.5156 C   0  0  0  0  0  0
  -16.5325  -29.9081   23.6304 C   0  0  0  0  0  0
  -16.7267  -28.6498   23.0336 C   0  0  0  0  0  0
  -26.4432  -31.6604   25.0696 C   0  0  0  0  0  0
  -25.3688  -31.3661   26.1437 C   0  0  0  0  0  0
  -27.0242  -30.3054   24.6048 C   0  0  0  0  0  0
  -27.6053  -32.4261   25.7426 C   0  0  0  0  0  0
  -27.5596  -37.1828   24.8470 C   0  0  0  0  0  0
  -21.4143  -29.3031   22.3750 N   0  0  0  0  0  0
  -26.4321  -37.3801   23.9392 N   0  0  0  0  0  0
  -24.6667  -31.0788   22.1029 N   0  0  0  0  0  0
  -23.4219  -28.8237   23.3056 O   0  0  0  0  0  0
  -28.4020  -26.6729   20.1141 O   0  0  0  0  0  0
  -26.5582  -34.8922   22.4699 O   0  0  0  0  0  0
  -23.5322  -32.1431   23.7474 O   0  0  0  0  0  0
  -27.0819  -23.2579   21.5262 C   0  0  0  0  0  0
  -28.8939  -22.7888   19.9087 C   0  0  0  0  0  0
  -25.1180  -19.4277   19.4729 C   0  0  0  0  0  0
  -26.3855  -18.6178   19.7873 C   0  0  0  0  0  0
  -27.0708  -24.7638   21.2143 C   0  0  0  0  0  0
  -29.0054  -24.3184   19.5621 C   0  0  0  0  0  0
  -27.4297  -22.4409   20.2520 C   0  0  1  0  0  0
  -26.8137  -20.9751   20.3004 C   0  0  1  0  0  0
  -25.6120  -20.8638   19.2850 C   0  0  2  0  0  0
  -27.5686  -19.6181   19.9367 C   0  0  1  0  0  0
  -28.4029  -25.2974   20.6127 C   0  0  1  0  0  0
  -24.1261  -22.3051   17.7638 C   0  0  0  0  0  0
  -23.1721  -21.6461   19.9872 C   0  0  0  0  0  0
  -30.1504  -16.9584   21.1772 C   0  0  0  0  0  0
  -28.7631  -17.6789   21.2273 C   0  0  0  0  0  0
  -24.4742  -21.9623   19.2280 C   0  0  0  0  0  0
  -29.9961  -15.4772   21.2939 N   0  0  0  0  0  0
  -28.7151  -19.1279   20.7995 N   0  3  0  0  0  0
  -31.4847  -12.4194   19.2070 H   0  0  0  0  0  0
  -30.2957  -11.3281   19.8771 H   0  0  0  0  0  0
  -29.7764  -11.8438   17.4617 H   0  0  0  0  0  0
  -29.7099  -13.5491   17.8430 H   0  0  0  0  0  0
  -27.8268  -11.3406   18.7894 H   0  0  0  0  0  0
  -27.4073  -12.6947   17.7856 H   0  0  0  0  0  0
  -27.7200  -14.2754   19.6046 H   0  0  0  0  0  0
  -28.6441  -11.9559   21.3517 H   0  0  0  0  0  0
  -28.4140  -13.5778   21.8927 H   0  0  0  0  0  0
  -25.2952   -9.5476   22.4704 H   0  0  0  0  0  0
  -24.0230   -7.4430   22.7265 H   0  0  0  0  0  0
  -21.0964   -8.8800   19.8885 H   0  0  0  0  0  0
  -22.3766  -10.9687   19.6231 H   0  0  0  0  0  0
  -21.2087   -7.6197   23.9740 H   0  0  0  0  0  0
  -21.1583   -6.0542   25.9077 H   0  0  0  0  0  0
  -22.0552   -2.7588   23.2886 H   0  0  0  0  0  0
  -22.4114  -11.9369   22.4523 H   0  0  0  0  0  0
  -21.1194  -13.0832   22.2662 H   0  0  0  0  0  0
  -24.6669  -15.8364   20.5469 H   0  0  0  0  0  0
  -26.2828  -15.6384   20.1093 H   0  0  0  0  0  0
  -26.7103  -32.5566   23.1154 H   0  0  0  0  0  0
  -25.0026  -33.9805   25.0489 H   0  0  0  0  0  0
  -22.6878  -31.3069   21.4147 H   0  0  0  0  0  0
  -23.3760  -35.9681   23.3314 H   0  0  0  0  0  0
  -24.3606  -36.8939   22.2053 H   0  0  0  0  0  0
  -23.7246  -37.6546   23.6634 H   0  0  0  0  0  0
  -26.0347  -31.5951   20.5959 H   0  0  0  0  0  0
  -26.8223  -30.8907   21.9861 H   0  0  0  0  0  0
  -28.0888  -29.0797   21.2060 H   0  0  0  0  0  0
  -26.1266  -26.0831   18.8062 H   0  0  0  0  0  0
  -24.0265  -27.3758   18.9019 H   0  0  0  0  0  0
  -23.6972  -30.5967   19.3991 H   0  0  0  0  0  0
  -22.7407  -29.2281   19.8843 H   0  0  0  0  0  0
  -25.1293  -36.2018   25.0837 H   0  0  0  0  0  0
  -20.9928  -28.3209   24.1459 H   0  0  0  0  0  0
  -20.5698  -26.2243   23.3613 H   0  0  0  0  0  0
  -21.6641  -26.7474   22.1193 H   0  0  0  0  0  0
  -19.6905  -25.6320   21.1230 H   0  0  0  0  0  0
  -19.6685  -27.3240   20.6781 H   0  0  0  0  0  0
  -17.4192  -26.6689   21.4028 H   0  0  0  0  0  0
  -18.0312  -26.0084   22.9027 H   0  0  0  0  0  0
  -19.7909  -30.7273   24.2307 H   0  0  0  0  0  0
  -17.4981  -31.6269   24.5176 H   0  0  0  0  0  0
  -15.5322  -30.2997   23.7641 H   0  0  0  0  0  0
  -15.8670  -28.0867   22.7002 H   0  0  0  0  0  0
  -24.5961  -30.6894   25.7754 H   0  0  0  0  0  0
  -24.8733  -32.2772   26.4796 H   0  0  0  0  0  0
  -25.8045  -30.8907   27.0241 H   0  0  0  0  0  0
  -26.2766  -29.6836   24.1104 H   0  0  0  0  0  0
  -27.4035  -29.7249   25.4463 H   0  0  0  0  0  0
  -27.8589  -30.4380   23.9163 H   0  0  0  0  0  0
  -27.2795  -33.3635   26.1935 H   0  0  0  0  0  0
  -28.3888  -32.6684   25.0232 H   0  0  0  0  0  0
  -28.0686  -31.8387   26.5373 H   0  0  0  0  0  0
  -28.2631  -38.0104   24.7500 H   0  0  0  0  0  0
  -28.1066  -36.2636   24.6322 H   0  0  0  0  0  0
  -27.2305  -37.1516   25.8871 H   0  0  0  0  0  0
  -20.9321  -29.8712   21.6942 H   0  0  0  0  0  0
  -26.0228  -38.2901   24.1341 H   0  0  0  0  0  0
  -26.0968  -22.9852   21.9059 H   0  0  0  0  0  0
  -27.7945  -23.0521   22.3262 H   0  0  0  0  0  0
  -29.5489  -22.5568   20.7514 H   0  0  0  0  0  0
  -29.2462  -22.2084   19.0553 H   0  0  0  0  0  0
  -24.4640  -19.3632   20.3452 H   0  0  0  0  0  0
  -24.5474  -19.0535   18.6224 H   0  0  0  0  0  0
  -26.5970  -17.8851   19.0013 H   0  0  0  0  0  0
  -26.1700  -18.0799   20.7134 H   0  0  0  0  0  0
  -26.7984  -25.3466   22.0956 H   0  0  0  0  0  0
  -26.2435  -24.8577   20.5188 H   0  0  0  0  0  0
  -28.4985  -24.5083   18.6157 H   0  0  0  0  0  0
  -30.0527  -24.5818   19.3916 H   0  0  0  0  0  0
  -26.9251  -22.9201   19.4163 H   0  0  0  0  0  0
  -26.4144  -20.8337   21.3104 H   0  0  0  0  0  0
  -26.0957  -20.8836   18.2989 H   0  0  0  0  0  0
  -28.0049  -19.7608   18.9488 H   0  0  0  0  0  0
  -29.1103  -25.3224   21.4446 H   0  0  0  0  0  0
  -24.9372  -22.8660   17.2960 H   0  0  0  0  0  0
  -23.2146  -22.9084   17.6968 H   0  0  0  0  0  0
  -23.9546  -21.3970   17.1796 H   0  0  0  0  0  0
  -23.3583  -21.4034   21.0340 H   0  0  0  0  0  0
  -22.6465  -20.8098   19.5146 H   0  0  0  0  0  0
  -22.4761  -22.4922   19.9562 H   0  0  0  0  0  0
  -30.7841  -17.3459   21.9810 H   0  0  0  0  0  0
  -30.6525  -17.2027   20.2429 H   0  0  0  0  0  0
  -28.4233  -17.6529   22.2630 H   0  0  0  0  0  0
  -28.0753  -17.0646   20.6578 H   0  0  0  0  0  0
  -24.8466  -22.8849   19.6679 H   0  0  0  0  0  0
  -29.2054  -15.1540   21.8311 H   0  0  0  0  0  0
  -28.7581  -19.6825   21.6358 H   0  0  0  0  0  0
  -29.5510  -19.3199   20.2754 H   0  0  0  0  0  0
  1 25  1  0  0  0
  1 30  2  0  0  0
  1 87  1  0  0  0
  2  3  1  0  0  0
  2 25  1  0  0  0
  2 89  1  0  0  0
  2 90  1  0  0  0
  3  4  1  0  0  0
  3 91  1  0  0  0
  3 92  1  0  0  0
  4  5  1  0  0  0
  4 93  1  0  0  0
  4 94  1  0  0  0
  5  6  1  0  0  0
  5 26  1  0  0  0
  5 95  1  0  0  0
  6 25  1  0  0  0
  6 96  1  0  0  0
  6 97  1  0  0  0
  7  8  2  0  0  0
  7 26  1  0  0  0
  7 29  1  0  0  0
  8  9  1  0  0  0
  8 22  1  0  0  0
  9 10  1  0  0  0
  9 27  2  0  0  0
 10 11  2  0  0  0
 10 15  1  0  0  0
 11 12  1  0  0  0
 11 98  1  0  0  0
 12 13  2  0  0  0
 12 99  1  0  0  0
 13 14  1  0  0  0
 13 31  1  0  0  0
 14 15  2  0  0  0
 14100  1  0  0  0
 15101  1  0  0  0
 16 17  2  0  0  0
 16 21  1  0  0  0
 16 31  1  0  0  0
 17 18  1  0  0  0
 17102  1  0  0  0
 18 19  2  0  0  0
 18103  1  0  0  0
 19 20  1  0  0  0
 19 24  1  0  0  0
 20 21  2  0  0  0
 20104  1  0  0  0
 21 23  1  0  0  0
 22 28  1  0  0  0
 22 32  2  0  0  0
 26 27  1  0  0  0
 28105  1  0  0  0
 28106  1  0  0  0
 29107  1  0  0  0
 29108  1  0  0  0
 33 34  1  0  0  0
 33 66  1  0  0  0
 33 70  2  0  0  0
 34 36  1  0  0  0
 34 59  1  0  0  0
 34109  1  0  0  0
 35 44  2  0  0  0
 35 45  1  0  0  0
 35 68  1  0  0  0
 36 56  1  0  0  0
 36110  1  0  0  0
 37 39  1  0  0  0
 37 47  1  0  0  0
 37 66  1  0  0  0
 37111  1  0  0  0
 38 43  2  0  0  0
 38 46  1  0  0  0
 38 47  1  0  0  0
 39 64  1  0  0  0
 39 67  2  0  0  0
 40 52  1  0  0  0
 40 53  2  0  0  0
 40 58  1  0  0  0
 41112  1  0  0  0
 41113  1  0  0  0
 41114  1  0  0  0
 41 48  1  0  0  0
 42 43  1  0  0  0
 42 66  1  0  0  0
 42115  1  0  0  0
 42116  1  0  0  0
 43 44  1  0  0  0
 44117  1  0  0  0
 45 46  2  0  0  0
 45118  1  0  0  0
 46119  1  0  0  0
 47120  1  0  0  0
 47121  1  0  0  0
 48 56  1  0  0  0
 48 65  1  0  0  0
 48122  1  0  0  0
 49 50  1  0  0  0
 49 53  1  0  0  0
 49 64  1  0  0  0
 49123  1  0  0  0
 50 51  1  0  0  0
 50124  1  0  0  0
 50125  1  0  0  0
 51 52  1  0  0  0
 51126  1  0  0  0
 51127  1  0  0  0
 52128  1  0  0  0
 52129  1  0  0  0
 53 54  1  0  0  0
 54 55  2  0  0  0
 54130  1  0  0  0
 55 57  1  0  0  0
 55131  1  0  0  0
 56 69  2  0  0  0
 57 58  2  0  0  0
 57132  1  0  0  0
 58133  1  0  0  0
 59 60  1  0  0  0
 59 61  1  0  0  0
 59 62  1  0  0  0
 60134  1  0  0  0
 60135  1  0  0  0
 60136  1  0  0  0
 61137  1  0  0  0
 61138  1  0  0  0
 61139  1  0  0  0
 62140  1  0  0  0
 62141  1  0  0  0
 62142  1  0  0  0
 63 65  1  0  0  0
 63143  1  0  0  0
 63144  1  0  0  0
 63145  1  0  0  0
 64146  1  0  0  0
 65147  1  0  0  0
 68 81  1  0  0  0
 71 75  1  0  0  0
 71148  1  0  0  0
 71149  1  0  0  0
 71 77  1  0  0  0
 72 76  1  0  0  0
 72 77  1  0  0  0
 72150  1  0  0  0
 72151  1  0  0  0
 73 74  1  0  0  0
 73152  1  0  0  0
 73153  1  0  0  0
 73 79  1  0  0  0
 74 80  1  0  0  0
 74154  1  0  0  0
 74155  1  0  0  0
 75 81  1  0  0  0
 75156  1  0  0  0
 75157  1  0  0  0
 76 81  1  0  0  0
 76158  1  0  0  0
 76159  1  0  0  0
 77160  1  0  0  0
 77 78  1  0  0  0
 78 79  1  0  0  0
 78 80  1  0  0  0
 78161  1  0  0  0
 79 86  1  0  0  0
 79162  1  0  0  0
 80 88  1  0  0  0
 80163  1  0  0  0
 81164  1  0  0  0
 82165  1  0  0  0
 82166  1  0  0  0
 82167  1  0  0  0
 82 86  1  0  0  0
 83 86  1  0  0  0
 83168  1  0  0  0
 83169  1  0  0  0
 83170  1  0  0  0
 84 85  1  0  0  0
 84 87  1  0  0  0
 84171  1  0  0  0
 84172  1  0  0  0
 85 88  1  0  0  0
 85173  1  0  0  0
 85174  1  0  0  0
 86175  1  0  0  0
 87176  1  0  0  0
 88177  1  0  0  0
 88178  1  0  0  0
M  CHG  1  88   1
M  ISO  4   1 100  68 101  81 101  87 100
M  END
> <chiral flag>
0

> <version>
0

> <s_m_source_file>
/data/baiqing/PycharmProjects/Reinvent-master-3.2/result/LINK_invent/BTK/process_docking_weight1_custom_sum_contain_oxygen_bond_distance_aromatic_linkinvent_7_9_3/rearranged_h_0127.sdf

> <i_m_source_file_index>
43

> <r_mmod_Potential_Energy-OPLS-2005>
56.0241775512695

> <r_mmod_Stretch_Energy-OPLS-2005>
67.9795455932617

> <r_mmod_Bend_Energy-OPLS-2005>
224.632019042969

> <r_mmod_Torsional_Energy-OPLS-2005>
357.367645263672

> <r_mmod_Improper_Torsional_Energy-OPLS-2005>
3.4164023399353

> <r_mmod_Van_der_Waal_Energy-OPLS-2005>
146.983535766602

> <r_mmod_Electrostatic_Energy-OPLS-2005>
-293.706817626953

> <r_mmod_Solvation_Energy-OPLS-2005>
-469.644989013672

> <b_mmod_Minimization_Converged-OPLS-2005>
0

> <r_mmod_RMS_Derivative-OPLS-2005>
12.3105669021606

$$$$
43
                    3D
 Structure written by MMmdl.
163171  0  0  1  0            999 V2000
  -30.7369  -14.4229   20.6380 C   0  0  0  0  0  0
  -30.4215  -12.3053   19.4062 C   0  0  0  0  0  0
  -29.4877  -12.5124   18.1979 C   0  0  0  0  0  0
  -28.0117  -12.3693   18.6163 C   0  0  0  0  0  0
  -27.6636  -13.2044   19.8771 C   0  0  2  0  0  0
  -28.7039  -12.9673   20.9937 C   0  0  0  0  0  0
  -25.2600  -13.8162   20.5684 C   0  0  0  0  0  0
  -24.1845  -13.0444   20.9173 C   0  0  0  0  0  0
  -24.6390  -11.6907   20.8732 C   0  0  0  0  0  0
  -23.9055  -10.4294   21.0402 C   0  0  0  0  0  0
  -24.3609   -9.4210   21.9181 C   0  0  0  0  0  0
  -23.6286   -8.2245   22.0753 C   0  0  0  0  0  0
  -22.4269   -8.0282   21.3543 C   0  0  0  0  0  0
  -21.9903   -9.0253   20.4644 C   0  0  0  0  0  0
  -22.7228  -10.2133   20.3052 C   0  0  0  0  0  0
  -21.6849   -6.0734   22.5278 C   0  0  0  0  0  0
  -21.4011   -6.5638   23.8211 C   0  0  0  0  0  0
  -21.3660   -5.6791   24.9174 C   0  0  0  0  0  0
  -21.6044   -4.3054   24.7224 C   0  0  0  0  0  0
  -21.8821   -3.8147   23.4345 C   0  0  0  0  0  0
  -21.9192   -4.6963   22.3401 C   0  0  0  0  0  0
  -22.7870  -13.5244   21.1842 C   0  0  0  0  0  0
  -22.1662   -4.2150   21.0978 F   0  0  0  0  0  0
  -21.5631   -3.4539   25.7737 F   0  0  0  0  0  0
  -30.0381  -13.2725   20.4462 N   0  0  0  0  0  0
  -26.3034  -12.9324   20.3377 N   0  0  0  0  0  0
  -25.9316  -11.6485   20.5764 N   0  0  0  0  0  0
  -22.0505  -12.8235   22.0394 N   0  0  0  0  0  0
  -25.4343  -15.1876   20.4095 N   0  0  0  0  0  0
  -31.8215  -14.6500   20.0943 O   0  0  0  0  0  0
  -21.6637   -6.8876   21.4239 O   0  0  0  0  0  0
  -22.3560  -14.5551   20.6692 O   0  0  0  0  0  0
  -24.6114  -31.8705   23.2115 C   0  0  0  0  0  0
  -25.9023  -32.4830   23.8406 C   0  0  1  0  0  0
  -27.2473  -27.4521   20.1105 C   0  0  0  0  0  0
  -25.5902  -33.8627   24.2349 N   0  0  0  0  0  0
  -23.3992  -30.4920   21.5498 C   0  0  2  0  0  0
  -24.8510  -28.9553   20.1215 C   0  0  0  0  0  0
  -22.7395  -29.4668   22.4995 C   0  0  0  0  0  0
  -18.0269  -28.1367   22.8490 C   0  0  0  0  0  0
  -24.1486  -36.7317   23.2637 C   0  0  0  0  0  0
  -25.9236  -30.8422   21.3616 C   0  0  0  0  0  0
  -26.0058  -29.4723   20.7227 C   0  0  0  0  0  0
  -27.2058  -28.7288   20.7214 C   0  0  0  0  0  0
  -26.0817  -26.9531   19.4952 C   0  0  0  0  0  0
  -24.8818  -27.6909   19.5071 C   0  0  0  0  0  0
  -23.6102  -29.8195   20.1658 C   0  0  0  0  0  0
  -25.4103  -36.3116   24.0342 C   0  0  1  0  0  0
  -20.5859  -28.3656   23.1327 C   0  0  2  0  0  0
  -20.6766  -26.9398   22.5418 C   0  0  0  0  0  0
  -19.5748  -26.6385   21.5207 C   0  0  0  0  0  0
  -18.1922  -26.7917   22.1614 C   0  0  0  0  0  0
  -19.1517  -28.8828   23.2904 C   0  0  0  0  0  0
  -18.9453  -30.1438   23.8914 C   0  0  0  0  0  0
  -17.6458  -30.6581   24.0562 C   0  0  0  0  0  0
  -25.9031  -34.9481   23.5141 C   0  0  0  0  0  0
  -16.5349  -29.9086   23.6318 C   0  0  0  0  0  0
  -16.7262  -28.6499   23.0343 C   0  0  0  0  0  0
  -26.4472  -31.6589   25.0709 C   0  0  0  0  0  0
  -25.3749  -31.3681   26.1466 C   0  0  0  0  0  0
  -27.0296  -30.3040   24.6042 C   0  0  0  0  0  0
  -27.6052  -32.4295   25.7478 C   0  0  0  0  0  0
  -27.5580  -37.1811   24.8463 C   0  0  0  0  0  0
  -21.4126  -29.3027   22.3734 N   0  0  0  0  0  0
  -26.4292  -37.3796   23.9412 N   0  0  0  0  0  0
  -24.6624  -31.0826   22.1001 N   0  0  0  0  0  0
  -23.4176  -28.8216   23.3032 O   0  0  0  0  0  0
  -28.3853  -26.6795   20.0248 O   0  0  0  0  0  0
  -26.5581  -34.8933   22.4695 O   0  0  0  0  0  0
  -23.5316  -32.1447   23.7532 O   0  0  0  0  0  0
  -28.8162  -20.2135   22.5364 C   0  0  0  0  0  0
  -30.0787  -17.0333   23.2345 C   0  0  0  0  0  0
  -30.7431  -17.7239   20.8630 C   0  0  0  0  0  0
  -28.7485  -17.7712   22.9897 C   0  0  0  0  0  0
  -29.4053  -18.4940   20.7751 C   0  0  0  0  0  0
  -30.7496  -16.5841   21.9184 C   0  0  0  0  0  0
  -29.0632  -21.3990   21.5748 C   0  0  0  0  0  0
  -28.7395  -22.7768   22.2190 C   0  0  0  0  0  0
  -28.6884  -25.2538   22.0021 C   0  0  0  0  0  0
  -29.1679  -26.4888   21.2067 C   0  0  0  0  0  0
  -28.9807  -18.9301   22.1129 N   0  0  0  0  0  0
  -30.1522  -15.3304   21.4384 N   0  0  0  0  0  0
  -29.0241  -23.9542   21.3545 N   0  3  0  0  0  0
  -28.4654  -20.4652   23.6941 O   0  0  0  0  0  0
  -31.4637  -12.4106   19.0992 H   0  0  0  0  0  0
  -30.3292  -11.2889   19.7923 H   0  0  0  0  0  0
  -29.7233  -11.7924   17.4131 H   0  0  0  0  0  0
  -29.6543  -13.5011   17.7672 H   0  0  0  0  0  0
  -27.8240  -11.3127   18.8108 H   0  0  0  0  0  0
  -27.3566  -12.6456   17.7890 H   0  0  0  0  0  0
  -27.7152  -14.2552   19.5907 H   0  0  0  0  0  0
  -28.6780  -11.9261   21.3187 H   0  0  0  0  0  0
  -28.4560  -13.5494   21.8818 H   0  0  0  0  0  0
  -25.2753   -9.5691   22.4757 H   0  0  0  0  0  0
  -23.9998   -7.4638   22.7474 H   0  0  0  0  0  0
  -21.0837   -8.8766   19.8952 H   0  0  0  0  0  0
  -22.3682  -10.9671   19.6163 H   0  0  0  0  0  0
  -21.1999   -7.6146   23.9713 H   0  0  0  0  0  0
  -21.1481   -6.0522   25.9076 H   0  0  0  0  0  0
  -22.0599   -2.7610   23.2844 H   0  0  0  0  0  0
  -22.4112  -11.9886   22.4773 H   0  0  0  0  0  0
  -21.1126  -13.1266   22.2600 H   0  0  0  0  0  0
  -24.6710  -15.8462   20.5171 H   0  0  0  0  0  0
  -26.2909  -15.6223   20.0906 H   0  0  0  0  0  0
  -26.7098  -32.5571   23.1181 H   0  0  0  0  0  0
  -25.0075  -33.9787   25.0510 H   0  0  0  0  0  0
  -22.6861  -31.3067   21.4080 H   0  0  0  0  0  0
  -23.3746  -35.9647   23.3301 H   0  0  0  0  0  0
  -24.3593  -36.8926   22.2051 H   0  0  0  0  0  0
  -23.7237  -37.6525   23.6646 H   0  0  0  0  0  0
  -26.0258  -31.6028   20.5865 H   0  0  0  0  0  0
  -26.8148  -30.9076   21.9735 H   0  0  0  0  0  0
  -28.0929  -29.1554   21.1668 H   0  0  0  0  0  0
  -26.1059  -25.9886   19.0077 H   0  0  0  0  0  0
  -23.9967  -27.2867   19.0351 H   0  0  0  0  0  0
  -23.7167  -30.5923   19.4031 H   0  0  0  0  0  0
  -22.7366  -29.2349   19.8716 H   0  0  0  0  0  0
  -25.1276  -36.1986   25.0833 H   0  0  0  0  0  0
  -20.9948  -28.3232   24.1448 H   0  0  0  0  0  0
  -20.5678  -26.2267   23.3601 H   0  0  0  0  0  0
  -21.6641  -26.7454   22.1207 H   0  0  0  0  0  0
  -19.6918  -25.6303   21.1224 H   0  0  0  0  0  0
  -19.6694  -27.3212   20.6747 H   0  0  0  0  0  0
  -17.4195  -26.6670   21.4012 H   0  0  0  0  0  0
  -18.0319  -26.0052   22.9006 H   0  0  0  0  0  0
  -19.7936  -30.7236   24.2305 H   0  0  0  0  0  0
  -17.5018  -31.6264   24.5159 H   0  0  0  0  0  0
  -15.5353  -30.2992   23.7636 H   0  0  0  0  0  0
  -15.8657  -28.0828   22.7046 H   0  0  0  0  0  0
  -24.5934  -30.7011   25.7813 H   0  0  0  0  0  0
  -24.8924  -32.2826   26.4920 H   0  0  0  0  0  0
  -25.8116  -30.8860   27.0217 H   0  0  0  0  0  0
  -26.2819  -29.6809   24.1114 H   0  0  0  0  0  0
  -27.4110  -29.7265   25.4472 H   0  0  0  0  0  0
  -27.8640  -30.4376   23.9148 H   0  0  0  0  0  0
  -27.2678  -33.3588   26.2077 H   0  0  0  0  0  0
  -28.3861  -32.6858   25.0305 H   0  0  0  0  0  0
  -28.0711  -31.8392   26.5376 H   0  0  0  0  0  0
  -28.2596  -38.0112   24.7523 H   0  0  0  0  0  0
  -28.1079  -36.2647   24.6271 H   0  0  0  0  0  0
  -27.2302  -37.1441   25.8867 H   0  0  0  0  0  0
  -20.9284  -29.8740   21.6956 H   0  0  0  0  0  0
  -26.0188  -38.2874   24.1417 H   0  0  0  0  0  0
  -29.9245  -16.1821   23.8997 H   0  0  0  0  0  0
  -30.7548  -17.7048   23.7670 H   0  0  0  0  0  0
  -31.5232  -18.4385   21.1312 H   0  0  0  0  0  0
  -31.0248  -17.3455   19.8797 H   0  0  0  0  0  0
  -28.3059  -18.0463   23.9481 H   0  0  0  0  0  0
  -28.0266  -17.1011   22.5206 H   0  0  0  0  0  0
  -28.6355  -17.8457   20.3535 H   0  0  0  0  0  0
  -29.5101  -19.3197   20.0725 H   0  0  0  0  0  0
  -31.7920  -16.3542   22.1516 H   0  0  0  0  0  0
  -28.4489  -21.2626   20.6849 H   0  0  0  0  0  0
  -30.1063  -21.3687   21.2596 H   0  0  0  0  0  0
  -29.3122  -22.8885   23.1419 H   0  0  0  0  0  0
  -27.6869  -22.8038   22.5052 H   0  0  0  0  0  0
  -27.6152  -25.3178   22.1856 H   0  0  0  0  0  0
  -29.1697  -25.2805   22.9810 H   0  0  0  0  0  0
  -30.2112  -26.3653   20.9151 H   0  0  0  0  0  0
  -29.1497  -27.3633   21.8555 H   0  0  0  0  0  0
  -29.2549  -15.0711   21.8190 H   0  0  0  0  0  0
  -28.5035  -23.8778   20.4934 H   0  0  0  0  0  0
  -30.0042  -23.9516   21.1162 H   0  0  0  0  0  0
  1 25  1  0  0  0
  1 30  2  0  0  0
  1 82  1  0  0  0
  2  3  1  0  0  0
  2 25  1  0  0  0
  2 85  1  0  0  0
  2 86  1  0  0  0
  3  4  1  0  0  0
  3 87  1  0  0  0
  3 88  1  0  0  0
  4  5  1  0  0  0
  4 89  1  0  0  0
  4 90  1  0  0  0
  5  6  1  0  0  0
  5 26  1  0  0  0
  5 91  1  0  0  0
  6 25  1  0  0  0
  6 92  1  0  0  0
  6 93  1  0  0  0
  7  8  2  0  0  0
  7 26  1  0  0  0
  7 29  1  0  0  0
  8  9  1  0  0  0
  8 22  1  0  0  0
  9 10  1  0  0  0
  9 27  2  0  0  0
 10 11  2  0  0  0
 10 15  1  0  0  0
 11 12  1  0  0  0
 11 94  1  0  0  0
 12 13  2  0  0  0
 12 95  1  0  0  0
 13 14  1  0  0  0
 13 31  1  0  0  0
 14 15  2  0  0  0
 14 96  1  0  0  0
 15 97  1  0  0  0
 16 17  2  0  0  0
 16 21  1  0  0  0
 16 31  1  0  0  0
 17 18  1  0  0  0
 17 98  1  0  0  0
 18 19  2  0  0  0
 18 99  1  0  0  0
 19 20  1  0  0  0
 19 24  1  0  0  0
 20 21  2  0  0  0
 20100  1  0  0  0
 21 23  1  0  0  0
 22 28  1  0  0  0
 22 32  2  0  0  0
 26 27  1  0  0  0
 28101  1  0  0  0
 28102  1  0  0  0
 29103  1  0  0  0
 29104  1  0  0  0
 33 34  1  0  0  0
 33 66  1  0  0  0
 33 70  2  0  0  0
 34 36  1  0  0  0
 34 59  1  0  0  0
 34105  1  0  0  0
 35 44  2  0  0  0
 35 45  1  0  0  0
 35 68  1  0  0  0
 36 56  1  0  0  0
 36106  1  0  0  0
 37 39  1  0  0  0
 37 47  1  0  0  0
 37 66  1  0  0  0
 37107  1  0  0  0
 38 43  2  0  0  0
 38 46  1  0  0  0
 38 47  1  0  0  0
 39 64  1  0  0  0
 39 67  2  0  0  0
 40 52  1  0  0  0
 40 53  2  0  0  0
 40 58  1  0  0  0
 41108  1  0  0  0
 41109  1  0  0  0
 41110  1  0  0  0
 41 48  1  0  0  0
 42 43  1  0  0  0
 42 66  1  0  0  0
 42111  1  0  0  0
 42112  1  0  0  0
 43 44  1  0  0  0
 44113  1  0  0  0
 45 46  2  0  0  0
 45114  1  0  0  0
 46115  1  0  0  0
 47116  1  0  0  0
 47117  1  0  0  0
 48 56  1  0  0  0
 48 65  1  0  0  0
 48118  1  0  0  0
 49 50  1  0  0  0
 49 53  1  0  0  0
 49 64  1  0  0  0
 49119  1  0  0  0
 50 51  1  0  0  0
 50120  1  0  0  0
 50121  1  0  0  0
 51 52  1  0  0  0
 51122  1  0  0  0
 51123  1  0  0  0
 52124  1  0  0  0
 52125  1  0  0  0
 53 54  1  0  0  0
 54 55  2  0  0  0
 54126  1  0  0  0
 55 57  1  0  0  0
 55127  1  0  0  0
 56 69  2  0  0  0
 57 58  2  0  0  0
 57128  1  0  0  0
 58129  1  0  0  0
 59 60  1  0  0  0
 59 61  1  0  0  0
 59 62  1  0  0  0
 60130  1  0  0  0
 60131  1  0  0  0
 60132  1  0  0  0
 61133  1  0  0  0
 61134  1  0  0  0
 61135  1  0  0  0
 62136  1  0  0  0
 62137  1  0  0  0
 62138  1  0  0  0
 63 65  1  0  0  0
 63139  1  0  0  0
 63140  1  0  0  0
 63141  1  0  0  0
 64142  1  0  0  0
 65143  1  0  0  0
 68 80  1  0  0  0
 71 77  1  0  0  0
 71 81  1  0  0  0
 71 84  2  0  0  0
 72 74  1  0  0  0
 72 76  1  0  0  0
 72144  1  0  0  0
 72145  1  0  0  0
 73 75  1  0  0  0
 73 76  1  0  0  0
 73146  1  0  0  0
 73147  1  0  0  0
 74 81  1  0  0  0
 74148  1  0  0  0
 74149  1  0  0  0
 75 81  1  0  0  0
 75150  1  0  0  0
 75151  1  0  0  0
 76 82  1  0  0  0
 76152  1  0  0  0
 77 78  1  0  0  0
 77153  1  0  0  0
 77154  1  0  0  0
 78 83  1  0  0  0
 78155  1  0  0  0
 78156  1  0  0  0
 79 80  1  0  0  0
 79 83  1  0  0  0
 79157  1  0  0  0
 79158  1  0  0  0
 80159  1  0  0  0
 80160  1  0  0  0
 82161  1  0  0  0
 83162  1  0  0  0
 83163  1  0  0  0
M  CHG  1  83   1
M  ISO  4   1 100  68 101  80 101  82 100
M  END
> <chiral flag>
0

> <version>
0

> <s_m_source_file>
/data/baiqing/PycharmProjects/Reinvent-master-3.2/result/LINK_invent/BTK/process_docking_weight1_custom_sum_contain_oxygen_bond_distance_aromatic_linkinvent_7_9_3/rearranged_h_0127.sdf

> <i_m_source_file_index>
44

> <r_mmod_Potential_Energy-OPLS-2005>
-205.736267089844

> <r_mmod_Stretch_Energy-OPLS-2005>
37.558219909668

> <r_mmod_Bend_Energy-OPLS-2005>
103.181503295898

> <r_mmod_Torsional_Energy-OPLS-2005>
258.381927490234

> <r_mmod_Improper_Torsional_Energy-OPLS-2005>
1.95678496360779

> <r_mmod_Van_der_Waal_Energy-OPLS-2005>
144.013549804688

> <r_mmod_Electrostatic_Energy-OPLS-2005>
-298.278717041016

> <r_mmod_Solvation_Energy-OPLS-2005>
-460.456146240234

> <b_mmod_Minimization_Converged-OPLS-2005>
0

> <r_mmod_RMS_Derivative-OPLS-2005>
0.824543058872223

$$$$
44
                    3D
 Structure written by MMmdl.
156164  0  0  1  0            999 V2000
  -30.6191  -14.6957   20.4391 C   0  0  0  0  0  0
  -30.4377  -12.4021   19.4885 C   0  0  0  0  0  0
  -29.5183  -12.4307   18.2468 C   0  0  0  0  0  0
  -28.0331  -12.3226   18.6479 C   0  0  0  0  0  0
  -27.6477  -13.2245   19.8525 C   0  0  2  0  0  0
  -28.6894  -13.1384   20.9892 C   0  0  0  0  0  0
  -25.2538  -13.8191   20.5692 C   0  0  0  0  0  0
  -24.1815  -13.0445   20.9202 C   0  0  0  0  0  0
  -24.6395  -11.6920   20.8752 C   0  0  0  0  0  0
  -23.9071  -10.4296   21.0413 C   0  0  0  0  0  0
  -24.3622   -9.4205   21.9185 C   0  0  0  0  0  0
  -23.6295   -8.2241   22.0753 C   0  0  0  0  0  0
  -22.4275   -8.0282   21.3545 C   0  0  0  0  0  0
  -21.9913   -9.0258   20.4648 C   0  0  0  0  0  0
  -22.7244  -10.2136   20.3060 C   0  0  0  0  0  0
  -21.6851   -6.0737   22.5281 C   0  0  0  0  0  0
  -21.4014   -6.5639   23.8215 C   0  0  0  0  0  0
  -21.3661   -5.6790   24.9177 C   0  0  0  0  0  0
  -21.6044   -4.3054   24.7225 C   0  0  0  0  0  0
  -21.8819   -3.8147   23.4346 C   0  0  0  0  0  0
  -21.9191   -4.6965   22.3403 C   0  0  0  0  0  0
  -22.7835  -13.5230   21.1863 C   0  0  0  0  0  0
  -22.1660   -4.2151   21.0980 F   0  0  0  0  0  0
  -21.5629   -3.4537   25.7738 F   0  0  0  0  0  0
  -29.9995  -13.4697   20.4147 N   0  0  0  0  0  0
  -26.2965  -12.9389   20.3289 N   0  0  0  0  0  0
  -25.9325  -11.6539   20.5774 N   0  0  0  0  0  0
  -22.0480  -12.8224   22.0425 N   0  0  0  0  0  0
  -25.4241  -15.1914   20.4118 N   0  0  0  0  0  0
  -31.8050  -14.8016   20.1131 O   0  0  0  0  0  0
  -21.6637   -6.8881   21.4243 O   0  0  0  0  0  0
  -22.3517  -14.5535   20.6710 O   0  0  0  0  0  0
  -24.6275  -31.8590   23.2024 C   0  0  0  0  0  0
  -25.9117  -32.4776   23.8353 C   0  0  1  0  0  0
  -27.2189  -27.2985   20.1227 C   0  0  0  0  0  0
  -25.5928  -33.8578   24.2278 N   0  0  0  0  0  0
  -23.4219  -30.4835   21.5452 C   0  0  2  0  0  0
  -24.8686  -28.9405   20.1076 C   0  0  0  0  0  0
  -22.7483  -29.4618   22.4926 C   0  0  0  0  0  0
  -18.0288  -28.1382   22.8484 C   0  0  0  0  0  0
  -24.1488  -36.7292   23.2638 C   0  0  0  0  0  0
  -25.9653  -30.7832   21.3780 C   0  0  0  0  0  0
  -26.0379  -29.4098   20.7191 C   0  0  0  0  0  0
  -27.2145  -28.5997   20.7197 C   0  0  0  0  0  0
  -26.0302  -26.8994   19.4659 C   0  0  0  0  0  0
  -24.8682  -27.6917   19.4708 C   0  0  0  0  0  0
  -23.6375  -29.8221   20.1591 C   0  0  0  0  0  0
  -25.4113  -36.3083   24.0329 C   0  0  1  0  0  0
  -20.5890  -28.3689   23.1277 C   0  0  2  0  0  0
  -20.6776  -26.9410   22.5410 C   0  0  0  0  0  0
  -19.5752  -26.6380   21.5211 C   0  0  0  0  0  0
  -18.1932  -26.7925   22.1623 C   0  0  0  0  0  0
  -19.1541  -28.8853   23.2876 C   0  0  0  0  0  0
  -18.9464  -30.1454   23.8894 C   0  0  0  0  0  0
  -17.6465  -30.6584   24.0562 C   0  0  0  0  0  0
  -25.9053  -34.9452   23.5104 C   0  0  0  0  0  0
  -16.5355  -29.9084   23.6328 C   0  0  0  0  0  0
  -16.7275  -28.6500   23.0350 C   0  0  0  0  0  0
  -26.4494  -31.6589   25.0729 C   0  0  0  0  0  0
  -25.3724  -31.3736   26.1454 C   0  0  0  0  0  0
  -27.0336  -30.3009   24.6194 C   0  0  0  0  0  0
  -27.6050  -32.4326   25.7502 C   0  0  0  0  0  0
  -27.5579  -37.1803   24.8464 C   0  0  0  0  0  0
  -21.4195  -29.3042   22.3669 N   0  0  0  0  0  0
  -26.4291  -37.3777   23.9408 N   0  0  0  0  0  0
  -24.6903  -31.0589   22.0984 N   0  0  0  0  0  0
  -23.4201  -28.8155   23.3008 O   0  0  0  0  0  0
  -28.3188  -26.4203   20.2066 O   0  0  0  0  0  0
  -26.5621  -34.8919   22.4670 O   0  0  0  0  0  0
  -23.5434  -32.1399   23.7339 O   0  0  0  0  0  0
  -29.8362  -19.6986   18.6634 C   0  0  0  0  0  0
  -29.9561  -18.5019   17.9427 C   0  0  0  0  0  0
  -29.7122  -18.3971   20.7147 C   0  0  0  0  0  0
  -29.6788  -19.6944   20.0615 C   0  0  0  0  0  0
  -29.9505  -17.2442   18.5793 C   0  0  0  0  0  0
  -29.8791  -17.1426   20.0002 C   0  0  0  0  0  0
  -29.9443  -16.0326   17.6667 C   0  0  0  0  0  0
  -29.5750  -21.0945   20.7920 C   0  0  0  0  0  0
  -28.8011  -22.3230   20.0929 C   0  0  0  0  0  0
  -29.0486  -23.8378   20.5696 C   0  0  0  0  0  0
  -28.0937  -24.9672   19.9588 C   0  0  0  0  0  0
  -29.8370  -15.8148   20.6550 N   0  0  0  0  0  0
  -31.4799  -12.5175   19.1859 H   0  0  0  0  0  0
  -30.3797  -11.4322   19.9847 H   0  0  0  0  0  0
  -29.7756  -11.6053   17.5815 H   0  0  0  0  0  0
  -29.6937  -13.3299   17.6644 H   0  0  0  0  0  0
  -27.8493  -11.2782   18.9018 H   0  0  0  0  0  0
  -27.3931  -12.5405   17.7921 H   0  0  0  0  0  0
  -27.6495  -14.2486   19.4801 H   0  0  0  0  0  0
  -28.7065  -12.1379   21.4236 H   0  0  0  0  0  0
  -28.4323  -13.8182   21.8029 H   0  0  0  0  0  0
  -25.2770   -9.5675   22.4756 H   0  0  0  0  0  0
  -24.0006   -7.4627   22.7466 H   0  0  0  0  0  0
  -21.0846   -8.8780   19.8950 H   0  0  0  0  0  0
  -22.3708  -10.9675   19.6168 H   0  0  0  0  0  0
  -21.2007   -7.6147   23.9722 H   0  0  0  0  0  0
  -21.1483   -6.0518   25.9081 H   0  0  0  0  0  0
  -22.0597   -2.7610   23.2845 H   0  0  0  0  0  0
  -22.4095  -11.9890   22.4822 H   0  0  0  0  0  0
  -21.1097  -13.1248   22.2626 H   0  0  0  0  0  0
  -24.6569  -15.8455   20.5233 H   0  0  0  0  0  0
  -26.2740  -15.6329   20.0846 H   0  0  0  0  0  0
  -26.7183  -32.5439   23.1098 H   0  0  0  0  0  0
  -25.0073  -33.9722   25.0420 H   0  0  0  0  0  0
  -22.7163  -31.3047   21.4033 H   0  0  0  0  0  0
  -23.3751  -35.9624   23.3302 H   0  0  0  0  0  0
  -24.3578  -36.8910   22.2052 H   0  0  0  0  0  0
  -23.7242  -37.6495   23.6658 H   0  0  0  0  0  0
  -26.1004  -31.5461   20.6101 H   0  0  0  0  0  0
  -26.8446  -30.8308   22.0088 H   0  0  0  0  0  0
  -28.1069  -28.9510   21.2185 H   0  0  0  0  0  0
  -25.9640  -25.9532   18.9506 H   0  0  0  0  0  0
  -23.9754  -27.3303   18.9790 H   0  0  0  0  0  0
  -23.7579  -30.6007   19.4049 H   0  0  0  0  0  0
  -22.7569  -29.2536   19.8547 H   0  0  0  0  0  0
  -25.1293  -36.1935   25.0822 H   0  0  0  0  0  0
  -20.9983  -28.3266   24.1397 H   0  0  0  0  0  0
  -20.5670  -26.2301   23.3612 H   0  0  0  0  0  0
  -21.6646  -26.7432   22.1209 H   0  0  0  0  0  0
  -19.6914  -25.6290   21.1243 H   0  0  0  0  0  0
  -19.6689  -27.3188   20.6739 H   0  0  0  0  0  0
  -17.4201  -26.6667   21.4028 H   0  0  0  0  0  0
  -18.0336  -26.0069   22.9022 H   0  0  0  0  0  0
  -19.7942  -30.7267   24.2265 H   0  0  0  0  0  0
  -17.5021  -31.6265   24.5162 H   0  0  0  0  0  0
  -15.5356  -30.2985   23.7653 H   0  0  0  0  0  0
  -15.8676  -28.0818   22.7068 H   0  0  0  0  0  0
  -24.5898  -30.7083   25.7788 H   0  0  0  0  0  0
  -24.8917  -32.2906   26.4871 H   0  0  0  0  0  0
  -25.8046  -30.8922   27.0235 H   0  0  0  0  0  0
  -26.2915  -29.6765   24.1204 H   0  0  0  0  0  0
  -27.4012  -29.7259   25.4704 H   0  0  0  0  0  0
  -27.8795  -30.4289   23.9436 H   0  0  0  0  0  0
  -27.2656  -33.3624   26.2077 H   0  0  0  0  0  0
  -28.3862  -32.6889   25.0334 H   0  0  0  0  0  0
  -28.0715  -31.8454   26.5422 H   0  0  0  0  0  0
  -28.2597  -38.0100   24.7509 H   0  0  0  0  0  0
  -28.1074  -36.2632   24.6289 H   0  0  0  0  0  0
  -27.2298  -37.1454   25.8867 H   0  0  0  0  0  0
  -20.9372  -29.8773   21.6886 H   0  0  0  0  0  0
  -26.0172  -38.2852   24.1408 H   0  0  0  0  0  0
  -29.8647  -20.6238   18.1081 H   0  0  0  0  0  0
  -30.0328  -18.5614   16.8656 H   0  0  0  0  0  0
  -29.6157  -18.3659   21.7911 H   0  0  0  0  0  0
  -29.8265  -16.3143   16.6202 H   0  0  0  0  0  0
  -29.0970  -15.3980   17.9187 H   0  0  0  0  0  0
  -30.8721  -15.4677   17.7436 H   0  0  0  0  0  0
  -30.6031  -21.4097   20.9729 H   0  0  0  0  0  0
  -29.1478  -20.9307   21.7820 H   0  0  0  0  0  0
  -27.7328  -22.1107   20.1465 H   0  0  0  0  0  0
  -29.0291  -22.3291   19.0297 H   0  0  0  0  0  0
  -30.0823  -24.1008   20.3443 H   0  0  0  0  0  0
  -28.9663  -23.8788   21.6559 H   0  0  0  0  0  0
  -27.1004  -24.7008   20.3219 H   0  0  0  0  0  0
  -28.0677  -24.8339   18.8765 H   0  0  0  0  0  0
  -28.9748  -15.6179   21.1406 H   0  0  0  0  0  0
  1 25  1  0  0  0
  1 30  2  0  0  0
  1 82  1  0  0  0
  2  3  1  0  0  0
  2 25  1  0  0  0
  2 83  1  0  0  0
  2 84  1  0  0  0
  3  4  1  0  0  0
  3 85  1  0  0  0
  3 86  1  0  0  0
  4  5  1  0  0  0
  4 87  1  0  0  0
  4 88  1  0  0  0
  5  6  1  0  0  0
  5 26  1  0  0  0
  5 89  1  0  0  0
  6 25  1  0  0  0
  6 90  1  0  0  0
  6 91  1  0  0  0
  7  8  2  0  0  0
  7 26  1  0  0  0
  7 29  1  0  0  0
  8  9  1  0  0  0
  8 22  1  0  0  0
  9 10  1  0  0  0
  9 27  2  0  0  0
 10 11  2  0  0  0
 10 15  1  0  0  0
 11 12  1  0  0  0
 11 92  1  0  0  0
 12 13  2  0  0  0
 12 93  1  0  0  0
 13 14  1  0  0  0
 13 31  1  0  0  0
 14 15  2  0  0  0
 14 94  1  0  0  0
 15 95  1  0  0  0
 16 17  2  0  0  0
 16 21  1  0  0  0
 16 31  1  0  0  0
 17 18  1  0  0  0
 17 96  1  0  0  0
 18 19  2  0  0  0
 18 97  1  0  0  0
 19 20  1  0  0  0
 19 24  1  0  0  0
 20 21  2  0  0  0
 20 98  1  0  0  0
 21 23  1  0  0  0
 22 28  1  0  0  0
 22 32  2  0  0  0
 26 27  1  0  0  0
 28 99  1  0  0  0
 28100  1  0  0  0
 29101  1  0  0  0
 29102  1  0  0  0
 33 34  1  0  0  0
 33 66  1  0  0  0
 33 70  2  0  0  0
 34 36  1  0  0  0
 34 59  1  0  0  0
 34103  1  0  0  0
 35 44  2  0  0  0
 35 45  1  0  0  0
 35 68  1  0  0  0
 36 56  1  0  0  0
 36104  1  0  0  0
 37 39  1  0  0  0
 37 47  1  0  0  0
 37 66  1  0  0  0
 37105  1  0  0  0
 38 43  2  0  0  0
 38 46  1  0  0  0
 38 47  1  0  0  0
 39 64  1  0  0  0
 39 67  2  0  0  0
 40 52  1  0  0  0
 40 53  2  0  0  0
 40 58  1  0  0  0
 41106  1  0  0  0
 41107  1  0  0  0
 41108  1  0  0  0
 41 48  1  0  0  0
 42 43  1  0  0  0
 42 66  1  0  0  0
 42109  1  0  0  0
 42110  1  0  0  0
 43 44  1  0  0  0
 44111  1  0  0  0
 45 46  2  0  0  0
 45112  1  0  0  0
 46113  1  0  0  0
 47114  1  0  0  0
 47115  1  0  0  0
 48 56  1  0  0  0
 48 65  1  0  0  0
 48116  1  0  0  0
 49 50  1  0  0  0
 49 53  1  0  0  0
 49 64  1  0  0  0
 49117  1  0  0  0
 50 51  1  0  0  0
 50118  1  0  0  0
 50119  1  0  0  0
 51 52  1  0  0  0
 51120  1  0  0  0
 51121  1  0  0  0
 52122  1  0  0  0
 52123  1  0  0  0
 53 54  1  0  0  0
 54 55  2  0  0  0
 54124  1  0  0  0
 55 57  1  0  0  0
 55125  1  0  0  0
 56 69  2  0  0  0
 57 58  2  0  0  0
 57126  1  0  0  0
 58127  1  0  0  0
 59 60  1  0  0  0
 59 61  1  0  0  0
 59 62  1  0  0  0
 60128  1  0  0  0
 60129  1  0  0  0
 60130  1  0  0  0
 61131  1  0  0  0
 61132  1  0  0  0
 61133  1  0  0  0
 62134  1  0  0  0
 62135  1  0  0  0
 62136  1  0  0  0
 63 65  1  0  0  0
 63137  1  0  0  0
 63138  1  0  0  0
 63139  1  0  0  0
 64140  1  0  0  0
 65141  1  0  0  0
 68 81  1  0  0  0
 71 72  2  0  0  0
 71 74  1  0  0  0
 71142  1  0  0  0
 72 75  1  0  0  0
 72143  1  0  0  0
 73 74  2  0  0  0
 73 76  1  0  0  0
 73144  1  0  0  0
 74 78  1  0  0  0
 75 76  2  0  0  0
 75 77  1  0  0  0
 76 82  1  0  0  0
 77145  1  0  0  0
 77146  1  0  0  0
 77147  1  0  0  0
 78 79  1  0  0  0
 78148  1  0  0  0
 78149  1  0  0  0
 79 80  1  0  0  0
 79150  1  0  0  0
 79151  1  0  0  0
 80 81  1  0  0  0
 80152  1  0  0  0
 80153  1  0  0  0
 81154  1  0  0  0
 81155  1  0  0  0
 82156  1  0  0  0
M  ISO  4   1 100  68 101  81 101  82 100
M  END
> <chiral flag>
0

> <version>
0

> <s_m_source_file>
/data/baiqing/PycharmProjects/Reinvent-master-3.2/result/LINK_invent/BTK/process_docking_weight1_custom_sum_contain_oxygen_bond_distance_aromatic_linkinvent_7_9_3/rearranged_h_0127.sdf

> <i_m_source_file_index>
45

> <r_mmod_Potential_Energy-OPLS-2005>
125.623222351074

> <r_mmod_Stretch_Energy-OPLS-2005>
101.977119445801

> <r_mmod_Bend_Energy-OPLS-2005>
141.998931884766

> <r_mmod_Torsional_Energy-OPLS-2005>
243.21728515625

> <r_mmod_Improper_Torsional_Energy-OPLS-2005>
5.56820583343506

> <r_mmod_Van_der_Waal_Energy-OPLS-2005>
146.844650268555

> <r_mmod_Electrostatic_Energy-OPLS-2005>
-377.535827636719

> <r_mmod_Solvation_Energy-OPLS-2005>
-205.289993286133

> <b_mmod_Minimization_Converged-OPLS-2005>
0

> <r_mmod_RMS_Derivative-OPLS-2005>
0.365159332752228

$$$$
45
                    3D
 Structure written by MMmdl.
166175  0  0  1  0            999 V2000
  -30.6175  -14.5831   20.5901 C   0  0  0  0  0  0
  -30.4576  -12.3872   19.4253 C   0  0  0  0  0  0
  -29.5251  -12.5417   18.2033 C   0  0  0  0  0  0
  -28.0405  -12.3824   18.6045 C   0  0  0  0  0  0
  -27.6705  -13.2050   19.8686 C   0  0  2  0  0  0
  -28.7087  -12.9781   20.9870 C   0  0  0  0  0  0
  -25.2638  -13.8138   20.5674 C   0  0  0  0  0  0
  -24.1871  -13.0436   20.9151 C   0  0  0  0  0  0
  -24.6370  -11.6893   20.8633 C   0  0  0  0  0  0
  -23.9028  -10.4300   21.0367 C   0  0  0  0  0  0
  -24.3581   -9.4230   21.9153 C   0  0  0  0  0  0
  -23.6294   -8.2235   22.0724 C   0  0  0  0  0  0
  -22.4275   -8.0256   21.3532 C   0  0  0  0  0  0
  -21.9874   -9.0218   20.4636 C   0  0  0  0  0  0
  -22.7178  -10.2117   20.3043 C   0  0  0  0  0  0
  -21.6858   -6.0741   22.5302 C   0  0  0  0  0  0
  -21.3992   -6.5640   23.8229 C   0  0  0  0  0  0
  -21.3636   -5.6778   24.9189 C   0  0  0  0  0  0
  -21.6046   -4.3047   24.7239 C   0  0  0  0  0  0
  -21.8802   -3.8154   23.4361 C   0  0  0  0  0  0
  -21.9180   -4.6960   22.3403 C   0  0  0  0  0  0
  -22.7880  -13.5276   21.1802 C   0  0  0  0  0  0
  -22.1671   -4.2138   21.0979 F   0  0  0  0  0  0
  -21.5630   -3.4516   25.7751 F   0  0  0  0  0  0
  -30.0304  -13.3522   20.4564 N   0  0  0  0  0  0
  -26.3084  -12.9292   20.3304 N   0  0  0  0  0  0
  -25.9319  -11.6449   20.5634 N   0  0  0  0  0  0
  -22.0448  -12.8304   22.0362 N   0  0  0  0  0  0
  -25.4355  -15.1841   20.3999 N   0  0  0  0  0  0
  -31.7248  -14.8448   20.1091 O   0  0  0  0  0  0
  -21.6619   -6.8861   21.4250 O   0  0  0  0  0  0
  -22.3580  -14.5574   20.6637 O   0  0  0  0  0  0
  -24.6259  -31.8595   23.1996 C   0  0  0  0  0  0
  -25.9100  -32.4762   23.8316 C   0  0  1  0  0  0
  -27.2153  -27.3135   20.0719 C   0  0  0  0  0  0
  -25.5900  -33.8556   24.2236 N   0  0  0  0  0  0
  -23.4160  -30.4824   21.5479 C   0  0  2  0  0  0
  -24.8547  -28.9342   20.1116 C   0  0  0  0  0  0
  -22.7461  -29.4611   22.4965 C   0  0  0  0  0  0
  -18.0282  -28.1352   22.8489 C   0  0  0  0  0  0
  -24.1511  -36.7300   23.2627 C   0  0  0  0  0  0
  -25.9608  -30.7795   21.3766 C   0  0  0  0  0  0
  -26.0301  -29.4099   20.7108 C   0  0  0  0  0  0
  -27.2095  -28.6081   20.6836 C   0  0  0  0  0  0
  -26.0055  -26.8788   19.4858 C   0  0  0  0  0  0
  -24.8470  -27.6738   19.4998 C   0  0  0  0  0  0
  -23.6255  -29.8156   20.1635 C   0  0  0  0  0  0
  -25.4120  -36.3052   24.0322 C   0  0  1  0  0  0
  -20.5874  -28.3650   23.1302 C   0  0  2  0  0  0
  -20.6763  -26.9369   22.5416 C   0  0  0  0  0  0
  -19.5739  -26.6352   21.5220 C   0  0  0  0  0  0
  -18.1917  -26.7899   22.1620 C   0  0  0  0  0  0
  -19.1529  -28.8813   23.2885 C   0  0  0  0  0  0
  -18.9448  -30.1430   23.8877 C   0  0  0  0  0  0
  -17.6444  -30.6569   24.0538 C   0  0  0  0  0  0
  -25.9069  -34.9432   23.5080 C   0  0  0  0  0  0
  -16.5338  -29.9052   23.6318 C   0  0  0  0  0  0
  -16.7261  -28.6470   23.0336 C   0  0  0  0  0  0
  -26.4473  -31.6561   25.0693 C   0  0  0  0  0  0
  -25.3724  -31.3709   26.1440 C   0  0  0  0  0  0
  -27.0306  -30.2963   24.6193 C   0  0  0  0  0  0
  -27.6038  -32.4294   25.7442 C   0  0  0  0  0  0
  -27.5623  -37.1770   24.8426 C   0  0  0  0  0  0
  -21.4166  -29.3018   22.3710 N   0  0  0  0  0  0
  -26.4286  -37.3764   23.9440 N   0  0  0  0  0  0
  -24.6851  -31.0583   22.0967 N   0  0  0  0  0  0
  -23.4186  -28.8144   23.3020 O   0  0  0  0  0  0
  -28.3674  -26.5105   20.0613 O   0  0  0  0  0  0
  -26.5655  -34.8910   22.4660 O   0  0  0  0  0  0
  -23.5413  -32.1415   23.7327 O   0  0  0  0  0  0
  -29.5017  -20.3442   19.8597 C   0  0  0  0  0  0
  -26.0699  -21.0684   19.2496 C   0  0  0  0  0  0
  -27.3405  -20.7457   18.4522 C   0  0  0  0  0  0
  -26.3191  -22.5195   19.6529 C   0  0  0  0  0  0
  -30.9434  -17.8653   21.5095 C   0  0  0  0  0  0
  -28.5136  -21.4197   19.2310 C   0  0  1  0  0  0
  -27.7789  -22.4816   20.1670 C   0  0  1  0  0  0
  -30.1901  -17.9708   20.1946 C   0  0  1  0  0  0
  -29.7410  -16.9739   21.2840 C   0  0  1  0  0  0
  -31.9583  -20.6601   19.1517 C   0  0  0  0  0  0
  -30.8708  -20.9247   20.2029 C   0  0  0  0  0  0
  -28.3332  -23.9367   20.5161 C   0  0  0  0  0  0
  -28.3855  -25.1425   19.4919 C   0  0  0  0  0  0
  -29.2092  -19.0818   19.9994 N   0  0  0  0  0  0
  -29.8022  -15.5104   21.1704 N   0  0  0  0  0  0
  -31.4962  -12.5462   19.1300 H   0  0  0  0  0  0
  -30.4188  -11.3695   19.8207 H   0  0  0  0  0  0
  -29.7939  -11.8132   17.4358 H   0  0  0  0  0  0
  -29.6700  -13.5262   17.7489 H   0  0  0  0  0  0
  -27.8581  -11.3258   18.7952 H   0  0  0  0  0  0
  -27.3932  -12.6658   17.7743 H   0  0  0  0  0  0
  -27.7132  -14.2568   19.5814 H   0  0  0  0  0  0
  -28.7149  -11.9334   21.2977 H   0  0  0  0  0  0
  -28.4420  -13.5308   21.8882 H   0  0  0  0  0  0
  -25.2734   -9.5747   22.4711 H   0  0  0  0  0  0
  -24.0026   -7.4645   22.7434 H   0  0  0  0  0  0
  -21.0811   -8.8742   19.8956 H   0  0  0  0  0  0
  -22.3640  -10.9643   19.6134 H   0  0  0  0  0  0
  -21.1986   -7.6147   23.9755 H   0  0  0  0  0  0
  -21.1469   -6.0490   25.9091 H   0  0  0  0  0  0
  -22.0598   -2.7614   23.2851 H   0  0  0  0  0  0
  -22.4014  -12.0073   22.4982 H   0  0  0  0  0  0
  -21.1036  -13.1361   22.2404 H   0  0  0  0  0  0
  -24.6575  -15.8326   20.4733 H   0  0  0  0  0  0
  -26.2919  -15.6263   20.0856 H   0  0  0  0  0  0
  -26.7140  -32.5397   23.1025 H   0  0  0  0  0  0
  -24.9961  -33.9680   25.0318 H   0  0  0  0  0  0
  -22.7091  -31.3024   21.4065 H   0  0  0  0  0  0
  -23.3804  -35.9608   23.3190 H   0  0  0  0  0  0
  -24.3625  -36.9025   22.2065 H   0  0  0  0  0  0
  -23.7266  -37.6461   23.6738 H   0  0  0  0  0  0
  -26.1160  -31.5550   20.6231 H   0  0  0  0  0  0
  -26.8295  -30.8063   22.0221 H   0  0  0  0  0  0
  -28.1128  -28.9712   21.1518 H   0  0  0  0  0  0
  -25.9037  -25.9144   19.0137 H   0  0  0  0  0  0
  -23.9435  -27.2995   19.0380 H   0  0  0  0  0  0
  -23.7340  -30.5891   19.4033 H   0  0  0  0  0  0
  -22.7453  -29.2412   19.8672 H   0  0  0  0  0  0
  -25.1313  -36.1861   25.0822 H   0  0  0  0  0  0
  -20.9971  -28.3198   24.1426 H   0  0  0  0  0  0
  -20.5682  -26.2224   23.3594 H   0  0  0  0  0  0
  -21.6624  -26.7420   22.1200 H   0  0  0  0  0  0
  -19.6887  -25.6273   21.1220 H   0  0  0  0  0  0
  -19.6675  -27.3173   20.6760 H   0  0  0  0  0  0
  -17.4193  -26.6656   21.4011 H   0  0  0  0  0  0
  -18.0300  -26.0052   22.9018 H   0  0  0  0  0  0
  -19.7919  -30.7251   24.2237 H   0  0  0  0  0  0
  -17.5000  -31.6259   24.5122 H   0  0  0  0  0  0
  -15.5331  -30.2928   23.7697 H   0  0  0  0  0  0
  -15.8665  -28.0808   22.7035 H   0  0  0  0  0  0
  -24.5882  -30.7075   25.7769 H   0  0  0  0  0  0
  -24.8949  -32.2881   26.4885 H   0  0  0  0  0  0
  -25.8058  -30.8862   27.0196 H   0  0  0  0  0  0
  -26.2865  -29.6700   24.1267 H   0  0  0  0  0  0
  -27.3990  -29.7223   25.4699 H   0  0  0  0  0  0
  -27.8747  -30.4174   23.9408 H   0  0  0  0  0  0
  -27.2659  -33.3581   26.2023 H   0  0  0  0  0  0
  -28.3826  -32.6871   25.0267 H   0  0  0  0  0  0
  -28.0753  -31.8448   26.5335 H   0  0  0  0  0  0
  -28.2512  -38.0187   24.7624 H   0  0  0  0  0  0
  -28.1220  -36.2721   24.6026 H   0  0  0  0  0  0
  -27.2354  -37.1153   25.8813 H   0  0  0  0  0  0
  -20.9315  -29.8748   21.6963 H   0  0  0  0  0  0
  -26.0144  -38.2813   24.1510 H   0  0  0  0  0  0
  -25.9927  -20.4369   20.1396 H   0  0  0  0  0  0
  -25.1462  -20.9310   18.6846 H   0  0  0  0  0  0
  -27.2527  -21.2146   17.4689 H   0  0  0  0  0  0
  -27.4630  -19.6767   18.2543 H   0  0  0  0  0  0
  -25.5942  -22.8904   20.3804 H   0  0  0  0  0  0
  -26.2320  -23.1530   18.7647 H   0  0  0  0  0  0
  -30.8342  -18.6667   22.2381 H   0  0  0  0  0  0
  -31.9298  -17.4033   21.4859 H   0  0  0  0  0  0
  -29.0884  -21.9758   18.4907 H   0  0  0  0  0  0
  -27.7171  -21.9805   21.1371 H   0  0  0  0  0  0
  -30.6375  -17.5874   19.2789 H   0  0  0  0  0  0
  -28.8921  -17.2901   21.8887 H   0  0  0  0  0  0
  -32.9190  -21.0348   19.5054 H   0  0  0  0  0  0
  -31.7305  -21.1550   18.2055 H   0  0  0  0  0  0
  -32.0935  -19.5958   18.9515 H   0  0  0  0  0  0
  -31.1878  -20.5459   21.1730 H   0  0  0  0  0  0
  -30.7714  -22.0009   20.3356 H   0  0  0  0  0  0
  -29.3225  -23.8264   20.9606 H   0  0  0  0  0  0
  -27.7047  -24.2799   21.3396 H   0  0  0  0  0  0
  -27.6779  -25.0113   18.6745 H   0  0  0  0  0  0
  -29.3484  -25.0545   18.9842 H   0  0  0  0  0  0
  -28.9740  -15.0705   21.5411 H   0  0  0  0  0  0
  1 25  1  0  0  0
  1 30  2  0  0  0
  1 85  1  0  0  0
  2  3  1  0  0  0
  2 25  1  0  0  0
  2 86  1  0  0  0
  2 87  1  0  0  0
  3  4  1  0  0  0
  3 88  1  0  0  0
  3 89  1  0  0  0
  4  5  1  0  0  0
  4 90  1  0  0  0
  4 91  1  0  0  0
  5  6  1  0  0  0
  5 26  1  0  0  0
  5 92  1  0  0  0
  6 25  1  0  0  0
  6 93  1  0  0  0
  6 94  1  0  0  0
  7  8  2  0  0  0
  7 26  1  0  0  0
  7 29  1  0  0  0
  8  9  1  0  0  0
  8 22  1  0  0  0
  9 10  1  0  0  0
  9 27  2  0  0  0
 10 11  2  0  0  0
 10 15  1  0  0  0
 11 12  1  0  0  0
 11 95  1  0  0  0
 12 13  2  0  0  0
 12 96  1  0  0  0
 13 14  1  0  0  0
 13 31  1  0  0  0
 14 15  2  0  0  0
 14 97  1  0  0  0
 15 98  1  0  0  0
 16 17  2  0  0  0
 16 21  1  0  0  0
 16 31  1  0  0  0
 17 18  1  0  0  0
 17 99  1  0  0  0
 18 19  2  0  0  0
 18100  1  0  0  0
 19 20  1  0  0  0
 19 24  1  0  0  0
 20 21  2  0  0  0
 20101  1  0  0  0
 21 23  1  0  0  0
 22 28  1  0  0  0
 22 32  2  0  0  0
 26 27  1  0  0  0
 28102  1  0  0  0
 28103  1  0  0  0
 29104  1  0  0  0
 29105  1  0  0  0
 33 34  1  0  0  0
 33 66  1  0  0  0
 33 70  2  0  0  0
 34 36  1  0  0  0
 34 59  1  0  0  0
 34106  1  0  0  0
 35 44  2  0  0  0
 35 45  1  0  0  0
 35 68  1  0  0  0
 36 56  1  0  0  0
 36107  1  0  0  0
 37 39  1  0  0  0
 37 47  1  0  0  0
 37 66  1  0  0  0
 37108  1  0  0  0
 38 43  2  0  0  0
 38 46  1  0  0  0
 38 47  1  0  0  0
 39 64  1  0  0  0
 39 67  2  0  0  0
 40 52  1  0  0  0
 40 53  2  0  0  0
 40 58  1  0  0  0
 41109  1  0  0  0
 41110  1  0  0  0
 41111  1  0  0  0
 41 48  1  0  0  0
 42 43  1  0  0  0
 42 66  1  0  0  0
 42112  1  0  0  0
 42113  1  0  0  0
 43 44  1  0  0  0
 44114  1  0  0  0
 45 46  2  0  0  0
 45115  1  0  0  0
 46116  1  0  0  0
 47117  1  0  0  0
 47118  1  0  0  0
 48 56  1  0  0  0
 48 65  1  0  0  0
 48119  1  0  0  0
 49 50  1  0  0  0
 49 53  1  0  0  0
 49 64  1  0  0  0
 49120  1  0  0  0
 50 51  1  0  0  0
 50121  1  0  0  0
 50122  1  0  0  0
 51 52  1  0  0  0
 51123  1  0  0  0
 51124  1  0  0  0
 52125  1  0  0  0
 52126  1  0  0  0
 53 54  1  0  0  0
 54 55  2  0  0  0
 54127  1  0  0  0
 55 57  1  0  0  0
 55128  1  0  0  0
 56 69  2  0  0  0
 57 58  2  0  0  0
 57129  1  0  0  0
 58130  1  0  0  0
 59 60  1  0  0  0
 59 61  1  0  0  0
 59 62  1  0  0  0
 60131  1  0  0  0
 60132  1  0  0  0
 60133  1  0  0  0
 61134  1  0  0  0
 61135  1  0  0  0
 61136  1  0  0  0
 62137  1  0  0  0
 62138  1  0  0  0
 62139  1  0  0  0
 63 65  1  0  0  0
 63140  1  0  0  0
 63141  1  0  0  0
 63142  1  0  0  0
 64143  1  0  0  0
 65144  1  0  0  0
 68 83  1  0  0  0
 71 81  1  0  0  0
 71 84  2  0  0  0
 71 76  1  0  0  0
 72 73  1  0  0  0
 72 74  1  0  0  0
 72145  1  0  0  0
 72146  1  0  0  0
 73 76  1  0  0  0
 73147  1  0  0  0
 73148  1  0  0  0
 74 77  1  0  0  0
 74149  1  0  0  0
 74150  1  0  0  0
 75 78  1  0  0  0
 75 79  1  0  0  0
 75151  1  0  0  0
 75152  1  0  0  0
 76 77  1  0  0  0
 76153  1  0  0  0
 77 82  1  0  0  0
 77154  1  0  0  0
 78 79  1  0  0  0
 78 84  1  0  0  0
 78155  1  0  0  0
 79 85  1  0  0  0
 79156  1  0  0  0
 80 81  1  0  0  0
 80157  1  0  0  0
 80158  1  0  0  0
 80159  1  0  0  0
 81160  1  0  0  0
 81161  1  0  0  0
 82 83  1  0  0  0
 82162  1  0  0  0
 82163  1  0  0  0
 83164  1  0  0  0
 83165  1  0  0  0
 85166  1  0  0  0
M  ISO  4   1 100  68 101  83 101  85 100
M  END
> <chiral flag>
0

> <version>
0

> <s_m_source_file>
/data/baiqing/PycharmProjects/Reinvent-master-3.2/result/LINK_invent/BTK/process_docking_weight1_custom_sum_contain_oxygen_bond_distance_aromatic_linkinvent_7_9_3/rearranged_h_0127.sdf

> <i_m_source_file_index>
46

> <r_mmod_Potential_Energy-OPLS-2005>
235.885787963867

> <r_mmod_Stretch_Energy-OPLS-2005>
83.0526428222656

> <r_mmod_Bend_Energy-OPLS-2005>
236.151763916016

> <r_mmod_Torsional_Energy-OPLS-2005>
333.729156494141

> <r_mmod_Improper_Torsional_Energy-OPLS-2005>
3.95763206481934

> <r_mmod_Van_der_Waal_Energy-OPLS-2005>
123.703430175781

> <r_mmod_Electrostatic_Energy-OPLS-2005>
-382.230773925781

> <r_mmod_Solvation_Energy-OPLS-2005>
-201.518508911133

> <b_mmod_Minimization_Converged-OPLS-2005>
0

> <r_mmod_RMS_Derivative-OPLS-2005>
7.27310943603516

$$$$
46
                    3D
 Structure written by MMmdl.
157165  0  0  1  0            999 V2000
  -30.4104  -15.2443   20.3473 C   0  0  0  0  0  0
  -30.4355  -12.7744   19.5505 C   0  0  0  0  0  0
  -29.5257  -12.5847   18.3081 C   0  0  0  0  0  0
  -28.0639  -12.3410   18.7178 C   0  0  0  0  0  0
  -27.6207  -13.2834   19.8636 C   0  0  2  0  0  0
  -28.6612  -13.4000   20.9987 C   0  0  0  0  0  0
  -25.2445  -13.8348   20.5914 C   0  0  0  0  0  0
  -24.1767  -13.0504   20.9362 C   0  0  0  0  0  0
  -24.6437  -11.7015   20.8874 C   0  0  0  0  0  0
  -23.9171  -10.4313   21.0434 C   0  0  0  0  0  0
  -24.3706   -9.4162   21.9145 C   0  0  0  0  0  0
  -23.6345   -8.2201   22.0660 C   0  0  0  0  0  0
  -22.4287   -8.0296   21.3522 C   0  0  0  0  0  0
  -22.0029   -9.0291   20.4601 C   0  0  0  0  0  0
  -22.7394  -10.2151   20.3027 C   0  0  0  0  0  0
  -21.6856   -6.0773   22.5261 C   0  0  0  0  0  0
  -21.4037   -6.5652   23.8216 C   0  0  0  0  0  0
  -21.3655   -5.6760   24.9155 C   0  0  0  0  0  0
  -21.6040   -4.3049   24.7174 C   0  0  0  0  0  0
  -21.8837   -3.8167   23.4301 C   0  0  0  0  0  0
  -21.9197   -4.6998   22.3370 C   0  0  0  0  0  0
  -22.7754  -13.5181   21.1995 C   0  0  0  0  0  0
  -22.1666   -4.2203   21.0929 F   0  0  0  0  0  0
  -21.5606   -3.4501   25.7686 F   0  0  0  0  0  0
  -29.8899  -13.9179   20.3741 N   0  0  0  0  0  0
  -26.2852  -12.9639   20.3461 N   0  0  0  0  0  0
  -25.9352  -11.6723   20.5871 N   0  0  0  0  0  0
  -22.0433  -12.8100   22.0570 N   0  0  0  0  0  0
  -25.4202  -15.2068   20.4343 N   0  0  0  0  0  0
  -31.6156  -15.2774   20.0610 O   0  0  0  0  0  0
  -21.6610   -6.8930   21.4241 O   0  0  0  0  0  0
  -22.3360  -14.5395   20.6793 O   0  0  0  0  0  0
  -24.6656  -31.8144   23.1665 C   0  0  0  0  0  0
  -25.9329  -32.4505   23.8113 C   0  0  1  0  0  0
  -27.2026  -26.8975   20.1634 C   0  0  0  0  0  0
  -25.5979  -33.8323   24.1994 N   0  0  0  0  0  0
  -23.4768  -30.4296   21.5158 C   0  0  2  0  0  0
  -24.9166  -28.7933   20.1316 C   0  0  0  0  0  0
  -22.7648  -29.4452   22.4790 C   0  0  0  0  0  0
  -18.0344  -28.1506   22.8343 C   0  0  0  0  0  0
  -24.1498  -36.7196   23.2636 C   0  0  0  0  0  0
  -26.0473  -30.6106   21.3931 C   0  0  0  0  0  0
  -26.1132  -29.1971   20.7387 C   0  0  0  0  0  0
  -27.2569  -28.2764   20.7169 C   0  0  0  0  0  0
  -25.9572  -26.6258   19.5646 C   0  0  0  0  0  0
  -24.8584  -27.5211   19.5383 C   0  0  0  0  0  0
  -23.7149  -29.7330   20.1507 C   0  0  0  0  0  0
  -25.4127  -36.2916   24.0282 C   0  0  1  0  0  0
  -20.5959  -28.3802   23.1230 C   0  0  2  0  0  0
  -20.6855  -26.9430   22.5559 C   0  0  0  0  0  0
  -19.5975  -26.6424   21.5190 C   0  0  0  0  0  0
  -18.2020  -26.8088   22.1361 C   0  0  0  0  0  0
  -19.1598  -28.8951   23.2807 C   0  0  0  0  0  0
  -18.9494  -30.1535   23.8879 C   0  0  0  0  0  0
  -17.6490  -30.6642   24.0600 C   0  0  0  0  0  0
  -25.9082  -34.9313   23.4950 C   0  0  0  0  0  0
  -16.5404  -29.9129   23.6336 C   0  0  0  0  0  0
  -16.7329  -28.6599   23.0238 C   0  0  0  0  0  0
  -26.4599  -31.6467   25.0650 C   0  0  0  0  0  0
  -25.3729  -31.3777   26.1305 C   0  0  0  0  0  0
  -27.0469  -30.2803   24.6414 C   0  0  0  0  0  0
  -27.6046  -32.4331   25.7476 C   0  0  0  0  0  0
  -27.5554  -37.1751   24.8445 C   0  0  0  0  0  0
  -21.4340  -29.3051   22.3551 N   0  0  0  0  0  0
  -26.4241  -37.3665   23.9422 N   0  0  0  0  0  0
  -24.7530  -30.9803   22.0789 N   0  0  0  0  0  0
  -23.4162  -28.8005   23.3057 O   0  0  0  0  0  0
  -28.2291  -25.8165   20.1169 O   0  0  0  0  0  0
  -26.5728  -34.8833   22.4565 O   0  0  0  0  0  0
  -23.5729  -32.1167   23.6748 O   0  0  0  0  0  0
  -28.4702  -20.8607   18.2697 C   0  0  0  0  0  0
  -27.6389  -22.1697   18.2851 C   0  0  2  0  0  0
  -28.5276  -22.7037   19.4233 C   0  0  2  0  0  0
  -25.4382  -21.0848   17.4312 C   0  0  0  0  0  0
  -28.1000  -24.1757   20.3625 C   0  0  0  0  0  0
  -29.6513  -18.0659   19.8603 C   0  0  0  0  0  0
  -29.0265  -19.6820   20.4171 C   0  0  0  0  0  0
  -26.0927  -22.1626   18.3270 C   0  0  1  0  0  0
  -29.6110  -16.4916   20.4434 N   0  0  0  0  0  0
  -29.1253  -21.1119   19.5708 N   0  3  1  0  0  0
  -25.6484  -22.0054   19.6574 O   0  0  0  0  0  0
  -31.4565  -12.9677   19.2163 H   0  0  0  0  0  0
  -30.5024  -11.8482   20.1199 H   0  0  0  0  0  0
  -29.8732  -11.7558   17.6926 H   0  0  0  0  0  0
  -29.5936  -13.4808   17.6889 H   0  0  0  0  0  0
  -27.9686  -11.2990   19.0265 H   0  0  0  0  0  0
  -27.4018  -12.4548   17.8572 H   0  0  0  0  0  0
  -27.5574  -14.2760   19.4168 H   0  0  0  0  0  0
  -28.8181  -12.4346   21.4859 H   0  0  0  0  0  0
  -28.3249  -14.0850   21.7774 H   0  0  0  0  0  0
  -25.2831   -9.5572   22.4800 H   0  0  0  0  0  0
  -24.0054   -7.4527   22.7319 H   0  0  0  0  0  0
  -21.0979   -8.8874   19.8857 H   0  0  0  0  0  0
  -22.3908  -10.9733   19.6168 H   0  0  0  0  0  0
  -21.2075   -7.6153   23.9795 H   0  0  0  0  0  0
  -21.1460   -6.0423   25.9070 H   0  0  0  0  0  0
  -22.0663   -2.7633   23.2740 H   0  0  0  0  0  0
  -22.4076  -11.9740   22.4921 H   0  0  0  0  0  0
  -21.1001  -13.1034   22.2761 H   0  0  0  0  0  0
  -24.6811  -15.8858   20.5769 H   0  0  0  0  0  0
  -26.2670  -15.6366   20.0858 H   0  0  0  0  0  0
  -26.7384  -32.5001   23.0800 H   0  0  0  0  0  0
  -25.0073  -33.9355   25.0114 H   0  0  0  0  0  0
  -22.7829  -31.2548   21.3367 H   0  0  0  0  0  0
  -23.3752  -35.9542   23.3283 H   0  0  0  0  0  0
  -24.3544  -36.8844   22.2039 H   0  0  0  0  0  0
  -23.7274  -37.6374   23.6728 H   0  0  0  0  0  0
  -26.2244  -31.3428   20.6066 H   0  0  0  0  0  0
  -26.9129  -30.6644   22.0423 H   0  0  0  0  0  0
  -28.1771  -28.5942   21.1889 H   0  0  0  0  0  0
  -25.8061  -25.6419   19.1479 H   0  0  0  0  0  0
  -23.9321  -27.1829   19.0901 H   0  0  0  0  0  0
  -23.8998  -30.4919   19.3925 H   0  0  0  0  0  0
  -22.8213  -29.1963   19.8285 H   0  0  0  0  0  0
  -25.1374  -36.1667   25.0778 H   0  0  0  0  0  0
  -21.0002  -28.3524   24.1349 H   0  0  0  0  0  0
  -20.5578  -26.2431   23.3816 H   0  0  0  0  0  0
  -21.6823  -26.7426   22.1616 H   0  0  0  0  0  0
  -19.7184  -25.6365   21.1089 H   0  0  0  0  0  0
  -19.6978  -27.3227   20.6748 H   0  0  0  0  0  0
  -17.4434  -26.7067   21.3580 H   0  0  0  0  0  0
  -18.0070  -26.0201   22.8621 H   0  0  0  0  0  0
  -19.7948  -30.7396   24.2266 H   0  0  0  0  0  0
  -17.5020  -31.6220   24.5417 H   0  0  0  0  0  0
  -15.5423  -30.3014   23.7719 H   0  0  0  0  0  0
  -15.8743  -28.0926   22.6903 H   0  0  0  0  0  0
  -24.5918  -30.7084   25.7694 H   0  0  0  0  0  0
  -24.8908  -32.2989   26.4568 H   0  0  0  0  0  0
  -25.7958  -30.9064   27.0173 H   0  0  0  0  0  0
  -26.3129  -29.6464   24.1402 H   0  0  0  0  0  0
  -27.3964  -29.7182   25.5092 H   0  0  0  0  0  0
  -27.9103  -30.3974   23.9866 H   0  0  0  0  0  0
  -27.2560  -33.3682   26.1901 H   0  0  0  0  0  0
  -28.3952  -32.6796   25.0381 H   0  0  0  0  0  0
  -28.0626  -31.8531   26.5489 H   0  0  0  0  0  0
  -28.2556  -38.0068   24.7509 H   0  0  0  0  0  0
  -28.1082  -36.2586   24.6316 H   0  0  0  0  0  0
  -27.2257  -37.1438   25.8835 H   0  0  0  0  0  0
  -20.9621  -29.8694   21.6638 H   0  0  0  0  0  0
  -26.0079  -38.2711   24.1436 H   0  0  0  0  0  0
  -29.1970  -20.8179   17.4530 H   0  0  0  0  0  0
  -27.8489  -19.9575   18.2491 H   0  0  0  0  0  0
  -27.9117  -22.7149   17.3784 H   0  0  0  0  0  0
  -29.3896  -23.0961   18.8757 H   0  0  0  0  0  0
  -25.8530  -21.0956   16.4208 H   0  0  0  0  0  0
  -24.3632  -21.2373   17.3207 H   0  0  0  0  0  0
  -25.5791  -20.0688   17.8122 H   0  0  0  0  0  0
  -28.6544  -24.0604   21.2913 H   0  0  0  0  0  0
  -27.0695  -24.0517   20.6847 H   0  0  0  0  0  0
  -30.6694  -18.2233   19.4965 H   0  0  0  0  0  0
  -29.0919  -17.9185   18.9325 H   0  0  0  0  0  0
  -29.5494  -19.9007   21.3503 H   0  0  0  0  0  0
  -27.9764  -19.5813   20.6944 H   0  0  0  0  0  0
  -25.7221  -23.1307   17.9747 H   0  0  0  0  0  0
  -28.7140  -16.2805   20.8602 H   0  0  0  0  0  0
  -30.1148  -21.2260   19.4066 H   0  0  0  0  0  0
  -25.0924  -21.2354   19.6916 H   0  0  0  0  0  0
  1 25  1  0  0  0
  1 30  2  0  0  0
  1 79  1  0  0  0
  2  3  1  0  0  0
  2 25  1  0  0  0
  2 82  1  0  0  0
  2 83  1  0  0  0
  3  4  1  0  0  0
  3 84  1  0  0  0
  3 85  1  0  0  0
  4  5  1  0  0  0
  4 86  1  0  0  0
  4 87  1  0  0  0
  5  6  1  0  0  0
  5 26  1  0  0  0
  5 88  1  0  0  0
  6 25  1  0  0  0
  6 89  1  0  0  0
  6 90  1  0  0  0
  7  8  2  0  0  0
  7 26  1  0  0  0
  7 29  1  0  0  0
  8  9  1  0  0  0
  8 22  1  0  0  0
  9 10  1  0  0  0
  9 27  2  0  0  0
 10 11  2  0  0  0
 10 15  1  0  0  0
 11 12  1  0  0  0
 11 91  1  0  0  0
 12 13  2  0  0  0
 12 92  1  0  0  0
 13 14  1  0  0  0
 13 31  1  0  0  0
 14 15  2  0  0  0
 14 93  1  0  0  0
 15 94  1  0  0  0
 16 17  2  0  0  0
 16 21  1  0  0  0
 16 31  1  0  0  0
 17 18  1  0  0  0
 17 95  1  0  0  0
 18 19  2  0  0  0
 18 96  1  0  0  0
 19 20  1  0  0  0
 19 24  1  0  0  0
 20 21  2  0  0  0
 20 97  1  0  0  0
 21 23  1  0  0  0
 22 28  1  0  0  0
 22 32  2  0  0  0
 26 27  1  0  0  0
 28 98  1  0  0  0
 28 99  1  0  0  0
 29100  1  0  0  0
 29101  1  0  0  0
 33 34  1  0  0  0
 33 66  1  0  0  0
 33 70  2  0  0  0
 34 36  1  0  0  0
 34 59  1  0  0  0
 34102  1  0  0  0
 35 44  2  0  0  0
 35 45  1  0  0  0
 35 68  1  0  0  0
 36 56  1  0  0  0
 36103  1  0  0  0
 37 39  1  0  0  0
 37 47  1  0  0  0
 37 66  1  0  0  0
 37104  1  0  0  0
 38 43  2  0  0  0
 38 46  1  0  0  0
 38 47  1  0  0  0
 39 64  1  0  0  0
 39 67  2  0  0  0
 40 52  1  0  0  0
 40 53  2  0  0  0
 40 58  1  0  0  0
 41105  1  0  0  0
 41106  1  0  0  0
 41107  1  0  0  0
 41 48  1  0  0  0
 42 43  1  0  0  0
 42 66  1  0  0  0
 42108  1  0  0  0
 42109  1  0  0  0
 43 44  1  0  0  0
 44110  1  0  0  0
 45 46  2  0  0  0
 45111  1  0  0  0
 46112  1  0  0  0
 47113  1  0  0  0
 47114  1  0  0  0
 48 56  1  0  0  0
 48 65  1  0  0  0
 48115  1  0  0  0
 49 50  1  0  0  0
 49 53  1  0  0  0
 49 64  1  0  0  0
 49116  1  0  0  0
 50 51  1  0  0  0
 50117  1  0  0  0
 50118  1  0  0  0
 51 52  1  0  0  0
 51119  1  0  0  0
 51120  1  0  0  0
 52121  1  0  0  0
 52122  1  0  0  0
 53 54  1  0  0  0
 54 55  2  0  0  0
 54123  1  0  0  0
 55 57  1  0  0  0
 55124  1  0  0  0
 56 69  2  0  0  0
 57 58  2  0  0  0
 57125  1  0  0  0
 58126  1  0  0  0
 59 60  1  0  0  0
 59 61  1  0  0  0
 59 62  1  0  0  0
 60127  1  0  0  0
 60128  1  0  0  0
 60129  1  0  0  0
 61130  1  0  0  0
 61131  1  0  0  0
 61132  1  0  0  0
 62133  1  0  0  0
 62134  1  0  0  0
 62135  1  0  0  0
 63 65  1  0  0  0
 63136  1  0  0  0
 63137  1  0  0  0
 63138  1  0  0  0
 64139  1  0  0  0
 65140  1  0  0  0
 68 75  1  0  0  0
 71 80  1  0  0  0
 71141  1  0  0  0
 71142  1  0  0  0
 71 72  1  0  0  0
 72 73  1  0  0  0
 72 78  1  0  0  0
 72143  1  0  0  0
 73 75  1  0  0  0
 73 80  1  0  0  0
 73144  1  0  0  0
 74145  1  0  0  0
 74146  1  0  0  0
 74147  1  0  0  0
 74 78  1  0  0  0
 75148  1  0  0  0
 75149  1  0  0  0
 76 77  1  0  0  0
 76 79  1  0  0  0
 76150  1  0  0  0
 76151  1  0  0  0
 77152  1  0  0  0
 77153  1  0  0  0
 77 80  1  0  0  0
 78 81  1  0  0  0
 78154  1  0  0  0
 79155  1  0  0  0
 80156  1  0  0  0
 81157  1  0  0  0
M  CHG  1  80   1
M  ISO  4   1 100  68 101  75 101  79 100
M  END
> <chiral flag>
0

> <version>
0

> <s_m_source_file>
/data/baiqing/PycharmProjects/Reinvent-master-3.2/result/LINK_invent/BTK/process_docking_weight1_custom_sum_contain_oxygen_bond_distance_aromatic_linkinvent_7_9_3/rearranged_h_0127.sdf

> <i_m_source_file_index>
47

> <r_mmod_Potential_Energy-OPLS-2005>
1290.40246582031

> <r_mmod_Stretch_Energy-OPLS-2005>
648.710815429688

> <r_mmod_Bend_Energy-OPLS-2005>
615.831970214844

> <r_mmod_Torsional_Energy-OPLS-2005>
293.370086669922

> <r_mmod_Improper_Torsional_Energy-OPLS-2005>
4.30027914047241

> <r_mmod_Van_der_Waal_Energy-OPLS-2005>
105.541328430176

> <r_mmod_Electrostatic_Energy-OPLS-2005>
-333.199401855469

> <r_mmod_Solvation_Energy-OPLS-2005>
-499.759552001953

> <b_mmod_Minimization_Converged-OPLS-2005>
0

> <r_mmod_RMS_Derivative-OPLS-2005>
9.02799320220947

$$$$
47
                    3D
 Structure written by MMmdl.
162171  0  0  1  0            999 V2000
  -30.5985  -14.7164   20.5166 C   0  0  0  0  0  0
  -30.4413  -12.4538   19.4579 C   0  0  0  0  0  0
  -29.5137  -12.5167   18.2230 C   0  0  0  0  0  0
  -28.0348  -12.3458   18.6321 C   0  0  0  0  0  0
  -27.6428  -13.2281   19.8480 C   0  0  2  0  0  0
  -28.6855  -13.1237   20.9813 C   0  0  0  0  0  0
  -25.2512  -13.8184   20.5681 C   0  0  0  0  0  0
  -24.1799  -13.0435   20.9204 C   0  0  0  0  0  0
  -24.6382  -11.6915   20.8728 C   0  0  0  0  0  0
  -23.9066  -10.4288   21.0391 C   0  0  0  0  0  0
  -24.3620   -9.4200   21.9162 C   0  0  0  0  0  0
  -23.6296   -8.2233   22.0746 C   0  0  0  0  0  0
  -22.4264   -8.0271   21.3551 C   0  0  0  0  0  0
  -21.9893   -9.0245   20.4655 C   0  0  0  0  0  0
  -22.7228  -10.2123   20.3049 C   0  0  0  0  0  0
  -21.6841   -6.0732   22.5280 C   0  0  0  0  0  0
  -21.4019   -6.5636   23.8217 C   0  0  0  0  0  0
  -21.3665   -5.6782   24.9169 C   0  0  0  0  0  0
  -21.6031   -4.3044   24.7221 C   0  0  0  0  0  0
  -21.8816   -3.8146   23.4341 C   0  0  0  0  0  0
  -21.9193   -4.6965   22.3396 C   0  0  0  0  0  0
  -22.7823  -13.5223   21.1876 C   0  0  0  0  0  0
  -22.1654   -4.2159   21.0975 F   0  0  0  0  0  0
  -21.5634   -3.4526   25.7734 F   0  0  0  0  0  0
  -29.9853  -13.4911   20.4069 N   0  0  0  0  0  0
  -26.2935  -12.9388   20.3237 N   0  0  0  0  0  0
  -25.9313  -11.6549   20.5719 N   0  0  0  0  0  0
  -22.0465  -12.8222   22.0431 N   0  0  0  0  0  0
  -25.4199  -15.1906   20.4095 N   0  0  0  0  0  0
  -31.7892  -14.8485   20.2261 O   0  0  0  0  0  0
  -21.6628   -6.8868   21.4238 O   0  0  0  0  0  0
  -22.3512  -14.5514   20.6711 O   0  0  0  0  0  0
  -24.6293  -31.8571   23.1972 C   0  0  0  0  0  0
  -25.9134  -32.4758   23.8307 C   0  0  1  0  0  0
  -27.2167  -27.2754   20.1530 C   0  0  0  0  0  0
  -25.5930  -33.8551   24.2240 N   0  0  0  0  0  0
  -23.4251  -30.4785   21.5392 C   0  0  2  0  0  0
  -24.8738  -28.9254   20.1099 C   0  0  0  0  0  0
  -22.7496  -29.4598   22.4893 C   0  0  0  0  0  0
  -18.0288  -28.1398   22.8476 C   0  0  0  0  0  0
  -24.1483  -36.7266   23.2638 C   0  0  0  0  0  0
  -25.9679  -30.7777   21.3705 C   0  0  0  0  0  0
  -26.0434  -29.3997   20.7193 C   0  0  0  0  0  0
  -27.2213  -28.5879   20.7270 C   0  0  0  0  0  0
  -26.0300  -26.8654   19.5068 C   0  0  0  0  0  0
  -24.8714  -27.6655   19.4894 C   0  0  0  0  0  0
  -23.6444  -29.8115   20.1553 C   0  0  0  0  0  0
  -25.4113  -36.3061   24.0322 C   0  0  1  0  0  0
  -20.5893  -28.3698   23.1259 C   0  0  2  0  0  0
  -20.6765  -26.9409   22.5398 C   0  0  0  0  0  0
  -19.5745  -26.6387   21.5198 C   0  0  0  0  0  0
  -18.1930  -26.7934   22.1618 C   0  0  0  0  0  0
  -19.1546  -28.8862   23.2866 C   0  0  0  0  0  0
  -18.9473  -30.1464   23.8895 C   0  0  0  0  0  0
  -17.6476  -30.6593   24.0560 C   0  0  0  0  0  0
  -25.9055  -34.9435   23.5082 C   0  0  0  0  0  0
  -16.5362  -29.9097   23.6325 C   0  0  0  0  0  0
  -16.7279  -28.6510   23.0343 C   0  0  0  0  0  0
  -26.4525  -31.6571   25.0681 C   0  0  0  0  0  0
  -25.3771  -31.3719   26.1421 C   0  0  0  0  0  0
  -27.0340  -30.2983   24.6116 C   0  0  0  0  0  0
  -27.6071  -32.4314   25.7470 C   0  0  0  0  0  0
  -27.5566  -37.1787   24.8472 C   0  0  0  0  0  0
  -21.4194  -29.3041   22.3640 N   0  0  0  0  0  0
  -26.4278  -37.3767   23.9426 N   0  0  0  0  0  0
  -24.6933  -31.0558   22.0924 N   0  0  0  0  0  0
  -23.4202  -28.8143   23.2988 O   0  0  0  0  0  0
  -28.3022  -26.3772   20.1921 O   0  0  0  0  0  0
  -26.5632  -34.8908   22.4653 O   0  0  0  0  0  0
  -23.5450  -32.1359   23.7287 O   0  0  0  0  0  0
  -29.8721  -20.9955   18.9156 C   0  0  0  0  0  0
  -30.5149  -18.6471   19.1131 C   0  0  0  0  0  0
  -30.4810  -19.8389   18.3938 C   0  0  0  0  0  0
  -29.2832  -20.9409   20.2015 C   0  0  0  0  0  0
  -29.9267  -18.5320   20.3891 C   0  0  0  0  0  0
  -31.3225  -17.6286   18.3730 C   0  0  0  0  0  0
  -31.8742  -18.4685   17.2033 C   0  0  0  0  0  0
  -28.3866  -25.1568   22.2713 C   0  0  0  0  0  0
  -28.6013  -22.2419   20.8166 C   0  0  0  0  0  0
  -30.1165  -17.2172   21.2632 C   0  0  0  0  0  0
  -28.8249  -23.7132   20.1607 C   0  0  0  0  0  0
  -28.0733  -25.0104   20.7729 C   0  0  2  0  0  0
  -29.3349  -19.7073   20.8681 N   0  3  0  0  0  0
  -31.1497  -19.7465   17.1699 N   0  0  0  0  0  0
  -29.7927  -15.8053   20.7846 N   0  0  0  0  0  0
  -31.4830  -12.5983   19.1637 H   0  0  0  0  0  0
  -30.3939  -11.4697   19.9246 H   0  0  0  0  0  0
  -29.7949  -11.7513   17.4979 H   0  0  0  0  0  0
  -29.6457  -13.4727   17.7139 H   0  0  0  0  0  0
  -27.8747  -11.2947   18.8739 H   0  0  0  0  0  0
  -27.3828  -12.5630   17.7848 H   0  0  0  0  0  0
  -27.6450  -14.2567   19.4875 H   0  0  0  0  0  0
  -28.7185  -12.1095   21.3838 H   0  0  0  0  0  0
  -28.4220  -13.7721   21.8181 H   0  0  0  0  0  0
  -25.2775   -9.5664   22.4727 H   0  0  0  0  0  0
  -24.0011   -7.4606   22.7441 H   0  0  0  0  0  0
  -21.0834   -8.8762   19.8955 H   0  0  0  0  0  0
  -22.3690  -10.9654   19.6157 H   0  0  0  0  0  0
  -21.2013   -7.6146   23.9727 H   0  0  0  0  0  0
  -21.1491   -6.0510   25.9077 H   0  0  0  0  0  0
  -22.0597   -2.7614   23.2830 H   0  0  0  0  0  0
  -22.4093  -11.9919   22.4866 H   0  0  0  0  0  0
  -21.1077  -13.1251   22.2623 H   0  0  0  0  0  0
  -24.6444  -15.8371   20.5046 H   0  0  0  0  0  0
  -26.2524  -15.6259   20.0384 H   0  0  0  0  0  0
  -26.7188  -32.5433   23.1037 H   0  0  0  0  0  0
  -25.0111  -33.9687   25.0410 H   0  0  0  0  0  0
  -22.7198  -31.2985   21.3917 H   0  0  0  0  0  0
  -23.3745  -35.9598   23.3315 H   0  0  0  0  0  0
  -24.3578  -36.8873   22.2048 H   0  0  0  0  0  0
  -23.7220  -37.6465   23.6654 H   0  0  0  0  0  0
  -26.0972  -31.5360   20.5962 H   0  0  0  0  0  0
  -26.8494  -30.8361   21.9969 H   0  0  0  0  0  0
  -28.1191  -28.9466   21.2118 H   0  0  0  0  0  0
  -25.9927  -25.8976   19.0271 H   0  0  0  0  0  0
  -23.9786  -27.2994   19.0019 H   0  0  0  0  0  0
  -23.7716  -30.5855   19.3975 H   0  0  0  0  0  0
  -22.7647  -29.2443   19.8479 H   0  0  0  0  0  0
  -25.1293  -36.1901   25.0810 H   0  0  0  0  0  0
  -20.9992  -28.3293   24.1382 H   0  0  0  0  0  0
  -20.5648  -26.2315   23.3615 H   0  0  0  0  0  0
  -21.6639  -26.7425   22.1212 H   0  0  0  0  0  0
  -19.6906  -25.6303   21.1223 H   0  0  0  0  0  0
  -19.6679  -27.3201   20.6731 H   0  0  0  0  0  0
  -17.4183  -26.6660   21.4031 H   0  0  0  0  0  0
  -18.0346  -26.0099   22.9037 H   0  0  0  0  0  0
  -19.7963  -30.7257   24.2266 H   0  0  0  0  0  0
  -17.5046  -31.6284   24.5157 H   0  0  0  0  0  0
  -15.5369  -30.3002   23.7658 H   0  0  0  0  0  0
  -15.8674  -28.0837   22.7060 H   0  0  0  0  0  0
  -24.5968  -30.7025   25.7785 H   0  0  0  0  0  0
  -24.8948  -32.2891   26.4816 H   0  0  0  0  0  0
  -25.8141  -30.8952   27.0204 H   0  0  0  0  0  0
  -26.2890  -29.6755   24.1142 H   0  0  0  0  0  0
  -27.4044  -29.7211   25.4599 H   0  0  0  0  0  0
  -27.8769  -30.4262   23.9316 H   0  0  0  0  0  0
  -27.2674  -33.3635   26.2003 H   0  0  0  0  0  0
  -28.3926  -32.6839   25.0333 H   0  0  0  0  0  0
  -28.0684  -31.8460   26.5434 H   0  0  0  0  0  0
  -28.2591  -38.0070   24.7514 H   0  0  0  0  0  0
  -28.1044  -36.2603   24.6316 H   0  0  0  0  0  0
  -27.2293  -37.1470   25.8873 H   0  0  0  0  0  0
  -20.9380  -29.8781   21.6868 H   0  0  0  0  0  0
  -26.0146  -38.2830   24.1451 H   0  0  0  0  0  0
  -29.8669  -21.9097   18.3415 H   0  0  0  0  0  0
  -30.6779  -16.8176   18.0309 H   0  0  0  0  0  0
  -32.1206  -17.2151   18.9895 H   0  0  0  0  0  0
  -31.7961  -17.9341   16.2557 H   0  0  0  0  0  0
  -32.9317  -18.6829   17.3673 H   0  0  0  0  0  0
  -28.0796  -24.2727   22.8297 H   0  0  0  0  0  0
  -27.8568  -26.0047   22.7090 H   0  0  0  0  0  0
  -29.4522  -25.3108   22.4475 H   0  0  0  0  0  0
  -28.9092  -22.2831   21.8609 H   0  0  0  0  0  0
  -27.5279  -22.0451   20.8400 H   0  0  0  0  0  0
  -29.5328  -17.3610   22.1733 H   0  0  0  0  0  0
  -31.1542  -17.2186   21.6001 H   0  0  0  0  0  0
  -28.5360  -23.6578   19.1106 H   0  0  0  0  0  0
  -29.8953  -23.9166   20.1589 H   0  0  0  0  0  0
  -27.0097  -24.7802   20.7131 H   0  0  0  0  0  0
  -28.9267  -19.6672   21.8047 H   0  0  0  0  0  0
  -31.6618  -20.5744   16.8819 H   0  0  0  0  0  0
  -28.8186  -15.5642   20.8718 H   0  0  0  0  0  0
  1 25  1  0  0  0
  1 30  2  0  0  0
  1 85  1  0  0  0
  2  3  1  0  0  0
  2 25  1  0  0  0
  2 86  1  0  0  0
  2 87  1  0  0  0
  3  4  1  0  0  0
  3 88  1  0  0  0
  3 89  1  0  0  0
  4  5  1  0  0  0
  4 90  1  0  0  0
  4 91  1  0  0  0
  5  6  1  0  0  0
  5 26  1  0  0  0
  5 92  1  0  0  0
  6 25  1  0  0  0
  6 93  1  0  0  0
  6 94  1  0  0  0
  7  8  2  0  0  0
  7 26  1  0  0  0
  7 29  1  0  0  0
  8  9  1  0  0  0
  8 22  1  0  0  0
  9 10  1  0  0  0
  9 27  2  0  0  0
 10 11  2  0  0  0
 10 15  1  0  0  0
 11 12  1  0  0  0
 11 95  1  0  0  0
 12 13  2  0  0  0
 12 96  1  0  0  0
 13 14  1  0  0  0
 13 31  1  0  0  0
 14 15  2  0  0  0
 14 97  1  0  0  0
 15 98  1  0  0  0
 16 17  2  0  0  0
 16 21  1  0  0  0
 16 31  1  0  0  0
 17 18  1  0  0  0
 17 99  1  0  0  0
 18 19  2  0  0  0
 18100  1  0  0  0
 19 20  1  0  0  0
 19 24  1  0  0  0
 20 21  2  0  0  0
 20101  1  0  0  0
 21 23  1  0  0  0
 22 28  1  0  0  0
 22 32  2  0  0  0
 26 27  1  0  0  0
 28102  1  0  0  0
 28103  1  0  0  0
 29104  1  0  0  0
 29105  1  0  0  0
 33 34  1  0  0  0
 33 66  1  0  0  0
 33 70  2  0  0  0
 34 36  1  0  0  0
 34 59  1  0  0  0
 34106  1  0  0  0
 35 44  2  0  0  0
 35 45  1  0  0  0
 35 68  1  0  0  0
 36 56  1  0  0  0
 36107  1  0  0  0
 37 39  1  0  0  0
 37 47  1  0  0  0
 37 66  1  0  0  0
 37108  1  0  0  0
 38 43  2  0  0  0
 38 46  1  0  0  0
 38 47  1  0  0  0
 39 64  1  0  0  0
 39 67  2  0  0  0
 40 52  1  0  0  0
 40 53  2  0  0  0
 40 58  1  0  0  0
 41109  1  0  0  0
 41110  1  0  0  0
 41111  1  0  0  0
 41 48  1  0  0  0
 42 43  1  0  0  0
 42 66  1  0  0  0
 42112  1  0  0  0
 42113  1  0  0  0
 43 44  1  0  0  0
 44114  1  0  0  0
 45 46  2  0  0  0
 45115  1  0  0  0
 46116  1  0  0  0
 47117  1  0  0  0
 47118  1  0  0  0
 48 56  1  0  0  0
 48 65  1  0  0  0
 48119  1  0  0  0
 49 50  1  0  0  0
 49 53  1  0  0  0
 49 64  1  0  0  0
 49120  1  0  0  0
 50 51  1  0  0  0
 50121  1  0  0  0
 50122  1  0  0  0
 51 52  1  0  0  0
 51123  1  0  0  0
 51124  1  0  0  0
 52125  1  0  0  0
 52126  1  0  0  0
 53 54  1  0  0  0
 54 55  2  0  0  0
 54127  1  0  0  0
 55 57  1  0  0  0
 55128  1  0  0  0
 56 69  2  0  0  0
 57 58  2  0  0  0
 57129  1  0  0  0
 58130  1  0  0  0
 59 60  1  0  0  0
 59 61  1  0  0  0
 59 62  1  0  0  0
 60131  1  0  0  0
 60132  1  0  0  0
 60133  1  0  0  0
 61134  1  0  0  0
 61135  1  0  0  0
 61136  1  0  0  0
 62137  1  0  0  0
 62138  1  0  0  0
 62139  1  0  0  0
 63 65  1  0  0  0
 63140  1  0  0  0
 63141  1  0  0  0
 63142  1  0  0  0
 64143  1  0  0  0
 65144  1  0  0  0
 68 82  1  0  0  0
 71 73  2  0  0  0
 71 74  1  0  0  0
 71145  1  0  0  0
 72 73  1  0  0  0
 72 75  2  0  0  0
 72 76  1  0  0  0
 73 84  1  0  0  0
 74 79  1  0  0  0
 74 83  2  0  0  0
 75 80  1  0  0  0
 75 83  1  0  0  0
 76 77  1  0  0  0
 76146  1  0  0  0
 76147  1  0  0  0
 77 84  1  0  0  0
 77148  1  0  0  0
 77149  1  0  0  0
 78150  1  0  0  0
 78151  1  0  0  0
 78152  1  0  0  0
 78 82  1  0  0  0
 79 81  1  0  0  0
 79153  1  0  0  0
 79154  1  0  0  0
 80 85  1  0  0  0
 80155  1  0  0  0
 80156  1  0  0  0
 81 82  1  0  0  0
 81157  1  0  0  0
 81158  1  0  0  0
 82159  1  0  0  0
 83160  1  0  0  0
 84161  1  0  0  0
 85162  1  0  0  0
M  CHG  1  83   1
M  ISO  4   1 100  68 101  82 101  85 100
M  END
> <chiral flag>
0

> <version>
0

> <s_m_source_file>
/data/baiqing/PycharmProjects/Reinvent-master-3.2/result/LINK_invent/BTK/process_docking_weight1_custom_sum_contain_oxygen_bond_distance_aromatic_linkinvent_7_9_3/rearranged_h_0127.sdf

> <i_m_source_file_index>
48

> <r_mmod_Potential_Energy-OPLS-2005>
-19.3869934082031

> <r_mmod_Stretch_Energy-OPLS-2005>
118.406578063965

> <r_mmod_Bend_Energy-OPLS-2005>
195.203918457031

> <r_mmod_Torsional_Energy-OPLS-2005>
233.925735473633

> <r_mmod_Improper_Torsional_Energy-OPLS-2005>
9.82850933074951

> <r_mmod_Van_der_Waal_Energy-OPLS-2005>
127.09693145752

> <r_mmod_Electrostatic_Energy-OPLS-2005>
-346.773773193359

> <r_mmod_Solvation_Energy-OPLS-2005>
-434.954895019531

> <b_mmod_Minimization_Converged-OPLS-2005>
0

> <r_mmod_RMS_Derivative-OPLS-2005>
2.92838549613953

$$$$
48
                    3D
 Structure written by MMmdl.
172181  0  0  1  0            999 V2000
  -29.7607  -15.5469   20.6917 C   0  0  0  0  0  0
  -30.3408  -13.1016   19.6748 C   0  0  0  0  0  0
  -29.5401  -12.6961   18.3945 C   0  0  0  0  0  0
  -28.0950  -12.3004   18.7477 C   0  0  0  0  0  0
  -27.5341  -13.2488   19.8342 C   0  0  2  0  0  0
  -28.4482  -13.3848   21.0467 C   0  0  0  0  0  0
  -25.1987  -13.8152   20.5648 C   0  0  0  0  0  0
  -24.1398  -13.0355   20.9215 C   0  0  0  0  0  0
  -24.6054  -11.6846   20.8716 C   0  0  0  0  0  0
  -23.8869  -10.4224   21.0422 C   0  0  0  0  0  0
  -24.3507   -9.4180   21.9192 C   0  0  0  0  0  0
  -23.6233   -8.2192   22.0754 C   0  0  0  0  0  0
  -22.4223   -8.0207   21.3534 C   0  0  0  0  0  0
  -21.9799   -9.0158   20.4648 C   0  0  0  0  0  0
  -22.7070  -10.2057   20.3063 C   0  0  0  0  0  0
  -21.6830   -6.0698   22.5295 C   0  0  0  0  0  0
  -21.3996   -6.5615   23.8224 C   0  0  0  0  0  0
  -21.3652   -5.6772   24.9185 C   0  0  0  0  0  0
  -21.6047   -4.3037   24.7236 C   0  0  0  0  0  0
  -21.8826   -3.8125   23.4358 C   0  0  0  0  0  0
  -21.9185   -4.6933   22.3413 C   0  0  0  0  0  0
  -22.7494  -13.5167   21.1952 C   0  0  0  0  0  0
  -22.1662   -4.2117   21.0991 F   0  0  0  0  0  0
  -21.5629   -3.4532   25.7755 F   0  0  0  0  0  0
  -29.5627  -14.1262   20.5223 N   0  0  0  0  0  0
  -26.2164  -12.9277   20.2878 N   0  0  0  0  0  0
  -25.8890  -11.6432   20.5496 N   0  0  0  0  0  0
  -22.0206  -12.8164   22.0543 N   0  0  0  0  0  0
  -25.3818  -15.1915   20.4343 N   0  0  0  0  0  0
  -30.9790  -15.7331   20.4168 O   0  0  0  0  0  0
  -21.6605   -6.8809   21.4244 O   0  0  0  0  0  0
  -22.3213  -14.5488   20.6814 O   0  0  0  0  0  0
  -24.6607  -31.9390   23.2377 C   0  0  0  0  0  0
  -25.9488  -32.5157   23.8734 C   0  0  1  0  0  0
  -26.8653  -27.3836   20.1483 C   0  0  0  0  0  0
  -25.6356  -33.8908   24.2683 N   0  0  0  0  0  0
  -23.4763  -30.5885   21.6035 C   0  0  2  0  0  0
  -24.8716  -29.2236   19.9381 C   0  0  0  0  0  0
  -23.0685  -29.4779   22.6017 C   0  0  0  0  0  0
  -18.4070  -27.8552   22.7959 C   0  0  0  0  0  0
  -24.1512  -36.7385   23.2594 C   0  0  0  0  0  0
  -25.9984  -30.8788   21.4167 C   0  0  0  0  0  0
  -26.0086  -29.5562   20.6817 C   0  0  0  0  0  0
  -27.0564  -28.6218   20.7952 C   0  0  0  0  0  0
  -25.9678  -27.2332   19.1041 C   0  0  0  0  0  0
  -24.8731  -28.0924   19.1006 C   0  0  0  0  0  0
  -23.6594  -30.1162   20.1223 C   0  0  0  0  0  0
  -25.4120  -36.3255   24.0345 C   0  0  1  0  0  0
  -21.3695  -27.7533   23.0977 C   0  0  2  0  0  0
  -21.0533  -25.3778   21.6105 C   0  0  0  0  0  0
  -19.3094  -25.3648   21.3341 C   0  0  0  0  0  0
  -18.2093  -26.4792   21.9712 C   0  0  0  0  0  0
  -19.6799  -28.4569   23.3248 C   0  0  0  0  0  0
  -19.3891  -29.7656   23.9118 C   0  0  0  0  0  0
  -18.0986  -30.3867   24.0407 C   0  0  0  0  0  0
  -25.9117  -34.9649   23.5206 C   0  0  0  0  0  0
  -16.9423  -29.7431   23.5865 C   0  0  0  0  0  0
  -17.1209  -28.4941   22.9751 C   0  0  0  0  0  0
  -26.4632  -31.6706   25.0991 C   0  0  0  0  0  0
  -25.3757  -31.3785   26.1586 C   0  0  0  0  0  0
  -27.0429  -30.3127   24.6368 C   0  0  0  0  0  0
  -27.6187  -32.4298   25.7880 C   0  0  0  0  0  0
  -27.5611  -37.1886   24.8456 C   0  0  0  0  0  0
  -21.8347  -29.0882   22.6051 N   0  0  0  0  0  0
  -26.4306  -37.3923   23.9427 N   0  0  0  0  0  0
  -24.7281  -31.1869   22.1121 N   0  0  0  0  0  0
  -23.8605  -28.8931   23.3300 O   0  0  0  0  0  0
  -26.8336  -26.2668   20.9061 O   0  0  0  0  0  0
  -26.5473  -34.9008   22.4642 O   0  0  0  0  0  0
  -23.5755  -32.2015   23.7811 O   0  0  0  0  0  0
  -20.2788  -25.9043   23.5564 C   0  0  0  0  0  0
  -27.0150  -19.4103   20.5064 C   0  0  0  0  0  0
  -26.7717  -18.7072   22.6294 C   0  0  0  0  0  0
  -22.0213  -24.9423   23.8071 C   0  0  0  0  0  0
  -26.3630  -21.0066   20.9510 C   0  0  0  0  0  0
  -26.0749  -20.2825   23.0473 C   0  0  0  0  0  0
  -22.5506  -27.0360   20.8008 C   0  0  0  0  0  0
  -20.6085  -27.4231   21.0731 C   0  0  1  0  0  0
  -23.7916  -25.8702   21.6752 C   0  0  1  0  0  0
  -27.9224  -18.2879   21.4364 C   0  0  1  0  0  0
  -25.1750  -21.4180   22.1220 C   0  0  1  0  0  0
  -23.3597  -24.3359   22.5317 C   0  0  1  0  0  0
  -20.0298  -27.3227   19.6069 C   0  0  0  0  0  0
  -25.4076  -25.5796   21.0804 C   0  0  0  0  0  0
  -28.6784  -16.6679   21.0250 N   0  0  0  0  0  0
  -24.5849  -23.0142   22.7457 N   0  3  0  0  0  0
  -31.3065  -13.5097   19.3746 H   0  0  0  0  0  0
  -30.5798  -12.2190   20.2727 H   0  0  0  0  0  0
  -30.0428  -11.8872   17.8633 H   0  0  0  0  0  0
  -29.5193  -13.5472   17.7126 H   0  0  0  0  0  0
  -28.0995  -11.2771   19.1223 H   0  0  0  0  0  0
  -27.4632  -12.3052   17.8589 H   0  0  0  0  0  0
  -27.4522  -14.2186   19.3411 H   0  0  0  0  0  0
  -28.7211  -12.4204   21.4778 H   0  0  0  0  0  0
  -27.9670  -13.9606   21.8399 H   0  0  0  0  0  0
  -25.2662   -9.5698   22.4737 H   0  0  0  0  0  0
  -23.9975   -7.4585   22.7457 H   0  0  0  0  0  0
  -21.0733   -8.8636   19.8955 H   0  0  0  0  0  0
  -22.3511  -10.9582   19.6165 H   0  0  0  0  0  0
  -21.1984   -7.6124   23.9711 H   0  0  0  0  0  0
  -21.1471   -6.0509   25.9083 H   0  0  0  0  0  0
  -22.0614   -2.7586   23.2873 H   0  0  0  0  0  0
  -22.3836  -11.9821   22.4904 H   0  0  0  0  0  0
  -21.0847  -13.1198   22.2827 H   0  0  0  0  0  0
  -24.6343  -15.8536   20.6079 H   0  0  0  0  0  0
  -26.2657  -15.6369   20.2202 H   0  0  0  0  0  0
  -26.7641  -32.5788   23.1569 H   0  0  0  0  0  0
  -25.0743  -34.0118   25.0991 H   0  0  0  0  0  0
  -22.6874  -31.3432   21.5954 H   0  0  0  0  0  0
  -23.3800  -35.9689   23.3239 H   0  0  0  0  0  0
  -24.3646  -36.8986   22.2013 H   0  0  0  0  0  0
  -23.7216  -37.6574   23.6589 H   0  0  0  0  0  0
  -26.1975  -31.6747   20.6974 H   0  0  0  0  0  0
  -26.8607  -30.8443   22.0721 H   0  0  0  0  0  0
  -27.8040  -28.7461   21.5670 H   0  0  0  0  0  0
  -25.8887  -26.3048   18.5552 H   0  0  0  0  0  0
  -24.0244  -27.8750   18.4671 H   0  0  0  0  0  0
  -23.8277  -30.9992   19.5058 H   0  0  0  0  0  0
  -22.7428  -29.6898   19.7114 H   0  0  0  0  0  0
  -25.1248  -36.2157   25.0830 H   0  0  0  0  0  0
  -21.8713  -27.6158   24.0622 H   0  0  0  0  0  0
  -20.9696  -24.3448   21.9642 H   0  0  0  0  0  0
  -21.4717  -25.1161   20.6322 H   0  0  0  0  0  0
  -18.9496  -24.4004   21.6994 H   0  0  0  0  0  0
  -19.0814  -25.1778   20.2861 H   0  0  0  0  0  0
  -17.5298  -26.7197   21.1526 H   0  0  0  0  0  0
  -17.5704  -25.8887   22.6300 H   0  0  0  0  0  0
  -20.2287  -30.3268   24.2994 H   0  0  0  0  0  0
  -18.0188  -31.3570   24.5135 H   0  0  0  0  0  0
  -15.9632  -30.1920   23.6892 H   0  0  0  0  0  0
  -16.2337  -28.0037   22.5930 H   0  0  0  0  0  0
  -24.5947  -30.7196   25.7782 H   0  0  0  0  0  0
  -24.8956  -32.2936   26.5059 H   0  0  0  0  0  0
  -25.7981  -30.8854   27.0349 H   0  0  0  0  0  0
  -26.3071  -29.7008   24.1159 H   0  0  0  0  0  0
  -27.3870  -29.7238   25.4881 H   0  0  0  0  0  0
  -27.9052  -30.4409   23.9823 H   0  0  0  0  0  0
  -27.2837  -33.3564   26.2557 H   0  0  0  0  0  0
  -28.4059  -32.6886   25.0790 H   0  0  0  0  0  0
  -28.0792  -31.8306   26.5745 H   0  0  0  0  0  0
  -28.2575  -38.0234   24.7587 H   0  0  0  0  0  0
  -28.1163  -36.2774   24.6175 H   0  0  0  0  0  0
  -27.2351  -37.1408   25.8859 H   0  0  0  0  0  0
  -21.1631  -29.6099   22.0618 H   0  0  0  0  0  0
  -26.0191  -38.2990   24.1461 H   0  0  0  0  0  0
  -20.0504  -26.4050   24.5070 H   0  0  0  0  0  0
  -19.5038  -25.1371   23.6456 H   0  0  0  0  0  0
  -27.6113  -19.5856   19.6100 H   0  0  0  0  0  0
  -26.1579  -18.8488   20.1284 H   0  0  0  0  0  0
  -25.9167  -18.0482   22.4678 H   0  0  0  0  0  0
  -27.1957  -18.3396   23.5655 H   0  0  0  0  0  0
  -21.7447  -24.0439   24.3604 H   0  0  0  0  0  0
  -22.5826  -25.5099   24.5488 H   0  0  0  0  0  0
  -25.9769  -21.4206   20.0190 H   0  0  0  0  0  0
  -27.2330  -21.6312   21.1611 H   0  0  0  0  0  0
  -26.9048  -20.8540   23.4673 H   0  0  0  0  0  0
  -25.4500  -20.0864   23.9202 H   0  0  0  0  0  0
  -23.0486  -27.9361   20.7323 H   0  0  0  0  0  0
  -22.5992  -26.7055   19.7620 H   0  0  0  0  0  0
  -20.3096  -28.4733   21.0550 H   0  0  0  0  0  0
  -24.0244  -26.4773   22.5464 H   0  0  0  0  0  0
  -28.8210  -18.8401   21.7142 H   0  0  0  0  0  0
  -24.2579  -20.9108   21.8230 H   0  0  0  0  0  0
  -22.8676  -23.7384   21.7685 H   0  0  0  0  0  0
  -20.3164  -26.4129   19.0785 H   0  0  0  0  0  0
  -20.4396  -28.1316   18.9984 H   0  0  0  0  0  0
  -18.9495  -27.4398   19.5536 H   0  0  0  0  0  0
  -25.2834  -24.9145   20.2272 H   0  0  0  0  0  0
  -25.7858  -24.9163   21.8469 H   0  0  0  0  0  0
  -29.4962  -17.2202   20.8012 H   0  0  0  0  0  0
  -25.4307  -23.5024   22.9887 H   0  0  0  0  0  0
  -24.2580  -22.6842   23.6388 H   0  0  0  0  0  0
  1 25  1  0  0  0
  1 30  2  0  0  0
  1 85  1  0  0  0
  2  3  1  0  0  0
  2 25  1  0  0  0
  2 87  1  0  0  0
  2 88  1  0  0  0
  3  4  1  0  0  0
  3 89  1  0  0  0
  3 90  1  0  0  0
  4  5  1  0  0  0
  4 91  1  0  0  0
  4 92  1  0  0  0
  5  6  1  0  0  0
  5 26  1  0  0  0
  5 93  1  0  0  0
  6 25  1  0  0  0
  6 94  1  0  0  0
  6 95  1  0  0  0
  7  8  2  0  0  0
  7 26  1  0  0  0
  7 29  1  0  0  0
  8  9  1  0  0  0
  8 22  1  0  0  0
  9 10  1  0  0  0
  9 27  2  0  0  0
 10 11  2  0  0  0
 10 15  1  0  0  0
 11 12  1  0  0  0
 11 96  1  0  0  0
 12 13  2  0  0  0
 12 97  1  0  0  0
 13 14  1  0  0  0
 13 31  1  0  0  0
 14 15  2  0  0  0
 14 98  1  0  0  0
 15 99  1  0  0  0
 16 17  2  0  0  0
 16 21  1  0  0  0
 16 31  1  0  0  0
 17 18  1  0  0  0
 17100  1  0  0  0
 18 19  2  0  0  0
 18101  1  0  0  0
 19 20  1  0  0  0
 19 24  1  0  0  0
 20 21  2  0  0  0
 20102  1  0  0  0
 21 23  1  0  0  0
 22 28  1  0  0  0
 22 32  2  0  0  0
 26 27  1  0  0  0
 28103  1  0  0  0
 28104  1  0  0  0
 29105  1  0  0  0
 29106  1  0  0  0
 33 34  1  0  0  0
 33 66  1  0  0  0
 33 70  2  0  0  0
 34 36  1  0  0  0
 34 59  1  0  0  0
 34107  1  0  0  0
 35 44  2  0  0  0
 35 45  1  0  0  0
 35 68  1  0  0  0
 36 56  1  0  0  0
 36108  1  0  0  0
 37 39  1  0  0  0
 37 47  1  0  0  0
 37 66  1  0  0  0
 37109  1  0  0  0
 38 43  2  0  0  0
 38 46  1  0  0  0
 38 47  1  0  0  0
 39 64  1  0  0  0
 39 67  2  0  0  0
 40 52  1  0  0  0
 40 53  2  0  0  0
 40 58  1  0  0  0
 41110  1  0  0  0
 41111  1  0  0  0
 41112  1  0  0  0
 41 48  1  0  0  0
 42 43  1  0  0  0
 42 66  1  0  0  0
 42113  1  0  0  0
 42114  1  0  0  0
 43 44  1  0  0  0
 44115  1  0  0  0
 45 46  2  0  0  0
 45116  1  0  0  0
 46117  1  0  0  0
 47118  1  0  0  0
 47119  1  0  0  0
 48 56  1  0  0  0
 48 65  1  0  0  0
 48120  1  0  0  0
 49 50  1  0  0  0
 49 53  1  0  0  0
 49 64  1  0  0  0
 49121  1  0  0  0
 50 51  1  0  0  0
 50122  1  0  0  0
 50123  1  0  0  0
 51 52  1  0  0  0
 51124  1  0  0  0
 51125  1  0  0  0
 52126  1  0  0  0
 52127  1  0  0  0
 53 54  1  0  0  0
 54 55  2  0  0  0
 54128  1  0  0  0
 55 57  1  0  0  0
 55129  1  0  0  0
 56 69  2  0  0  0
 57 58  2  0  0  0
 57130  1  0  0  0
 58131  1  0  0  0
 59 60  1  0  0  0
 59 61  1  0  0  0
 59 62  1  0  0  0
 60132  1  0  0  0
 60133  1  0  0  0
 60134  1  0  0  0
 61135  1  0  0  0
 61136  1  0  0  0
 61137  1  0  0  0
 62138  1  0  0  0
 62139  1  0  0  0
 62140  1  0  0  0
 63 65  1  0  0  0
 63141  1  0  0  0
 63142  1  0  0  0
 63143  1  0  0  0
 64144  1  0  0  0
 65145  1  0  0  0
 68 84  1  0  0  0
 71 74  1  0  0  0
 71 78  1  0  0  0
 71146  1  0  0  0
 71147  1  0  0  0
 72 75  1  0  0  0
 72 80  1  0  0  0
 72148  1  0  0  0
 72149  1  0  0  0
 73 76  1  0  0  0
 73 80  1  0  0  0
 73150  1  0  0  0
 73151  1  0  0  0
 74 82  1  0  0  0
 74152  1  0  0  0
 74153  1  0  0  0
 75 81  1  0  0  0
 75154  1  0  0  0
 75155  1  0  0  0
 76 81  1  0  0  0
 76156  1  0  0  0
 76157  1  0  0  0
 77 78  1  0  0  0
 77 79  1  0  0  0
 77158  1  0  0  0
 77159  1  0  0  0
 78 83  1  0  0  0
 78160  1  0  0  0
 79 82  1  0  0  0
 79 84  1  0  0  0
 79161  1  0  0  0
 80 85  1  0  0  0
 80162  1  0  0  0
 81 86  1  0  0  0
 81163  1  0  0  0
 82 86  1  0  0  0
 82164  1  0  0  0
 83165  1  0  0  0
 83166  1  0  0  0
 83167  1  0  0  0
 84168  1  0  0  0
 84169  1  0  0  0
 85170  1  0  0  0
 86171  1  0  0  0
 86172  1  0  0  0
M  CHG  1  86   1
M  ISO  4   1 100  68 101  84 101  85 100
M  END
> <chiral flag>
0

> <version>
0

> <s_m_source_file>
/data/baiqing/PycharmProjects/Reinvent-master-3.2/result/LINK_invent/BTK/process_docking_weight1_custom_sum_contain_oxygen_bond_distance_aromatic_linkinvent_7_9_3/rearranged_h_0127.sdf

> <i_m_source_file_index>
49

> <r_mmod_Potential_Energy-OPLS-2005>
11985.599609375

> <r_mmod_Stretch_Energy-OPLS-2005>
6485.66259765625

> <r_mmod_Bend_Energy-OPLS-2005>
1608.64990234375

> <r_mmod_Torsional_Energy-OPLS-2005>
461.284637451172

> <r_mmod_Improper_Torsional_Energy-OPLS-2005>
18.2328186035156

> <r_mmod_Van_der_Waal_Energy-OPLS-2005>
2158.51611328125

> <r_mmod_Electrostatic_Energy-OPLS-2005>
-293.529357910156

> <r_mmod_Solvation_Energy-OPLS-2005>
-442.213134765625

> <b_mmod_Minimization_Converged-OPLS-2005>
0

> <r_mmod_RMS_Derivative-OPLS-2005>
4.26996278762817

$$$$
49
                    3D
 Structure written by MMmdl.
159168  0  0  1  0            999 V2000
  -30.4701  -15.2039   20.3789 C   0  0  0  0  0  0
  -30.4352  -12.7656   19.5206 C   0  0  0  0  0  0
  -29.5297  -12.5648   18.2810 C   0  0  0  0  0  0
  -28.0749  -12.3035   18.7080 C   0  0  0  0  0  0
  -27.6130  -13.2722   19.8259 C   0  0  2  0  0  0
  -28.6494  -13.4252   20.9597 C   0  0  0  0  0  0
  -25.2389  -13.8247   20.5750 C   0  0  0  0  0  0
  -24.1743  -13.0437   20.9263 C   0  0  0  0  0  0
  -24.6395  -11.6935   20.8767 C   0  0  0  0  0  0
  -23.9095  -10.4292   21.0408 C   0  0  0  0  0  0
  -24.3639   -9.4202   21.9185 C   0  0  0  0  0  0
  -23.6307   -8.2239   22.0749 C   0  0  0  0  0  0
  -22.4289   -8.0280   21.3539 C   0  0  0  0  0  0
  -21.9931   -9.0257   20.4643 C   0  0  0  0  0  0
  -22.7266  -10.2133   20.3055 C   0  0  0  0  0  0
  -21.6857   -6.0739   22.5279 C   0  0  0  0  0  0
  -21.4014   -6.5643   23.8212 C   0  0  0  0  0  0
  -21.3660   -5.6795   24.9174 C   0  0  0  0  0  0
  -21.6047   -4.3059   24.7226 C   0  0  0  0  0  0
  -21.8817   -3.8149   23.4347 C   0  0  0  0  0  0
  -21.9192   -4.6966   22.3403 C   0  0  0  0  0  0
  -22.7759  -13.5183   21.1914 C   0  0  0  0  0  0
  -22.1661   -4.2150   21.0981 F   0  0  0  0  0  0
  -21.5629   -3.4542   25.7739 F   0  0  0  0  0  0
  -29.8890  -13.9105   20.3337 N   0  0  0  0  0  0
  -26.2817  -12.9519   20.3235 N   0  0  0  0  0  0
  -25.9331  -11.6626   20.5739 N   0  0  0  0  0  0
  -22.0428  -12.8152   22.0467 N   0  0  0  0  0  0
  -25.4016  -15.1981   20.4177 N   0  0  0  0  0  0
  -31.6896  -15.2005   20.1631 O   0  0  0  0  0  0
  -21.6645   -6.8881   21.4240 O   0  0  0  0  0  0
  -22.3431  -14.5483   20.6759 O   0  0  0  0  0  0
  -24.6604  -31.8274   23.1737 C   0  0  0  0  0  0
  -25.9297  -32.4619   23.8187 C   0  0  1  0  0  0
  -27.2156  -26.9587   20.1769 C   0  0  0  0  0  0
  -25.5977  -33.8431   24.2098 N   0  0  0  0  0  0
  -23.4746  -30.4420   21.5210 C   0  0  2  0  0  0
  -24.9287  -28.8394   20.1081 C   0  0  0  0  0  0
  -22.7662  -29.4467   22.4774 C   0  0  0  0  0  0
  -18.0324  -28.1425   22.8475 C   0  0  0  0  0  0
  -24.1480  -36.7208   23.2647 C   0  0  0  0  0  0
  -26.0427  -30.6432   21.4016 C   0  0  0  0  0  0
  -26.1105  -29.2363   20.7458 C   0  0  0  0  0  0
  -27.2494  -28.3151   20.7606 C   0  0  0  0  0  0
  -26.0097  -26.7174   19.4780 C   0  0  0  0  0  0
  -24.9023  -27.5997   19.4535 C   0  0  0  0  0  0
  -23.7132  -29.7627   20.1450 C   0  0  0  0  0  0
  -25.4123  -36.2986   24.0307 C   0  0  1  0  0  0
  -20.5950  -28.3767   23.1183 C   0  0  2  0  0  0
  -20.6796  -26.9450   22.5396 C   0  0  0  0  0  0
  -19.5767  -26.6385   21.5212 C   0  0  0  0  0  0
  -18.1948  -26.7961   22.1623 C   0  0  0  0  0  0
  -19.1589  -28.8913   23.2820 C   0  0  0  0  0  0
  -18.9501  -30.1498   23.8862 C   0  0  0  0  0  0
  -17.6496  -30.6613   24.0565 C   0  0  0  0  0  0
  -25.9089  -34.9370   23.5017 C   0  0  0  0  0  0
  -16.5382  -29.9110   23.6350 C   0  0  0  0  0  0
  -16.7304  -28.6528   23.0371 C   0  0  0  0  0  0
  -26.4558  -31.6560   25.0706 C   0  0  0  0  0  0
  -25.3685  -31.3808   26.1360 C   0  0  0  0  0  0
  -27.0456  -30.2936   24.6418 C   0  0  0  0  0  0
  -27.6059  -32.4358   25.7505 C   0  0  0  0  0  0
  -27.5563  -37.1763   24.8472 C   0  0  0  0  0  0
  -21.4334  -29.3063   22.3534 N   0  0  0  0  0  0
  -26.4268  -37.3719   23.9420 N   0  0  0  0  0  0
  -24.7470  -30.9969   22.0858 N   0  0  0  0  0  0
  -23.4223  -28.8022   23.2993 O   0  0  0  0  0  0
  -28.1951  -25.8421   20.2789 O   0  0  0  0  0  0
  -26.5689  -34.8901   22.4608 O   0  0  0  0  0  0
  -23.5677  -32.1225   23.6840 O   0  0  0  0  0  0
  -28.1203  -20.1066   20.6568 C   0  0  0  0  0  0
  -27.6712  -21.5219   20.6223 C   0  0  0  0  0  0
  -28.4874  -22.6920   20.2679 C   0  0  0  0  0  0
  -29.4437  -19.6388   20.3392 C   0  0  0  0  0  0
  -29.7988  -22.1315   19.9781 C   0  0  0  0  0  0
  -25.8243  -22.4794   22.2130 C   0  0  0  0  0  0
  -25.5247  -21.0076   22.0676 C   0  0  0  0  0  0
  -26.2241  -21.7522   20.9496 C   0  0  0  0  0  0
  -30.9907  -23.1395   17.9869 C   0  0  0  0  0  0
  -27.8256  -24.2858   19.9685 C   0  0  0  0  0  0
  -30.8877  -23.0808   19.5148 C   0  0  0  0  0  0
  -30.1755  -18.0589   20.3672 C   0  0  0  0  0  0
  -30.2127  -20.7648   20.0220 N   0  0  0  0  0  0
  -29.7323  -16.4755   20.4609 N   0  0  0  0  0  0
  -31.4580  -12.9547   19.1926 H   0  0  0  0  0  0
  -30.4833  -11.8531   20.1171 H   0  0  0  0  0  0
  -29.8956  -11.7382   17.6706 H   0  0  0  0  0  0
  -29.5721  -13.4549   17.6511 H   0  0  0  0  0  0
  -28.0181  -11.2756   19.0687 H   0  0  0  0  0  0
  -27.4062  -12.3630   17.8484 H   0  0  0  0  0  0
  -27.5352  -14.2455   19.3395 H   0  0  0  0  0  0
  -28.8033  -12.4855   21.4924 H   0  0  0  0  0  0
  -28.3014  -14.1496   21.6979 H   0  0  0  0  0  0
  -25.2781   -9.5676   22.4762 H   0  0  0  0  0  0
  -24.0018   -7.4625   22.7461 H   0  0  0  0  0  0
  -21.0864   -8.8779   19.8941 H   0  0  0  0  0  0
  -22.3726  -10.9675   19.6164 H   0  0  0  0  0  0
  -21.2006   -7.6151   23.9714 H   0  0  0  0  0  0
  -21.1486   -6.0528   25.9078 H   0  0  0  0  0  0
  -22.0593   -2.7610   23.2847 H   0  0  0  0  0  0
  -22.4080  -11.9824   22.4847 H   0  0  0  0  0  0
  -21.1035  -13.1133   22.2682 H   0  0  0  0  0  0
  -24.6280  -15.8451   20.5263 H   0  0  0  0  0  0
  -26.2389  -15.6401   20.0622 H   0  0  0  0  0  0
  -26.7366  -32.5170   23.0902 H   0  0  0  0  0  0
  -25.0110  -33.9519   25.0242 H   0  0  0  0  0  0
  -22.7866  -31.2734   21.3531 H   0  0  0  0  0  0
  -23.3758  -35.9524   23.3288 H   0  0  0  0  0  0
  -24.3551  -36.8868   22.2062 H   0  0  0  0  0  0
  -23.7217  -37.6386   23.6709 H   0  0  0  0  0  0
  -26.2197  -31.3845   20.6213 H   0  0  0  0  0  0
  -26.9039  -30.6997   22.0551 H   0  0  0  0  0  0
  -28.1396  -28.6126   21.2965 H   0  0  0  0  0  0
  -25.8757  -25.7769   18.9652 H   0  0  0  0  0  0
  -24.0078  -27.2929   18.9294 H   0  0  0  0  0  0
  -23.8676  -30.5330   19.3884 H   0  0  0  0  0  0
  -22.8241  -29.2162   19.8259 H   0  0  0  0  0  0
  -25.1320  -36.1780   25.0797 H   0  0  0  0  0  0
  -21.0046  -28.3364   24.1305 H   0  0  0  0  0  0
  -20.5668  -26.2392   23.3639 H   0  0  0  0  0  0
  -21.6661  -26.7423   22.1207 H   0  0  0  0  0  0
  -19.6924  -25.6281   21.1279 H   0  0  0  0  0  0
  -19.6700  -27.3166   20.6717 H   0  0  0  0  0  0
  -17.4217  -26.6706   21.4025 H   0  0  0  0  0  0
  -18.0343  -26.0118   22.9032 H   0  0  0  0  0  0
  -19.7974  -30.7321   24.2219 H   0  0  0  0  0  0
  -17.5053  -31.6294   24.5169 H   0  0  0  0  0  0
  -15.5384  -30.3004   23.7701 H   0  0  0  0  0  0
  -15.8699  -28.0831   22.7122 H   0  0  0  0  0  0
  -24.5880  -30.7155   25.7657 H   0  0  0  0  0  0
  -24.8861  -32.3013   26.4662 H   0  0  0  0  0  0
  -25.7907  -30.9047   27.0220 H   0  0  0  0  0  0
  -26.3127  -29.6618   24.1393 H   0  0  0  0  0  0
  -27.3977  -29.7294   25.5065 H   0  0  0  0  0  0
  -27.9072  -30.4137   23.9846 H   0  0  0  0  0  0
  -27.2651  -33.3712   26.1954 H   0  0  0  0  0  0
  -28.3940  -32.6827   25.0380 H   0  0  0  0  0  0
  -28.0653  -31.8564   26.5523 H   0  0  0  0  0  0
  -28.2572  -38.0065   24.7519 H   0  0  0  0  0  0
  -28.1059  -36.2594   24.6294 H   0  0  0  0  0  0
  -27.2281  -37.1405   25.8873 H   0  0  0  0  0  0
  -20.9576  -29.8782   21.6698 H   0  0  0  0  0  0
  -26.0113  -38.2776   24.1435 H   0  0  0  0  0  0
  -27.3999  -19.3479   20.9316 H   0  0  0  0  0  0
  -26.6154  -22.7639   22.9047 H   0  0  0  0  0  0
  -24.9817  -23.1651   22.1568 H   0  0  0  0  0  0
  -24.4834  -20.7302   21.9176 H   0  0  0  0  0  0
  -26.1076  -20.3212   22.6785 H   0  0  0  0  0  0
  -25.6491  -21.9494   20.0463 H   0  0  0  0  0  0
  -31.7800  -23.8239   17.6767 H   0  0  0  0  0  0
  -30.0548  -23.4828   17.5458 H   0  0  0  0  0  0
  -31.2160  -22.1567   17.5731 H   0  0  0  0  0  0
  -26.8127  -24.2139   20.3561 H   0  0  0  0  0  0
  -27.6953  -24.2771   18.8860 H   0  0  0  0  0  0
  -31.8424  -22.7667   19.9392 H   0  0  0  0  0  0
  -30.6979  -24.0782   19.9131 H   0  0  0  0  0  0
  -30.8942  -18.1503   21.1818 H   0  0  0  0  0  0
  -30.8013  -18.0736   19.4748 H   0  0  0  0  0  0
  -28.7386  -16.3548   20.5845 H   0  0  0  0  0  0
  1 25  1  0  0  0
  1 30  2  0  0  0
  1 84  1  0  0  0
  2  3  1  0  0  0
  2 25  1  0  0  0
  2 85  1  0  0  0
  2 86  1  0  0  0
  3  4  1  0  0  0
  3 87  1  0  0  0
  3 88  1  0  0  0
  4  5  1  0  0  0
  4 89  1  0  0  0
  4 90  1  0  0  0
  5  6  1  0  0  0
  5 26  1  0  0  0
  5 91  1  0  0  0
  6 25  1  0  0  0
  6 92  1  0  0  0
  6 93  1  0  0  0
  7  8  2  0  0  0
  7 26  1  0  0  0
  7 29  1  0  0  0
  8  9  1  0  0  0
  8 22  1  0  0  0
  9 10  1  0  0  0
  9 27  2  0  0  0
 10 11  2  0  0  0
 10 15  1  0  0  0
 11 12  1  0  0  0
 11 94  1  0  0  0
 12 13  2  0  0  0
 12 95  1  0  0  0
 13 14  1  0  0  0
 13 31  1  0  0  0
 14 15  2  0  0  0
 14 96  1  0  0  0
 15 97  1  0  0  0
 16 17  2  0  0  0
 16 21  1  0  0  0
 16 31  1  0  0  0
 17 18  1  0  0  0
 17 98  1  0  0  0
 18 19  2  0  0  0
 18 99  1  0  0  0
 19 20  1  0  0  0
 19 24  1  0  0  0
 20 21  2  0  0  0
 20100  1  0  0  0
 21 23  1  0  0  0
 22 28  1  0  0  0
 22 32  2  0  0  0
 26 27  1  0  0  0
 28101  1  0  0  0
 28102  1  0  0  0
 29103  1  0  0  0
 29104  1  0  0  0
 33 34  1  0  0  0
 33 66  1  0  0  0
 33 70  2  0  0  0
 34 36  1  0  0  0
 34 59  1  0  0  0
 34105  1  0  0  0
 35 44  2  0  0  0
 35 45  1  0  0  0
 35 68  1  0  0  0
 36 56  1  0  0  0
 36106  1  0  0  0
 37 39  1  0  0  0
 37 47  1  0  0  0
 37 66  1  0  0  0
 37107  1  0  0  0
 38 43  2  0  0  0
 38 46  1  0  0  0
 38 47  1  0  0  0
 39 64  1  0  0  0
 39 67  2  0  0  0
 40 52  1  0  0  0
 40 53  2  0  0  0
 40 58  1  0  0  0
 41108  1  0  0  0
 41109  1  0  0  0
 41110  1  0  0  0
 41 48  1  0  0  0
 42 43  1  0  0  0
 42 66  1  0  0  0
 42111  1  0  0  0
 42112  1  0  0  0
 43 44  1  0  0  0
 44113  1  0  0  0
 45 46  2  0  0  0
 45114  1  0  0  0
 46115  1  0  0  0
 47116  1  0  0  0
 47117  1  0  0  0
 48 56  1  0  0  0
 48 65  1  0  0  0
 48118  1  0  0  0
 49 50  1  0  0  0
 49 53  1  0  0  0
 49 64  1  0  0  0
 49119  1  0  0  0
 50 51  1  0  0  0
 50120  1  0  0  0
 50121  1  0  0  0
 51 52  1  0  0  0
 51122  1  0  0  0
 51123  1  0  0  0
 52124  1  0  0  0
 52125  1  0  0  0
 53 54  1  0  0  0
 54 55  2  0  0  0
 54126  1  0  0  0
 55 57  1  0  0  0
 55127  1  0  0  0
 56 69  2  0  0  0
 57 58  2  0  0  0
 57128  1  0  0  0
 58129  1  0  0  0
 59 60  1  0  0  0
 59 61  1  0  0  0
 59 62  1  0  0  0
 60130  1  0  0  0
 60131  1  0  0  0
 60132  1  0  0  0
 61133  1  0  0  0
 61134  1  0  0  0
 61135  1  0  0  0
 62136  1  0  0  0
 62137  1  0  0  0
 62138  1  0  0  0
 63 65  1  0  0  0
 63139  1  0  0  0
 63140  1  0  0  0
 63141  1  0  0  0
 64142  1  0  0  0
 65143  1  0  0  0
 68 80  1  0  0  0
 71 72  2  0  0  0
 71 74  1  0  0  0
 71144  1  0  0  0
 72 73  1  0  0  0
 72 78  1  0  0  0
 73 75  2  0  0  0
 73 80  1  0  0  0
 74 82  1  0  0  0
 74 83  2  0  0  0
 75 81  1  0  0  0
 75 83  1  0  0  0
 76 77  1  0  0  0
 76 78  1  0  0  0
 76145  1  0  0  0
 76146  1  0  0  0
 77 78  1  0  0  0
 77147  1  0  0  0
 77148  1  0  0  0
 78149  1  0  0  0
 79 81  1  0  0  0
 79150  1  0  0  0
 79151  1  0  0  0
 79152  1  0  0  0
 80153  1  0  0  0
 80154  1  0  0  0
 81155  1  0  0  0
 81156  1  0  0  0
 82 84  1  0  0  0
 82157  1  0  0  0
 82158  1  0  0  0
 84159  1  0  0  0
M  ISO  4   1 100  68 101  80 101  84 100
M  END
> <chiral flag>
0

> <version>
0

> <s_m_source_file>
/data/baiqing/PycharmProjects/Reinvent-master-3.2/result/LINK_invent/BTK/process_docking_weight1_custom_sum_contain_oxygen_bond_distance_aromatic_linkinvent_7_9_3/rearranged_h_0127.sdf

> <i_m_source_file_index>
50

> <r_mmod_Potential_Energy-OPLS-2005>
851.882080078125

> <r_mmod_Stretch_Energy-OPLS-2005>
466.995941162109

> <r_mmod_Bend_Energy-OPLS-2005>
438.407165527344

> <r_mmod_Torsional_Energy-OPLS-2005>
236.006759643555

> <r_mmod_Improper_Torsional_Energy-OPLS-2005>
6.36620473861694

> <r_mmod_Van_der_Waal_Energy-OPLS-2005>
129.072937011719

> <r_mmod_Electrostatic_Energy-OPLS-2005>
-605.938781738281

> <r_mmod_Solvation_Energy-OPLS-2005>
-228.412460327148

> <b_mmod_Minimization_Converged-OPLS-2005>
0

> <r_mmod_RMS_Derivative-OPLS-2005>
0.942295074462891

$$$$
50
                    3D
 Structure written by MMmdl.
152160  0  0  1  0            999 V2000
  -30.6452  -14.6209   20.5138 C   0  0  0  0  0  0
  -30.4336  -12.3756   19.4629 C   0  0  0  0  0  0
  -29.5106  -12.5206   18.2323 C   0  0  0  0  0  0
  -28.0321  -12.3600   18.6358 C   0  0  0  0  0  0
  -27.6591  -13.2207   19.8730 C   0  0  2  0  0  0
  -28.7052  -13.0616   21.0012 C   0  0  0  0  0  0
  -25.2584  -13.8205   20.5738 C   0  0  0  0  0  0
  -24.1834  -13.0469   20.9205 C   0  0  0  0  0  0
  -24.6404  -11.6931   20.8766 C   0  0  0  0  0  0
  -23.9063  -10.4315   21.0423 C   0  0  0  0  0  0
  -24.3617   -9.4231   21.9200 C   0  0  0  0  0  0
  -23.6310   -8.2252   22.0753 C   0  0  0  0  0  0
  -22.4290   -8.0302   21.3542 C   0  0  0  0  0  0
  -21.9923   -9.0272   20.4640 C   0  0  0  0  0  0
  -22.7238  -10.2156   20.3066 C   0  0  0  0  0  0
  -21.6854   -6.0774   22.5280 C   0  0  0  0  0  0
  -21.4008   -6.5662   23.8220 C   0  0  0  0  0  0
  -21.3672   -5.6797   24.9168 C   0  0  0  0  0  0
  -21.6042   -4.3057   24.7214 C   0  0  0  0  0  0
  -21.8816   -3.8165   23.4329 C   0  0  0  0  0  0
  -21.9175   -4.6995   22.3391 C   0  0  0  0  0  0
  -22.7851  -13.5280   21.1804 C   0  0  0  0  0  0
  -22.1646   -4.2197   21.0970 F   0  0  0  0  0  0
  -21.5633   -3.4526   25.7724 F   0  0  0  0  0  0
  -30.0260  -13.3971   20.4462 N   0  0  0  0  0  0
  -26.3021  -12.9385   20.3375 N   0  0  0  0  0  0
  -25.9335  -11.6529   20.5795 N   0  0  0  0  0  0
  -22.0430  -12.8334   22.0357 N   0  0  0  0  0  0
  -25.4369  -15.1923   20.4194 N   0  0  0  0  0  0
  -31.7842  -14.7867   20.0669 O   0  0  0  0  0  0
  -21.6655   -6.8911   21.4241 O   0  0  0  0  0  0
  -22.3570  -14.5574   20.6604 O   0  0  0  0  0  0
  -24.6216  -31.8623   23.2024 C   0  0  0  0  0  0
  -25.9076  -32.4789   23.8366 C   0  0  1  0  0  0
  -27.2319  -27.3288   20.1542 C   0  0  0  0  0  0
  -25.5923  -33.8600   24.2293 N   0  0  0  0  0  0
  -23.4172  -30.4812   21.5443 C   0  0  2  0  0  0
  -24.8699  -28.9305   20.1211 C   0  0  0  0  0  0
  -22.7473  -29.4613   22.4936 C   0  0  0  0  0  0
  -18.0285  -28.1361   22.8471 C   0  0  0  0  0  0
  -24.1502  -36.7289   23.2639 C   0  0  0  0  0  0
  -25.9553  -30.7978   21.3737 C   0  0  0  0  0  0
  -26.0342  -29.4233   20.7239 C   0  0  0  0  0  0
  -27.2207  -28.6349   20.7272 C   0  0  0  0  0  0
  -26.0487  -26.8751   19.5348 C   0  0  0  0  0  0
  -24.8774  -27.6607   19.5186 C   0  0  0  0  0  0
  -23.6369  -29.8117   20.1603 C   0  0  0  0  0  0
  -25.4124  -36.3083   24.0325 C   0  0  1  0  0  0
  -20.5889  -28.3669   23.1284 C   0  0  2  0  0  0
  -20.6779  -26.9388   22.5408 C   0  0  0  0  0  0
  -19.5763  -26.6356   21.5204 C   0  0  0  0  0  0
  -18.1933  -26.7896   22.1606 C   0  0  0  0  0  0
  -19.1537  -28.8836   23.2865 C   0  0  0  0  0  0
  -18.9463  -30.1444   23.8864 C   0  0  0  0  0  0
  -17.6461  -30.6569   24.0543 C   0  0  0  0  0  0
  -25.9053  -34.9459   23.5110 C   0  0  0  0  0  0
  -16.5351  -29.9061   23.6326 C   0  0  0  0  0  0
  -16.7271  -28.6483   23.0342 C   0  0  0  0  0  0
  -26.4477  -31.6589   25.0733 C   0  0  0  0  0  0
  -25.3721  -31.3717   26.1468 C   0  0  0  0  0  0
  -27.0340  -30.3027   24.6167 C   0  0  0  0  0  0
  -27.6048  -32.4319   25.7498 C   0  0  0  0  0  0
  -27.5580  -37.1793   24.8452 C   0  0  0  0  0  0
  -21.4190  -29.3024   22.3681 N   0  0  0  0  0  0
  -26.4284  -37.3785   23.9411 N   0  0  0  0  0  0
  -24.6826  -31.0654   22.0957 N   0  0  0  0  0  0
  -23.4213  -28.8162   23.3005 O   0  0  0  0  0  0
  -28.3600  -26.5015   20.1677 O   0  0  0  0  0  0
  -26.5617  -34.8919   22.4672 O   0  0  0  0  0  0
  -23.5393  -32.1417   23.7371 O   0  0  0  0  0  0
  -30.7346  -17.7763   19.8521 C   0  0  0  0  0  0
  -29.0304  -17.9185   21.5440 C   0  0  0  0  0  0
  -30.6006  -19.1782   19.6254 C   0  0  0  0  0  0
  -28.9141  -19.3269   21.3342 C   0  0  0  0  0  0
  -29.9218  -17.0987   20.7979 C   0  0  0  0  0  0
  -29.6747  -19.9913   20.3353 C   0  0  0  0  0  0
  -28.8120  -23.8977   20.0171 C   0  0  0  0  0  0
  -29.0153  -22.5088   20.7929 C   0  0  0  0  0  0
  -28.2460  -25.1675   20.7984 C   0  0  0  0  0  0
  -29.8929  -15.6485   21.0082 N   0  0  0  0  0  0
  -29.5377  -21.3737   19.9700 N   0  0  0  0  0  0
  -31.4830  -12.4732   19.1765 H   0  0  0  0  0  0
  -30.3415  -11.3797   19.8997 H   0  0  0  0  0  0
  -29.7771  -11.7879   17.4703 H   0  0  0  0  0  0
  -29.6563  -13.5028   17.7794 H   0  0  0  0  0  0
  -27.8550  -11.3046   18.8497 H   0  0  0  0  0  0
  -27.3846  -12.6091   17.7956 H   0  0  0  0  0  0
  -27.6861  -14.2602   19.5442 H   0  0  0  0  0  0
  -28.7101  -12.0365   21.3758 H   0  0  0  0  0  0
  -28.4590  -13.6856   21.8612 H   0  0  0  0  0  0
  -25.2741   -9.5739   22.4781 H   0  0  0  0  0  0
  -24.0026   -7.4668   22.7482 H   0  0  0  0  0  0
  -21.0848   -8.8784   19.8965 H   0  0  0  0  0  0
  -22.3673  -10.9704   19.6190 H   0  0  0  0  0  0
  -21.2000   -7.6170   23.9742 H   0  0  0  0  0  0
  -21.1495   -6.0523   25.9085 H   0  0  0  0  0  0
  -22.0577   -2.7641   23.2796 H   0  0  0  0  0  0
  -22.3976  -12.0038   22.4883 H   0  0  0  0  0  0
  -21.1036  -13.1415   22.2461 H   0  0  0  0  0  0
  -24.6818  -15.8586   20.5363 H   0  0  0  0  0  0
  -26.3009  -15.6218   20.1136 H   0  0  0  0  0  0
  -26.7148  -32.5482   23.1128 H   0  0  0  0  0  0
  -25.0090  -33.9756   25.0449 H   0  0  0  0  0  0
  -22.7058  -31.2966   21.3985 H   0  0  0  0  0  0
  -23.3774  -35.9608   23.3292 H   0  0  0  0  0  0
  -24.3591  -36.8922   22.2048 H   0  0  0  0  0  0
  -23.7234  -37.6480   23.6683 H   0  0  0  0  0  0
  -26.0882  -31.5603   20.6057 H   0  0  0  0  0  0
  -26.8337  -30.8481   22.0046 H   0  0  0  0  0  0
  -28.1150  -29.0106   21.2065 H   0  0  0  0  0  0
  -26.0231  -25.8966   19.0765 H   0  0  0  0  0  0
  -23.9813  -27.2727   19.0554 H   0  0  0  0  0  0
  -23.7604  -30.5873   19.4022 H   0  0  0  0  0  0
  -22.7571  -29.2416   19.8550 H   0  0  0  0  0  0
  -25.1297  -36.1936   25.0811 H   0  0  0  0  0  0
  -20.9968  -28.3241   24.1417 H   0  0  0  0  0  0
  -20.5696  -26.2263   23.3611 H   0  0  0  0  0  0
  -21.6649  -26.7427   22.1201 H   0  0  0  0  0  0
  -19.6924  -25.6269   21.1238 H   0  0  0  0  0  0
  -19.6700  -27.3170   20.6745 H   0  0  0  0  0  0
  -17.4211  -26.6656   21.3996 H   0  0  0  0  0  0
  -18.0315  -26.0032   22.9007 H   0  0  0  0  0  0
  -19.7951  -30.7260   24.2209 H   0  0  0  0  0  0
  -17.5027  -31.6248   24.5149 H   0  0  0  0  0  0
  -15.5352  -30.2956   23.7663 H   0  0  0  0  0  0
  -15.8673  -28.0798   22.7058 H   0  0  0  0  0  0
  -24.5888  -30.7075   25.7790 H   0  0  0  0  0  0
  -24.8930  -32.2895   26.4910 H   0  0  0  0  0  0
  -25.8052  -30.8876   27.0235 H   0  0  0  0  0  0
  -26.2917  -29.6763   24.1211 H   0  0  0  0  0  0
  -27.4083  -29.7279   25.4647 H   0  0  0  0  0  0
  -27.8768  -30.4340   23.9373 H   0  0  0  0  0  0
  -27.2677  -33.3624   26.2087 H   0  0  0  0  0  0
  -28.3866  -32.6870   25.0326 H   0  0  0  0  0  0
  -28.0736  -31.8446   26.5405 H   0  0  0  0  0  0
  -28.2582  -38.0112   24.7541 H   0  0  0  0  0  0
  -28.1094  -36.2638   24.6238 H   0  0  0  0  0  0
  -27.2298  -37.1387   25.8856 H   0  0  0  0  0  0
  -20.9363  -29.8735   21.6884 H   0  0  0  0  0  0
  -26.0165  -38.2858   24.1438 H   0  0  0  0  0  0
  -31.4536  -17.2279   19.2592 H   0  0  0  0  0  0
  -28.3969  -17.4564   22.2905 H   0  0  0  0  0  0
  -31.2266  -19.6297   18.8673 H   0  0  0  0  0  0
  -28.1994  -19.8774   21.9300 H   0  0  0  0  0  0
  -28.1562  -23.7215   19.1642 H   0  0  0  0  0  0
  -29.7738  -24.1900   19.5942 H   0  0  0  0  0  0
  -28.0901  -22.2083   21.2839 H   0  0  0  0  0  0
  -29.7423  -22.6722   21.5900 H   0  0  0  0  0  0
  -28.7902  -25.2433   21.7417 H   0  0  0  0  0  0
  -27.2145  -24.9682   21.0923 H   0  0  0  0  0  0
  -29.0713  -15.3195   21.4908 H   0  0  0  0  0  0
  -30.0468  -21.6491   19.1331 H   0  0  0  0  0  0
  1 25  1  0  0  0
  1 30  2  0  0  0
  1 80  1  0  0  0
  2  3  1  0  0  0
  2 25  1  0  0  0
  2 82  1  0  0  0
  2 83  1  0  0  0
  3  4  1  0  0  0
  3 84  1  0  0  0
  3 85  1  0  0  0
  4  5  1  0  0  0
  4 86  1  0  0  0
  4 87  1  0  0  0
  5  6  1  0  0  0
  5 26  1  0  0  0
  5 88  1  0  0  0
  6 25  1  0  0  0
  6 89  1  0  0  0
  6 90  1  0  0  0
  7  8  2  0  0  0
  7 26  1  0  0  0
  7 29  1  0  0  0
  8  9  1  0  0  0
  8 22  1  0  0  0
  9 10  1  0  0  0
  9 27  2  0  0  0
 10 11  2  0  0  0
 10 15  1  0  0  0
 11 12  1  0  0  0
 11 91  1  0  0  0
 12 13  2  0  0  0
 12 92  1  0  0  0
 13 14  1  0  0  0
 13 31  1  0  0  0
 14 15  2  0  0  0
 14 93  1  0  0  0
 15 94  1  0  0  0
 16 17  2  0  0  0
 16 21  1  0  0  0
 16 31  1  0  0  0
 17 18  1  0  0  0
 17 95  1  0  0  0
 18 19  2  0  0  0
 18 96  1  0  0  0
 19 20  1  0  0  0
 19 24  1  0  0  0
 20 21  2  0  0  0
 20 97  1  0  0  0
 21 23  1  0  0  0
 22 28  1  0  0  0
 22 32  2  0  0  0
 26 27  1  0  0  0
 28 98  1  0  0  0
 28 99  1  0  0  0
 29100  1  0  0  0
 29101  1  0  0  0
 33 34  1  0  0  0
 33 66  1  0  0  0
 33 70  2  0  0  0
 34 36  1  0  0  0
 34 59  1  0  0  0
 34102  1  0  0  0
 35 44  2  0  0  0
 35 45  1  0  0  0
 35 68  1  0  0  0
 36 56  1  0  0  0
 36103  1  0  0  0
 37 39  1  0  0  0
 37 47  1  0  0  0
 37 66  1  0  0  0
 37104  1  0  0  0
 38 43  2  0  0  0
 38 46  1  0  0  0
 38 47  1  0  0  0
 39 64  1  0  0  0
 39 67  2  0  0  0
 40 52  1  0  0  0
 40 53  2  0  0  0
 40 58  1  0  0  0
 41105  1  0  0  0
 41106  1  0  0  0
 41107  1  0  0  0
 41 48  1  0  0  0
 42 43  1  0  0  0
 42 66  1  0  0  0
 42108  1  0  0  0
 42109  1  0  0  0
 43 44  1  0  0  0
 44110  1  0  0  0
 45 46  2  0  0  0
 45111  1  0  0  0
 46112  1  0  0  0
 47113  1  0  0  0
 47114  1  0  0  0
 48 56  1  0  0  0
 48 65  1  0  0  0
 48115  1  0  0  0
 49 50  1  0  0  0
 49 53  1  0  0  0
 49 64  1  0  0  0
 49116  1  0  0  0
 50 51  1  0  0  0
 50117  1  0  0  0
 50118  1  0  0  0
 51 52  1  0  0  0
 51119  1  0  0  0
 51120  1  0  0  0
 52121  1  0  0  0
 52122  1  0  0  0
 53 54  1  0  0  0
 54 55  2  0  0  0
 54123  1  0  0  0
 55 57  1  0  0  0
 55124  1  0  0  0
 56 69  2  0  0  0
 57 58  2  0  0  0
 57125  1  0  0  0
 58126  1  0  0  0
 59 60  1  0  0  0
 59 61  1  0  0  0
 59 62  1  0  0  0
 60127  1  0  0  0
 60128  1  0  0  0
 60129  1  0  0  0
 61130  1  0  0  0
 61131  1  0  0  0
 61132  1  0  0  0
 62133  1  0  0  0
 62134  1  0  0  0
 62135  1  0  0  0
 63 65  1  0  0  0
 63136  1  0  0  0
 63137  1  0  0  0
 63138  1  0  0  0
 64139  1  0  0  0
 65140  1  0  0  0
 68 79  1  0  0  0
 71 73  2  0  0  0
 71 75  1  0  0  0
 71141  1  0  0  0
 72 74  1  0  0  0
 72 75  2  0  0  0
 72142  1  0  0  0
 73 76  1  0  0  0
 73143  1  0  0  0
 74 76  2  0  0  0
 74144  1  0  0  0
 75 80  1  0  0  0
 76 81  1  0  0  0
 77 78  1  0  0  0
 77 79  1  0  0  0
 77145  1  0  0  0
 77146  1  0  0  0
 78 81  1  0  0  0
 78147  1  0  0  0
 78148  1  0  0  0
 79149  1  0  0  0
 79150  1  0  0  0
 80151  1  0  0  0
 81152  1  0  0  0
M  ISO  4   1 100  68 101  79 101  80 100
M  END
> <chiral flag>
0

> <version>
0

> <s_m_source_file>
/data/baiqing/PycharmProjects/Reinvent-master-3.2/result/LINK_invent/BTK/process_docking_weight1_custom_sum_contain_oxygen_bond_distance_aromatic_linkinvent_7_9_3/rearranged_h_0127.sdf

> <i_m_source_file_index>
51

> <r_mmod_Potential_Energy-OPLS-2005>
29.103796005249

> <r_mmod_Stretch_Energy-OPLS-2005>
76.0687026977539

> <r_mmod_Bend_Energy-OPLS-2005>
148.314880371094

> <r_mmod_Torsional_Energy-OPLS-2005>
225.574829101562

> <r_mmod_Improper_Torsional_Energy-OPLS-2005>
3.72424745559692

> <r_mmod_Van_der_Waal_Energy-OPLS-2005>
136.938903808594

> <r_mmod_Electrostatic_Energy-OPLS-2005>
-384.576385498047

> <r_mmod_Solvation_Energy-OPLS-2005>
-218.6865234375

> <b_mmod_Minimization_Converged-OPLS-2005>
0

> <r_mmod_RMS_Derivative-OPLS-2005>
4.06231117248535

$$$$
51
                    3D
 Structure written by MMmdl.
166175  0  0  1  0            999 V2000
  -30.6208  -14.6205   20.5264 C   0  0  0  0  0  0
  -30.4279  -12.3756   19.4809 C   0  0  0  0  0  0
  -29.5133  -12.4981   18.2414 C   0  0  0  0  0  0
  -28.0325  -12.3484   18.6422 C   0  0  0  0  0  0
  -27.6546  -13.2150   19.8731 C   0  0  2  0  0  0
  -28.6861  -13.0765   21.0152 C   0  0  0  0  0  0
  -25.2571  -13.8171   20.5675 C   0  0  0  0  0  0
  -24.1827  -13.0444   20.9163 C   0  0  0  0  0  0
  -24.6382  -11.6912   20.8716 C   0  0  0  0  0  0
  -23.9045  -10.4304   21.0399 C   0  0  0  0  0  0
  -24.3591   -9.4207   21.9177 C   0  0  0  0  0  0
  -23.6270   -8.2243   22.0742 C   0  0  0  0  0  0
  -22.4244   -8.0278   21.3539 C   0  0  0  0  0  0
  -21.9894   -9.0259   20.4641 C   0  0  0  0  0  0
  -22.7220  -10.2133   20.3044 C   0  0  0  0  0  0
  -21.6855   -6.0717   22.5277 C   0  0  0  0  0  0
  -21.4016   -6.5620   23.8213 C   0  0  0  0  0  0
  -21.3662   -5.6770   24.9167 C   0  0  0  0  0  0
  -21.6055   -4.3035   24.7224 C   0  0  0  0  0  0
  -21.8831   -3.8118   23.4344 C   0  0  0  0  0  0
  -21.9196   -4.6947   22.3400 C   0  0  0  0  0  0
  -22.7873  -13.5271   21.1837 C   0  0  0  0  0  0
  -22.1664   -4.2131   21.0982 F   0  0  0  0  0  0
  -21.5645   -3.4524   25.7732 F   0  0  0  0  0  0
  -30.0068  -13.4003   20.4610 N   0  0  0  0  0  0
  -26.2985  -12.9340   20.3334 N   0  0  0  0  0  0
  -25.9313  -11.6495   20.5759 N   0  0  0  0  0  0
  -22.0486  -12.8267   22.0382 N   0  0  0  0  0  0
  -25.4328  -15.1879   20.4093 N   0  0  0  0  0  0
  -31.7703  -14.7788   20.0989 O   0  0  0  0  0  0
  -21.6624   -6.8863   21.4237 O   0  0  0  0  0  0
  -22.3589  -14.5595   20.6695 O   0  0  0  0  0  0
  -24.6242  -31.8624   23.2065 C   0  0  0  0  0  0
  -25.9113  -32.4780   23.8370 C   0  0  1  0  0  0
  -27.2242  -27.3578   20.0996 C   0  0  0  0  0  0
  -25.5963  -33.8593   24.2305 N   0  0  0  0  0  0
  -23.4123  -30.4877   21.5506 C   0  0  2  0  0  0
  -24.8525  -28.9456   20.1136 C   0  0  0  0  0  0
  -22.7460  -29.4630   22.4969 C   0  0  0  0  0  0
  -18.0283  -28.1377   22.8484 C   0  0  0  0  0  0
  -24.1497  -36.7284   23.2634 C   0  0  0  0  0  0
  -25.9514  -30.8009   21.3721 C   0  0  0  0  0  0
  -26.0210  -29.4353   20.7075 C   0  0  0  0  0  0
  -27.2072  -28.6520   20.6937 C   0  0  0  0  0  0
  -26.0197  -26.8890   19.5262 C   0  0  0  0  0  0
  -24.8492  -27.6720   19.5220 C   0  0  0  0  0  0
  -23.6207  -29.8258   20.1633 C   0  0  0  0  0  0
  -25.4119  -36.3095   24.0338 C   0  0  1  0  0  0
  -20.5882  -28.3674   23.1286 C   0  0  2  0  0  0
  -20.6781  -26.9401   22.5402 C   0  0  0  0  0  0
  -19.5755  -26.6377   21.5207 C   0  0  0  0  0  0
  -18.1936  -26.7927   22.1615 C   0  0  0  0  0  0
  -19.1539  -28.8844   23.2880 C   0  0  0  0  0  0
  -18.9459  -30.1452   23.8874 C   0  0  0  0  0  0
  -17.6462  -30.6579   24.0556 C   0  0  0  0  0  0
  -25.9065  -34.9455   23.5111 C   0  0  0  0  0  0
  -16.5349  -29.9069   23.6335 C   0  0  0  0  0  0
  -16.7279  -28.6495   23.0347 C   0  0  0  0  0  0
  -26.4508  -31.6601   25.0746 C   0  0  0  0  0  0
  -25.3758  -31.3760   26.1497 C   0  0  0  0  0  0
  -27.0338  -30.3022   24.6198 C   0  0  0  0  0  0
  -27.6079  -32.4333   25.7498 C   0  0  0  0  0  0
  -27.5596  -37.1791   24.8461 C   0  0  0  0  0  0
  -21.4190  -29.3030   22.3698 N   0  0  0  0  0  0
  -26.4298  -37.3786   23.9424 N   0  0  0  0  0  0
  -24.6808  -31.0663   22.0994 N   0  0  0  0  0  0
  -23.4205  -28.8168   23.3038 O   0  0  0  0  0  0
  -28.3756  -26.5695   20.1550 O   0  0  0  0  0  0
  -26.5596  -34.8917   22.4662 O   0  0  0  0  0  0
  -23.5425  -32.1415   23.7417 O   0  0  0  0  0  0
  -30.5213  -22.2026   20.0996 C   0  0  0  0  0  0
  -30.2058  -23.5728   19.9191 C   0  0  0  0  0  0
  -27.8707  -23.0492   20.0821 C   0  0  0  0  0  0
  -29.5276  -21.1815   20.1749 C   0  0  0  0  0  0
  -28.8712  -24.0211   19.8220 C   0  0  0  0  0  0
  -28.1851  -21.6637   20.2774 C   0  0  0  0  0  0
  -30.7758  -18.6151   21.9950 C   0  0  0  0  0  0
  -32.0497  -19.3892   21.5757 C   0  0  0  0  0  0
  -31.2976  -19.5347   19.1780 C   0  0  0  0  0  0
  -29.8863  -19.6663   19.8325 C   0  0  1  0  0  0
  -29.7388  -18.4472   20.8626 C   0  0  1  0  0  0
  -27.0406  -20.7014   20.5364 C   0  0  0  0  0  0
  -28.5629  -25.4427   19.2453 C   0  0  0  0  0  0
  -29.8692  -17.0219   20.1288 C   0  0  0  0  0  0
  -29.8333  -15.6978   20.8461 N   0  0  0  0  0  0
  -32.3804  -19.2029   20.1437 N   0  3  0  0  0  0
  -31.4768  -12.4810   19.1946 H   0  0  0  0  0  0
  -30.3352  -11.3820   19.9204 H   0  0  0  0  0  0
  -29.7764  -11.7366   17.5054 H   0  0  0  0  0  0
  -29.6746  -13.4605   17.7531 H   0  0  0  0  0  0
  -27.8574  -11.2970   18.8670 H   0  0  0  0  0  0
  -27.3851  -12.5894   17.7988 H   0  0  0  0  0  0
  -27.6763  -14.2524   19.5354 H   0  0  0  0  0  0
  -28.6855  -12.0674   21.4283 H   0  0  0  0  0  0
  -28.4270  -13.7362   21.8448 H   0  0  0  0  0  0
  -25.2728   -9.5699   22.4757 H   0  0  0  0  0  0
  -23.9998   -7.4628   22.7449 H   0  0  0  0  0  0
  -21.0836   -8.8763   19.8932 H   0  0  0  0  0  0
  -22.3675  -10.9671   19.6152 H   0  0  0  0  0  0
  -21.1982   -7.6127   23.9709 H   0  0  0  0  0  0
  -21.1495   -6.0489   25.9082 H   0  0  0  0  0  0
  -22.0603   -2.7589   23.2828 H   0  0  0  0  0  0
  -22.4065  -11.9908   22.4755 H   0  0  0  0  0  0
  -21.1121  -13.1324   22.2587 H   0  0  0  0  0  0
  -24.6664  -15.8422   20.5174 H   0  0  0  0  0  0
  -26.2905  -15.6278   20.1013 H   0  0  0  0  0  0
  -26.7179  -32.5427   23.1115 H   0  0  0  0  0  0
  -25.0230  -33.9751   25.0529 H   0  0  0  0  0  0
  -22.7052  -31.3087   21.4157 H   0  0  0  0  0  0
  -23.3779  -35.9596   23.3290 H   0  0  0  0  0  0
  -24.3601  -36.8903   22.2052 H   0  0  0  0  0  0
  -23.7216  -37.6478   23.6640 H   0  0  0  0  0  0
  -26.0924  -31.5696   20.6114 H   0  0  0  0  0  0
  -26.8271  -30.8321   22.0084 H   0  0  0  0  0  0
  -28.1077  -29.0289   21.1568 H   0  0  0  0  0  0
  -25.9342  -25.8926   19.1236 H   0  0  0  0  0  0
  -23.9430  -27.2711   19.0893 H   0  0  0  0  0  0
  -23.7440  -30.6070   19.4121 H   0  0  0  0  0  0
  -22.7367  -29.2635   19.8579 H   0  0  0  0  0  0
  -25.1292  -36.1960   25.0830 H   0  0  0  0  0  0
  -20.9978  -28.3243   24.1407 H   0  0  0  0  0  0
  -20.5705  -26.2284   23.3603 H   0  0  0  0  0  0
  -21.6651  -26.7450   22.1179 H   0  0  0  0  0  0
  -19.6921  -25.6286   21.1244 H   0  0  0  0  0  0
  -19.6705  -27.3179   20.6733 H   0  0  0  0  0  0
  -17.4221  -26.6682   21.4004 H   0  0  0  0  0  0
  -18.0322  -26.0062   22.9006 H   0  0  0  0  0  0
  -19.7943  -30.7268   24.2231 H   0  0  0  0  0  0
  -17.5021  -31.6260   24.5163 H   0  0  0  0  0  0
  -15.5348  -30.2957   23.7683 H   0  0  0  0  0  0
  -15.8692  -28.0808   22.7059 H   0  0  0  0  0  0
  -24.5858  -30.7203   25.7830 H   0  0  0  0  0  0
  -24.9051  -32.2955   26.5000 H   0  0  0  0  0  0
  -25.8087  -30.8859   27.0232 H   0  0  0  0  0  0
  -26.2903  -29.6778   24.1236 H   0  0  0  0  0  0
  -27.4057  -29.7279   25.4698 H   0  0  0  0  0  0
  -27.8774  -30.4315   23.9408 H   0  0  0  0  0  0
  -27.2698  -33.3630   26.2092 H   0  0  0  0  0  0
  -28.3874  -32.6909   25.0312 H   0  0  0  0  0  0
  -28.0778  -31.8461   26.5406 H   0  0  0  0  0  0
  -28.2587  -38.0112   24.7557 H   0  0  0  0  0  0
  -28.1113  -36.2651   24.6222 H   0  0  0  0  0  0
  -27.2325  -37.1366   25.8860 H   0  0  0  0  0  0
  -20.9372  -29.8760   21.6912 H   0  0  0  0  0  0
  -26.0189  -38.2866   24.1433 H   0  0  0  0  0  0
  -31.5737  -21.9650   20.0544 H   0  0  0  0  0  0
  -31.0122  -24.2729   19.7457 H   0  0  0  0  0  0
  -26.8351  -23.3612   20.0513 H   0  0  0  0  0  0
  -30.3190  -19.1638   22.8200 H   0  0  0  0  0  0
  -31.0475  -17.6412   22.4029 H   0  0  0  0  0  0
  -32.8938  -19.0710   22.1899 H   0  0  0  0  0  0
  -31.9222  -20.4528   21.7815 H   0  0  0  0  0  0
  -31.5643  -20.4115   18.5907 H   0  0  0  0  0  0
  -31.2872  -18.7453   18.4291 H   0  0  0  0  0  0
  -29.1761  -19.4515   19.0321 H   0  0  0  0  0  0
  -28.7459  -18.4673   21.3107 H   0  0  0  0  0  0
  -26.1078  -21.2372   20.7199 H   0  0  0  0  0  0
  -27.2394  -20.1105   21.4303 H   0  0  0  0  0  0
  -26.8879  -20.0232   19.6977 H   0  0  0  0  0  0
  -27.8106  -25.3631   18.4631 H   0  0  0  0  0  0
  -29.4456  -25.7255   18.6688 H   0  0  0  0  0  0
  -30.7781  -17.0041   19.5377 H   0  0  0  0  0  0
  -29.0637  -16.9750   19.3928 H   0  0  0  0  0  0
  -28.9498  -15.4530   21.2710 H   0  0  0  0  0  0
  -32.6260  -18.2347   20.0164 H   0  0  0  0  0  0
  -33.2034  -19.7346   19.9114 H   0  0  0  0  0  0
  1 25  1  0  0  0
  1 30  2  0  0  0
  1 85  1  0  0  0
  2  3  1  0  0  0
  2 25  1  0  0  0
  2 87  1  0  0  0
  2 88  1  0  0  0
  3  4  1  0  0  0
  3 89  1  0  0  0
  3 90  1  0  0  0
  4  5  1  0  0  0
  4 91  1  0  0  0
  4 92  1  0  0  0
  5  6  1  0  0  0
  5 26  1  0  0  0
  5 93  1  0  0  0
  6 25  1  0  0  0
  6 94  1  0  0  0
  6 95  1  0  0  0
  7  8  2  0  0  0
  7 26  1  0  0  0
  7 29  1  0  0  0
  8  9  1  0  0  0
  8 22  1  0  0  0
  9 10  1  0  0  0
  9 27  2  0  0  0
 10 11  2  0  0  0
 10 15  1  0  0  0
 11 12  1  0  0  0
 11 96  1  0  0  0
 12 13  2  0  0  0
 12 97  1  0  0  0
 13 14  1  0  0  0
 13 31  1  0  0  0
 14 15  2  0  0  0
 14 98  1  0  0  0
 15 99  1  0  0  0
 16 17  2  0  0  0
 16 21  1  0  0  0
 16 31  1  0  0  0
 17 18  1  0  0  0
 17100  1  0  0  0
 18 19  2  0  0  0
 18101  1  0  0  0
 19 20  1  0  0  0
 19 24  1  0  0  0
 20 21  2  0  0  0
 20102  1  0  0  0
 21 23  1  0  0  0
 22 28  1  0  0  0
 22 32  2  0  0  0
 26 27  1  0  0  0
 28103  1  0  0  0
 28104  1  0  0  0
 29105  1  0  0  0
 29106  1  0  0  0
 33 34  1  0  0  0
 33 66  1  0  0  0
 33 70  2  0  0  0
 34 36  1  0  0  0
 34 59  1  0  0  0
 34107  1  0  0  0
 35 44  2  0  0  0
 35 45  1  0  0  0
 35 68  1  0  0  0
 36 56  1  0  0  0
 36108  1  0  0  0
 37 39  1  0  0  0
 37 47  1  0  0  0
 37 66  1  0  0  0
 37109  1  0  0  0
 38 43  2  0  0  0
 38 46  1  0  0  0
 38 47  1  0  0  0
 39 64  1  0  0  0
 39 67  2  0  0  0
 40 52  1  0  0  0
 40 53  2  0  0  0
 40 58  1  0  0  0
 41110  1  0  0  0
 41111  1  0  0  0
 41112  1  0  0  0
 41 48  1  0  0  0
 42 43  1  0  0  0
 42 66  1  0  0  0
 42113  1  0  0  0
 42114  1  0  0  0
 43 44  1  0  0  0
 44115  1  0  0  0
 45 46  2  0  0  0
 45116  1  0  0  0
 46117  1  0  0  0
 47118  1  0  0  0
 47119  1  0  0  0
 48 56  1  0  0  0
 48 65  1  0  0  0
 48120  1  0  0  0
 49 50  1  0  0  0
 49 53  1  0  0  0
 49 64  1  0  0  0
 49121  1  0  0  0
 50 51  1  0  0  0
 50122  1  0  0  0
 50123  1  0  0  0
 51 52  1  0  0  0
 51124  1  0  0  0
 51125  1  0  0  0
 52126  1  0  0  0
 52127  1  0  0  0
 53 54  1  0  0  0
 54 55  2  0  0  0
 54128  1  0  0  0
 55 57  1  0  0  0
 55129  1  0  0  0
 56 69  2  0  0  0
 57 58  2  0  0  0
 57130  1  0  0  0
 58131  1  0  0  0
 59 60  1  0  0  0
 59 61  1  0  0  0
 59 62  1  0  0  0
 60132  1  0  0  0
 60133  1  0  0  0
 60134  1  0  0  0
 61135  1  0  0  0
 61136  1  0  0  0
 61137  1  0  0  0
 62138  1  0  0  0
 62139  1  0  0  0
 62140  1  0  0  0
 63 65  1  0  0  0
 63141  1  0  0  0
 63142  1  0  0  0
 63143  1  0  0  0
 64144  1  0  0  0
 65145  1  0  0  0
 68 83  1  0  0  0
 71 72  2  0  0  0
 71 74  1  0  0  0
 71146  1  0  0  0
 72 75  1  0  0  0
 72147  1  0  0  0
 73 75  2  0  0  0
 73 76  1  0  0  0
 73148  1  0  0  0
 74 76  2  0  0  0
 74 80  1  0  0  0
 75 83  1  0  0  0
 76 82  1  0  0  0
 77 78  1  0  0  0
 77 81  1  0  0  0
 77149  1  0  0  0
 77150  1  0  0  0
 78 86  1  0  0  0
 78151  1  0  0  0
 78152  1  0  0  0
 79 80  1  0  0  0
 79 86  1  0  0  0
 79153  1  0  0  0
 79154  1  0  0  0
 80 81  1  0  0  0
 80155  1  0  0  0
 81 84  1  0  0  0
 81156  1  0  0  0
 82157  1  0  0  0
 82158  1  0  0  0
 82159  1  0  0  0
 83160  1  0  0  0
 83161  1  0  0  0
 84 85  1  0  0  0
 84162  1  0  0  0
 84163  1  0  0  0
 85164  1  0  0  0
 86165  1  0  0  0
 86166  1  0  0  0
M  CHG  1  86   1
M  ISO  4   1 100  68 101  83 101  85 100
M  END
> <chiral flag>
0

> <version>
0

> <s_m_source_file>
/data/baiqing/PycharmProjects/Reinvent-master-3.2/result/LINK_invent/BTK/process_docking_weight1_custom_sum_contain_oxygen_bond_distance_aromatic_linkinvent_7_9_3/rearranged_h_0127.sdf

> <i_m_source_file_index>
52

> <r_mmod_Potential_Energy-OPLS-2005>
27.6257133483887

> <r_mmod_Stretch_Energy-OPLS-2005>
81.5584716796875

> <r_mmod_Bend_Energy-OPLS-2005>
161.232238769531

> <r_mmod_Torsional_Energy-OPLS-2005>
340.690582275391

> <r_mmod_Improper_Torsional_Energy-OPLS-2005>
11.0940456390381

> <r_mmod_Van_der_Waal_Energy-OPLS-2005>
164.542739868164

> <r_mmod_Electrostatic_Energy-OPLS-2005>
-314.196105957031

> <r_mmod_Solvation_Energy-OPLS-2005>
-455.600830078125

> <b_mmod_Minimization_Converged-OPLS-2005>
0

> <r_mmod_RMS_Derivative-OPLS-2005>
3.92878031730652

$$$$
52
                    3D
 Structure written by MMmdl.
160169  0  0  1  0            999 V2000
  -30.6173  -14.7820   20.4498 C   0  0  0  0  0  0
  -30.4280  -12.4816   19.4772 C   0  0  0  0  0  0
  -29.5081  -12.5046   18.2376 C   0  0  0  0  0  0
  -28.0366  -12.3226   18.6551 C   0  0  0  0  0  0
  -27.6357  -13.2371   19.8437 C   0  0  2  0  0  0
  -28.6808  -13.2063   20.9792 C   0  0  0  0  0  0
  -25.2485  -13.8207   20.5701 C   0  0  0  0  0  0
  -24.1787  -13.0441   20.9218 C   0  0  0  0  0  0
  -24.6389  -11.6922   20.8756 C   0  0  0  0  0  0
  -23.9070  -10.4294   21.0411 C   0  0  0  0  0  0
  -24.3621   -9.4207   21.9186 C   0  0  0  0  0  0
  -23.6296   -8.2242   22.0754 C   0  0  0  0  0  0
  -22.4277   -8.0282   21.3543 C   0  0  0  0  0  0
  -21.9916   -9.0254   20.4645 C   0  0  0  0  0  0
  -22.7245  -10.2134   20.3056 C   0  0  0  0  0  0
  -21.6855   -6.0734   22.5278 C   0  0  0  0  0  0
  -21.4014   -6.5639   23.8211 C   0  0  0  0  0  0
  -21.3658   -5.6792   24.9173 C   0  0  0  0  0  0
  -21.6045   -4.3055   24.7225 C   0  0  0  0  0  0
  -21.8819   -3.8146   23.4347 C   0  0  0  0  0  0
  -21.9194   -4.6962   22.3403 C   0  0  0  0  0  0
  -22.7807  -13.5218   21.1876 C   0  0  0  0  0  0
  -22.1662   -4.2148   21.0981 F   0  0  0  0  0  0
  -21.5629   -3.4539   25.7737 F   0  0  0  0  0  0
  -29.9739  -13.5629   20.3860 N   0  0  0  0  0  0
  -26.2909  -12.9423   20.3266 N   0  0  0  0  0  0
  -25.9319  -11.6562   20.5753 N   0  0  0  0  0  0
  -22.0458  -12.8200   22.0429 N   0  0  0  0  0  0
  -25.4164  -15.1933   20.4113 N   0  0  0  0  0  0
  -31.8147  -14.8404   20.1583 O   0  0  0  0  0  0
  -21.6641   -6.8879   21.4240 O   0  0  0  0  0  0
  -22.3492  -14.5524   20.6724 O   0  0  0  0  0  0
  -24.6350  -31.8521   23.1950 C   0  0  0  0  0  0
  -25.9162  -32.4736   23.8310 C   0  0  1  0  0  0
  -27.2172  -27.2243   20.1224 C   0  0  0  0  0  0
  -25.5948  -33.8538   24.2234 N   0  0  0  0  0  0
  -23.4323  -30.4752   21.5395 C   0  0  2  0  0  0
  -24.8772  -28.9177   20.1080 C   0  0  0  0  0  0
  -22.7519  -29.4591   22.4894 C   0  0  0  0  0  0
  -18.0294  -28.1391   22.8483 C   0  0  0  0  0  0
  -24.1485  -36.7263   23.2637 C   0  0  0  0  0  0
  -25.9817  -30.7534   21.3791 C   0  0  0  0  0  0
  -26.0511  -29.3733   20.7190 C   0  0  0  0  0  0
  -27.2191  -28.5391   20.7150 C   0  0  0  0  0  0
  -26.0087  -26.8407   19.4959 C   0  0  0  0  0  0
  -24.8634  -27.6609   19.4873 C   0  0  0  0  0  0
  -23.6512  -29.8099   20.1556 C   0  0  0  0  0  0
  -25.4111  -36.3050   24.0324 C   0  0  1  0  0  0
  -20.5901  -28.3704   23.1261 C   0  0  2  0  0  0
  -20.6779  -26.9417   22.5407 C   0  0  0  0  0  0
  -19.5753  -26.6384   21.5212 C   0  0  0  0  0  0
  -18.1935  -26.7934   22.1624 C   0  0  0  0  0  0
  -19.1549  -28.8864   23.2870 C   0  0  0  0  0  0
  -18.9472  -30.1465   23.8891 C   0  0  0  0  0  0
  -17.6468  -30.6592   24.0562 C   0  0  0  0  0  0
  -25.9066  -34.9429   23.5082 C   0  0  0  0  0  0
  -16.5360  -29.9086   23.6336 C   0  0  0  0  0  0
  -16.7280  -28.6503   23.0355 C   0  0  0  0  0  0
  -26.4514  -31.6574   25.0717 C   0  0  0  0  0  0
  -25.3726  -31.3737   26.1433 C   0  0  0  0  0  0
  -27.0363  -30.2984   24.6229 C   0  0  0  0  0  0
  -27.6061  -32.4321   25.7492 C   0  0  0  0  0  0
  -27.5581  -37.1771   24.8456 C   0  0  0  0  0  0
  -21.4221  -29.3048   22.3644 N   0  0  0  0  0  0
  -26.4272  -37.3765   23.9431 N   0  0  0  0  0  0
  -24.7026  -31.0461   22.0939 N   0  0  0  0  0  0
  -23.4207  -28.8134   23.3005 O   0  0  0  0  0  0
  -28.3220  -26.3296   20.2075 O   0  0  0  0  0  0
  -26.5643  -34.8914   22.4654 O   0  0  0  0  0  0
  -23.5493  -32.1359   23.7228 O   0  0  0  0  0  0
  -28.1674  -20.7710   20.0296 C   0  0  0  0  0  0
  -30.0397  -21.5493   21.3536 C   0  0  0  0  0  0
  -28.0204  -22.2535   19.4402 C   0  0  0  0  0  0
  -29.9137  -23.0163   20.7533 C   0  0  0  0  0  0
  -31.2590  -17.5002   21.9727 C   0  0  0  0  0  0
  -29.6074  -20.3034   20.4595 C   0  0  1  0  0  0
  -28.4881  -23.4866   20.3182 C   0  0  1  0  0  0
  -30.4830  -17.3957   20.6644 C   0  0  2  0  0  0
  -29.7699  -18.8033   21.1654 C   0  0  1  0  0  0
  -28.3797  -24.9522   19.5717 C   0  0  0  0  0  0
  -29.8971  -15.9660   20.6420 N   0  0  0  0  0  0
  -31.0184  -18.9218   21.9465 N   0  3  0  0  0  0
  -31.4681  -12.6044   19.1705 H   0  0  0  0  0  0
  -30.3782  -11.5140   19.9794 H   0  0  0  0  0  0
  -29.7977  -11.7209   17.5362 H   0  0  0  0  0  0
  -29.6262  -13.4506   17.7066 H   0  0  0  0  0  0
  -27.9045  -11.2767   18.9351 H   0  0  0  0  0  0
  -27.3762  -12.4943   17.8044 H   0  0  0  0  0  0
  -27.6195  -14.2514   19.4447 H   0  0  0  0  0  0
  -28.7273  -12.2198   21.4425 H   0  0  0  0  0  0
  -28.4105  -13.9069   21.7708 H   0  0  0  0  0  0
  -25.2766   -9.5683   22.4761 H   0  0  0  0  0  0
  -24.0004   -7.4634   22.7473 H   0  0  0  0  0  0
  -21.0849   -8.8773   19.8950 H   0  0  0  0  0  0
  -22.3705  -10.9671   19.6164 H   0  0  0  0  0  0
  -21.2005   -7.6146   23.9714 H   0  0  0  0  0  0
  -21.1480   -6.0522   25.9076 H   0  0  0  0  0  0
  -22.0600   -2.7608   23.2847 H   0  0  0  0  0  0
  -22.4077  -11.9857   22.4808 H   0  0  0  0  0  0
  -21.1071  -13.1211   22.2635 H   0  0  0  0  0  0
  -24.6453  -15.8438   20.5171 H   0  0  0  0  0  0
  -26.2574  -15.6332   20.0609 H   0  0  0  0  0  0
  -26.7224  -32.5368   23.1042 H   0  0  0  0  0  0
  -25.0095  -33.9670   25.0379 H   0  0  0  0  0  0
  -22.7309  -31.2991   21.3923 H   0  0  0  0  0  0
  -23.3761  -35.9581   23.3275 H   0  0  0  0  0  0
  -24.3583  -36.8909   22.2057 H   0  0  0  0  0  0
  -23.7216  -37.6445   23.6680 H   0  0  0  0  0  0
  -26.1272  -31.5129   20.6098 H   0  0  0  0  0  0
  -26.8574  -30.8006   22.0152 H   0  0  0  0  0  0
  -28.1168  -28.8846   21.2082 H   0  0  0  0  0  0
  -25.8855  -25.8756   19.0345 H   0  0  0  0  0  0
  -23.9602  -27.3017   19.0134 H   0  0  0  0  0  0
  -23.7793  -30.5868   19.4009 H   0  0  0  0  0  0
  -22.7677  -29.2473   19.8486 H   0  0  0  0  0  0
  -25.1285  -36.1879   25.0812 H   0  0  0  0  0  0
  -20.9997  -28.3280   24.1380 H   0  0  0  0  0  0
  -20.5669  -26.2315   23.3614 H   0  0  0  0  0  0
  -21.6645  -26.7428   22.1204 H   0  0  0  0  0  0
  -19.6915  -25.6293   21.1244 H   0  0  0  0  0  0
  -19.6690  -27.3194   20.6741 H   0  0  0  0  0  0
  -17.4200  -26.6683   21.4030 H   0  0  0  0  0  0
  -18.0335  -26.0079   22.9024 H   0  0  0  0  0  0
  -19.7948  -30.7284   24.2254 H   0  0  0  0  0  0
  -17.5023  -31.6272   24.5163 H   0  0  0  0  0  0
  -15.5360  -30.2985   23.7667 H   0  0  0  0  0  0
  -15.8679  -28.0821   22.7075 H   0  0  0  0  0  0
  -24.5906  -30.7080   25.7760 H   0  0  0  0  0  0
  -24.8917  -32.2913   26.4835 H   0  0  0  0  0  0
  -25.8036  -30.8929   27.0224 H   0  0  0  0  0  0
  -26.2955  -29.6727   24.1237 H   0  0  0  0  0  0
  -27.4014  -29.7253   25.4762 H   0  0  0  0  0  0
  -27.8848  -30.4246   23.9500 H   0  0  0  0  0  0
  -27.2664  -33.3625   26.2055 H   0  0  0  0  0  0
  -28.3880  -32.6874   25.0327 H   0  0  0  0  0  0
  -28.0726  -31.8459   26.5420 H   0  0  0  0  0  0
  -28.2544  -38.0122   24.7577 H   0  0  0  0  0  0
  -28.1129  -36.2656   24.6176 H   0  0  0  0  0  0
  -27.2322  -37.1288   25.8862 H   0  0  0  0  0  0
  -20.9408  -29.8772   21.6849 H   0  0  0  0  0  0
  -26.0138  -38.2820   24.1492 H   0  0  0  0  0  0
  -27.7829  -20.0656   19.2918 H   0  0  0  0  0  0
  -27.5005  -20.6795   20.8880 H   0  0  0  0  0  0
  -29.4730  -21.5224   22.2859 H   0  0  0  0  0  0
  -31.0852  -21.4513   21.6439 H   0  0  0  0  0  0
  -26.9751  -22.4075   19.1691 H   0  0  0  0  0  0
  -28.5638  -22.2880   18.4947 H   0  0  0  0  0  0
  -30.5835  -23.0920   19.8953 H   0  0  0  0  0  0
  -30.2999  -23.7288   21.4836 H   0  0  0  0  0  0
  -32.3139  -17.2308   21.9096 H   0  0  0  0  0  0
  -30.7699  -17.0283   22.8275 H   0  0  0  0  0  0
  -30.2309  -20.3200   19.5638 H   0  0  0  0  0  0
  -27.8461  -23.5199   21.1994 H   0  0  0  0  0  0
  -31.1315  -17.5837   19.8046 H   0  0  0  0  0  0
  -28.9514  -18.5885   21.8555 H   0  0  0  0  0  0
  -27.6024  -24.8556   18.8212 H   0  0  0  0  0  0
  -29.2693  -25.0120   18.9446 H   0  0  0  0  0  0
  -28.9038  -15.8702   20.7935 H   0  0  0  0  0  0
  -31.7442  -19.3889   21.4289 H   0  0  0  0  0  0
  -30.9061  -19.3217   22.8645 H   0  0  0  0  0  0
  1 25  1  0  0  0
  1 30  2  0  0  0
  1 81  1  0  0  0
  2  3  1  0  0  0
  2 25  1  0  0  0
  2 83  1  0  0  0
  2 84  1  0  0  0
  3  4  1  0  0  0
  3 85  1  0  0  0
  3 86  1  0  0  0
  4  5  1  0  0  0
  4 87  1  0  0  0
  4 88  1  0  0  0
  5  6  1  0  0  0
  5 26  1  0  0  0
  5 89  1  0  0  0
  6 25  1  0  0  0
  6 90  1  0  0  0
  6 91  1  0  0  0
  7  8  2  0  0  0
  7 26  1  0  0  0
  7 29  1  0  0  0
  8  9  1  0  0  0
  8 22  1  0  0  0
  9 10  1  0  0  0
  9 27  2  0  0  0
 10 11  2  0  0  0
 10 15  1  0  0  0
 11 12  1  0  0  0
 11 92  1  0  0  0
 12 13  2  0  0  0
 12 93  1  0  0  0
 13 14  1  0  0  0
 13 31  1  0  0  0
 14 15  2  0  0  0
 14 94  1  0  0  0
 15 95  1  0  0  0
 16 17  2  0  0  0
 16 21  1  0  0  0
 16 31  1  0  0  0
 17 18  1  0  0  0
 17 96  1  0  0  0
 18 19  2  0  0  0
 18 97  1  0  0  0
 19 20  1  0  0  0
 19 24  1  0  0  0
 20 21  2  0  0  0
 20 98  1  0  0  0
 21 23  1  0  0  0
 22 28  1  0  0  0
 22 32  2  0  0  0
 26 27  1  0  0  0
 28 99  1  0  0  0
 28100  1  0  0  0
 29101  1  0  0  0
 29102  1  0  0  0
 33 34  1  0  0  0
 33 66  1  0  0  0
 33 70  2  0  0  0
 34 36  1  0  0  0
 34 59  1  0  0  0
 34103  1  0  0  0
 35 44  2  0  0  0
 35 45  1  0  0  0
 35 68  1  0  0  0
 36 56  1  0  0  0
 36104  1  0  0  0
 37 39  1  0  0  0
 37 47  1  0  0  0
 37 66  1  0  0  0
 37105  1  0  0  0
 38 43  2  0  0  0
 38 46  1  0  0  0
 38 47  1  0  0  0
 39 64  1  0  0  0
 39 67  2  0  0  0
 40 52  1  0  0  0
 40 53  2  0  0  0
 40 58  1  0  0  0
 41106  1  0  0  0
 41107  1  0  0  0
 41108  1  0  0  0
 41 48  1  0  0  0
 42 43  1  0  0  0
 42 66  1  0  0  0
 42109  1  0  0  0
 42110  1  0  0  0
 43 44  1  0  0  0
 44111  1  0  0  0
 45 46  2  0  0  0
 45112  1  0  0  0
 46113  1  0  0  0
 47114  1  0  0  0
 47115  1  0  0  0
 48 56  1  0  0  0
 48 65  1  0  0  0
 48116  1  0  0  0
 49 50  1  0  0  0
 49 53  1  0  0  0
 49 64  1  0  0  0
 49117  1  0  0  0
 50 51  1  0  0  0
 50118  1  0  0  0
 50119  1  0  0  0
 51 52  1  0  0  0
 51120  1  0  0  0
 51121  1  0  0  0
 52122  1  0  0  0
 52123  1  0  0  0
 53 54  1  0  0  0
 54 55  2  0  0  0
 54124  1  0  0  0
 55 57  1  0  0  0
 55125  1  0  0  0
 56 69  2  0  0  0
 57 58  2  0  0  0
 57126  1  0  0  0
 58127  1  0  0  0
 59 60  1  0  0  0
 59 61  1  0  0  0
 59 62  1  0  0  0
 60128  1  0  0  0
 60129  1  0  0  0
 60130  1  0  0  0
 61131  1  0  0  0
 61132  1  0  0  0
 61133  1  0  0  0
 62134  1  0  0  0
 62135  1  0  0  0
 62136  1  0  0  0
 63 65  1  0  0  0
 63137  1  0  0  0
 63138  1  0  0  0
 63139  1  0  0  0
 64140  1  0  0  0
 65141  1  0  0  0
 68 80  1  0  0  0
 71 73  1  0  0  0
 71142  1  0  0  0
 71143  1  0  0  0
 71 76  1  0  0  0
 72 74  1  0  0  0
 72 76  1  0  0  0
 72144  1  0  0  0
 72145  1  0  0  0
 73 77  1  0  0  0
 73146  1  0  0  0
 73147  1  0  0  0
 74 77  1  0  0  0
 74148  1  0  0  0
 74149  1  0  0  0
 75 78  1  0  0  0
 75 82  1  0  0  0
 75150  1  0  0  0
 75151  1  0  0  0
 76 79  1  0  0  0
 76152  1  0  0  0
 77 80  1  0  0  0
 77153  1  0  0  0
 78 79  1  0  0  0
 78 81  1  0  0  0
 78154  1  0  0  0
 79 82  1  0  0  0
 79155  1  0  0  0
 80156  1  0  0  0
 80157  1  0  0  0
 81158  1  0  0  0
 82159  1  0  0  0
 82160  1  0  0  0
M  CHG  1  82   1
M  ISO  4   1 100  68 101  80 101  81 100
M  END
> <chiral flag>
0

> <version>
0

> <s_m_source_file>
/data/baiqing/PycharmProjects/Reinvent-master-3.2/result/LINK_invent/BTK/process_docking_weight1_custom_sum_contain_oxygen_bond_distance_aromatic_linkinvent_7_9_3/rearranged_h_0127.sdf

> <i_m_source_file_index>
53

> <r_mmod_Potential_Energy-OPLS-2005>
205.157760620117

> <r_mmod_Stretch_Energy-OPLS-2005>
164.883163452148

> <r_mmod_Bend_Energy-OPLS-2005>
268.484466552734

> <r_mmod_Torsional_Energy-OPLS-2005>
291.715209960938

> <r_mmod_Improper_Torsional_Energy-OPLS-2005>
4.20824098587036

> <r_mmod_Van_der_Waal_Energy-OPLS-2005>
130.220413208008

> <r_mmod_Electrostatic_Energy-OPLS-2005>
-274.528564453125

> <r_mmod_Solvation_Energy-OPLS-2005>
-484.966735839844

> <b_mmod_Minimization_Converged-OPLS-2005>
0

> <r_mmod_RMS_Derivative-OPLS-2005>
0.478637218475342

$$$$
53
                    3D
 Structure written by MMmdl.
171179  0  0  1  0            999 V2000
  -30.7150  -14.4720   20.6066 C   0  0  0  0  0  0
  -30.4218  -12.3221   19.4183 C   0  0  0  0  0  0
  -29.4907  -12.5108   18.2040 C   0  0  0  0  0  0
  -28.0142  -12.3636   18.6202 C   0  0  0  0  0  0
  -27.6601  -13.2070   19.8736 C   0  0  2  0  0  0
  -28.7018  -12.9946   20.9946 C   0  0  0  0  0  0
  -25.2581  -13.8157   20.5671 C   0  0  0  0  0  0
  -24.1838  -13.0437   20.9185 C   0  0  0  0  0  0
  -24.6390  -11.6903   20.8744 C   0  0  0  0  0  0
  -23.9057  -10.4292   21.0409 C   0  0  0  0  0  0
  -24.3609   -9.4207   21.9188 C   0  0  0  0  0  0
  -23.6287   -8.2243   22.0758 C   0  0  0  0  0  0
  -22.4272   -8.0279   21.3545 C   0  0  0  0  0  0
  -21.9907   -9.0251   20.4647 C   0  0  0  0  0  0
  -22.7233  -10.2132   20.3056 C   0  0  0  0  0  0
  -21.6849   -6.0733   22.5279 C   0  0  0  0  0  0
  -21.4012   -6.5639   23.8211 C   0  0  0  0  0  0
  -21.3661   -5.6796   24.9176 C   0  0  0  0  0  0
  -21.6044   -4.3057   24.7229 C   0  0  0  0  0  0
  -21.8819   -3.8146   23.4349 C   0  0  0  0  0  0
  -21.9192   -4.6961   22.3403 C   0  0  0  0  0  0
  -22.7863  -13.5238   21.1844 C   0  0  0  0  0  0
  -22.1661   -4.2145   21.0981 F   0  0  0  0  0  0
  -21.5630   -3.4540   25.7743 F   0  0  0  0  0  0
  -30.0313  -13.3059   20.4416 N   0  0  0  0  0  0
  -26.3013  -12.9327   20.3357 N   0  0  0  0  0  0
  -25.9316  -11.6487   20.5767 N   0  0  0  0  0  0
  -22.0501  -12.8229   22.0400 N   0  0  0  0  0  0
  -25.4306  -15.1872   20.4037 N   0  0  0  0  0  0
  -31.8194  -14.6757   20.0965 O   0  0  0  0  0  0
  -21.6637   -6.8875   21.4239 O   0  0  0  0  0  0
  -22.3557  -14.5550   20.6701 O   0  0  0  0  0  0
  -24.6154  -31.8675   23.2105 C   0  0  0  0  0  0
  -25.9044  -32.4820   23.8402 C   0  0  1  0  0  0
  -27.2295  -27.4138   20.1092 C   0  0  0  0  0  0
  -25.5895  -33.8621   24.2322 N   0  0  0  0  0  0
  -23.4059  -30.4895   21.5511 C   0  0  2  0  0  0
  -24.8550  -28.9523   20.1182 C   0  0  0  0  0  0
  -22.7419  -29.4652   22.4992 C   0  0  0  0  0  0
  -18.0272  -28.1374   22.8495 C   0  0  0  0  0  0
  -24.1487  -36.7316   23.2641 C   0  0  0  0  0  0
  -25.9367  -30.8220   21.3728 C   0  0  0  0  0  0
  -26.0137  -29.4521   20.7283 C   0  0  0  0  0  0
  -27.2055  -28.6855   20.7314 C   0  0  0  0  0  0
  -26.0674  -26.9490   19.4649 C   0  0  0  0  0  0
  -24.8760  -27.6974   19.4862 C   0  0  0  0  0  0
  -23.6178  -29.8218   20.1662 C   0  0  0  0  0  0
  -25.4111  -36.3112   24.0331 C   0  0  1  0  0  0
  -20.5863  -28.3668   23.1316 C   0  0  2  0  0  0
  -20.6762  -26.9402   22.5423 C   0  0  0  0  0  0
  -19.5743  -26.6385   21.5215 C   0  0  0  0  0  0
  -18.1918  -26.7927   22.1619 C   0  0  0  0  0  0
  -19.1522  -28.8836   23.2902 C   0  0  0  0  0  0
  -18.9454  -30.1443   23.8912 C   0  0  0  0  0  0
  -17.6456  -30.6584   24.0568 C   0  0  0  0  0  0
  -25.9039  -34.9477   23.5126 C   0  0  0  0  0  0
  -16.5345  -29.9087   23.6325 C   0  0  0  0  0  0
  -16.7260  -28.6502   23.0351 C   0  0  0  0  0  0
  -26.4473  -31.6603   25.0732 C   0  0  0  0  0  0
  -25.3726  -31.3685   26.1459 C   0  0  0  0  0  0
  -27.0329  -30.3050   24.6120 C   0  0  0  0  0  0
  -27.6039  -32.4336   25.7497 C   0  0  0  0  0  0
  -27.5582  -37.1813   24.8462 C   0  0  0  0  0  0
  -21.4145  -29.3030   22.3718 N   0  0  0  0  0  0
  -26.4298  -37.3795   23.9404 N   0  0  0  0  0  0
  -24.6704  -31.0754   22.1024 N   0  0  0  0  0  0
  -23.4177  -28.8194   23.3045 O   0  0  0  0  0  0
  -28.3689  -26.6400   20.0462 O   0  0  0  0  0  0
  -26.5615  -34.8932   22.4696 O   0  0  0  0  0  0
  -23.5339  -32.1444   23.7475 O   0  0  0  0  0  0
  -29.6406  -20.8031   22.6777 C   0  0  0  0  0  0
  -29.1031  -19.3540   22.6649 C   0  0  0  0  0  0
  -28.4972  -19.6145   20.2743 C   0  0  0  0  0  0
  -28.8554  -21.7318   21.7155 C   0  0  2  0  0  0
  -28.9747  -21.1041   20.2972 C   0  0  1  0  0  0
  -30.3593  -21.2835   19.6422 C   0  0  0  0  0  0
  -29.2321  -23.7144   23.3216 C   0  0  0  0  0  0
  -26.7898  -24.0076   21.2824 C   0  0  0  0  0  0
  -30.6803  -16.7146   21.7592 C   0  0  0  0  0  0
  -30.3361  -17.9894   20.9163 C   0  0  0  0  0  0
  -28.6438  -25.7789   21.1692 C   0  0  0  0  0  0
  -29.1955  -23.2772   21.8368 C   0  0  2  0  0  0
  -28.2842  -24.2565   20.9942 C   0  0  1  0  0  0
  -30.0854  -15.4380   21.3072 N   0  0  0  0  0  0
  -29.0897  -18.7177   21.3174 N   0  3  1  0  0  0
  -31.4647  -12.4260   19.1138 H   0  0  0  0  0  0
  -30.3296  -11.3109   19.8177 H   0  0  0  0  0  0
  -29.7328  -11.7851   17.4263 H   0  0  0  0  0  0
  -29.6520  -13.4960   17.7638 H   0  0  0  0  0  0
  -27.8319  -11.3073   18.8220 H   0  0  0  0  0  0
  -27.3598  -12.6303   17.7894 H   0  0  0  0  0  0
  -27.7041  -14.2539   19.5729 H   0  0  0  0  0  0
  -28.6833  -11.9592   21.3379 H   0  0  0  0  0  0
  -28.4545  -13.5930   21.8721 H   0  0  0  0  0  0
  -25.2751   -9.5684   22.4765 H   0  0  0  0  0  0
  -23.9993   -7.4637   22.7481 H   0  0  0  0  0  0
  -21.0840   -8.8768   19.8951 H   0  0  0  0  0  0
  -22.3691  -10.9670   19.6166 H   0  0  0  0  0  0
  -21.2004   -7.6147   23.9712 H   0  0  0  0  0  0
  -21.1483   -6.0528   25.9081 H   0  0  0  0  0  0
  -22.0599   -2.7606   23.2854 H   0  0  0  0  0  0
  -22.4110  -11.9873   22.4760 H   0  0  0  0  0  0
  -21.1124  -13.1259   22.2614 H   0  0  0  0  0  0
  -24.6540  -15.8356   20.4783 H   0  0  0  0  0  0
  -26.2658  -15.6103   20.0207 H   0  0  0  0  0  0
  -26.7115  -32.5534   23.1168 H   0  0  0  0  0  0
  -25.0026  -33.9778   25.0454 H   0  0  0  0  0  0
  -22.6954  -31.3064   21.4101 H   0  0  0  0  0  0
  -23.3749  -35.9649   23.3306 H   0  0  0  0  0  0
  -24.3578  -36.8940   22.2057 H   0  0  0  0  0  0
  -23.7243  -37.6518   23.6665 H   0  0  0  0  0  0
  -26.0536  -31.5821   20.5991 H   0  0  0  0  0  0
  -26.8233  -30.8787   21.9924 H   0  0  0  0  0  0
  -28.1009  -29.0656   21.2033 H   0  0  0  0  0  0
  -26.0856  -26.0010   18.9463 H   0  0  0  0  0  0
  -23.9904  -27.3115   18.9996 H   0  0  0  0  0  0
  -23.7277  -30.5964   19.4065 H   0  0  0  0  0  0
  -22.7418  -29.2422   19.8698 H   0  0  0  0  0  0
  -25.1290  -36.1981   25.0824 H   0  0  0  0  0  0
  -20.9957  -28.3242   24.1436 H   0  0  0  0  0  0
  -20.5675  -26.2276   23.3614 H   0  0  0  0  0  0
  -21.6632  -26.7443   22.1216 H   0  0  0  0  0  0
  -19.6907  -25.6299   21.1235 H   0  0  0  0  0  0
  -19.6682  -27.3204   20.6753 H   0  0  0  0  0  0
  -17.4198  -26.6692   21.4009 H   0  0  0  0  0  0
  -18.0296  -26.0055   22.8996 H   0  0  0  0  0  0
  -19.7927  -30.7251   24.2297 H   0  0  0  0  0  0
  -17.5012  -31.6264   24.5171 H   0  0  0  0  0  0
  -15.5350  -30.2999   23.7638 H   0  0  0  0  0  0
  -15.8659  -28.0826   22.7064 H   0  0  0  0  0  0
  -24.5938  -30.6994   25.7778 H   0  0  0  0  0  0
  -24.8859  -32.2821   26.4883 H   0  0  0  0  0  0
  -25.8071  -30.8878   27.0232 H   0  0  0  0  0  0
  -26.2885  -29.6796   24.1176 H   0  0  0  0  0  0
  -27.4104  -29.7301   25.4588 H   0  0  0  0  0  0
  -27.8717  -30.4377   23.9283 H   0  0  0  0  0  0
  -27.2650  -33.3627   26.2094 H   0  0  0  0  0  0
  -28.3835  -32.6917   25.0317 H   0  0  0  0  0  0
  -28.0729  -31.8455   26.5397 H   0  0  0  0  0  0
  -28.2599  -38.0113   24.7530 H   0  0  0  0  0  0
  -28.1083  -36.2647   24.6271 H   0  0  0  0  0  0
  -27.2297  -37.1443   25.8864 H   0  0  0  0  0  0
  -20.9316  -29.8755   21.6935 H   0  0  0  0  0  0
  -26.0187  -38.2874   24.1409 H   0  0  0  0  0  0
  -30.7080  -20.8214   22.4597 H   0  0  0  0  0  0
  -29.5430  -21.1432   23.7070 H   0  0  0  0  0  0
  -28.0742  -19.3658   23.0279 H   0  0  0  0  0  0
  -29.6531  -18.7571   23.3895 H   0  0  0  0  0  0
  -28.6194  -19.1831   19.2798 H   0  0  0  0  0  0
  -27.4200  -19.6132   20.4480 H   0  0  0  0  0  0
  -27.8141  -21.6265   22.0210 H   0  0  0  0  0  0
  -28.2777  -21.6418   19.6528 H   0  0  0  0  0  0
  -31.1676  -20.8633   20.2381 H   0  0  0  0  0  0
  -30.5881  -22.3368   19.4811 H   0  0  0  0  0  0
  -30.3937  -20.8041   18.6636 H   0  0  0  0  0  0
  -30.0476  -23.2347   23.8616 H   0  0  0  0  0  0
  -28.3021  -23.4736   23.8375 H   0  0  0  0  0  0
  -29.4105  -24.7806   23.4463 H   0  0  0  0  0  0
  -26.1486  -24.7297   20.7890 H   0  0  0  0  0  0
  -26.5695  -24.0721   22.3476 H   0  0  0  0  0  0
  -26.4690  -23.0278   20.9304 H   0  0  0  0  0  0
  -30.4380  -16.8429   22.8122 H   0  0  0  0  0  0
  -31.7671  -16.6061   21.7537 H   0  0  0  0  0  0
  -30.2880  -17.7104   19.8632 H   0  0  0  0  0  0
  -31.1669  -18.6901   20.9960 H   0  0  0  0  0  0
  -29.7194  -25.8615   21.3273 H   0  0  0  0  0  0
  -28.1844  -26.1792   22.0751 H   0  0  0  0  0  0
  -30.2139  -23.4147   21.4723 H   0  0  0  0  0  0
  -28.4604  -24.0228   19.9440 H   0  0  0  0  0  0
  -29.1782  -15.1905   21.6749 H   0  0  0  0  0  0
  -28.4164  -17.9696   21.3956 H   0  0  0  0  0  0
  1 25  1  0  0  0
  1 30  2  0  0  0
  1 84  1  0  0  0
  2  3  1  0  0  0
  2 25  1  0  0  0
  2 86  1  0  0  0
  2 87  1  0  0  0
  3  4  1  0  0  0
  3 88  1  0  0  0
  3 89  1  0  0  0
  4  5  1  0  0  0
  4 90  1  0  0  0
  4 91  1  0  0  0
  5  6  1  0  0  0
  5 26  1  0  0  0
  5 92  1  0  0  0
  6 25  1  0  0  0
  6 93  1  0  0  0
  6 94  1  0  0  0
  7  8  2  0  0  0
  7 26  1  0  0  0
  7 29  1  0  0  0
  8  9  1  0  0  0
  8 22  1  0  0  0
  9 10  1  0  0  0
  9 27  2  0  0  0
 10 11  2  0  0  0
 10 15  1  0  0  0
 11 12  1  0  0  0
 11 95  1  0  0  0
 12 13  2  0  0  0
 12 96  1  0  0  0
 13 14  1  0  0  0
 13 31  1  0  0  0
 14 15  2  0  0  0
 14 97  1  0  0  0
 15 98  1  0  0  0
 16 17  2  0  0  0
 16 21  1  0  0  0
 16 31  1  0  0  0
 17 18  1  0  0  0
 17 99  1  0  0  0
 18 19  2  0  0  0
 18100  1  0  0  0
 19 20  1  0  0  0
 19 24  1  0  0  0
 20 21  2  0  0  0
 20101  1  0  0  0
 21 23  1  0  0  0
 22 28  1  0  0  0
 22 32  2  0  0  0
 26 27  1  0  0  0
 28102  1  0  0  0
 28103  1  0  0  0
 29104  1  0  0  0
 29105  1  0  0  0
 33 34  1  0  0  0
 33 66  1  0  0  0
 33 70  2  0  0  0
 34 36  1  0  0  0
 34 59  1  0  0  0
 34106  1  0  0  0
 35 44  2  0  0  0
 35 45  1  0  0  0
 35 68  1  0  0  0
 36 56  1  0  0  0
 36107  1  0  0  0
 37 39  1  0  0  0
 37 47  1  0  0  0
 37 66  1  0  0  0
 37108  1  0  0  0
 38 43  2  0  0  0
 38 46  1  0  0  0
 38 47  1  0  0  0
 39 64  1  0  0  0
 39 67  2  0  0  0
 40 52  1  0  0  0
 40 53  2  0  0  0
 40 58  1  0  0  0
 41109  1  0  0  0
 41110  1  0  0  0
 41111  1  0  0  0
 41 48  1  0  0  0
 42 43  1  0  0  0
 42 66  1  0  0  0
 42112  1  0  0  0
 42113  1  0  0  0
 43 44  1  0  0  0
 44114  1  0  0  0
 45 46  2  0  0  0
 45115  1  0  0  0
 46116  1  0  0  0
 47117  1  0  0  0
 47118  1  0  0  0
 48 56  1  0  0  0
 48 65  1  0  0  0
 48119  1  0  0  0
 49 50  1  0  0  0
 49 53  1  0  0  0
 49 64  1  0  0  0
 49120  1  0  0  0
 50 51  1  0  0  0
 50121  1  0  0  0
 50122  1  0  0  0
 51 52  1  0  0  0
 51123  1  0  0  0
 51124  1  0  0  0
 52125  1  0  0  0
 52126  1  0  0  0
 53 54  1  0  0  0
 54 55  2  0  0  0
 54127  1  0  0  0
 55 57  1  0  0  0
 55128  1  0  0  0
 56 69  2  0  0  0
 57 58  2  0  0  0
 57129  1  0  0  0
 58130  1  0  0  0
 59 60  1  0  0  0
 59 61  1  0  0  0
 59 62  1  0  0  0
 60131  1  0  0  0
 60132  1  0  0  0
 60133  1  0  0  0
 61134  1  0  0  0
 61135  1  0  0  0
 61136  1  0  0  0
 62137  1  0  0  0
 62138  1  0  0  0
 62139  1  0  0  0
 63 65  1  0  0  0
 63140  1  0  0  0
 63141  1  0  0  0
 63142  1  0  0  0
 64143  1  0  0  0
 65144  1  0  0  0
 68 81  1  0  0  0
 71 72  1  0  0  0
 71145  1  0  0  0
 71146  1  0  0  0
 71 74  1  0  0  0
 72 85  1  0  0  0
 72147  1  0  0  0
 72148  1  0  0  0
 73 75  1  0  0  0
 73 85  1  0  0  0
 73149  1  0  0  0
 73150  1  0  0  0
 74 75  1  0  0  0
 74 82  1  0  0  0
 74151  1  0  0  0
 75 76  1  0  0  0
 75152  1  0  0  0
 76153  1  0  0  0
 76154  1  0  0  0
 76155  1  0  0  0
 77156  1  0  0  0
 77157  1  0  0  0
 77158  1  0  0  0
 77 82  1  0  0  0
 78159  1  0  0  0
 78160  1  0  0  0
 78161  1  0  0  0
 78 83  1  0  0  0
 79 80  1  0  0  0
 79 84  1  0  0  0
 79162  1  0  0  0
 79163  1  0  0  0
 80164  1  0  0  0
 80165  1  0  0  0
 80 85  1  0  0  0
 81 83  1  0  0  0
 81166  1  0  0  0
 81167  1  0  0  0
 82 83  1  0  0  0
 82168  1  0  0  0
 83169  1  0  0  0
 84170  1  0  0  0
 85171  1  0  0  0
M  CHG  1  85   1
M  ISO  4   1 100  68 101  81 101  84 100
M  END
> <chiral flag>
0

> <version>
0

> <s_m_source_file>
/data/baiqing/PycharmProjects/Reinvent-master-3.2/result/LINK_invent/BTK/process_docking_weight1_custom_sum_contain_oxygen_bond_distance_aromatic_linkinvent_7_9_3/rearranged_h_0127.sdf

> <i_m_source_file_index>
54

> <r_mmod_Potential_Energy-OPLS-2005>
-52.9675102233887

> <r_mmod_Stretch_Energy-OPLS-2005>
50.089958190918

> <r_mmod_Bend_Energy-OPLS-2005>
129.17399597168

> <r_mmod_Torsional_Energy-OPLS-2005>
333.919738769531

> <r_mmod_Improper_Torsional_Energy-OPLS-2005>
2.76764678955078

> <r_mmod_Van_der_Waal_Energy-OPLS-2005>
138.488739013672

> <r_mmod_Electrostatic_Energy-OPLS-2005>
-276.039520263672

> <r_mmod_Solvation_Energy-OPLS-2005>
-444.614227294922

> <b_mmod_Minimization_Converged-OPLS-2005>
0

> <r_mmod_RMS_Derivative-OPLS-2005>
0.844394862651825

$$$$
54
                    3D
 Structure written by MMmdl.
169178  0  0  1  0            999 V2000
  -30.6845  -14.5450   20.5282 C   0  0  0  0  0  0
  -30.4211  -12.3394   19.4415 C   0  0  0  0  0  0
  -29.4956  -12.4957   18.2165 C   0  0  0  0  0  0
  -28.0188  -12.3483   18.6311 C   0  0  0  0  0  0
  -27.6543  -13.2143   19.8668 C   0  0  2  0  0  0
  -28.6980  -13.0517   20.9946 C   0  0  0  0  0  0
  -25.2559  -13.8171   20.5685 C   0  0  0  0  0  0
  -24.1824  -13.0440   20.9191 C   0  0  0  0  0  0
  -24.6392  -11.6911   20.8742 C   0  0  0  0  0  0
  -23.9062  -10.4290   21.0406 C   0  0  0  0  0  0
  -24.3615   -9.4204   21.9184 C   0  0  0  0  0  0
  -23.6289   -8.2237   22.0752 C   0  0  0  0  0  0
  -22.4271   -8.0278   21.3546 C   0  0  0  0  0  0
  -21.9909   -9.0249   20.4646 C   0  0  0  0  0  0
  -22.7235  -10.2129   20.3054 C   0  0  0  0  0  0
  -21.6856   -6.0737   22.5279 C   0  0  0  0  0  0
  -21.4012   -6.5640   23.8211 C   0  0  0  0  0  0
  -21.3658   -5.6789   24.9174 C   0  0  0  0  0  0
  -21.6041   -4.3052   24.7223 C   0  0  0  0  0  0
  -21.8822   -3.8147   23.4341 C   0  0  0  0  0  0
  -21.9190   -4.6962   22.3399 C   0  0  0  0  0  0
  -22.7849  -13.5232   21.1848 C   0  0  0  0  0  0
  -22.1662   -4.2152   21.0977 F   0  0  0  0  0  0
  -21.5627   -3.4535   25.7734 F   0  0  0  0  0  0
  -30.0210  -13.3569   20.4302 N   0  0  0  0  0  0
  -26.2995  -12.9354   20.3350 N   0  0  0  0  0  0
  -25.9322  -11.6509   20.5779 N   0  0  0  0  0  0
  -22.0502  -12.8215   22.0406 N   0  0  0  0  0  0
  -25.4274  -15.1887   20.4089 N   0  0  0  0  0  0
  -31.8370  -14.6850   20.1114 O   0  0  0  0  0  0
  -21.6640   -6.8876   21.4239 O   0  0  0  0  0  0
  -22.3536  -14.5543   20.6703 O   0  0  0  0  0  0
  -24.6192  -31.8642   23.2059 C   0  0  0  0  0  0
  -25.9056  -32.4809   23.8378 C   0  0  1  0  0  0
  -27.2312  -27.3772   20.1072 C   0  0  0  0  0  0
  -25.5889  -33.8611   24.2301 N   0  0  0  0  0  0
  -23.4093  -30.4880   21.5484 C   0  0  2  0  0  0
  -24.8540  -28.9447   20.1165 C   0  0  0  0  0  0
  -22.7441  -29.4641   22.4977 C   0  0  0  0  0  0
  -18.0283  -28.1381   22.8498 C   0  0  0  0  0  0
  -24.1486  -36.7300   23.2646 C   0  0  0  0  0  0
  -25.9445  -30.8127   21.3682 C   0  0  0  0  0  0
  -26.0177  -29.4436   20.7121 C   0  0  0  0  0  0
  -27.2066  -28.6704   20.6978 C   0  0  0  0  0  0
  -26.0417  -26.9036   19.5089 C   0  0  0  0  0  0
  -24.8643  -27.6771   19.5116 C   0  0  0  0  0  0
  -23.6189  -29.8188   20.1643 C   0  0  0  0  0  0
  -25.4110  -36.3111   24.0341 C   0  0  1  0  0  0
  -20.5881  -28.3664   23.1318 C   0  0  2  0  0  0
  -20.6775  -26.9400   22.5425 C   0  0  0  0  0  0
  -19.5749  -26.6380   21.5233 C   0  0  0  0  0  0
  -18.1921  -26.7929   22.1631 C   0  0  0  0  0  0
  -19.1540  -28.8842   23.2906 C   0  0  0  0  0  0
  -18.9466  -30.1449   23.8906 C   0  0  0  0  0  0
  -17.6465  -30.6584   24.0575 C   0  0  0  0  0  0
  -25.9036  -34.9472   23.5124 C   0  0  0  0  0  0
  -16.5355  -29.9088   23.6335 C   0  0  0  0  0  0
  -16.7273  -28.6508   23.0348 C   0  0  0  0  0  0
  -26.4460  -31.6612   25.0732 C   0  0  0  0  0  0
  -25.3710  -31.3732   26.1477 C   0  0  0  0  0  0
  -27.0312  -30.3055   24.6137 C   0  0  0  0  0  0
  -27.6033  -32.4339   25.7482 C   0  0  0  0  0  0
  -27.5582  -37.1805   24.8469 C   0  0  0  0  0  0
  -21.4167  -29.3030   22.3718 N   0  0  0  0  0  0
  -26.4294  -37.3799   23.9411 N   0  0  0  0  0  0
  -24.6763  -31.0700   22.0982 N   0  0  0  0  0  0
  -23.4199  -28.8194   23.3046 O   0  0  0  0  0  0
  -28.4111  -26.6367   20.1277 O   0  0  0  0  0  0
  -26.5626  -34.8935   22.4703 O   0  0  0  0  0  0
  -23.5365  -32.1408   23.7418 O   0  0  0  0  0  0
  -27.9879  -22.9881   23.7380 C   0  0  0  0  0  0
  -27.6669  -24.3478   23.6349 C   0  0  0  0  0  0
  -28.4526  -22.2929   22.6094 C   0  0  0  0  0  0
  -27.8117  -25.0088   22.4033 C   0  0  0  0  0  0
  -28.5949  -22.9293   21.3498 C   0  0  0  0  0  0
  -28.2768  -24.3366   21.2466 C   0  0  0  0  0  0
  -27.4113  -18.7869   19.0839 C   0  0  0  0  0  0
  -28.5146  -17.7561   19.3682 C   0  0  0  0  0  0
  -27.9707  -20.2194   18.9880 C   0  0  0  0  0  0
  -29.7802  -19.6088   20.5560 C   0  0  0  0  0  0
  -29.2824  -18.1087   20.6566 C   0  0  2  0  0  0
  -31.1134  -17.3233   22.3018 C   0  0  0  0  0  0
  -29.1455  -22.0574   20.1926 C   0  0  0  0  0  0
  -28.4311  -25.1830   19.9581 C   0  0  0  0  0  0
  -30.4137  -17.0440   20.9586 C   0  0  1  0  0  0
  -29.9622  -15.6194   20.9422 N   0  0  0  0  0  0
  -28.7034  -20.6109   20.2195 N   0  3  1  0  0  0
  -31.4662  -12.4339   19.1405 H   0  0  0  0  0  0
  -30.3259  -11.3412   19.8713 H   0  0  0  0  0  0
  -29.7457  -11.7529   17.4576 H   0  0  0  0  0  0
  -29.6522  -13.4720   17.7548 H   0  0  0  0  0  0
  -27.8438  -11.2949   18.8538 H   0  0  0  0  0  0
  -27.3643  -12.5921   17.7934 H   0  0  0  0  0  0
  -27.6811  -14.2522   19.5356 H   0  0  0  0  0  0
  -28.6884  -12.0316   21.3809 H   0  0  0  0  0  0
  -28.4592  -13.6931   21.8437 H   0  0  0  0  0  0
  -25.2764   -9.5683   22.4757 H   0  0  0  0  0  0
  -24.0005   -7.4631   22.7471 H   0  0  0  0  0  0
  -21.0844   -8.8765   19.8951 H   0  0  0  0  0  0
  -22.3696  -10.9666   19.6162 H   0  0  0  0  0  0
  -21.2005   -7.6151   23.9719 H   0  0  0  0  0  0
  -21.1475   -6.0519   25.9077 H   0  0  0  0  0  0
  -22.0599   -2.7610   23.2840 H   0  0  0  0  0  0
  -22.4127  -11.9868   22.4773 H   0  0  0  0  0  0
  -21.1124  -13.1230   22.2629 H   0  0  0  0  0  0
  -24.6578  -15.8408   20.5109 H   0  0  0  0  0  0
  -26.2731  -15.6255   20.0690 H   0  0  0  0  0  0
  -26.7129  -32.5491   23.1136 H   0  0  0  0  0  0
  -25.0033  -33.9772   25.0447 H   0  0  0  0  0  0
  -22.7001  -31.3066   21.4075 H   0  0  0  0  0  0
  -23.3765  -35.9617   23.3317 H   0  0  0  0  0  0
  -24.3579  -36.8905   22.2060 H   0  0  0  0  0  0
  -23.7216  -37.6494   23.6660 H   0  0  0  0  0  0
  -26.0704  -31.5791   20.6012 H   0  0  0  0  0  0
  -26.8272  -30.8602   21.9943 H   0  0  0  0  0  0
  -28.1060  -29.0549   21.1579 H   0  0  0  0  0  0
  -25.9902  -25.9389   19.0301 H   0  0  0  0  0  0
  -23.9681  -27.2855   19.0512 H   0  0  0  0  0  0
  -23.7310  -30.5937   19.4052 H   0  0  0  0  0  0
  -22.7405  -29.2436   19.8647 H   0  0  0  0  0  0
  -25.1285  -36.1976   25.0835 H   0  0  0  0  0  0
  -20.9969  -28.3234   24.1440 H   0  0  0  0  0  0
  -20.5703  -26.2272   23.3616 H   0  0  0  0  0  0
  -21.6642  -26.7449   22.1203 H   0  0  0  0  0  0
  -19.6919  -25.6301   21.1242 H   0  0  0  0  0  0
  -19.6693  -27.3205   20.6785 H   0  0  0  0  0  0
  -17.4204  -26.6699   21.4018 H   0  0  0  0  0  0
  -18.0305  -26.0053   22.9007 H   0  0  0  0  0  0
  -19.7947  -30.7269   24.2252 H   0  0  0  0  0  0
  -17.5027  -31.6264   24.5182 H   0  0  0  0  0  0
  -15.5358  -30.3001   23.7657 H   0  0  0  0  0  0
  -15.8670  -28.0842   22.7048 H   0  0  0  0  0  0
  -24.5854  -30.7112   25.7808 H   0  0  0  0  0  0
  -24.8939  -32.2907   26.4942 H   0  0  0  0  0  0
  -25.8041  -30.8874   27.0234 H   0  0  0  0  0  0
  -26.2883  -29.6804   24.1166 H   0  0  0  0  0  0
  -27.4075  -29.7289   25.4598 H   0  0  0  0  0  0
  -27.8715  -30.4391   23.9316 H   0  0  0  0  0  0
  -27.2648  -33.3636   26.2068 H   0  0  0  0  0  0
  -28.3821  -32.6901   25.0288 H   0  0  0  0  0  0
  -28.0725  -31.8463   26.5381 H   0  0  0  0  0  0
  -28.2609  -38.0095   24.7518 H   0  0  0  0  0  0
  -28.1068  -36.2627   24.6291 H   0  0  0  0  0  0
  -27.2302  -37.1440   25.8874 H   0  0  0  0  0  0
  -20.9327  -29.8752   21.6937 H   0  0  0  0  0  0
  -26.0188  -38.2883   24.1406 H   0  0  0  0  0  0
  -27.8875  -22.4775   24.6868 H   0  0  0  0  0  0
  -27.3196  -24.8887   24.5041 H   0  0  0  0  0  0
  -28.7097  -21.2529   22.7461 H   0  0  0  0  0  0
  -27.5668  -26.0601   22.3683 H   0  0  0  0  0  0
  -26.6483  -18.7369   19.8617 H   0  0  0  0  0  0
  -26.9069  -18.5327   18.1506 H   0  0  0  0  0  0
  -29.2047  -17.7109   18.5246 H   0  0  0  0  0  0
  -28.0652  -16.7668   19.4464 H   0  0  0  0  0  0
  -27.1469  -20.9143   18.8157 H   0  0  0  0  0  0
  -28.6347  -20.3005   18.1261 H   0  0  0  0  0  0
  -30.5685  -19.6750   19.8042 H   0  0  0  0  0  0
  -30.2358  -19.9101   21.4988 H   0  0  0  0  0  0
  -28.5697  -18.0622   21.4818 H   0  0  0  0  0  0
  -31.5934  -18.3014   22.3149 H   0  0  0  0  0  0
  -31.8991  -16.5939   22.4998 H   0  0  0  0  0  0
  -30.4108  -17.2854   23.1347 H   0  0  0  0  0  0
  -30.2350  -22.1101   20.2139 H   0  0  0  0  0  0
  -28.8566  -22.5163   19.2467 H   0  0  0  0  0  0
  -27.7325  -24.8311   19.2017 H   0  0  0  0  0  0
  -29.4148  -24.9519   19.5494 H   0  0  0  0  0  0
  -31.1621  -17.1563   20.1717 H   0  0  0  0  0  0
  -29.0179  -15.4297   21.2429 H   0  0  0  0  0  0
  -28.0264  -20.5708   20.9656 H   0  0  0  0  0  0
  1 25  1  0  0  0
  1 30  2  0  0  0
  1 86  1  0  0  0
  2  3  1  0  0  0
  2 25  1  0  0  0
  2 88  1  0  0  0
  2 89  1  0  0  0
  3  4  1  0  0  0
  3 90  1  0  0  0
  3 91  1  0  0  0
  4  5  1  0  0  0
  4 92  1  0  0  0
  4 93  1  0  0  0
  5  6  1  0  0  0
  5 26  1  0  0  0
  5 94  1  0  0  0
  6 25  1  0  0  0
  6 95  1  0  0  0
  6 96  1  0  0  0
  7  8  2  0  0  0
  7 26  1  0  0  0
  7 29  1  0  0  0
  8  9  1  0  0  0
  8 22  1  0  0  0
  9 10  1  0  0  0
  9 27  2  0  0  0
 10 11  2  0  0  0
 10 15  1  0  0  0
 11 12  1  0  0  0
 11 97  1  0  0  0
 12 13  2  0  0  0
 12 98  1  0  0  0
 13 14  1  0  0  0
 13 31  1  0  0  0
 14 15  2  0  0  0
 14 99  1  0  0  0
 15100  1  0  0  0
 16 17  2  0  0  0
 16 21  1  0  0  0
 16 31  1  0  0  0
 17 18  1  0  0  0
 17101  1  0  0  0
 18 19  2  0  0  0
 18102  1  0  0  0
 19 20  1  0  0  0
 19 24  1  0  0  0
 20 21  2  0  0  0
 20103  1  0  0  0
 21 23  1  0  0  0
 22 28  1  0  0  0
 22 32  2  0  0  0
 26 27  1  0  0  0
 28104  1  0  0  0
 28105  1  0  0  0
 29106  1  0  0  0
 29107  1  0  0  0
 33 34  1  0  0  0
 33 66  1  0  0  0
 33 70  2  0  0  0
 34 36  1  0  0  0
 34 59  1  0  0  0
 34108  1  0  0  0
 35 44  2  0  0  0
 35 45  1  0  0  0
 35 68  1  0  0  0
 36 56  1  0  0  0
 36109  1  0  0  0
 37 39  1  0  0  0
 37 47  1  0  0  0
 37 66  1  0  0  0
 37110  1  0  0  0
 38 43  2  0  0  0
 38 46  1  0  0  0
 38 47  1  0  0  0
 39 64  1  0  0  0
 39 67  2  0  0  0
 40 52  1  0  0  0
 40 53  2  0  0  0
 40 58  1  0  0  0
 41111  1  0  0  0
 41112  1  0  0  0
 41113  1  0  0  0
 41 48  1  0  0  0
 42 43  1  0  0  0
 42 66  1  0  0  0
 42114  1  0  0  0
 42115  1  0  0  0
 43 44  1  0  0  0
 44116  1  0  0  0
 45 46  2  0  0  0
 45117  1  0  0  0
 46118  1  0  0  0
 47119  1  0  0  0
 47120  1  0  0  0
 48 56  1  0  0  0
 48 65  1  0  0  0
 48121  1  0  0  0
 49 50  1  0  0  0
 49 53  1  0  0  0
 49 64  1  0  0  0
 49122  1  0  0  0
 50 51  1  0  0  0
 50123  1  0  0  0
 50124  1  0  0  0
 51 52  1  0  0  0
 51125  1  0  0  0
 51126  1  0  0  0
 52127  1  0  0  0
 52128  1  0  0  0
 53 54  1  0  0  0
 54 55  2  0  0  0
 54129  1  0  0  0
 55 57  1  0  0  0
 55130  1  0  0  0
 56 69  2  0  0  0
 57 58  2  0  0  0
 57131  1  0  0  0
 58132  1  0  0  0
 59 60  1  0  0  0
 59 61  1  0  0  0
 59 62  1  0  0  0
 60133  1  0  0  0
 60134  1  0  0  0
 60135  1  0  0  0
 61136  1  0  0  0
 61137  1  0  0  0
 61138  1  0  0  0
 62139  1  0  0  0
 62140  1  0  0  0
 62141  1  0  0  0
 63 65  1  0  0  0
 63142  1  0  0  0
 63143  1  0  0  0
 63144  1  0  0  0
 64145  1  0  0  0
 65146  1  0  0  0
 68 84  1  0  0  0
 71 72  2  0  0  0
 71 73  1  0  0  0
 71147  1  0  0  0
 72 74  1  0  0  0
 72148  1  0  0  0
 73 75  2  0  0  0
 73149  1  0  0  0
 74 76  2  0  0  0
 74150  1  0  0  0
 75 76  1  0  0  0
 75 83  1  0  0  0
 76 84  1  0  0  0
 77 78  1  0  0  0
 77 79  1  0  0  0
 77151  1  0  0  0
 77152  1  0  0  0
 78153  1  0  0  0
 78154  1  0  0  0
 78 81  1  0  0  0
 79 87  1  0  0  0
 79155  1  0  0  0
 79156  1  0  0  0
 80 81  1  0  0  0
 80 87  1  0  0  0
 80157  1  0  0  0
 80158  1  0  0  0
 81 85  1  0  0  0
 81159  1  0  0  0
 82160  1  0  0  0
 82161  1  0  0  0
 82162  1  0  0  0
 82 85  1  0  0  0
 83163  1  0  0  0
 83164  1  0  0  0
 83 87  1  0  0  0
 84165  1  0  0  0
 84166  1  0  0  0
 85 86  1  0  0  0
 85167  1  0  0  0
 86168  1  0  0  0
 87169  1  0  0  0
M  CHG  1  87   1
M  ISO  4   1 100  68 101  84 101  86 100
M  END
> <chiral flag>
0

> <version>
0

> <s_m_source_file>
/data/baiqing/PycharmProjects/Reinvent-master-3.2/result/LINK_invent/BTK/process_docking_weight1_custom_sum_contain_oxygen_bond_distance_aromatic_linkinvent_7_9_3/rearranged_h_0127.sdf

> <i_m_source_file_index>
55

> <r_mmod_Potential_Energy-OPLS-2005>
-80.9500732421875

> <r_mmod_Stretch_Energy-OPLS-2005>
62.5828247070312

> <r_mmod_Bend_Energy-OPLS-2005>
121.765190124512

> <r_mmod_Torsional_Energy-OPLS-2005>
241.847396850586

> <r_mmod_Improper_Torsional_Energy-OPLS-2005>
3.89085555076599

> <r_mmod_Van_der_Waal_Energy-OPLS-2005>
147.204376220703

> <r_mmod_Electrostatic_Energy-OPLS-2005>
-234.734191894531

> <r_mmod_Solvation_Energy-OPLS-2005>
-447.548706054688

> <b_mmod_Minimization_Converged-OPLS-2005>
0

> <r_mmod_RMS_Derivative-OPLS-2005>
1.3721307516098

$$$$
55
                    3D
 Structure written by MMmdl.
165175  0  0  1  0            999 V2000
  -30.6982  -14.6374   20.4947 C   0  0  0  0  0  0
  -30.4198  -12.4054   19.4374 C   0  0  0  0  0  0
  -29.4972  -12.5081   18.2069 C   0  0  0  0  0  0
  -28.0214  -12.3582   18.6245 C   0  0  0  0  0  0
  -27.6474  -13.2348   19.8515 C   0  0  2  0  0  0
  -28.6998  -13.1427   20.9788 C   0  0  0  0  0  0
  -25.2540  -13.8215   20.5713 C   0  0  0  0  0  0
  -24.1848  -13.0450   20.9213 C   0  0  0  0  0  0
  -24.6428  -11.6928   20.8739 C   0  0  0  0  0  0
  -23.9105  -10.4297   21.0392 C   0  0  0  0  0  0
  -24.3639   -9.4213   21.9172 C   0  0  0  0  0  0
  -23.6311   -8.2258   22.0749 C   0  0  0  0  0  0
  -22.4291   -8.0300   21.3541 C   0  0  0  0  0  0
  -21.9921   -9.0278   20.4643 C   0  0  0  0  0  0
  -22.7259  -10.2156   20.3046 C   0  0  0  0  0  0
  -21.6857   -6.0740   22.5276 C   0  0  0  0  0  0
  -21.4021   -6.5642   23.8211 C   0  0  0  0  0  0
  -21.3660   -5.6789   24.9168 C   0  0  0  0  0  0
  -21.6046   -4.3054   24.7210 C   0  0  0  0  0  0
  -21.8823   -3.8145   23.4331 C   0  0  0  0  0  0
  -21.9197   -4.6971   22.3387 C   0  0  0  0  0  0
  -22.7851  -13.5245   21.1857 C   0  0  0  0  0  0
  -22.1668   -4.2149   21.0967 F   0  0  0  0  0  0
  -21.5628   -3.4543   25.7724 F   0  0  0  0  0  0
  -30.0038  -13.4610   20.3856 N   0  0  0  0  0  0
  -26.2996  -12.9440   20.3330 N   0  0  0  0  0  0
  -25.9370  -11.6573   20.5760 N   0  0  0  0  0  0
  -22.0485  -12.8232   22.0388 N   0  0  0  0  0  0
  -25.4176  -15.1946   20.4120 N   0  0  0  0  0  0
  -31.8609  -14.7083   20.0865 O   0  0  0  0  0  0
  -21.6654   -6.8896   21.4241 O   0  0  0  0  0  0
  -22.3533  -14.5505   20.6659 O   0  0  0  0  0  0
  -24.6213  -31.8564   23.1924 C   0  0  0  0  0  0
  -25.9053  -32.4793   23.8293 C   0  0  1  0  0  0
  -27.2796  -27.3472   20.1100 C   0  0  0  0  0  0
  -25.5871  -33.8588   24.2255 N   0  0  0  0  0  0
  -23.4220  -30.4647   21.5335 C   0  0  2  0  0  0
  -24.8849  -28.9085   20.1188 C   0  0  0  0  0  0
  -22.7495  -29.4553   22.4932 C   0  0  0  0  0  0
  -18.0298  -28.1356   22.8488 C   0  0  0  0  0  0
  -24.1507  -36.7272   23.2636 C   0  0  0  0  0  0
  -25.9544  -30.8028   21.3528 C   0  0  0  0  0  0
  -26.0462  -29.4217   20.7098 C   0  0  0  0  0  0
  -27.2403  -28.6476   20.6993 C   0  0  0  0  0  0
  -26.0942  -26.8752   19.5033 C   0  0  0  0  0  0
  -24.9055  -27.6391   19.5150 C   0  0  0  0  0  0
  -23.6443  -29.7747   20.1591 C   0  0  0  0  0  0
  -25.4112  -36.3087   24.0345 C   0  0  1  0  0  0
  -20.5899  -28.3629   23.1325 C   0  0  2  0  0  0
  -20.6779  -26.9351   22.5446 C   0  0  0  0  0  0
  -19.5779  -26.6353   21.5237 C   0  0  0  0  0  0
  -18.1935  -26.7905   22.1609 C   0  0  0  0  0  0
  -19.1548  -28.8812   23.2894 C   0  0  0  0  0  0
  -18.9473  -30.1438   23.8875 C   0  0  0  0  0  0
  -17.6474  -30.6568   24.0543 C   0  0  0  0  0  0
  -25.9041  -34.9465   23.5117 C   0  0  0  0  0  0
  -16.5360  -29.9051   23.6332 C   0  0  0  0  0  0
  -16.7273  -28.6472   23.0355 C   0  0  0  0  0  0
  -26.4445  -31.6575   25.0649 C   0  0  0  0  0  0
  -25.3711  -31.3679   26.1403 C   0  0  0  0  0  0
  -27.0255  -30.3032   24.6021 C   0  0  0  0  0  0
  -27.6034  -32.4250   25.7406 C   0  0  0  0  0  0
  -27.5569  -37.1776   24.8480 C   0  0  0  0  0  0
  -21.4199  -29.2981   22.3709 N   0  0  0  0  0  0
  -26.4278  -37.3790   23.9428 N   0  0  0  0  0  0
  -24.6844  -31.0593   22.0846 N   0  0  0  0  0  0
  -23.4228  -28.8094   23.3005 O   0  0  0  0  0  0
  -28.4550  -26.5843   20.1720 O   0  0  0  0  0  0
  -26.5623  -34.8936   22.4678 O   0  0  0  0  0  0
  -23.5374  -32.1305   23.7274 O   0  0  0  0  0  0
  -30.2331  -21.1772   21.8028 C   0  0  0  0  0  0
  -31.0567  -20.4669   22.6827 C   0  0  0  0  0  0
  -29.6836  -19.0603   20.7053 C   0  0  0  0  0  0
  -31.5840  -16.3667   22.6729 C   0  0  0  0  0  0
  -30.4992  -18.3021   21.6300 C   0  0  0  0  0  0
  -29.5548  -20.5070   20.7724 C   0  0  0  0  0  0
  -31.2203  -19.0734   22.6039 C   0  0  0  0  0  0
  -30.6939  -16.8487   21.6834 C   0  0  0  0  0  0
  -32.2881  -17.2282   23.5044 C   0  0  0  0  0  0
  -30.1332  -24.9002   19.4212 C   0  0  0  0  0  0
  -30.2326  -23.3583   19.2410 C   0  0  0  0  0  0
  -28.1124  -23.9299   20.1971 C   0  0  0  0  0  0
  -28.6316  -25.2611   19.5389 C   0  0  1  0  0  0
  -33.3400  -16.6765   24.4416 C   0  0  0  0  0  0
  -28.6461  -21.3465   19.8081 C   0  0  0  0  0  0
  -32.0951  -18.5497   23.4908 N   0  0  0  0  0  0
  -30.0592  -15.7847   20.9065 N   0  0  0  0  0  0
  -28.8773  -22.8297   19.5112 N   0  3  2  0  0  0
  -31.4600  -12.5024   19.1244 H   0  0  0  0  0  0
  -30.3447  -11.4213   19.9005 H   0  0  0  0  0  0
  -29.7552  -11.7497   17.4666 H   0  0  0  0  0  0
  -29.6461  -13.4713   17.7148 H   0  0  0  0  0  0
  -27.8490  -11.3064   18.8571 H   0  0  0  0  0  0
  -27.3698  -12.5969   17.7824 H   0  0  0  0  0  0
  -27.6487  -14.2641   19.4938 H   0  0  0  0  0  0
  -28.7203  -12.1479   21.4241 H   0  0  0  0  0  0
  -28.4598  -13.8348   21.7860 H   0  0  0  0  0  0
  -25.2790   -9.5697   22.4756 H   0  0  0  0  0  0
  -24.0014   -7.4644   22.7471 H   0  0  0  0  0  0
  -21.0852   -8.8816   19.8944 H   0  0  0  0  0  0
  -22.3726  -10.9708   19.6166 H   0  0  0  0  0  0
  -21.2016   -7.6151   23.9710 H   0  0  0  0  0  0
  -21.1477   -6.0517   25.9069 H   0  0  0  0  0  0
  -22.0594   -2.7610   23.2827 H   0  0  0  0  0  0
  -22.4107  -11.9944   22.4861 H   0  0  0  0  0  0
  -21.1076  -13.1253   22.2504 H   0  0  0  0  0  0
  -24.6426  -15.8406   20.5198 H   0  0  0  0  0  0
  -26.2577  -15.6420   20.0697 H   0  0  0  0  0  0
  -26.7085  -32.5489   23.1017 H   0  0  0  0  0  0
  -25.0079  -33.9735   25.0448 H   0  0  0  0  0  0
  -22.7153  -31.2803   21.3697 H   0  0  0  0  0  0
  -23.3797  -35.9589   23.3350 H   0  0  0  0  0  0
  -24.3614  -36.8856   22.2051 H   0  0  0  0  0  0
  -23.7258  -37.6486   23.6609 H   0  0  0  0  0  0
  -26.0736  -31.5589   20.5744 H   0  0  0  0  0  0
  -26.8406  -30.8777   21.9700 H   0  0  0  0  0  0
  -28.1344  -29.0437   21.1608 H   0  0  0  0  0  0
  -26.0641  -25.8994   19.0411 H   0  0  0  0  0  0
  -24.0083  -27.2331   19.0699 H   0  0  0  0  0  0
  -23.7512  -30.5344   19.3863 H   0  0  0  0  0  0
  -22.7779  -29.1777   19.8691 H   0  0  0  0  0  0
  -25.1324  -36.1900   25.0848 H   0  0  0  0  0  0
  -21.0000  -28.3169   24.1439 H   0  0  0  0  0  0
  -20.5756  -26.2181   23.3597 H   0  0  0  0  0  0
  -21.6617  -26.7419   22.1193 H   0  0  0  0  0  0
  -19.6960  -25.6286   21.1219 H   0  0  0  0  0  0
  -19.6751  -27.3192   20.6800 H   0  0  0  0  0  0
  -17.4220  -26.6695   21.3979 H   0  0  0  0  0  0
  -18.0272  -26.0046   22.8998 H   0  0  0  0  0  0
  -19.7958  -30.7270   24.2213 H   0  0  0  0  0  0
  -17.5029  -31.6253   24.5133 H   0  0  0  0  0  0
  -15.5356  -30.2947   23.7680 H   0  0  0  0  0  0
  -15.8668  -28.0792   22.7056 H   0  0  0  0  0  0
  -24.5920  -30.6945   25.7780 H   0  0  0  0  0  0
  -24.8832  -32.2827   26.4769 H   0  0  0  0  0  0
  -25.8098  -30.8923   27.0186 H   0  0  0  0  0  0
  -26.2729  -29.6842   24.1134 H   0  0  0  0  0  0
  -27.4108  -29.7212   25.4416 H   0  0  0  0  0  0
  -27.8564  -30.4411   23.9104 H   0  0  0  0  0  0
  -27.2694  -33.3632   26.1837 H   0  0  0  0  0  0
  -28.3891  -32.6702   25.0234 H   0  0  0  0  0  0
  -28.0616  -31.8441   26.5407 H   0  0  0  0  0  0
  -28.2558  -38.0098   24.7548 H   0  0  0  0  0  0
  -28.1088  -36.2629   24.6261 H   0  0  0  0  0  0
  -27.2306  -37.1386   25.8893 H   0  0  0  0  0  0
  -20.9354  -29.8714   21.6937 H   0  0  0  0  0  0
  -26.0198  -38.2881   24.1431 H   0  0  0  0  0  0
  -30.1456  -22.2482   21.9252 H   0  0  0  0  0  0
  -31.5922  -21.0053   23.4530 H   0  0  0  0  0  0
  -29.1521  -18.5271   19.9307 H   0  0  0  0  0  0
  -31.7823  -15.3088   22.7963 H   0  0  0  0  0  0
  -30.6271  -25.4335   18.6074 H   0  0  0  0  0  0
  -30.6450  -25.1800   20.3444 H   0  0  0  0  0  0
  -30.9801  -22.9424   19.9134 H   0  0  0  0  0  0
  -30.5406  -23.0919   18.2292 H   0  0  0  0  0  0
  -27.0349  -23.8050   20.0798 H   0  0  0  0  0  0
  -28.3446  -23.9101   21.2644 H   0  0  0  0  0  0
  -28.2431  -25.3287   18.5226 H   0  0  0  0  0  0
  -33.9576  -15.9491   23.9103 H   0  0  0  0  0  0
  -32.8712  -16.1598   25.2784 H   0  0  0  0  0  0
  -34.0026  -17.4493   24.8304 H   0  0  0  0  0  0
  -27.6082  -21.2185   20.1174 H   0  0  0  0  0  0
  -28.7205  -20.8531   18.8378 H   0  0  0  0  0  0
  -29.0505  -15.7576   20.9328 H   0  0  0  0  0  0
  -28.4714  -22.8701   18.5866 H   0  0  0  0  0  0
  1 25  1  0  0  0
  1 30  2  0  0  0
  1 87  1  0  0  0
  2  3  1  0  0  0
  2 25  1  0  0  0
  2 89  1  0  0  0
  2 90  1  0  0  0
  3  4  1  0  0  0
  3 91  1  0  0  0
  3 92  1  0  0  0
  4  5  1  0  0  0
  4 93  1  0  0  0
  4 94  1  0  0  0
  5  6  1  0  0  0
  5 26  1  0  0  0
  5 95  1  0  0  0
  6 25  1  0  0  0
  6 96  1  0  0  0
  6 97  1  0  0  0
  7  8  2  0  0  0
  7 26  1  0  0  0
  7 29  1  0  0  0
  8  9  1  0  0  0
  8 22  1  0  0  0
  9 10  1  0  0  0
  9 27  2  0  0  0
 10 11  2  0  0  0
 10 15  1  0  0  0
 11 12  1  0  0  0
 11 98  1  0  0  0
 12 13  2  0  0  0
 12 99  1  0  0  0
 13 14  1  0  0  0
 13 31  1  0  0  0
 14 15  2  0  0  0
 14100  1  0  0  0
 15101  1  0  0  0
 16 17  2  0  0  0
 16 21  1  0  0  0
 16 31  1  0  0  0
 17 18  1  0  0  0
 17102  1  0  0  0
 18 19  2  0  0  0
 18103  1  0  0  0
 19 20  1  0  0  0
 19 24  1  0  0  0
 20 21  2  0  0  0
 20104  1  0  0  0
 21 23  1  0  0  0
 22 28  1  0  0  0
 22 32  2  0  0  0
 26 27  1  0  0  0
 28105  1  0  0  0
 28106  1  0  0  0
 29107  1  0  0  0
 29108  1  0  0  0
 33 34  1  0  0  0
 33 66  1  0  0  0
 33 70  2  0  0  0
 34 36  1  0  0  0
 34 59  1  0  0  0
 34109  1  0  0  0
 35 44  2  0  0  0
 35 45  1  0  0  0
 35 68  1  0  0  0
 36 56  1  0  0  0
 36110  1  0  0  0
 37 39  1  0  0  0
 37 47  1  0  0  0
 37 66  1  0  0  0
 37111  1  0  0  0
 38 43  2  0  0  0
 38 46  1  0  0  0
 38 47  1  0  0  0
 39 64  1  0  0  0
 39 67  2  0  0  0
 40 52  1  0  0  0
 40 53  2  0  0  0
 40 58  1  0  0  0
 41112  1  0  0  0
 41113  1  0  0  0
 41114  1  0  0  0
 41 48  1  0  0  0
 42 43  1  0  0  0
 42 66  1  0  0  0
 42115  1  0  0  0
 42116  1  0  0  0
 43 44  1  0  0  0
 44117  1  0  0  0
 45 46  2  0  0  0
 45118  1  0  0  0
 46119  1  0  0  0
 47120  1  0  0  0
 47121  1  0  0  0
 48 56  1  0  0  0
 48 65  1  0  0  0
 48122  1  0  0  0
 49 50  1  0  0  0
 49 53  1  0  0  0
 49 64  1  0  0  0
 49123  1  0  0  0
 50 51  1  0  0  0
 50124  1  0  0  0
 50125  1  0  0  0
 51 52  1  0  0  0
 51126  1  0  0  0
 51127  1  0  0  0
 52128  1  0  0  0
 52129  1  0  0  0
 53 54  1  0  0  0
 54 55  2  0  0  0
 54130  1  0  0  0
 55 57  1  0  0  0
 55131  1  0  0  0
 56 69  2  0  0  0
 57 58  2  0  0  0
 57132  1  0  0  0
 58133  1  0  0  0
 59 60  1  0  0  0
 59 61  1  0  0  0
 59 62  1  0  0  0
 60134  1  0  0  0
 60135  1  0  0  0
 60136  1  0  0  0
 61137  1  0  0  0
 61138  1  0  0  0
 61139  1  0  0  0
 62140  1  0  0  0
 62141  1  0  0  0
 62142  1  0  0  0
 63 65  1  0  0  0
 63143  1  0  0  0
 63144  1  0  0  0
 63145  1  0  0  0
 64146  1  0  0  0
 65147  1  0  0  0
 68 83  1  0  0  0
 71 72  2  0  0  0
 71 76  1  0  0  0
 71148  1  0  0  0
 72 77  1  0  0  0
 72149  1  0  0  0
 73 75  1  0  0  0
 73 76  2  0  0  0
 73150  1  0  0  0
 74 78  2  0  0  0
 74 79  1  0  0  0
 74151  1  0  0  0
 75 77  2  0  0  0
 75 78  1  0  0  0
 76 85  1  0  0  0
 77 86  1  0  0  0
 78 87  1  0  0  0
 79 84  1  0  0  0
 79 86  2  0  0  0
 80 81  1  0  0  0
 80 83  1  0  0  0
 80152  1  0  0  0
 80153  1  0  0  0
 81 88  1  0  0  0
 81154  1  0  0  0
 81155  1  0  0  0
 82 83  1  0  0  0
 82 88  1  0  0  0
 82156  1  0  0  0
 82157  1  0  0  0
 83158  1  0  0  0
 84159  1  0  0  0
 84160  1  0  0  0
 84161  1  0  0  0
 85162  1  0  0  0
 85163  1  0  0  0
 85 88  1  0  0  0
 87164  1  0  0  0
 88165  1  0  0  0
M  CHG  1  88   1
M  ISO  4   1 100  68 101  83 101  87 100
M  END
> <chiral flag>
0

> <version>
0

> <s_m_source_file>
/data/baiqing/PycharmProjects/Reinvent-master-3.2/result/LINK_invent/BTK/process_docking_weight1_custom_sum_contain_oxygen_bond_distance_aromatic_linkinvent_7_9_3/rearranged_h_0127.sdf

> <i_m_source_file_index>
56

> <r_mmod_Potential_Energy-OPLS-2005>
9.65291976928711

> <r_mmod_Stretch_Energy-OPLS-2005>
90.5904541015625

> <r_mmod_Bend_Energy-OPLS-2005>
228.084320068359

> <r_mmod_Torsional_Energy-OPLS-2005>
278.797668457031

> <r_mmod_Improper_Torsional_Energy-OPLS-2005>
4.42050933837891

> <r_mmod_Van_der_Waal_Energy-OPLS-2005>
159.632400512695

> <r_mmod_Electrostatic_Energy-OPLS-2005>
-331.572265625

> <r_mmod_Solvation_Energy-OPLS-2005>
-465.308715820312

> <b_mmod_Minimization_Converged-OPLS-2005>
0

> <r_mmod_RMS_Derivative-OPLS-2005>
5.0872859954834

$$$$
56
                    3D
 Structure written by MMmdl.
157165  0  0  1  0            999 V2000
  -30.7093  -14.5817   20.4936 C   0  0  0  0  0  0
  -30.4152  -12.3609   19.4493 C   0  0  0  0  0  0
  -29.4919  -12.4823   18.2198 C   0  0  0  0  0  0
  -28.0194  -12.3313   18.6411 C   0  0  0  0  0  0
  -27.6477  -13.2235   19.8562 C   0  0  2  0  0  0
  -28.6956  -13.1188   20.9876 C   0  0  0  0  0  0
  -25.2536  -13.8193   20.5732 C   0  0  0  0  0  0
  -24.1811  -13.0444   20.9212 C   0  0  0  0  0  0
  -24.6390  -11.6913   20.8749 C   0  0  0  0  0  0
  -23.9065  -10.4297   21.0412 C   0  0  0  0  0  0
  -24.3615   -9.4208   21.9187 C   0  0  0  0  0  0
  -23.6300   -8.2242   22.0747 C   0  0  0  0  0  0
  -22.4284   -8.0283   21.3536 C   0  0  0  0  0  0
  -21.9924   -9.0250   20.4633 C   0  0  0  0  0  0
  -22.7244  -10.2132   20.3055 C   0  0  0  0  0  0
  -21.6856   -6.0743   22.5278 C   0  0  0  0  0  0
  -21.4014   -6.5643   23.8213 C   0  0  0  0  0  0
  -21.3659   -5.6796   24.9171 C   0  0  0  0  0  0
  -21.6047   -4.3057   24.7224 C   0  0  0  0  0  0
  -21.8814   -3.8151   23.4348 C   0  0  0  0  0  0
  -21.9189   -4.6973   22.3402 C   0  0  0  0  0  0
  -22.7830  -13.5213   21.1889 C   0  0  0  0  0  0
  -22.1659   -4.2159   21.0983 F   0  0  0  0  0  0
  -21.5631   -3.4539   25.7737 F   0  0  0  0  0  0
  -30.0126  -13.4090   20.4059 N   0  0  0  0  0  0
  -26.2973  -12.9394   20.3338 N   0  0  0  0  0  0
  -25.9322  -11.6538   20.5787 N   0  0  0  0  0  0
  -22.0496  -12.8180   22.0438 N   0  0  0  0  0  0
  -25.4239  -15.1925   20.4175 N   0  0  0  0  0  0
  -31.8886  -14.6537   20.1437 O   0  0  0  0  0  0
  -21.6642   -6.8880   21.4239 O   0  0  0  0  0  0
  -22.3514  -14.5534   20.6760 O   0  0  0  0  0  0
  -24.6257  -31.8646   23.2109 C   0  0  0  0  0  0
  -25.9116  -32.4809   23.8407 C   0  0  1  0  0  0
  -27.2113  -27.3395   20.1092 C   0  0  0  0  0  0
  -25.5955  -33.8611   24.2329 N   0  0  0  0  0  0
  -23.4168  -30.4968   21.5519 C   0  0  2  0  0  0
  -24.8623  -28.9755   20.1083 C   0  0  0  0  0  0
  -22.7479  -29.4646   22.4925 C   0  0  0  0  0  0
  -18.0284  -28.1376   22.8477 C   0  0  0  0  0  0
  -24.1493  -36.7304   23.2631 C   0  0  0  0  0  0
  -25.9618  -30.8038   21.3837 C   0  0  0  0  0  0
  -26.0346  -29.4378   20.7196 C   0  0  0  0  0  0
  -27.2113  -28.6295   20.7213 C   0  0  0  0  0  0
  -26.0126  -26.9559   19.4483 C   0  0  0  0  0  0
  -24.8536  -27.7373   19.4648 C   0  0  0  0  0  0
  -23.6307  -29.8497   20.1619 C   0  0  0  0  0  0
  -25.4114  -36.3109   24.0326 C   0  0  1  0  0  0
  -20.5890  -28.3678   23.1280 C   0  0  2  0  0  0
  -20.6791  -26.9402   22.5380 C   0  0  0  0  0  0
  -19.5749  -26.6361   21.5199 C   0  0  0  0  0  0
  -18.1923  -26.7921   22.1606 C   0  0  0  0  0  0
  -19.1542  -28.8846   23.2872 C   0  0  0  0  0  0
  -18.9467  -30.1451   23.8882 C   0  0  0  0  0  0
  -17.6467  -30.6582   24.0560 C   0  0  0  0  0  0
  -25.9045  -34.9471   23.5113 C   0  0  0  0  0  0
  -16.5361  -29.9083   23.6345 C   0  0  0  0  0  0
  -16.7272  -28.6504   23.0351 C   0  0  0  0  0  0
  -26.4514  -31.6607   25.0760 C   0  0  0  0  0  0
  -25.3753  -31.3716   26.1489 C   0  0  0  0  0  0
  -27.0379  -30.3048   24.6187 C   0  0  0  0  0  0
  -27.6057  -32.4358   25.7544 C   0  0  0  0  0  0
  -27.5586  -37.1810   24.8463 C   0  0  0  0  0  0
  -21.4190  -29.3073   22.3712 N   0  0  0  0  0  0
  -26.4297  -37.3793   23.9415 N   0  0  0  0  0  0
  -24.6869  -31.0692   22.1051 N   0  0  0  0  0  0
  -23.4227  -28.8142   23.2947 O   0  0  0  0  0  0
  -28.3008  -26.4471   20.1872 O   0  0  0  0  0  0
  -26.5575  -34.8925   22.4656 O   0  0  0  0  0  0
  -23.5426  -32.1418   23.7443 O   0  0  0  0  0  0
  -29.4359  -23.4446   21.3011 C   0  0  0  0  0  0
  -29.9597  -22.1313   21.4968 C   0  0  0  0  0  0
  -28.7320  -22.7796   19.0952 C   0  0  0  0  0  0
  -29.2543  -21.4698   19.2713 C   0  0  0  0  0  0
  -28.8034  -23.7917   20.0847 C   0  0  0  0  0  0
  -29.8744  -21.1102   20.5048 C   0  0  0  0  0  0
  -29.1572  -20.5156   18.1126 C   0  0  0  0  0  0
  -30.5543  -19.7216   20.7587 C   0  0  0  0  0  0
  -27.9404  -25.0612   19.8432 C   0  0  0  0  0  0
  -29.7270  -18.3717   20.7293 C   0  0  0  0  0  0
  -30.6496  -17.0908   20.7168 C   0  0  0  0  0  0
  -27.9638  -20.4221   17.5411 N   0  0  0  0  0  0
  -30.0257  -15.7289   20.7676 N   0  0  0  0  0  0
  -30.1174  -19.8537   17.7260 O   0  0  0  0  0  0
  -31.4580  -12.4482   19.1404 H   0  0  0  0  0  0
  -30.3218  -11.3759   19.9088 H   0  0  0  0  0  0
  -29.7460  -11.7203   17.4816 H   0  0  0  0  0  0
  -29.6397  -13.4471   17.7317 H   0  0  0  0  0  0
  -27.8582  -11.2823   18.8930 H   0  0  0  0  0  0
  -27.3591  -12.5449   17.7999 H   0  0  0  0  0  0
  -27.6569  -14.2515   19.4923 H   0  0  0  0  0  0
  -28.6935  -12.1220   21.4315 H   0  0  0  0  0  0
  -28.4577  -13.8124   21.7957 H   0  0  0  0  0  0
  -25.2759   -9.5698   22.4760 H   0  0  0  0  0  0
  -24.0016   -7.4640   22.7464 H   0  0  0  0  0  0
  -21.0856   -8.8761   19.8935 H   0  0  0  0  0  0
  -22.3701  -10.9670   19.6168 H   0  0  0  0  0  0
  -21.2003   -7.6150   23.9722 H   0  0  0  0  0  0
  -21.1489   -6.0523   25.9076 H   0  0  0  0  0  0
  -22.0593   -2.7616   23.2842 H   0  0  0  0  0  0
  -22.4131  -11.9809   22.4757 H   0  0  0  0  0  0
  -21.1119  -13.1173   22.2706 H   0  0  0  0  0  0
  -24.6591  -15.8474   20.5394 H   0  0  0  0  0  0
  -26.2765  -15.6369   20.1029 H   0  0  0  0  0  0
  -26.7192  -32.5505   23.1172 H   0  0  0  0  0  0
  -25.0267  -33.9758   25.0594 H   0  0  0  0  0  0
  -22.7076  -31.3166   21.4167 H   0  0  0  0  0  0
  -23.3767  -35.9620   23.3278 H   0  0  0  0  0  0
  -24.3612  -36.8919   22.2045 H   0  0  0  0  0  0
  -23.7211  -37.6485   23.6672 H   0  0  0  0  0  0
  -26.0944  -31.5739   20.6226 H   0  0  0  0  0  0
  -26.8423  -30.8470   22.0127 H   0  0  0  0  0  0
  -28.1010  -28.9753   21.2285 H   0  0  0  0  0  0
  -25.8964  -26.0264   18.9143 H   0  0  0  0  0  0
  -23.9604  -27.3810   18.9722 H   0  0  0  0  0  0
  -23.7496  -30.6355   19.4146 H   0  0  0  0  0  0
  -22.7523  -29.2811   19.8529 H   0  0  0  0  0  0
  -25.1287  -36.1957   25.0812 H   0  0  0  0  0  0
  -20.9971  -28.3229   24.1407 H   0  0  0  0  0  0
  -20.5715  -26.2271   23.3562 H   0  0  0  0  0  0
  -21.6654  -26.7445   22.1145 H   0  0  0  0  0  0
  -19.6915  -25.6268   21.1234 H   0  0  0  0  0  0
  -19.6699  -27.3177   20.6736 H   0  0  0  0  0  0
  -17.4194  -26.6681   21.4009 H   0  0  0  0  0  0
  -18.0322  -26.0046   22.8997 H   0  0  0  0  0  0
  -19.7943  -30.7271   24.2223 H   0  0  0  0  0  0
  -17.5026  -31.6275   24.5150 H   0  0  0  0  0  0
  -15.5356  -30.2983   23.7677 H   0  0  0  0  0  0
  -15.8669  -28.0827   22.7069 H   0  0  0  0  0  0
  -24.5973  -30.7009   25.7849 H   0  0  0  0  0  0
  -24.8911  -32.2868   26.4906 H   0  0  0  0  0  0
  -25.8099  -30.8935   27.0277 H   0  0  0  0  0  0
  -26.2974  -29.6786   24.1211 H   0  0  0  0  0  0
  -27.4129  -29.7306   25.4667 H   0  0  0  0  0  0
  -27.8809  -30.4389   23.9403 H   0  0  0  0  0  0
  -27.2672  -33.3694   26.2060 H   0  0  0  0  0  0
  -28.3914  -32.6844   25.0399 H   0  0  0  0  0  0
  -28.0680  -31.8521   26.5514 H   0  0  0  0  0  0
  -28.2567  -38.0143   24.7560 H   0  0  0  0  0  0
  -28.1122  -36.2676   24.6252 H   0  0  0  0  0  0
  -27.2311  -37.1376   25.8862 H   0  0  0  0  0  0
  -20.9339  -29.8881   21.7015 H   0  0  0  0  0  0
  -26.0174  -38.2869   24.1433 H   0  0  0  0  0  0
  -29.4867  -24.1687   22.1041 H   0  0  0  0  0  0
  -30.4384  -21.9070   22.4403 H   0  0  0  0  0  0
  -28.2326  -23.0092   18.1643 H   0  0  0  0  0  0
  -31.0628  -19.7669   21.7225 H   0  0  0  0  0  0
  -31.3670  -19.6465   20.0348 H   0  0  0  0  0  0
  -27.0112  -24.8023   20.3547 H   0  0  0  0  0  0
  -27.7454  -25.0646   18.7701 H   0  0  0  0  0  0
  -29.0848  -18.3438   19.8503 H   0  0  0  0  0  0
  -29.0571  -18.3402   21.5881 H   0  0  0  0  0  0
  -31.3515  -17.1563   21.5492 H   0  0  0  0  0  0
  -31.2628  -17.1423   19.8148 H   0  0  0  0  0  0
  -27.1910  -20.9673   17.8932 H   0  0  0  0  0  0
  -27.8181  -19.7902   16.7679 H   0  0  0  0  0  0
  -29.0387  -15.6570   20.9625 H   0  0  0  0  0  0
  1 25  1  0  0  0
  1 30  2  0  0  0
  1 83  1  0  0  0
  2  3  1  0  0  0
  2 25  1  0  0  0
  2 85  1  0  0  0
  2 86  1  0  0  0
  3  4  1  0  0  0
  3 87  1  0  0  0
  3 88  1  0  0  0
  4  5  1  0  0  0
  4 89  1  0  0  0
  4 90  1  0  0  0
  5  6  1  0  0  0
  5 26  1  0  0  0
  5 91  1  0  0  0
  6 25  1  0  0  0
  6 92  1  0  0  0
  6 93  1  0  0  0
  7  8  2  0  0  0
  7 26  1  0  0  0
  7 29  1  0  0  0
  8  9  1  0  0  0
  8 22  1  0  0  0
  9 10  1  0  0  0
  9 27  2  0  0  0
 10 11  2  0  0  0
 10 15  1  0  0  0
 11 12  1  0  0  0
 11 94  1  0  0  0
 12 13  2  0  0  0
 12 95  1  0  0  0
 13 14  1  0  0  0
 13 31  1  0  0  0
 14 15  2  0  0  0
 14 96  1  0  0  0
 15 97  1  0  0  0
 16 17  2  0  0  0
 16 21  1  0  0  0
 16 31  1  0  0  0
 17 18  1  0  0  0
 17 98  1  0  0  0
 18 19  2  0  0  0
 18 99  1  0  0  0
 19 20  1  0  0  0
 19 24  1  0  0  0
 20 21  2  0  0  0
 20100  1  0  0  0
 21 23  1  0  0  0
 22 28  1  0  0  0
 22 32  2  0  0  0
 26 27  1  0  0  0
 28101  1  0  0  0
 28102  1  0  0  0
 29103  1  0  0  0
 29104  1  0  0  0
 33 34  1  0  0  0
 33 66  1  0  0  0
 33 70  2  0  0  0
 34 36  1  0  0  0
 34 59  1  0  0  0
 34105  1  0  0  0
 35 44  2  0  0  0
 35 45  1  0  0  0
 35 68  1  0  0  0
 36 56  1  0  0  0
 36106  1  0  0  0
 37 39  1  0  0  0
 37 47  1  0  0  0
 37 66  1  0  0  0
 37107  1  0  0  0
 38 43  2  0  0  0
 38 46  1  0  0  0
 38 47  1  0  0  0
 39 64  1  0  0  0
 39 67  2  0  0  0
 40 52  1  0  0  0
 40 53  2  0  0  0
 40 58  1  0  0  0
 41108  1  0  0  0
 41109  1  0  0  0
 41110  1  0  0  0
 41 48  1  0  0  0
 42 43  1  0  0  0
 42 66  1  0  0  0
 42111  1  0  0  0
 42112  1  0  0  0
 43 44  1  0  0  0
 44113  1  0  0  0
 45 46  2  0  0  0
 45114  1  0  0  0
 46115  1  0  0  0
 47116  1  0  0  0
 47117  1  0  0  0
 48 56  1  0  0  0
 48 65  1  0  0  0
 48118  1  0  0  0
 49 50  1  0  0  0
 49 53  1  0  0  0
 49 64  1  0  0  0
 49119  1  0  0  0
 50 51  1  0  0  0
 50120  1  0  0  0
 50121  1  0  0  0
 51 52  1  0  0  0
 51122  1  0  0  0
 51123  1  0  0  0
 52124  1  0  0  0
 52125  1  0  0  0
 53 54  1  0  0  0
 54 55  2  0  0  0
 54126  1  0  0  0
 55 57  1  0  0  0
 55127  1  0  0  0
 56 69  2  0  0  0
 57 58  2  0  0  0
 57128  1  0  0  0
 58129  1  0  0  0
 59 60  1  0  0  0
 59 61  1  0  0  0
 59 62  1  0  0  0
 60130  1  0  0  0
 60131  1  0  0  0
 60132  1  0  0  0
 61133  1  0  0  0
 61134  1  0  0  0
 61135  1  0  0  0
 62136  1  0  0  0
 62137  1  0  0  0
 62138  1  0  0  0
 63 65  1  0  0  0
 63139  1  0  0  0
 63140  1  0  0  0
 63141  1  0  0  0
 64142  1  0  0  0
 65143  1  0  0  0
 68 79  1  0  0  0
 71 72  2  0  0  0
 71 75  1  0  0  0
 71144  1  0  0  0
 72 76  1  0  0  0
 72145  1  0  0  0
 73 74  1  0  0  0
 73 75  2  0  0  0
 73146  1  0  0  0
 74 76  2  0  0  0
 74 77  1  0  0  0
 75 79  1  0  0  0
 76 78  1  0  0  0
 77 82  1  0  0  0
 77 84  2  0  0  0
 78 80  1  0  0  0
 78147  1  0  0  0
 78148  1  0  0  0
 79149  1  0  0  0
 79150  1  0  0  0
 80 81  1  0  0  0
 80151  1  0  0  0
 80152  1  0  0  0
 81 83  1  0  0  0
 81153  1  0  0  0
 81154  1  0  0  0
 82155  1  0  0  0
 82156  1  0  0  0
 83157  1  0  0  0
M  ISO  4   1 100  68 101  79 101  83 100
M  END
> <chiral flag>
0

> <version>
0

> <s_m_source_file>
/data/baiqing/PycharmProjects/Reinvent-master-3.2/result/LINK_invent/BTK/process_docking_weight1_custom_sum_contain_oxygen_bond_distance_aromatic_linkinvent_7_9_3/rearranged_h_0127.sdf

> <i_m_source_file_index>
57

> <r_mmod_Potential_Energy-OPLS-2005>
-63.2162971496582

> <r_mmod_Stretch_Energy-OPLS-2005>
67.2037506103516

> <r_mmod_Bend_Energy-OPLS-2005>
145.709747314453

> <r_mmod_Torsional_Energy-OPLS-2005>
226.274276733398

> <r_mmod_Improper_Torsional_Energy-OPLS-2005>
6.62804460525513

> <r_mmod_Van_der_Waal_Energy-OPLS-2005>
166.773941040039

> <r_mmod_Electrostatic_Energy-OPLS-2005>
-474.682067871094

> <r_mmod_Solvation_Energy-OPLS-2005>
-247.597457885742

> <b_mmod_Minimization_Converged-OPLS-2005>
0

> <r_mmod_RMS_Derivative-OPLS-2005>
2.47945618629456

$$$$
57
                    3D
 Structure written by MMmdl.
159167  0  0  1  0            999 V2000
  -30.6600  -14.5899   20.5237 C   0  0  0  0  0  0
  -30.4282  -12.3697   19.4414 C   0  0  0  0  0  0
  -29.4994  -12.4998   18.2157 C   0  0  0  0  0  0
  -28.0230  -12.3445   18.6312 C   0  0  0  0  0  0
  -27.6514  -13.2152   19.8614 C   0  0  2  0  0  0
  -28.6962  -13.0666   20.9893 C   0  0  0  0  0  0
  -25.2549  -13.8169   20.5680 C   0  0  0  0  0  0
  -24.1820  -13.0436   20.9195 C   0  0  0  0  0  0
  -24.6387  -11.6907   20.8746 C   0  0  0  0  0  0
  -23.9058  -10.4291   21.0410 C   0  0  0  0  0  0
  -24.3612   -9.4206   21.9186 C   0  0  0  0  0  0
  -23.6289   -8.2241   22.0754 C   0  0  0  0  0  0
  -22.4272   -8.0278   21.3543 C   0  0  0  0  0  0
  -21.9906   -9.0252   20.4646 C   0  0  0  0  0  0
  -22.7232  -10.2132   20.3058 C   0  0  0  0  0  0
  -21.6851   -6.0733   22.5279 C   0  0  0  0  0  0
  -21.4014   -6.5639   23.8212 C   0  0  0  0  0  0
  -21.3660   -5.6792   24.9175 C   0  0  0  0  0  0
  -21.6044   -4.3054   24.7226 C   0  0  0  0  0  0
  -21.8819   -3.8146   23.4348 C   0  0  0  0  0  0
  -21.9192   -4.6962   22.3403 C   0  0  0  0  0  0
  -22.7844  -13.5230   21.1859 C   0  0  0  0  0  0
  -22.1661   -4.2147   21.0980 F   0  0  0  0  0  0
  -21.5630   -3.4538   25.7740 F   0  0  0  0  0  0
  -30.0118  -13.3915   20.4193 N   0  0  0  0  0  0
  -26.2975  -12.9350   20.3316 N   0  0  0  0  0  0
  -25.9313  -11.6506   20.5762 N   0  0  0  0  0  0
  -22.0486  -12.8220   22.0414 N   0  0  0  0  0  0
  -25.4258  -15.1890   20.4076 N   0  0  0  0  0  0
  -31.8254  -14.7329   20.1469 O   0  0  0  0  0  0
  -21.6637   -6.8875   21.4240 O   0  0  0  0  0  0
  -22.3534  -14.5541   20.6712 O   0  0  0  0  0  0
  -24.6231  -31.8618   23.2043 C   0  0  0  0  0  0
  -25.9092  -32.4789   23.8362 C   0  0  1  0  0  0
  -27.2295  -27.3491   20.0973 C   0  0  0  0  0  0
  -25.5916  -33.8589   24.2289 N   0  0  0  0  0  0
  -23.4140  -30.4863   21.5472 C   0  0  2  0  0  0
  -24.8578  -28.9431   20.1133 C   0  0  0  0  0  0
  -22.7452  -29.4636   22.4955 C   0  0  0  0  0  0
  -18.0280  -28.1381   22.8488 C   0  0  0  0  0  0
  -24.1487  -36.7298   23.2639 C   0  0  0  0  0  0
  -25.9523  -30.8012   21.3693 C   0  0  0  0  0  0
  -26.0253  -29.4306   20.7116 C   0  0  0  0  0  0
  -27.2095  -28.6429   20.6971 C   0  0  0  0  0  0
  -26.0264  -26.8933   19.5068 C   0  0  0  0  0  0
  -24.8578  -27.6775   19.5084 C   0  0  0  0  0  0
  -23.6251  -29.8200   20.1624 C   0  0  0  0  0  0
  -25.4111  -36.3089   24.0328 C   0  0  1  0  0  0
  -20.5877  -28.3679   23.1294 C   0  0  2  0  0  0
  -20.6767  -26.9407   22.5412 C   0  0  0  0  0  0
  -19.5745  -26.6385   21.5210 C   0  0  0  0  0  0
  -18.1925  -26.7927   22.1621 C   0  0  0  0  0  0
  -19.1532  -28.8847   23.2887 C   0  0  0  0  0  0
  -18.9457  -30.1450   23.8902 C   0  0  0  0  0  0
  -17.6458  -30.6586   24.0563 C   0  0  0  0  0  0
  -25.9045  -34.9458   23.5108 C   0  0  0  0  0  0
  -16.5349  -29.9085   23.6330 C   0  0  0  0  0  0
  -16.7268  -28.6502   23.0352 C   0  0  0  0  0  0
  -26.4488  -31.6598   25.0726 C   0  0  0  0  0  0
  -25.3731  -31.3724   26.1459 C   0  0  0  0  0  0
  -27.0331  -30.3029   24.6162 C   0  0  0  0  0  0
  -27.6054  -32.4332   25.7491 C   0  0  0  0  0  0
  -27.5579  -37.1801   24.8463 C   0  0  0  0  0  0
  -21.4170  -29.3038   22.3693 N   0  0  0  0  0  0
  -26.4290  -37.3782   23.9409 N   0  0  0  0  0  0
  -24.6821  -31.0657   22.0976 N   0  0  0  0  0  0
  -23.4192  -28.8174   23.3020 O   0  0  0  0  0  0
  -28.3927  -26.5723   20.1424 O   0  0  0  0  0  0
  -26.5614  -34.8920   22.4674 O   0  0  0  0  0  0
  -23.5404  -32.1403   23.7393 O   0  0  0  0  0  0
  -30.2488  -23.4205   20.0100 C   0  0  0  0  0  0
  -27.8420  -22.7879   19.9187 C   0  0  0  0  0  0
  -30.5655  -22.0617   20.7047 C   0  0  0  0  0  0
  -28.1730  -21.4188   20.6131 C   0  0  0  0  0  0
  -28.8126  -23.9652   20.2524 C   0  0  2  0  0  0
  -29.6091  -20.8952   20.3200 C   0  0  2  0  0  0
  -28.5251  -25.2970   19.4291 C   0  0  0  0  0  0
  -30.3725  -17.0644   21.1702 C   0  0  0  0  0  0
  -29.5485  -18.2671   20.5430 C   0  0  0  0  0  0
  -29.9109  -15.6632   20.9056 N   0  0  0  0  0  0
  -29.9958  -19.6206   21.0417 N   0  3  0  0  0  0
  -31.4708  -12.4828   19.1391 H   0  0  0  0  0  0
  -30.3504  -11.3738   19.8804 H   0  0  0  0  0  0
  -29.7570  -11.7505   17.4660 H   0  0  0  0  0  0
  -29.6475  -13.4712   17.7411 H   0  0  0  0  0  0
  -27.8561  -11.2916   18.8616 H   0  0  0  0  0  0
  -27.3672  -12.5779   17.7917 H   0  0  0  0  0  0
  -27.6724  -14.2512   19.5228 H   0  0  0  0  0  0
  -28.6993  -12.0473   21.3784 H   0  0  0  0  0  0
  -28.4499  -13.7082   21.8367 H   0  0  0  0  0  0
  -25.2757   -9.5683   22.4761 H   0  0  0  0  0  0
  -24.0000   -7.4632   22.7472 H   0  0  0  0  0  0
  -21.0839   -8.8769   19.8951 H   0  0  0  0  0  0
  -22.3690  -10.9672   19.6167 H   0  0  0  0  0  0
  -21.2005   -7.6147   23.9715 H   0  0  0  0  0  0
  -21.1483   -6.0522   25.9077 H   0  0  0  0  0  0
  -22.0598   -2.7608   23.2848 H   0  0  0  0  0  0
  -22.4100  -11.9875   22.4791 H   0  0  0  0  0  0
  -21.1105  -13.1246   22.2627 H   0  0  0  0  0  0
  -24.6544  -15.8402   20.5059 H   0  0  0  0  0  0
  -26.2672  -15.6245   20.0524 H   0  0  0  0  0  0
  -26.7156  -32.5466   23.1111 H   0  0  0  0  0  0
  -25.0061  -33.9740   25.0430 H   0  0  0  0  0  0
  -22.7066  -31.3060   21.4056 H   0  0  0  0  0  0
  -23.3747  -35.9632   23.3306 H   0  0  0  0  0  0
  -24.3574  -36.8917   22.2051 H   0  0  0  0  0  0
  -23.7244  -37.6503   23.6657 H   0  0  0  0  0  0
  -26.0786  -31.5656   20.6012 H   0  0  0  0  0  0
  -26.8350  -30.8499   21.9954 H   0  0  0  0  0  0
  -28.1095  -29.0173   21.1645 H   0  0  0  0  0  0
  -25.9333  -25.9172   19.0603 H   0  0  0  0  0  0
  -23.9558  -27.2899   19.0549 H   0  0  0  0  0  0
  -23.7406  -30.5947   19.4036 H   0  0  0  0  0  0
  -22.7457  -29.2464   19.8636 H   0  0  0  0  0  0
  -25.1292  -36.1940   25.0822 H   0  0  0  0  0  0
  -20.9969  -28.3250   24.1414 H   0  0  0  0  0  0
  -20.5664  -26.2289   23.3607 H   0  0  0  0  0  0
  -21.6637  -26.7437   22.1210 H   0  0  0  0  0  0
  -19.6905  -25.6296   21.1237 H   0  0  0  0  0  0
  -19.6685  -27.3195   20.6740 H   0  0  0  0  0  0
  -17.4195  -26.6676   21.4022 H   0  0  0  0  0  0
  -18.0324  -26.0067   22.9015 H   0  0  0  0  0  0
  -19.7934  -30.7263   24.2277 H   0  0  0  0  0  0
  -17.5015  -31.6268   24.5160 H   0  0  0  0  0  0
  -15.5350  -30.2988   23.7656 H   0  0  0  0  0  0
  -15.8667  -28.0824   22.7066 H   0  0  0  0  0  0
  -24.5910  -30.7066   25.7792 H   0  0  0  0  0  0
  -24.8912  -32.2883   26.4888 H   0  0  0  0  0  0
  -25.8066  -30.8906   27.0232 H   0  0  0  0  0  0
  -26.2897  -29.6779   24.1198 H   0  0  0  0  0  0
  -27.4053  -29.7285   25.4656 H   0  0  0  0  0  0
  -27.8754  -30.4329   23.9362 H   0  0  0  0  0  0
  -27.2671  -33.3633   26.2071 H   0  0  0  0  0  0
  -28.3858  -32.6895   25.0313 H   0  0  0  0  0  0
  -28.0727  -31.8458   26.5404 H   0  0  0  0  0  0
  -28.2596  -38.0099   24.7518 H   0  0  0  0  0  0
  -28.1078  -36.2632   24.6282 H   0  0  0  0  0  0
  -27.2298  -37.1444   25.8867 H   0  0  0  0  0  0
  -20.9339  -29.8769   21.6916 H   0  0  0  0  0  0
  -26.0173  -38.2856   24.1418 H   0  0  0  0  0  0
  -30.4108  -23.3026   18.9372 H   0  0  0  0  0  0
  -30.9740  -24.1663   20.3385 H   0  0  0  0  0  0
  -26.8245  -23.0831   20.1782 H   0  0  0  0  0  0
  -27.8359  -22.6320   18.8387 H   0  0  0  0  0  0
  -30.5390  -22.2121   21.7850 H   0  0  0  0  0  0
  -31.5934  -21.7836   20.4682 H   0  0  0  0  0  0
  -27.4432  -20.6722   20.2977 H   0  0  0  0  0  0
  -28.0397  -21.5326   21.6897 H   0  0  0  0  0  0
  -28.7072  -24.1973   21.3132 H   0  0  0  0  0  0
  -29.7095  -20.7141   19.2485 H   0  0  0  0  0  0
  -27.7420  -25.1134   18.7002 H   0  0  0  0  0  0
  -29.3853  -25.4639   18.7801 H   0  0  0  0  0  0
  -30.3799  -17.1783   22.2549 H   0  0  0  0  0  0
  -31.4149  -17.1640   20.8631 H   0  0  0  0  0  0
  -28.4861  -18.1523   20.7600 H   0  0  0  0  0  0
  -29.6483  -18.2374   19.4574 H   0  0  0  0  0  0
  -28.9503  -15.4568   21.1364 H   0  0  0  0  0  0
  -29.7430  -19.7042   22.0133 H   0  0  0  0  0  0
  -31.0021  -19.5921   21.0124 H   0  0  0  0  0  0
  1 25  1  0  0  0
  1 30  2  0  0  0
  1 80  1  0  0  0
  2  3  1  0  0  0
  2 25  1  0  0  0
  2 82  1  0  0  0
  2 83  1  0  0  0
  3  4  1  0  0  0
  3 84  1  0  0  0
  3 85  1  0  0  0
  4  5  1  0  0  0
  4 86  1  0  0  0
  4 87  1  0  0  0
  5  6  1  0  0  0
  5 26  1  0  0  0
  5 88  1  0  0  0
  6 25  1  0  0  0
  6 89  1  0  0  0
  6 90  1  0  0  0
  7  8  2  0  0  0
  7 26  1  0  0  0
  7 29  1  0  0  0
  8  9  1  0  0  0
  8 22  1  0  0  0
  9 10  1  0  0  0
  9 27  2  0  0  0
 10 11  2  0  0  0
 10 15  1  0  0  0
 11 12  1  0  0  0
 11 91  1  0  0  0
 12 13  2  0  0  0
 12 92  1  0  0  0
 13 14  1  0  0  0
 13 31  1  0  0  0
 14 15  2  0  0  0
 14 93  1  0  0  0
 15 94  1  0  0  0
 16 17  2  0  0  0
 16 21  1  0  0  0
 16 31  1  0  0  0
 17 18  1  0  0  0
 17 95  1  0  0  0
 18 19  2  0  0  0
 18 96  1  0  0  0
 19 20  1  0  0  0
 19 24  1  0  0  0
 20 21  2  0  0  0
 20 97  1  0  0  0
 21 23  1  0  0  0
 22 28  1  0  0  0
 22 32  2  0  0  0
 26 27  1  0  0  0
 28 98  1  0  0  0
 28 99  1  0  0  0
 29100  1  0  0  0
 29101  1  0  0  0
 33 34  1  0  0  0
 33 66  1  0  0  0
 33 70  2  0  0  0
 34 36  1  0  0  0
 34 59  1  0  0  0
 34102  1  0  0  0
 35 44  2  0  0  0
 35 45  1  0  0  0
 35 68  1  0  0  0
 36 56  1  0  0  0
 36103  1  0  0  0
 37 39  1  0  0  0
 37 47  1  0  0  0
 37 66  1  0  0  0
 37104  1  0  0  0
 38 43  2  0  0  0
 38 46  1  0  0  0
 38 47  1  0  0  0
 39 64  1  0  0  0
 39 67  2  0  0  0
 40 52  1  0  0  0
 40 53  2  0  0  0
 40 58  1  0  0  0
 41105  1  0  0  0
 41106  1  0  0  0
 41107  1  0  0  0
 41 48  1  0  0  0
 42 43  1  0  0  0
 42 66  1  0  0  0
 42108  1  0  0  0
 42109  1  0  0  0
 43 44  1  0  0  0
 44110  1  0  0  0
 45 46  2  0  0  0
 45111  1  0  0  0
 46112  1  0  0  0
 47113  1  0  0  0
 47114  1  0  0  0
 48 56  1  0  0  0
 48 65  1  0  0  0
 48115  1  0  0  0
 49 50  1  0  0  0
 49 53  1  0  0  0
 49 64  1  0  0  0
 49116  1  0  0  0
 50 51  1  0  0  0
 50117  1  0  0  0
 50118  1  0  0  0
 51 52  1  0  0  0
 51119  1  0  0  0
 51120  1  0  0  0
 52121  1  0  0  0
 52122  1  0  0  0
 53 54  1  0  0  0
 54 55  2  0  0  0
 54123  1  0  0  0
 55 57  1  0  0  0
 55124  1  0  0  0
 56 69  2  0  0  0
 57 58  2  0  0  0
 57125  1  0  0  0
 58126  1  0  0  0
 59 60  1  0  0  0
 59 61  1  0  0  0
 59 62  1  0  0  0
 60127  1  0  0  0
 60128  1  0  0  0
 60129  1  0  0  0
 61130  1  0  0  0
 61131  1  0  0  0
 61132  1  0  0  0
 62133  1  0  0  0
 62134  1  0  0  0
 62135  1  0  0  0
 63 65  1  0  0  0
 63136  1  0  0  0
 63137  1  0  0  0
 63138  1  0  0  0
 64139  1  0  0  0
 65140  1  0  0  0
 68 77  1  0  0  0
 71 73  1  0  0  0
 71 75  1  0  0  0
 71141  1  0  0  0
 71142  1  0  0  0
 72 74  1  0  0  0
 72 75  1  0  0  0
 72143  1  0  0  0
 72144  1  0  0  0
 73 76  1  0  0  0
 73145  1  0  0  0
 73146  1  0  0  0
 74 76  1  0  0  0
 74147  1  0  0  0
 74148  1  0  0  0
 75 77  1  0  0  0
 75149  1  0  0  0
 76 81  1  0  0  0
 76150  1  0  0  0
 77151  1  0  0  0
 77152  1  0  0  0
 78 79  1  0  0  0
 78 80  1  0  0  0
 78153  1  0  0  0
 78154  1  0  0  0
 79 81  1  0  0  0
 79155  1  0  0  0
 79156  1  0  0  0
 80157  1  0  0  0
 81158  1  0  0  0
 81159  1  0  0  0
M  CHG  1  81   1
M  ISO  4   1 100  68 101  77 101  80 100
M  END
> <chiral flag>
0

> <version>
0

> <s_m_source_file>
/data/baiqing/PycharmProjects/Reinvent-master-3.2/result/LINK_invent/BTK/process_docking_weight1_custom_sum_contain_oxygen_bond_distance_aromatic_linkinvent_7_9_3/rearranged_h_0127.sdf

> <i_m_source_file_index>
58

> <r_mmod_Potential_Energy-OPLS-2005>
-152.838165283203

> <r_mmod_Stretch_Energy-OPLS-2005>
64.4404754638672

> <r_mmod_Bend_Energy-OPLS-2005>
140.56721496582

> <r_mmod_Torsional_Energy-OPLS-2005>
229.718780517578

> <r_mmod_Improper_Torsional_Energy-OPLS-2005>
3.75444364547729

> <r_mmod_Van_der_Waal_Energy-OPLS-2005>
130.652481079102

> <r_mmod_Electrostatic_Energy-OPLS-2005>
-277.11572265625

> <r_mmod_Solvation_Energy-OPLS-2005>
-479.000396728516

> <b_mmod_Minimization_Converged-OPLS-2005>
0

> <r_mmod_RMS_Derivative-OPLS-2005>
0.337198555469513

$$$$
58
                    3D
 Structure written by MMmdl.
172181  0  0  1  0            999 V2000
  -30.9288  -14.2984   21.0912 C   0  0  0  0  0  0
  -30.7406  -12.7984   18.9878 C   0  0  0  0  0  0
  -29.9979  -13.3981   17.3583 C   0  0  0  0  0  0
  -28.2082  -14.1675   17.2996 C   0  0  0  0  0  0
  -27.3803  -13.9692   20.1201 C   0  0  2  0  0  0
  -28.7043  -13.1579   21.0741 C   0  0  0  0  0  0
  -25.0071  -13.9003   20.9083 C   0  0  0  0  0  0
  -24.0323  -13.0078   21.0565 C   0  0  0  0  0  0
  -24.6303  -11.7168   20.9846 C   0  0  0  0  0  0
  -23.9513  -10.4151   21.0644 C   0  0  0  0  0  0
  -24.3926   -9.3925   21.9345 C   0  0  0  0  0  0
  -23.6418   -8.2013   22.0810 C   0  0  0  0  0  0
  -22.4378   -8.0244   21.3641 C   0  0  0  0  0  0
  -22.0190   -9.0238   20.4713 C   0  0  0  0  0  0
  -22.7685  -10.2023   20.3170 C   0  0  0  0  0  0
  -21.6804   -6.0688   22.5296 C   0  0  0  0  0  0
  -21.3938   -6.5616   23.8219 C   0  0  0  0  0  0
  -21.3677   -5.6801   24.9215 C   0  0  0  0  0  0
  -21.6073   -4.3067   24.7279 C   0  0  0  0  0  0
  -21.8780   -3.8132   23.4410 C   0  0  0  0  0  0
  -21.9146   -4.6920   22.3444 C   0  0  0  0  0  0
  -22.6159  -13.4269   21.2153 C   0  0  0  0  0  0
  -22.1651   -4.2100   21.1021 F   0  0  0  0  0  0
  -21.5677   -3.4562   25.7807 F   0  0  0  0  0  0
  -30.2190  -13.2301   20.5366 N   0  0  0  0  0  0
  -26.1571  -13.2367   20.6474 N   0  0  0  0  0  0
  -25.9630  -11.8707   20.8125 N   0  0  0  0  0  0
  -21.8811  -12.7245   22.0559 N   0  0  0  0  0  0
  -24.9354  -15.2641   20.9194 N   0  0  0  0  0  0
  -32.0095  -14.6101   20.5883 O   0  0  0  0  0  0
  -21.6656   -6.8867   21.4287 O   0  0  0  0  0  0
  -22.2118  -14.4607   20.6754 O   0  0  0  0  0  0
  -24.6932  -31.7948   23.1458 C   0  0  0  0  0  0
  -25.9530  -32.4414   23.7991 C   0  0  1  0  0  0
  -27.1270  -26.6747   20.0149 C   0  0  0  0  0  0
  -25.6076  -33.8240   24.1837 N   0  0  0  0  0  0
  -23.5065  -30.4129   21.5119 C   0  0  2  0  0  0
  -24.9251  -28.7594   20.0909 C   0  0  0  0  0  0
  -22.7760  -29.4359   22.4705 C   0  0  0  0  0  0
  -18.0366  -28.1440   22.8465 C   0  0  0  0  0  0
  -24.1508  -36.7114   23.2644 C   0  0  0  0  0  0
  -26.0958  -30.4943   21.4161 C   0  0  0  0  0  0
  -26.1341  -29.0715   20.7215 C   0  0  0  0  0  0
  -27.2301  -28.0467   20.6674 C   0  0  0  0  0  0
  -25.8765  -26.5817   19.3784 C   0  0  0  0  0  0
  -24.8304  -27.5383   19.4143 C   0  0  0  0  0  0
  -23.7397  -29.7317   20.1393 C   0  0  0  0  0  0
  -25.4172  -36.2815   24.0227 C   0  0  1  0  0  0
  -20.5994  -28.3805   23.1141 C   0  0  2  0  0  0
  -20.6835  -26.9465   22.5415 C   0  0  0  0  0  0
  -19.5801  -26.6367   21.5248 C   0  0  0  0  0  0
  -18.1983  -26.7972   22.1639 C   0  0  0  0  0  0
  -19.1625  -28.8949   23.2789 C   0  0  0  0  0  0
  -18.9529  -30.1542   23.8820 C   0  0  0  0  0  0
  -17.6511  -30.6618   24.0559 C   0  0  0  0  0  0
  -25.9175  -34.9237   23.4857 C   0  0  0  0  0  0
  -16.5405  -29.9088   23.6355 C   0  0  0  0  0  0
  -16.7351  -28.6517   23.0369 C   0  0  0  0  0  0
  -26.4626  -31.6525   25.0694 C   0  0  0  0  0  0
  -25.3616  -31.4002   26.1268 C   0  0  0  0  0  0
  -27.0517  -30.2805   24.6742 C   0  0  0  0  0  0
  -27.6039  -32.4411   25.7548 C   0  0  0  0  0  0
  -27.5553  -37.1722   24.8445 C   0  0  0  0  0  0
  -21.4405  -29.3046   22.3448 N   0  0  0  0  0  0
  -26.4257  -37.3610   23.9387 N   0  0  0  0  0  0
  -24.7924  -30.9343   22.0756 N   0  0  0  0  0  0
  -23.4222  -28.7943   23.3026 O   0  0  0  0  0  0
  -27.9924  -25.3893   19.9279 O   0  0  0  0  0  0
  -26.5810  -34.8844   22.4468 O   0  0  0  0  0  0
  -23.5965  -32.1083   23.6420 O   0  0  0  0  0  0
  -29.1995  -19.4749   19.5215 C   0  0  0  0  0  0
  -29.0307  -20.9867   19.7596 C   0  0  0  0  0  0
  -27.3101  -20.9745   18.3441 C   0  0  0  0  0  0
  -28.3848  -18.4725   18.7393 C   0  0  0  0  0  0
  -28.0368  -21.9641   19.1986 C   0  0  0  0  0  0
  -27.4421  -19.4671   18.1138 C   0  0  0  0  0  0
  -25.9751  -14.4690   18.1771 C   0  0  0  0  0  0
  -26.6706  -12.6536   18.2027 C   0  0  0  0  0  0
  -29.1847  -14.9046   19.1105 C   0  0  0  0  0  0
  -28.3467  -16.5756   18.5200 C   0  0  1  0  0  0
  -26.8343  -16.0981   18.7394 C   0  0  2  0  0  0
  -26.4301  -18.9929   17.0433 C   0  0  0  0  0  0
  -27.5453  -23.7722   19.3747 C   0  0  0  0  0  0
  -28.9127  -15.8617   22.2560 C   0  0  0  0  0  0
  -28.0309  -16.9559   21.3449 C   0  0  0  0  0  0
  -30.3135  -15.2810   21.8887 N   0  0  0  0  0  0
  -28.3418  -12.5679   18.7742 N   0  3  0  0  0  0
  -26.9445  -16.6112   20.2273 N   0  3  0  0  0  0
  -31.8079  -12.9869   18.8789 H   0  0  0  0  0  0
  -30.7450  -11.7031   18.9723 H   0  0  0  0  0  0
  -30.0543  -12.5810   16.6355 H   0  0  0  0  0  0
  -30.6786  -14.1249   16.9086 H   0  0  0  0  0  0
  -27.8028  -13.5800   16.4734 H   0  0  0  0  0  0
  -28.0908  -15.0521   16.6917 H   0  0  0  0  0  0
  -27.4286  -14.6627   20.8795 H   0  0  0  0  0  0
  -28.5013  -12.0839   21.1190 H   0  0  0  0  0  0
  -28.6572  -13.3166   22.1488 H   0  0  0  0  0  0
  -25.2975   -9.5221   22.5076 H   0  0  0  0  0  0
  -24.0015   -7.4325   22.7456 H   0  0  0  0  0  0
  -21.1141   -8.8852   19.9000 H   0  0  0  0  0  0
  -22.4185  -10.9619   19.6336 H   0  0  0  0  0  0
  -21.1899   -7.6109   23.9682 H   0  0  0  0  0  0
  -21.1583   -6.0579   25.9113 H   0  0  0  0  0  0
  -22.0551   -2.7584   23.2936 H   0  0  0  0  0  0
  -22.2610  -11.9056   22.5036 H   0  0  0  0  0  0
  -20.9180  -12.9712   22.2327 H   0  0  0  0  0  0
  -24.6829  -15.4909   21.8842 H   0  0  0  0  0  0
  -24.0295  -15.4082   20.4768 H   0  0  0  0  0  0
  -26.7612  -32.4789   23.0690 H   0  0  0  0  0  0
  -25.0109  -33.9271   24.9911 H   0  0  0  0  0  0
  -22.8361  -31.2586   21.3358 H   0  0  0  0  0  0
  -23.3776  -35.9438   23.3230 H   0  0  0  0  0  0
  -24.3554  -36.8887   22.2073 H   0  0  0  0  0  0
  -23.7291  -37.6260   23.6820 H   0  0  0  0  0  0
  -26.3343  -31.2386   20.6555 H   0  0  0  0  0  0
  -26.9316  -30.5181   22.1039 H   0  0  0  0  0  0
  -28.1444  -28.2697   21.1975 H   0  0  0  0  0  0
  -25.6547  -25.6653   18.8520 H   0  0  0  0  0  0
  -23.9100  -27.2879   18.9087 H   0  0  0  0  0  0
  -23.9175  -30.4979   19.3831 H   0  0  0  0  0  0
  -22.8315  -29.2184   19.8153 H   0  0  0  0  0  0
  -25.1409  -36.1506   25.0712 H   0  0  0  0  0  0
  -21.0110  -28.3455   24.1259 H   0  0  0  0  0  0
  -20.5715  -26.2448   23.3697 H   0  0  0  0  0  0
  -21.6696  -26.7415   22.1227 H   0  0  0  0  0  0
  -19.6943  -25.6236   21.1371 H   0  0  0  0  0  0
  -19.6742  -27.3096   20.6712 H   0  0  0  0  0  0
  -17.4262  -26.6749   21.4032 H   0  0  0  0  0  0
  -18.0343  -26.0140   22.9047 H   0  0  0  0  0  0
  -19.7997  -30.7408   24.2127 H   0  0  0  0  0  0
  -17.5052  -31.6291   24.5174 H   0  0  0  0  0  0
  -15.5395  -30.2956   23.7726 H   0  0  0  0  0  0
  -15.8768  -28.0814   22.7097 H   0  0  0  0  0  0
  -24.5755  -30.7415   25.7563 H   0  0  0  0  0  0
  -24.8880  -32.3311   26.4389 H   0  0  0  0  0  0
  -25.7676  -30.9323   27.0240 H   0  0  0  0  0  0
  -26.3196  -29.6390   24.1821 H   0  0  0  0  0  0
  -27.3899  -29.7343   25.5558 H   0  0  0  0  0  0
  -27.9228  -30.3810   24.0274 H   0  0  0  0  0  0
  -27.2550  -33.3822   26.1822 H   0  0  0  0  0  0
  -28.4039  -32.6811   25.0527 H   0  0  0  0  0  0
  -28.0494  -31.8750   26.5739 H   0  0  0  0  0  0
  -28.2505  -38.0075   24.7476 H   0  0  0  0  0  0
  -28.1112  -36.2580   24.6280 H   0  0  0  0  0  0
  -27.2260  -37.1357   25.8847 H   0  0  0  0  0  0
  -20.9705  -29.8721   21.6527 H   0  0  0  0  0  0
  -26.0039  -38.2632   24.1414 H   0  0  0  0  0  0
  -30.0466  -19.0587   20.0596 H   0  0  0  0  0  0
  -29.7455  -21.4005   20.4698 H   0  0  0  0  0  0
  -26.4895  -21.4131   17.7806 H   0  0  0  0  0  0
  -24.9357  -14.4543   18.4940 H   0  0  0  0  0  0
  -25.7721  -14.6461   17.1192 H   0  0  0  0  0  0
  -26.6273  -12.2237   17.2021 H   0  0  0  0  0  0
  -25.9854  -11.8811   18.5407 H   0  0  0  0  0  0
  -29.1301  -15.3830   20.0100 H   0  0  0  0  0  0
  -30.2090  -15.1506   18.8102 H   0  0  0  0  0  0
  -28.6225  -16.6922   17.4792 H   0  0  0  0  0  0
  -26.1678  -16.8242   18.2873 H   0  0  0  0  0  0
  -26.5806  -19.6452   16.1778 H   0  0  0  0  0  0
  -25.3968  -19.1372   17.3977 H   0  0  0  0  0  0
  -26.5337  -17.9650   16.6602 H   0  0  0  0  0  0
  -26.5586  -23.6521   19.8221 H   0  0  0  0  0  0
  -27.3164  -24.0015   18.3326 H   0  0  0  0  0  0
  -28.2725  -15.1679   22.7981 H   0  0  0  0  0  0
  -29.2246  -16.4723   23.1024 H   0  0  0  0  0  0
  -27.4193  -17.4703   22.1103 H   0  0  0  0  0  0
  -28.7305  -17.7218   21.0825 H   0  0  0  0  0  0
  -31.0337  -15.9380   22.1563 H   0  0  0  0  0  0
  -28.9203  -12.1342   18.0722 H   0  0  0  0  0  0
  -28.4041  -12.0349   19.6260 H   0  0  0  0  0  0
  -27.6030  -15.8316   20.1647 H   0  0  0  0  0  0
  -26.1019  -16.2118   20.6705 H   0  0  0  0  0  0
  1 25  1  0  0  0
  1 30  2  0  0  0
  1 86  1  0  0  0
  2  3  1  0  0  0
  2 25  1  0  0  0
  2 89  1  0  0  0
  2 90  1  0  0  0
  3  4  1  0  0  0
  3 91  1  0  0  0
  3 92  1  0  0  0
  4  5  1  0  0  0
  4 93  1  0  0  0
  4 94  1  0  0  0
  5  6  1  0  0  0
  5 26  1  0  0  0
  5 95  1  0  0  0
  6 25  1  0  0  0
  6 96  1  0  0  0
  6 97  1  0  0  0
  7  8  2  0  0  0
  7 26  1  0  0  0
  7 29  1  0  0  0
  8  9  1  0  0  0
  8 22  1  0  0  0
  9 10  1  0  0  0
  9 27  2  0  0  0
 10 11  2  0  0  0
 10 15  1  0  0  0
 11 12  1  0  0  0
 11 98  1  0  0  0
 12 13  2  0  0  0
 12 99  1  0  0  0
 13 14  1  0  0  0
 13 31  1  0  0  0
 14 15  2  0  0  0
 14100  1  0  0  0
 15101  1  0  0  0
 16 17  2  0  0  0
 16 21  1  0  0  0
 16 31  1  0  0  0
 17 18  1  0  0  0
 17102  1  0  0  0
 18 19  2  0  0  0
 18103  1  0  0  0
 19 20  1  0  0  0
 19 24  1  0  0  0
 20 21  2  0  0  0
 20104  1  0  0  0
 21 23  1  0  0  0
 22 28  1  0  0  0
 22 32  2  0  0  0
 26 27  1  0  0  0
 28105  1  0  0  0
 28106  1  0  0  0
 29107  1  0  0  0
 29108  1  0  0  0
 33 34  1  0  0  0
 33 66  1  0  0  0
 33 70  2  0  0  0
 34 36  1  0  0  0
 34 59  1  0  0  0
 34109  1  0  0  0
 35 44  2  0  0  0
 35 45  1  0  0  0
 35 68  1  0  0  0
 36 56  1  0  0  0
 36110  1  0  0  0
 37 39  1  0  0  0
 37 47  1  0  0  0
 37 66  1  0  0  0
 37111  1  0  0  0
 38 43  2  0  0  0
 38 46  1  0  0  0
 38 47  1  0  0  0
 39 64  1  0  0  0
 39 67  2  0  0  0
 40 52  1  0  0  0
 40 53  2  0  0  0
 40 58  1  0  0  0
 41112  1  0  0  0
 41113  1  0  0  0
 41114  1  0  0  0
 41 48  1  0  0  0
 42 43  1  0  0  0
 42 66  1  0  0  0
 42115  1  0  0  0
 42116  1  0  0  0
 43 44  1  0  0  0
 44117  1  0  0  0
 45 46  2  0  0  0
 45118  1  0  0  0
 46119  1  0  0  0
 47120  1  0  0  0
 47121  1  0  0  0
 48 56  1  0  0  0
 48 65  1  0  0  0
 48122  1  0  0  0
 49 50  1  0  0  0
 49 53  1  0  0  0
 49 64  1  0  0  0
 49123  1  0  0  0
 50 51  1  0  0  0
 50124  1  0  0  0
 50125  1  0  0  0
 51 52  1  0  0  0
 51126  1  0  0  0
 51127  1  0  0  0
 52128  1  0  0  0
 52129  1  0  0  0
 53 54  1  0  0  0
 54 55  2  0  0  0
 54130  1  0  0  0
 55 57  1  0  0  0
 55131  1  0  0  0
 56 69  2  0  0  0
 57 58  2  0  0  0
 57132  1  0  0  0
 58133  1  0  0  0
 59 60  1  0  0  0
 59 61  1  0  0  0
 59 62  1  0  0  0
 60134  1  0  0  0
 60135  1  0  0  0
 60136  1  0  0  0
 61137  1  0  0  0
 61138  1  0  0  0
 61139  1  0  0  0
 62140  1  0  0  0
 62141  1  0  0  0
 62142  1  0  0  0
 63 65  1  0  0  0
 63143  1  0  0  0
 63144  1  0  0  0
 63145  1  0  0  0
 64146  1  0  0  0
 65147  1  0  0  0
 68 83  1  0  0  0
 71 72  2  0  0  0
 71 74  1  0  0  0
 71148  1  0  0  0
 72 75  1  0  0  0
 72149  1  0  0  0
 73 75  2  0  0  0
 73 76  1  0  0  0
 73150  1  0  0  0
 74 76  2  0  0  0
 74 80  1  0  0  0
 75 83  1  0  0  0
 76 82  1  0  0  0
 77 78  1  0  0  0
 77 81  1  0  0  0
 77151  1  0  0  0
 77152  1  0  0  0
 78 87  1  0  0  0
 78153  1  0  0  0
 78154  1  0  0  0
 79 80  1  0  0  0
 79 87  1  0  0  0
 79155  1  0  0  0
 79156  1  0  0  0
 80 81  1  0  0  0
 80157  1  0  0  0
 81 88  1  0  0  0
 81158  1  0  0  0
 82159  1  0  0  0
 82160  1  0  0  0
 82161  1  0  0  0
 83162  1  0  0  0
 83163  1  0  0  0
 84 85  1  0  0  0
 84 86  1  0  0  0
 84164  1  0  0  0
 84165  1  0  0  0
 85 88  1  0  0  0
 85166  1  0  0  0
 85167  1  0  0  0
 86168  1  0  0  0
 87169  1  0  0  0
 87170  1  0  0  0
 88171  1  0  0  0
 88172  1  0  0  0
M  CHG  2  87   1  88   1
M  ISO  4   1 100  68 101  83 101  86 100
M  END
> <chiral flag>
0

> <version>
0

> <s_m_source_file>
/data/baiqing/PycharmProjects/Reinvent-master-3.2/result/LINK_invent/BTK/process_docking_weight1_custom_sum_contain_oxygen_bond_distance_aromatic_linkinvent_7_9_3/rearranged_h_0127.sdf

> <i_m_source_file_index>
59

> <r_mmod_Potential_Energy-OPLS-2005>
11179.4248046875

> <r_mmod_Stretch_Energy-OPLS-2005>
6195.25439453125

> <r_mmod_Bend_Energy-OPLS-2005>
1463.70886230469

> <r_mmod_Torsional_Energy-OPLS-2005>
465.254425048828

> <r_mmod_Improper_Torsional_Energy-OPLS-2005>
24.1806316375732

> <r_mmod_Van_der_Waal_Energy-OPLS-2005>
2680.2783203125

> <r_mmod_Electrostatic_Energy-OPLS-2005>
-126.298049926758

> <r_mmod_Solvation_Energy-OPLS-2005>
-900.009765625

> <b_mmod_Minimization_Converged-OPLS-2005>
0

> <r_mmod_RMS_Derivative-OPLS-2005>
19.3502559661865

$$$$
59
                    3D
 Structure written by MMmdl.
163172  0  0  1  0            999 V2000
  -30.6229  -14.6547   20.4881 C   0  0  0  0  0  0
  -30.4357  -12.3988   19.4595 C   0  0  0  0  0  0
  -29.5083  -12.5073   18.2285 C   0  0  0  0  0  0
  -28.0313  -12.3446   18.6392 C   0  0  0  0  0  0
  -27.6521  -13.2202   19.8632 C   0  0  2  0  0  0
  -28.6961  -13.0877   20.9950 C   0  0  0  0  0  0
  -25.2556  -13.8183   20.5695 C   0  0  0  0  0  0
  -24.1827  -13.0445   20.9197 C   0  0  0  0  0  0
  -24.6397  -11.6917   20.8741 C   0  0  0  0  0  0
  -23.9066  -10.4297   21.0404 C   0  0  0  0  0  0
  -24.3616   -9.4212   21.9182 C   0  0  0  0  0  0
  -23.6292   -8.2247   22.0753 C   0  0  0  0  0  0
  -22.4274   -8.0283   21.3544 C   0  0  0  0  0  0
  -21.9910   -9.0256   20.4646 C   0  0  0  0  0  0
  -22.7236  -10.2136   20.3055 C   0  0  0  0  0  0
  -21.6852   -6.0736   22.5279 C   0  0  0  0  0  0
  -21.4014   -6.5640   23.8212 C   0  0  0  0  0  0
  -21.3660   -5.6793   24.9174 C   0  0  0  0  0  0
  -21.6043   -4.3055   24.7225 C   0  0  0  0  0  0
  -21.8820   -3.8147   23.4345 C   0  0  0  0  0  0
  -21.9193   -4.6964   22.3401 C   0  0  0  0  0  0
  -22.7848  -13.5235   21.1857 C   0  0  0  0  0  0
  -22.1661   -4.2150   21.0979 F   0  0  0  0  0  0
  -21.5629   -3.4538   25.7737 F   0  0  0  0  0  0
  -30.0107  -13.4284   20.4306 N   0  0  0  0  0  0
  -26.2984  -12.9369   20.3324 N   0  0  0  0  0  0
  -25.9327  -11.6520   20.5761 N   0  0  0  0  0  0
  -22.0487  -12.8225   22.0409 N   0  0  0  0  0  0
  -25.4271  -15.1905   20.4108 N   0  0  0  0  0  0
  -31.7888  -14.7956   20.1072 O   0  0  0  0  0  0
  -21.6640   -6.8880   21.4241 O   0  0  0  0  0  0
  -22.3533  -14.5541   20.6704 O   0  0  0  0  0  0
  -24.6270  -31.8598   23.2032 C   0  0  0  0  0  0
  -25.9119  -32.4775   23.8356 C   0  0  1  0  0  0
  -27.2211  -27.3096   20.1159 C   0  0  0  0  0  0
  -25.5943  -33.8577   24.2286 N   0  0  0  0  0  0
  -23.4208  -30.4837   21.5461 C   0  0  2  0  0  0
  -24.8668  -28.9405   20.1097 C   0  0  0  0  0  0
  -22.7486  -29.4615   22.4939 C   0  0  0  0  0  0
  -18.0291  -28.1374   22.8484 C   0  0  0  0  0  0
  -24.1493  -36.7286   23.2640 C   0  0  0  0  0  0
  -25.9632  -30.7868   21.3767 C   0  0  0  0  0  0
  -26.0366  -29.4146   20.7163 C   0  0  0  0  0  0
  -27.2166  -28.6110   20.7102 C   0  0  0  0  0  0
  -26.0274  -26.8954   19.4786 C   0  0  0  0  0  0
  -24.8648  -27.6868   19.4817 C   0  0  0  0  0  0
  -23.6361  -29.8219   20.1602 C   0  0  0  0  0  0
  -25.4117  -36.3080   24.0332 C   0  0  1  0  0  0
  -20.5893  -28.3680   23.1282 C   0  0  2  0  0  0
  -20.6780  -26.9405   22.5409 C   0  0  0  0  0  0
  -19.5756  -26.6379   21.5209 C   0  0  0  0  0  0
  -18.1936  -26.7919   22.1620 C   0  0  0  0  0  0
  -19.1544  -28.8846   23.2875 C   0  0  0  0  0  0
  -18.9466  -30.1450   23.8887 C   0  0  0  0  0  0
  -17.6465  -30.6579   24.0558 C   0  0  0  0  0  0
  -25.9056  -34.9449   23.5104 C   0  0  0  0  0  0
  -16.5357  -29.9073   23.6326 C   0  0  0  0  0  0
  -16.7279  -28.6492   23.0347 C   0  0  0  0  0  0
  -26.4506  -31.6585   25.0725 C   0  0  0  0  0  0
  -25.3738  -31.3721   26.1450 C   0  0  0  0  0  0
  -27.0358  -30.3014   24.6178 C   0  0  0  0  0  0
  -27.6064  -32.4323   25.7497 C   0  0  0  0  0  0
  -27.5581  -37.1799   24.8468 C   0  0  0  0  0  0
  -21.4200  -29.3034   22.3681 N   0  0  0  0  0  0
  -26.4294  -37.3773   23.9410 N   0  0  0  0  0  0
  -24.6889  -31.0604   22.0985 N   0  0  0  0  0  0
  -23.4210  -28.8150   23.3016 O   0  0  0  0  0  0
  -28.3332  -26.4493   20.1781 O   0  0  0  0  0  0
  -26.5616  -34.8915   22.4665 O   0  0  0  0  0  0
  -23.5433  -32.1403   23.7357 O   0  0  0  0  0  0
  -30.8554  -17.7427   19.7084 C   0  0  0  0  0  0
  -29.1819  -19.5230   21.1007 C   0  0  0  0  0  0
  -30.1158  -20.0627   20.1934 C   0  0  0  0  0  0
  -30.9465  -19.1473   19.4855 C   0  0  0  0  0  0
  -29.0963  -18.1010   21.3324 C   0  0  0  0  0  0
  -29.9486  -17.1727   20.6393 C   0  0  0  0  0  0
  -28.3388  -20.5718   21.8386 C   0  0  0  0  0  0
  -30.2638  -21.6225   20.0998 C   0  0  0  0  0  0
  -27.9140  -21.7908   20.9563 C   0  0  0  0  0  0
  -31.9743  -19.6491   18.4839 C   0  0  0  0  0  0
  -28.0888  -17.5794   22.3514 C   0  0  0  0  0  0
  -29.2278  -23.9505   20.4609 C   0  0  0  0  0  0
  -28.1099  -24.9893   19.9935 C   0  0  0  0  0  0
  -29.8303  -15.7193   20.8469 N   0  0  0  0  0  0
  -29.0053  -22.4564   20.1737 N   0  3  1  0  0  0
  -31.4776  -12.5193   19.1579 H   0  0  0  0  0  0
  -30.3684  -11.4063   19.9077 H   0  0  0  0  0  0
  -29.7749  -11.7530   17.4873 H   0  0  0  0  0  0
  -29.6497  -13.4751   17.7446 H   0  0  0  0  0  0
  -27.8699  -11.2920   18.8754 H   0  0  0  0  0  0
  -27.3772  -12.5700   17.7962 H   0  0  0  0  0  0
  -27.6671  -14.2536   19.5161 H   0  0  0  0  0  0
  -28.7097  -12.0702   21.3886 H   0  0  0  0  0  0
  -28.4406  -13.7298   21.8393 H   0  0  0  0  0  0
  -25.2761   -9.5688   22.4758 H   0  0  0  0  0  0
  -24.0002   -7.4638   22.7473 H   0  0  0  0  0  0
  -21.0842   -8.8776   19.8951 H   0  0  0  0  0  0
  -22.3695  -10.9677   19.6165 H   0  0  0  0  0  0
  -21.2006   -7.6148   23.9716 H   0  0  0  0  0  0
  -21.1481   -6.0522   25.9077 H   0  0  0  0  0  0
  -22.0598   -2.7610   23.2845 H   0  0  0  0  0  0
  -22.4097  -11.9884   22.4798 H   0  0  0  0  0  0
  -21.1104  -13.1253   22.2612 H   0  0  0  0  0  0
  -24.6569  -15.8423   20.5110 H   0  0  0  0  0  0
  -26.2709  -15.6268   20.0620 H   0  0  0  0  0  0
  -26.7183  -32.5446   23.1099 H   0  0  0  0  0  0
  -25.0108  -33.9723   25.0444 H   0  0  0  0  0  0
  -22.7136  -31.3035   21.4043 H   0  0  0  0  0  0
  -23.3758  -35.9615   23.3305 H   0  0  0  0  0  0
  -24.3585  -36.8903   22.2054 H   0  0  0  0  0  0
  -23.7241  -37.6487   23.6659 H   0  0  0  0  0  0
  -26.0979  -31.5519   20.6109 H   0  0  0  0  0  0
  -26.8422  -30.8326   22.0079 H   0  0  0  0  0  0
  -28.1125  -28.9692   21.1984 H   0  0  0  0  0  0
  -25.9568  -25.9420   18.9771 H   0  0  0  0  0  0
  -23.9688  -27.3199   18.9993 H   0  0  0  0  0  0
  -23.7572  -30.6001   19.4057 H   0  0  0  0  0  0
  -22.7553  -29.2535   19.8569 H   0  0  0  0  0  0
  -25.1294  -36.1929   25.0824 H   0  0  0  0  0  0
  -20.9976  -28.3252   24.1405 H   0  0  0  0  0  0
  -20.5688  -26.2288   23.3608 H   0  0  0  0  0  0
  -21.6648  -26.7437   22.1199 H   0  0  0  0  0  0
  -19.6920  -25.6290   21.1239 H   0  0  0  0  0  0
  -19.6694  -27.3190   20.6739 H   0  0  0  0  0  0
  -17.4208  -26.6670   21.4020 H   0  0  0  0  0  0
  -18.0329  -26.0056   22.9012 H   0  0  0  0  0  0
  -19.7944  -30.7262   24.2258 H   0  0  0  0  0  0
  -17.5021  -31.6260   24.5156 H   0  0  0  0  0  0
  -15.5356  -30.2968   23.7659 H   0  0  0  0  0  0
  -15.8681  -28.0810   22.7059 H   0  0  0  0  0  0
  -24.5917  -30.7062   25.7783 H   0  0  0  0  0  0
  -24.8921  -32.2884   26.4870 H   0  0  0  0  0  0
  -25.8062  -30.8908   27.0229 H   0  0  0  0  0  0
  -26.2934  -29.6753   24.1215 H   0  0  0  0  0  0
  -27.4081  -29.7277   25.4675 H   0  0  0  0  0  0
  -27.8791  -30.4313   23.9391 H   0  0  0  0  0  0
  -27.2676  -33.3629   26.2062 H   0  0  0  0  0  0
  -28.3881  -32.6874   25.0329 H   0  0  0  0  0  0
  -28.0723  -31.8454   26.5422 H   0  0  0  0  0  0
  -28.2596  -38.0099   24.7516 H   0  0  0  0  0  0
  -28.1079  -36.2627   24.6293 H   0  0  0  0  0  0
  -27.2297  -37.1445   25.8871 H   0  0  0  0  0  0
  -20.9379  -29.8768   21.6901 H   0  0  0  0  0  0
  -26.0176  -38.2848   24.1409 H   0  0  0  0  0  0
  -31.5061  -17.0931   19.1412 H   0  0  0  0  0  0
  -28.9135  -20.9255   22.6953 H   0  0  0  0  0  0
  -27.4333  -20.1241   22.2461 H   0  0  0  0  0  0
  -30.7895  -21.9046   19.1884 H   0  0  0  0  0  0
  -30.9156  -21.9194   20.9226 H   0  0  0  0  0  0
  -27.3877  -22.5183   21.5748 H   0  0  0  0  0  0
  -27.1812  -21.4406   20.2288 H   0  0  0  0  0  0
  -32.5578  -18.8302   18.0612 H   0  0  0  0  0  0
  -32.6737  -20.3389   18.9569 H   0  0  0  0  0  0
  -31.4851  -20.1626   17.6555 H   0  0  0  0  0  0
  -28.1233  -18.1720   23.2655 H   0  0  0  0  0  0
  -28.2720  -16.5495   22.6529 H   0  0  0  0  0  0
  -27.0786  -17.6336   21.9448 H   0  0  0  0  0  0
  -29.4106  -24.0750   21.5285 H   0  0  0  0  0  0
  -30.1544  -24.2461   19.9680 H   0  0  0  0  0  0
  -27.1898  -24.7158   20.5120 H   0  0  0  0  0  0
  -27.9271  -24.8226   18.9314 H   0  0  0  0  0  0
  -28.9529  -15.4290   21.2485 H   0  0  0  0  0  0
  -28.6648  -22.4197   19.2237 H   0  0  0  0  0  0
  1 25  1  0  0  0
  1 30  2  0  0  0
  1 84  1  0  0  0
  2  3  1  0  0  0
  2 25  1  0  0  0
  2 86  1  0  0  0
  2 87  1  0  0  0
  3  4  1  0  0  0
  3 88  1  0  0  0
  3 89  1  0  0  0
  4  5  1  0  0  0
  4 90  1  0  0  0
  4 91  1  0  0  0
  5  6  1  0  0  0
  5 26  1  0  0  0
  5 92  1  0  0  0
  6 25  1  0  0  0
  6 93  1  0  0  0
  6 94  1  0  0  0
  7  8  2  0  0  0
  7 26  1  0  0  0
  7 29  1  0  0  0
  8  9  1  0  0  0
  8 22  1  0  0  0
  9 10  1  0  0  0
  9 27  2  0  0  0
 10 11  2  0  0  0
 10 15  1  0  0  0
 11 12  1  0  0  0
 11 95  1  0  0  0
 12 13  2  0  0  0
 12 96  1  0  0  0
 13 14  1  0  0  0
 13 31  1  0  0  0
 14 15  2  0  0  0
 14 97  1  0  0  0
 15 98  1  0  0  0
 16 17  2  0  0  0
 16 21  1  0  0  0
 16 31  1  0  0  0
 17 18  1  0  0  0
 17 99  1  0  0  0
 18 19  2  0  0  0
 18100  1  0  0  0
 19 20  1  0  0  0
 19 24  1  0  0  0
 20 21  2  0  0  0
 20101  1  0  0  0
 21 23  1  0  0  0
 22 28  1  0  0  0
 22 32  2  0  0  0
 26 27  1  0  0  0
 28102  1  0  0  0
 28103  1  0  0  0
 29104  1  0  0  0
 29105  1  0  0  0
 33 34  1  0  0  0
 33 66  1  0  0  0
 33 70  2  0  0  0
 34 36  1  0  0  0
 34 59  1  0  0  0
 34106  1  0  0  0
 35 44  2  0  0  0
 35 45  1  0  0  0
 35 68  1  0  0  0
 36 56  1  0  0  0
 36107  1  0  0  0
 37 39  1  0  0  0
 37 47  1  0  0  0
 37 66  1  0  0  0
 37108  1  0  0  0
 38 43  2  0  0  0
 38 46  1  0  0  0
 38 47  1  0  0  0
 39 64  1  0  0  0
 39 67  2  0  0  0
 40 52  1  0  0  0
 40 53  2  0  0  0
 40 58  1  0  0  0
 41109  1  0  0  0
 41110  1  0  0  0
 41111  1  0  0  0
 41 48  1  0  0  0
 42 43  1  0  0  0
 42 66  1  0  0  0
 42112  1  0  0  0
 42113  1  0  0  0
 43 44  1  0  0  0
 44114  1  0  0  0
 45 46  2  0  0  0
 45115  1  0  0  0
 46116  1  0  0  0
 47117  1  0  0  0
 47118  1  0  0  0
 48 56  1  0  0  0
 48 65  1  0  0  0
 48119  1  0  0  0
 49 50  1  0  0  0
 49 53  1  0  0  0
 49 64  1  0  0  0
 49120  1  0  0  0
 50 51  1  0  0  0
 50121  1  0  0  0
 50122  1  0  0  0
 51 52  1  0  0  0
 51123  1  0  0  0
 51124  1  0  0  0
 52125  1  0  0  0
 52126  1  0  0  0
 53 54  1  0  0  0
 54 55  2  0  0  0
 54127  1  0  0  0
 55 57  1  0  0  0
 55128  1  0  0  0
 56 69  2  0  0  0
 57 58  2  0  0  0
 57129  1  0  0  0
 58130  1  0  0  0
 59 60  1  0  0  0
 59 61  1  0  0  0
 59 62  1  0  0  0
 60131  1  0  0  0
 60132  1  0  0  0
 60133  1  0  0  0
 61134  1  0  0  0
 61135  1  0  0  0
 61136  1  0  0  0
 62137  1  0  0  0
 62138  1  0  0  0
 62139  1  0  0  0
 63 65  1  0  0  0
 63140  1  0  0  0
 63141  1  0  0  0
 63142  1  0  0  0
 64143  1  0  0  0
 65144  1  0  0  0
 68 83  1  0  0  0
 71 74  2  0  0  0
 71 76  1  0  0  0
 71145  1  0  0  0
 72 73  2  0  0  0
 72 75  1  0  0  0
 72 77  1  0  0  0
 73 74  1  0  0  0
 73 78  1  0  0  0
 74 80  1  0  0  0
 75 76  2  0  0  0
 75 81  1  0  0  0
 76 84  1  0  0  0
 77 79  1  0  0  0
 77146  1  0  0  0
 77147  1  0  0  0
 78 85  1  0  0  0
 78148  1  0  0  0
 78149  1  0  0  0
 79 85  1  0  0  0
 79150  1  0  0  0
 79151  1  0  0  0
 80152  1  0  0  0
 80153  1  0  0  0
 80154  1  0  0  0
 81155  1  0  0  0
 81156  1  0  0  0
 81157  1  0  0  0
 82 83  1  0  0  0
 82158  1  0  0  0
 82159  1  0  0  0
 82 85  1  0  0  0
 83160  1  0  0  0
 83161  1  0  0  0
 84162  1  0  0  0
 85163  1  0  0  0
M  CHG  1  85   1
M  ISO  4   1 100  68 101  83 101  84 100
M  END
> <chiral flag>
0

> <version>
0

> <s_m_source_file>
/data/baiqing/PycharmProjects/Reinvent-master-3.2/result/LINK_invent/BTK/process_docking_weight1_custom_sum_contain_oxygen_bond_distance_aromatic_linkinvent_7_9_3/rearranged_h_0127.sdf

> <i_m_source_file_index>
60

> <r_mmod_Potential_Energy-OPLS-2005>
-28.7754325866699

> <r_mmod_Stretch_Energy-OPLS-2005>
89.8270797729492

> <r_mmod_Bend_Energy-OPLS-2005>
143.112121582031

> <r_mmod_Torsional_Energy-OPLS-2005>
240.229858398438

> <r_mmod_Improper_Torsional_Energy-OPLS-2005>
3.98005056381226

> <r_mmod_Van_der_Waal_Energy-OPLS-2005>
155.612258911133

> <r_mmod_Electrostatic_Energy-OPLS-2005>
-278.008087158203

> <r_mmod_Solvation_Energy-OPLS-2005>
-437.193450927734

> <b_mmod_Minimization_Converged-OPLS-2005>
0

> <r_mmod_RMS_Derivative-OPLS-2005>
0.498795181512833

$$$$
60
                    3D
 Structure written by MMmdl.
170178  0  0  1  0            999 V2000
  -30.7327  -14.3388   20.7223 C   0  0  0  0  0  0
  -30.4389  -12.2914   19.3672 C   0  0  0  0  0  0
  -29.4808  -12.5322   18.1824 C   0  0  0  0  0  0
  -28.0069  -12.3825   18.6043 C   0  0  0  0  0  0
  -27.6742  -13.1842   19.8873 C   0  0  2  0  0  0
  -28.7136  -12.8599   20.9864 C   0  0  0  0  0  0
  -25.2645  -13.8118   20.5667 C   0  0  0  0  0  0
  -24.1872  -13.0430   20.9172 C   0  0  0  0  0  0
  -24.6377  -11.6887   20.8716 C   0  0  0  0  0  0
  -23.9029  -10.4285   21.0395 C   0  0  0  0  0  0
  -24.3598   -9.4201   21.9146 C   0  0  0  0  0  0
  -23.6284   -8.2236   22.0721 C   0  0  0  0  0  0
  -22.4261   -8.0274   21.3530 C   0  0  0  0  0  0
  -21.9874   -9.0252   20.4648 C   0  0  0  0  0  0
  -22.7200  -10.2131   20.3047 C   0  0  0  0  0  0
  -21.6839   -6.0757   22.5282 C   0  0  0  0  0  0
  -21.4001   -6.5651   23.8220 C   0  0  0  0  0  0
  -21.3657   -5.6791   24.9174 C   0  0  0  0  0  0
  -21.6032   -4.3051   24.7212 C   0  0  0  0  0  0
  -21.8813   -3.8165   23.4321 C   0  0  0  0  0  0
  -21.9186   -4.6991   22.3393 C   0  0  0  0  0  0
  -22.7890  -13.5253   21.1822 C   0  0  0  0  0  0
  -22.1656   -4.2194   21.0961 F   0  0  0  0  0  0
  -21.5643   -3.4512   25.7709 F   0  0  0  0  0  0
  -30.0634  -13.1851   20.4705 N   0  0  0  0  0  0
  -26.3066  -12.9247   20.3386 N   0  0  0  0  0  0
  -25.9291  -11.6431   20.5753 N   0  0  0  0  0  0
  -22.0517  -12.8211   22.0341 N   0  0  0  0  0  0
  -25.4342  -15.1838   20.4024 N   0  0  0  0  0  0
  -31.6881  -14.7535   20.0571 O   0  0  0  0  0  0
  -21.6625   -6.8886   21.4234 O   0  0  0  0  0  0
  -22.3602  -14.5578   20.6699 O   0  0  0  0  0  0
  -24.6084  -31.8708   23.2135 C   0  0  0  0  0  0
  -25.9024  -32.4822   23.8400 C   0  0  1  0  0  0
  -27.2377  -27.4792   20.0844 C   0  0  0  0  0  0
  -25.5912  -33.8621   24.2336 N   0  0  0  0  0  0
  -23.3922  -30.4938   21.5504 C   0  0  2  0  0  0
  -24.8427  -28.9589   20.1173 C   0  0  0  0  0  0
  -22.7369  -29.4701   22.5013 C   0  0  0  0  0  0
  -18.0284  -28.1341   22.8494 C   0  0  0  0  0  0
  -24.1483  -36.7323   23.2625 C   0  0  0  0  0  0
  -25.9142  -30.8459   21.3624 C   0  0  0  0  0  0
  -25.9947  -29.4764   20.7239 C   0  0  0  0  0  0
  -27.1936  -28.7361   20.7209 C   0  0  0  0  0  0
  -26.0839  -26.9749   19.4538 C   0  0  0  0  0  0
  -24.8797  -27.7028   19.4845 C   0  0  0  0  0  0
  -23.5987  -29.8156   20.1677 C   0  0  0  0  0  0
  -25.4103  -36.3108   24.0322 C   0  0  1  0  0  0
  -20.5862  -28.3680   23.1351 C   0  0  2  0  0  0
  -20.6799  -26.9422   22.5463 C   0  0  0  0  0  0
  -19.5820  -26.6419   21.5206 C   0  0  0  0  0  0
  -18.1982  -26.7886   22.1606 C   0  0  0  0  0  0
  -19.1511  -28.8835   23.2895 C   0  0  0  0  0  0
  -18.9421  -30.1463   23.8848 C   0  0  0  0  0  0
  -17.6418  -30.6594   24.0474 C   0  0  0  0  0  0
  -25.9033  -34.9469   23.5122 C   0  0  0  0  0  0
  -16.5330  -29.9049   23.6282 C   0  0  0  0  0  0
  -16.7258  -28.6445   23.0340 C   0  0  0  0  0  0
  -26.4472  -31.6582   25.0708 C   0  0  0  0  0  0
  -25.3759  -31.3717   26.1483 C   0  0  0  0  0  0
  -27.0283  -30.3023   24.6038 C   0  0  0  0  0  0
  -27.6041  -32.4304   25.7474 C   0  0  0  0  0  0
  -27.5569  -37.1817   24.8457 C   0  0  0  0  0  0
  -21.4108  -29.3041   22.3741 N   0  0  0  0  0  0
  -26.4283  -37.3793   23.9402 N   0  0  0  0  0  0
  -24.6558  -31.0853   22.1013 N   0  0  0  0  0  0
  -23.4174  -28.8257   23.3048 O   0  0  0  0  0  0
  -28.3973  -26.7552   20.0167 O   0  0  0  0  0  0
  -26.5574  -34.8920   22.4671 O   0  0  0  0  0  0
  -23.5310  -32.1434   23.7584 O   0  0  0  0  0  0
  -25.6934  -22.7370   21.6423 C   0  0  0  0  0  0
  -26.6844  -22.6150   23.9994 C   0  0  0  0  0  0
  -25.9822  -24.2285   21.9047 C   0  0  0  0  0  0
  -27.8340  -23.4437   23.4010 C   0  0  0  0  0  0
  -25.8957  -21.8615   22.9004 C   0  0  2  0  0  0
  -30.1348  -16.4268   21.9980 C   0  0  0  0  0  0
  -26.5191  -19.6138   23.5616 C   0  0  0  0  0  0
  -28.3577  -24.7085   21.3119 C   0  0  0  0  0  0
  -28.6493  -16.6951   22.3282 C   0  0  0  0  0  0
  -26.8788  -18.2187   23.0354 C   0  0  0  0  0  0
  -28.8209  -26.1788   21.2474 C   0  0  0  0  0  0
  -30.2530  -14.9871   21.7862 N   0  0  0  0  0  0
  -26.5378  -20.6079   22.4908 N   0  0  0  0  0  0
  -27.3705  -24.4556   22.4009 N   0  3  1  0  0  0
  -28.2968  -18.0991   22.6305 N   0  3  0  0  0  0
  -31.4730  -12.4437   19.0505 H   0  0  0  0  0  0
  -30.3790  -11.2537   19.6999 H   0  0  0  0  0  0
  -29.7063  -11.8404   17.3690 H   0  0  0  0  0  0
  -29.6388  -13.5341   17.7818 H   0  0  0  0  0  0
  -27.8123  -11.3217   18.7683 H   0  0  0  0  0  0
  -27.3504  -12.6912   17.7903 H   0  0  0  0  0  0
  -27.7524  -14.2452   19.6488 H   0  0  0  0  0  0
  -28.6750  -11.7954   21.2277 H   0  0  0  0  0  0
  -28.4478  -13.3598   21.9181 H   0  0  0  0  0  0
  -25.2753   -9.5685   22.4710 H   0  0  0  0  0  0
  -24.0032   -7.4612   22.7398 H   0  0  0  0  0  0
  -21.0804   -8.8745   19.8960 H   0  0  0  0  0  0
  -22.3629  -10.9662   19.6163 H   0  0  0  0  0  0
  -21.1996   -7.6160   23.9734 H   0  0  0  0  0  0
  -21.1479   -6.0519   25.9083 H   0  0  0  0  0  0
  -22.0600   -2.7629   23.2797 H   0  0  0  0  0  0
  -22.4111  -11.9831   22.4647 H   0  0  0  0  0  0
  -21.1117  -13.1193   22.2522 H   0  0  0  0  0  0
  -24.6245  -15.7950   20.4463 H   0  0  0  0  0  0
  -26.2020  -15.5839   19.8792 H   0  0  0  0  0  0
  -26.7103  -32.5568   23.1177 H   0  0  0  0  0  0
  -25.0123  -33.9769   25.0522 H   0  0  0  0  0  0
  -22.6787  -31.3081   21.4100 H   0  0  0  0  0  0
  -23.3725  -35.9679   23.3300 H   0  0  0  0  0  0
  -24.3570  -36.8922   22.2036 H   0  0  0  0  0  0
  -23.7262  -37.6540   23.6634 H   0  0  0  0  0  0
  -26.0084  -31.6036   20.5834 H   0  0  0  0  0  0
  -26.8104  -30.9151   21.9671 H   0  0  0  0  0  0
  -28.0862  -29.1371   21.1819 H   0  0  0  0  0  0
  -26.1206  -26.0265   18.9354 H   0  0  0  0  0  0
  -23.9989  -27.3079   18.9973 H   0  0  0  0  0  0
  -23.6902  -30.5788   19.3956 H   0  0  0  0  0  0
  -22.7291  -29.2181   19.8847 H   0  0  0  0  0  0
  -25.1279  -36.1955   25.0811 H   0  0  0  0  0  0
  -20.9954  -28.3263   24.1470 H   0  0  0  0  0  0
  -20.5650  -26.2310   23.3650 H   0  0  0  0  0  0
  -21.6696  -26.7490   22.1307 H   0  0  0  0  0  0
  -19.7038  -25.6366   21.1143 H   0  0  0  0  0  0
  -19.6732  -27.3288   20.6787 H   0  0  0  0  0  0
  -17.4267  -26.6605   21.3989 H   0  0  0  0  0  0
  -18.0460  -25.9978   22.8971 H   0  0  0  0  0  0
  -19.7889  -30.7302   24.2159 H   0  0  0  0  0  0
  -17.4956  -31.6303   24.4995 H   0  0  0  0  0  0
  -15.5327  -30.2950   23.7562 H   0  0  0  0  0  0
  -15.8653  -28.0747   22.7091 H   0  0  0  0  0  0
  -24.5906  -30.7067   25.7872 H   0  0  0  0  0  0
  -24.8985  -32.2891   26.4937 H   0  0  0  0  0  0
  -25.8132  -30.8911   27.0238 H   0  0  0  0  0  0
  -26.2812  -29.6834   24.1053 H   0  0  0  0  0  0
  -27.4020  -29.7209   25.4477 H   0  0  0  0  0  0
  -27.8664  -30.4347   23.9191 H   0  0  0  0  0  0
  -27.2627  -33.3583   26.2082 H   0  0  0  0  0  0
  -28.3838  -32.6900   25.0298 H   0  0  0  0  0  0
  -28.0714  -31.8414   26.5373 H   0  0  0  0  0  0
  -28.2602  -38.0104   24.7493 H   0  0  0  0  0  0
  -28.1050  -36.2631   24.6294 H   0  0  0  0  0  0
  -27.2284  -37.1482   25.8861 H   0  0  0  0  0  0
  -20.9284  -29.8690   21.6884 H   0  0  0  0  0  0
  -26.0167  -38.2867   24.1412 H   0  0  0  0  0  0
  -26.3252  -22.4064   20.8158 H   0  0  0  0  0  0
  -24.6685  -22.6229   21.2821 H   0  0  0  0  0  0
  -26.0060  -23.2885   24.5242 H   0  0  0  0  0  0
  -27.0560  -21.9533   24.7794 H   0  0  0  0  0  0
  -25.2810  -24.6105   22.6475 H   0  0  0  0  0  0
  -25.7836  -24.8075   21.0047 H   0  0  0  0  0  0
  -28.5311  -22.7385   22.9460 H   0  0  0  0  0  0
  -28.3825  -23.9534   24.1938 H   0  0  0  0  0  0
  -24.9094  -21.6273   23.3054 H   0  0  0  0  0  0
  -30.7774  -16.7221   22.8290 H   0  0  0  0  0  0
  -30.4559  -16.9877   21.1176 H   0  0  0  0  0  0
  -27.1928  -19.8806   24.3764 H   0  0  0  0  0  0
  -25.5145  -19.5604   23.9868 H   0  0  0  0  0  0
  -29.2490  -24.0984   21.4471 H   0  0  0  0  0  0
  -27.9629  -24.3886   20.3454 H   0  0  0  0  0  0
  -28.3721  -16.0889   23.1929 H   0  0  0  0  0  0
  -28.0213  -16.3504   21.5053 H   0  0  0  0  0  0
  -26.2203  -17.9287   22.2142 H   0  0  0  0  0  0
  -26.6932  -17.5127   23.8452 H   0  0  0  0  0  0
  -29.9101  -26.2175   21.2638 H   0  0  0  0  0  0
  -28.4907  -26.7513   22.1161 H   0  0  0  0  0  0
  -29.6179  -14.4227   22.3309 H   0  0  0  0  0  0
  -25.9845  -20.2379   21.7194 H   0  0  0  0  0  0
  -27.3169  -25.3223   22.9167 H   0  0  0  0  0  0
  -28.4497  -18.6932   21.8306 H   0  0  0  0  0  0
  -28.8752  -18.4423   23.3792 H   0  0  0  0  0  0
  1 25  1  0  0  0
  1 30  2  0  0  0
  1 82  1  0  0  0
  2  3  1  0  0  0
  2 25  1  0  0  0
  2 86  1  0  0  0
  2 87  1  0  0  0
  3  4  1  0  0  0
  3 88  1  0  0  0
  3 89  1  0  0  0
  4  5  1  0  0  0
  4 90  1  0  0  0
  4 91  1  0  0  0
  5  6  1  0  0  0
  5 26  1  0  0  0
  5 92  1  0  0  0
  6 25  1  0  0  0
  6 93  1  0  0  0
  6 94  1  0  0  0
  7  8  2  0  0  0
  7 26  1  0  0  0
  7 29  1  0  0  0
  8  9  1  0  0  0
  8 22  1  0  0  0
  9 10  1  0  0  0
  9 27  2  0  0  0
 10 11  2  0  0  0
 10 15  1  0  0  0
 11 12  1  0  0  0
 11 95  1  0  0  0
 12 13  2  0  0  0
 12 96  1  0  0  0
 13 14  1  0  0  0
 13 31  1  0  0  0
 14 15  2  0  0  0
 14 97  1  0  0  0
 15 98  1  0  0  0
 16 17  2  0  0  0
 16 21  1  0  0  0
 16 31  1  0  0  0
 17 18  1  0  0  0
 17 99  1  0  0  0
 18 19  2  0  0  0
 18100  1  0  0  0
 19 20  1  0  0  0
 19 24  1  0  0  0
 20 21  2  0  0  0
 20101  1  0  0  0
 21 23  1  0  0  0
 22 28  1  0  0  0
 22 32  2  0  0  0
 26 27  1  0  0  0
 28102  1  0  0  0
 28103  1  0  0  0
 29104  1  0  0  0
 29105  1  0  0  0
 33 34  1  0  0  0
 33 66  1  0  0  0
 33 70  2  0  0  0
 34 36  1  0  0  0
 34 59  1  0  0  0
 34106  1  0  0  0
 35 44  2  0  0  0
 35 45  1  0  0  0
 35 68  1  0  0  0
 36 56  1  0  0  0
 36107  1  0  0  0
 37 39  1  0  0  0
 37 47  1  0  0  0
 37 66  1  0  0  0
 37108  1  0  0  0
 38 43  2  0  0  0
 38 46  1  0  0  0
 38 47  1  0  0  0
 39 64  1  0  0  0
 39 67  2  0  0  0
 40 52  1  0  0  0
 40 53  2  0  0  0
 40 58  1  0  0  0
 41109  1  0  0  0
 41110  1  0  0  0
 41111  1  0  0  0
 41 48  1  0  0  0
 42 43  1  0  0  0
 42 66  1  0  0  0
 42112  1  0  0  0
 42113  1  0  0  0
 43 44  1  0  0  0
 44114  1  0  0  0
 45 46  2  0  0  0
 45115  1  0  0  0
 46116  1  0  0  0
 47117  1  0  0  0
 47118  1  0  0  0
 48 56  1  0  0  0
 48 65  1  0  0  0
 48119  1  0  0  0
 49 50  1  0  0  0
 49 53  1  0  0  0
 49 64  1  0  0  0
 49120  1  0  0  0
 50 51  1  0  0  0
 50121  1  0  0  0
 50122  1  0  0  0
 51 52  1  0  0  0
 51123  1  0  0  0
 51124  1  0  0  0
 52125  1  0  0  0
 52126  1  0  0  0
 53 54  1  0  0  0
 54 55  2  0  0  0
 54127  1  0  0  0
 55 57  1  0  0  0
 55128  1  0  0  0
 56 69  2  0  0  0
 57 58  2  0  0  0
 57129  1  0  0  0
 58130  1  0  0  0
 59 60  1  0  0  0
 59 61  1  0  0  0
 59 62  1  0  0  0
 60131  1  0  0  0
 60132  1  0  0  0
 60133  1  0  0  0
 61134  1  0  0  0
 61135  1  0  0  0
 61136  1  0  0  0
 62137  1  0  0  0
 62138  1  0  0  0
 62139  1  0  0  0
 63 65  1  0  0  0
 63140  1  0  0  0
 63141  1  0  0  0
 63142  1  0  0  0
 64143  1  0  0  0
 65144  1  0  0  0
 68 81  1  0  0  0
 71 73  1  0  0  0
 71 75  1  0  0  0
 71145  1  0  0  0
 71146  1  0  0  0
 72 74  1  0  0  0
 72 75  1  0  0  0
 72147  1  0  0  0
 72148  1  0  0  0
 73 84  1  0  0  0
 73149  1  0  0  0
 73150  1  0  0  0
 74 84  1  0  0  0
 74151  1  0  0  0
 74152  1  0  0  0
 75 83  1  0  0  0
 75153  1  0  0  0
 76 79  1  0  0  0
 76 82  1  0  0  0
 76154  1  0  0  0
 76155  1  0  0  0
 77 80  1  0  0  0
 77 83  1  0  0  0
 77156  1  0  0  0
 77157  1  0  0  0
 78 81  1  0  0  0
 78158  1  0  0  0
 78159  1  0  0  0
 78 84  1  0  0  0
 79 85  1  0  0  0
 79160  1  0  0  0
 79161  1  0  0  0
 80 85  1  0  0  0
 80162  1  0  0  0
 80163  1  0  0  0
 81164  1  0  0  0
 81165  1  0  0  0
 82166  1  0  0  0
 83167  1  0  0  0
 84168  1  0  0  0
 85169  1  0  0  0
 85170  1  0  0  0
M  CHG  2  84   1  85   1
M  ISO  4   1 100  68 101  81 101  82 100
M  END
> <chiral flag>
0

> <version>
0

> <s_m_source_file>
/data/baiqing/PycharmProjects/Reinvent-master-3.2/result/LINK_invent/BTK/process_docking_weight1_custom_sum_contain_oxygen_bond_distance_aromatic_linkinvent_7_9_3/rearranged_h_0127.sdf

> <i_m_source_file_index>
61

> <r_mmod_Potential_Energy-OPLS-2005>
-301.254058837891

> <r_mmod_Stretch_Energy-OPLS-2005>
33.8261260986328

> <r_mmod_Bend_Energy-OPLS-2005>
101.182945251465

> <r_mmod_Torsional_Energy-OPLS-2005>
300.764434814453

> <r_mmod_Improper_Torsional_Energy-OPLS-2005>
4.893310546875

> <r_mmod_Van_der_Waal_Energy-OPLS-2005>
143.356903076172

> <r_mmod_Electrostatic_Energy-OPLS-2005>
-14.3702707290649

> <r_mmod_Solvation_Energy-OPLS-2005>
-880.302795410156

> <b_mmod_Minimization_Converged-OPLS-2005>
0

> <r_mmod_RMS_Derivative-OPLS-2005>
3.15140175819397

$$$$
61
                    3D
 Structure written by MMmdl.
172181  0  0  1  0            999 V2000
  -30.4270  -15.2713   20.3814 C   0  0  0  0  0  0
  -30.4406  -12.8204   19.5127 C   0  0  0  0  0  0
  -29.5314  -12.5782   18.2821 C   0  0  0  0  0  0
  -28.0846  -12.2932   18.7207 C   0  0  0  0  0  0
  -27.6110  -13.2709   19.8239 C   0  0  2  0  0  0
  -28.6477  -13.4499   20.9516 C   0  0  0  0  0  0
  -25.2386  -13.8233   20.5754 C   0  0  0  0  0  0
  -24.1739  -13.0430   20.9263 C   0  0  0  0  0  0
  -24.6398  -11.6927   20.8778 C   0  0  0  0  0  0
  -23.9095  -10.4291   21.0425 C   0  0  0  0  0  0
  -24.3642   -9.4202   21.9194 C   0  0  0  0  0  0
  -23.6310   -8.2236   22.0751 C   0  0  0  0  0  0
  -22.4286   -8.0278   21.3549 C   0  0  0  0  0  0
  -21.9943   -9.0259   20.4651 C   0  0  0  0  0  0
  -22.7274  -10.2140   20.3062 C   0  0  0  0  0  0
  -21.6854   -6.0742   22.5282 C   0  0  0  0  0  0
  -21.4018   -6.5648   23.8218 C   0  0  0  0  0  0
  -21.3654   -5.6803   24.9178 C   0  0  0  0  0  0
  -21.6041   -4.3066   24.7233 C   0  0  0  0  0  0
  -21.8810   -3.8158   23.4351 C   0  0  0  0  0  0
  -21.9196   -4.6976   22.3415 C   0  0  0  0  0  0
  -22.7766  -13.5179   21.1929 C   0  0  0  0  0  0
  -22.1662   -4.2161   21.0993 F   0  0  0  0  0  0
  -21.5627   -3.4549   25.7740 F   0  0  0  0  0  0
  -29.8701  -13.9643   20.3111 N   0  0  0  0  0  0
  -26.2820  -12.9500   20.3258 N   0  0  0  0  0  0
  -25.9328  -11.6614   20.5747 N   0  0  0  0  0  0
  -22.0447  -12.8138   22.0489 N   0  0  0  0  0  0
  -25.4004  -15.1958   20.4160 N   0  0  0  0  0  0
  -31.6586  -15.2766   20.2396 O   0  0  0  0  0  0
  -21.6643   -6.8884   21.4238 O   0  0  0  0  0  0
  -22.3446  -14.5499   20.6796 O   0  0  0  0  0  0
  -24.6639  -31.8233   23.1684 C   0  0  0  0  0  0
  -25.9332  -32.4583   23.8150 C   0  0  1  0  0  0
  -27.2193  -26.9203   20.1915 C   0  0  0  0  0  0
  -25.6017  -33.8389   24.2062 N   0  0  0  0  0  0
  -23.4785  -30.4353   21.5164 C   0  0  2  0  0  0
  -24.9289  -28.8167   20.1166 C   0  0  0  0  0  0
  -22.7662  -29.4440   22.4750 C   0  0  0  0  0  0
  -18.0324  -28.1421   22.8482 C   0  0  0  0  0  0
  -24.1456  -36.7147   23.2656 C   0  0  0  0  0  0
  -26.0487  -30.6283   21.3981 C   0  0  0  0  0  0
  -26.1155  -29.2150   20.7454 C   0  0  0  0  0  0
  -27.2562  -28.2928   20.7511 C   0  0  0  0  0  0
  -26.0000  -26.6716   19.5214 C   0  0  0  0  0  0
  -24.8968  -27.5637   19.4831 C   0  0  0  0  0  0
  -23.7202  -29.7520   20.1428 C   0  0  0  0  0  0
  -25.4109  -36.2936   24.0299 C   0  0  1  0  0  0
  -20.5955  -28.3747   23.1177 C   0  0  2  0  0  0
  -20.6803  -26.9429   22.5402 C   0  0  0  0  0  0
  -19.5764  -26.6391   21.5216 C   0  0  0  0  0  0
  -18.1946  -26.7955   22.1628 C   0  0  0  0  0  0
  -19.1592  -28.8905   23.2828 C   0  0  0  0  0  0
  -18.9518  -30.1500   23.8854 C   0  0  0  0  0  0
  -17.6514  -30.6616   24.0569 C   0  0  0  0  0  0
  -25.9106  -34.9337   23.4994 C   0  0  0  0  0  0
  -16.5392  -29.9112   23.6375 C   0  0  0  0  0  0
  -16.7312  -28.6530   23.0399 C   0  0  0  0  0  0
  -26.4591  -31.6539   25.0673 C   0  0  0  0  0  0
  -25.3735  -31.3821   26.1344 C   0  0  0  0  0  0
  -27.0500  -30.2903   24.6423 C   0  0  0  0  0  0
  -27.6046  -32.4387   25.7485 C   0  0  0  0  0  0
  -27.5529  -37.1732   24.8483 C   0  0  0  0  0  0
  -21.4333  -29.3036   22.3513 N   0  0  0  0  0  0
  -26.4225  -37.3695   23.9440 N   0  0  0  0  0  0
  -24.7518  -30.9911   22.0800 N   0  0  0  0  0  0
  -23.4213  -28.8024   23.3001 O   0  0  0  0  0  0
  -28.2446  -25.8330   20.1910 O   0  0  0  0  0  0
  -26.5687  -34.8885   22.4575 O   0  0  0  0  0  0
  -23.5724  -32.1193   23.6791 O   0  0  0  0  0  0
  -26.6275  -22.6973   16.6133 C   0  0  0  0  0  0
  -30.4645  -24.1084   14.9593 C   0  0  0  0  0  0
  -29.8329  -25.4772   15.2636 C   0  0  0  0  0  0
  -29.6836  -23.0744   15.7835 C   0  0  0  0  0  0
  -28.5832  -25.1865   16.0990 C   0  0  0  0  0  0
  -27.9408  -19.6115   19.1956 C   0  0  0  0  0  0
  -28.9234  -23.8888   16.8469 C   0  0  0  0  0  0
  -29.2300  -19.7342   20.0551 C   0  0  2  0  0  0
  -28.7979  -22.6396   19.9489 C   0  0  1  0  0  0
  -28.2553  -22.0844   18.5775 C   0  0  2  0  0  0
  -29.8085  -18.1645   20.7574 C   0  0  0  0  0  0
  -28.0572  -24.2152   20.4966 C   0  0  0  0  0  0
  -27.7355  -23.1827   17.5747 C   0  0  2  0  0  0
  -29.0767  -21.2215   20.7149 N   0  0  0  0  0  0
  -25.6028  -23.5088   16.3745 N   0  0  0  0  0  0
  -29.6403  -16.5325   20.4127 N   0  0  0  0  0  0
  -27.3228  -20.9251   18.7996 N   0  3  0  0  0  0
  -26.6562  -21.5634   16.1402 O   0  0  0  0  0  0
  -31.4564  -13.0382   19.1787 H   0  0  0  0  0  0
  -30.5183  -11.9187   20.1226 H   0  0  0  0  0  0
  -29.9145  -11.7522   17.6809 H   0  0  0  0  0  0
  -29.5489  -13.4606   17.6397 H   0  0  0  0  0  0
  -28.0526  -11.2723   19.1021 H   0  0  0  0  0  0
  -27.4096  -12.3226   17.8657 H   0  0  0  0  0  0
  -27.5244  -14.2363   19.3240 H   0  0  0  0  0  0
  -28.8249  -12.5181   21.4901 H   0  0  0  0  0  0
  -28.2864  -14.1698   21.6889 H   0  0  0  0  0  0
  -25.2781   -9.5678   22.4784 H   0  0  0  0  0  0
  -24.0025   -7.4617   22.7457 H   0  0  0  0  0  0
  -21.0879   -8.8782   19.8944 H   0  0  0  0  0  0
  -22.3729  -10.9685   19.6179 H   0  0  0  0  0  0
  -21.2003   -7.6155   23.9720 H   0  0  0  0  0  0
  -21.1481   -6.0540   25.9090 H   0  0  0  0  0  0
  -22.0589   -2.7617   23.2849 H   0  0  0  0  0  0
  -22.4104  -11.9779   22.4814 H   0  0  0  0  0  0
  -21.1072  -13.1130   22.2760 H   0  0  0  0  0  0
  -24.6210  -15.8381   20.5068 H   0  0  0  0  0  0
  -26.2383  -15.6393   20.0655 H   0  0  0  0  0  0
  -26.7390  -32.5093   23.0855 H   0  0  0  0  0  0
  -25.0193  -33.9479   25.0238 H   0  0  0  0  0  0
  -22.7938  -31.2691   21.3470 H   0  0  0  0  0  0
  -23.3737  -35.9456   23.3298 H   0  0  0  0  0  0
  -24.3547  -36.8829   22.2081 H   0  0  0  0  0  0
  -23.7184  -37.6318   23.6719 H   0  0  0  0  0  0
  -26.2406  -31.3703   20.6220 H   0  0  0  0  0  0
  -26.9036  -30.6784   22.0596 H   0  0  0  0  0  0
  -28.1614  -28.6099   21.2480 H   0  0  0  0  0  0
  -25.8795  -25.7188   19.0293 H   0  0  0  0  0  0
  -23.9949  -27.2546   18.9694 H   0  0  0  0  0  0
  -23.8886  -30.5227   19.3897 H   0  0  0  0  0  0
  -22.8280  -29.2192   19.8140 H   0  0  0  0  0  0
  -25.1316  -36.1693   25.0783 H   0  0  0  0  0  0
  -21.0073  -28.3356   24.1288 H   0  0  0  0  0  0
  -20.5663  -26.2382   23.3659 H   0  0  0  0  0  0
  -21.6669  -26.7406   22.1211 H   0  0  0  0  0  0
  -19.6912  -25.6289   21.1294 H   0  0  0  0  0  0
  -19.6704  -27.3169   20.6714 H   0  0  0  0  0  0
  -17.4227  -26.6733   21.4012 H   0  0  0  0  0  0
  -18.0314  -26.0105   22.9033 H   0  0  0  0  0  0
  -19.8003  -30.7335   24.2181 H   0  0  0  0  0  0
  -17.5083  -31.6291   24.5192 H   0  0  0  0  0  0
  -15.5396  -30.3023   23.7702 H   0  0  0  0  0  0
  -15.8716  -28.0834   22.7138 H   0  0  0  0  0  0
  -24.5904  -30.7170   25.7679 H   0  0  0  0  0  0
  -24.8942  -32.3043   26.4619 H   0  0  0  0  0  0
  -25.7997  -30.9109   27.0204 H   0  0  0  0  0  0
  -26.3173  -29.6569   24.1393 H   0  0  0  0  0  0
  -27.4003  -29.7276   25.5084 H   0  0  0  0  0  0
  -27.9136  -30.4095   23.9872 H   0  0  0  0  0  0
  -27.2568  -33.3747   26.1856 H   0  0  0  0  0  0
  -28.3956  -32.6861   25.0395 H   0  0  0  0  0  0
  -28.0575  -31.8657   26.5590 H   0  0  0  0  0  0
  -28.2546  -38.0023   24.7531 H   0  0  0  0  0  0
  -28.1024  -36.2563   24.6299 H   0  0  0  0  0  0
  -27.2279  -37.1379   25.8897 H   0  0  0  0  0  0
  -20.9554  -29.8758   21.6688 H   0  0  0  0  0  0
  -26.0049  -38.2723   24.1524 H   0  0  0  0  0  0
  -31.5193  -24.1074   15.2385 H   0  0  0  0  0  0
  -30.4139  -23.8708   13.8960 H   0  0  0  0  0  0
  -29.5941  -26.0372   14.3591 H   0  0  0  0  0  0
  -30.5327  -26.0808   15.8446 H   0  0  0  0  0  0
  -30.3421  -22.3223   16.2181 H   0  0  0  0  0  0
  -28.9931  -22.5493   15.1218 H   0  0  0  0  0  0
  -27.7348  -25.0438   15.4296 H   0  0  0  0  0  0
  -28.3341  -26.0078   16.7739 H   0  0  0  0  0  0
  -27.1912  -19.0303   19.7325 H   0  0  0  0  0  0
  -28.1724  -19.0423   18.2946 H   0  0  0  0  0  0
  -29.6518  -24.1677   17.6100 H   0  0  0  0  0  0
  -30.0204  -19.9196   19.3250 H   0  0  0  0  0  0
  -29.8173  -22.9631   19.7326 H   0  0  0  0  0  0
  -29.1039  -21.6303   18.0674 H   0  0  0  0  0  0
  -29.4304  -18.1991   21.7784 H   0  0  0  0  0  0
  -30.8832  -18.2922   20.8882 H   0  0  0  0  0  0
  -28.2086  -24.1923   21.5755 H   0  0  0  0  0  0
  -26.9811  -24.0631   20.4129 H   0  0  0  0  0  0
  -27.2415  -23.9556   18.1559 H   0  0  0  0  0  0
  -29.8121  -21.3651   21.4030 H   0  0  0  0  0  0
  -25.5734  -24.4417   16.7644 H   0  0  0  0  0  0
  -24.8458  -23.2111   15.7738 H   0  0  0  0  0  0
  -28.6610  -16.2879   20.3765 H   0  0  0  0  0  0
  -26.6938  -21.1825   19.5417 H   0  0  0  0  0  0
  -26.7970  -20.7783   17.9496 H   0  0  0  0  0  0
  1 25  1  0  0  0
  1 30  2  0  0  0
  1 86  1  0  0  0
  2  3  1  0  0  0
  2 25  1  0  0  0
  2 89  1  0  0  0
  2 90  1  0  0  0
  3  4  1  0  0  0
  3 91  1  0  0  0
  3 92  1  0  0  0
  4  5  1  0  0  0
  4 93  1  0  0  0
  4 94  1  0  0  0
  5  6  1  0  0  0
  5 26  1  0  0  0
  5 95  1  0  0  0
  6 25  1  0  0  0
  6 96  1  0  0  0
  6 97  1  0  0  0
  7  8  2  0  0  0
  7 26  1  0  0  0
  7 29  1  0  0  0
  8  9  1  0  0  0
  8 22  1  0  0  0
  9 10  1  0  0  0
  9 27  2  0  0  0
 10 11  2  0  0  0
 10 15  1  0  0  0
 11 12  1  0  0  0
 11 98  1  0  0  0
 12 13  2  0  0  0
 12 99  1  0  0  0
 13 14  1  0  0  0
 13 31  1  0  0  0
 14 15  2  0  0  0
 14100  1  0  0  0
 15101  1  0  0  0
 16 17  2  0  0  0
 16 21  1  0  0  0
 16 31  1  0  0  0
 17 18  1  0  0  0
 17102  1  0  0  0
 18 19  2  0  0  0
 18103  1  0  0  0
 19 20  1  0  0  0
 19 24  1  0  0  0
 20 21  2  0  0  0
 20104  1  0  0  0
 21 23  1  0  0  0
 22 28  1  0  0  0
 22 32  2  0  0  0
 26 27  1  0  0  0
 28105  1  0  0  0
 28106  1  0  0  0
 29107  1  0  0  0
 29108  1  0  0  0
 33 34  1  0  0  0
 33 66  1  0  0  0
 33 70  2  0  0  0
 34 36  1  0  0  0
 34 59  1  0  0  0
 34109  1  0  0  0
 35 44  2  0  0  0
 35 45  1  0  0  0
 35 68  1  0  0  0
 36 56  1  0  0  0
 36110  1  0  0  0
 37 39  1  0  0  0
 37 47  1  0  0  0
 37 66  1  0  0  0
 37111  1  0  0  0
 38 43  2  0  0  0
 38 46  1  0  0  0
 38 47  1  0  0  0
 39 64  1  0  0  0
 39 67  2  0  0  0
 40 52  1  0  0  0
 40 53  2  0  0  0
 40 58  1  0  0  0
 41112  1  0  0  0
 41113  1  0  0  0
 41114  1  0  0  0
 41 48  1  0  0  0
 42 43  1  0  0  0
 42 66  1  0  0  0
 42115  1  0  0  0
 42116  1  0  0  0
 43 44  1  0  0  0
 44117  1  0  0  0
 45 46  2  0  0  0
 45118  1  0  0  0
 46119  1  0  0  0
 47120  1  0  0  0
 47121  1  0  0  0
 48 56  1  0  0  0
 48 65  1  0  0  0
 48122  1  0  0  0
 49 50  1  0  0  0
 49 53  1  0  0  0
 49 64  1  0  0  0
 49123  1  0  0  0
 50 51  1  0  0  0
 50124  1  0  0  0
 50125  1  0  0  0
 51 52  1  0  0  0
 51126  1  0  0  0
 51127  1  0  0  0
 52128  1  0  0  0
 52129  1  0  0  0
 53 54  1  0  0  0
 54 55  2  0  0  0
 54130  1  0  0  0
 55 57  1  0  0  0
 55131  1  0  0  0
 56 69  2  0  0  0
 57 58  2  0  0  0
 57132  1  0  0  0
 58133  1  0  0  0
 59 60  1  0  0  0
 59 61  1  0  0  0
 59 62  1  0  0  0
 60134  1  0  0  0
 60135  1  0  0  0
 60136  1  0  0  0
 61137  1  0  0  0
 61138  1  0  0  0
 61139  1  0  0  0
 62140  1  0  0  0
 62141  1  0  0  0
 62142  1  0  0  0
 63 65  1  0  0  0
 63143  1  0  0  0
 63144  1  0  0  0
 63145  1  0  0  0
 64146  1  0  0  0
 65147  1  0  0  0
 68 82  1  0  0  0
 71 85  1  0  0  0
 71 88  2  0  0  0
 71 83  1  0  0  0
 72 73  1  0  0  0
 72 74  1  0  0  0
 72148  1  0  0  0
 72149  1  0  0  0
 73 75  1  0  0  0
 73150  1  0  0  0
 73151  1  0  0  0
 74152  1  0  0  0
 74153  1  0  0  0
 74 77  1  0  0  0
 75 77  1  0  0  0
 75154  1  0  0  0
 75155  1  0  0  0
 76 78  1  0  0  0
 76 87  1  0  0  0
 76156  1  0  0  0
 76157  1  0  0  0
 77 83  1  0  0  0
 77158  1  0  0  0
 78 81  1  0  0  0
 78 84  1  0  0  0
 78159  1  0  0  0
 79 80  1  0  0  0
 79 82  1  0  0  0
 79 84  1  0  0  0
 79160  1  0  0  0
 80 83  1  0  0  0
 80 87  1  0  0  0
 80161  1  0  0  0
 81 86  1  0  0  0
 81162  1  0  0  0
 81163  1  0  0  0
 82164  1  0  0  0
 82165  1  0  0  0
 83166  1  0  0  0
 84167  1  0  0  0
 85168  1  0  0  0
 85169  1  0  0  0
 86170  1  0  0  0
 87171  1  0  0  0
 87172  1  0  0  0
M  CHG  1  87   1
M  ISO  4   1 100  68 101  82 101  86 100
M  END
> <chiral flag>
0

> <version>
0

> <s_m_source_file>
/data/baiqing/PycharmProjects/Reinvent-master-3.2/result/LINK_invent/BTK/process_docking_weight1_custom_sum_contain_oxygen_bond_distance_aromatic_linkinvent_7_9_3/rearranged_h_0127.sdf

> <i_m_source_file_index>
62

> <r_mmod_Potential_Energy-OPLS-2005>
1192.92236328125

> <r_mmod_Stretch_Energy-OPLS-2005>
626.052001953125

> <r_mmod_Bend_Energy-OPLS-2005>
520.955505371094

> <r_mmod_Torsional_Energy-OPLS-2005>
323.098388671875

> <r_mmod_Improper_Torsional_Energy-OPLS-2005>
4.87021446228027

> <r_mmod_Van_der_Waal_Energy-OPLS-2005>
129.00927734375

> <r_mmod_Electrostatic_Energy-OPLS-2005>
-396.849365234375

> <r_mmod_Solvation_Energy-OPLS-2005>
-477.419006347656

> <b_mmod_Minimization_Converged-OPLS-2005>
0

> <r_mmod_RMS_Derivative-OPLS-2005>
2.99059343338013

$$$$
62
                    3D
 Structure written by MMmdl.
178186  0  0  1  0            999 V2000
  -30.7556  -14.3646   20.6273 C   0  0  0  0  0  0
  -30.4105  -12.2571   19.4139 C   0  0  0  0  0  0
  -29.4921  -12.4994   18.2018 C   0  0  0  0  0  0
  -28.0115  -12.3739   18.6115 C   0  0  0  0  0  0
  -27.6664  -13.1994   19.8790 C   0  0  2  0  0  0
  -28.7016  -12.9497   20.9987 C   0  0  0  0  0  0
  -25.2604  -13.8148   20.5659 C   0  0  0  0  0  0
  -24.1840  -13.0448   20.9157 C   0  0  0  0  0  0
  -24.6370  -11.6903   20.8714 C   0  0  0  0  0  0
  -23.9036  -10.4291   21.0387 C   0  0  0  0  0  0
  -24.3597   -9.4208   21.9162 C   0  0  0  0  0  0
  -23.6272   -8.2250   22.0755 C   0  0  0  0  0  0
  -22.4250   -8.0285   21.3556 C   0  0  0  0  0  0
  -21.9881   -9.0248   20.4655 C   0  0  0  0  0  0
  -22.7214  -10.2120   20.3045 C   0  0  0  0  0  0
  -21.6858   -6.0724   22.5273 C   0  0  0  0  0  0
  -21.4027   -6.5627   23.8206 C   0  0  0  0  0  0
  -21.3661   -5.6783   24.9162 C   0  0  0  0  0  0
  -21.6046   -4.3047   24.7220 C   0  0  0  0  0  0
  -21.8823   -3.8134   23.4341 C   0  0  0  0  0  0
  -21.9190   -4.6949   22.3393 C   0  0  0  0  0  0
  -22.7861  -13.5255   21.1820 C   0  0  0  0  0  0
  -22.1661   -4.2137   21.0976 F   0  0  0  0  0  0
  -21.5620   -3.4539   25.7733 F   0  0  0  0  0  0
  -30.0449  -13.2231   20.4590 N   0  0  0  0  0  0
  -26.3037  -12.9310   20.3352 N   0  0  0  0  0  0
  -25.9298  -11.6469   20.5729 N   0  0  0  0  0  0
  -22.0489  -12.8276   22.0380 N   0  0  0  0  0  0
  -25.4364  -15.1870   20.4102 N   0  0  0  0  0  0
  -31.8198  -14.5942   20.0472 O   0  0  0  0  0  0
  -21.6642   -6.8872   21.4236 O   0  0  0  0  0  0
  -22.3558  -14.5552   20.6637 O   0  0  0  0  0  0
  -24.6087  -31.8718   23.2156 C   0  0  0  0  0  0
  -25.9017  -32.4837   23.8421 C   0  0  1  0  0  0
  -27.2292  -27.4790   20.0843 C   0  0  0  0  0  0
  -25.5915  -33.8639   24.2354 N   0  0  0  0  0  0
  -23.3930  -30.4984   21.5522 C   0  0  2  0  0  0
  -24.8388  -28.9660   20.1196 C   0  0  0  0  0  0
  -22.7366  -29.4687   22.4988 C   0  0  0  0  0  0
  -18.0263  -28.1380   22.8484 C   0  0  0  0  0  0
  -24.1492  -36.7322   23.2632 C   0  0  0  0  0  0
  -25.9175  -30.8496   21.3635 C   0  0  0  0  0  0
  -25.9957  -29.4845   20.7169 C   0  0  0  0  0  0
  -27.1942  -28.7437   20.7043 C   0  0  0  0  0  0
  -26.0653  -26.9701   19.4750 C   0  0  0  0  0  0
  -24.8650  -27.7034   19.5015 C   0  0  0  0  0  0
  -23.6007  -29.8313   20.1665 C   0  0  0  0  0  0
  -25.4108  -36.3116   24.0335 C   0  0  1  0  0  0
  -20.5849  -28.3663   23.1330 C   0  0  2  0  0  0
  -20.6762  -26.9407   22.5417 C   0  0  0  0  0  0
  -19.5739  -26.6395   21.5216 C   0  0  0  0  0  0
  -18.1914  -26.7927   22.1615 C   0  0  0  0  0  0
  -19.1510  -28.8834   23.2910 C   0  0  0  0  0  0
  -18.9446  -30.1440   23.8918 C   0  0  0  0  0  0
  -17.6450  -30.6586   24.0572 C   0  0  0  0  0  0
  -25.9037  -34.9483   23.5137 C   0  0  0  0  0  0
  -16.5341  -29.9090   23.6326 C   0  0  0  0  0  0
  -16.7254  -28.6511   23.0340 C   0  0  0  0  0  0
  -26.4495  -31.6595   25.0716 C   0  0  0  0  0  0
  -25.3812  -31.3685   26.1500 C   0  0  0  0  0  0
  -27.0325  -30.3037   24.6071 C   0  0  0  0  0  0
  -27.6065  -32.4332   25.7476 C   0  0  0  0  0  0
  -27.5584  -37.1809   24.8468 C   0  0  0  0  0  0
  -21.4101  -29.3038   22.3738 N   0  0  0  0  0  0
  -26.4296  -37.3797   23.9421 N   0  0  0  0  0  0
  -24.6572  -31.0876   22.1021 N   0  0  0  0  0  0
  -23.4164  -28.8226   23.3006 O   0  0  0  0  0  0
  -28.4009  -26.7709   20.0321 O   0  0  0  0  0  0
  -26.5577  -34.8925   22.4684 O   0  0  0  0  0  0
  -23.5301  -32.1439   23.7598 O   0  0  0  0  0  0
  -31.3237  -22.0608   19.9655 C   0  0  0  0  0  0
  -30.2745  -22.9698   20.1535 C   0  0  0  0  0  0
  -29.4888  -22.5114   17.9036 C   0  0  0  0  0  0
  -31.4453  -21.3341   18.7642 C   0  0  0  0  0  0
  -30.5341  -21.5820   17.7000 C   0  0  0  0  0  0
  -29.3284  -23.1891   19.1279 C   0  0  0  0  0  0
  -31.9483  -22.6737   13.2274 C   0  0  0  0  0  0
  -32.0545  -23.7050   15.5329 C   0  0  0  0  0  0
  -32.5155  -20.2523   18.7139 C   0  0  0  0  0  0
  -30.5855  -20.8226   16.3715 C   0  0  0  0  0  0
  -30.5495  -21.6856   15.0914 C   0  0  0  0  0  0
  -30.7222  -16.6597   21.5024 C   0  0  0  0  0  0
  -31.9177  -18.8469   18.9168 C   0  0  0  0  0  0
  -30.3370  -17.4877   20.2586 C   0  0  0  0  0  0
  -28.5163  -25.7313   21.0002 C   0  0  0  0  0  0
  -27.8220  -24.4249   20.5596 C   0  0  0  0  0  0
  -31.8713  -22.4018   14.7387 C   0  0  0  0  0  0
  -30.1935  -15.2997   21.4022 N   0  0  0  0  0  0
  -31.1122  -18.7397   20.1582 N   0  3  0  0  0  0
  -28.2326  -24.0141   19.2539 O   0  0  0  0  0  0
  -31.4589  -12.3325   19.1196 H   0  0  0  0  0  0
  -30.2854  -11.2397   19.7912 H   0  0  0  0  0  0
  -29.7228  -11.7869   17.4091 H   0  0  0  0  0  0
  -29.6820  -13.4902   17.7866 H   0  0  0  0  0  0
  -27.8088  -11.3171   18.7911 H   0  0  0  0  0  0
  -27.3657  -12.6686   17.7845 H   0  0  0  0  0  0
  -27.7261  -14.2522   19.6017 H   0  0  0  0  0  0
  -28.6520  -11.9113   21.3295 H   0  0  0  0  0  0
  -28.4614  -13.5452   21.8794 H   0  0  0  0  0  0
  -25.2745   -9.5692   22.4729 H   0  0  0  0  0  0
  -23.9988   -7.4648   22.7471 H   0  0  0  0  0  0
  -21.0821   -8.8759   19.8964 H   0  0  0  0  0  0
  -22.3667  -10.9650   19.6154 H   0  0  0  0  0  0
  -21.2036   -7.6136   23.9713 H   0  0  0  0  0  0
  -21.1482   -6.0504   25.9067 H   0  0  0  0  0  0
  -22.0596   -2.7597   23.2840 H   0  0  0  0  0  0
  -22.4101  -11.9947   22.4793 H   0  0  0  0  0  0
  -21.1103  -13.1314   22.2562 H   0  0  0  0  0  0
  -24.6758  -15.8462   20.5355 H   0  0  0  0  0  0
  -26.2944  -15.6254   20.1010 H   0  0  0  0  0  0
  -26.7077  -32.5575   23.1181 H   0  0  0  0  0  0
  -25.0142  -33.9818   25.0549 H   0  0  0  0  0  0
  -22.6771  -31.3120   21.4157 H   0  0  0  0  0  0
  -23.3753  -35.9661   23.3306 H   0  0  0  0  0  0
  -24.3577  -36.8918   22.2043 H   0  0  0  0  0  0
  -23.7256  -37.6537   23.6631 H   0  0  0  0  0  0
  -26.0274  -31.6163   20.5957 H   0  0  0  0  0  0
  -26.8068  -30.9014   21.9787 H   0  0  0  0  0  0
  -28.0906  -29.1425   21.1582 H   0  0  0  0  0  0
  -26.0885  -26.0186   18.9660 H   0  0  0  0  0  0
  -23.9791  -27.3000   19.0317 H   0  0  0  0  0  0
  -23.7077  -30.6069   19.4070 H   0  0  0  0  0  0
  -22.7244  -29.2518   19.8699 H   0  0  0  0  0  0
  -25.1277  -36.1978   25.0825 H   0  0  0  0  0  0
  -20.9948  -28.3243   24.1447 H   0  0  0  0  0  0
  -20.5702  -26.2263   23.3596 H   0  0  0  0  0  0
  -21.6631  -26.7480   22.1189 H   0  0  0  0  0  0
  -19.6912  -25.6322   21.1213 H   0  0  0  0  0  0
  -19.6686  -27.3233   20.6775 H   0  0  0  0  0  0
  -17.4192  -26.6690   21.4012 H   0  0  0  0  0  0
  -18.0305  -26.0058   22.8998 H   0  0  0  0  0  0
  -19.7933  -30.7256   24.2278 H   0  0  0  0  0  0
  -17.5017  -31.6262   24.5188 H   0  0  0  0  0  0
  -15.5348  -30.3009   23.7653 H   0  0  0  0  0  0
  -15.8646  -28.0861   22.7025 H   0  0  0  0  0  0
  -24.5959  -30.7047   25.7874 H   0  0  0  0  0  0
  -24.9056  -32.2838   26.5024 H   0  0  0  0  0  0
  -25.8222  -30.8815   27.0205 H   0  0  0  0  0  0
  -26.2833  -29.6758   24.1229 H   0  0  0  0  0  0
  -27.4206  -29.7309   25.4508 H   0  0  0  0  0  0
  -27.8628  -30.4356   23.9129 H   0  0  0  0  0  0
  -27.2649  -33.3592   26.2122 H   0  0  0  0  0  0
  -28.3837  -32.6966   25.0287 H   0  0  0  0  0  0
  -28.0782  -31.8429   26.5340 H   0  0  0  0  0  0
  -28.2606  -38.0102   24.7503 H   0  0  0  0  0  0
  -28.1062  -36.2625   24.6294 H   0  0  0  0  0  0
  -27.2291  -37.1469   25.8869 H   0  0  0  0  0  0
  -20.9235  -29.8741   21.6964 H   0  0  0  0  0  0
  -26.0180  -38.2871   24.1439 H   0  0  0  0  0  0
  -32.0164  -21.8962   20.7801 H   0  0  0  0  0  0
  -30.2164  -23.4695   21.1068 H   0  0  0  0  0  0
  -28.7634  -22.6822   17.1207 H   0  0  0  0  0  0
  -32.8847  -23.1623   12.9565 H   0  0  0  0  0  0
  -31.1298  -23.3121   12.8933 H   0  0  0  0  0  0
  -31.8979  -21.7454   12.6562 H   0  0  0  0  0  0
  -32.9606  -24.2269   15.2252 H   0  0  0  0  0  0
  -32.1443  -23.5110   16.6015 H   0  0  0  0  0  0
  -31.2123  -24.3834   15.3890 H   0  0  0  0  0  0
  -33.2590  -20.4402   19.4891 H   0  0  0  0  0  0
  -33.0693  -20.3161   17.7772 H   0  0  0  0  0  0
  -29.7183  -20.1613   16.3610 H   0  0  0  0  0  0
  -31.4465  -20.1618   16.3058 H   0  0  0  0  0  0
  -29.7177  -22.3912   15.0969 H   0  0  0  0  0  0
  -30.3238  -20.9964   14.2761 H   0  0  0  0  0  0
  -31.8083  -16.6216   21.6179 H   0  0  0  0  0  0
  -30.3346  -17.1260   22.4092 H   0  0  0  0  0  0
  -32.7118  -18.0989   18.9366 H   0  0  0  0  0  0
  -31.2829  -18.6052   18.0644 H   0  0  0  0  0  0
  -29.2753  -17.7367   20.2958 H   0  0  0  0  0  0
  -30.4684  -16.8994   19.3489 H   0  0  0  0  0  0
  -29.5789  -25.5645   21.1670 H   0  0  0  0  0  0
  -28.1161  -26.0587   21.9612 H   0  0  0  0  0  0
  -26.7424  -24.5624   20.5392 H   0  0  0  0  0  0
  -27.9749  -23.6337   21.2958 H   0  0  0  0  0  0
  -32.7023  -21.7376   14.9830 H   0  0  0  0  0  0
  -29.3165  -15.0835   21.8540 H   0  0  0  0  0  0
  -30.4651  -19.5118   20.1897 H   0  0  0  0  0  0
  -31.7188  -18.8166   20.9587 H   0  0  0  0  0  0
  1 25  1  0  0  0
  1 30  2  0  0  0
  1 88  1  0  0  0
  2  3  1  0  0  0
  2 25  1  0  0  0
  2 91  1  0  0  0
  2 92  1  0  0  0
  3  4  1  0  0  0
  3 93  1  0  0  0
  3 94  1  0  0  0
  4  5  1  0  0  0
  4 95  1  0  0  0
  4 96  1  0  0  0
  5  6  1  0  0  0
  5 26  1  0  0  0
  5 97  1  0  0  0
  6 25  1  0  0  0
  6 98  1  0  0  0
  6 99  1  0  0  0
  7  8  2  0  0  0
  7 26  1  0  0  0
  7 29  1  0  0  0
  8  9  1  0  0  0
  8 22  1  0  0  0
  9 10  1  0  0  0
  9 27  2  0  0  0
 10 11  2  0  0  0
 10 15  1  0  0  0
 11 12  1  0  0  0
 11100  1  0  0  0
 12 13  2  0  0  0
 12101  1  0  0  0
 13 14  1  0  0  0
 13 31  1  0  0  0
 14 15  2  0  0  0
 14102  1  0  0  0
 15103  1  0  0  0
 16 17  2  0  0  0
 16 21  1  0  0  0
 16 31  1  0  0  0
 17 18  1  0  0  0
 17104  1  0  0  0
 18 19  2  0  0  0
 18105  1  0  0  0
 19 20  1  0  0  0
 19 24  1  0  0  0
 20 21  2  0  0  0
 20106  1  0  0  0
 21 23  1  0  0  0
 22 28  1  0  0  0
 22 32  2  0  0  0
 26 27  1  0  0  0
 28107  1  0  0  0
 28108  1  0  0  0
 29109  1  0  0  0
 29110  1  0  0  0
 33 34  1  0  0  0
 33 66  1  0  0  0
 33 70  2  0  0  0
 34 36  1  0  0  0
 34 59  1  0  0  0
 34111  1  0  0  0
 35 44  2  0  0  0
 35 45  1  0  0  0
 35 68  1  0  0  0
 36 56  1  0  0  0
 36112  1  0  0  0
 37 39  1  0  0  0
 37 47  1  0  0  0
 37 66  1  0  0  0
 37113  1  0  0  0
 38 43  2  0  0  0
 38 46  1  0  0  0
 38 47  1  0  0  0
 39 64  1  0  0  0
 39 67  2  0  0  0
 40 52  1  0  0  0
 40 53  2  0  0  0
 40 58  1  0  0  0
 41114  1  0  0  0
 41115  1  0  0  0
 41116  1  0  0  0
 41 48  1  0  0  0
 42 43  1  0  0  0
 42 66  1  0  0  0
 42117  1  0  0  0
 42118  1  0  0  0
 43 44  1  0  0  0
 44119  1  0  0  0
 45 46  2  0  0  0
 45120  1  0  0  0
 46121  1  0  0  0
 47122  1  0  0  0
 47123  1  0  0  0
 48 56  1  0  0  0
 48 65  1  0  0  0
 48124  1  0  0  0
 49 50  1  0  0  0
 49 53  1  0  0  0
 49 64  1  0  0  0
 49125  1  0  0  0
 50 51  1  0  0  0
 50126  1  0  0  0
 50127  1  0  0  0
 51 52  1  0  0  0
 51128  1  0  0  0
 51129  1  0  0  0
 52130  1  0  0  0
 52131  1  0  0  0
 53 54  1  0  0  0
 54 55  2  0  0  0
 54132  1  0  0  0
 55 57  1  0  0  0
 55133  1  0  0  0
 56 69  2  0  0  0
 57 58  2  0  0  0
 57134  1  0  0  0
 58135  1  0  0  0
 59 60  1  0  0  0
 59 61  1  0  0  0
 59 62  1  0  0  0
 60136  1  0  0  0
 60137  1  0  0  0
 60138  1  0  0  0
 61139  1  0  0  0
 61140  1  0  0  0
 61141  1  0  0  0
 62142  1  0  0  0
 62143  1  0  0  0
 62144  1  0  0  0
 63 65  1  0  0  0
 63145  1  0  0  0
 63146  1  0  0  0
 63147  1  0  0  0
 64148  1  0  0  0
 65149  1  0  0  0
 68 85  1  0  0  0
 71 72  2  0  0  0
 71 74  1  0  0  0
 71150  1  0  0  0
 72 76  1  0  0  0
 72151  1  0  0  0
 73 75  1  0  0  0
 73 76  2  0  0  0
 73152  1  0  0  0
 74 75  2  0  0  0
 74 79  1  0  0  0
 75 80  1  0  0  0
 76 90  1  0  0  0
 77153  1  0  0  0
 77154  1  0  0  0
 77155  1  0  0  0
 77 87  1  0  0  0
 78 87  1  0  0  0
 78156  1  0  0  0
 78157  1  0  0  0
 78158  1  0  0  0
 79 83  1  0  0  0
 79159  1  0  0  0
 79160  1  0  0  0
 80 81  1  0  0  0
 80161  1  0  0  0
 80162  1  0  0  0
 81 87  1  0  0  0
 81163  1  0  0  0
 81164  1  0  0  0
 82 84  1  0  0  0
 82 88  1  0  0  0
 82165  1  0  0  0
 82166  1  0  0  0
 83 89  1  0  0  0
 83167  1  0  0  0
 83168  1  0  0  0
 84 89  1  0  0  0
 84169  1  0  0  0
 84170  1  0  0  0
 85 86  1  0  0  0
 85171  1  0  0  0
 85172  1  0  0  0
 86 90  1  0  0  0
 86173  1  0  0  0
 86174  1  0  0  0
 87175  1  0  0  0
 88176  1  0  0  0
 89177  1  0  0  0
 89178  1  0  0  0
M  CHG  1  89   1
M  ISO  4   1 100  68 101  85 101  88 100
M  END
> <chiral flag>
0

> <version>
0

> <s_m_source_file>
/data/baiqing/PycharmProjects/Reinvent-master-3.2/result/LINK_invent/BTK/process_docking_weight1_custom_sum_contain_oxygen_bond_distance_aromatic_linkinvent_7_9_3/rearranged_h_0127.sdf

> <i_m_source_file_index>
63

> <r_mmod_Potential_Energy-OPLS-2005>
-254.752349853516

> <r_mmod_Stretch_Energy-OPLS-2005>
33.2684288024902

> <r_mmod_Bend_Energy-OPLS-2005>
103.191207885742

> <r_mmod_Torsional_Energy-OPLS-2005>
248.680282592773

> <r_mmod_Improper_Torsional_Energy-OPLS-2005>
2.79601645469666

> <r_mmod_Van_der_Waal_Energy-OPLS-2005>
161.078598022461

> <r_mmod_Electrostatic_Energy-OPLS-2005>
-352.339111328125

> <r_mmod_Solvation_Energy-OPLS-2005>
-458.685119628906

> <b_mmod_Minimization_Converged-OPLS-2005>
0

> <r_mmod_RMS_Derivative-OPLS-2005>
2.47647190093994

$$$$
63
                    3D
 Structure written by MMmdl.
162170  0  0  1  0            999 V2000
  -30.7082  -14.4326   20.6013 C   0  0  0  0  0  0
  -30.4241  -12.2922   19.4050 C   0  0  0  0  0  0
  -29.4909  -12.5101   18.1996 C   0  0  0  0  0  0
  -28.0134  -12.3657   18.6183 C   0  0  0  0  0  0
  -27.6651  -13.1975   19.8821 C   0  0  2  0  0  0
  -28.7090  -12.9468   20.9948 C   0  0  0  0  0  0
  -25.2609  -13.8142   20.5688 C   0  0  0  0  0  0
  -24.1835  -13.0419   20.9185 C   0  0  0  0  0  0
  -24.6381  -11.6884   20.8752 C   0  0  0  0  0  0
  -23.9053  -10.4268   21.0419 C   0  0  0  0  0  0
  -24.3601   -9.4184   21.9189 C   0  0  0  0  0  0
  -23.6266   -8.2229   22.0771 C   0  0  0  0  0  0
  -22.4257   -8.0263   21.3544 C   0  0  0  0  0  0
  -21.9886   -9.0247   20.4661 C   0  0  0  0  0  0
  -22.7232  -10.2118   20.3076 C   0  0  0  0  0  0
  -21.6843   -6.0717   22.5270 C   0  0  0  0  0  0
  -21.4009   -6.5635   23.8201 C   0  0  0  0  0  0
  -21.3668   -5.6798   24.9170 C   0  0  0  0  0  0
  -21.6051   -4.3058   24.7229 C   0  0  0  0  0  0
  -21.8817   -3.8139   23.4351 C   0  0  0  0  0  0
  -21.9186   -4.6947   22.3400 C   0  0  0  0  0  0
  -22.7885  -13.5238   21.1823 C   0  0  0  0  0  0
  -22.1650   -4.2140   21.0974 F   0  0  0  0  0  0
  -21.5627   -3.4536   25.7736 F   0  0  0  0  0  0
  -30.0428  -13.2574   20.4443 N   0  0  0  0  0  0
  -26.3039  -12.9294   20.3406 N   0  0  0  0  0  0
  -25.9309  -11.6463   20.5782 N   0  0  0  0  0  0
  -22.0516  -12.8222   22.0377 N   0  0  0  0  0  0
  -25.4310  -15.1850   20.4031 N   0  0  0  0  0  0
  -31.8127  -14.6665   20.1013 O   0  0  0  0  0  0
  -21.6630   -6.8852   21.4231 O   0  0  0  0  0  0
  -22.3595  -14.5561   20.6701 O   0  0  0  0  0  0
  -24.6157  -31.8693   23.2131 C   0  0  0  0  0  0
  -25.9058  -32.4832   23.8416 C   0  0  1  0  0  0
  -27.2312  -27.4358   20.0682 C   0  0  0  0  0  0
  -25.5914  -33.8631   24.2350 N   0  0  0  0  0  0
  -23.3991  -30.4955   21.5562 C   0  0  2  0  0  0
  -24.8393  -28.9590   20.1200 C   0  0  0  0  0  0
  -22.7389  -29.4675   22.5039 C   0  0  0  0  0  0
  -18.0281  -28.1324   22.8478 C   0  0  0  0  0  0
  -24.1493  -36.7307   23.2640 C   0  0  0  0  0  0
  -25.9301  -30.8317   21.3662 C   0  0  0  0  0  0
  -26.0015  -29.4655   20.7118 C   0  0  0  0  0  0
  -27.1947  -28.7080   20.6872 C   0  0  0  0  0  0
  -26.0376  -26.9350   19.4946 C   0  0  0  0  0  0
  -24.8498  -27.6907   19.5168 C   0  0  0  0  0  0
  -23.6029  -29.8286   20.1707 C   0  0  0  0  0  0
  -25.4107  -36.3118   24.0352 C   0  0  1  0  0  0
  -20.5857  -28.3643   23.1347 C   0  0  2  0  0  0
  -20.6785  -26.9387   22.5463 C   0  0  0  0  0  0
  -19.5788  -26.6340   21.5252 C   0  0  0  0  0  0
  -18.1945  -26.7871   22.1612 C   0  0  0  0  0  0
  -19.1524  -28.8818   23.2905 C   0  0  0  0  0  0
  -18.9423  -30.1426   23.8912 C   0  0  0  0  0  0
  -17.6413  -30.6530   24.0538 C   0  0  0  0  0  0
  -25.9043  -34.9482   23.5150 C   0  0  0  0  0  0
  -16.5331  -29.8993   23.6311 C   0  0  0  0  0  0
  -16.7247  -28.6422   23.0327 C   0  0  0  0  0  0
  -26.4474  -31.6622   25.0755 C   0  0  0  0  0  0
  -25.3757  -31.3700   26.1516 C   0  0  0  0  0  0
  -27.0274  -30.3073   24.6107 C   0  0  0  0  0  0
  -27.6046  -32.4343   25.7506 C   0  0  0  0  0  0
  -27.5579  -37.1810   24.8463 C   0  0  0  0  0  0
  -21.4123  -29.3004   22.3733 N   0  0  0  0  0  0
  -26.4296  -37.3794   23.9420 N   0  0  0  0  0  0
  -24.6670  -31.0796   22.1037 N   0  0  0  0  0  0
  -23.4160  -28.8234   23.3101 O   0  0  0  0  0  0
  -28.4297  -26.7429   20.0573 O   0  0  0  0  0  0
  -26.5595  -34.8923   22.4711 O   0  0  0  0  0  0
  -23.5357  -32.1443   23.7549 O   0  0  0  0  0  0
  -28.1910  -24.2768   20.1818 C   0  0  0  0  0  0
  -27.1925  -18.7004   23.3201 C   0  0  0  0  0  0
  -26.9659  -19.6356   22.1234 C   0  0  0  0  0  0
  -28.7208  -18.6003   23.4666 C   0  0  0  0  0  0
  -28.3805  -20.1078   21.7611 C   0  0  2  0  0  0
  -28.5607  -25.5083   19.3237 C   0  0  0  0  0  0
  -28.5483  -20.7769   20.3744 C   0  0  0  0  0  0
  -30.4155  -16.7494   21.5987 C   0  0  0  0  0  0
  -29.3107  -17.7885   21.2284 C   0  0  0  0  0  0
  -28.1526  -23.0733   19.5714 N   0  0  0  0  0  0
  -30.0204  -15.3717   21.2690 N   0  0  0  0  0  0
  -27.6312  -21.9329   20.2261 N   0  0  0  0  0  0
  -29.2769  -18.9757   22.1415 N   0  3  1  0  0  0
  -27.9435  -24.4113   21.3866 O   0  0  0  0  0  0
  -31.4660  -12.3975   19.1050 H   0  0  0  0  0  0
  -30.3296  -11.2745   19.7881 H   0  0  0  0  0  0
  -29.7222  -11.7904   17.4123 H   0  0  0  0  0  0
  -29.6631  -13.5012   17.7748 H   0  0  0  0  0  0
  -27.8299  -11.3064   18.8076 H   0  0  0  0  0  0
  -27.3580  -12.6385   17.7910 H   0  0  0  0  0  0
  -27.7240  -14.2503   19.6045 H   0  0  0  0  0  0
  -28.6829  -11.9042   21.3117 H   0  0  0  0  0  0
  -28.4723  -13.5191   21.8933 H   0  0  0  0  0  0
  -25.2763   -9.5644   22.4734 H   0  0  0  0  0  0
  -23.9982   -7.4636   22.7510 H   0  0  0  0  0  0
  -21.0809   -8.8789   19.8963 H   0  0  0  0  0  0
  -22.3727  -10.9662   19.6175 H   0  0  0  0  0  0
  -21.2003   -7.6142   23.9682 H   0  0  0  0  0  0
  -21.1498   -6.0542   25.9069 H   0  0  0  0  0  0
  -22.0585   -2.7593   23.2868 H   0  0  0  0  0  0
  -22.4146  -11.9906   22.4796 H   0  0  0  0  0  0
  -21.1143  -13.1256   22.2597 H   0  0  0  0  0  0
  -24.6527  -15.8292   20.4974 H   0  0  0  0  0  0
  -26.2661  -15.6181   20.0299 H   0  0  0  0  0  0
  -26.7126  -32.5502   23.1167 H   0  0  0  0  0  0
  -25.0052  -33.9807   25.0487 H   0  0  0  0  0  0
  -22.6893  -31.3135   21.4208 H   0  0  0  0  0  0
  -23.3757  -35.9638   23.3320 H   0  0  0  0  0  0
  -24.3552  -36.8896   22.2039 H   0  0  0  0  0  0
  -23.7250  -37.6527   23.6635 H   0  0  0  0  0  0
  -26.0504  -31.5987   20.5998 H   0  0  0  0  0  0
  -26.8191  -30.8794   21.9838 H   0  0  0  0  0  0
  -28.0958  -29.0986   21.1411 H   0  0  0  0  0  0
  -25.9918  -25.9610   19.0304 H   0  0  0  0  0  0
  -23.9490  -27.2900   19.0717 H   0  0  0  0  0  0
  -23.7096  -30.6044   19.4110 H   0  0  0  0  0  0
  -22.7250  -29.2505   19.8748 H   0  0  0  0  0  0
  -25.1290  -36.1978   25.0844 H   0  0  0  0  0  0
  -20.9923  -28.3199   24.1487 H   0  0  0  0  0  0
  -20.5692  -26.2282   23.3670 H   0  0  0  0  0  0
  -21.6671  -26.7424   22.1282 H   0  0  0  0  0  0
  -19.6985  -25.6248   21.1286 H   0  0  0  0  0  0
  -19.6750  -27.3151   20.6770 H   0  0  0  0  0  0
  -17.4230  -26.6692   21.3983 H   0  0  0  0  0  0
  -18.0256  -25.9978   22.8961 H   0  0  0  0  0  0
  -19.7859  -30.7300   24.2308 H   0  0  0  0  0  0
  -17.4914  -31.6230   24.5070 H   0  0  0  0  0  0
  -15.5334  -30.2891   23.7617 H   0  0  0  0  0  0
  -15.8649  -28.0743   22.7035 H   0  0  0  0  0  0
  -24.5930  -30.7053   25.7857 H   0  0  0  0  0  0
  -24.8950  -32.2837   26.5033 H   0  0  0  0  0  0
  -25.8130  -30.8828   27.0245 H   0  0  0  0  0  0
  -26.2798  -29.6881   24.1146 H   0  0  0  0  0  0
  -27.4030  -29.7267   25.4543 H   0  0  0  0  0  0
  -27.8659  -30.4405   23.9259 H   0  0  0  0  0  0
  -27.2670  -33.3626   26.2133 H   0  0  0  0  0  0
  -28.3824  -32.6943   25.0311 H   0  0  0  0  0  0
  -28.0770  -31.8453   26.5379 H   0  0  0  0  0  0
  -28.2618  -38.0092   24.7501 H   0  0  0  0  0  0
  -28.1062  -36.2617   24.6315 H   0  0  0  0  0  0
  -27.2286  -37.1500   25.8867 H   0  0  0  0  0  0
  -20.9301  -29.8603   21.6842 H   0  0  0  0  0  0
  -26.0185  -38.2887   24.1401 H   0  0  0  0  0  0
  -26.7686  -17.7167   23.1101 H   0  0  0  0  0  0
  -26.7250  -19.0747   24.2308 H   0  0  0  0  0  0
  -26.2979  -20.4648   22.3614 H   0  0  0  0  0  0
  -26.5294  -19.0838   21.2903 H   0  0  0  0  0  0
  -29.0248  -17.6207   23.8300 H   0  0  0  0  0  0
  -29.0604  -19.3275   24.2072 H   0  0  0  0  0  0
  -28.6239  -20.8978   22.4758 H   0  0  0  0  0  0
  -28.0118  -25.5205   18.3813 H   0  0  0  0  0  0
  -29.6090  -25.4153   19.0444 H   0  0  0  0  0  0
  -29.5811  -21.1151   20.2714 H   0  0  0  0  0  0
  -28.3585  -20.0703   19.5649 H   0  0  0  0  0  0
  -30.6576  -16.7622   22.6606 H   0  0  0  0  0  0
  -31.3435  -17.0225   21.0973 H   0  0  0  0  0  0
  -28.3310  -17.3093   21.2246 H   0  0  0  0  0  0
  -29.4822  -18.1139   20.2030 H   0  0  0  0  0  0
  -28.3491  -23.0191   18.5772 H   0  0  0  0  0  0
  -29.1288  -15.0603   21.6258 H   0  0  0  0  0  0
  -26.7500  -21.6456   19.7983 H   0  0  0  0  0  0
  -30.2197  -19.3234   22.2487 H   0  0  0  0  0  0
  1 25  1  0  0  0
  1 30  2  0  0  0
  1 81  1  0  0  0
  2  3  1  0  0  0
  2 25  1  0  0  0
  2 85  1  0  0  0
  2 86  1  0  0  0
  3  4  1  0  0  0
  3 87  1  0  0  0
  3 88  1  0  0  0
  4  5  1  0  0  0
  4 89  1  0  0  0
  4 90  1  0  0  0
  5  6  1  0  0  0
  5 26  1  0  0  0
  5 91  1  0  0  0
  6 25  1  0  0  0
  6 92  1  0  0  0
  6 93  1  0  0  0
  7  8  2  0  0  0
  7 26  1  0  0  0
  7 29  1  0  0  0
  8  9  1  0  0  0
  8 22  1  0  0  0
  9 10  1  0  0  0
  9 27  2  0  0  0
 10 11  2  0  0  0
 10 15  1  0  0  0
 11 12  1  0  0  0
 11 94  1  0  0  0
 12 13  2  0  0  0
 12 95  1  0  0  0
 13 14  1  0  0  0
 13 31  1  0  0  0
 14 15  2  0  0  0
 14 96  1  0  0  0
 15 97  1  0  0  0
 16 17  2  0  0  0
 16 21  1  0  0  0
 16 31  1  0  0  0
 17 18  1  0  0  0
 17 98  1  0  0  0
 18 19  2  0  0  0
 18 99  1  0  0  0
 19 20  1  0  0  0
 19 24  1  0  0  0
 20 21  2  0  0  0
 20100  1  0  0  0
 21 23  1  0  0  0
 22 28  1  0  0  0
 22 32  2  0  0  0
 26 27  1  0  0  0
 28101  1  0  0  0
 28102  1  0  0  0
 29103  1  0  0  0
 29104  1  0  0  0
 33 34  1  0  0  0
 33 66  1  0  0  0
 33 70  2  0  0  0
 34 36  1  0  0  0
 34 59  1  0  0  0
 34105  1  0  0  0
 35 44  2  0  0  0
 35 45  1  0  0  0
 35 68  1  0  0  0
 36 56  1  0  0  0
 36106  1  0  0  0
 37 39  1  0  0  0
 37 47  1  0  0  0
 37 66  1  0  0  0
 37107  1  0  0  0
 38 43  2  0  0  0
 38 46  1  0  0  0
 38 47  1  0  0  0
 39 64  1  0  0  0
 39 67  2  0  0  0
 40 52  1  0  0  0
 40 53  2  0  0  0
 40 58  1  0  0  0
 41108  1  0  0  0
 41109  1  0  0  0
 41110  1  0  0  0
 41 48  1  0  0  0
 42 43  1  0  0  0
 42 66  1  0  0  0
 42111  1  0  0  0
 42112  1  0  0  0
 43 44  1  0  0  0
 44113  1  0  0  0
 45 46  2  0  0  0
 45114  1  0  0  0
 46115  1  0  0  0
 47116  1  0  0  0
 47117  1  0  0  0
 48 56  1  0  0  0
 48 65  1  0  0  0
 48118  1  0  0  0
 49 50  1  0  0  0
 49 53  1  0  0  0
 49 64  1  0  0  0
 49119  1  0  0  0
 50 51  1  0  0  0
 50120  1  0  0  0
 50121  1  0  0  0
 51 52  1  0  0  0
 51122  1  0  0  0
 51123  1  0  0  0
 52124  1  0  0  0
 52125  1  0  0  0
 53 54  1  0  0  0
 54 55  2  0  0  0
 54126  1  0  0  0
 55 57  1  0  0  0
 55127  1  0  0  0
 56 69  2  0  0  0
 57 58  2  0  0  0
 57128  1  0  0  0
 58129  1  0  0  0
 59 60  1  0  0  0
 59 61  1  0  0  0
 59 62  1  0  0  0
 60130  1  0  0  0
 60131  1  0  0  0
 60132  1  0  0  0
 61133  1  0  0  0
 61134  1  0  0  0
 61135  1  0  0  0
 62136  1  0  0  0
 62137  1  0  0  0
 62138  1  0  0  0
 63 65  1  0  0  0
 63139  1  0  0  0
 63140  1  0  0  0
 63141  1  0  0  0
 64142  1  0  0  0
 65143  1  0  0  0
 68 76  1  0  0  0
 71 76  1  0  0  0
 71 80  1  0  0  0
 71 84  2  0  0  0
 72 73  1  0  0  0
 72 74  1  0  0  0
 72144  1  0  0  0
 72145  1  0  0  0
 73 75  1  0  0  0
 73146  1  0  0  0
 73147  1  0  0  0
 74 83  1  0  0  0
 74148  1  0  0  0
 74149  1  0  0  0
 75 77  1  0  0  0
 75 83  1  0  0  0
 75150  1  0  0  0
 76151  1  0  0  0
 76152  1  0  0  0
 77 82  1  0  0  0
 77153  1  0  0  0
 77154  1  0  0  0
 78 79  1  0  0  0
 78 81  1  0  0  0
 78155  1  0  0  0
 78156  1  0  0  0
 79157  1  0  0  0
 79158  1  0  0  0
 79 83  1  0  0  0
 80 82  1  0  0  0
 80159  1  0  0  0
 81160  1  0  0  0
 82161  1  0  0  0
 83162  1  0  0  0
M  CHG  1  83   1
M  ISO  4   1 100  68 101  76 101  81 100
M  END
> <chiral flag>
0

> <version>
0

> <s_m_source_file>
/data/baiqing/PycharmProjects/Reinvent-master-3.2/result/LINK_invent/BTK/process_docking_weight1_custom_sum_contain_oxygen_bond_distance_aromatic_linkinvent_7_9_3/rearranged_h_0127.sdf

> <i_m_source_file_index>
64

> <r_mmod_Potential_Energy-OPLS-2005>
-70.4482803344727

> <r_mmod_Stretch_Energy-OPLS-2005>
39.5748176574707

> <r_mmod_Bend_Energy-OPLS-2005>
149.031433105469

> <r_mmod_Torsional_Energy-OPLS-2005>
286.540283203125

> <r_mmod_Improper_Torsional_Energy-OPLS-2005>
3.02151250839233

> <r_mmod_Van_der_Waal_Energy-OPLS-2005>
137.332748413086

> <r_mmod_Electrostatic_Energy-OPLS-2005>
-192.424713134766

> <r_mmod_Solvation_Energy-OPLS-2005>
-503.764221191406

> <b_mmod_Minimization_Converged-OPLS-2005>
0

> <r_mmod_RMS_Derivative-OPLS-2005>
3.63615894317627

$$$$
64
                    3D
 Structure written by MMmdl.
171180  0  0  1  0            999 V2000
  -30.6702  -14.5057   20.5757 C   0  0  0  0  0  0
  -30.4370  -12.3311   19.4193 C   0  0  0  0  0  0
  -29.4990  -12.5118   18.2061 C   0  0  0  0  0  0
  -28.0202  -12.3586   18.6193 C   0  0  0  0  0  0
  -27.6614  -13.1945   19.8763 C   0  0  2  0  0  0
  -28.7074  -12.9767   20.9945 C   0  0  0  0  0  0
  -25.2569  -13.8092   20.5649 C   0  0  0  0  0  0
  -24.1835  -13.0392   20.9199 C   0  0  0  0  0  0
  -24.6389  -11.6863   20.8756 C   0  0  0  0  0  0
  -23.9058  -10.4262   21.0415 C   0  0  0  0  0  0
  -24.3612   -9.4182   21.9192 C   0  0  0  0  0  0
  -23.6282   -8.2222   22.0761 C   0  0  0  0  0  0
  -22.4266   -8.0269   21.3551 C   0  0  0  0  0  0
  -21.9906   -9.0243   20.4654 C   0  0  0  0  0  0
  -22.7232  -10.2116   20.3064 C   0  0  0  0  0  0
  -21.6848   -6.0730   22.5282 C   0  0  0  0  0  0
  -21.4003   -6.5635   23.8215 C   0  0  0  0  0  0
  -21.3658   -5.6788   24.9179 C   0  0  0  0  0  0
  -21.6047   -4.3053   24.7231 C   0  0  0  0  0  0
  -21.8819   -3.8146   23.4353 C   0  0  0  0  0  0
  -21.9190   -4.6959   22.3405 C   0  0  0  0  0  0
  -22.7861  -13.5212   21.1852 C   0  0  0  0  0  0
  -22.1659   -4.2146   21.0982 F   0  0  0  0  0  0
  -21.5638   -3.4538   25.7746 F   0  0  0  0  0  0
  -30.0357  -13.3069   20.4444 N   0  0  0  0  0  0
  -26.3017  -12.9251   20.3365 N   0  0  0  0  0  0
  -25.9311  -11.6430   20.5790 N   0  0  0  0  0  0
  -22.0483  -12.8223   22.0411 N   0  0  0  0  0  0
  -25.4208  -15.1799   20.3955 N   0  0  0  0  0  0
  -31.7843  -14.7383   20.0995 O   0  0  0  0  0  0
  -21.6630   -6.8868   21.4245 O   0  0  0  0  0  0
  -22.3560  -14.5522   20.6694 O   0  0  0  0  0  0
  -24.6154  -31.8663   23.2090 C   0  0  0  0  0  0
  -25.9046  -32.4815   23.8377 C   0  0  1  0  0  0
  -27.2412  -27.4240   20.0748 C   0  0  0  0  0  0
  -25.5897  -33.8617   24.2305 N   0  0  0  0  0  0
  -23.4039  -30.4902   21.5501 C   0  0  2  0  0  0
  -24.8499  -28.9534   20.1158 C   0  0  0  0  0  0
  -22.7408  -29.4647   22.4984 C   0  0  0  0  0  0
  -18.0262  -28.1373   22.8483 C   0  0  0  0  0  0
  -24.1488  -36.7314   23.2638 C   0  0  0  0  0  0
  -25.9349  -30.8255   21.3654 C   0  0  0  0  0  0
  -26.0122  -29.4592   20.7105 C   0  0  0  0  0  0
  -27.2056  -28.6979   20.6951 C   0  0  0  0  0  0
  -26.0477  -26.9253   19.5038 C   0  0  0  0  0  0
  -24.8619  -27.6832   19.5162 C   0  0  0  0  0  0
  -23.6137  -29.8229   20.1650 C   0  0  0  0  0  0
  -25.4110  -36.3108   24.0332 C   0  0  1  0  0  0
  -20.5854  -28.3654   23.1311 C   0  0  2  0  0  0
  -20.6749  -26.9387   22.5414 C   0  0  0  0  0  0
  -19.5736  -26.6374   21.5202 C   0  0  0  0  0  0
  -18.1912  -26.7920   22.1610 C   0  0  0  0  0  0
  -19.1515  -28.8829   23.2893 C   0  0  0  0  0  0
  -18.9448  -30.1435   23.8902 C   0  0  0  0  0  0
  -17.6454  -30.6582   24.0559 C   0  0  0  0  0  0
  -25.9036  -34.9474   23.5116 C   0  0  0  0  0  0
  -16.5340  -29.9085   23.6330 C   0  0  0  0  0  0
  -16.7252  -28.6504   23.0343 C   0  0  0  0  0  0
  -26.4459  -31.6607   25.0721 C   0  0  0  0  0  0
  -25.3720  -31.3729   26.1470 C   0  0  0  0  0  0
  -27.0283  -30.3043   24.6118 C   0  0  0  0  0  0
  -27.6024  -32.4333   25.7493 C   0  0  0  0  0  0
  -27.5584  -37.1811   24.8457 C   0  0  0  0  0  0
  -21.4132  -29.3030   22.3729 N   0  0  0  0  0  0
  -26.4292  -37.3796   23.9407 N   0  0  0  0  0  0
  -24.6695  -31.0753   22.0997 N   0  0  0  0  0  0
  -23.4178  -28.8182   23.3025 O   0  0  0  0  0  0
  -28.4149  -26.6877   20.0875 O   0  0  0  0  0  0
  -26.5605  -34.8932   22.4683 O   0  0  0  0  0  0
  -23.5348  -32.1412   23.7488 O   0  0  0  0  0  0
  -29.0957  -23.8541   20.6403 C   0  0  0  0  0  0
  -29.4834  -22.5133   20.8901 C   0  0  0  0  0  0
  -29.4869  -23.5084   18.2759 C   0  0  0  0  0  0
  -29.0984  -24.3682   19.3251 C   0  0  0  0  0  0
  -29.8792  -21.6490   19.8372 C   0  0  0  0  0  0
  -29.8771  -22.1692   18.5133 C   0  0  0  0  0  0
  -26.9394  -19.9166   20.8309 C   0  0  0  0  0  0
  -27.4362  -18.3104   18.9058 C   0  0  0  0  0  0
  -28.1366  -17.1560   19.6041 C   0  0  0  0  0  0
  -27.8951  -19.5514   19.6830 C   0  0  2  0  0  0
  -29.4783  -17.7499   20.0481 C   0  0  2  0  0  0
  -30.2936  -21.3210   17.3206 C   0  0  0  0  0  0
  -25.5614  -20.4472   20.4618 C   0  0  0  0  0  0
  -30.3035  -20.1855   20.1374 C   0  0  0  0  0  0
  -28.7094  -25.8150   18.9790 C   0  0  0  0  0  0
  -30.1318  -16.9399   21.2184 C   0  0  0  0  0  0
  -29.9181  -15.4752   21.1326 N   0  0  0  0  0  0
  -29.1892  -19.2018   20.3325 N   0  3  1  0  0  0
  -27.2532  -19.7916   22.0191 O   0  0  0  0  0  0
  -31.4780  -12.4562   19.1158 H   0  0  0  0  0  0
  -30.3616  -11.3179   19.8164 H   0  0  0  0  0  0
  -29.7456  -11.7874   17.4285 H   0  0  0  0  0  0
  -29.6560  -13.4979   17.7648 H   0  0  0  0  0  0
  -27.8377  -11.3011   18.8147 H   0  0  0  0  0  0
  -27.3676  -12.6281   17.7880 H   0  0  0  0  0  0
  -27.6993  -14.2387   19.5785 H   0  0  0  0  0  0
  -28.6980  -11.9360   21.3220 H   0  0  0  0  0  0
  -28.4592  -13.5582   21.8836 H   0  0  0  0  0  0
  -25.2759   -9.5653   22.4764 H   0  0  0  0  0  0
  -23.9994   -7.4611   22.7479 H   0  0  0  0  0  0
  -21.0838   -8.8758   19.8961 H   0  0  0  0  0  0
  -22.3699  -10.9656   19.6173 H   0  0  0  0  0  0
  -21.1984   -7.6139   23.9718 H   0  0  0  0  0  0
  -21.1485   -6.0520   25.9081 H   0  0  0  0  0  0
  -22.0602   -2.7610   23.2856 H   0  0  0  0  0  0
  -22.4065  -11.9871   22.4799 H   0  0  0  0  0  0
  -21.1114  -13.1282   22.2612 H   0  0  0  0  0  0
  -24.6358  -15.8173   20.4725 H   0  0  0  0  0  0
  -26.2397  -15.6044   19.9846 H   0  0  0  0  0  0
  -26.7121  -32.5515   23.1142 H   0  0  0  0  0  0
  -25.0050  -33.9774   25.0453 H   0  0  0  0  0  0
  -22.6926  -31.3067   21.4105 H   0  0  0  0  0  0
  -23.3754  -35.9643   23.3294 H   0  0  0  0  0  0
  -24.3584  -36.8942   22.2055 H   0  0  0  0  0  0
  -23.7239  -37.6517   23.6660 H   0  0  0  0  0  0
  -26.0521  -31.5924   20.5982 H   0  0  0  0  0  0
  -26.8206  -30.8761   21.9870 H   0  0  0  0  0  0
  -28.1032  -29.0884   21.1540 H   0  0  0  0  0  0
  -26.0052  -25.9387   19.0656 H   0  0  0  0  0  0
  -23.9632  -27.2771   19.0729 H   0  0  0  0  0  0
  -23.7247  -30.5970   19.4051 H   0  0  0  0  0  0
  -22.7366  -29.2450   19.8676 H   0  0  0  0  0  0
  -25.1295  -36.1964   25.0827 H   0  0  0  0  0  0
  -20.9938  -28.3215   24.1431 H   0  0  0  0  0  0
  -20.5629  -26.2259   23.3601 H   0  0  0  0  0  0
  -21.6623  -26.7412   22.1222 H   0  0  0  0  0  0
  -19.6892  -25.6283   21.1231 H   0  0  0  0  0  0
  -19.6689  -27.3185   20.6735 H   0  0  0  0  0  0
  -17.4181  -26.6661   21.4013 H   0  0  0  0  0  0
  -18.0311  -26.0055   22.9001 H   0  0  0  0  0  0
  -19.7926  -30.7245   24.2276 H   0  0  0  0  0  0
  -17.5013  -31.6267   24.5150 H   0  0  0  0  0  0
  -15.5346  -30.2994   23.7655 H   0  0  0  0  0  0
  -15.8646  -28.0837   22.7050 H   0  0  0  0  0  0
  -24.5894  -30.7071   25.7817 H   0  0  0  0  0  0
  -24.8914  -32.2892   26.4907 H   0  0  0  0  0  0
  -25.8072  -30.8913   27.0234 H   0  0  0  0  0  0
  -26.2832  -29.6829   24.1138 H   0  0  0  0  0  0
  -27.3994  -29.7263   25.4591 H   0  0  0  0  0  0
  -27.8692  -30.4347   23.9304 H   0  0  0  0  0  0
  -27.2620  -33.3606   26.2112 H   0  0  0  0  0  0
  -28.3815  -32.6942   25.0321 H   0  0  0  0  0  0
  -28.0708  -31.8437   26.5383 H   0  0  0  0  0  0
  -28.2593  -38.0119   24.7526 H   0  0  0  0  0  0
  -28.1090  -36.2653   24.6252 H   0  0  0  0  0  0
  -27.2304  -37.1428   25.8861 H   0  0  0  0  0  0
  -20.9280  -29.8793   21.6992 H   0  0  0  0  0  0
  -26.0177  -38.2869   24.1431 H   0  0  0  0  0  0
  -28.8018  -24.4903   21.4639 H   0  0  0  0  0  0
  -29.4753  -22.1514   21.9095 H   0  0  0  0  0  0
  -29.4896  -23.8937   17.2649 H   0  0  0  0  0  0
  -26.3528  -18.1856   18.8695 H   0  0  0  0  0  0
  -27.7856  -18.3839   17.8748 H   0  0  0  0  0  0
  -28.2621  -16.2983   18.9439 H   0  0  0  0  0  0
  -27.5609  -16.8461   20.4763 H   0  0  0  0  0  0
  -27.9593  -20.3902   18.9934 H   0  0  0  0  0  0
  -30.1408  -17.6995   19.1817 H   0  0  0  0  0  0
  -30.1206  -21.8436   16.3789 H   0  0  0  0  0  0
  -29.7294  -20.3894   17.2806 H   0  0  0  0  0  0
  -31.3568  -21.0835   17.3696 H   0  0  0  0  0  0
  -25.5867  -20.9298   19.4850 H   0  0  0  0  0  0
  -25.2258  -21.1760   21.1991 H   0  0  0  0  0  0
  -24.8409  -19.6307   20.4266 H   0  0  0  0  0  0
  -30.9178  -20.1792   21.0381 H   0  0  0  0  0  0
  -30.9673  -19.8315   19.3504 H   0  0  0  0  0  0
  -27.9379  -25.7921   18.2105 H   0  0  0  0  0  0
  -29.5705  -26.2551   18.4753 H   0  0  0  0  0  0
  -29.6980  -17.2594   22.1667 H   0  0  0  0  0  0
  -31.1979  -17.1643   21.2836 H   0  0  0  0  0  0
  -29.0374  -15.1454   21.4988 H   0  0  0  0  0  0
  -28.9155  -19.2763   21.3078 H   0  0  0  0  0  0
  1 25  1  0  0  0
  1 30  2  0  0  0
  1 87  1  0  0  0
  2  3  1  0  0  0
  2 25  1  0  0  0
  2 90  1  0  0  0
  2 91  1  0  0  0
  3  4  1  0  0  0
  3 92  1  0  0  0
  3 93  1  0  0  0
  4  5  1  0  0  0
  4 94  1  0  0  0
  4 95  1  0  0  0
  5  6  1  0  0  0
  5 26  1  0  0  0
  5 96  1  0  0  0
  6 25  1  0  0  0
  6 97  1  0  0  0
  6 98  1  0  0  0
  7  8  2  0  0  0
  7 26  1  0  0  0
  7 29  1  0  0  0
  8  9  1  0  0  0
  8 22  1  0  0  0
  9 10  1  0  0  0
  9 27  2  0  0  0
 10 11  2  0  0  0
 10 15  1  0  0  0
 11 12  1  0  0  0
 11 99  1  0  0  0
 12 13  2  0  0  0
 12100  1  0  0  0
 13 14  1  0  0  0
 13 31  1  0  0  0
 14 15  2  0  0  0
 14101  1  0  0  0
 15102  1  0  0  0
 16 17  2  0  0  0
 16 21  1  0  0  0
 16 31  1  0  0  0
 17 18  1  0  0  0
 17103  1  0  0  0
 18 19  2  0  0  0
 18104  1  0  0  0
 19 20  1  0  0  0
 19 24  1  0  0  0
 20 21  2  0  0  0
 20105  1  0  0  0
 21 23  1  0  0  0
 22 28  1  0  0  0
 22 32  2  0  0  0
 26 27  1  0  0  0
 28106  1  0  0  0
 28107  1  0  0  0
 29108  1  0  0  0
 29109  1  0  0  0
 33 34  1  0  0  0
 33 66  1  0  0  0
 33 70  2  0  0  0
 34 36  1  0  0  0
 34 59  1  0  0  0
 34110  1  0  0  0
 35 44  2  0  0  0
 35 45  1  0  0  0
 35 68  1  0  0  0
 36 56  1  0  0  0
 36111  1  0  0  0
 37 39  1  0  0  0
 37 47  1  0  0  0
 37 66  1  0  0  0
 37112  1  0  0  0
 38 43  2  0  0  0
 38 46  1  0  0  0
 38 47  1  0  0  0
 39 64  1  0  0  0
 39 67  2  0  0  0
 40 52  1  0  0  0
 40 53  2  0  0  0
 40 58  1  0  0  0
 41113  1  0  0  0
 41114  1  0  0  0
 41115  1  0  0  0
 41 48  1  0  0  0
 42 43  1  0  0  0
 42 66  1  0  0  0
 42116  1  0  0  0
 42117  1  0  0  0
 43 44  1  0  0  0
 44118  1  0  0  0
 45 46  2  0  0  0
 45119  1  0  0  0
 46120  1  0  0  0
 47121  1  0  0  0
 47122  1  0  0  0
 48 56  1  0  0  0
 48 65  1  0  0  0
 48123  1  0  0  0
 49 50  1  0  0  0
 49 53  1  0  0  0
 49 64  1  0  0  0
 49124  1  0  0  0
 50 51  1  0  0  0
 50125  1  0  0  0
 50126  1  0  0  0
 51 52  1  0  0  0
 51127  1  0  0  0
 51128  1  0  0  0
 52129  1  0  0  0
 52130  1  0  0  0
 53 54  1  0  0  0
 54 55  2  0  0  0
 54131  1  0  0  0
 55 57  1  0  0  0
 55132  1  0  0  0
 56 69  2  0  0  0
 57 58  2  0  0  0
 57133  1  0  0  0
 58134  1  0  0  0
 59 60  1  0  0  0
 59 61  1  0  0  0
 59 62  1  0  0  0
 60135  1  0  0  0
 60136  1  0  0  0
 60137  1  0  0  0
 61138  1  0  0  0
 61139  1  0  0  0
 61140  1  0  0  0
 62141  1  0  0  0
 62142  1  0  0  0
 62143  1  0  0  0
 63 65  1  0  0  0
 63144  1  0  0  0
 63145  1  0  0  0
 63146  1  0  0  0
 64147  1  0  0  0
 65148  1  0  0  0
 68 85  1  0  0  0
 71 72  2  0  0  0
 71 74  1  0  0  0
 71149  1  0  0  0
 72 75  1  0  0  0
 72150  1  0  0  0
 73 74  2  0  0  0
 73 76  1  0  0  0
 73151  1  0  0  0
 74 85  1  0  0  0
 75 76  2  0  0  0
 75 84  1  0  0  0
 76 82  1  0  0  0
 77 83  1  0  0  0
 77 89  2  0  0  0
 77 80  1  0  0  0
 78 79  1  0  0  0
 78 80  1  0  0  0
 78152  1  0  0  0
 78153  1  0  0  0
 79 81  1  0  0  0
 79154  1  0  0  0
 79155  1  0  0  0
 80 88  1  0  0  0
 80156  1  0  0  0
 81 86  1  0  0  0
 81 88  1  0  0  0
 81157  1  0  0  0
 82158  1  0  0  0
 82159  1  0  0  0
 82160  1  0  0  0
 83161  1  0  0  0
 83162  1  0  0  0
 83163  1  0  0  0
 84164  1  0  0  0
 84165  1  0  0  0
 84 88  1  0  0  0
 85166  1  0  0  0
 85167  1  0  0  0
 86 87  1  0  0  0
 86168  1  0  0  0
 86169  1  0  0  0
 87170  1  0  0  0
 88171  1  0  0  0
M  CHG  1  88   1
M  ISO  4   1 100  68 101  85 101  87 100
M  END
> <chiral flag>
0

> <version>
0

> <s_m_source_file>
/data/baiqing/PycharmProjects/Reinvent-master-3.2/result/LINK_invent/BTK/process_docking_weight1_custom_sum_contain_oxygen_bond_distance_aromatic_linkinvent_7_9_3/rearranged_h_0127.sdf

> <i_m_source_file_index>
65

> <r_mmod_Potential_Energy-OPLS-2005>
-230.461547851562

> <r_mmod_Stretch_Energy-OPLS-2005>
46.817626953125

> <r_mmod_Bend_Energy-OPLS-2005>
136.74772644043

> <r_mmod_Torsional_Energy-OPLS-2005>
270.489593505859

> <r_mmod_Improper_Torsional_Energy-OPLS-2005>
4.0264892578125

> <r_mmod_Van_der_Waal_Energy-OPLS-2005>
145.055145263672

> <r_mmod_Electrostatic_Energy-OPLS-2005>
-407.526672363281

> <r_mmod_Solvation_Energy-OPLS-2005>
-441.492370605469

> <b_mmod_Minimization_Converged-OPLS-2005>
0

> <r_mmod_RMS_Derivative-OPLS-2005>
1.0118293762207

$$$$
65
                    3D
 Structure written by MMmdl.
156165  0  0  1  0            999 V2000
  -30.4710  -15.2033   20.3767 C   0  0  0  0  0  0
  -30.4380  -12.7648   19.5218 C   0  0  0  0  0  0
  -29.5320  -12.5643   18.2822 C   0  0  0  0  0  0
  -28.0768  -12.3026   18.7082 C   0  0  0  0  0  0
  -27.6143  -13.2718   19.8254 C   0  0  2  0  0  0
  -28.6507  -13.4246   20.9592 C   0  0  0  0  0  0
  -25.2400  -13.8244   20.5746 C   0  0  0  0  0  0
  -24.1747  -13.0440   20.9263 C   0  0  0  0  0  0
  -24.6396  -11.6935   20.8766 C   0  0  0  0  0  0
  -23.9089  -10.4294   21.0409 C   0  0  0  0  0  0
  -24.3634   -9.4206   21.9185 C   0  0  0  0  0  0
  -23.6305   -8.2242   22.0752 C   0  0  0  0  0  0
  -22.4286   -8.0282   21.3542 C   0  0  0  0  0  0
  -21.9928   -9.0256   20.4643 C   0  0  0  0  0  0
  -22.7260  -10.2134   20.3056 C   0  0  0  0  0  0
  -21.6856   -6.0740   22.5277 C   0  0  0  0  0  0
  -21.4014   -6.5641   23.8211 C   0  0  0  0  0  0
  -21.3662   -5.6793   24.9173 C   0  0  0  0  0  0
  -21.6044   -4.3056   24.7222 C   0  0  0  0  0  0
  -21.8820   -3.8149   23.4343 C   0  0  0  0  0  0
  -21.9193   -4.6966   22.3400 C   0  0  0  0  0  0
  -22.7765  -13.5194   21.1906 C   0  0  0  0  0  0
  -22.1662   -4.2152   21.0978 F   0  0  0  0  0  0
  -21.5631   -3.4539   25.7737 F   0  0  0  0  0  0
  -29.8909  -13.9094   20.3345 N   0  0  0  0  0  0
  -26.2828  -12.9515   20.3232 N   0  0  0  0  0  0
  -25.9334  -11.6623   20.5731 N   0  0  0  0  0  0
  -22.0421  -12.8170   22.0456 N   0  0  0  0  0  0
  -25.4037  -15.1974   20.4159 N   0  0  0  0  0  0
  -31.6901  -15.2006   20.1602 O   0  0  0  0  0  0
  -21.6644   -6.8884   21.4240 O   0  0  0  0  0  0
  -22.3441  -14.5493   20.6744 O   0  0  0  0  0  0
  -24.6608  -31.8273   23.1738 C   0  0  0  0  0  0
  -25.9303  -32.4609   23.8189 C   0  0  1  0  0  0
  -27.2160  -26.9584   20.1769 C   0  0  0  0  0  0
  -25.5983  -33.8418   24.2100 N   0  0  0  0  0  0
  -23.4735  -30.4415   21.5227 C   0  0  2  0  0  0
  -24.9268  -28.8379   20.1108 C   0  0  0  0  0  0
  -22.7650  -29.4462   22.4787 C   0  0  0  0  0  0
  -18.0319  -28.1414   22.8474 C   0  0  0  0  0  0
  -24.1491  -36.7213   23.2645 C   0  0  0  0  0  0
  -26.0416  -30.6449   21.3989 C   0  0  0  0  0  0
  -26.1109  -29.2377   20.7435 C   0  0  0  0  0  0
  -27.2515  -28.3186   20.7542 C   0  0  0  0  0  0
  -26.0040  -26.7107   19.4909 C   0  0  0  0  0  0
  -24.8975  -27.5941   19.4643 C   0  0  0  0  0  0
  -23.7116  -29.7618   20.1471 C   0  0  0  0  0  0
  -25.4131  -36.2978   24.0303 C   0  0  1  0  0  0
  -20.5943  -28.3753   23.1198 C   0  0  2  0  0  0
  -20.6793  -26.9438   22.5404 C   0  0  0  0  0  0
  -19.5764  -26.6389   21.5215 C   0  0  0  0  0  0
  -18.1948  -26.7948   22.1627 C   0  0  0  0  0  0
  -19.1579  -28.8904   23.2825 C   0  0  0  0  0  0
  -18.9489  -30.1495   23.8857 C   0  0  0  0  0  0
  -17.6483  -30.6602   24.0563 C   0  0  0  0  0  0
  -25.9094  -34.9360   23.5019 C   0  0  0  0  0  0
  -16.5374  -29.9093   23.6346 C   0  0  0  0  0  0
  -16.7302  -28.6515   23.0362 C   0  0  0  0  0  0
  -26.4565  -31.6533   25.0697 C   0  0  0  0  0  0
  -25.3704  -31.3776   26.1364 C   0  0  0  0  0  0
  -27.0447  -30.2904   24.6393 C   0  0  0  0  0  0
  -27.6064  -32.4331   25.7500 C   0  0  0  0  0  0
  -27.5568  -37.1768   24.8467 C   0  0  0  0  0  0
  -21.4322  -29.3049   22.3543 N   0  0  0  0  0  0
  -26.4278  -37.3715   23.9408 N   0  0  0  0  0  0
  -24.7466  -30.9967   22.0861 N   0  0  0  0  0  0
  -23.4209  -28.8023   23.3012 O   0  0  0  0  0  0
  -28.2015  -25.8465   20.2653 O   0  0  0  0  0  0
  -26.5697  -34.8886   22.4609 O   0  0  0  0  0  0
  -23.5686  -32.1227   23.6851 O   0  0  0  0  0  0
  -28.0856  -21.6823   21.1800 C   0  0  0  0  0  0
  -28.4724  -20.2467   21.2269 C   0  0  0  0  0  0
  -28.5582  -22.7129   20.2611 C   0  0  0  0  0  0
  -29.4076  -19.6281   20.3089 C   0  0  0  0  0  0
  -29.4844  -21.9956   19.3958 C   0  0  0  0  0  0
  -27.0038  -18.2057   21.9680 C   0  0  0  0  0  0
  -26.4156  -19.4192   22.6463 C   0  0  0  0  0  0
  -27.8891  -19.3837   22.3062 C   0  0  0  0  0  0
  -30.1242  -22.7682   18.2607 C   0  0  0  0  0  0
  -27.8172  -24.2778   20.0365 C   0  0  0  0  0  0
  -30.1625  -18.0586   20.3382 C   0  0  0  0  0  0
  -29.8694  -20.6224   19.4401 N   0  0  0  0  0  0
  -29.7314  -16.4731   20.4560 N   0  0  0  0  0  0
  -31.4610  -12.9547   19.1941 H   0  0  0  0  0  0
  -30.4873  -11.8528   20.1192 H   0  0  0  0  0  0
  -29.8986  -11.7388   17.6705 H   0  0  0  0  0  0
  -29.5739  -13.4553   17.6539 H   0  0  0  0  0  0
  -28.0201  -11.2750   19.0691 H   0  0  0  0  0  0
  -27.4092  -12.3614   17.8477 H   0  0  0  0  0  0
  -27.5366  -14.2441   19.3373 H   0  0  0  0  0  0
  -28.8039  -12.4840   21.4900 H   0  0  0  0  0  0
  -28.3033  -14.1481   21.6986 H   0  0  0  0  0  0
  -25.2775   -9.5682   22.4766 H   0  0  0  0  0  0
  -24.0012   -7.4633   22.7470 H   0  0  0  0  0  0
  -21.0861   -8.8776   19.8946 H   0  0  0  0  0  0
  -22.3715  -10.9676   19.6168 H   0  0  0  0  0  0
  -21.2002   -7.6148   23.9714 H   0  0  0  0  0  0
  -21.1487   -6.0524   25.9078 H   0  0  0  0  0  0
  -22.0596   -2.7610   23.2841 H   0  0  0  0  0  0
  -22.4059  -11.9840   22.4845 H   0  0  0  0  0  0
  -21.1030  -13.1168   22.2655 H   0  0  0  0  0  0
  -24.6329  -15.8463   20.5286 H   0  0  0  0  0  0
  -26.2379  -15.6338   20.0476 H   0  0  0  0  0  0
  -26.7369  -32.5164   23.0904 H   0  0  0  0  0  0
  -25.0089  -33.9501   25.0224 H   0  0  0  0  0  0
  -22.7854  -31.2726   21.3557 H   0  0  0  0  0  0
  -23.3757  -35.9542   23.3294 H   0  0  0  0  0  0
  -24.3567  -36.8866   22.2060 H   0  0  0  0  0  0
  -23.7239  -37.6399   23.6700 H   0  0  0  0  0  0
  -26.2137  -31.3875   20.6186 H   0  0  0  0  0  0
  -26.9049  -30.7052   22.0497 H   0  0  0  0  0  0
  -28.1451  -28.6204   21.2823 H   0  0  0  0  0  0
  -25.8664  -25.7641   18.9910 H   0  0  0  0  0  0
  -23.9983  -27.2833   18.9500 H   0  0  0  0  0  0
  -23.8638  -30.5323   19.3904 H   0  0  0  0  0  0
  -22.8219  -29.2149   19.8299 H   0  0  0  0  0  0
  -25.1326  -36.1785   25.0795 H   0  0  0  0  0  0
  -21.0038  -28.3360   24.1321 H   0  0  0  0  0  0
  -20.5667  -26.2372   23.3642 H   0  0  0  0  0  0
  -21.6658  -26.7412   22.1211 H   0  0  0  0  0  0
  -19.6917  -25.6290   21.1270 H   0  0  0  0  0  0
  -19.6700  -27.3175   20.6725 H   0  0  0  0  0  0
  -17.4216  -26.6692   21.4035 H   0  0  0  0  0  0
  -18.0346  -26.0100   22.9035 H   0  0  0  0  0  0
  -19.7961  -30.7327   24.2203 H   0  0  0  0  0  0
  -17.5033  -31.6275   24.5174 H   0  0  0  0  0  0
  -15.5372  -30.2983   23.7690 H   0  0  0  0  0  0
  -15.8702  -28.0822   22.7101 H   0  0  0  0  0  0
  -24.5905  -30.7099   25.7687 H   0  0  0  0  0  0
  -24.8871  -32.2972   26.4670 H   0  0  0  0  0  0
  -25.7959  -30.9033   27.0216 H   0  0  0  0  0  0
  -26.3102  -29.6599   24.1370 H   0  0  0  0  0  0
  -27.3962  -29.7250   25.5033 H   0  0  0  0  0  0
  -27.9055  -30.4091   23.9809 H   0  0  0  0  0  0
  -27.2634  -33.3665   26.1980 H   0  0  0  0  0  0
  -28.3934  -32.6838   25.0373 H   0  0  0  0  0  0
  -28.0668  -31.8517   26.5499 H   0  0  0  0  0  0
  -28.2582  -38.0067   24.7507 H   0  0  0  0  0  0
  -28.1066  -36.2594   24.6309 H   0  0  0  0  0  0
  -27.2285  -37.1434   25.8871 H   0  0  0  0  0  0
  -20.9563  -29.8758   21.6697 H   0  0  0  0  0  0
  -26.0127  -38.2778   24.1413 H   0  0  0  0  0  0
  -27.3408  -22.0012   21.8951 H   0  0  0  0  0  0
  -26.7351  -18.0444   20.9256 H   0  0  0  0  0  0
  -27.0928  -17.3045   22.5726 H   0  0  0  0  0  0
  -26.1326  -19.3075   23.6917 H   0  0  0  0  0  0
  -25.7560  -20.0463   22.0494 H   0  0  0  0  0  0
  -28.5953  -19.2607   23.1260 H   0  0  0  0  0  0
  -29.3625  -23.1431   17.5776 H   0  0  0  0  0  0
  -30.8147  -22.1496   17.6867 H   0  0  0  0  0  0
  -30.6816  -23.6196   18.6522 H   0  0  0  0  0  0
  -26.8756  -24.1716   20.5762 H   0  0  0  0  0  0
  -27.5278  -24.2428   18.9862 H   0  0  0  0  0  0
  -30.8956  -18.1662   21.1381 H   0  0  0  0  0  0
  -30.7721  -18.0677   19.4346 H   0  0  0  0  0  0
  -28.7399  -16.3474   20.5887 H   0  0  0  0  0  0
  1 25  1  0  0  0
  1 30  2  0  0  0
  1 83  1  0  0  0
  2  3  1  0  0  0
  2 25  1  0  0  0
  2 84  1  0  0  0
  2 85  1  0  0  0
  3  4  1  0  0  0
  3 86  1  0  0  0
  3 87  1  0  0  0
  4  5  1  0  0  0
  4 88  1  0  0  0
  4 89  1  0  0  0
  5  6  1  0  0  0
  5 26  1  0  0  0
  5 90  1  0  0  0
  6 25  1  0  0  0
  6 91  1  0  0  0
  6 92  1  0  0  0
  7  8  2  0  0  0
  7 26  1  0  0  0
  7 29  1  0  0  0
  8  9  1  0  0  0
  8 22  1  0  0  0
  9 10  1  0  0  0
  9 27  2  0  0  0
 10 11  2  0  0  0
 10 15  1  0  0  0
 11 12  1  0  0  0
 11 93  1  0  0  0
 12 13  2  0  0  0
 12 94  1  0  0  0
 13 14  1  0  0  0
 13 31  1  0  0  0
 14 15  2  0  0  0
 14 95  1  0  0  0
 15 96  1  0  0  0
 16 17  2  0  0  0
 16 21  1  0  0  0
 16 31  1  0  0  0
 17 18  1  0  0  0
 17 97  1  0  0  0
 18 19  2  0  0  0
 18 98  1  0  0  0
 19 20  1  0  0  0
 19 24  1  0  0  0
 20 21  2  0  0  0
 20 99  1  0  0  0
 21 23  1  0  0  0
 22 28  1  0  0  0
 22 32  2  0  0  0
 26 27  1  0  0  0
 28100  1  0  0  0
 28101  1  0  0  0
 29102  1  0  0  0
 29103  1  0  0  0
 33 34  1  0  0  0
 33 66  1  0  0  0
 33 70  2  0  0  0
 34 36  1  0  0  0
 34 59  1  0  0  0
 34104  1  0  0  0
 35 44  2  0  0  0
 35 45  1  0  0  0
 35 68  1  0  0  0
 36 56  1  0  0  0
 36105  1  0  0  0
 37 39  1  0  0  0
 37 47  1  0  0  0
 37 66  1  0  0  0
 37106  1  0  0  0
 38 43  2  0  0  0
 38 46  1  0  0  0
 38 47  1  0  0  0
 39 64  1  0  0  0
 39 67  2  0  0  0
 40 52  1  0  0  0
 40 53  2  0  0  0
 40 58  1  0  0  0
 41107  1  0  0  0
 41108  1  0  0  0
 41109  1  0  0  0
 41 48  1  0  0  0
 42 43  1  0  0  0
 42 66  1  0  0  0
 42110  1  0  0  0
 42111  1  0  0  0
 43 44  1  0  0  0
 44112  1  0  0  0
 45 46  2  0  0  0
 45113  1  0  0  0
 46114  1  0  0  0
 47115  1  0  0  0
 47116  1  0  0  0
 48 56  1  0  0  0
 48 65  1  0  0  0
 48117  1  0  0  0
 49 50  1  0  0  0
 49 53  1  0  0  0
 49 64  1  0  0  0
 49118  1  0  0  0
 50 51  1  0  0  0
 50119  1  0  0  0
 50120  1  0  0  0
 51 52  1  0  0  0
 51121  1  0  0  0
 51122  1  0  0  0
 52123  1  0  0  0
 52124  1  0  0  0
 53 54  1  0  0  0
 54 55  2  0  0  0
 54125  1  0  0  0
 55 57  1  0  0  0
 55126  1  0  0  0
 56 69  2  0  0  0
 57 58  2  0  0  0
 57127  1  0  0  0
 58128  1  0  0  0
 59 60  1  0  0  0
 59 61  1  0  0  0
 59 62  1  0  0  0
 60129  1  0  0  0
 60130  1  0  0  0
 60131  1  0  0  0
 61132  1  0  0  0
 61133  1  0  0  0
 61134  1  0  0  0
 62135  1  0  0  0
 62136  1  0  0  0
 62137  1  0  0  0
 63 65  1  0  0  0
 63138  1  0  0  0
 63139  1  0  0  0
 63140  1  0  0  0
 64141  1  0  0  0
 65142  1  0  0  0
 68 80  1  0  0  0
 71 72  2  0  0  0
 71 73  1  0  0  0
 71143  1  0  0  0
 72 74  1  0  0  0
 72 78  1  0  0  0
 73 75  2  0  0  0
 73 80  1  0  0  0
 74 81  1  0  0  0
 74 82  2  0  0  0
 75 79  1  0  0  0
 75 82  1  0  0  0
 76 77  1  0  0  0
 76 78  1  0  0  0
 76144  1  0  0  0
 76145  1  0  0  0
 77 78  1  0  0  0
 77146  1  0  0  0
 77147  1  0  0  0
 78148  1  0  0  0
 79149  1  0  0  0
 79150  1  0  0  0
 79151  1  0  0  0
 80152  1  0  0  0
 80153  1  0  0  0
 81 83  1  0  0  0
 81154  1  0  0  0
 81155  1  0  0  0
 83156  1  0  0  0
M  ISO  4   1 100  68 101  80 101  83 100
M  END
> <chiral flag>
0

> <version>
0

> <s_m_source_file>
/data/baiqing/PycharmProjects/Reinvent-master-3.2/result/LINK_invent/BTK/process_docking_weight1_custom_sum_contain_oxygen_bond_distance_aromatic_linkinvent_7_9_3/rearranged_h_0127.sdf

> <i_m_source_file_index>
66

> <r_mmod_Potential_Energy-OPLS-2005>
884.630920410156

> <r_mmod_Stretch_Energy-OPLS-2005>
463.771148681641

> <r_mmod_Bend_Energy-OPLS-2005>
426.266571044922

> <r_mmod_Torsional_Energy-OPLS-2005>
251.096496582031

> <r_mmod_Improper_Torsional_Energy-OPLS-2005>
8.66754055023193

> <r_mmod_Van_der_Waal_Energy-OPLS-2005>
123.54655456543

> <r_mmod_Electrostatic_Energy-OPLS-2005>
-568.90771484375

> <r_mmod_Solvation_Energy-OPLS-2005>
-226.733169555664

> <b_mmod_Minimization_Converged-OPLS-2005>
0

> <r_mmod_RMS_Derivative-OPLS-2005>
0.694503962993622

$$$$
66
                    3D
 Structure written by MMmdl.
162170  0  0  1  0            999 V2000
  -30.7353  -14.4322   20.6298 C   0  0  0  0  0  0
  -30.4096  -12.2821   19.4588 C   0  0  0  0  0  0
  -29.5144  -12.4923   18.2229 C   0  0  0  0  0  0
  -28.0227  -12.3923   18.6022 C   0  0  0  0  0  0
  -27.6596  -13.2200   19.8676 C   0  0  2  0  0  0
  -28.6850  -13.0019   21.0036 C   0  0  0  0  0  0
  -25.2497  -13.8177   20.5639 C   0  0  0  0  0  0
  -24.1795  -13.0419   20.9189 C   0  0  0  0  0  0
  -24.6366  -11.6896   20.8681 C   0  0  0  0  0  0
  -23.9082  -10.4276   21.0394 C   0  0  0  0  0  0
  -24.3621   -9.4196   21.9177 C   0  0  0  0  0  0
  -23.6275   -8.2231   22.0764 C   0  0  0  0  0  0
  -22.4248   -8.0297   21.3574 C   0  0  0  0  0  0
  -21.9880   -9.0277   20.4695 C   0  0  0  0  0  0
  -22.7216  -10.2134   20.3082 C   0  0  0  0  0  0
  -21.6853   -6.0759   22.5292 C   0  0  0  0  0  0
  -21.4024   -6.5659   23.8239 C   0  0  0  0  0  0
  -21.3648   -5.6811   24.9183 C   0  0  0  0  0  0
  -21.6039   -4.3069   24.7256 C   0  0  0  0  0  0
  -21.8799   -3.8161   23.4364 C   0  0  0  0  0  0
  -21.9161   -4.6977   22.3425 C   0  0  0  0  0  0
  -22.7789  -13.5224   21.1791 C   0  0  0  0  0  0
  -22.1634   -4.2151   21.1002 F   0  0  0  0  0  0
  -21.5601   -3.4578   25.7778 F   0  0  0  0  0  0
  -30.0305  -13.2798   20.4724 N   0  0  0  0  0  0
  -26.2958  -12.9409   20.3227 N   0  0  0  0  0  0
  -25.9308  -11.6536   20.5657 N   0  0  0  0  0  0
  -22.0350  -12.8371   22.0382 N   0  0  0  0  0  0
  -25.4004  -15.1918   20.4030 N   0  0  0  0  0  0
  -31.8103  -14.6378   20.0597 O   0  0  0  0  0  0
  -21.6616   -6.8893   21.4266 O   0  0  0  0  0  0
  -22.3526  -14.5498   20.6538 O   0  0  0  0  0  0
  -24.6171  -31.8709   23.2169 C   0  0  0  0  0  0
  -25.9063  -32.4845   23.8451 C   0  0  1  0  0  0
  -27.1961  -27.4190   20.1216 C   0  0  0  0  0  0
  -25.5906  -33.8631   24.2374 N   0  0  0  0  0  0
  -23.4023  -30.5017   21.5591 C   0  0  2  0  0  0
  -24.8436  -28.9881   20.1043 C   0  0  0  0  0  0
  -22.7427  -29.4663   22.5005 C   0  0  0  0  0  0
  -18.0281  -28.1381   22.8506 C   0  0  0  0  0  0
  -24.1469  -36.7332   23.2632 C   0  0  0  0  0  0
  -25.9330  -30.8426   21.3673 C   0  0  0  0  0  0
  -26.0061  -29.4794   20.7097 C   0  0  0  0  0  0
  -27.1913  -28.7046   20.7128 C   0  0  0  0  0  0
  -26.0275  -26.9758   19.4575 C   0  0  0  0  0  0
  -24.8531  -27.7417   19.4630 C   0  0  0  0  0  0
  -23.6059  -29.8519   20.1657 C   0  0  0  0  0  0
  -25.4084  -36.3124   24.0344 C   0  0  1  0  0  0
  -20.5877  -28.3654   23.1333 C   0  0  2  0  0  0
  -20.6769  -26.9391   22.5425 C   0  0  0  0  0  0
  -19.5734  -26.6392   21.5219 C   0  0  0  0  0  0
  -18.1916  -26.7931   22.1638 C   0  0  0  0  0  0
  -19.1532  -28.8840   23.2916 C   0  0  0  0  0  0
  -18.9453  -30.1445   23.8921 C   0  0  0  0  0  0
  -17.6450  -30.6589   24.0576 C   0  0  0  0  0  0
  -25.9025  -34.9490   23.5154 C   0  0  0  0  0  0
  -16.5345  -29.9088   23.6336 C   0  0  0  0  0  0
  -16.7265  -28.6509   23.0357 C   0  0  0  0  0  0
  -26.4499  -31.6611   25.0765 C   0  0  0  0  0  0
  -25.3776  -31.3723   26.1532 C   0  0  0  0  0  0
  -27.0301  -30.3055   24.6108 C   0  0  0  0  0  0
  -27.6114  -32.4293   25.7503 C   0  0  0  0  0  0
  -27.5571  -37.1812   24.8457 C   0  0  0  0  0  0
  -21.4163  -29.3028   22.3750 N   0  0  0  0  0  0
  -26.4271  -37.3812   23.9424 N   0  0  0  0  0  0
  -24.6694  -31.0833   22.1069 N   0  0  0  0  0  0
  -23.4216  -28.8182   23.3014 O   0  0  0  0  0  0
  -28.3014  -26.5988   20.2303 O   0  0  0  0  0  0
  -26.5575  -34.8934   22.4711 O   0  0  0  0  0  0
  -23.5366  -32.1447   23.7583 O   0  0  0  0  0  0
  -28.7255  -22.8080   20.8117 C   0  0  0  0  0  0
  -30.8898  -22.1303   19.7561 C   0  0  0  0  0  0
  -30.3316  -24.5430   19.7962 C   0  0  0  0  0  0
  -29.8785  -21.7757   20.8869 C   0  0  2  0  0  0
  -29.1789  -24.3015   20.7937 C   0  0  1  0  0  0
  -29.2896  -20.3210   20.8417 C   0  0  0  0  0  0
  -27.9786  -25.1971   20.4226 C   0  0  0  0  0  0
  -30.6908  -16.7662   21.5293 C   0  0  0  0  0  0
  -29.6158  -17.8715   21.3454 C   0  0  0  0  0  0
  -30.1715  -15.3886   21.3919 N   0  0  0  0  0  0
  -31.3907  -23.5194   19.9000 N   0  3  0  0  0  0
  -30.2200  -19.2354   21.2598 N   0  3  0  0  0  0
  -31.4656  -12.3392   19.1890 H   0  0  0  0  0  0
  -30.2714  -11.2798   19.8667 H   0  0  0  0  0  0
  -29.7581  -11.7505   17.4593 H   0  0  0  0  0  0
  -29.7231  -13.4664   17.7749 H   0  0  0  0  0  0
  -27.7865  -11.3409   18.7622 H   0  0  0  0  0  0
  -27.4100  -12.7122   17.7560 H   0  0  0  0  0  0
  -27.7071  -14.2740   19.5855 H   0  0  0  0  0  0
  -28.6353  -11.9744   21.3651 H   0  0  0  0  0  0
  -28.4304  -13.6234   21.8629 H   0  0  0  0  0  0
  -25.2770   -9.5672   22.4757 H   0  0  0  0  0  0
  -24.0000   -7.4632   22.7503 H   0  0  0  0  0  0
  -21.0791   -8.8837   19.9033 H   0  0  0  0  0  0
  -22.3681  -10.9708   19.6224 H   0  0  0  0  0  0
  -21.2063   -7.6173   23.9763 H   0  0  0  0  0  0
  -21.1471   -6.0532   25.9099 H   0  0  0  0  0  0
  -22.0571   -2.7632   23.2869 H   0  0  0  0  0  0
  -22.3888  -12.0162   22.5052 H   0  0  0  0  0  0
  -21.0904  -13.1410   22.2303 H   0  0  0  0  0  0
  -24.5989  -15.8084   20.4922 H   0  0  0  0  0  0
  -26.2048  -15.6485   19.9906 H   0  0  0  0  0  0
  -26.7131  -32.5562   23.1216 H   0  0  0  0  0  0
  -25.0052  -33.9796   25.0513 H   0  0  0  0  0  0
  -22.6903  -31.3191   21.4314 H   0  0  0  0  0  0
  -23.3731  -35.9662   23.3292 H   0  0  0  0  0  0
  -24.3571  -36.8950   22.2047 H   0  0  0  0  0  0
  -23.7213  -37.6538   23.6643 H   0  0  0  0  0  0
  -26.0405  -31.6113   20.6022 H   0  0  0  0  0  0
  -26.8244  -30.8955   21.9795 H   0  0  0  0  0  0
  -28.0826  -29.0747   21.2017 H   0  0  0  0  0  0
  -25.9930  -26.0380   18.9263 H   0  0  0  0  0  0
  -23.9683  -27.3726   18.9630 H   0  0  0  0  0  0
  -23.7102  -30.6371   19.4155 H   0  0  0  0  0  0
  -22.7298  -29.2730   19.8679 H   0  0  0  0  0  0
  -25.1243  -36.2011   25.0833 H   0  0  0  0  0  0
  -20.9958  -28.3203   24.1453 H   0  0  0  0  0  0
  -20.5675  -26.2243   23.3600 H   0  0  0  0  0  0
  -21.6640  -26.7441   22.1205 H   0  0  0  0  0  0
  -19.6897  -25.6314   21.1209 H   0  0  0  0  0  0
  -19.6684  -27.3241   20.6778 H   0  0  0  0  0  0
  -17.4192  -26.6693   21.4036 H   0  0  0  0  0  0
  -18.0322  -26.0066   22.9027 H   0  0  0  0  0  0
  -19.7927  -30.7255   24.2304 H   0  0  0  0  0  0
  -17.5012  -31.6268   24.5174 H   0  0  0  0  0  0
  -15.5347  -30.2994   23.7658 H   0  0  0  0  0  0
  -15.8667  -28.0828   22.7069 H   0  0  0  0  0  0
  -24.5931  -30.7081   25.7895 H   0  0  0  0  0  0
  -24.8990  -32.2878   26.5025 H   0  0  0  0  0  0
  -25.8142  -30.8870   27.0271 H   0  0  0  0  0  0
  -26.2814  -29.6818   24.1210 H   0  0  0  0  0  0
  -27.4146  -29.7301   25.4544 H   0  0  0  0  0  0
  -27.8635  -30.4399   23.9203 H   0  0  0  0  0  0
  -27.2828  -33.3676   26.1997 H   0  0  0  0  0  0
  -28.3982  -32.6686   25.0328 H   0  0  0  0  0  0
  -28.0699  -31.8424   26.5482 H   0  0  0  0  0  0
  -28.2582  -38.0118   24.7530 H   0  0  0  0  0  0
  -28.1068  -36.2655   24.6231 H   0  0  0  0  0  0
  -27.2301  -37.1424   25.8862 H   0  0  0  0  0  0
  -20.9319  -29.8755   21.6985 H   0  0  0  0  0  0
  -26.0167  -38.2885   24.1458 H   0  0  0  0  0  0
  -28.0216  -22.6486   21.6350 H   0  0  0  0  0  0
  -28.1575  -22.5982   19.9015 H   0  0  0  0  0  0
  -30.4187  -22.0339   18.7745 H   0  0  0  0  0  0
  -31.7432  -21.4525   19.7524 H   0  0  0  0  0  0
  -30.7702  -25.5266   19.9794 H   0  0  0  0  0  0
  -29.9520  -24.5686   18.7729 H   0  0  0  0  0  0
  -30.3773  -21.9014   21.8500 H   0  0  0  0  0  0
  -29.5269  -24.5740   21.7935 H   0  0  0  0  0  0
  -28.8927  -20.0947   19.8507 H   0  0  0  0  0  0
  -28.4340  -20.2689   21.5189 H   0  0  0  0  0  0
  -27.2045  -25.0741   21.1861 H   0  0  0  0  0  0
  -27.5661  -24.7913   19.4977 H   0  0  0  0  0  0
  -31.1587  -16.8588   22.5097 H   0  0  0  0  0  0
  -31.4858  -16.9501   20.8026 H   0  0  0  0  0  0
  -28.9030  -17.8471   22.1744 H   0  0  0  0  0  0
  -29.0435  -17.6734   20.4381 H   0  0  0  0  0  0
  -29.3275  -15.1415   21.8909 H   0  0  0  0  0  0
  -32.0675  -23.7060   19.1767 H   0  0  0  0  0  0
  -31.8672  -23.6294   20.7805 H   0  0  0  0  0  0
  -30.6126  -19.4632   22.1593 H   0  0  0  0  0  0
  -30.9770  -19.1914   20.5961 H   0  0  0  0  0  0
  1 25  1  0  0  0
  1 30  2  0  0  0
  1 80  1  0  0  0
  2  3  1  0  0  0
  2 25  1  0  0  0
  2 83  1  0  0  0
  2 84  1  0  0  0
  3  4  1  0  0  0
  3 85  1  0  0  0
  3 86  1  0  0  0
  4  5  1  0  0  0
  4 87  1  0  0  0
  4 88  1  0  0  0
  5  6  1  0  0  0
  5 26  1  0  0  0
  5 89  1  0  0  0
  6 25  1  0  0  0
  6 90  1  0  0  0
  6 91  1  0  0  0
  7  8  2  0  0  0
  7 26  1  0  0  0
  7 29  1  0  0  0
  8  9  1  0  0  0
  8 22  1  0  0  0
  9 10  1  0  0  0
  9 27  2  0  0  0
 10 11  2  0  0  0
 10 15  1  0  0  0
 11 12  1  0  0  0
 11 92  1  0  0  0
 12 13  2  0  0  0
 12 93  1  0  0  0
 13 14  1  0  0  0
 13 31  1  0  0  0
 14 15  2  0  0  0
 14 94  1  0  0  0
 15 95  1  0  0  0
 16 17  2  0  0  0
 16 21  1  0  0  0
 16 31  1  0  0  0
 17 18  1  0  0  0
 17 96  1  0  0  0
 18 19  2  0  0  0
 18 97  1  0  0  0
 19 20  1  0  0  0
 19 24  1  0  0  0
 20 21  2  0  0  0
 20 98  1  0  0  0
 21 23  1  0  0  0
 22 28  1  0  0  0
 22 32  2  0  0  0
 26 27  1  0  0  0
 28 99  1  0  0  0
 28100  1  0  0  0
 29101  1  0  0  0
 29102  1  0  0  0
 33 34  1  0  0  0
 33 66  1  0  0  0
 33 70  2  0  0  0
 34 36  1  0  0  0
 34 59  1  0  0  0
 34103  1  0  0  0
 35 44  2  0  0  0
 35 45  1  0  0  0
 35 68  1  0  0  0
 36 56  1  0  0  0
 36104  1  0  0  0
 37 39  1  0  0  0
 37 47  1  0  0  0
 37 66  1  0  0  0
 37105  1  0  0  0
 38 43  2  0  0  0
 38 46  1  0  0  0
 38 47  1  0  0  0
 39 64  1  0  0  0
 39 67  2  0  0  0
 40 52  1  0  0  0
 40 53  2  0  0  0
 40 58  1  0  0  0
 41106  1  0  0  0
 41107  1  0  0  0
 41108  1  0  0  0
 41 48  1  0  0  0
 42 43  1  0  0  0
 42 66  1  0  0  0
 42109  1  0  0  0
 42110  1  0  0  0
 43 44  1  0  0  0
 44111  1  0  0  0
 45 46  2  0  0  0
 45112  1  0  0  0
 46113  1  0  0  0
 47114  1  0  0  0
 47115  1  0  0  0
 48 56  1  0  0  0
 48 65  1  0  0  0
 48116  1  0  0  0
 49 50  1  0  0  0
 49 53  1  0  0  0
 49 64  1  0  0  0
 49117  1  0  0  0
 50 51  1  0  0  0
 50118  1  0  0  0
 50119  1  0  0  0
 51 52  1  0  0  0
 51120  1  0  0  0
 51121  1  0  0  0
 52122  1  0  0  0
 52123  1  0  0  0
 53 54  1  0  0  0
 54 55  2  0  0  0
 54124  1  0  0  0
 55 57  1  0  0  0
 55125  1  0  0  0
 56 69  2  0  0  0
 57 58  2  0  0  0
 57126  1  0  0  0
 58127  1  0  0  0
 59 60  1  0  0  0
 59 61  1  0  0  0
 59 62  1  0  0  0
 60128  1  0  0  0
 60129  1  0  0  0
 60130  1  0  0  0
 61131  1  0  0  0
 61132  1  0  0  0
 61133  1  0  0  0
 62134  1  0  0  0
 62135  1  0  0  0
 62136  1  0  0  0
 63 65  1  0  0  0
 63137  1  0  0  0
 63138  1  0  0  0
 63139  1  0  0  0
 64140  1  0  0  0
 65141  1  0  0  0
 68 77  1  0  0  0
 71 74  1  0  0  0
 71 75  1  0  0  0
 71142  1  0  0  0
 71143  1  0  0  0
 72 74  1  0  0  0
 72 81  1  0  0  0
 72144  1  0  0  0
 72145  1  0  0  0
 73 75  1  0  0  0
 73 81  1  0  0  0
 73146  1  0  0  0
 73147  1  0  0  0
 74 76  1  0  0  0
 74148  1  0  0  0
 75 77  1  0  0  0
 75149  1  0  0  0
 76 82  1  0  0  0
 76150  1  0  0  0
 76151  1  0  0  0
 77152  1  0  0  0
 77153  1  0  0  0
 78 79  1  0  0  0
 78 80  1  0  0  0
 78154  1  0  0  0
 78155  1  0  0  0
 79 82  1  0  0  0
 79156  1  0  0  0
 79157  1  0  0  0
 80158  1  0  0  0
 81159  1  0  0  0
 81160  1  0  0  0
 82161  1  0  0  0
 82162  1  0  0  0
M  CHG  2  81   1  82   1
M  ISO  4   1 100  68 101  77 101  80 100
M  END
> <chiral flag>
0

> <version>
0

> <s_m_source_file>
/data/baiqing/PycharmProjects/Reinvent-master-3.2/result/LINK_invent/BTK/process_docking_weight1_custom_sum_contain_oxygen_bond_distance_aromatic_linkinvent_7_9_3/rearranged_h_0127.sdf

> <i_m_source_file_index>
67

> <r_mmod_Potential_Energy-OPLS-2005>
-410.175476074219

> <r_mmod_Stretch_Energy-OPLS-2005>
41.2736740112305

> <r_mmod_Bend_Energy-OPLS-2005>
98.3210983276367

> <r_mmod_Torsional_Energy-OPLS-2005>
245.798355102539

> <r_mmod_Improper_Torsional_Energy-OPLS-2005>
2.74974632263184

> <r_mmod_Van_der_Waal_Energy-OPLS-2005>
143.928909301758

> <r_mmod_Electrostatic_Energy-OPLS-2005>
58.3835182189941

> <r_mmod_Solvation_Energy-OPLS-2005>
-1020.20037841797

> <b_mmod_Minimization_Converged-OPLS-2005>
0

> <r_mmod_RMS_Derivative-OPLS-2005>
6.17019319534302

$$$$
67
                    3D
 Structure written by MMmdl.
163172  0  0  1  0            999 V2000
  -30.6946  -14.4837   20.4420 C   0  0  0  0  0  0
  -30.4394  -12.2811   19.4401 C   0  0  0  0  0  0
  -29.5163  -12.4262   18.2130 C   0  0  0  0  0  0
  -28.0285  -12.3420   18.6184 C   0  0  0  0  0  0
  -27.6634  -13.2003   19.8607 C   0  0  2  0  0  0
  -28.7081  -13.0392   20.9876 C   0  0  0  0  0  0
  -25.2606  -13.8155   20.5631 C   0  0  0  0  0  0
  -24.1865  -13.0483   20.9218 C   0  0  0  0  0  0
  -24.6401  -11.6934   20.8803 C   0  0  0  0  0  0
  -23.9076  -10.4313   21.0470 C   0  0  0  0  0  0
  -24.3612   -9.4237   21.9250 C   0  0  0  0  0  0
  -23.6276   -8.2245   22.0788 C   0  0  0  0  0  0
  -22.4264   -8.0304   21.3561 C   0  0  0  0  0  0
  -21.9912   -9.0303   20.4650 C   0  0  0  0  0  0
  -22.7228  -10.2201   20.3094 C   0  0  0  0  0  0
  -21.6831   -6.0751   22.5274 C   0  0  0  0  0  0
  -21.4005   -6.5651   23.8216 C   0  0  0  0  0  0
  -21.3642   -5.6801   24.9179 C   0  0  0  0  0  0
  -21.6030   -4.3060   24.7240 C   0  0  0  0  0  0
  -21.8817   -3.8164   23.4342 C   0  0  0  0  0  0
  -21.9201   -4.6975   22.3415 C   0  0  0  0  0  0
  -22.7874  -13.5327   21.1838 C   0  0  0  0  0  0
  -22.1658   -4.2183   21.0975 F   0  0  0  0  0  0
  -21.5649   -3.4543   25.7748 F   0  0  0  0  0  0
  -30.0339  -13.2992   20.4087 N   0  0  0  0  0  0
  -26.3043  -12.9309   20.3265 N   0  0  0  0  0  0
  -25.9316  -11.6519   20.5732 N   0  0  0  0  0  0
  -22.0415  -12.8420   22.0388 N   0  0  0  0  0  0
  -25.4498  -15.1854   20.4063 N   0  0  0  0  0  0
  -31.9015  -14.5972   20.2461 O   0  0  0  0  0  0
  -21.6608   -6.8907   21.4237 O   0  0  0  0  0  0
  -22.3602  -14.5639   20.6644 O   0  0  0  0  0  0
  -24.6119  -31.8731   23.2240 C   0  0  0  0  0  0
  -25.9035  -32.4852   23.8503 C   0  0  1  0  0  0
  -27.2351  -27.4971   20.0737 C   0  0  0  0  0  0
  -25.5914  -33.8665   24.2435 N   0  0  0  0  0  0
  -23.3989  -30.5076   21.5509 C   0  0  2  0  0  0
  -24.8506  -28.9878   20.1066 C   0  0  0  0  0  0
  -22.7333  -29.4718   22.4861 C   0  0  0  0  0  0
  -18.0302  -28.1351   22.8327 C   0  0  0  0  0  0
  -24.1509  -36.7324   23.2642 C   0  0  0  0  0  0
  -25.9253  -30.8433   21.3838 C   0  0  0  0  0  0
  -26.0006  -29.4843   20.7343 C   0  0  0  0  0  0
  -27.1946  -28.7276   20.7514 C   0  0  0  0  0  0
  -26.1054  -27.0690   19.3471 C   0  0  0  0  0  0
  -24.8926  -27.7702   19.4168 C   0  0  0  0  0  0
  -23.6102  -29.8433   20.1637 C   0  0  0  0  0  0
  -25.4097  -36.3144   24.0387 C   0  0  1  0  0  0
  -20.5922  -28.3465   23.1026 C   0  0  2  0  0  0
  -20.6770  -26.9273   22.4875 C   0  0  0  0  0  0
  -19.5564  -26.6301   21.4850 C   0  0  0  0  0  0
  -18.1795  -26.7964   22.1358 C   0  0  0  0  0  0
  -19.1589  -28.8652   23.2872 C   0  0  0  0  0  0
  -18.9551  -30.1058   23.9287 C   0  0  0  0  0  0
  -17.6601  -30.6323   24.0943 C   0  0  0  0  0  0
  -25.8989  -34.9497   23.5176 C   0  0  0  0  0  0
  -16.5472  -29.9027   23.6430 C   0  0  0  0  0  0
  -16.7324  -28.6560   23.0214 C   0  0  0  0  0  0
  -26.4475  -31.6620   25.0788 C   0  0  0  0  0  0
  -25.3763  -31.3683   26.1529 C   0  0  0  0  0  0
  -27.0282  -30.3074   24.6165 C   0  0  0  0  0  0
  -27.6079  -32.4292   25.7503 C   0  0  0  0  0  0
  -27.5598  -37.1801   24.8458 C   0  0  0  0  0  0
  -21.4108  -29.2936   22.3432 N   0  0  0  0  0  0
  -26.4310  -37.3800   23.9380 N   0  0  0  0  0  0
  -24.6613  -31.0888   22.1097 N   0  0  0  0  0  0
  -23.4101  -28.8314   23.2972 O   0  0  0  0  0  0
  -28.3653  -26.7208   20.0802 O   0  0  0  0  0  0
  -26.5520  -34.8925   22.4704 O   0  0  0  0  0  0
  -23.5306  -32.1470   23.7662 O   0  0  0  0  0  0
  -25.9255  -21.5028   22.2929 C   0  0  0  0  0  0
  -26.6532  -20.6113   21.4799 C   0  0  0  0  0  0
  -27.9340  -22.4678   20.5079 C   0  0  0  0  0  0
  -26.1930  -22.8756   22.1697 C   0  0  0  0  0  0
  -27.1704  -23.3435   21.3002 C   0  0  0  0  0  0
  -27.6557  -21.0860   20.5941 C   0  0  0  0  0  0
  -25.4098  -23.9948   22.8006 C   0  0  0  0  0  0
  -26.0671  -25.2786   22.2416 C   0  0  0  0  0  0
  -27.0703  -24.8316   21.1395 C   0  0  1  0  0  0
  -28.4055  -20.0985   19.7287 C   0  0  0  0  0  0
  -28.3877  -25.6552   21.0478 C   0  0  0  0  0  0
  -29.4379  -16.6206   20.7055 C   0  0  0  0  0  0
  -29.6094  -17.9307   19.8968 C   0  0  0  0  0  0
  -29.9424  -15.4757   19.9527 N   0  0  0  0  0  0
  -29.0209  -19.0865   20.6015 N   0  3  0  0  0  0
  -31.4855  -12.3966   19.1463 H   0  0  0  0  0  0
  -30.3680  -11.2853   19.8814 H   0  0  0  0  0  0
  -29.7465  -11.6472   17.4844 H   0  0  0  0  0  0
  -29.7163  -13.3719   17.7056 H   0  0  0  0  0  0
  -27.8088  -11.2930   18.8083 H   0  0  0  0  0  0
  -27.4043  -12.6401   17.7741 H   0  0  0  0  0  0
  -27.6897  -14.2407   19.5428 H   0  0  0  0  0  0
  -28.6714  -12.0273   21.3977 H   0  0  0  0  0  0
  -28.5045  -13.7220   21.8164 H   0  0  0  0  0  0
  -25.2747   -9.5723   22.4885 H   0  0  0  0  0  0
  -23.9963   -7.4632   22.7517 H   0  0  0  0  0  0
  -21.0845   -8.8828   19.8960 H   0  0  0  0  0  0
  -22.3657  -10.9777   19.6245 H   0  0  0  0  0  0
  -21.1970   -7.6158   23.9739 H   0  0  0  0  0  0
  -21.1449   -6.0521   25.9087 H   0  0  0  0  0  0
  -22.0605   -2.7622   23.2827 H   0  0  0  0  0  0
  -22.3864  -12.0029   22.4798 H   0  0  0  0  0  0
  -21.1026  -13.1572   22.2422 H   0  0  0  0  0  0
  -24.7060  -15.8632   20.5196 H   0  0  0  0  0  0
  -26.3055  -15.5845   20.0458 H   0  0  0  0  0  0
  -26.7063  -32.5612   23.1244 H   0  0  0  0  0  0
  -25.0139  -33.9837   25.0638 H   0  0  0  0  0  0
  -22.6906  -31.3274   21.4123 H   0  0  0  0  0  0
  -23.3785  -35.9650   23.3293 H   0  0  0  0  0  0
  -24.3635  -36.8905   22.2055 H   0  0  0  0  0  0
  -23.7227  -37.6532   23.6605 H   0  0  0  0  0  0
  -26.0398  -31.6091   20.6169 H   0  0  0  0  0  0
  -26.8150  -30.8927   22.0012 H   0  0  0  0  0  0
  -28.0670  -29.0871   21.2827 H   0  0  0  0  0  0
  -26.1520  -26.1854   18.7275 H   0  0  0  0  0  0
  -24.0273  -27.3970   18.8865 H   0  0  0  0  0  0
  -23.7100  -30.6179   19.3973 H   0  0  0  0  0  0
  -22.7413  -29.2565   19.8640 H   0  0  0  0  0  0
  -25.1274  -36.2027   25.0892 H   0  0  0  0  0  0
  -21.0225  -28.2825   24.1035 H   0  0  0  0  0  0
  -20.6060  -26.1899   23.2881 H   0  0  0  0  0  0
  -21.6552  -26.7457   22.0430 H   0  0  0  0  0  0
  -19.6533  -25.6242   21.0786 H   0  0  0  0  0  0
  -19.6373  -27.3086   20.6347 H   0  0  0  0  0  0
  -17.4026  -26.6843   21.3776 H   0  0  0  0  0  0
  -18.0091  -26.0102   22.8687 H   0  0  0  0  0  0
  -19.8035  -30.6538   24.3212 H   0  0  0  0  0  0
  -17.5196  -31.5778   24.5977 H   0  0  0  0  0  0
  -15.5518  -30.2982   23.7795 H   0  0  0  0  0  0
  -15.8735  -28.0965   22.6776 H   0  0  0  0  0  0
  -24.5941  -30.7021   25.7853 H   0  0  0  0  0  0
  -24.8959  -32.2822   26.5055 H   0  0  0  0  0  0
  -25.8186  -30.8784   27.0206 H   0  0  0  0  0  0
  -26.2823  -29.6814   24.1247 H   0  0  0  0  0  0
  -27.4040  -29.7351   25.4646 H   0  0  0  0  0  0
  -27.8671  -30.4389   23.9324 H   0  0  0  0  0  0
  -27.2748  -33.3551   26.2208 H   0  0  0  0  0  0
  -28.3843  -32.6895   25.0289 H   0  0  0  0  0  0
  -28.0773  -31.8279   26.5312 H   0  0  0  0  0  0
  -28.2628  -38.0088   24.7499 H   0  0  0  0  0  0
  -28.1075  -36.2617   24.6271 H   0  0  0  0  0  0
  -27.2310  -37.1435   25.8864 H   0  0  0  0  0  0
  -20.9278  -29.8320   21.6348 H   0  0  0  0  0  0
  -26.0242  -38.2923   24.1237 H   0  0  0  0  0  0
  -25.1467  -21.1395   22.9511 H   0  0  0  0  0  0
  -26.4168  -19.5550   21.5327 H   0  0  0  0  0  0
  -28.6521  -22.8562   19.7983 H   0  0  0  0  0  0
  -25.4734  -23.9447   23.8912 H   0  0  0  0  0  0
  -24.3664  -23.9006   22.4948 H   0  0  0  0  0  0
  -26.5859  -25.7905   23.0532 H   0  0  0  0  0  0
  -25.3211  -25.9689   21.8527 H   0  0  0  0  0  0
  -26.5676  -24.8182   20.1832 H   0  0  0  0  0  0
  -29.1602  -20.5993   19.1212 H   0  0  0  0  0  0
  -27.6910  -19.6388   19.0456 H   0  0  0  0  0  0
  -29.2063  -25.0089   20.7335 H   0  0  0  0  0  0
  -28.6898  -26.0369   22.0259 H   0  0  0  0  0  0
  -28.3776  -16.4507   20.8909 H   0  0  0  0  0  0
  -29.9318  -16.6921   21.6785 H   0  0  0  0  0  0
  -29.1404  -17.8251   18.9170 H   0  0  0  0  0  0
  -30.6623  -18.1431   19.7142 H   0  0  0  0  0  0
  -30.3187  -15.7725   19.0617 H   0  0  0  0  0  0
  -28.2885  -18.7609   21.2060 H   0  0  0  0  0  0
  -29.7042  -19.5452   21.1796 H   0  0  0  0  0  0
  1 25  1  0  0  0
  1 30  2  0  0  0
  1 84  1  0  0  0
  2  3  1  0  0  0
  2 25  1  0  0  0
  2 86  1  0  0  0
  2 87  1  0  0  0
  3  4  1  0  0  0
  3 88  1  0  0  0
  3 89  1  0  0  0
  4  5  1  0  0  0
  4 90  1  0  0  0
  4 91  1  0  0  0
  5  6  1  0  0  0
  5 26  1  0  0  0
  5 92  1  0  0  0
  6 25  1  0  0  0
  6 93  1  0  0  0
  6 94  1  0  0  0
  7  8  2  0  0  0
  7 26  1  0  0  0
  7 29  1  0  0  0
  8  9  1  0  0  0
  8 22  1  0  0  0
  9 10  1  0  0  0
  9 27  2  0  0  0
 10 11  2  0  0  0
 10 15  1  0  0  0
 11 12  1  0  0  0
 11 95  1  0  0  0
 12 13  2  0  0  0
 12 96  1  0  0  0
 13 14  1  0  0  0
 13 31  1  0  0  0
 14 15  2  0  0  0
 14 97  1  0  0  0
 15 98  1  0  0  0
 16 17  2  0  0  0
 16 21  1  0  0  0
 16 31  1  0  0  0
 17 18  1  0  0  0
 17 99  1  0  0  0
 18 19  2  0  0  0
 18100  1  0  0  0
 19 20  1  0  0  0
 19 24  1  0  0  0
 20 21  2  0  0  0
 20101  1  0  0  0
 21 23  1  0  0  0
 22 28  1  0  0  0
 22 32  2  0  0  0
 26 27  1  0  0  0
 28102  1  0  0  0
 28103  1  0  0  0
 29104  1  0  0  0
 29105  1  0  0  0
 33 34  1  0  0  0
 33 66  1  0  0  0
 33 70  2  0  0  0
 34 36  1  0  0  0
 34 59  1  0  0  0
 34106  1  0  0  0
 35 44  2  0  0  0
 35 45  1  0  0  0
 35 68  1  0  0  0
 36 56  1  0  0  0
 36107  1  0  0  0
 37 39  1  0  0  0
 37 47  1  0  0  0
 37 66  1  0  0  0
 37108  1  0  0  0
 38 43  2  0  0  0
 38 46  1  0  0  0
 38 47  1  0  0  0
 39 64  1  0  0  0
 39 67  2  0  0  0
 40 52  1  0  0  0
 40 53  2  0  0  0
 40 58  1  0  0  0
 41109  1  0  0  0
 41110  1  0  0  0
 41111  1  0  0  0
 41 48  1  0  0  0
 42 43  1  0  0  0
 42 66  1  0  0  0
 42112  1  0  0  0
 42113  1  0  0  0
 43 44  1  0  0  0
 44114  1  0  0  0
 45 46  2  0  0  0
 45115  1  0  0  0
 46116  1  0  0  0
 47117  1  0  0  0
 47118  1  0  0  0
 48 56  1  0  0  0
 48 65  1  0  0  0
 48119  1  0  0  0
 49 50  1  0  0  0
 49 53  1  0  0  0
 49 64  1  0  0  0
 49120  1  0  0  0
 50 51  1  0  0  0
 50121  1  0  0  0
 50122  1  0  0  0
 51 52  1  0  0  0
 51123  1  0  0  0
 51124  1  0  0  0
 52125  1  0  0  0
 52126  1  0  0  0
 53 54  1  0  0  0
 54 55  2  0  0  0
 54127  1  0  0  0
 55 57  1  0  0  0
 55128  1  0  0  0
 56 69  2  0  0  0
 57 58  2  0  0  0
 57129  1  0  0  0
 58130  1  0  0  0
 59 60  1  0  0  0
 59 61  1  0  0  0
 59 62  1  0  0  0
 60131  1  0  0  0
 60132  1  0  0  0
 60133  1  0  0  0
 61134  1  0  0  0
 61135  1  0  0  0
 61136  1  0  0  0
 62137  1  0  0  0
 62138  1  0  0  0
 62139  1  0  0  0
 63 65  1  0  0  0
 63140  1  0  0  0
 63141  1  0  0  0
 63142  1  0  0  0
 64143  1  0  0  0
 65144  1  0  0  0
 68 81  1  0  0  0
 71 72  2  0  0  0
 71 74  1  0  0  0
 71145  1  0  0  0
 72 76  1  0  0  0
 72146  1  0  0  0
 73 75  1  0  0  0
 73 76  2  0  0  0
 73147  1  0  0  0
 74 75  2  0  0  0
 74 77  1  0  0  0
 75 79  1  0  0  0
 76 80  1  0  0  0
 77 78  1  0  0  0
 77148  1  0  0  0
 77149  1  0  0  0
 78 79  1  0  0  0
 78150  1  0  0  0
 78151  1  0  0  0
 79 81  1  0  0  0
 79152  1  0  0  0
 80 85  1  0  0  0
 80153  1  0  0  0
 80154  1  0  0  0
 81155  1  0  0  0
 81156  1  0  0  0
 82 83  1  0  0  0
 82 84  1  0  0  0
 82157  1  0  0  0
 82158  1  0  0  0
 83 85  1  0  0  0
 83159  1  0  0  0
 83160  1  0  0  0
 84161  1  0  0  0
 85162  1  0  0  0
 85163  1  0  0  0
M  CHG  1  85   1
M  ISO  4   1 100  68 101  81 101  84 100
M  END
> <chiral flag>
0

> <version>
0

> <s_m_source_file>
/data/baiqing/PycharmProjects/Reinvent-master-3.2/result/LINK_invent/BTK/process_docking_weight1_custom_sum_contain_oxygen_bond_distance_aromatic_linkinvent_7_9_3/rearranged_h_0127.sdf

> <i_m_source_file_index>
68

> <r_mmod_Potential_Energy-OPLS-2005>
-100.454292297363

> <r_mmod_Stretch_Energy-OPLS-2005>
33.536003112793

> <r_mmod_Bend_Energy-OPLS-2005>
144.465377807617

> <r_mmod_Torsional_Energy-OPLS-2005>
335.06005859375

> <r_mmod_Improper_Torsional_Energy-OPLS-2005>
33.825382232666

> <r_mmod_Van_der_Waal_Energy-OPLS-2005>
148.121963500977

> <r_mmod_Electrostatic_Energy-OPLS-2005>
-341.782775878906

> <r_mmod_Solvation_Energy-OPLS-2005>
-484.219512939453

> <b_mmod_Minimization_Converged-OPLS-2005>
0

> <r_mmod_RMS_Derivative-OPLS-2005>
7.7198657989502

$$$$
68
                    3D
 Structure written by MMmdl.
152160  0  0  1  0            999 V2000
  -30.5600  -14.8536   20.4356 C   0  0  0  0  0  0
  -30.4415  -12.5198   19.4995 C   0  0  0  0  0  0
  -29.5184  -12.5218   18.2585 C   0  0  0  0  0  0
  -28.0496  -12.3168   18.6720 C   0  0  0  0  0  0
  -27.6378  -13.2372   19.8507 C   0  0  2  0  0  0
  -28.6797  -13.2146   20.9933 C   0  0  0  0  0  0
  -25.2488  -13.8197   20.5719 C   0  0  0  0  0  0
  -24.1781  -13.0432   20.9202 C   0  0  0  0  0  0
  -24.6385  -11.6915   20.8737 C   0  0  0  0  0  0
  -23.9061  -10.4296   21.0404 C   0  0  0  0  0  0
  -24.3614   -9.4218   21.9185 C   0  0  0  0  0  0
  -23.6290   -8.2255   22.0755 C   0  0  0  0  0  0
  -22.4273   -8.0290   21.3549 C   0  0  0  0  0  0
  -21.9908   -9.0257   20.4647 C   0  0  0  0  0  0
  -22.7230  -10.2139   20.3055 C   0  0  0  0  0  0
  -21.6853   -6.0743   22.5287 C   0  0  0  0  0  0
  -21.4014   -6.5648   23.8217 C   0  0  0  0  0  0
  -21.3654   -5.6801   24.9179 C   0  0  0  0  0  0
  -21.6033   -4.3063   24.7228 C   0  0  0  0  0  0
  -21.8815   -3.8157   23.4349 C   0  0  0  0  0  0
  -21.9190   -4.6972   22.3407 C   0  0  0  0  0  0
  -22.7809  -13.5213   21.1872 C   0  0  0  0  0  0
  -22.1661   -4.2156   21.0984 F   0  0  0  0  0  0
  -21.5616   -3.4552   25.7740 F   0  0  0  0  0  0
  -29.9765  -13.5959   20.4166 N   0  0  0  0  0  0
  -26.2916  -12.9413   20.3284 N   0  0  0  0  0  0
  -25.9312  -11.6544   20.5737 N   0  0  0  0  0  0
  -22.0464  -12.8209   22.0436 N   0  0  0  0  0  0
  -25.4178  -15.1924   20.4201 N   0  0  0  0  0  0
  -31.7312  -14.9670   20.0615 O   0  0  0  0  0  0
  -21.6634   -6.8888   21.4249 O   0  0  0  0  0  0
  -22.3481  -14.5511   20.6712 O   0  0  0  0  0  0
  -24.6383  -31.8495   23.1953 C   0  0  0  0  0  0
  -25.9183  -32.4719   23.8311 C   0  0  1  0  0  0
  -27.2134  -27.1777   20.1425 C   0  0  0  0  0  0
  -25.5950  -33.8527   24.2214 N   0  0  0  0  0  0
  -23.4390  -30.4754   21.5376 C   0  0  2  0  0  0
  -24.8913  -28.9193   20.1063 C   0  0  0  0  0  0
  -22.7525  -29.4598   22.4857 C   0  0  0  0  0  0
  -18.0302  -28.1381   22.8476 C   0  0  0  0  0  0
  -24.1496  -36.7267   23.2636 C   0  0  0  0  0  0
  -25.9952  -30.7344   21.3952 C   0  0  0  0  0  0
  -26.0662  -29.3525   20.7330 C   0  0  0  0  0  0
  -27.2266  -28.4950   20.7458 C   0  0  0  0  0  0
  -26.0206  -26.8616   19.4455 C   0  0  0  0  0  0
  -24.8799  -27.6848   19.4482 C   0  0  0  0  0  0
  -23.6651  -29.8142   20.1540 C   0  0  0  0  0  0
  -25.4124  -36.3042   24.0310 C   0  0  1  0  0  0
  -20.5910  -28.3724   23.1214 C   0  0  2  0  0  0
  -20.6807  -26.9447   22.5326 C   0  0  0  0  0  0
  -19.5754  -26.6414   21.5158 C   0  0  0  0  0  0
  -18.1953  -26.7921   22.1614 C   0  0  0  0  0  0
  -19.1554  -28.8864   23.2852 C   0  0  0  0  0  0
  -18.9469  -30.1455   23.8890 C   0  0  0  0  0  0
  -17.6468  -30.6577   24.0564 C   0  0  0  0  0  0
  -25.9072  -34.9417   23.5063 C   0  0  0  0  0  0
  -16.5361  -29.9066   23.6335 C   0  0  0  0  0  0
  -16.7285  -28.6487   23.0357 C   0  0  0  0  0  0
  -26.4510  -31.6581   25.0739 C   0  0  0  0  0  0
  -25.3686  -31.3792   26.1429 C   0  0  0  0  0  0
  -27.0360  -30.2963   24.6335 C   0  0  0  0  0  0
  -27.6044  -32.4340   25.7521 C   0  0  0  0  0  0
  -27.5578  -37.1793   24.8458 C   0  0  0  0  0  0
  -21.4220  -29.3097   22.3616 N   0  0  0  0  0  0
  -26.4291  -37.3751   23.9395 N   0  0  0  0  0  0
  -24.7095  -31.0391   22.0973 N   0  0  0  0  0  0
  -23.4193  -28.8125   23.2970 O   0  0  0  0  0  0
  -28.2449  -26.1787   20.2530 O   0  0  0  0  0  0
  -26.5651  -34.8899   22.4639 O   0  0  0  0  0  0
  -23.5508  -32.1363   23.7189 O   0  0  0  0  0  0
  -29.5845  -22.5911   19.5871 C   0  0  0  0  0  0
  -29.9091  -21.1894   19.7993 C   0  0  0  0  0  0
  -27.9326  -22.4473   21.2572 C   0  0  0  0  0  0
  -28.2169  -21.0381   21.4684 C   0  0  0  0  0  0
  -28.5724  -23.3031   20.3095 C   0  0  0  0  0  0
  -29.2439  -20.3228   20.7335 C   0  0  0  0  0  0
  -27.3584  -20.3505   22.5025 C   0  0  0  0  0  0
  -29.7435  -18.7923   21.0943 C   0  0  0  0  0  0
  -27.9034  -24.7287   19.8680 C   0  0  0  0  0  0
  -29.7604  -17.4528   20.1270 C   0  0  0  0  0  0
  -29.7584  -15.9830   20.6701 N   0  0  0  0  0  0
  -26.9660  -19.1779   22.3360 O   0  5  0  0  0  0
  -26.9951  -20.9804   23.5173 O   0  0  0  0  0  0
  -31.4790  -12.6620   19.1916 H   0  0  0  0  0  0
  -30.4130  -11.5511   20.0017 H   0  0  0  0  0  0
  -29.8234  -11.7450   17.5567 H   0  0  0  0  0  0
  -29.6191  -13.4708   17.7297 H   0  0  0  0  0  0
  -27.9316  -11.2723   18.9644 H   0  0  0  0  0  0
  -27.3889  -12.4700   17.8184 H   0  0  0  0  0  0
  -27.6166  -14.2484   19.4426 H   0  0  0  0  0  0
  -28.7348  -12.2270   21.4523 H   0  0  0  0  0  0
  -28.3922  -13.9033   21.7891 H   0  0  0  0  0  0
  -25.2755   -9.5698   22.4763 H   0  0  0  0  0  0
  -23.9999   -7.4643   22.7479 H   0  0  0  0  0  0
  -21.0834   -8.8758   19.8958 H   0  0  0  0  0  0
  -22.3671  -10.9670   19.6168 H   0  0  0  0  0  0
  -21.2015   -7.6159   23.9721 H   0  0  0  0  0  0
  -21.1476   -6.0537   25.9078 H   0  0  0  0  0  0
  -22.0596   -2.7619   23.2845 H   0  0  0  0  0  0
  -22.4077  -11.9847   22.4779 H   0  0  0  0  0  0
  -21.1089  -13.1249   22.2672 H   0  0  0  0  0  0
  -24.6611  -15.8498   20.5726 H   0  0  0  0  0  0
  -26.2761  -15.6452   20.1336 H   0  0  0  0  0  0
  -26.7242  -32.5341   23.1040 H   0  0  0  0  0  0
  -25.0065  -33.9656   25.0339 H   0  0  0  0  0  0
  -22.7403  -31.3015   21.3882 H   0  0  0  0  0  0
  -23.3754  -35.9605   23.3288 H   0  0  0  0  0  0
  -24.3587  -36.8909   22.2053 H   0  0  0  0  0  0
  -23.7260  -37.6466   23.6677 H   0  0  0  0  0  0
  -26.1537  -31.4951   20.6294 H   0  0  0  0  0  0
  -26.8637  -30.7770   22.0404 H   0  0  0  0  0  0
  -28.1129  -28.8163   21.2761 H   0  0  0  0  0  0
  -25.9132  -25.9371   18.8998 H   0  0  0  0  0  0
  -23.9890  -27.3537   18.9324 H   0  0  0  0  0  0
  -23.7975  -30.5933   19.4020 H   0  0  0  0  0  0
  -22.7819  -29.2537   19.8424 H   0  0  0  0  0  0
  -25.1313  -36.1873   25.0801 H   0  0  0  0  0  0
  -21.0021  -28.3282   24.1328 H   0  0  0  0  0  0
  -20.5762  -26.2319   23.3517 H   0  0  0  0  0  0
  -21.6665  -26.7512   22.1075 H   0  0  0  0  0  0
  -19.6922  -25.6344   21.1144 H   0  0  0  0  0  0
  -19.6645  -27.3254   20.6702 H   0  0  0  0  0  0
  -17.4202  -26.6638   21.4050 H   0  0  0  0  0  0
  -18.0412  -26.0060   22.9021 H   0  0  0  0  0  0
  -19.7947  -30.7268   24.2269 H   0  0  0  0  0  0
  -17.5016  -31.6261   24.5163 H   0  0  0  0  0  0
  -15.5360  -30.2963   23.7655 H   0  0  0  0  0  0
  -15.8690  -28.0795   22.7083 H   0  0  0  0  0  0
  -24.5874  -30.7129   25.7756 H   0  0  0  0  0  0
  -24.8867  -32.2988   26.4759 H   0  0  0  0  0  0
  -25.7955  -30.9034   27.0268 H   0  0  0  0  0  0
  -26.2977  -29.6695   24.1320 H   0  0  0  0  0  0
  -27.3920  -29.7261   25.4930 H   0  0  0  0  0  0
  -27.8917  -30.4168   23.9688 H   0  0  0  0  0  0
  -27.2633  -33.3648   26.2063 H   0  0  0  0  0  0
  -28.3877  -32.6889   25.0370 H   0  0  0  0  0  0
  -28.0686  -31.8494   26.5474 H   0  0  0  0  0  0
  -28.2581  -38.0102   24.7497 H   0  0  0  0  0  0
  -28.1086  -36.2628   24.6290 H   0  0  0  0  0  0
  -27.2294  -37.1448   25.8862 H   0  0  0  0  0  0
  -20.9403  -29.8837   21.6838 H   0  0  0  0  0  0
  -26.0154  -38.2819   24.1402 H   0  0  0  0  0  0
  -30.1140  -23.1199   18.8060 H   0  0  0  0  0  0
  -30.7105  -20.7689   19.2087 H   0  0  0  0  0  0
  -27.1145  -22.8777   21.8184 H   0  0  0  0  0  0
  -29.2685  -18.4817   22.0207 H   0  0  0  0  0  0
  -30.7800  -18.9268   21.4044 H   0  0  0  0  0  0
  -26.8744  -24.5699   20.1879 H   0  0  0  0  0  0
  -27.8786  -24.7084   18.7782 H   0  0  0  0  0  0
  -28.8519  -17.5069   19.5263 H   0  0  0  0  0  0
  -30.5708  -17.5551   19.4053 H   0  0  0  0  0  0
  -28.8641  -15.7232   21.0599 H   0  0  0  0  0  0
  1 25  1  0  0  0
  1 30  2  0  0  0
  1 81  1  0  0  0
  2  3  1  0  0  0
  2 25  1  0  0  0
  2 84  1  0  0  0
  2 85  1  0  0  0
  3  4  1  0  0  0
  3 86  1  0  0  0
  3 87  1  0  0  0
  4  5  1  0  0  0
  4 88  1  0  0  0
  4 89  1  0  0  0
  5  6  1  0  0  0
  5 26  1  0  0  0
  5 90  1  0  0  0
  6 25  1  0  0  0
  6 91  1  0  0  0
  6 92  1  0  0  0
  7  8  2  0  0  0
  7 26  1  0  0  0
  7 29  1  0  0  0
  8  9  1  0  0  0
  8 22  1  0  0  0
  9 10  1  0  0  0
  9 27  2  0  0  0
 10 11  2  0  0  0
 10 15  1  0  0  0
 11 12  1  0  0  0
 11 93  1  0  0  0
 12 13  2  0  0  0
 12 94  1  0  0  0
 13 14  1  0  0  0
 13 31  1  0  0  0
 14 15  2  0  0  0
 14 95  1  0  0  0
 15 96  1  0  0  0
 16 17  2  0  0  0
 16 21  1  0  0  0
 16 31  1  0  0  0
 17 18  1  0  0  0
 17 97  1  0  0  0
 18 19  2  0  0  0
 18 98  1  0  0  0
 19 20  1  0  0  0
 19 24  1  0  0  0
 20 21  2  0  0  0
 20 99  1  0  0  0
 21 23  1  0  0  0
 22 28  1  0  0  0
 22 32  2  0  0  0
 26 27  1  0  0  0
 28100  1  0  0  0
 28101  1  0  0  0
 29102  1  0  0  0
 29103  1  0  0  0
 33 34  1  0  0  0
 33 66  1  0  0  0
 33 70  2  0  0  0
 34 36  1  0  0  0
 34 59  1  0  0  0
 34104  1  0  0  0
 35 44  2  0  0  0
 35 45  1  0  0  0
 35 68  1  0  0  0
 36 56  1  0  0  0
 36105  1  0  0  0
 37 39  1  0  0  0
 37 47  1  0  0  0
 37 66  1  0  0  0
 37106  1  0  0  0
 38 43  2  0  0  0
 38 46  1  0  0  0
 38 47  1  0  0  0
 39 64  1  0  0  0
 39 67  2  0  0  0
 40 52  1  0  0  0
 40 53  2  0  0  0
 40 58  1  0  0  0
 41107  1  0  0  0
 41108  1  0  0  0
 41109  1  0  0  0
 41 48  1  0  0  0
 42 43  1  0  0  0
 42 66  1  0  0  0
 42110  1  0  0  0
 42111  1  0  0  0
 43 44  1  0  0  0
 44112  1  0  0  0
 45 46  2  0  0  0
 45113  1  0  0  0
 46114  1  0  0  0
 47115  1  0  0  0
 47116  1  0  0  0
 48 56  1  0  0  0
 48 65  1  0  0  0
 48117  1  0  0  0
 49 50  1  0  0  0
 49 53  1  0  0  0
 49 64  1  0  0  0
 49118  1  0  0  0
 50 51  1  0  0  0
 50119  1  0  0  0
 50120  1  0  0  0
 51 52  1  0  0  0
 51121  1  0  0  0
 51122  1  0  0  0
 52123  1  0  0  0
 52124  1  0  0  0
 53 54  1  0  0  0
 54 55  2  0  0  0
 54125  1  0  0  0
 55 57  1  0  0  0
 55126  1  0  0  0
 56 69  2  0  0  0
 57 58  2  0  0  0
 57127  1  0  0  0
 58128  1  0  0  0
 59 60  1  0  0  0
 59 61  1  0  0  0
 59 62  1  0  0  0
 60129  1  0  0  0
 60130  1  0  0  0
 60131  1  0  0  0
 61132  1  0  0  0
 61133  1  0  0  0
 61134  1  0  0  0
 62135  1  0  0  0
 62136  1  0  0  0
 62137  1  0  0  0
 63 65  1  0  0  0
 63138  1  0  0  0
 63139  1  0  0  0
 63140  1  0  0  0
 64141  1  0  0  0
 65142  1  0  0  0
 68 79  1  0  0  0
 71 72  2  0  0  0
 71 75  1  0  0  0
 71143  1  0  0  0
 72 76  1  0  0  0
 72144  1  0  0  0
 73 74  1  0  0  0
 73 75  2  0  0  0
 73145  1  0  0  0
 74 76  2  0  0  0
 74 77  1  0  0  0
 75 79  1  0  0  0
 76 78  1  0  0  0
 77 82  1  0  0  0
 77 83  2  0  0  0
 78 80  1  0  0  0
 78146  1  0  0  0
 78147  1  0  0  0
 79148  1  0  0  0
 79149  1  0  0  0
 80 81  1  0  0  0
 80150  1  0  0  0
 80151  1  0  0  0
 81152  1  0  0  0
M  CHG  1  82  -1
M  ISO  4   1 100  68 101  79 101  81 100
M  END
> <chiral flag>
0

> <version>
0

> <s_m_source_file>
/data/baiqing/PycharmProjects/Reinvent-master-3.2/result/LINK_invent/BTK/process_docking_weight1_custom_sum_contain_oxygen_bond_distance_aromatic_linkinvent_7_9_3/rearranged_h_0127.sdf

> <i_m_source_file_index>
69

> <r_mmod_Potential_Energy-OPLS-2005>
105.208129882812

> <r_mmod_Stretch_Energy-OPLS-2005>
195.531509399414

> <r_mmod_Bend_Energy-OPLS-2005>
248.089096069336

> <r_mmod_Torsional_Energy-OPLS-2005>
246.348403930664

> <r_mmod_Improper_Torsional_Energy-OPLS-2005>
10.412748336792

> <r_mmod_Van_der_Waal_Energy-OPLS-2005>
147.313430786133

> <r_mmod_Electrostatic_Energy-OPLS-2005>
-381.359649658203

> <r_mmod_Solvation_Energy-OPLS-2005>
-511.711364746094

> <b_mmod_Minimization_Converged-OPLS-2005>
0

> <r_mmod_RMS_Derivative-OPLS-2005>
1.57071542739868

$$$$
69
                    3D
 Structure written by MMmdl.
172181  0  0  1  0            999 V2000
  -30.7070  -14.4706   20.5593 C   0  0  0  0  0  0
  -30.4240  -12.3006   19.4268 C   0  0  0  0  0  0
  -29.4961  -12.4921   18.2088 C   0  0  0  0  0  0
  -28.0171  -12.3582   18.6222 C   0  0  0  0  0  0
  -27.6635  -13.2055   19.8742 C   0  0  2  0  0  0
  -28.7058  -12.9967   20.9977 C   0  0  0  0  0  0
  -25.2607  -13.8164   20.5680 C   0  0  0  0  0  0
  -24.1855  -13.0445   20.9174 C   0  0  0  0  0  0
  -24.6402  -11.6907   20.8734 C   0  0  0  0  0  0
  -23.9064  -10.4299   21.0406 C   0  0  0  0  0  0
  -24.3617   -9.4213   21.9186 C   0  0  0  0  0  0
  -23.6291   -8.2248   22.0758 C   0  0  0  0  0  0
  -22.4277   -8.0282   21.3547 C   0  0  0  0  0  0
  -21.9911   -9.0260   20.4648 C   0  0  0  0  0  0
  -22.7239  -10.2135   20.3059 C   0  0  0  0  0  0
  -21.6855   -6.0737   22.5277 C   0  0  0  0  0  0
  -21.4010   -6.5639   23.8212 C   0  0  0  0  0  0
  -21.3655   -5.6792   24.9174 C   0  0  0  0  0  0
  -21.6046   -4.3056   24.7226 C   0  0  0  0  0  0
  -21.8818   -3.8148   23.4348 C   0  0  0  0  0  0
  -21.9192   -4.6964   22.3404 C   0  0  0  0  0  0
  -22.7880  -13.5247   21.1832 C   0  0  0  0  0  0
  -22.1663   -4.2151   21.0983 F   0  0  0  0  0  0
  -21.5629   -3.4541   25.7739 F   0  0  0  0  0  0
  -30.0375  -13.2918   20.4436 N   0  0  0  0  0  0
  -26.3043  -12.9327   20.3367 N   0  0  0  0  0  0
  -25.9330  -11.6492   20.5778 N   0  0  0  0  0  0
  -22.0507  -12.8245   22.0384 N   0  0  0  0  0  0
  -25.4342  -15.1877   20.4079 N   0  0  0  0  0  0
  -31.8356  -14.6458   20.0930 O   0  0  0  0  0  0
  -21.6637   -6.8880   21.4243 O   0  0  0  0  0  0
  -22.3573  -14.5558   20.6682 O   0  0  0  0  0  0
  -24.6121  -31.8674   23.2078 C   0  0  0  0  0  0
  -25.9019  -32.4816   23.8367 C   0  0  1  0  0  0
  -27.2427  -27.4340   20.1081 C   0  0  0  0  0  0
  -25.5883  -33.8615   24.2308 N   0  0  0  0  0  0
  -23.4002  -30.4887   21.5478 C   0  0  2  0  0  0
  -24.8478  -28.9445   20.1213 C   0  0  0  0  0  0
  -22.7398  -29.4655   22.4994 C   0  0  0  0  0  0
  -18.0266  -28.1389   22.8483 C   0  0  0  0  0  0
  -24.1491  -36.7317   23.2642 C   0  0  0  0  0  0
  -25.9261  -30.8349   21.3566 C   0  0  0  0  0  0
  -26.0052  -29.4654   20.7122 C   0  0  0  0  0  0
  -27.2041  -28.7198   20.6939 C   0  0  0  0  0  0
  -26.0671  -26.9211   19.5165 C   0  0  0  0  0  0
  -24.8735  -27.6721   19.5220 C   0  0  0  0  0  0
  -23.6095  -29.8123   20.1654 C   0  0  0  0  0  0
  -25.4113  -36.3110   24.0343 C   0  0  1  0  0  0
  -20.5854  -28.3664   23.1334 C   0  0  2  0  0  0
  -20.6762  -26.9402   22.5427 C   0  0  0  0  0  0
  -19.5739  -26.6388   21.5219 C   0  0  0  0  0  0
  -18.1914  -26.7929   22.1630 C   0  0  0  0  0  0
  -19.1517  -28.8844   23.2900 C   0  0  0  0  0  0
  -18.9457  -30.1448   23.8912 C   0  0  0  0  0  0
  -17.6464  -30.6591   24.0573 C   0  0  0  0  0  0
  -25.9042  -34.9476   23.5128 C   0  0  0  0  0  0
  -16.5352  -29.9101   23.6331 C   0  0  0  0  0  0
  -16.7263  -28.6524   23.0338 C   0  0  0  0  0  0
  -26.4453  -31.6591   25.0690 C   0  0  0  0  0  0
  -25.3721  -31.3703   26.1441 C   0  0  0  0  0  0
  -27.0291  -30.3047   24.6032 C   0  0  0  0  0  0
  -27.6023  -32.4308   25.7457 C   0  0  0  0  0  0
  -27.5584  -37.1811   24.8468 C   0  0  0  0  0  0
  -21.4124  -29.3031   22.3744 N   0  0  0  0  0  0
  -26.4302  -37.3791   23.9407 N   0  0  0  0  0  0
  -24.6644  -31.0788   22.0966 N   0  0  0  0  0  0
  -23.4175  -28.8185   23.3019 O   0  0  0  0  0  0
  -28.4486  -26.7655   20.0663 O   0  0  0  0  0  0
  -26.5603  -34.8927   22.4686 O   0  0  0  0  0  0
  -23.5317  -32.1406   23.7499 O   0  0  0  0  0  0
  -30.2255  -23.5999   23.4491 C   0  0  0  0  0  0
  -29.2022  -17.7321   20.2307 C   0  0  0  0  0  0
  -30.6094  -17.6010   22.2744 C   0  0  0  0  0  0
  -30.8882  -24.8634   24.0135 C   0  0  0  0  0  0
  -29.5648  -19.2334   20.0758 C   0  0  0  0  0  0
  -30.9730  -19.0960   22.0990 C   0  0  0  0  0  0
  -29.5998  -26.2518   22.4545 C   0  0  0  0  0  0
  -29.8231  -23.7495   21.9568 C   0  0  2  0  0  0
  -28.9072  -25.0201   21.7984 C   0  0  2  0  0  0
  -30.3308  -16.9359   20.9174 C   0  0  1  0  0  0
  -29.2491  -22.3873   21.4442 C   0  0  0  0  0  0
  -28.5221  -25.3501   20.3223 C   0  0  0  0  0  0
  -30.3583  -21.3170   21.1926 C   0  0  0  0  0  0
  -29.9916  -15.5030   21.0505 N   0  0  0  0  0  0
  -29.9903  -26.0174   23.8585 N   0  3  0  0  0  0
  -29.9390  -19.8869   21.3639 N   0  3  1  0  0  0
  -31.4684  -12.3936   19.1241 H   0  0  0  0  0  0
  -30.3231  -11.2922   19.8314 H   0  0  0  0  0  0
  -29.7340  -11.7576   17.4377 H   0  0  0  0  0  0
  -29.6674  -13.4722   17.7612 H   0  0  0  0  0  0
  -27.8273  -11.3034   18.8249 H   0  0  0  0  0  0
  -27.3675  -12.6275   17.7890 H   0  0  0  0  0  0
  -27.7066  -14.2514   19.5690 H   0  0  0  0  0  0
  -28.6801  -11.9654   21.3537 H   0  0  0  0  0  0
  -28.4722  -13.6119   21.8677 H   0  0  0  0  0  0
  -25.2764   -9.5682   22.4759 H   0  0  0  0  0  0
  -23.9999   -7.4639   22.7482 H   0  0  0  0  0  0
  -21.0844   -8.8779   19.8955 H   0  0  0  0  0  0
  -22.3705  -10.9675   19.6164 H   0  0  0  0  0  0
  -21.1999   -7.6145   23.9715 H   0  0  0  0  0  0
  -21.1478   -6.0522   25.9075 H   0  0  0  0  0  0
  -22.0600   -2.7612   23.2849 H   0  0  0  0  0  0
  -22.4115  -11.9903   22.4774 H   0  0  0  0  0  0
  -21.1123  -13.1279   22.2573 H   0  0  0  0  0  0
  -24.6673  -15.8433   20.5118 H   0  0  0  0  0  0
  -26.2852  -15.6237   20.0761 H   0  0  0  0  0  0
  -26.7090  -32.5549   23.1138 H   0  0  0  0  0  0
  -25.0015  -33.9770   25.0437 H   0  0  0  0  0  0
  -22.6881  -31.3043   21.4042 H   0  0  0  0  0  0
  -23.3750  -35.9652   23.3315 H   0  0  0  0  0  0
  -24.3584  -36.8924   22.2054 H   0  0  0  0  0  0
  -23.7246  -37.6529   23.6647 H   0  0  0  0  0  0
  -26.0296  -31.5973   20.5834 H   0  0  0  0  0  0
  -26.8180  -30.8972   21.9692 H   0  0  0  0  0  0
  -28.1040  -29.1295   21.1312 H   0  0  0  0  0  0
  -26.0683  -25.9597   19.0242 H   0  0  0  0  0  0
  -23.9847  -27.2668   19.0577 H   0  0  0  0  0  0
  -23.7175  -30.5823   19.4007 H   0  0  0  0  0  0
  -22.7336  -29.2301   19.8724 H   0  0  0  0  0  0
  -25.1289  -36.1978   25.0839 H   0  0  0  0  0  0
  -20.9946  -28.3238   24.1456 H   0  0  0  0  0  0
  -20.5691  -26.2266   23.3613 H   0  0  0  0  0  0
  -21.6631  -26.7458   22.1202 H   0  0  0  0  0  0
  -19.6910  -25.6300   21.1243 H   0  0  0  0  0  0
  -19.6699  -27.3212   20.6758 H   0  0  0  0  0  0
  -17.4189  -26.6690   21.4028 H   0  0  0  0  0  0
  -18.0302  -26.0072   22.9028 H   0  0  0  0  0  0
  -19.7939  -30.7248   24.2294 H   0  0  0  0  0  0
  -17.5028  -31.6275   24.5161 H   0  0  0  0  0  0
  -15.5354  -30.3016   23.7644 H   0  0  0  0  0  0
  -15.8659  -28.0864   22.7024 H   0  0  0  0  0  0
  -24.5884  -30.7064   25.7781 H   0  0  0  0  0  0
  -24.8920  -32.2863   26.4893 H   0  0  0  0  0  0
  -25.8068  -30.8865   27.0195 H   0  0  0  0  0  0
  -26.2824  -29.6814   24.1099 H   0  0  0  0  0  0
  -27.4103  -29.7281   25.4470 H   0  0  0  0  0  0
  -27.8633  -30.4404   23.9144 H   0  0  0  0  0  0
  -27.2629  -33.3590   26.2063 H   0  0  0  0  0  0
  -28.3813  -32.6897   25.0278 H   0  0  0  0  0  0
  -28.0696  -31.8408   26.5350 H   0  0  0  0  0  0
  -28.2601  -38.0110   24.7505 H   0  0  0  0  0  0
  -28.1078  -36.2636   24.6300 H   0  0  0  0  0  0
  -27.2292  -37.1468   25.8870 H   0  0  0  0  0  0
  -20.9279  -29.8763   21.6986 H   0  0  0  0  0  0
  -26.0202  -38.2877   24.1396 H   0  0  0  0  0  0
  -29.3451  -23.3585   24.0472 H   0  0  0  0  0  0
  -30.9167  -22.7718   23.5970 H   0  0  0  0  0  0
  -29.0041  -17.3126   19.2435 H   0  0  0  0  0  0
  -28.2734  -17.6349   20.7952 H   0  0  0  0  0  0
  -29.7443  -17.5036   22.9318 H   0  0  0  0  0  0
  -31.4333  -17.0898   22.7751 H   0  0  0  0  0  0
  -31.8307  -25.0624   23.5007 H   0  0  0  0  0  0
  -31.1267  -24.7309   25.0696 H   0  0  0  0  0  0
  -28.7264  -19.7703   19.6305 H   0  0  0  0  0  0
  -30.3957  -19.3224   19.3742 H   0  0  0  0  0  0
  -31.9233  -19.1718   21.5679 H   0  0  0  0  0  0
  -31.1332  -19.5373   23.0838 H   0  0  0  0  0  0
  -28.9355  -27.1157   22.4561 H   0  0  0  0  0  0
  -30.4843  -26.5368   21.8816 H   0  0  0  0  0  0
  -30.7311  -23.9519   21.3847 H   0  0  0  0  0  0
  -27.9791  -24.8464   22.3450 H   0  0  0  0  0  0
  -31.2276  -17.0410   20.3025 H   0  0  0  0  0  0
  -28.6958  -22.5305   20.5155 H   0  0  0  0  0  0
  -28.5201  -22.0158   22.1656 H   0  0  0  0  0  0
  -27.6219  -24.8082   20.0361 H   0  0  0  0  0  0
  -29.3065  -24.9775   19.6620 H   0  0  0  0  0  0
  -31.1876  -21.5079   21.8715 H   0  0  0  0  0  0
  -30.7964  -21.4690   20.2048 H   0  0  0  0  0  0
  -29.0810  -15.2707   21.4178 H   0  0  0  0  0  0
  -30.4572  -26.8390   24.2107 H   0  0  0  0  0  0
  -29.1680  -25.8789   24.4235 H   0  0  0  0  0  0
  -29.1188  -19.8932   21.9521 H   0  0  0  0  0  0
  1 25  1  0  0  0
  1 30  2  0  0  0
  1 84  1  0  0  0
  2  3  1  0  0  0
  2 25  1  0  0  0
  2 87  1  0  0  0
  2 88  1  0  0  0
  3  4  1  0  0  0
  3 89  1  0  0  0
  3 90  1  0  0  0
  4  5  1  0  0  0
  4 91  1  0  0  0
  4 92  1  0  0  0
  5  6  1  0  0  0
  5 26  1  0  0  0
  5 93  1  0  0  0
  6 25  1  0  0  0
  6 94  1  0  0  0
  6 95  1  0  0  0
  7  8  2  0  0  0
  7 26  1  0  0  0
  7 29  1  0  0  0
  8  9  1  0  0  0
  8 22  1  0  0  0
  9 10  1  0  0  0
  9 27  2  0  0  0
 10 11  2  0  0  0
 10 15  1  0  0  0
 11 12  1  0  0  0
 11 96  1  0  0  0
 12 13  2  0  0  0
 12 97  1  0  0  0
 13 14  1  0  0  0
 13 31  1  0  0  0
 14 15  2  0  0  0
 14 98  1  0  0  0
 15 99  1  0  0  0
 16 17  2  0  0  0
 16 21  1  0  0  0
 16 31  1  0  0  0
 17 18  1  0  0  0
 17100  1  0  0  0
 18 19  2  0  0  0
 18101  1  0  0  0
 19 20  1  0  0  0
 19 24  1  0  0  0
 20 21  2  0  0  0
 20102  1  0  0  0
 21 23  1  0  0  0
 22 28  1  0  0  0
 22 32  2  0  0  0
 26 27  1  0  0  0
 28103  1  0  0  0
 28104  1  0  0  0
 29105  1  0  0  0
 29106  1  0  0  0
 33 34  1  0  0  0
 33 66  1  0  0  0
 33 70  2  0  0  0
 34 36  1  0  0  0
 34 59  1  0  0  0
 34107  1  0  0  0
 35 44  2  0  0  0
 35 45  1  0  0  0
 35 68  1  0  0  0
 36 56  1  0  0  0
 36108  1  0  0  0
 37 39  1  0  0  0
 37 47  1  0  0  0
 37 66  1  0  0  0
 37109  1  0  0  0
 38 43  2  0  0  0
 38 46  1  0  0  0
 38 47  1  0  0  0
 39 64  1  0  0  0
 39 67  2  0  0  0
 40 52  1  0  0  0
 40 53  2  0  0  0
 40 58  1  0  0  0
 41110  1  0  0  0
 41111  1  0  0  0
 41112  1  0  0  0
 41 48  1  0  0  0
 42 43  1  0  0  0
 42 66  1  0  0  0
 42113  1  0  0  0
 42114  1  0  0  0
 43 44  1  0  0  0
 44115  1  0  0  0
 45 46  2  0  0  0
 45116  1  0  0  0
 46117  1  0  0  0
 47118  1  0  0  0
 47119  1  0  0  0
 48 56  1  0  0  0
 48 65  1  0  0  0
 48120  1  0  0  0
 49 50  1  0  0  0
 49 53  1  0  0  0
 49 64  1  0  0  0
 49121  1  0  0  0
 50 51  1  0  0  0
 50122  1  0  0  0
 50123  1  0  0  0
 51 52  1  0  0  0
 51124  1  0  0  0
 51125  1  0  0  0
 52126  1  0  0  0
 52127  1  0  0  0
 53 54  1  0  0  0
 54 55  2  0  0  0
 54128  1  0  0  0
 55 57  1  0  0  0
 55129  1  0  0  0
 56 69  2  0  0  0
 57 58  2  0  0  0
 57130  1  0  0  0
 58131  1  0  0  0
 59 60  1  0  0  0
 59 61  1  0  0  0
 59 62  1  0  0  0
 60132  1  0  0  0
 60133  1  0  0  0
 60134  1  0  0  0
 61135  1  0  0  0
 61136  1  0  0  0
 61137  1  0  0  0
 62138  1  0  0  0
 62139  1  0  0  0
 62140  1  0  0  0
 63 65  1  0  0  0
 63141  1  0  0  0
 63142  1  0  0  0
 63143  1  0  0  0
 64144  1  0  0  0
 65145  1  0  0  0
 68 82  1  0  0  0
 71 74  1  0  0  0
 71 78  1  0  0  0
 71146  1  0  0  0
 71147  1  0  0  0
 72 75  1  0  0  0
 72 80  1  0  0  0
 72148  1  0  0  0
 72149  1  0  0  0
 73 76  1  0  0  0
 73 80  1  0  0  0
 73150  1  0  0  0
 73151  1  0  0  0
 74 85  1  0  0  0
 74152  1  0  0  0
 74153  1  0  0  0
 75 86  1  0  0  0
 75154  1  0  0  0
 75155  1  0  0  0
 76 86  1  0  0  0
 76156  1  0  0  0
 76157  1  0  0  0
 77 79  1  0  0  0
 77 85  1  0  0  0
 77158  1  0  0  0
 77159  1  0  0  0
 78 79  1  0  0  0
 78 81  1  0  0  0
 78160  1  0  0  0
 79 82  1  0  0  0
 79161  1  0  0  0
 80 84  1  0  0  0
 80162  1  0  0  0
 81 83  1  0  0  0
 81163  1  0  0  0
 81164  1  0  0  0
 82165  1  0  0  0
 82166  1  0  0  0
 83167  1  0  0  0
 83168  1  0  0  0
 83 86  1  0  0  0
 84169  1  0  0  0
 85170  1  0  0  0
 85171  1  0  0  0
 86172  1  0  0  0
M  CHG  2  85   1  86   1
M  ISO  4   1 100  68 101  82 101  84 100
M  END
> <chiral flag>
0

> <version>
0

> <s_m_source_file>
/data/baiqing/PycharmProjects/Reinvent-master-3.2/result/LINK_invent/BTK/process_docking_weight1_custom_sum_contain_oxygen_bond_distance_aromatic_linkinvent_7_9_3/rearranged_h_0127.sdf

> <i_m_source_file_index>
70

> <r_mmod_Potential_Energy-OPLS-2005>
-216.973495483398

> <r_mmod_Stretch_Energy-OPLS-2005>
44.4363250732422

> <r_mmod_Bend_Energy-OPLS-2005>
112.91902923584

> <r_mmod_Torsional_Energy-OPLS-2005>
294.635894775391

> <r_mmod_Improper_Torsional_Energy-OPLS-2005>
4.45475292205811

> <r_mmod_Van_der_Waal_Energy-OPLS-2005>
141.833984375

> <r_mmod_Electrostatic_Energy-OPLS-2005>
82.352409362793

> <r_mmod_Solvation_Energy-OPLS-2005>
-909.883483886719

> <b_mmod_Minimization_Converged-OPLS-2005>
0

> <r_mmod_RMS_Derivative-OPLS-2005>
1.32870316505432

$$$$
70
                    3D
 Structure written by MMmdl.
160169  0  0  1  0            999 V2000
  -30.6541  -14.5388   20.5346 C   0  0  0  0  0  0
  -30.4328  -12.3354   19.4339 C   0  0  0  0  0  0
  -29.5021  -12.5111   18.2135 C   0  0  0  0  0  0
  -28.0231  -12.3641   18.6234 C   0  0  0  0  0  0
  -27.6620  -13.2080   19.8743 C   0  0  2  0  0  0
  -28.7046  -13.0029   20.9977 C   0  0  0  0  0  0
  -25.2600  -13.8157   20.5662 C   0  0  0  0  0  0
  -24.1856  -13.0436   20.9186 C   0  0  0  0  0  0
  -24.6411  -11.6903   20.8743 C   0  0  0  0  0  0
  -23.9073  -10.4290   21.0410 C   0  0  0  0  0  0
  -24.3622   -9.4204   21.9187 C   0  0  0  0  0  0
  -23.6301   -8.2235   22.0750 C   0  0  0  0  0  0
  -22.4278   -8.0283   21.3544 C   0  0  0  0  0  0
  -21.9916   -9.0254   20.4642 C   0  0  0  0  0  0
  -22.7246  -10.2134   20.3056 C   0  0  0  0  0  0
  -21.6849   -6.0738   22.5279 C   0  0  0  0  0  0
  -21.4008   -6.5639   23.8212 C   0  0  0  0  0  0
  -21.3666   -5.6791   24.9177 C   0  0  0  0  0  0
  -21.6048   -4.3055   24.7228 C   0  0  0  0  0  0
  -21.8821   -3.8146   23.4346 C   0  0  0  0  0  0
  -21.9191   -4.6963   22.3403 C   0  0  0  0  0  0
  -22.7876  -13.5231   21.1854 C   0  0  0  0  0  0
  -22.1662   -4.2146   21.0982 F   0  0  0  0  0  0
  -21.5636   -3.4543   25.7743 F   0  0  0  0  0  0
  -30.0315  -13.3274   20.4467 N   0  0  0  0  0  0
  -26.3033  -12.9329   20.3351 N   0  0  0  0  0  0
  -25.9340  -11.6486   20.5765 N   0  0  0  0  0  0
  -22.0503  -12.8230   22.0405 N   0  0  0  0  0  0
  -25.4322  -15.1869   20.4041 N   0  0  0  0  0  0
  -31.7958  -14.7206   20.1004 O   0  0  0  0  0  0
  -21.6636   -6.8884   21.4243 O   0  0  0  0  0  0
  -22.3571  -14.5541   20.6699 O   0  0  0  0  0  0
  -24.6183  -31.8642   23.2070 C   0  0  0  0  0  0
  -25.9061  -32.4799   23.8379 C   0  0  1  0  0  0
  -27.2376  -27.3911   20.1002 C   0  0  0  0  0  0
  -25.5901  -33.8602   24.2303 N   0  0  0  0  0  0
  -23.4082  -30.4868   21.5480 C   0  0  2  0  0  0
  -24.8542  -28.9453   20.1138 C   0  0  0  0  0  0
  -22.7427  -29.4645   22.4979 C   0  0  0  0  0  0
  -18.0269  -28.1385   22.8491 C   0  0  0  0  0  0
  -24.1484  -36.7312   23.2638 C   0  0  0  0  0  0
  -25.9404  -30.8157   21.3661 C   0  0  0  0  0  0
  -26.0158  -29.4468   20.7124 C   0  0  0  0  0  0
  -27.2063  -28.6776   20.7012 C   0  0  0  0  0  0
  -26.0512  -26.9155   19.4933 C   0  0  0  0  0  0
  -24.8692  -27.6810   19.5013 C   0  0  0  0  0  0
  -23.6173  -29.8155   20.1639 C   0  0  0  0  0  0
  -25.4105  -36.3102   24.0334 C   0  0  1  0  0  0
  -20.5862  -28.3674   23.1309 C   0  0  2  0  0  0
  -20.6758  -26.9408   22.5417 C   0  0  0  0  0  0
  -19.5740  -26.6386   21.5214 C   0  0  0  0  0  0
  -18.1918  -26.7932   22.1620 C   0  0  0  0  0  0
  -19.1521  -28.8847   23.2894 C   0  0  0  0  0  0
  -18.9446  -30.1451   23.8906 C   0  0  0  0  0  0
  -17.6448  -30.6587   24.0570 C   0  0  0  0  0  0
  -25.9045  -34.9466   23.5123 C   0  0  0  0  0  0
  -16.5340  -29.9089   23.6333 C   0  0  0  0  0  0
  -16.7258  -28.6509   23.0351 C   0  0  0  0  0  0
  -26.4474  -31.6598   25.0727 C   0  0  0  0  0  0
  -25.3729  -31.3714   26.1467 C   0  0  0  0  0  0
  -27.0308  -30.3033   24.6141 C   0  0  0  0  0  0
  -27.6049  -32.4319   25.7487 C   0  0  0  0  0  0
  -27.5585  -37.1799   24.8453 C   0  0  0  0  0  0
  -21.4149  -29.3036   22.3715 N   0  0  0  0  0  0
  -26.4283  -37.3792   23.9418 N   0  0  0  0  0  0
  -24.6741  -31.0708   22.0985 N   0  0  0  0  0  0
  -23.4181  -28.8191   23.3040 O   0  0  0  0  0  0
  -28.4163  -26.6530   20.1365 O   0  0  0  0  0  0
  -26.5615  -34.8923   22.4691 O   0  0  0  0  0  0
  -23.5367  -32.1411   23.7445 O   0  0  0  0  0  0
  -30.8476  -19.0301   19.7808 C   0  0  0  0  0  0
  -28.4918  -18.9893   20.3296 C   0  0  0  0  0  0
  -30.9783  -17.6820   20.2028 C   0  0  0  0  0  0
  -28.6246  -17.6445   20.7624 C   0  0  0  0  0  0
  -29.5950  -19.6942   19.7938 C   0  0  0  0  0  0
  -29.8548  -16.9471   20.6607 C   0  0  0  0  0  0
  -29.9377  -24.8414   19.5463 C   0  0  0  0  0  0
  -27.8266  -24.2362   20.6211 C   0  0  0  0  0  0
  -30.0748  -23.4017   18.9843 C   0  0  0  0  0  0
  -27.9522  -22.7772   20.0770 C   0  0  0  0  0  0
  -28.4683  -25.2771   19.6718 C   0  0  1  0  0  0
  -29.4108  -21.0282   19.0257 C   0  0  0  0  0  0
  -29.8799  -15.5467   21.0131 N   0  0  0  0  0  0
  -29.3517  -22.3430   19.7609 N   0  3  1  0  0  0
  -31.4762  -12.4488   19.1333 H   0  0  0  0  0  0
  -30.3479  -11.3263   19.8395 H   0  0  0  0  0  0
  -29.7501  -11.7813   17.4413 H   0  0  0  0  0  0
  -29.6614  -13.4948   17.7684 H   0  0  0  0  0  0
  -27.8407  -11.3084   18.8260 H   0  0  0  0  0  0
  -27.3714  -12.6300   17.7902 H   0  0  0  0  0  0
  -27.7000  -14.2538   19.5692 H   0  0  0  0  0  0
  -28.6938  -11.9682   21.3423 H   0  0  0  0  0  0
  -28.4599  -13.6031   21.8751 H   0  0  0  0  0  0
  -25.2762   -9.5682   22.4772 H   0  0  0  0  0  0
  -24.0008   -7.4625   22.7471 H   0  0  0  0  0  0
  -21.0839   -8.8780   19.8957 H   0  0  0  0  0  0
  -22.3703  -10.9678   19.6172 H   0  0  0  0  0  0
  -21.1992   -7.6145   23.9725 H   0  0  0  0  0  0
  -21.1490   -6.0514   25.9083 H   0  0  0  0  0  0
  -22.0594   -2.7609   23.2843 H   0  0  0  0  0  0
  -22.4096  -11.9881   22.4792 H   0  0  0  0  0  0
  -21.1127  -13.1282   22.2603 H   0  0  0  0  0  0
  -24.6603  -15.8384   20.4969 H   0  0  0  0  0  0
  -26.2706  -15.6152   20.0339 H   0  0  0  0  0  0
  -26.7127  -32.5488   23.1134 H   0  0  0  0  0  0
  -25.0024  -33.9753   25.0428 H   0  0  0  0  0  0
  -22.6999  -31.3056   21.4059 H   0  0  0  0  0  0
  -23.3751  -35.9638   23.3275 H   0  0  0  0  0  0
  -24.3590  -36.8964   22.2061 H   0  0  0  0  0  0
  -23.7220  -37.6501   23.6673 H   0  0  0  0  0  0
  -26.0587  -31.5796   20.5964 H   0  0  0  0  0  0
  -26.8260  -30.8678   21.9880 H   0  0  0  0  0  0
  -28.1021  -29.0617   21.1697 H   0  0  0  0  0  0
  -26.0088  -25.9498   19.0137 H   0  0  0  0  0  0
  -23.9761  -27.2877   19.0356 H   0  0  0  0  0  0
  -23.7257  -30.5874   19.4013 H   0  0  0  0  0  0
  -22.7402  -29.2352   19.8709 H   0  0  0  0  0  0
  -25.1278  -36.1962   25.0824 H   0  0  0  0  0  0
  -20.9947  -28.3238   24.1431 H   0  0  0  0  0  0
  -20.5650  -26.2288   23.3611 H   0  0  0  0  0  0
  -21.6632  -26.7448   22.1214 H   0  0  0  0  0  0
  -19.6902  -25.6296   21.1244 H   0  0  0  0  0  0
  -19.6682  -27.3199   20.6748 H   0  0  0  0  0  0
  -17.4190  -26.6681   21.4021 H   0  0  0  0  0  0
  -18.0317  -26.0070   22.9010 H   0  0  0  0  0  0
  -19.7924  -30.7267   24.2275 H   0  0  0  0  0  0
  -17.5006  -31.6274   24.5165 H   0  0  0  0  0  0
  -15.5342  -30.2999   23.7654 H   0  0  0  0  0  0
  -15.8656  -28.0837   22.7060 H   0  0  0  0  0  0
  -24.5894  -30.7076   25.7794 H   0  0  0  0  0  0
  -24.8924  -32.2869   26.4929 H   0  0  0  0  0  0
  -25.8068  -30.8865   27.0222 H   0  0  0  0  0  0
  -26.2865  -29.6792   24.1178 H   0  0  0  0  0  0
  -27.4036  -29.7283   25.4630 H   0  0  0  0  0  0
  -27.8721  -30.4337   23.9327 H   0  0  0  0  0  0
  -27.2670  -33.3607   26.2097 H   0  0  0  0  0  0
  -28.3840  -32.6902   25.0301 H   0  0  0  0  0  0
  -28.0738  -31.8422   26.5375 H   0  0  0  0  0  0
  -28.2570  -38.0129   24.7557 H   0  0  0  0  0  0
  -28.1112  -36.2666   24.6200 H   0  0  0  0  0  0
  -27.2320  -37.1354   25.8858 H   0  0  0  0  0  0
  -20.9316  -29.8764   21.6937 H   0  0  0  0  0  0
  -26.0172  -38.2863   24.1448 H   0  0  0  0  0  0
  -31.7154  -19.5284   19.3698 H   0  0  0  0  0  0
  -27.5138  -19.4504   20.3487 H   0  0  0  0  0  0
  -31.9494  -17.2148   20.1294 H   0  0  0  0  0  0
  -27.7441  -17.1319   21.1247 H   0  0  0  0  0  0
  -30.4661  -25.5314   18.8879 H   0  0  0  0  0  0
  -30.4342  -24.9108   20.5152 H   0  0  0  0  0  0
  -28.2909  -24.3003   21.6062 H   0  0  0  0  0  0
  -26.7729  -24.4669   20.7755 H   0  0  0  0  0  0
  -31.1333  -23.1436   18.9277 H   0  0  0  0  0  0
  -29.7061  -23.3977   17.9567 H   0  0  0  0  0  0
  -27.3465  -22.7058   19.1724 H   0  0  0  0  0  0
  -27.5151  -22.0776   20.7909 H   0  0  0  0  0  0
  -28.0211  -25.2167   18.6788 H   0  0  0  0  0  0
  -28.5388  -20.9306   18.3783 H   0  0  0  0  0  0
  -30.2459  -21.0647   18.3252 H   0  0  0  0  0  0
  -29.0217  -15.2042   21.4161 H   0  0  0  0  0  0
  -29.8497  -22.2167   20.6297 H   0  0  0  0  0  0
  1 25  1  0  0  0
  1 30  2  0  0  0
  1 83  1  0  0  0
  2  3  1  0  0  0
  2 25  1  0  0  0
  2 85  1  0  0  0
  2 86  1  0  0  0
  3  4  1  0  0  0
  3 87  1  0  0  0
  3 88  1  0  0  0
  4  5  1  0  0  0
  4 89  1  0  0  0
  4 90  1  0  0  0
  5  6  1  0  0  0
  5 26  1  0  0  0
  5 91  1  0  0  0
  6 25  1  0  0  0
  6 92  1  0  0  0
  6 93  1  0  0  0
  7  8  2  0  0  0
  7 26  1  0  0  0
  7 29  1  0  0  0
  8  9  1  0  0  0
  8 22  1  0  0  0
  9 10  1  0  0  0
  9 27  2  0  0  0
 10 11  2  0  0  0
 10 15  1  0  0  0
 11 12  1  0  0  0
 11 94  1  0  0  0
 12 13  2  0  0  0
 12 95  1  0  0  0
 13 14  1  0  0  0
 13 31  1  0  0  0
 14 15  2  0  0  0
 14 96  1  0  0  0
 15 97  1  0  0  0
 16 17  2  0  0  0
 16 21  1  0  0  0
 16 31  1  0  0  0
 17 18  1  0  0  0
 17 98  1  0  0  0
 18 19  2  0  0  0
 18 99  1  0  0  0
 19 20  1  0  0  0
 19 24  1  0  0  0
 20 21  2  0  0  0
 20100  1  0  0  0
 21 23  1  0  0  0
 22 28  1  0  0  0
 22 32  2  0  0  0
 26 27  1  0  0  0
 28101  1  0  0  0
 28102  1  0  0  0
 29103  1  0  0  0
 29104  1  0  0  0
 33 34  1  0  0  0
 33 66  1  0  0  0
 33 70  2  0  0  0
 34 36  1  0  0  0
 34 59  1  0  0  0
 34105  1  0  0  0
 35 44  2  0  0  0
 35 45  1  0  0  0
 35 68  1  0  0  0
 36 56  1  0  0  0
 36106  1  0  0  0
 37 39  1  0  0  0
 37 47  1  0  0  0
 37 66  1  0  0  0
 37107  1  0  0  0
 38 43  2  0  0  0
 38 46  1  0  0  0
 38 47  1  0  0  0
 39 64  1  0  0  0
 39 67  2  0  0  0
 40 52  1  0  0  0
 40 53  2  0  0  0
 40 58  1  0  0  0
 41108  1  0  0  0
 41109  1  0  0  0
 41110  1  0  0  0
 41 48  1  0  0  0
 42 43  1  0  0  0
 42 66  1  0  0  0
 42111  1  0  0  0
 42112  1  0  0  0
 43 44  1  0  0  0
 44113  1  0  0  0
 45 46  2  0  0  0
 45114  1  0  0  0
 46115  1  0  0  0
 47116  1  0  0  0
 47117  1  0  0  0
 48 56  1  0  0  0
 48 65  1  0  0  0
 48118  1  0  0  0
 49 50  1  0  0  0
 49 53  1  0  0  0
 49 64  1  0  0  0
 49119  1  0  0  0
 50 51  1  0  0  0
 50120  1  0  0  0
 50121  1  0  0  0
 51 52  1  0  0  0
 51122  1  0  0  0
 51123  1  0  0  0
 52124  1  0  0  0
 52125  1  0  0  0
 53 54  1  0  0  0
 54 55  2  0  0  0
 54126  1  0  0  0
 55 57  1  0  0  0
 55127  1  0  0  0
 56 69  2  0  0  0
 57 58  2  0  0  0
 57128  1  0  0  0
 58129  1  0  0  0
 59 60  1  0  0  0
 59 61  1  0  0  0
 59 62  1  0  0  0
 60130  1  0  0  0
 60131  1  0  0  0
 60132  1  0  0  0
 61133  1  0  0  0
 61134  1  0  0  0
 61135  1  0  0  0
 62136  1  0  0  0
 62137  1  0  0  0
 62138  1  0  0  0
 63 65  1  0  0  0
 63139  1  0  0  0
 63140  1  0  0  0
 63141  1  0  0  0
 64142  1  0  0  0
 65143  1  0  0  0
 68 81  1  0  0  0
 71 73  2  0  0  0
 71 75  1  0  0  0
 71144  1  0  0  0
 72 74  1  0  0  0
 72 75  2  0  0  0
 72145  1  0  0  0
 73 76  1  0  0  0
 73146  1  0  0  0
 74 76  2  0  0  0
 74147  1  0  0  0
 75 82  1  0  0  0
 76 83  1  0  0  0
 77 79  1  0  0  0
 77 81  1  0  0  0
 77148  1  0  0  0
 77149  1  0  0  0
 78 80  1  0  0  0
 78 81  1  0  0  0
 78150  1  0  0  0
 78151  1  0  0  0
 79 84  1  0  0  0
 79152  1  0  0  0
 79153  1  0  0  0
 80 84  1  0  0  0
 80154  1  0  0  0
 80155  1  0  0  0
 81156  1  0  0  0
 82157  1  0  0  0
 82158  1  0  0  0
 82 84  1  0  0  0
 83159  1  0  0  0
 84160  1  0  0  0
M  CHG  1  84   1
M  ISO  4   1 100  68 101  81 101  83 100
M  END
> <chiral flag>
0

> <version>
0

> <s_m_source_file>
/data/baiqing/PycharmProjects/Reinvent-master-3.2/result/LINK_invent/BTK/process_docking_weight1_custom_sum_contain_oxygen_bond_distance_aromatic_linkinvent_7_9_3/rearranged_h_0127.sdf

> <i_m_source_file_index>
71

> <r_mmod_Potential_Energy-OPLS-2005>
-133.233779907227

> <r_mmod_Stretch_Energy-OPLS-2005>
51.148120880127

> <r_mmod_Bend_Energy-OPLS-2005>
127.580101013184

> <r_mmod_Torsional_Energy-OPLS-2005>
239.631591796875

> <r_mmod_Improper_Torsional_Energy-OPLS-2005>
5.96680116653442

> <r_mmod_Van_der_Waal_Energy-OPLS-2005>
152.691436767578

> <r_mmod_Electrostatic_Energy-OPLS-2005>
-278.277984619141

> <r_mmod_Solvation_Energy-OPLS-2005>
-453.074432373047

> <b_mmod_Minimization_Converged-OPLS-2005>
0

> <r_mmod_RMS_Derivative-OPLS-2005>
1.15981495380402

$$$$
71
                    3D
 Structure written by MMmdl.
172181  0  0  1  0            999 V2000
  -30.6269  -14.6237   20.5196 C   0  0  0  0  0  0
  -30.4447  -12.3917   19.4408 C   0  0  0  0  0  0
  -29.5054  -12.4975   18.2187 C   0  0  0  0  0  0
  -28.0292  -12.3377   18.6356 C   0  0  0  0  0  0
  -27.6537  -13.2110   19.8615 C   0  0  2  0  0  0
  -28.7005  -13.0629   20.9881 C   0  0  0  0  0  0
  -25.2573  -13.8163   20.5675 C   0  0  0  0  0  0
  -24.1839  -13.0441   20.9191 C   0  0  0  0  0  0
  -24.6409  -11.6909   20.8761 C   0  0  0  0  0  0
  -23.9084  -10.4292   21.0424 C   0  0  0  0  0  0
  -24.3634   -9.4194   21.9196 C   0  0  0  0  0  0
  -23.6295   -8.2238   22.0758 C   0  0  0  0  0  0
  -22.4280   -8.0291   21.3547 C   0  0  0  0  0  0
  -21.9925   -9.0270   20.4651 C   0  0  0  0  0  0
  -22.7264  -10.2138   20.3060 C   0  0  0  0  0  0
  -21.6850   -6.0743   22.5283 C   0  0  0  0  0  0
  -21.4012   -6.5643   23.8219 C   0  0  0  0  0  0
  -21.3655   -5.6791   24.9179 C   0  0  0  0  0  0
  -21.6039   -4.3052   24.7222 C   0  0  0  0  0  0
  -21.8823   -3.8153   23.4343 C   0  0  0  0  0  0
  -21.9193   -4.6972   22.3406 C   0  0  0  0  0  0
  -22.7861  -13.5219   21.1860 C   0  0  0  0  0  0
  -22.1661   -4.2161   21.0978 F   0  0  0  0  0  0
  -21.5625   -3.4536   25.7732 F   0  0  0  0  0  0
  -30.0139  -13.4061   20.4193 N   0  0  0  0  0  0
  -26.2996  -12.9336   20.3314 N   0  0  0  0  0  0
  -25.9332  -11.6499   20.5776 N   0  0  0  0  0  0
  -22.0508  -12.8206   22.0412 N   0  0  0  0  0  0
  -25.4287  -15.1883   20.4067 N   0  0  0  0  0  0
  -31.7953  -14.8028   20.1665 O   0  0  0  0  0  0
  -21.6634   -6.8894   21.4250 O   0  0  0  0  0  0
  -22.3553  -14.5540   20.6724 O   0  0  0  0  0  0
  -24.6242  -31.8607   23.2074 C   0  0  0  0  0  0
  -25.9102  -32.4783   23.8380 C   0  0  1  0  0  0
  -27.2185  -27.3248   20.1178 C   0  0  0  0  0  0
  -25.5909  -33.8584   24.2285 N   0  0  0  0  0  0
  -23.4172  -30.4885   21.5490 C   0  0  2  0  0  0
  -24.8614  -28.9440   20.1192 C   0  0  0  0  0  0
  -22.7453  -29.4652   22.4956 C   0  0  0  0  0  0
  -18.0283  -28.1393   22.8489 C   0  0  0  0  0  0
  -24.1484  -36.7307   23.2649 C   0  0  0  0  0  0
  -25.9598  -30.7899   21.3847 C   0  0  0  0  0  0
  -26.0303  -29.4184   20.7282 C   0  0  0  0  0  0
  -27.2104  -28.6186   20.7224 C   0  0  0  0  0  0
  -26.0368  -26.9184   19.4612 C   0  0  0  0  0  0
  -24.8657  -27.6967   19.4790 C   0  0  0  0  0  0
  -23.6311  -29.8260   20.1641 C   0  0  0  0  0  0
  -25.4110  -36.3084   24.0324 C   0  0  1  0  0  0
  -20.5881  -28.3706   23.1276 C   0  0  2  0  0  0
  -20.6785  -26.9435   22.5406 C   0  0  0  0  0  0
  -19.5761  -26.6401   21.5213 C   0  0  0  0  0  0
  -18.1933  -26.7940   22.1611 C   0  0  0  0  0  0
  -19.1534  -28.8864   23.2876 C   0  0  0  0  0  0
  -18.9460  -30.1464   23.8904 C   0  0  0  0  0  0
  -17.6459  -30.6600   24.0566 C   0  0  0  0  0  0
  -25.9039  -34.9447   23.5102 C   0  0  0  0  0  0
  -16.5351  -29.9099   23.6333 C   0  0  0  0  0  0
  -16.7269  -28.6511   23.0360 C   0  0  0  0  0  0
  -26.4491  -31.6612   25.0761 C   0  0  0  0  0  0
  -25.3720  -31.3727   26.1485 C   0  0  0  0  0  0
  -27.0381  -30.3034   24.6272 C   0  0  0  0  0  0
  -27.6038  -32.4387   25.7513 C   0  0  0  0  0  0
  -27.5575  -37.1798   24.8455 C   0  0  0  0  0  0
  -21.4174  -29.3058   22.3669 N   0  0  0  0  0  0
  -26.4292  -37.3774   23.9395 N   0  0  0  0  0  0
  -24.6854  -31.0638   22.1025 N   0  0  0  0  0  0
  -23.4171  -28.8190   23.3036 O   0  0  0  0  0  0
  -28.3649  -26.5193   20.0940 O   0  0  0  0  0  0
  -26.5635  -34.8911   22.4684 O   0  0  0  0  0  0
  -23.5406  -32.1413   23.7404 O   0  0  0  0  0  0
  -27.7311  -22.5663   19.8543 C   0  0  0  0  0  0
  -30.0276  -22.9932   20.6431 C   0  0  0  0  0  0
  -27.4733  -24.0946   19.6264 C   0  0  0  0  0  0
  -29.8176  -24.5458   20.4671 C   0  0  0  0  0  0
  -28.6332  -21.3313   16.8320 C   0  0  0  0  0  0
  -28.2627  -20.5751   15.5605 C   0  0  0  0  0  0
  -29.5682  -19.1757   16.9836 C   0  0  0  0  0  0
  -29.2106  -22.1846   19.6072 C   0  0  1  0  0  0
  -28.8518  -20.2223   17.8864 C   0  0  1  0  0  0
  -28.3453  -25.0818   20.4739 C   0  0  1  0  0  0
  -30.0607  -17.1211   21.1217 C   0  0  0  0  0  0
  -29.6600  -18.1400   19.9771 C   0  0  0  0  0  0
  -29.5860  -20.6577   19.2238 C   0  0  2  0  0  0
  -29.8091  -15.6629   20.8591 N   0  0  0  0  0  0
  -29.0796  -19.3561   15.6002 N   0  3  0  0  0  0
  -29.5048  -19.6140   20.3339 N   0  3  0  0  0  0
  -31.4815  -12.5351   19.1308 H   0  0  0  0  0  0
  -30.3995  -11.3956   19.8842 H   0  0  0  0  0  0
  -29.7673  -11.7413   17.4772 H   0  0  0  0  0  0
  -29.6437  -13.4634   17.7311 H   0  0  0  0  0  0
  -27.8652  -11.2852   18.8700 H   0  0  0  0  0  0
  -27.3725  -12.5660   17.7956 H   0  0  0  0  0  0
  -27.6736  -14.2449   19.5171 H   0  0  0  0  0  0
  -28.7136  -12.0416   21.3715 H   0  0  0  0  0  0
  -28.4482  -13.6958   21.8407 H   0  0  0  0  0  0
  -25.2788   -9.5649   22.4766 H   0  0  0  0  0  0
  -24.0004   -7.4618   22.7468 H   0  0  0  0  0  0
  -21.0862   -8.8801   19.8946 H   0  0  0  0  0  0
  -22.3754  -10.9683   19.6161 H   0  0  0  0  0  0
  -21.2013   -7.6153   23.9730 H   0  0  0  0  0  0
  -21.1464   -6.0515   25.9079 H   0  0  0  0  0  0
  -22.0610   -2.7617   23.2838 H   0  0  0  0  0  0
  -22.4122  -11.9833   22.4743 H   0  0  0  0  0  0
  -21.1139  -13.1234   22.2664 H   0  0  0  0  0  0
  -24.6597  -15.8407   20.5132 H   0  0  0  0  0  0
  -26.2680  -15.6243   20.0498 H   0  0  0  0  0  0
  -26.7175  -32.5451   23.1129 H   0  0  0  0  0  0
  -25.0013  -33.9728   25.0398 H   0  0  0  0  0  0
  -22.7121  -31.3107   21.4084 H   0  0  0  0  0  0
  -23.3734  -35.9653   23.3314 H   0  0  0  0  0  0
  -24.3564  -36.8937   22.2064 H   0  0  0  0  0  0
  -23.7256  -37.6509   23.6689 H   0  0  0  0  0  0
  -26.1040  -31.5551   20.6195 H   0  0  0  0  0  0
  -26.8347  -30.8278   22.0221 H   0  0  0  0  0  0
  -28.1112  -28.9821   21.1981 H   0  0  0  0  0  0
  -25.9993  -26.0130   18.8827 H   0  0  0  0  0  0
  -23.9796  -27.3391   18.9743 H   0  0  0  0  0  0
  -23.7506  -30.6035   19.4085 H   0  0  0  0  0  0
  -22.7493  -29.2576   19.8620 H   0  0  0  0  0  0
  -25.1289  -36.1943   25.0819 H   0  0  0  0  0  0
  -20.9966  -28.3312   24.1396 H   0  0  0  0  0  0
  -20.5714  -26.2325   23.3608 H   0  0  0  0  0  0
  -21.6655  -26.7500   22.1186 H   0  0  0  0  0  0
  -19.6935  -25.6312   21.1251 H   0  0  0  0  0  0
  -19.6708  -27.3203   20.6739 H   0  0  0  0  0  0
  -17.4213  -26.6701   21.4001 H   0  0  0  0  0  0
  -18.0317  -26.0073   22.8995 H   0  0  0  0  0  0
  -19.7940  -30.7270   24.2283 H   0  0  0  0  0  0
  -17.5027  -31.6277   24.5175 H   0  0  0  0  0  0
  -15.5351  -30.3006   23.7683 H   0  0  0  0  0  0
  -15.8659  -28.0839   22.7086 H   0  0  0  0  0  0
  -24.5899  -30.7082   25.7795 H   0  0  0  0  0  0
  -24.8910  -32.2882   26.4939 H   0  0  0  0  0  0
  -25.8041  -30.8878   27.0252 H   0  0  0  0  0  0
  -26.2989  -29.6723   24.1329 H   0  0  0  0  0  0
  -27.4091  -29.7357   25.4819 H   0  0  0  0  0  0
  -27.8844  -30.4301   23.9514 H   0  0  0  0  0  0
  -27.2636  -33.3704   26.2047 H   0  0  0  0  0  0
  -28.3842  -32.6938   25.0329 H   0  0  0  0  0  0
  -28.0724  -31.8566   26.5453 H   0  0  0  0  0  0
  -28.2589  -38.0104   24.7511 H   0  0  0  0  0  0
  -28.1074  -36.2625   24.6270 H   0  0  0  0  0  0
  -27.2282  -37.1430   25.8859 H   0  0  0  0  0  0
  -20.9364  -29.8752   21.6849 H   0  0  0  0  0  0
  -26.0169  -38.2848   24.1400 H   0  0  0  0  0  0
  -27.0699  -21.9972   19.2007 H   0  0  0  0  0  0
  -27.4373  -22.2918   20.8685 H   0  0  0  0  0  0
  -29.7553  -22.6922   21.6555 H   0  0  0  0  0  0
  -31.0894  -22.7684   20.5277 H   0  0  0  0  0  0
  -26.4215  -24.2495   19.8599 H   0  0  0  0  0  0
  -27.6060  -24.3210   18.5679 H   0  0  0  0  0  0
  -30.2805  -24.8417   19.5238 H   0  0  0  0  0  0
  -30.3831  -25.0681   21.2391 H   0  0  0  0  0  0
  -27.8668  -22.0595   17.0936 H   0  0  0  0  0  0
  -29.5626  -21.8750   16.6500 H   0  0  0  0  0  0
  -28.4360  -21.1579   14.6554 H   0  0  0  0  0  0
  -27.2074  -20.2975   15.5855 H   0  0  0  0  0  0
  -29.3807  -18.1454   17.2795 H   0  0  0  0  0  0
  -30.6485  -19.3342   16.9803 H   0  0  0  0  0  0
  -29.4833  -22.7201   18.7006 H   0  0  0  0  0  0
  -27.8654  -19.8352   18.1486 H   0  0  0  0  0  0
  -27.9850  -25.0303   21.5025 H   0  0  0  0  0  0
  -29.4929  -17.3681   22.0187 H   0  0  0  0  0  0
  -31.1088  -17.2627   21.3884 H   0  0  0  0  0  0
  -28.7274  -17.8078   19.5194 H   0  0  0  0  0  0
  -30.4421  -18.0498   19.2257 H   0  0  0  0  0  0
  -30.6495  -20.6932   18.9815 H   0  0  0  0  0  0
  -28.8627  -15.3673   21.0466 H   0  0  0  0  0  0
  -29.8648  -19.4469   14.9744 H   0  0  0  0  0  0
  -28.5330  -18.5655   15.2982 H   0  0  0  0  0  0
  -30.2120  -19.8464   21.0137 H   0  0  0  0  0  0
  -28.6185  -19.7197   20.8026 H   0  0  0  0  0  0
  1 25  1  0  0  0
  1 30  2  0  0  0
  1 84  1  0  0  0
  2  3  1  0  0  0
  2 25  1  0  0  0
  2 87  1  0  0  0
  2 88  1  0  0  0
  3  4  1  0  0  0
  3 89  1  0  0  0
  3 90  1  0  0  0
  4  5  1  0  0  0
  4 91  1  0  0  0
  4 92  1  0  0  0
  5  6  1  0  0  0
  5 26  1  0  0  0
  5 93  1  0  0  0
  6 25  1  0  0  0
  6 94  1  0  0  0
  6 95  1  0  0  0
  7  8  2  0  0  0
  7 26  1  0  0  0
  7 29  1  0  0  0
  8  9  1  0  0  0
  8 22  1  0  0  0
  9 10  1  0  0  0
  9 27  2  0  0  0
 10 11  2  0  0  0
 10 15  1  0  0  0
 11 12  1  0  0  0
 11 96  1  0  0  0
 12 13  2  0  0  0
 12 97  1  0  0  0
 13 14  1  0  0  0
 13 31  1  0  0  0
 14 15  2  0  0  0
 14 98  1  0  0  0
 15 99  1  0  0  0
 16 17  2  0  0  0
 16 21  1  0  0  0
 16 31  1  0  0  0
 17 18  1  0  0  0
 17100  1  0  0  0
 18 19  2  0  0  0
 18101  1  0  0  0
 19 20  1  0  0  0
 19 24  1  0  0  0
 20 21  2  0  0  0
 20102  1  0  0  0
 21 23  1  0  0  0
 22 28  1  0  0  0
 22 32  2  0  0  0
 26 27  1  0  0  0
 28103  1  0  0  0
 28104  1  0  0  0
 29105  1  0  0  0
 29106  1  0  0  0
 33 34  1  0  0  0
 33 66  1  0  0  0
 33 70  2  0  0  0
 34 36  1  0  0  0
 34 59  1  0  0  0
 34107  1  0  0  0
 35 44  2  0  0  0
 35 45  1  0  0  0
 35 68  1  0  0  0
 36 56  1  0  0  0
 36108  1  0  0  0
 37 39  1  0  0  0
 37 47  1  0  0  0
 37 66  1  0  0  0
 37109  1  0  0  0
 38 43  2  0  0  0
 38 46  1  0  0  0
 38 47  1  0  0  0
 39 64  1  0  0  0
 39 67  2  0  0  0
 40 52  1  0  0  0
 40 53  2  0  0  0
 40 58  1  0  0  0
 41110  1  0  0  0
 41111  1  0  0  0
 41112  1  0  0  0
 41 48  1  0  0  0
 42 43  1  0  0  0
 42 66  1  0  0  0
 42113  1  0  0  0
 42114  1  0  0  0
 43 44  1  0  0  0
 44115  1  0  0  0
 45 46  2  0  0  0
 45116  1  0  0  0
 46117  1  0  0  0
 47118  1  0  0  0
 47119  1  0  0  0
 48 56  1  0  0  0
 48 65  1  0  0  0
 48120  1  0  0  0
 49 50  1  0  0  0
 49 53  1  0  0  0
 49 64  1  0  0  0
 49121  1  0  0  0
 50 51  1  0  0  0
 50122  1  0  0  0
 50123  1  0  0  0
 51 52  1  0  0  0
 51124  1  0  0  0
 51125  1  0  0  0
 52126  1  0  0  0
 52127  1  0  0  0
 53 54  1  0  0  0
 54 55  2  0  0  0
 54128  1  0  0  0
 55 57  1  0  0  0
 55129  1  0  0  0
 56 69  2  0  0  0
 57 58  2  0  0  0
 57130  1  0  0  0
 58131  1  0  0  0
 59 60  1  0  0  0
 59 61  1  0  0  0
 59 62  1  0  0  0
 60132  1  0  0  0
 60133  1  0  0  0
 60134  1  0  0  0
 61135  1  0  0  0
 61136  1  0  0  0
 61137  1  0  0  0
 62138  1  0  0  0
 62139  1  0  0  0
 62140  1  0  0  0
 63 65  1  0  0  0
 63141  1  0  0  0
 63142  1  0  0  0
 63143  1  0  0  0
 64144  1  0  0  0
 65145  1  0  0  0
 68 80  1  0  0  0
 71 73  1  0  0  0
 71146  1  0  0  0
 71147  1  0  0  0
 71 78  1  0  0  0
 72 74  1  0  0  0
 72 78  1  0  0  0
 72148  1  0  0  0
 72149  1  0  0  0
 73 80  1  0  0  0
 73150  1  0  0  0
 73151  1  0  0  0
 74 80  1  0  0  0
 74152  1  0  0  0
 74153  1  0  0  0
 75 76  1  0  0  0
 75154  1  0  0  0
 75155  1  0  0  0
 75 79  1  0  0  0
 76 85  1  0  0  0
 76156  1  0  0  0
 76157  1  0  0  0
 77 79  1  0  0  0
 77 85  1  0  0  0
 77158  1  0  0  0
 77159  1  0  0  0
 78 83  1  0  0  0
 78160  1  0  0  0
 79 83  1  0  0  0
 79161  1  0  0  0
 80162  1  0  0  0
 81 82  1  0  0  0
 81 84  1  0  0  0
 81163  1  0  0  0
 81164  1  0  0  0
 82 86  1  0  0  0
 82165  1  0  0  0
 82166  1  0  0  0
 83 86  1  0  0  0
 83167  1  0  0  0
 84168  1  0  0  0
 85169  1  0  0  0
 85170  1  0  0  0
 86171  1  0  0  0
 86172  1  0  0  0
M  CHG  2  85   1  86   1
M  ISO  4   1 100  68 101  80 101  84 100
M  END
> <chiral flag>
0

> <version>
0

> <s_m_source_file>
/data/baiqing/PycharmProjects/Reinvent-master-3.2/result/LINK_invent/BTK/process_docking_weight1_custom_sum_contain_oxygen_bond_distance_aromatic_linkinvent_7_9_3/rearranged_h_0127.sdf

> <i_m_source_file_index>
72

> <r_mmod_Potential_Energy-OPLS-2005>
-158.971252441406

> <r_mmod_Stretch_Energy-OPLS-2005>
83.7247848510742

> <r_mmod_Bend_Energy-OPLS-2005>
201.63166809082

> <r_mmod_Torsional_Energy-OPLS-2005>
336.119323730469

> <r_mmod_Improper_Torsional_Energy-OPLS-2005>
4.24955320358276

> <r_mmod_Van_der_Waal_Energy-OPLS-2005>
132.677993774414

> <r_mmod_Electrostatic_Energy-OPLS-2005>
67.1666030883789

> <r_mmod_Solvation_Energy-OPLS-2005>
-1027.20849609375

> <b_mmod_Minimization_Converged-OPLS-2005>
0

> <r_mmod_RMS_Derivative-OPLS-2005>
1.82576894760132

$$$$
72
                    3D
 Structure written by MMmdl.
169178  0  0  1  0            999 V2000
  -30.7844  -14.3300   20.7089 C   0  0  0  0  0  0
  -30.4151  -12.2872   19.3785 C   0  0  0  0  0  0
  -29.4778  -12.5280   18.1816 C   0  0  0  0  0  0
  -28.0036  -12.3819   18.6022 C   0  0  0  0  0  0
  -27.6665  -13.1997   19.8764 C   0  0  2  0  0  0
  -28.7039  -12.9327   20.9876 C   0  0  0  0  0  0
  -25.2617  -13.8153   20.5669 C   0  0  0  0  0  0
  -24.1851  -13.0446   20.9150 C   0  0  0  0  0  0
  -24.6388  -11.6903   20.8715 C   0  0  0  0  0  0
  -23.9049  -10.4288   21.0390 C   0  0  0  0  0  0
  -24.3604   -9.4209   21.9170 C   0  0  0  0  0  0
  -23.6280   -8.2249   22.0753 C   0  0  0  0  0  0
  -22.4267   -8.0278   21.3546 C   0  0  0  0  0  0
  -21.9897   -9.0246   20.4648 C   0  0  0  0  0  0
  -22.7221  -10.2126   20.3045 C   0  0  0  0  0  0
  -21.6845   -6.0728   22.5278 C   0  0  0  0  0  0
  -21.4013   -6.5637   23.8211 C   0  0  0  0  0  0
  -21.3661   -5.6790   24.9173 C   0  0  0  0  0  0
  -21.6043   -4.3055   24.7226 C   0  0  0  0  0  0
  -21.8819   -3.8146   23.4351 C   0  0  0  0  0  0
  -21.9196   -4.6957   22.3404 C   0  0  0  0  0  0
  -22.7876  -13.5250   21.1826 C   0  0  0  0  0  0
  -22.1662   -4.2145   21.0981 F   0  0  0  0  0  0
  -21.5628   -3.4543   25.7742 F   0  0  0  0  0  0
  -30.0491  -13.2201   20.4542 N   0  0  0  0  0  0
  -26.3043  -12.9312   20.3359 N   0  0  0  0  0  0
  -25.9312  -11.6471   20.5727 N   0  0  0  0  0  0
  -22.0516  -12.8242   22.0386 N   0  0  0  0  0  0
  -25.4376  -15.1861   20.4086 N   0  0  0  0  0  0
  -31.7802  -14.6565   20.0552 O   0  0  0  0  0  0
  -21.6640   -6.8872   21.4241 O   0  0  0  0  0  0
  -22.3563  -14.5561   20.6681 O   0  0  0  0  0  0
  -24.6115  -31.8692   23.2099 C   0  0  0  0  0  0
  -25.9010  -32.4820   23.8407 C   0  0  1  0  0  0
  -27.2469  -27.4504   20.0762 C   0  0  0  0  0  0
  -25.5878  -33.8617   24.2339 N   0  0  0  0  0  0
  -23.3992  -30.4912   21.5491 C   0  0  2  0  0  0
  -24.8429  -28.9517   20.1163 C   0  0  0  0  0  0
  -22.7412  -29.4640   22.4994 C   0  0  0  0  0  0
  -18.0280  -28.1365   22.8453 C   0  0  0  0  0  0
  -24.1497  -36.7311   23.2649 C   0  0  0  0  0  0
  -25.9272  -30.8318   21.3654 C   0  0  0  0  0  0
  -25.9993  -29.4669   20.7125 C   0  0  0  0  0  0
  -27.1932  -28.7179   20.6959 C   0  0  0  0  0  0
  -26.0641  -26.9334   19.4937 C   0  0  0  0  0  0
  -24.8683  -27.6817   19.5118 C   0  0  0  0  0  0
  -23.6082  -29.8225   20.1638 C   0  0  0  0  0  0
  -25.4116  -36.3114   24.0358 C   0  0  1  0  0  0
  -20.5869  -28.3632   23.1306 C   0  0  2  0  0  0
  -20.6762  -26.9363   22.5423 C   0  0  0  0  0  0
  -19.5749  -26.6369   21.5199 C   0  0  0  0  0  0
  -18.1917  -26.7906   22.1600 C   0  0  0  0  0  0
  -19.1535  -28.8811   23.2869 C   0  0  0  0  0  0
  -18.9474  -30.1421   23.8873 C   0  0  0  0  0  0
  -17.6482  -30.6556   24.0548 C   0  0  0  0  0  0
  -25.9039  -34.9468   23.5146 C   0  0  0  0  0  0
  -16.5366  -29.9063   23.6329 C   0  0  0  0  0  0
  -16.7278  -28.6499   23.0313 C   0  0  0  0  0  0
  -26.4448  -31.6596   25.0732 C   0  0  0  0  0  0
  -25.3752  -31.3685   26.1516 C   0  0  0  0  0  0
  -27.0291  -30.3059   24.6066 C   0  0  0  0  0  0
  -27.6038  -32.4307   25.7479 C   0  0  0  0  0  0
  -27.5589  -37.1802   24.8472 C   0  0  0  0  0  0
  -21.4144  -29.3011   22.3729 N   0  0  0  0  0  0
  -26.4307  -37.3809   23.9425 N   0  0  0  0  0  0
  -24.6634  -31.0808   22.0994 N   0  0  0  0  0  0
  -23.4186  -28.8185   23.3027 O   0  0  0  0  0  0
  -28.4669  -26.8074   20.0980 O   0  0  0  0  0  0
  -26.5613  -34.8932   22.4712 O   0  0  0  0  0  0
  -23.5312  -32.1423   23.7518 O   0  0  0  0  0  0
  -28.1064  -23.8495   21.0948 C   0  0  0  0  0  0
  -30.1528  -23.4796   19.6667 C   0  0  0  0  0  0
  -28.6313  -22.8166   22.1070 C   0  0  0  0  0  0
  -30.6762  -22.4376   20.6780 C   0  0  0  0  0  0
  -29.7244  -18.2181   21.6905 C   0  0  0  0  0  0
  -31.6323  -18.6786   22.2984 C   0  0  0  0  0  0
  -29.2597  -24.5401   20.3452 C   0  0  1  0  0  0
  -29.5184  -21.7392   21.4337 C   0  0  1  0  0  0
  -31.0334  -17.4226   21.6737 C   0  0  1  0  0  0
  -30.9131  -21.1703   23.5370 C   0  0  0  0  0  0
  -31.1610  -16.0939   22.4240 C   0  0  0  0  0  0
  -28.7387  -25.6124   19.3624 C   0  0  0  0  0  0
  -29.9743  -20.6285   22.4304 C   0  0  2  0  0  0
  -30.4090  -15.0136   21.7964 N   0  0  0  0  0  0
  -30.5319  -19.4447   21.6979 N   0  3  2  0  0  0
  -31.4561  -12.3946   19.0686 H   0  0  0  0  0  0
  -30.3185  -11.2603   19.7343 H   0  0  0  0  0  0
  -29.7063  -11.8258   17.3780 H   0  0  0  0  0  0
  -29.6477  -13.5268   17.7746 H   0  0  0  0  0  0
  -27.8091  -11.3230   18.7778 H   0  0  0  0  0  0
  -27.3492  -12.6788   17.7821 H   0  0  0  0  0  0
  -27.7283  -14.2551   19.6096 H   0  0  0  0  0  0
  -28.6616  -11.8874   21.2971 H   0  0  0  0  0  0
  -28.4474  -13.5051   21.8792 H   0  0  0  0  0  0
  -25.2743   -9.5693   22.4745 H   0  0  0  0  0  0
  -23.9995   -7.4642   22.7473 H   0  0  0  0  0  0
  -21.0827   -8.8746   19.8952 H   0  0  0  0  0  0
  -22.3660  -10.9658   19.6156 H   0  0  0  0  0  0
  -21.1999   -7.6146   23.9710 H   0  0  0  0  0  0
  -21.1482   -6.0525   25.9074 H   0  0  0  0  0  0
  -22.0597   -2.7612   23.2851 H   0  0  0  0  0  0
  -22.4118  -11.9903   22.4781 H   0  0  0  0  0  0
  -21.1129  -13.1261   22.2575 H   0  0  0  0  0  0
  -24.6780  -15.8492   20.5193 H   0  0  0  0  0  0
  -26.2995  -15.6193   20.1015 H   0  0  0  0  0  0
  -26.7055  -32.5533   23.1149 H   0  0  0  0  0  0
  -25.0045  -33.9784   25.0495 H   0  0  0  0  0  0
  -22.6868  -31.3069   21.4081 H   0  0  0  0  0  0
  -23.3762  -35.9633   23.3308 H   0  0  0  0  0  0
  -24.3594  -36.8931   22.2061 H   0  0  0  0  0  0
  -23.7224  -37.6518   23.6645 H   0  0  0  0  0  0
  -26.0485  -31.5993   20.5998 H   0  0  0  0  0  0
  -26.8109  -30.8780   21.9897 H   0  0  0  0  0  0
  -28.0903  -29.1149   21.1518 H   0  0  0  0  0  0
  -26.0295  -25.9605   19.0302 H   0  0  0  0  0  0
  -23.9753  -27.2756   19.0565 H   0  0  0  0  0  0
  -23.7244  -30.5984   19.4056 H   0  0  0  0  0  0
  -22.7304  -29.2489   19.8614 H   0  0  0  0  0  0
  -25.1269  -36.1996   25.0855 H   0  0  0  0  0  0
  -20.9941  -28.3183   24.1440 H   0  0  0  0  0  0
  -20.5633  -26.2240   23.3610 H   0  0  0  0  0  0
  -21.6627  -26.7401   22.1221 H   0  0  0  0  0  0
  -19.6928  -25.6287   21.1207 H   0  0  0  0  0  0
  -19.6697  -27.3194   20.6732 H   0  0  0  0  0  0
  -17.4202  -26.6662   21.3986 H   0  0  0  0  0  0
  -18.0286  -26.0061   22.8995 H   0  0  0  0  0  0
  -19.7977  -30.7220   24.2218 H   0  0  0  0  0  0
  -17.5068  -31.6245   24.5147 H   0  0  0  0  0  0
  -15.5358  -30.2948   23.7697 H   0  0  0  0  0  0
  -15.8691  -28.0832   22.6984 H   0  0  0  0  0  0
  -24.5917  -30.7015   25.7894 H   0  0  0  0  0  0
  -24.8940  -32.2838   26.4982 H   0  0  0  0  0  0
  -25.8152  -30.8875   27.0261 H   0  0  0  0  0  0
  -26.2815  -29.6808   24.1170 H   0  0  0  0  0  0
  -27.4174  -29.7285   25.4466 H   0  0  0  0  0  0
  -27.8593  -30.4428   23.9128 H   0  0  0  0  0  0
  -27.2657  -33.3603   26.2063 H   0  0  0  0  0  0
  -28.3821  -32.6874   25.0277 H   0  0  0  0  0  0
  -28.0725  -31.8435   26.5386 H   0  0  0  0  0  0
  -28.2593  -38.0112   24.7527 H   0  0  0  0  0  0
  -28.1086  -36.2640   24.6259 H   0  0  0  0  0  0
  -27.2307  -37.1416   25.8878 H   0  0  0  0  0  0
  -20.9316  -29.8780   21.6994 H   0  0  0  0  0  0
  -26.0198  -38.2887   24.1436 H   0  0  0  0  0  0
  -27.5047  -24.5952   21.6160 H   0  0  0  0  0  0
  -27.4399  -23.3609   20.3842 H   0  0  0  0  0  0
  -29.5962  -22.9773   18.8746 H   0  0  0  0  0  0
  -31.0013  -23.9685   19.1845 H   0  0  0  0  0  0
  -27.7902  -22.3496   22.6222 H   0  0  0  0  0  0
  -29.1901  -23.3535   22.8730 H   0  0  0  0  0  0
  -31.3387  -22.9378   21.3870 H   0  0  0  0  0  0
  -31.2936  -21.7080   20.1535 H   0  0  0  0  0  0
  -29.1457  -18.0593   22.6022 H   0  0  0  0  0  0
  -29.1067  -18.0973   20.7991 H   0  0  0  0  0  0
  -32.6175  -18.9524   21.9197 H   0  0  0  0  0  0
  -31.6241  -18.6170   23.3870 H   0  0  0  0  0  0
  -29.8889  -25.0517   21.0752 H   0  0  0  0  0  0
  -28.8876  -21.2497   20.6887 H   0  0  0  0  0  0
  -31.3981  -17.3311   20.6474 H   0  0  0  0  0  0
  -30.5289  -22.0778   23.9976 H   0  0  0  0  0  0
  -31.9083  -21.3960   23.1556 H   0  0  0  0  0  0
  -31.0133  -20.4598   24.3577 H   0  0  0  0  0  0
  -30.8001  -16.1992   23.4493 H   0  0  0  0  0  0
  -32.2100  -15.8029   22.5096 H   0  0  0  0  0  0
  -27.9253  -25.2236   18.7545 H   0  0  0  0  0  0
  -29.5297  -25.8703   18.6571 H   0  0  0  0  0  0
  -29.0711  -20.2908   22.9408 H   0  0  0  0  0  0
  -29.6051  -14.6589   22.2919 H   0  0  0  0  0  0
  -30.7788  -19.6922   20.7513 H   0  0  0  0  0  0
  1 25  1  0  0  0
  1 30  2  0  0  0
  1 84  1  0  0  0
  2  3  1  0  0  0
  2 25  1  0  0  0
  2 86  1  0  0  0
  2 87  1  0  0  0
  3  4  1  0  0  0
  3 88  1  0  0  0
  3 89  1  0  0  0
  4  5  1  0  0  0
  4 90  1  0  0  0
  4 91  1  0  0  0
  5  6  1  0  0  0
  5 26  1  0  0  0
  5 92  1  0  0  0
  6 25  1  0  0  0
  6 93  1  0  0  0
  6 94  1  0  0  0
  7  8  2  0  0  0
  7 26  1  0  0  0
  7 29  1  0  0  0
  8  9  1  0  0  0
  8 22  1  0  0  0
  9 10  1  0  0  0
  9 27  2  0  0  0
 10 11  2  0  0  0
 10 15  1  0  0  0
 11 12  1  0  0  0
 11 95  1  0  0  0
 12 13  2  0  0  0
 12 96  1  0  0  0
 13 14  1  0  0  0
 13 31  1  0  0  0
 14 15  2  0  0  0
 14 97  1  0  0  0
 15 98  1  0  0  0
 16 17  2  0  0  0
 16 21  1  0  0  0
 16 31  1  0  0  0
 17 18  1  0  0  0
 17 99  1  0  0  0
 18 19  2  0  0  0
 18100  1  0  0  0
 19 20  1  0  0  0
 19 24  1  0  0  0
 20 21  2  0  0  0
 20101  1  0  0  0
 21 23  1  0  0  0
 22 28  1  0  0  0
 22 32  2  0  0  0
 26 27  1  0  0  0
 28102  1  0  0  0
 28103  1  0  0  0
 29104  1  0  0  0
 29105  1  0  0  0
 33 34  1  0  0  0
 33 66  1  0  0  0
 33 70  2  0  0  0
 34 36  1  0  0  0
 34 59  1  0  0  0
 34106  1  0  0  0
 35 44  2  0  0  0
 35 45  1  0  0  0
 35 68  1  0  0  0
 36 56  1  0  0  0
 36107  1  0  0  0
 37 39  1  0  0  0
 37 47  1  0  0  0
 37 66  1  0  0  0
 37108  1  0  0  0
 38 43  2  0  0  0
 38 46  1  0  0  0
 38 47  1  0  0  0
 39 64  1  0  0  0
 39 67  2  0  0  0
 40 52  1  0  0  0
 40 53  2  0  0  0
 40 58  1  0  0  0
 41109  1  0  0  0
 41110  1  0  0  0
 41111  1  0  0  0
 41 48  1  0  0  0
 42 43  1  0  0  0
 42 66  1  0  0  0
 42112  1  0  0  0
 42113  1  0  0  0
 43 44  1  0  0  0
 44114  1  0  0  0
 45 46  2  0  0  0
 45115  1  0  0  0
 46116  1  0  0  0
 47117  1  0  0  0
 47118  1  0  0  0
 48 56  1  0  0  0
 48 65  1  0  0  0
 48119  1  0  0  0
 49 50  1  0  0  0
 49 53  1  0  0  0
 49 64  1  0  0  0
 49120  1  0  0  0
 50 51  1  0  0  0
 50121  1  0  0  0
 50122  1  0  0  0
 51 52  1  0  0  0
 51123  1  0  0  0
 51124  1  0  0  0
 52125  1  0  0  0
 52126  1  0  0  0
 53 54  1  0  0  0
 54 55  2  0  0  0
 54127  1  0  0  0
 55 57  1  0  0  0
 55128  1  0  0  0
 56 69  2  0  0  0
 57 58  2  0  0  0
 57129  1  0  0  0
 58130  1  0  0  0
 59 60  1  0  0  0
 59 61  1  0  0  0
 59 62  1  0  0  0
 60131  1  0  0  0
 60132  1  0  0  0
 60133  1  0  0  0
 61134  1  0  0  0
 61135  1  0  0  0
 61136  1  0  0  0
 62137  1  0  0  0
 62138  1  0  0  0
 62139  1  0  0  0
 63 65  1  0  0  0
 63140  1  0  0  0
 63141  1  0  0  0
 63142  1  0  0  0
 64143  1  0  0  0
 65144  1  0  0  0
 68 82  1  0  0  0
 71 73  1  0  0  0
 71 77  1  0  0  0
 71145  1  0  0  0
 71146  1  0  0  0
 72 74  1  0  0  0
 72 77  1  0  0  0
 72147  1  0  0  0
 72148  1  0  0  0
 73149  1  0  0  0
 73150  1  0  0  0
 73 78  1  0  0  0
 74 78  1  0  0  0
 74151  1  0  0  0
 74152  1  0  0  0
 75 79  1  0  0  0
 75153  1  0  0  0
 75154  1  0  0  0
 75 85  1  0  0  0
 76 79  1  0  0  0
 76 85  1  0  0  0
 76155  1  0  0  0
 76156  1  0  0  0
 77 82  1  0  0  0
 77157  1  0  0  0
 78 83  1  0  0  0
 78158  1  0  0  0
 79 81  1  0  0  0
 79159  1  0  0  0
 80160  1  0  0  0
 80161  1  0  0  0
 80162  1  0  0  0
 80 83  1  0  0  0
 81 84  1  0  0  0
 81163  1  0  0  0
 81164  1  0  0  0
 82165  1  0  0  0
 82166  1  0  0  0
 83 85  1  0  0  0
 83167  1  0  0  0
 84168  1  0  0  0
 85169  1  0  0  0
M  CHG  1  85   1
M  ISO  4   1 100  68 101  82 101  84 100
M  END
> <chiral flag>
0

> <version>
0

> <s_m_source_file>
/data/baiqing/PycharmProjects/Reinvent-master-3.2/result/LINK_invent/BTK/process_docking_weight1_custom_sum_contain_oxygen_bond_distance_aromatic_linkinvent_7_9_3/rearranged_h_0127.sdf

> <i_m_source_file_index>
73

> <r_mmod_Potential_Energy-OPLS-2005>
-102.834297180176

> <r_mmod_Stretch_Energy-OPLS-2005>
35.8136558532715

> <r_mmod_Bend_Energy-OPLS-2005>
129.6083984375

> <r_mmod_Torsional_Energy-OPLS-2005>
260.897979736328

> <r_mmod_Improper_Torsional_Energy-OPLS-2005>
2.25719380378723

> <r_mmod_Van_der_Waal_Energy-OPLS-2005>
143.689224243164

> <r_mmod_Electrostatic_Energy-OPLS-2005>
-249.3203125

> <r_mmod_Solvation_Energy-OPLS-2005>
-434.918579101562

> <b_mmod_Minimization_Converged-OPLS-2005>
0

> <r_mmod_RMS_Derivative-OPLS-2005>
2.69503331184387

$$$$
73
                    3D
 Structure written by MMmdl.
160169  0  0  1  0            999 V2000
  -30.5666  -14.6393   20.5503 C   0  0  0  0  0  0
  -30.4400  -12.4059   19.4507 C   0  0  0  0  0  0
  -29.5000  -12.5270   18.2278 C   0  0  0  0  0  0
  -28.0259  -12.3507   18.6431 C   0  0  0  0  0  0
  -27.6582  -13.2094   19.8787 C   0  0  2  0  0  0
  -28.6910  -13.0112   21.0069 C   0  0  0  0  0  0
  -25.2565  -13.8118   20.5533 C   0  0  0  0  0  0
  -24.1877  -13.0391   20.9145 C   0  0  0  0  0  0
  -24.6466  -11.6882   20.8799 C   0  0  0  0  0  0
  -23.9115  -10.4282   21.0466 C   0  0  0  0  0  0
  -24.3649   -9.4207   21.9248 C   0  0  0  0  0  0
  -23.6301   -8.2258   22.0784 C   0  0  0  0  0  0
  -22.4293   -8.0326   21.3561 C   0  0  0  0  0  0
  -21.9952   -9.0321   20.4669 C   0  0  0  0  0  0
  -22.7294  -10.2173   20.3102 C   0  0  0  0  0  0
  -21.6846   -6.0803   22.5299 C   0  0  0  0  0  0
  -21.4017   -6.5694   23.8249 C   0  0  0  0  0  0
  -21.3640   -5.6817   24.9179 C   0  0  0  0  0  0
  -21.6050   -4.3099   24.7209 C   0  0  0  0  0  0
  -21.8820   -3.8204   23.4325 C   0  0  0  0  0  0
  -21.9194   -4.7034   22.3395 C   0  0  0  0  0  0
  -22.7895  -13.5217   21.1748 C   0  0  0  0  0  0
  -22.1662   -4.2234   21.0961 F   0  0  0  0  0  0
  -21.5634   -3.4570   25.7710 F   0  0  0  0  0  0
  -30.0088  -13.3894   20.4644 N   0  0  0  0  0  0
  -26.3040  -12.9305   20.3394 N   0  0  0  0  0  0
  -25.9400  -11.6471   20.5887 N   0  0  0  0  0  0
  -22.0525  -12.8287   22.0342 N   0  0  0  0  0  0
  -25.4133  -15.1777   20.3599 N   0  0  0  0  0  0
  -31.6845  -14.8758   20.0784 O   0  0  0  0  0  0
  -21.6631   -6.8945   21.4256 O   0  0  0  0  0  0
  -22.3619  -14.5523   20.6546 O   0  0  0  0  0  0
  -24.6191  -31.8615   23.1997 C   0  0  0  0  0  0
  -25.9080  -32.4735   23.8298 C   0  0  1  0  0  0
  -27.2153  -27.3002   20.1541 C   0  0  0  0  0  0
  -25.5966  -33.8549   24.2255 N   0  0  0  0  0  0
  -23.4127  -30.4741   21.5439 C   0  0  2  0  0  0
  -24.8632  -28.9252   20.1138 C   0  0  0  0  0  0
  -22.7462  -29.4543   22.4959 C   0  0  0  0  0  0
  -18.0257  -28.1307   22.8391 C   0  0  0  0  0  0
  -24.1519  -36.7235   23.2659 C   0  0  0  0  0  0
  -25.9522  -30.7829   21.3774 C   0  0  0  0  0  0
  -26.0275  -29.4094   20.7203 C   0  0  0  0  0  0
  -27.2103  -28.6110   20.7188 C   0  0  0  0  0  0
  -26.0303  -26.8558   19.5369 C   0  0  0  0  0  0
  -24.8666  -27.6557   19.5113 C   0  0  0  0  0  0
  -23.6308  -29.8087   20.1584 C   0  0  0  0  0  0
  -25.4134  -36.3044   24.0362 C   0  0  1  0  0  0
  -20.5860  -28.3613   23.1313 C   0  0  2  0  0  0
  -20.6792  -26.9359   22.5417 C   0  0  0  0  0  0
  -19.5799  -26.6328   21.5195 C   0  0  0  0  0  0
  -18.1949  -26.7844   22.1555 C   0  0  0  0  0  0
  -19.1519  -28.8791   23.2811 C   0  0  0  0  0  0
  -18.9448  -30.1388   23.8824 C   0  0  0  0  0  0
  -17.6468  -30.6532   24.0497 C   0  0  0  0  0  0
  -25.9086  -34.9428   23.5101 C   0  0  0  0  0  0
  -16.5357  -29.9010   23.6328 C   0  0  0  0  0  0
  -16.7254  -28.6434   23.0293 C   0  0  0  0  0  0
  -26.4489  -31.6536   25.0644 C   0  0  0  0  0  0
  -25.3710  -31.3734   26.1363 C   0  0  0  0  0  0
  -27.0373  -30.2970   24.6093 C   0  0  0  0  0  0
  -27.6021  -32.4333   25.7407 C   0  0  0  0  0  0
  -27.5585  -37.1746   24.8464 C   0  0  0  0  0  0
  -21.4179  -29.2938   22.3719 N   0  0  0  0  0  0
  -26.4294  -37.3726   23.9439 N   0  0  0  0  0  0
  -24.6772  -31.0559   22.0990 N   0  0  0  0  0  0
  -23.4226  -28.8141   23.3034 O   0  0  0  0  0  0
  -28.3528  -26.4785   20.1370 O   0  0  0  0  0  0
  -26.5590  -34.8889   22.4613 O   0  0  0  0  0  0
  -23.5351  -32.1468   23.7333 O   0  0  0  0  0  0
  -29.5534  -19.2507   19.8601 C   0  0  0  0  0  0
  -29.8736  -17.8482   19.9070 C   0  0  0  0  0  0
  -28.7214  -19.1148   22.0996 C   0  0  0  0  0  0
  -28.9975  -17.7123   22.1512 C   0  0  0  0  0  0
  -28.9643  -19.9376   20.9652 C   0  0  0  0  0  0
  -29.6118  -17.0425   21.0558 C   0  0  0  0  0  0
  -27.4476  -15.9653   23.3604 C   0  0  0  0  0  0
  -27.3597  -17.2275   24.1805 C   0  0  0  0  0  0
  -28.6135  -16.9281   23.3852 C   0  0  0  0  0  0
  -28.4605  -21.4535   21.0145 C   0  0  0  0  0  0
  -28.1137  -23.8169   19.8621 C   0  0  0  0  0  0
  -28.3416  -25.1240   20.7583 C   0  0  0  0  0  0
  -29.7760  -15.5873   21.1459 N   0  0  0  0  0  0
  -28.9667  -22.5510   20.0805 N   0  3  0  0  0  0
  -31.4781  -12.5576   19.1498 H   0  0  0  0  0  0
  -30.3977  -11.3985   19.8661 H   0  0  0  0  0  0
  -29.7615  -11.7804   17.4791 H   0  0  0  0  0  0
  -29.6243  -13.5017   17.7532 H   0  0  0  0  0  0
  -27.8709  -11.2946   18.8692 H   0  0  0  0  0  0
  -27.3585  -12.5841   17.8136 H   0  0  0  0  0  0
  -27.6929  -14.2532   19.5635 H   0  0  0  0  0  0
  -28.7055  -11.9701   21.3360 H   0  0  0  0  0  0
  -28.4101  -13.5819   21.8925 H   0  0  0  0  0  0
  -25.2777   -9.5675   22.4866 H   0  0  0  0  0  0
  -24.0042   -7.4631   22.7492 H   0  0  0  0  0  0
  -21.0911   -8.8875   19.8925 H   0  0  0  0  0  0
  -22.3813  -10.9770   19.6257 H   0  0  0  0  0  0
  -21.2026   -7.6202   23.9794 H   0  0  0  0  0  0
  -21.1416   -6.0518   25.9089 H   0  0  0  0  0  0
  -22.0586   -2.7669   23.2779 H   0  0  0  0  0  0
  -22.4073  -11.9949   22.4784 H   0  0  0  0  0  0
  -21.1206  -13.1467   22.2587 H   0  0  0  0  0  0
  -24.6041  -15.7910   20.3721 H   0  0  0  0  0  0
  -26.2327  -15.6092   19.9507 H   0  0  0  0  0  0
  -26.7110  -32.5449   23.1006 H   0  0  0  0  0  0
  -25.0273  -33.9695   25.0500 H   0  0  0  0  0  0
  -22.6949  -31.2876   21.3966 H   0  0  0  0  0  0
  -23.3808  -35.9535   23.3291 H   0  0  0  0  0  0
  -24.3636  -36.8851   22.2075 H   0  0  0  0  0  0
  -23.7235  -37.6417   23.6685 H   0  0  0  0  0  0
  -26.0897  -31.5526   20.6189 H   0  0  0  0  0  0
  -26.8309  -30.8259   22.0113 H   0  0  0  0  0  0
  -28.1092  -28.9790   21.1881 H   0  0  0  0  0  0
  -25.9955  -25.8840   19.0677 H   0  0  0  0  0  0
  -23.9769  -27.2737   19.0337 H   0  0  0  0  0  0
  -23.7420  -30.5848   19.4041 H   0  0  0  0  0  0
  -22.7490  -29.2390   19.8606 H   0  0  0  0  0  0
  -25.1290  -36.1896   25.0848 H   0  0  0  0  0  0
  -20.9833  -28.3139   24.1481 H   0  0  0  0  0  0
  -20.5754  -26.2153   23.3571 H   0  0  0  0  0  0
  -21.6652  -26.7436   22.1190 H   0  0  0  0  0  0
  -19.7026  -25.6246   21.1221 H   0  0  0  0  0  0
  -19.6812  -27.3116   20.6724 H   0  0  0  0  0  0
  -17.4235  -26.6562   21.3929 H   0  0  0  0  0  0
  -18.0307  -25.9973   22.8949 H   0  0  0  0  0  0
  -19.7954  -30.7156   24.2173 H   0  0  0  0  0  0
  -17.5045  -31.6236   24.5047 H   0  0  0  0  0  0
  -15.5338  -30.2868   23.7746 H   0  0  0  0  0  0
  -15.8639  -28.0784   22.7015 H   0  0  0  0  0  0
  -24.5916  -30.7045   25.7714 H   0  0  0  0  0  0
  -24.8867  -32.2927   26.4685 H   0  0  0  0  0  0
  -25.7999  -30.9008   27.0216 H   0  0  0  0  0  0
  -26.2945  -29.6668   24.1191 H   0  0  0  0  0  0
  -27.4182  -29.7272   25.4585 H   0  0  0  0  0  0
  -27.8766  -30.4272   23.9255 H   0  0  0  0  0  0
  -27.2629  -33.3701   26.1849 H   0  0  0  0  0  0
  -28.3876  -32.6810   25.0252 H   0  0  0  0  0  0
  -28.0640  -31.8578   26.5424 H   0  0  0  0  0  0
  -28.2526  -38.0099   24.7508 H   0  0  0  0  0  0
  -28.1150  -36.2613   24.6295 H   0  0  0  0  0  0
  -27.2307  -37.1358   25.8861 H   0  0  0  0  0  0
  -20.9364  -29.8564   21.6850 H   0  0  0  0  0  0
  -26.0190  -38.2811   24.1415 H   0  0  0  0  0  0
  -29.7455  -19.7841   18.9384 H   0  0  0  0  0  0
  -30.2701  -17.3764   19.0193 H   0  0  0  0  0  0
  -28.2615  -19.5681   22.9672 H   0  0  0  0  0  0
  -26.8281  -15.9255   22.4684 H   0  0  0  0  0  0
  -27.5461  -15.0261   23.9000 H   0  0  0  0  0  0
  -27.3933  -17.1134   25.2633 H   0  0  0  0  0  0
  -26.6828  -17.9956   23.8120 H   0  0  0  0  0  0
  -29.4997  -16.5799   23.9153 H   0  0  0  0  0  0
  -28.6468  -21.8109   22.0337 H   0  0  0  0  0  0
  -27.3678  -21.4059   20.9411 H   0  0  0  0  0  0
  -28.2701  -24.1205   18.8244 H   0  0  0  0  0  0
  -27.0581  -23.5467   19.9032 H   0  0  0  0  0  0
  -29.3134  -25.0234   21.2496 H   0  0  0  0  0  0
  -27.6214  -25.1193   21.5814 H   0  0  0  0  0  0
  -29.0690  -15.1518   21.7201 H   0  0  0  0  0  0
  -29.0347  -22.1323   19.1636 H   0  0  0  0  0  0
  -29.9146  -22.8043   20.3270 H   0  0  0  0  0  0
  1 25  1  0  0  0
  1 30  2  0  0  0
  1 83  1  0  0  0
  2  3  1  0  0  0
  2 25  1  0  0  0
  2 85  1  0  0  0
  2 86  1  0  0  0
  3  4  1  0  0  0
  3 87  1  0  0  0
  3 88  1  0  0  0
  4  5  1  0  0  0
  4 89  1  0  0  0
  4 90  1  0  0  0
  5  6  1  0  0  0
  5 26  1  0  0  0
  5 91  1  0  0  0
  6 25  1  0  0  0
  6 92  1  0  0  0
  6 93  1  0  0  0
  7  8  2  0  0  0
  7 26  1  0  0  0
  7 29  1  0  0  0
  8  9  1  0  0  0
  8 22  1  0  0  0
  9 10  1  0  0  0
  9 27  2  0  0  0
 10 11  2  0  0  0
 10 15  1  0  0  0
 11 12  1  0  0  0
 11 94  1  0  0  0
 12 13  2  0  0  0
 12 95  1  0  0  0
 13 14  1  0  0  0
 13 31  1  0  0  0
 14 15  2  0  0  0
 14 96  1  0  0  0
 15 97  1  0  0  0
 16 17  2  0  0  0
 16 21  1  0  0  0
 16 31  1  0  0  0
 17 18  1  0  0  0
 17 98  1  0  0  0
 18 19  2  0  0  0
 18 99  1  0  0  0
 19 20  1  0  0  0
 19 24  1  0  0  0
 20 21  2  0  0  0
 20100  1  0  0  0
 21 23  1  0  0  0
 22 28  1  0  0  0
 22 32  2  0  0  0
 26 27  1  0  0  0
 28101  1  0  0  0
 28102  1  0  0  0
 29103  1  0  0  0
 29104  1  0  0  0
 33 34  1  0  0  0
 33 66  1  0  0  0
 33 70  2  0  0  0
 34 36  1  0  0  0
 34 59  1  0  0  0
 34105  1  0  0  0
 35 44  2  0  0  0
 35 45  1  0  0  0
 35 68  1  0  0  0
 36 56  1  0  0  0
 36106  1  0  0  0
 37 39  1  0  0  0
 37 47  1  0  0  0
 37 66  1  0  0  0
 37107  1  0  0  0
 38 43  2  0  0  0
 38 46  1  0  0  0
 38 47  1  0  0  0
 39 64  1  0  0  0
 39 67  2  0  0  0
 40 52  1  0  0  0
 40 53  2  0  0  0
 40 58  1  0  0  0
 41108  1  0  0  0
 41109  1  0  0  0
 41110  1  0  0  0
 41 48  1  0  0  0
 42 43  1  0  0  0
 42 66  1  0  0  0
 42111  1  0  0  0
 42112  1  0  0  0
 43 44  1  0  0  0
 44113  1  0  0  0
 45 46  2  0  0  0
 45114  1  0  0  0
 46115  1  0  0  0
 47116  1  0  0  0
 47117  1  0  0  0
 48 56  1  0  0  0
 48 65  1  0  0  0
 48118  1  0  0  0
 49 50  1  0  0  0
 49 53  1  0  0  0
 49 64  1  0  0  0
 49119  1  0  0  0
 50 51  1  0  0  0
 50120  1  0  0  0
 50121  1  0  0  0
 51 52  1  0  0  0
 51122  1  0  0  0
 51123  1  0  0  0
 52124  1  0  0  0
 52125  1  0  0  0
 53 54  1  0  0  0
 54 55  2  0  0  0
 54126  1  0  0  0
 55 57  1  0  0  0
 55127  1  0  0  0
 56 69  2  0  0  0
 57 58  2  0  0  0
 57128  1  0  0  0
 58129  1  0  0  0
 59 60  1  0  0  0
 59 61  1  0  0  0
 59 62  1  0  0  0
 60130  1  0  0  0
 60131  1  0  0  0
 60132  1  0  0  0
 61133  1  0  0  0
 61134  1  0  0  0
 61135  1  0  0  0
 62136  1  0  0  0
 62137  1  0  0  0
 62138  1  0  0  0
 63 65  1  0  0  0
 63139  1  0  0  0
 63140  1  0  0  0
 63141  1  0  0  0
 64142  1  0  0  0
 65143  1  0  0  0
 68 82  1  0  0  0
 71 72  2  0  0  0
 71 75  1  0  0  0
 71144  1  0  0  0
 72 76  1  0  0  0
 72145  1  0  0  0
 73 74  1  0  0  0
 73 75  2  0  0  0
 73146  1  0  0  0
 74 76  2  0  0  0
 74 79  1  0  0  0
 75 80  1  0  0  0
 76 83  1  0  0  0
 77 78  1  0  0  0
 77 79  1  0  0  0
 77147  1  0  0  0
 77148  1  0  0  0
 78 79  1  0  0  0
 78149  1  0  0  0
 78150  1  0  0  0
 79151  1  0  0  0
 80 84  1  0  0  0
 80152  1  0  0  0
 80153  1  0  0  0
 81 82  1  0  0  0
 81 84  1  0  0  0
 81154  1  0  0  0
 81155  1  0  0  0
 82156  1  0  0  0
 82157  1  0  0  0
 83158  1  0  0  0
 84159  1  0  0  0
 84160  1  0  0  0
M  CHG  1  84   1
M  ISO  4   1 100  68 101  82 101  83 100
M  END
> <chiral flag>
0

> <version>
0

> <s_m_source_file>
/data/baiqing/PycharmProjects/Reinvent-master-3.2/result/LINK_invent/BTK/process_docking_weight1_custom_sum_contain_oxygen_bond_distance_aromatic_linkinvent_7_9_3/rearranged_h_0127.sdf

> <i_m_source_file_index>
74

> <r_mmod_Potential_Energy-OPLS-2005>
-13.0739812850952

> <r_mmod_Stretch_Energy-OPLS-2005>
93.6212158203125

> <r_mmod_Bend_Energy-OPLS-2005>
176.338180541992

> <r_mmod_Torsional_Energy-OPLS-2005>
281.3701171875

> <r_mmod_Improper_Torsional_Energy-OPLS-2005>
4.35640668869019

> <r_mmod_Van_der_Waal_Energy-OPLS-2005>
128.332977294922

> <r_mmod_Electrostatic_Energy-OPLS-2005>
-291.280822753906

> <r_mmod_Solvation_Energy-OPLS-2005>
-457.311279296875

> <b_mmod_Minimization_Converged-OPLS-2005>
0

> <r_mmod_RMS_Derivative-OPLS-2005>
6.6685037612915

$$$$
74
                    3D
 Structure written by MMmdl.
168177  0  0  1  0            999 V2000
  -31.4675  -15.9283   20.4512 C   0  0  0  0  0  0
  -31.4356  -14.6399   18.9925 C   0  0  0  0  0  0
  -30.2936  -15.1160   18.5645 C   0  0  0  0  0  0
  -27.5943  -14.0590   19.7960 C   0  0  0  0  0  0
  -26.5308  -14.3540   19.5361 C   0  0  2  0  0  0
  -27.8135  -15.2004   20.0887 C   0  0  0  0  0  0
  -24.7417  -14.0637   20.8811 C   0  0  0  0  0  0
  -23.8743  -13.0851   21.1219 C   0  0  0  0  0  0
  -24.4970  -11.8096   20.9206 C   0  0  0  0  0  0
  -23.8958  -10.4645   21.0307 C   0  0  0  0  0  0
  -24.3711   -9.4570   21.9058 C   0  0  0  0  0  0
  -23.6514   -8.2469   22.0632 C   0  0  0  0  0  0
  -22.4473   -8.0348   21.3488 C   0  0  0  0  0  0
  -22.0045   -9.0213   20.4530 C   0  0  0  0  0  0
  -22.7215  -10.2172   20.2927 C   0  0  0  0  0  0
  -21.6971   -6.0806   22.5276 C   0  0  0  0  0  0
  -21.4084   -6.5693   23.8203 C   0  0  0  0  0  0
  -21.3652   -5.6826   24.9151 C   0  0  0  0  0  0
  -21.6029   -4.3085   24.7195 C   0  0  0  0  0  0
  -21.8822   -3.8194   23.4312 C   0  0  0  0  0  0
  -21.9242   -4.7025   22.3385 C   0  0  0  0  0  0
  -22.4674  -13.4315   21.3056 C   0  0  0  0  0  0
  -22.1705   -4.2205   21.0965 F   0  0  0  0  0  0
  -21.5602   -3.4562   25.7704 F   0  0  0  0  0  0
  -30.2526  -15.5650   19.5643 N   0  0  0  0  0  0
  -25.7090  -13.4317   20.3147 N   0  0  0  0  0  0
  -25.7038  -12.0317   20.4119 N   0  0  0  0  0  0
  -21.7871  -12.6953   22.1562 N   0  0  0  0  0  0
  -24.7320  -15.4585   20.9034 N   0  0  0  0  0  0
  -32.2173  -15.1480   21.0790 O   0  0  0  0  0  0
  -21.6839   -6.8938   21.4231 O   0  0  0  0  0  0
  -22.0060  -14.4190   20.7307 O   0  0  0  0  0  0
  -24.8264  -31.5774   23.0239 C   0  0  0  0  0  0
  -25.9969  -32.3447   23.7382 C   0  0  1  0  0  0
  -27.1620  -25.0691   20.2276 C   0  0  0  0  0  0
  -25.5885  -33.7375   24.1038 N   0  0  0  0  0  0
  -23.7048  -30.1053   21.4223 C   0  0  2  0  0  0
  -25.1273  -28.0831   20.1512 C   0  0  0  0  0  0
  -22.8267  -29.3166   22.4425 C   0  0  0  0  0  0
  -18.0376  -28.1411   22.8457 C   0  0  0  0  0  0
  -24.1437  -36.6603   23.2731 C   0  0  0  0  0  0
  -26.2992  -29.7468   21.5343 C   0  0  0  0  0  0
  -26.3247  -28.1386   20.8680 C   0  0  0  0  0  0
  -27.2504  -26.7266   20.8363 C   0  0  0  0  0  0
  -25.9659  -25.6231   19.4798 C   0  0  0  0  0  0
  -25.0757  -26.8462   19.4361 C   0  0  0  0  0  0
  -24.0131  -29.2352   20.1322 C   0  0  0  0  0  0
  -25.4129  -36.2254   24.0235 C   0  0  1  0  0  0
  -20.6065  -28.3749   23.0976 C   0  0  2  0  0  0
  -20.6696  -26.9289   22.5490 C   0  0  0  0  0  0
  -19.5699  -26.6242   21.5261 C   0  0  0  0  0  0
  -18.1898  -26.7918   22.1644 C   0  0  0  0  0  0
  -19.1692  -28.8949   23.2640 C   0  0  0  0  0  0
  -18.9615  -30.1527   23.8693 C   0  0  0  0  0  0
  -17.6602  -30.6608   24.0486 C   0  0  0  0  0  0
  -25.9207  -34.8708   23.4620 C   0  0  0  0  0  0
  -16.5464  -29.9061   23.6399 C   0  0  0  0  0  0
  -16.7360  -28.6460   23.0466 C   0  0  0  0  0  0
  -26.4762  -31.6291   25.0640 C   0  0  0  0  0  0
  -25.3589  -31.3919   26.1100 C   0  0  0  0  0  0
  -27.1002  -30.2619   24.7488 C   0  0  0  0  0  0
  -27.5836  -32.4624   25.7493 C   0  0  0  0  0  0
  -27.5454  -37.1411   24.8476 C   0  0  0  0  0  0
  -21.4818  -29.2661   22.3092 N   0  0  0  0  0  0
  -26.4064  -37.3240   23.9535 N   0  0  0  0  0  0
  -24.9963  -30.5531   22.0440 N   0  0  0  0  0  0
  -23.3988  -28.7249   23.3587 O   0  0  0  0  0  0
  -27.9006  -23.1587   20.1937 O   0  0  0  0  0  0
  -26.6105  -34.8617   22.4420 O   0  0  0  0  0  0
  -23.7007  -31.9587   23.4190 O   0  0  0  0  0  0
  -28.3783  -14.6331   17.8291 C   0  0  0  0  0  0
  -29.5247  -13.2926   19.5021 C   0  0  0  0  0  0
  -28.3154  -16.6469   18.3401 C   0  0  0  0  0  0
  -29.1213  -16.5653   21.3365 C   0  0  0  0  0  0
  -29.5343  -14.4119   21.3074 C   0  0  0  0  0  0
  -28.5619  -17.8801   19.9027 C   0  0  0  0  0  0
  -27.4558  -17.5250   24.4857 C   0  0  0  0  0  0
  -28.6013  -17.9922   25.4329 C   0  0  0  0  0  0
  -29.0320  -17.0392   22.7833 C   0  0  1  0  0  0
  -30.1646  -17.8783   23.4213 C   0  0  2  0  0  0
  -29.9337  -13.6800   22.5840 C   0  0  0  0  0  0
  -27.9206  -20.5431   19.9835 C   0  0  0  0  0  0
  -31.6193  -17.4748   23.0370 C   0  0  0  0  0  0
  -32.1732  -17.9764   21.6665 C   0  0  0  0  0  0
  -27.7793  -17.7187   23.0661 N   0  0  0  0  0  0
  -31.6620  -17.2559   20.5019 N   0  0  0  0  0  0
  -29.9814  -17.7598   24.8967 N   0  3  0  0  0  0
  -32.2628  -15.0806   18.4054 H   0  0  0  0  0  0
  -31.6939  -13.6186   19.3203 H   0  0  0  0  0  0
  -30.5675  -14.4062   17.7202 H   0  0  0  0  0  0
  -30.3960  -15.7976   17.6007 H   0  0  0  0  0  0
  -27.6938  -13.2794   20.6898 H   0  0  0  0  0  0
  -27.3988  -13.1362   19.1453 H   0  0  0  0  0  0
  -26.1477  -14.5908   18.5365 H   0  0  0  0  0  0
  -27.3869  -15.3738   21.2080 H   0  0  0  0  0  0
  -27.1490  -16.1102   20.0985 H   0  0  0  0  0  0
  -25.2709   -9.6221   22.4828 H   0  0  0  0  0  0
  -24.0276   -7.4893   22.7354 H   0  0  0  0  0  0
  -21.0990   -8.8624   19.8854 H   0  0  0  0  0  0
  -22.3409  -10.9742   19.6211 H   0  0  0  0  0  0
  -21.2100   -7.6207   23.9697 H   0  0  0  0  0  0
  -21.1435   -6.0569   25.9041 H   0  0  0  0  0  0
  -22.0603   -2.7663   23.2783 H   0  0  0  0  0  0
  -22.2221  -11.9206   22.6348 H   0  0  0  0  0  0
  -20.8179  -12.9099   22.3458 H   0  0  0  0  0  0
  -23.8657  -15.9209   21.1550 H   0  0  0  0  0  0
  -25.3755  -16.0589   20.4070 H   0  0  0  0  0  0
  -26.8240  -32.3811   23.0279 H   0  0  0  0  0  0
  -24.9697  -33.8164   24.8970 H   0  0  0  0  0  0
  -23.1325  -30.9778   21.0967 H   0  0  0  0  0  0
  -23.3837  -35.8781   23.3077 H   0  0  0  0  0  0
  -24.3506  -36.8637   22.2217 H   0  0  0  0  0  0
  -23.7030  -37.5550   23.7126 H   0  0  0  0  0  0
  -26.7313  -30.3905   20.7694 H   0  0  0  0  0  0
  -27.0647  -29.7443   22.2921 H   0  0  0  0  0  0
  -28.1281  -26.8380   21.4564 H   0  0  0  0  0  0
  -25.5659  -24.8544   18.8350 H   0  0  0  0  0  0
  -24.2165  -26.7381   18.7898 H   0  0  0  0  0  0
  -24.3089  -29.9159   19.3353 H   0  0  0  0  0  0
  -23.0844  -28.7789   19.7858 H   0  0  0  0  0  0
  -25.1401  -36.0716   25.0703 H   0  0  0  0  0  0
  -21.0072  -28.3418   24.1141 H   0  0  0  0  0  0
  -20.5350  -26.2415   23.3859 H   0  0  0  0  0  0
  -21.6549  -26.6941   22.1449 H   0  0  0  0  0  0
  -19.6790  -25.6108   21.1378 H   0  0  0  0  0  0
  -19.6668  -27.2976   20.6734 H   0  0  0  0  0  0
  -17.4181  -26.6774   21.4017 H   0  0  0  0  0  0
  -18.0178  -26.0052   22.9016 H   0  0  0  0  0  0
  -19.8116  -30.7364   24.1961 H   0  0  0  0  0  0
  -17.5176  -31.6296   24.5075 H   0  0  0  0  0  0
  -15.5464  -30.2925   23.7802 H   0  0  0  0  0  0
  -15.8758  -28.0671   22.7365 H   0  0  0  0  0  0
  -24.5802  -30.7218   25.7441 H   0  0  0  0  0  0
  -24.8786  -32.3242   26.4084 H   0  0  0  0  0  0
  -25.7627  -30.9391   27.0173 H   0  0  0  0  0  0
  -26.3691  -29.5543   24.3566 H   0  0  0  0  0  0
  -27.5049  -29.7971   25.6488 H   0  0  0  0  0  0
  -27.9425  -30.3619   24.0655 H   0  0  0  0  0  0
  -27.2038  -33.4106   26.1310 H   0  0  0  0  0  0
  -28.3975  -32.6901   25.0609 H   0  0  0  0  0  0
  -28.0111  -31.9353   26.6026 H   0  0  0  0  0  0
  -28.2216  -37.9926   24.7681 H   0  0  0  0  0  0
  -28.1176  -36.2447   24.6056 H   0  0  0  0  0  0
  -27.2245  -37.0689   25.8878 H   0  0  0  0  0  0
  -21.0472  -29.7932   21.5642 H   0  0  0  0  0  0
  -25.9695  -38.2135   24.1792 H   0  0  0  0  0  0
  -28.1306  -14.2541   16.8448 H   0  0  0  0  0  0
  -29.7433  -12.2367   19.3957 H   0  0  0  0  0  0
  -27.9325  -17.2091   17.5005 H   0  0  0  0  0  0
  -26.5548  -18.0953   24.7243 H   0  0  0  0  0  0
  -27.1896  -16.4795   24.6668 H   0  0  0  0  0  0
  -28.5077  -17.4445   26.3779 H   0  0  0  0  0  0
  -28.4554  -19.0418   25.6993 H   0  0  0  0  0  0
  -28.9920  -16.0971   23.3266 H   0  0  0  0  0  0
  -30.0336  -18.9238   23.1333 H   0  0  0  0  0  0
  -30.8362  -13.0903   22.4129 H   0  0  0  0  0  0
  -29.1464  -13.0002   22.9128 H   0  0  0  0  0  0
  -30.1612  -14.3683   23.3961 H   0  0  0  0  0  0
  -27.1089  -20.3923   20.6961 H   0  0  0  0  0  0
  -27.4406  -20.5404   19.0062 H   0  0  0  0  0  0
  -31.7587  -16.3997   23.1481 H   0  0  0  0  0  0
  -32.2895  -17.8790   23.7937 H   0  0  0  0  0  0
  -33.2601  -17.9085   21.6619 H   0  0  0  0  0  0
  -31.9518  -19.0365   21.5336 H   0  0  0  0  0  0
  -27.0690  -17.3425   22.4469 H   0  0  0  0  0  0
  -31.0928  -17.7817   19.8516 H   0  0  0  0  0  0
  -30.2621  -16.8256   25.1433 H   0  0  0  0  0  0
  -30.6217  -18.3843   25.3568 H   0  0  0  0  0  0
  1 25  1  0  0  0
  1 30  2  0  0  0
  1 86  1  0  0  0
  2  3  1  0  0  0
  2 25  1  0  0  0
  2 88  1  0  0  0
  2 89  1  0  0  0
  3  4  1  0  0  0
  3 90  1  0  0  0
  3 91  1  0  0  0
  4  5  1  0  0  0
  4 92  1  0  0  0
  4 93  1  0  0  0
  5  6  1  0  0  0
  5 26  1  0  0  0
  5 94  1  0  0  0
  6 25  1  0  0  0
  6 95  1  0  0  0
  6 96  1  0  0  0
  7  8  2  0  0  0
  7 26  1  0  0  0
  7 29  1  0  0  0
  8  9  1  0  0  0
  8 22  1  0  0  0
  9 10  1  0  0  0
  9 27  2  0  0  0
 10 11  2  0  0  0
 10 15  1  0  0  0
 11 12  1  0  0  0
 11 97  1  0  0  0
 12 13  2  0  0  0
 12 98  1  0  0  0
 13 14  1  0  0  0
 13 31  1  0  0  0
 14 15  2  0  0  0
 14 99  1  0  0  0
 15100  1  0  0  0
 16 17  2  0  0  0
 16 21  1  0  0  0
 16 31  1  0  0  0
 17 18  1  0  0  0
 17101  1  0  0  0
 18 19  2  0  0  0
 18102  1  0  0  0
 19 20  1  0  0  0
 19 24  1  0  0  0
 20 21  2  0  0  0
 20103  1  0  0  0
 21 23  1  0  0  0
 22 28  1  0  0  0
 22 32  2  0  0  0
 26 27  1  0  0  0
 28104  1  0  0  0
 28105  1  0  0  0
 29106  1  0  0  0
 29107  1  0  0  0
 33 34  1  0  0  0
 33 66  1  0  0  0
 33 70  2  0  0  0
 34 36  1  0  0  0
 34 59  1  0  0  0
 34108  1  0  0  0
 35 44  2  0  0  0
 35 45  1  0  0  0
 35 68  1  0  0  0
 36 56  1  0  0  0
 36109  1  0  0  0
 37 39  1  0  0  0
 37 47  1  0  0  0
 37 66  1  0  0  0
 37110  1  0  0  0
 38 43  2  0  0  0
 38 46  1  0  0  0
 38 47  1  0  0  0
 39 64  1  0  0  0
 39 67  2  0  0  0
 40 52  1  0  0  0
 40 53  2  0  0  0
 40 58  1  0  0  0
 41111  1  0  0  0
 41112  1  0  0  0
 41113  1  0  0  0
 41 48  1  0  0  0
 42 43  1  0  0  0
 42 66  1  0  0  0
 42114  1  0  0  0
 42115  1  0  0  0
 43 44  1  0  0  0
 44116  1  0  0  0
 45 46  2  0  0  0
 45117  1  0  0  0
 46118  1  0  0  0
 47119  1  0  0  0
 47120  1  0  0  0
 48 56  1  0  0  0
 48 65  1  0  0  0
 48121  1  0  0  0
 49 50  1  0  0  0
 49 53  1  0  0  0
 49 64  1  0  0  0
 49122  1  0  0  0
 50 51  1  0  0  0
 50123  1  0  0  0
 50124  1  0  0  0
 51 52  1  0  0  0
 51125  1  0  0  0
 51126  1  0  0  0
 52127  1  0  0  0
 52128  1  0  0  0
 53 54  1  0  0  0
 54 55  2  0  0  0
 54129  1  0  0  0
 55 57  1  0  0  0
 55130  1  0  0  0
 56 69  2  0  0  0
 57 58  2  0  0  0
 57131  1  0  0  0
 58132  1  0  0  0
 59 60  1  0  0  0
 59 61  1  0  0  0
 59 62  1  0  0  0
 60133  1  0  0  0
 60134  1  0  0  0
 60135  1  0  0  0
 61136  1  0  0  0
 61137  1  0  0  0
 61138  1  0  0  0
 62139  1  0  0  0
 62140  1  0  0  0
 62141  1  0  0  0
 63 65  1  0  0  0
 63142  1  0  0  0
 63143  1  0  0  0
 63144  1  0  0  0
 64145  1  0  0  0
 65146  1  0  0  0
 68 82  1  0  0  0
 71 72  2  0  0  0
 71 73  1  0  0  0
 71147  1  0  0  0
 72 75  1  0  0  0
 72148  1  0  0  0
 73 76  2  0  0  0
 73149  1  0  0  0
 74 75  2  0  0  0
 74 76  1  0  0  0
 74 79  1  0  0  0
 75 81  1  0  0  0
 76 82  1  0  0  0
 77 78  1  0  0  0
 77 85  1  0  0  0
 77150  1  0  0  0
 77151  1  0  0  0
 78 87  1  0  0  0
 78152  1  0  0  0
 78153  1  0  0  0
 79 80  1  0  0  0
 79 85  1  0  0  0
 79154  1  0  0  0
 80 83  1  0  0  0
 80 87  1  0  0  0
 80155  1  0  0  0
 81156  1  0  0  0
 81157  1  0  0  0
 81158  1  0  0  0
 82159  1  0  0  0
 82160  1  0  0  0
 83 84  1  0  0  0
 83161  1  0  0  0
 83162  1  0  0  0
 84 86  1  0  0  0
 84163  1  0  0  0
 84164  1  0  0  0
 85165  1  0  0  0
 86166  1  0  0  0
 87167  1  0  0  0
 87168  1  0  0  0
M  CHG  1  87   1
M  ISO  4   1 100  68 101  82 101  86 100
M  END
> <chiral flag>
0

> <version>
0

> <s_m_source_file>
/data/baiqing/PycharmProjects/Reinvent-master-3.2/result/LINK_invent/BTK/process_docking_weight1_custom_sum_contain_oxygen_bond_distance_aromatic_linkinvent_7_9_3/rearranged_h_0127.sdf

> <i_m_source_file_index>
75

> <r_mmod_Potential_Energy-OPLS-2005>
31368.486328125

> <r_mmod_Stretch_Energy-OPLS-2005>
17282.974609375

> <r_mmod_Bend_Energy-OPLS-2005>
2656.34130859375

> <r_mmod_Torsional_Energy-OPLS-2005>
364.448760986328

> <r_mmod_Improper_Torsional_Energy-OPLS-2005>
16.0899600982666

> <r_mmod_Van_der_Waal_Energy-OPLS-2005>
4412.50634765625

> <r_mmod_Electrostatic_Energy-OPLS-2005>
-244.827621459961

> <r_mmod_Solvation_Energy-OPLS-2005>
-460.533660888672

> <b_mmod_Minimization_Converged-OPLS-2005>
0

> <r_mmod_RMS_Derivative-OPLS-2005>
8.68003559112549

$$$$
75
                    3D
 Structure written by MMmdl.
169177  0  0  1  0            999 V2000
  -30.6947  -14.4674   20.5249 C   0  0  0  0  0  0
  -30.4235  -12.2993   19.4089 C   0  0  0  0  0  0
  -29.4950  -12.5125   18.1963 C   0  0  0  0  0  0
  -28.0138  -12.3942   18.6062 C   0  0  0  0  0  0
  -27.6640  -13.2161   19.8760 C   0  0  2  0  0  0
  -28.7093  -12.9940   20.9928 C   0  0  0  0  0  0
  -25.2590  -13.8178   20.5664 C   0  0  0  0  0  0
  -24.1861  -13.0440   20.9198 C   0  0  0  0  0  0
  -24.6435  -11.6900   20.8775 C   0  0  0  0  0  0
  -23.9098  -10.4286   21.0414 C   0  0  0  0  0  0
  -24.3641   -9.4198   21.9178 C   0  0  0  0  0  0
  -23.6308   -8.2253   22.0759 C   0  0  0  0  0  0
  -22.4288   -8.0290   21.3549 C   0  0  0  0  0  0
  -21.9931   -9.0271   20.4661 C   0  0  0  0  0  0
  -22.7275  -10.2134   20.3060 C   0  0  0  0  0  0
  -21.6858   -6.0743   22.5273 C   0  0  0  0  0  0
  -21.4008   -6.5648   23.8198 C   0  0  0  0  0  0
  -21.3667   -5.6804   24.9172 C   0  0  0  0  0  0
  -21.6023   -4.3064   24.7223 C   0  0  0  0  0  0
  -21.8831   -3.8148   23.4348 C   0  0  0  0  0  0
  -21.9193   -4.6967   22.3397 C   0  0  0  0  0  0
  -22.7862  -13.5245   21.1821 C   0  0  0  0  0  0
  -22.1662   -4.2153   21.0981 F   0  0  0  0  0  0
  -21.5635   -3.4549   25.7739 F   0  0  0  0  0  0
  -30.0426  -13.2814   20.4334 N   0  0  0  0  0  0
  -26.3064  -12.9382   20.3381 N   0  0  0  0  0  0
  -25.9368  -11.6527   20.5766 N   0  0  0  0  0  0
  -22.0497  -12.8255   22.0396 N   0  0  0  0  0  0
  -25.4258  -15.1899   20.4018 N   0  0  0  0  0  0
  -31.8336  -14.6583   20.0872 O   0  0  0  0  0  0
  -21.6634   -6.8893   21.4240 O   0  0  0  0  0  0
  -22.3547  -14.5542   20.6636 O   0  0  0  0  0  0
  -24.6127  -31.8668   23.2145 C   0  0  0  0  0  0
  -25.9015  -32.4816   23.8423 C   0  0  1  0  0  0
  -27.2293  -27.4250   20.0659 C   0  0  0  0  0  0
  -25.5906  -33.8595   24.2367 N   0  0  0  0  0  0
  -23.4046  -30.4946   21.5508 C   0  0  2  0  0  0
  -24.8484  -28.9644   20.1173 C   0  0  0  0  0  0
  -22.7413  -29.4654   22.4942 C   0  0  0  0  0  0
  -18.0302  -28.1384   22.8519 C   0  0  0  0  0  0
  -24.1497  -36.7314   23.2658 C   0  0  0  0  0  0
  -25.9373  -30.8230   21.3740 C   0  0  0  0  0  0
  -26.0115  -29.4568   20.7241 C   0  0  0  0  0  0
  -27.2018  -28.6870   20.7101 C   0  0  0  0  0  0
  -26.0371  -26.9592   19.4669 C   0  0  0  0  0  0
  -24.8541  -27.7107   19.4967 C   0  0  0  0  0  0
  -23.6176  -29.8346   20.1649 C   0  0  0  0  0  0
  -25.4112  -36.3097   24.0361 C   0  0  1  0  0  0
  -20.5898  -28.3684   23.1321 C   0  0  2  0  0  0
  -20.6765  -26.9420   22.5412 C   0  0  0  0  0  0
  -19.5760  -26.6390   21.5194 C   0  0  0  0  0  0
  -18.1949  -26.7942   22.1629 C   0  0  0  0  0  0
  -19.1552  -28.8826   23.2936 C   0  0  0  0  0  0
  -18.9468  -30.1423   23.8963 C   0  0  0  0  0  0
  -17.6473  -30.6592   24.0562 C   0  0  0  0  0  0
  -25.9034  -34.9477   23.5161 C   0  0  0  0  0  0
  -16.5371  -29.9099   23.6328 C   0  0  0  0  0  0
  -16.7282  -28.6503   23.0358 C   0  0  0  0  0  0
  -26.4440  -31.6575   25.0732 C   0  0  0  0  0  0
  -25.3782  -31.3665   26.1515 C   0  0  0  0  0  0
  -27.0234  -30.3048   24.6058 C   0  0  0  0  0  0
  -27.6050  -32.4217   25.7510 C   0  0  0  0  0  0
  -27.5600  -37.1822   24.8486 C   0  0  0  0  0  0
  -21.4139  -29.3059   22.3702 N   0  0  0  0  0  0
  -26.4308  -37.3770   23.9415 N   0  0  0  0  0  0
  -24.6697  -31.0774   22.1042 N   0  0  0  0  0  0
  -23.4176  -28.8167   23.2969 O   0  0  0  0  0  0
  -28.3993  -26.6816   20.0594 O   0  0  0  0  0  0
  -26.5579  -34.8917   22.4711 O   0  0  0  0  0  0
  -23.5316  -32.1386   23.7553 O   0  0  0  0  0  0
  -27.0518  -23.9693   18.0149 C   0  0  0  0  0  0
  -28.2251  -23.3687   19.7937 C   0  0  0  0  0  0
  -28.0124  -24.4296   18.9550 C   0  0  0  0  0  0
  -26.6064  -22.7181   18.3544 C   0  0  0  0  0  0
  -25.6828  -20.6181   17.1144 C   0  0  0  0  0  0
  -24.7175  -22.8660   16.6567 C   0  0  0  0  0  0
  -26.1007  -20.7002   20.8621 C   0  0  0  0  0  0
  -28.6757  -25.8043   18.9478 C   0  0  0  0  0  0
  -30.1901  -16.9189   20.6627 C   0  0  0  0  0  0
  -28.9093  -17.6579   20.1961 C   0  0  0  0  0  0
  -27.9762  -19.8157   19.3251 C   0  0  0  0  0  0
  -25.4177  -22.0035   17.7272 C   0  0  0  0  0  0
  -27.4314  -21.0123   20.1619 C   0  0  1  0  0  0
  -27.4054  -22.2966   19.4350 N   0  0  0  0  0  0
  -29.9256  -15.4936   20.9171 N   0  0  0  0  0  0
  -29.1256  -19.1080   19.9423 N   0  3  0  0  0  0
  -31.4659  -12.4052   19.0983 H   0  0  0  0  0  0
  -30.3286  -11.2850   19.7961 H   0  0  0  0  0  0
  -29.7272  -11.7976   17.4053 H   0  0  0  0  0  0
  -29.6777  -13.4980   17.7661 H   0  0  0  0  0  0
  -27.8040  -11.3385   18.7735 H   0  0  0  0  0  0
  -27.3762  -12.7106   17.7799 H   0  0  0  0  0  0
  -27.7081  -14.2652   19.5892 H   0  0  0  0  0  0
  -28.6796  -11.9644   21.3495 H   0  0  0  0  0  0
  -28.4905  -13.6201   21.8602 H   0  0  0  0  0  0
  -25.2787   -9.5661   22.4749 H   0  0  0  0  0  0
  -23.9996   -7.4649   22.7495 H   0  0  0  0  0  0
  -21.0857   -8.8824   19.8985 H   0  0  0  0  0  0
  -22.3754  -10.9681   19.6177 H   0  0  0  0  0  0
  -21.1995   -7.6144   23.9720 H   0  0  0  0  0  0
  -21.1474   -6.0517   25.9073 H   0  0  0  0  0  0
  -22.0600   -2.7607   23.2848 H   0  0  0  0  0  0
  -22.4094  -11.9922   22.4809 H   0  0  0  0  0  0
  -21.1091  -13.1273   22.2566 H   0  0  0  0  0  0
  -24.6432  -15.8332   20.4733 H   0  0  0  0  0  0
  -26.2509  -15.6154   20.0050 H   0  0  0  0  0  0
  -26.7104  -32.5564   23.1226 H   0  0  0  0  0  0
  -24.9991  -33.9745   25.0461 H   0  0  0  0  0  0
  -22.7035  -31.3205   21.4144 H   0  0  0  0  0  0
  -23.3727  -35.9663   23.3295 H   0  0  0  0  0  0
  -24.3630  -36.8916   22.2085 H   0  0  0  0  0  0
  -23.7278  -37.6543   23.6644 H   0  0  0  0  0  0
  -26.8216  -30.8708   21.9946 H   0  0  0  0  0  0
  -26.0676  -31.5781   20.5993 H   0  0  0  0  0  0
  -28.0978  -29.0584   21.1885 H   0  0  0  0  0  0
  -25.9775  -26.0114   18.9710 H   0  0  0  0  0  0
  -23.9612  -27.3188   19.0311 H   0  0  0  0  0  0
  -23.7494  -30.6111   19.4120 H   0  0  0  0  0  0
  -22.7383  -29.2652   19.8577 H   0  0  0  0  0  0
  -25.1284  -36.1948   25.0839 H   0  0  0  0  0  0
  -21.0015  -28.3220   24.1423 H   0  0  0  0  0  0
  -20.5628  -26.2277   23.3574 H   0  0  0  0  0  0
  -21.6640  -26.7445   22.1233 H   0  0  0  0  0  0
  -19.6902  -25.6290   21.1219 H   0  0  0  0  0  0
  -19.6692  -27.3200   20.6730 H   0  0  0  0  0  0
  -17.4196  -26.6700   21.4036 H   0  0  0  0  0  0
  -18.0392  -26.0055   22.9016 H   0  0  0  0  0  0
  -19.7924  -30.7215   24.2374 H   0  0  0  0  0  0
  -17.5029  -31.6300   24.5144 H   0  0  0  0  0  0
  -15.5359  -30.3009   23.7601 H   0  0  0  0  0  0
  -15.8699  -28.0805   22.7069 H   0  0  0  0  0  0
  -24.5974  -30.6940   25.7947 H   0  0  0  0  0  0
  -24.8930  -32.2773   26.5009 H   0  0  0  0  0  0
  -25.8164  -30.8884   27.0287 H   0  0  0  0  0  0
  -26.2711  -29.6898   24.1076 H   0  0  0  0  0  0
  -27.4017  -29.7195   25.4463 H   0  0  0  0  0  0
  -27.8575  -30.4416   23.9175 H   0  0  0  0  0  0
  -27.2696  -33.3478   26.2176 H   0  0  0  0  0  0
  -28.3846  -32.6814   25.0349 H   0  0  0  0  0  0
  -28.0701  -31.8262   26.5383 H   0  0  0  0  0  0
  -28.2615  -38.0127   24.7484 H   0  0  0  0  0  0
  -28.1091  -36.2655   24.6298 H   0  0  0  0  0  0
  -27.2342  -37.1478   25.8902 H   0  0  0  0  0  0
  -20.9260  -29.8827   21.6999 H   0  0  0  0  0  0
  -26.0200  -38.2843   24.1308 H   0  0  0  0  0  0
  -26.6568  -24.5603   17.1979 H   0  0  0  0  0  0
  -28.9053  -23.2958   20.6340 H   0  0  0  0  0  0
  -25.7449  -19.8481   17.8741 H   0  0  0  0  0  0
  -26.5765  -20.5990   16.4906 H   0  0  0  0  0  0
  -24.8509  -20.3054   16.4802 H   0  0  0  0  0  0
  -24.3923  -23.8301   17.0502 H   0  0  0  0  0  0
  -23.8256  -22.3822   16.2585 H   0  0  0  0  0  0
  -25.3754  -23.0544   15.8106 H   0  0  0  0  0  0
  -26.2299  -19.8830   21.5700 H   0  0  0  0  0  0
  -25.3327  -20.3927   20.1595 H   0  0  0  0  0  0
  -25.7254  -21.5586   21.4183 H   0  0  0  0  0  0
  -28.4445  -26.3158   18.0096 H   0  0  0  0  0  0
  -29.7524  -25.6457   18.9315 H   0  0  0  0  0  0
  -30.5851  -17.3726   21.5711 H   0  0  0  0  0  0
  -30.9587  -17.0389   19.8929 H   0  0  0  0  0  0
  -28.1251  -17.5497   20.9476 H   0  0  0  0  0  0
  -28.5296  -17.1884   19.2864 H   0  0  0  0  0  0
  -28.2903  -20.1414   18.3346 H   0  0  0  0  0  0
  -27.1827  -19.0911   19.1567 H   0  0  0  0  0  0
  -24.6606  -21.8767   18.5024 H   0  0  0  0  0  0
  -28.1378  -21.1635   20.9766 H   0  0  0  0  0  0
  -29.0197  -15.2494   21.2917 H   0  0  0  0  0  0
  -29.9110  -19.2187   19.3195 H   0  0  0  0  0  0
  -29.3558  -19.5775   20.8018 H   0  0  0  0  0  0
  1 25  1  0  0  0
  1 30  2  0  0  0
  1 85  1  0  0  0
  2  3  1  0  0  0
  2 25  1  0  0  0
  2 87  1  0  0  0
  2 88  1  0  0  0
  3  4  1  0  0  0
  3 89  1  0  0  0
  3 90  1  0  0  0
  4  5  1  0  0  0
  4 91  1  0  0  0
  4 92  1  0  0  0
  5  6  1  0  0  0
  5 26  1  0  0  0
  5 93  1  0  0  0
  6 25  1  0  0  0
  6 94  1  0  0  0
  6 95  1  0  0  0
  7  8  2  0  0  0
  7 26  1  0  0  0
  7 29  1  0  0  0
  8  9  1  0  0  0
  8 22  1  0  0  0
  9 10  1  0  0  0
  9 27  2  0  0  0
 10 11  2  0  0  0
 10 15  1  0  0  0
 11 12  1  0  0  0
 11 96  1  0  0  0
 12 13  2  0  0  0
 12 97  1  0  0  0
 13 14  1  0  0  0
 13 31  1  0  0  0
 14 15  2  0  0  0
 14 98  1  0  0  0
 15 99  1  0  0  0
 16 17  2  0  0  0
 16 21  1  0  0  0
 16 31  1  0  0  0
 17 18  1  0  0  0
 17100  1  0  0  0
 18 19  2  0  0  0
 18101  1  0  0  0
 19 20  1  0  0  0
 19 24  1  0  0  0
 20 21  2  0  0  0
 20102  1  0  0  0
 21 23  1  0  0  0
 22 28  1  0  0  0
 22 32  2  0  0  0
 26 27  1  0  0  0
 28103  1  0  0  0
 28104  1  0  0  0
 29105  1  0  0  0
 29106  1  0  0  0
 33 34  1  0  0  0
 33 66  1  0  0  0
 33 70  2  0  0  0
 34 36  1  0  0  0
 34 59  1  0  0  0
 34107  1  0  0  0
 35 44  2  0  0  0
 35 45  1  0  0  0
 35 68  1  0  0  0
 36 56  1  0  0  0
 36108  1  0  0  0
 37 39  1  0  0  0
 37 47  1  0  0  0
 37 66  1  0  0  0
 37109  1  0  0  0
 38 43  2  0  0  0
 38 46  1  0  0  0
 38 47  1  0  0  0
 39 64  1  0  0  0
 39 67  2  0  0  0
 40 52  1  0  0  0
 40 53  2  0  0  0
 40 58  1  0  0  0
 41110  1  0  0  0
 41111  1  0  0  0
 41112  1  0  0  0
 41 48  1  0  0  0
 42 43  1  0  0  0
 42 66  1  0  0  0
 42113  1  0  0  0
 42114  1  0  0  0
 43 44  1  0  0  0
 44115  1  0  0  0
 45 46  2  0  0  0
 45116  1  0  0  0
 46117  1  0  0  0
 47118  1  0  0  0
 47119  1  0  0  0
 48 56  1  0  0  0
 48 65  1  0  0  0
 48120  1  0  0  0
 49 50  1  0  0  0
 49 53  1  0  0  0
 49 64  1  0  0  0
 49121  1  0  0  0
 50 51  1  0  0  0
 50122  1  0  0  0
 50123  1  0  0  0
 51 52  1  0  0  0
 51124  1  0  0  0
 51125  1  0  0  0
 52126  1  0  0  0
 52127  1  0  0  0
 53 54  1  0  0  0
 54 55  2  0  0  0
 54128  1  0  0  0
 55 57  1  0  0  0
 55129  1  0  0  0
 56 69  2  0  0  0
 57 58  2  0  0  0
 57130  1  0  0  0
 58131  1  0  0  0
 59 60  1  0  0  0
 59 61  1  0  0  0
 59 62  1  0  0  0
 60132  1  0  0  0
 60133  1  0  0  0
 60134  1  0  0  0
 61135  1  0  0  0
 61136  1  0  0  0
 61137  1  0  0  0
 62138  1  0  0  0
 62139  1  0  0  0
 62140  1  0  0  0
 63 65  1  0  0  0
 63141  1  0  0  0
 63142  1  0  0  0
 63143  1  0  0  0
 64144  1  0  0  0
 65145  1  0  0  0
 68 78  1  0  0  0
 71 73  1  0  0  0
 71 74  2  0  0  0
 71146  1  0  0  0
 72 73  2  0  0  0
 72 84  1  0  0  0
 72147  1  0  0  0
 73 78  1  0  0  0
 74 82  1  0  0  0
 74 84  1  0  0  0
 75148  1  0  0  0
 75149  1  0  0  0
 75150  1  0  0  0
 75 82  1  0  0  0
 76 82  1  0  0  0
 76151  1  0  0  0
 76152  1  0  0  0
 76153  1  0  0  0
 77154  1  0  0  0
 77155  1  0  0  0
 77156  1  0  0  0
 77 83  1  0  0  0
 78157  1  0  0  0
 78158  1  0  0  0
 79 80  1  0  0  0
 79 85  1  0  0  0
 79159  1  0  0  0
 79160  1  0  0  0
 80 86  1  0  0  0
 80161  1  0  0  0
 80162  1  0  0  0
 81 83  1  0  0  0
 81 86  1  0  0  0
 81163  1  0  0  0
 81164  1  0  0  0
 82165  1  0  0  0
 83 84  1  0  0  0
 83166  1  0  0  0
 85167  1  0  0  0
 86168  1  0  0  0
 86169  1  0  0  0
M  CHG  1  86   1
M  ISO  4   1 100  68 101  78 101  85 100
M  END
> <chiral flag>
0

> <version>
0

> <s_m_source_file>
/data/baiqing/PycharmProjects/Reinvent-master-3.2/result/LINK_invent/BTK/process_docking_weight1_custom_sum_contain_oxygen_bond_distance_aromatic_linkinvent_7_9_3/rearranged_h_0127.sdf

> <i_m_source_file_index>
76

> <r_mmod_Potential_Energy-OPLS-2005>
-243.037017822266

> <r_mmod_Stretch_Energy-OPLS-2005>
40.0961761474609

> <r_mmod_Bend_Energy-OPLS-2005>
119.94164276123

> <r_mmod_Torsional_Energy-OPLS-2005>
271.012023925781

> <r_mmod_Improper_Torsional_Energy-OPLS-2005>
6.40296983718872

> <r_mmod_Van_der_Waal_Energy-OPLS-2005>
135.166610717773

> <r_mmod_Electrostatic_Energy-OPLS-2005>
-329.724700927734

> <r_mmod_Solvation_Energy-OPLS-2005>
-499.884796142578

> <b_mmod_Minimization_Converged-OPLS-2005>
0

> <r_mmod_RMS_Derivative-OPLS-2005>
6.7740216255188

$$$$
76
                    3D
 Structure written by MMmdl.
185194  0  0  1  0            999 V2000
  -30.6581  -14.5240   20.5176 C   0  0  0  0  0  0
  -30.4294  -12.3206   19.4515 C   0  0  0  0  0  0
  -29.5052  -12.4980   18.2271 C   0  0  0  0  0  0
  -28.0224  -12.3491   18.6221 C   0  0  0  0  0  0
  -27.6558  -13.2014   19.8664 C   0  0  2  0  0  0
  -28.6933  -13.0113   20.9975 C   0  0  0  0  0  0
  -25.2564  -13.8140   20.5649 C   0  0  0  0  0  0
  -24.1801  -13.0428   20.9174 C   0  0  0  0  0  0
  -24.6347  -11.6891   20.8709 C   0  0  0  0  0  0
  -23.9009  -10.4278   21.0387 C   0  0  0  0  0  0
  -24.3580   -9.4216   21.9174 C   0  0  0  0  0  0
  -23.6282   -8.2245   22.0745 C   0  0  0  0  0  0
  -22.4283   -8.0247   21.3531 C   0  0  0  0  0  0
  -21.9891   -9.0203   20.4621 C   0  0  0  0  0  0
  -22.7188  -10.2103   20.3029 C   0  0  0  0  0  0
  -21.6853   -6.0721   22.5272 C   0  0  0  0  0  0
  -21.3986   -6.5620   23.8201 C   0  0  0  0  0  0
  -21.3668   -5.6788   24.9171 C   0  0  0  0  0  0
  -21.6055   -4.3051   24.7235 C   0  0  0  0  0  0
  -21.8813   -3.8129   23.4349 C   0  0  0  0  0  0
  -21.9189   -4.6944   22.3403 C   0  0  0  0  0  0
  -22.7830  -13.5242   21.1830 C   0  0  0  0  0  0
  -22.1657   -4.2134   21.0980 F   0  0  0  0  0  0
  -21.5661   -3.4537   25.7757 F   0  0  0  0  0  0
  -30.0243  -13.3203   20.4537 N   0  0  0  0  0  0
  -26.2964  -12.9281   20.3299 N   0  0  0  0  0  0
  -25.9275  -11.6442   20.5732 N   0  0  0  0  0  0
  -22.0459  -12.8222   22.0382 N   0  0  0  0  0  0
  -25.4334  -15.1856   20.4057 N   0  0  0  0  0  0
  -31.8118  -14.6888   20.1173 O   0  0  0  0  0  0
  -21.6639   -6.8854   21.4235 O   0  0  0  0  0  0
  -22.3524  -14.5572   20.6723 O   0  0  0  0  0  0
  -24.6164  -31.8634   23.2169 C   0  0  0  0  0  0
  -25.9087  -32.4781   23.8430 C   0  0  1  0  0  0
  -27.2396  -27.4524   20.1024 C   0  0  0  0  0  0
  -25.5964  -33.8583   24.2384 N   0  0  0  0  0  0
  -23.4015  -30.4912   21.5527 C   0  0  2  0  0  0
  -24.8464  -28.9556   20.1148 C   0  0  0  0  0  0
  -22.7389  -29.4659   22.4980 C   0  0  0  0  0  0
  -18.0256  -28.1380   22.8510 C   0  0  0  0  0  0
  -24.1479  -36.7261   23.2654 C   0  0  0  0  0  0
  -25.9265  -30.8403   21.3611 C   0  0  0  0  0  0
  -26.0064  -29.4774   20.7039 C   0  0  0  0  0  0
  -27.2083  -28.7357   20.6900 C   0  0  0  0  0  0
  -26.0660  -26.9381   19.5105 C   0  0  0  0  0  0
  -24.8715  -27.6843   19.5137 C   0  0  0  0  0  0
  -23.6092  -29.8221   20.1651 C   0  0  0  0  0  0
  -25.4093  -36.3076   24.0368 C   0  0  1  0  0  0
  -20.5854  -28.3654   23.1314 C   0  0  2  0  0  0
  -20.6756  -26.9387   22.5397 C   0  0  0  0  0  0
  -19.5726  -26.6375   21.5209 C   0  0  0  0  0  0
  -18.1898  -26.7929   22.1599 C   0  0  0  0  0  0
  -19.1518  -28.8818   23.2919 C   0  0  0  0  0  0
  -18.9428  -30.1429   23.8924 C   0  0  0  0  0  0
  -17.6433  -30.6584   24.0556 C   0  0  0  0  0  0
  -25.9023  -34.9453   23.5149 C   0  0  0  0  0  0
  -16.5333  -29.9075   23.6349 C   0  0  0  0  0  0
  -16.7246  -28.6480   23.0382 C   0  0  0  0  0  0
  -26.4558  -31.6549   25.0724 C   0  0  0  0  0  0
  -25.3896  -31.3514   26.1487 C   0  0  0  0  0  0
  -27.0448  -30.3049   24.6024 C   0  0  0  0  0  0
  -27.6106  -32.4280   25.7489 C   0  0  0  0  0  0
  -27.5568  -37.1763   24.8465 C   0  0  0  0  0  0
  -21.4118  -29.3016   22.3706 N   0  0  0  0  0  0
  -26.4259  -37.3775   23.9447 N   0  0  0  0  0  0
  -24.6663  -31.0778   22.1037 N   0  0  0  0  0  0
  -23.4136  -28.8210   23.3057 O   0  0  0  0  0  0
  -28.4101  -26.7323   20.1085 O   0  0  0  0  0  0
  -26.5513  -34.8924   22.4680 O   0  0  0  0  0  0
  -23.5368  -32.1328   23.7612 O   0  0  0  0  0  0
  -30.3048  -18.5063   23.2300 C   0  0  0  0  0  0
  -31.8986  -18.8542   21.6959 C   0  0  0  0  0  0
  -30.5767  -18.4926   21.8319 C   0  0  0  0  0  0
  -31.4367  -18.9160   23.8734 C   0  0  0  0  0  0
  -26.5838  -21.5927   18.2712 C   0  0  0  0  0  0
  -26.3840  -20.2236   18.9270 C   0  0  0  0  0  0
  -28.0796  -21.8801   18.1047 C   0  0  0  0  0  0
  -27.0663  -20.1774   20.3057 C   0  0  0  0  0  0
  -28.8461  -21.8335   19.4546 C   0  0  2  0  0  0
  -28.5860  -20.5059   20.2689 C   0  0  2  0  0  0
  -33.8813  -21.0780   23.1803 C   0  0  0  0  0  0
  -34.8859  -18.8274   22.4516 C   0  0  0  0  0  0
  -30.8930  -18.3505   26.0652 C   0  0  0  0  0  0
  -28.7288  -24.3335   19.7169 C   0  0  0  0  0  0
  -29.8887  -16.8462   19.9796 C   0  0  0  0  0  0
  -28.3367  -25.4389   20.7178 C   0  0  0  0  0  0
  -29.5661  -18.1747   20.7410 C   0  0  2  0  0  0
  -33.7993  -19.5500   23.2682 C   0  0  0  0  0  0
  -32.4436  -19.1030   22.9503 N   0  0  0  0  0  0
  -29.8500  -15.5802   20.7596 N   0  0  0  0  0  0
  -28.5264  -22.9982   20.3016 N   0  0  0  0  0  0
  -29.4287  -19.3496   19.8208 N   0  3  0  0  0  0
  -31.6626  -19.1494   25.1840 O   0  0  0  0  0  0
  -31.4740  -12.4277   19.1539 H   0  0  0  0  0  0
  -30.3387  -11.3146   19.8662 H   0  0  0  0  0  0
  -29.7644  -11.7725   17.4556 H   0  0  0  0  0  0
  -29.6645  -13.4841   17.7868 H   0  0  0  0  0  0
  -27.8382  -11.2924   18.8209 H   0  0  0  0  0  0
  -27.3822  -12.6112   17.7801 H   0  0  0  0  0  0
  -27.6888  -14.2438   19.5493 H   0  0  0  0  0  0
  -28.6692  -11.9782   21.3511 H   0  0  0  0  0  0
  -28.4473  -13.6336   21.8610 H   0  0  0  0  0  0
  -25.2725   -9.5731   22.4746 H   0  0  0  0  0  0
  -24.0006   -7.4653   22.7471 H   0  0  0  0  0  0
  -21.0837   -8.8672   19.8921 H   0  0  0  0  0  0
  -22.3626  -10.9614   19.6122 H   0  0  0  0  0  0
  -21.1930   -7.6122   23.9707 H   0  0  0  0  0  0
  -21.1520   -6.0516   25.9085 H   0  0  0  0  0  0
  -22.0596   -2.7587   23.2866 H   0  0  0  0  0  0
  -22.4078  -11.9868   22.4752 H   0  0  0  0  0  0
  -21.1052  -13.1191   22.2542 H   0  0  0  0  0  0
  -24.6701  -15.8443   20.5094 H   0  0  0  0  0  0
  -26.2754  -15.6064   20.0345 H   0  0  0  0  0  0
  -26.7155  -32.5487   23.1195 H   0  0  0  0  0  0
  -25.0389  -33.9749   25.0706 H   0  0  0  0  0  0
  -22.6952  -31.3121   21.4131 H   0  0  0  0  0  0
  -23.3755  -35.9573   23.3277 H   0  0  0  0  0  0
  -24.3600  -36.8880   22.2072 H   0  0  0  0  0  0
  -23.7192  -37.6450   23.6675 H   0  0  0  0  0  0
  -26.0402  -31.6187   20.6053 H   0  0  0  0  0  0
  -26.8139  -30.8907   21.9793 H   0  0  0  0  0  0
  -28.1008  -29.1359   21.1447 H   0  0  0  0  0  0
  -26.0767  -25.9586   19.0515 H   0  0  0  0  0  0
  -23.9805  -27.2687   19.0625 H   0  0  0  0  0  0
  -23.7197  -30.5979   19.4064 H   0  0  0  0  0  0
  -22.7328  -29.2407   19.8701 H   0  0  0  0  0  0
  -25.1277  -36.1936   25.0851 H   0  0  0  0  0  0
  -20.9942  -28.3206   24.1439 H   0  0  0  0  0  0
  -20.5657  -26.2252   23.3574 H   0  0  0  0  0  0
  -21.6623  -26.7447   22.1151 H   0  0  0  0  0  0
  -19.6901  -25.6283   21.1211 H   0  0  0  0  0  0
  -19.6711  -27.3202   20.6745 H   0  0  0  0  0  0
  -17.4182  -26.6729   21.3978 H   0  0  0  0  0  0
  -18.0279  -26.0044   22.8943 H   0  0  0  0  0  0
  -19.7914  -30.7256   24.2278 H   0  0  0  0  0  0
  -17.4976  -31.6276   24.5125 H   0  0  0  0  0  0
  -15.5327  -30.2961   23.7675 H   0  0  0  0  0  0
  -15.8631  -28.0792   22.7148 H   0  0  0  0  0  0
  -24.6176  -30.6735   25.7816 H   0  0  0  0  0  0
  -24.9008  -32.2597   26.5023 H   0  0  0  0  0  0
  -25.8370  -30.8671   27.0183 H   0  0  0  0  0  0
  -26.2957  -29.6668   24.1320 H   0  0  0  0  0  0
  -27.4558  -29.7411   25.4406 H   0  0  0  0  0  0
  -27.8627  -30.4437   23.8951 H   0  0  0  0  0  0
  -27.2748  -33.3617   26.2029 H   0  0  0  0  0  0
  -28.3979  -32.6735   25.0342 H   0  0  0  0  0  0
  -28.0723  -31.8421   26.5458 H   0  0  0  0  0  0
  -28.2493  -38.0146   24.7615 H   0  0  0  0  0  0
  -28.1166  -36.2676   24.6179 H   0  0  0  0  0  0
  -27.2294  -37.1233   25.8864 H   0  0  0  0  0  0
  -20.9278  -29.8700   21.6901 H   0  0  0  0  0  0
  -26.0142  -38.2828   24.1544 H   0  0  0  0  0  0
  -29.3665  -18.2672   23.7083 H   0  0  0  0  0  0
  -32.5115  -18.9706   20.8124 H   0  0  0  0  0  0
  -26.1246  -22.3737   18.8771 H   0  0  0  0  0  0
  -26.0793  -21.6255   17.3045 H   0  0  0  0  0  0
  -26.7799  -19.4395   18.2798 H   0  0  0  0  0  0
  -25.3166  -20.0248   19.0354 H   0  0  0  0  0  0
  -28.2219  -22.8238   17.5781 H   0  0  0  0  0  0
  -28.4995  -21.1365   17.4256 H   0  0  0  0  0  0
  -26.8628  -19.2196   20.7820 H   0  0  0  0  0  0
  -26.5804  -20.9176   20.9429 H   0  0  0  0  0  0
  -29.9121  -21.9061   19.2338 H   0  0  0  0  0  0
  -28.9011  -20.6936   21.2954 H   0  0  0  0  0  0
  -34.8799  -21.4447   23.4191 H   0  0  0  0  0  0
  -33.1920  -21.5239   23.8985 H   0  0  0  0  0  0
  -33.6102  -21.4377   22.1881 H   0  0  0  0  0  0
  -35.8786  -19.0743   22.8304 H   0  0  0  0  0  0
  -34.8695  -19.0825   21.3927 H   0  0  0  0  0  0
  -34.7783  -17.7463   22.5408 H   0  0  0  0  0  0
  -31.1989  -18.5457   27.0921 H   0  0  0  0  0  0
  -31.0678  -17.2947   25.8551 H   0  0  0  0  0  0
  -29.8241  -18.5583   25.9861 H   0  0  0  0  0  0
  -29.7673  -24.4746   19.4162 H   0  0  0  0  0  0
  -28.1140  -24.4714   18.8301 H   0  0  0  0  0  0
  -30.8447  -16.9468   19.4642 H   0  0  0  0  0  0
  -29.1382  -16.7195   19.1979 H   0  0  0  0  0  0
  -29.0322  -25.4337   21.5574 H   0  0  0  0  0  0
  -27.3557  -25.2391   21.1517 H   0  0  0  0  0  0
  -28.6066  -18.0216   21.2315 H   0  0  0  0  0  0
  -33.9954  -19.2838   24.3085 H   0  0  0  0  0  0
  -28.9576  -15.3383   21.1626 H   0  0  0  0  0  0
  -29.0631  -22.9398   21.1635 H   0  0  0  0  0  0
  -30.3592  -19.6952   19.6578 H   0  0  0  0  0  0
  -29.0718  -19.0269   18.9382 H   0  0  0  0  0  0
  1 25  1  0  0  0
  1 30  2  0  0  0
  1 90  1  0  0  0
  2  3  1  0  0  0
  2 25  1  0  0  0
  2 94  1  0  0  0
  2 95  1  0  0  0
  3  4  1  0  0  0
  3 96  1  0  0  0
  3 97  1  0  0  0
  4  5  1  0  0  0
  4 98  1  0  0  0
  4 99  1  0  0  0
  5  6  1  0  0  0
  5 26  1  0  0  0
  5100  1  0  0  0
  6 25  1  0  0  0
  6101  1  0  0  0
  6102  1  0  0  0
  7  8  2  0  0  0
  7 26  1  0  0  0
  7 29  1  0  0  0
  8  9  1  0  0  0
  8 22  1  0  0  0
  9 10  1  0  0  0
  9 27  2  0  0  0
 10 11  2  0  0  0
 10 15  1  0  0  0
 11 12  1  0  0  0
 11103  1  0  0  0
 12 13  2  0  0  0
 12104  1  0  0  0
 13 14  1  0  0  0
 13 31  1  0  0  0
 14 15  2  0  0  0
 14105  1  0  0  0
 15106  1  0  0  0
 16 17  2  0  0  0
 16 21  1  0  0  0
 16 31  1  0  0  0
 17 18  1  0  0  0
 17107  1  0  0  0
 18 19  2  0  0  0
 18108  1  0  0  0
 19 20  1  0  0  0
 19 24  1  0  0  0
 20 21  2  0  0  0
 20109  1  0  0  0
 21 23  1  0  0  0
 22 28  1  0  0  0
 22 32  2  0  0  0
 26 27  1  0  0  0
 28110  1  0  0  0
 28111  1  0  0  0
 29112  1  0  0  0
 29113  1  0  0  0
 33 34  1  0  0  0
 33 66  1  0  0  0
 33 70  2  0  0  0
 34 36  1  0  0  0
 34 59  1  0  0  0
 34114  1  0  0  0
 35 44  2  0  0  0
 35 45  1  0  0  0
 35 68  1  0  0  0
 36 56  1  0  0  0
 36115  1  0  0  0
 37 39  1  0  0  0
 37 47  1  0  0  0
 37 66  1  0  0  0
 37116  1  0  0  0
 38 43  2  0  0  0
 38 46  1  0  0  0
 38 47  1  0  0  0
 39 64  1  0  0  0
 39 67  2  0  0  0
 40 52  1  0  0  0
 40 53  2  0  0  0
 40 58  1  0  0  0
 41117  1  0  0  0
 41118  1  0  0  0
 41119  1  0  0  0
 41 48  1  0  0  0
 42 43  1  0  0  0
 42 66  1  0  0  0
 42120  1  0  0  0
 42121  1  0  0  0
 43 44  1  0  0  0
 44122  1  0  0  0
 45 46  2  0  0  0
 45123  1  0  0  0
 46124  1  0  0  0
 47125  1  0  0  0
 47126  1  0  0  0
 48 56  1  0  0  0
 48 65  1  0  0  0
 48127  1  0  0  0
 49 50  1  0  0  0
 49 53  1  0  0  0
 49 64  1  0  0  0
 49128  1  0  0  0
 50 51  1  0  0  0
 50129  1  0  0  0
 50130  1  0  0  0
 51 52  1  0  0  0
 51131  1  0  0  0
 51132  1  0  0  0
 52133  1  0  0  0
 52134  1  0  0  0
 53 54  1  0  0  0
 54 55  2  0  0  0
 54135  1  0  0  0
 55 57  1  0  0  0
 55136  1  0  0  0
 56 69  2  0  0  0
 57 58  2  0  0  0
 57137  1  0  0  0
 58138  1  0  0  0
 59 60  1  0  0  0
 59 61  1  0  0  0
 59 62  1  0  0  0
 60139  1  0  0  0
 60140  1  0  0  0
 60141  1  0  0  0
 61142  1  0  0  0
 61143  1  0  0  0
 61144  1  0  0  0
 62145  1  0  0  0
 62146  1  0  0  0
 62147  1  0  0  0
 63 65  1  0  0  0
 63148  1  0  0  0
 63149  1  0  0  0
 63150  1  0  0  0
 64151  1  0  0  0
 65152  1  0  0  0
 68 86  1  0  0  0
 71 73  1  0  0  0
 71 74  2  0  0  0
 71153  1  0  0  0
 72 73  2  0  0  0
 72 89  1  0  0  0
 72154  1  0  0  0
 73 87  1  0  0  0
 74 89  1  0  0  0
 74 93  1  0  0  0
 75 76  1  0  0  0
 75 77  1  0  0  0
 75155  1  0  0  0
 75156  1  0  0  0
 76 78  1  0  0  0
 76157  1  0  0  0
 76158  1  0  0  0
 77 79  1  0  0  0
 77159  1  0  0  0
 77160  1  0  0  0
 78 80  1  0  0  0
 78161  1  0  0  0
 78162  1  0  0  0
 79 80  1  0  0  0
 79 91  1  0  0  0
 79163  1  0  0  0
 80 92  1  0  0  0
 80164  1  0  0  0
 81165  1  0  0  0
 81166  1  0  0  0
 81167  1  0  0  0
 81 88  1  0  0  0
 82 88  1  0  0  0
 82168  1  0  0  0
 82169  1  0  0  0
 82170  1  0  0  0
 83 93  1  0  0  0
 83171  1  0  0  0
 83172  1  0  0  0
 83173  1  0  0  0
 84 86  1  0  0  0
 84 91  1  0  0  0
 84174  1  0  0  0
 84175  1  0  0  0
 85 90  1  0  0  0
 85176  1  0  0  0
 85177  1  0  0  0
 85 87  1  0  0  0
 86178  1  0  0  0
 86179  1  0  0  0
 87 92  1  0  0  0
 87180  1  0  0  0
 88 89  1  0  0  0
 88181  1  0  0  0
 90182  1  0  0  0
 91183  1  0  0  0
 92184  1  0  0  0
 92185  1  0  0  0
M  CHG  1  92   1
M  ISO  4   1 100  68 101  86 101  90 100
M  END
> <chiral flag>
0

> <version>
0

> <s_m_source_file>
/data/baiqing/PycharmProjects/Reinvent-master-3.2/result/LINK_invent/BTK/process_docking_weight1_custom_sum_contain_oxygen_bond_distance_aromatic_linkinvent_7_9_3/rearranged_h_0127.sdf

> <i_m_source_file_index>
77

> <r_mmod_Potential_Energy-OPLS-2005>
-210.366470336914

> <r_mmod_Stretch_Energy-OPLS-2005>
44.6175575256348

> <r_mmod_Bend_Energy-OPLS-2005>
119.532974243164

> <r_mmod_Torsional_Energy-OPLS-2005>
318.670989990234

> <r_mmod_Improper_Torsional_Energy-OPLS-2005>
9.68845462799072

> <r_mmod_Van_der_Waal_Energy-OPLS-2005>
126.15306854248

> <r_mmod_Electrostatic_Energy-OPLS-2005>
-379.444274902344

> <r_mmod_Solvation_Energy-OPLS-2005>
-466.474334716797

> <b_mmod_Minimization_Converged-OPLS-2005>
0

> <r_mmod_RMS_Derivative-OPLS-2005>
4.9045557975769

$$$$
77
                    3D
 Structure written by MMmdl.
173183  0  0  1  0            999 V2000
  -30.5848  -14.8736   20.4763 C   0  0  0  0  0  0
  -30.4339  -12.5554   19.4782 C   0  0  0  0  0  0
  -29.5117  -12.5209   18.2407 C   0  0  0  0  0  0
  -28.0445  -12.3147   18.6639 C   0  0  0  0  0  0
  -27.6297  -13.2409   19.8384 C   0  0  2  0  0  0
  -28.6731  -13.2430   20.9718 C   0  0  0  0  0  0
  -25.2481  -13.8210   20.5710 C   0  0  0  0  0  0
  -24.1783  -13.0447   20.9217 C   0  0  0  0  0  0
  -24.6388  -11.6925   20.8756 C   0  0  0  0  0  0
  -23.9070  -10.4295   21.0418 C   0  0  0  0  0  0
  -24.3621   -9.4204   21.9192 C   0  0  0  0  0  0
  -23.6288   -8.2243   22.0759 C   0  0  0  0  0  0
  -22.4270   -8.0285   21.3550 C   0  0  0  0  0  0
  -21.9913   -9.0261   20.4652 C   0  0  0  0  0  0
  -22.7244  -10.2139   20.3064 C   0  0  0  0  0  0
  -21.6852   -6.0739   22.5279 C   0  0  0  0  0  0
  -21.4016   -6.5643   23.8214 C   0  0  0  0  0  0
  -21.3651   -5.6795   24.9172 C   0  0  0  0  0  0
  -21.6044   -4.3061   24.7226 C   0  0  0  0  0  0
  -21.8813   -3.8153   23.4346 C   0  0  0  0  0  0
  -21.9189   -4.6968   22.3402 C   0  0  0  0  0  0
  -22.7805  -13.5226   21.1873 C   0  0  0  0  0  0
  -22.1659   -4.2153   21.0981 F   0  0  0  0  0  0
  -21.5621   -3.4544   25.7739 F   0  0  0  0  0  0
  -29.9483  -13.6456   20.3666 N   0  0  0  0  0  0
  -26.2885  -12.9424   20.3247 N   0  0  0  0  0  0
  -25.9313  -11.6559   20.5741 N   0  0  0  0  0  0
  -22.0454  -12.8216   22.0427 N   0  0  0  0  0  0
  -25.4198  -15.1932   20.4151 N   0  0  0  0  0  0
  -31.7870  -14.9185   20.1973 O   0  0  0  0  0  0
  -21.6635   -6.8883   21.4241 O   0  0  0  0  0  0
  -22.3491  -14.5527   20.6713 O   0  0  0  0  0  0
  -24.6387  -31.8466   23.1908 C   0  0  0  0  0  0
  -25.9178  -32.4701   23.8285 C   0  0  1  0  0  0
  -27.2123  -27.1776   20.1438 C   0  0  0  0  0  0
  -25.5944  -33.8507   24.2203 N   0  0  0  0  0  0
  -23.4389  -30.4664   21.5349 C   0  0  2  0  0  0
  -24.8854  -28.8967   20.1106 C   0  0  0  0  0  0
  -22.7538  -29.4552   22.4872 C   0  0  0  0  0  0
  -18.0296  -28.1387   22.8479 C   0  0  0  0  0  0
  -24.1498  -36.7261   23.2642 C   0  0  0  0  0  0
  -25.9907  -30.7343   21.3823 C   0  0  0  0  0  0
  -26.0600  -29.3486   20.7249 C   0  0  0  0  0  0
  -27.2243  -28.5029   20.7242 C   0  0  0  0  0  0
  -26.0104  -26.8069   19.5034 C   0  0  0  0  0  0
  -24.8705  -27.6385   19.4880 C   0  0  0  0  0  0
  -23.6618  -29.7950   20.1537 C   0  0  0  0  0  0
  -25.4126  -36.3035   24.0318 C   0  0  1  0  0  0
  -20.5902  -28.3698   23.1249 C   0  0  2  0  0  0
  -20.6778  -26.9407   22.5406 C   0  0  0  0  0  0
  -19.5756  -26.6376   21.5206 C   0  0  0  0  0  0
  -18.1939  -26.7923   22.1623 C   0  0  0  0  0  0
  -19.1550  -28.8860   23.2854 C   0  0  0  0  0  0
  -18.9476  -30.1464   23.8868 C   0  0  0  0  0  0
  -17.6470  -30.6583   24.0557 C   0  0  0  0  0  0
  -25.9068  -34.9408   23.5063 C   0  0  0  0  0  0
  -16.5363  -29.9079   23.6337 C   0  0  0  0  0  0
  -16.7279  -28.6501   23.0349 C   0  0  0  0  0  0
  -26.4522  -31.6551   25.0707 C   0  0  0  0  0  0
  -25.3722  -31.3746   26.1414 C   0  0  0  0  0  0
  -27.0382  -30.2947   24.6269 C   0  0  0  0  0  0
  -27.6052  -32.4316   25.7493 C   0  0  0  0  0  0
  -27.5577  -37.1789   24.8465 C   0  0  0  0  0  0
  -21.4230  -29.3036   22.3627 N   0  0  0  0  0  0
  -26.4289  -37.3745   23.9410 N   0  0  0  0  0  0
  -24.7090  -31.0371   22.0912 N   0  0  0  0  0  0
  -23.4206  -28.8097   23.2999 O   0  0  0  0  0  0
  -28.3023  -26.2546   20.2118 O   0  0  0  0  0  0
  -26.5656  -34.8894   22.4642 O   0  0  0  0  0  0
  -23.5516  -32.1325   23.7154 O   0  0  0  0  0  0
  -32.3643  -20.6314   24.7292 C   0  0  0  0  0  0
  -31.2418  -19.6008   24.9216 C   0  0  0  0  0  0
  -32.0877  -21.5323   23.5172 C   0  0  0  0  0  0
  -31.0014  -18.7845   23.6377 C   0  0  0  0  0  0
  -31.8278  -20.6995   22.2498 C   0  0  0  0  0  0
  -29.6308  -22.4147   19.5100 C   0  0  0  0  0  0
  -27.5437  -22.2049   20.7381 C   0  0  0  0  0  0
  -29.6050  -24.0072   19.7576 C   0  0  0  0  0  0
  -27.5056  -23.7971   20.9900 C   0  0  0  0  0  0
  -29.2642  -16.5459   21.8298 C   0  0  0  0  0  0
  -30.6505  -19.7075   22.4383 C   0  0  0  0  0  0
  -28.9653  -21.5161   20.6229 C   0  0  1  0  0  0
  -28.2108  -24.7398   19.9355 C   0  0  1  0  0  0
  -30.3605  -17.3899   21.2125 C   0  0  2  0  0  0
  -30.1915  -19.0536   21.0683 C   0  0  2  0  0  0
  -29.8592  -16.0864   20.6174 N   0  0  0  0  0  0
  -29.0160  -19.9244   20.4911 N   0  3  0  0  0  0
  -31.4683  -12.7083   19.1644 H   0  0  0  0  0  0
  -30.4221  -11.5972   20.0008 H   0  0  0  0  0  0
  -29.8202  -11.7255   17.5617 H   0  0  0  0  0  0
  -29.6079  -13.4550   17.6843 H   0  0  0  0  0  0
  -27.9341  -11.2715   18.9626 H   0  0  0  0  0  0
  -27.3787  -12.4589   17.8127 H   0  0  0  0  0  0
  -27.6025  -14.2496   19.4250 H   0  0  0  0  0  0
  -28.7502  -12.2613   21.4409 H   0  0  0  0  0  0
  -28.3776  -13.9378   21.7585 H   0  0  0  0  0  0
  -25.2770   -9.5668   22.4766 H   0  0  0  0  0  0
  -23.9992   -7.4630   22.7483 H   0  0  0  0  0  0
  -21.0845   -8.8782   19.8959 H   0  0  0  0  0  0
  -22.3709  -10.9676   19.6172 H   0  0  0  0  0  0
  -21.2015   -7.6155   23.9714 H   0  0  0  0  0  0
  -21.1478   -6.0531   25.9073 H   0  0  0  0  0  0
  -22.0601   -2.7613   23.2850 H   0  0  0  0  0  0
  -22.4071  -11.9872   22.4812 H   0  0  0  0  0  0
  -21.1068  -13.1233   22.2633 H   0  0  0  0  0  0
  -24.6571  -15.8510   20.5286 H   0  0  0  0  0  0
  -26.2757  -15.6285   20.0950 H   0  0  0  0  0  0
  -26.7231  -32.5319   23.1003 H   0  0  0  0  0  0
  -25.0082  -33.9630   25.0345 H   0  0  0  0  0  0
  -22.7390  -31.2907   21.3822 H   0  0  0  0  0  0
  -23.3752  -35.9598   23.3293 H   0  0  0  0  0  0
  -24.3586  -36.8905   22.2058 H   0  0  0  0  0  0
  -23.7254  -37.6457   23.6683 H   0  0  0  0  0  0
  -26.1425  -31.4899   20.6105 H   0  0  0  0  0  0
  -26.8630  -30.7819   22.0235 H   0  0  0  0  0  0
  -28.1232  -28.8423   21.2197 H   0  0  0  0  0  0
  -25.9167  -25.8417   19.0304 H   0  0  0  0  0  0
  -23.9686  -27.2884   19.0053 H   0  0  0  0  0  0
  -23.7958  -30.5678   19.3958 H   0  0  0  0  0  0
  -22.7781  -29.2326   19.8451 H   0  0  0  0  0  0
  -25.1310  -36.1865   25.0809 H   0  0  0  0  0  0
  -20.9997  -28.3285   24.1365 H   0  0  0  0  0  0
  -20.5671  -26.2309   23.3620 H   0  0  0  0  0  0
  -21.6647  -26.7421   22.1203 H   0  0  0  0  0  0
  -19.6923  -25.6284   21.1244 H   0  0  0  0  0  0
  -19.6691  -27.3180   20.6730 H   0  0  0  0  0  0
  -17.4208  -26.6656   21.4031 H   0  0  0  0  0  0
  -18.0350  -26.0065   22.9022 H   0  0  0  0  0  0
  -19.7951  -30.7291   24.2217 H   0  0  0  0  0  0
  -17.5023  -31.6258   24.5169 H   0  0  0  0  0  0
  -15.5361  -30.2972   23.7672 H   0  0  0  0  0  0
  -15.8682  -28.0817   22.7066 H   0  0  0  0  0  0
  -24.5887  -30.7105   25.7749 H   0  0  0  0  0  0
  -24.8929  -32.2933   26.4801 H   0  0  0  0  0  0
  -25.8015  -30.8945   27.0216 H   0  0  0  0  0  0
  -26.2992  -29.6668   24.1274 H   0  0  0  0  0  0
  -27.4000  -29.7244   25.4836 H   0  0  0  0  0  0
  -27.8896  -30.4184   23.9573 H   0  0  0  0  0  0
  -27.2630  -33.3622   26.2034 H   0  0  0  0  0  0
  -28.3881  -32.6868   25.0339 H   0  0  0  0  0  0
  -28.0691  -31.8467   26.5444 H   0  0  0  0  0  0
  -28.2584  -38.0098   24.7505 H   0  0  0  0  0  0
  -28.1083  -36.2618   24.6294 H   0  0  0  0  0  0
  -27.2293  -37.1439   25.8871 H   0  0  0  0  0  0
  -20.9434  -29.8758   21.6823 H   0  0  0  0  0  0
  -26.0151  -38.2816   24.1402 H   0  0  0  0  0  0
  -33.3157  -20.1145   24.5928 H   0  0  0  0  0  0
  -32.4681  -21.2401   25.6296 H   0  0  0  0  0  0
  -30.3226  -20.1123   25.2095 H   0  0  0  0  0  0
  -31.4890  -18.9350   25.7493 H   0  0  0  0  0  0
  -32.9325  -22.2043   23.3557 H   0  0  0  0  0  0
  -31.2278  -22.1713   23.7219 H   0  0  0  0  0  0
  -30.1921  -18.0832   23.8377 H   0  0  0  0  0  0
  -31.8969  -18.1979   23.4323 H   0  0  0  0  0  0
  -32.7308  -20.1460   21.9855 H   0  0  0  0  0  0
  -31.6524  -21.3797   21.4186 H   0  0  0  0  0  0
  -30.6673  -22.1035   19.3821 H   0  0  0  0  0  0
  -29.1492  -22.2062   18.5537 H   0  0  0  0  0  0
  -26.9713  -21.9874   19.8341 H   0  0  0  0  0  0
  -26.9953  -21.7259   21.5499 H   0  0  0  0  0  0
  -30.1343  -24.4888   18.9354 H   0  0  0  0  0  0
  -30.2069  -24.2167   20.6427 H   0  0  0  0  0  0
  -27.9475  -23.9941   21.9680 H   0  0  0  0  0  0
  -26.4639  -24.1047   21.0788 H   0  0  0  0  0  0
  -28.2364  -16.8946   21.7549 H   0  0  0  0  0  0
  -29.4986  -16.0038   22.7445 H   0  0  0  0  0  0
  -29.7931  -20.2458   22.8386 H   0  0  0  0  0  0
  -29.4473  -21.8094   21.5484 H   0  0  0  0  0  0
  -27.6940  -24.6214   18.9843 H   0  0  0  0  0  0
  -31.3755  -17.2154   21.5631 H   0  0  0  0  0  0
  -30.9782  -19.2873   20.3489 H   0  0  0  0  0  0
  -28.8893  -19.6751   19.5234 H   0  0  0  0  0  0
  -28.1942  -19.5898   20.9683 H   0  0  0  0  0  0
  1 25  1  0  0  0
  1 30  2  0  0  0
  1 86  1  0  0  0
  2  3  1  0  0  0
  2 25  1  0  0  0
  2 88  1  0  0  0
  2 89  1  0  0  0
  3  4  1  0  0  0
  3 90  1  0  0  0
  3 91  1  0  0  0
  4  5  1  0  0  0
  4 92  1  0  0  0
  4 93  1  0  0  0
  5  6  1  0  0  0
  5 26  1  0  0  0
  5 94  1  0  0  0
  6 25  1  0  0  0
  6 95  1  0  0  0
  6 96  1  0  0  0
  7  8  2  0  0  0
  7 26  1  0  0  0
  7 29  1  0  0  0
  8  9  1  0  0  0
  8 22  1  0  0  0
  9 10  1  0  0  0
  9 27  2  0  0  0
 10 11  2  0  0  0
 10 15  1  0  0  0
 11 12  1  0  0  0
 11 97  1  0  0  0
 12 13  2  0  0  0
 12 98  1  0  0  0
 13 14  1  0  0  0
 13 31  1  0  0  0
 14 15  2  0  0  0
 14 99  1  0  0  0
 15100  1  0  0  0
 16 17  2  0  0  0
 16 21  1  0  0  0
 16 31  1  0  0  0
 17 18  1  0  0  0
 17101  1  0  0  0
 18 19  2  0  0  0
 18102  1  0  0  0
 19 20  1  0  0  0
 19 24  1  0  0  0
 20 21  2  0  0  0
 20103  1  0  0  0
 21 23  1  0  0  0
 22 28  1  0  0  0
 22 32  2  0  0  0
 26 27  1  0  0  0
 28104  1  0  0  0
 28105  1  0  0  0
 29106  1  0  0  0
 29107  1  0  0  0
 33 34  1  0  0  0
 33 66  1  0  0  0
 33 70  2  0  0  0
 34 36  1  0  0  0
 34 59  1  0  0  0
 34108  1  0  0  0
 35 44  2  0  0  0
 35 45  1  0  0  0
 35 68  1  0  0  0
 36 56  1  0  0  0
 36109  1  0  0  0
 37 39  1  0  0  0
 37 47  1  0  0  0
 37 66  1  0  0  0
 37110  1  0  0  0
 38 43  2  0  0  0
 38 46  1  0  0  0
 38 47  1  0  0  0
 39 64  1  0  0  0
 39 67  2  0  0  0
 40 52  1  0  0  0
 40 53  2  0  0  0
 40 58  1  0  0  0
 41111  1  0  0  0
 41112  1  0  0  0
 41113  1  0  0  0
 41 48  1  0  0  0
 42 43  1  0  0  0
 42 66  1  0  0  0
 42114  1  0  0  0
 42115  1  0  0  0
 43 44  1  0  0  0
 44116  1  0  0  0
 45 46  2  0  0  0
 45117  1  0  0  0
 46118  1  0  0  0
 47119  1  0  0  0
 47120  1  0  0  0
 48 56  1  0  0  0
 48 65  1  0  0  0
 48121  1  0  0  0
 49 50  1  0  0  0
 49 53  1  0  0  0
 49 64  1  0  0  0
 49122  1  0  0  0
 50 51  1  0  0  0
 50123  1  0  0  0
 50124  1  0  0  0
 51 52  1  0  0  0
 51125  1  0  0  0
 51126  1  0  0  0
 52127  1  0  0  0
 52128  1  0  0  0
 53 54  1  0  0  0
 54 55  2  0  0  0
 54129  1  0  0  0
 55 57  1  0  0  0
 55130  1  0  0  0
 56 69  2  0  0  0
 57 58  2  0  0  0
 57131  1  0  0  0
 58132  1  0  0  0
 59 60  1  0  0  0
 59 61  1  0  0  0
 59 62  1  0  0  0
 60133  1  0  0  0
 60134  1  0  0  0
 60135  1  0  0  0
 61136  1  0  0  0
 61137  1  0  0  0
 61138  1  0  0  0
 62139  1  0  0  0
 62140  1  0  0  0
 62141  1  0  0  0
 63 65  1  0  0  0
 63142  1  0  0  0
 63143  1  0  0  0
 63144  1  0  0  0
 64145  1  0  0  0
 65146  1  0  0  0
 68 83  1  0  0  0
 71 72  1  0  0  0
 71 73  1  0  0  0
 71147  1  0  0  0
 71148  1  0  0  0
 72 74  1  0  0  0
 72149  1  0  0  0
 72150  1  0  0  0
 73 75  1  0  0  0
 73151  1  0  0  0
 73152  1  0  0  0
 74153  1  0  0  0
 74154  1  0  0  0
 74 81  1  0  0  0
 75 81  1  0  0  0
 75155  1  0  0  0
 75156  1  0  0  0
 76 78  1  0  0  0
 76 82  1  0  0  0
 76157  1  0  0  0
 76158  1  0  0  0
 77 79  1  0  0  0
 77 82  1  0  0  0
 77159  1  0  0  0
 77160  1  0  0  0
 78 83  1  0  0  0
 78161  1  0  0  0
 78162  1  0  0  0
 79 83  1  0  0  0
 79163  1  0  0  0
 79164  1  0  0  0
 80 86  1  0  0  0
 80165  1  0  0  0
 80166  1  0  0  0
 80 84  1  0  0  0
 81 85  1  0  0  0
 81167  1  0  0  0
 82 87  1  0  0  0
 82168  1  0  0  0
 83169  1  0  0  0
 84 85  1  0  0  0
 84 86  1  0  0  0
 84170  1  0  0  0
 85 87  1  0  0  0
 85171  1  0  0  0
 87172  1  0  0  0
 87173  1  0  0  0
M  CHG  1  87   1
M  ISO  4   1 100  68 101  83 101  86 100
M  END
> <chiral flag>
0

> <version>
0

> <s_m_source_file>
/data/baiqing/PycharmProjects/Reinvent-master-3.2/result/LINK_invent/BTK/process_docking_weight1_custom_sum_contain_oxygen_bond_distance_aromatic_linkinvent_7_9_3/rearranged_h_0127.sdf

> <i_m_source_file_index>
78

> <r_mmod_Potential_Energy-OPLS-2005>
557.066650390625

> <r_mmod_Stretch_Energy-OPLS-2005>
211.245193481445

> <r_mmod_Bend_Energy-OPLS-2005>
356.262115478516

> <r_mmod_Torsional_Energy-OPLS-2005>
423.679565429688

> <r_mmod_Improper_Torsional_Energy-OPLS-2005>
14.2431898117065

> <r_mmod_Van_der_Waal_Energy-OPLS-2005>
129.666641235352

> <r_mmod_Electrostatic_Energy-OPLS-2005>
-259.731964111328

> <r_mmod_Solvation_Energy-OPLS-2005>
-465.315368652344

> <b_mmod_Minimization_Converged-OPLS-2005>
0

> <r_mmod_RMS_Derivative-OPLS-2005>
1.72561478614807

$$$$
78
                    3D
 Structure written by MMmdl.
158166  0  0  1  0            999 V2000
  -30.7708  -14.3640   20.6929 C   0  0  0  0  0  0
  -30.4158  -12.2967   19.3910 C   0  0  0  0  0  0
  -29.4810  -12.5271   18.1900 C   0  0  0  0  0  0
  -28.0070  -12.3781   18.6091 C   0  0  0  0  0  0
  -27.6644  -13.2022   19.8774 C   0  0  2  0  0  0
  -28.7020  -12.9483   20.9916 C   0  0  0  0  0  0
  -25.2597  -13.8157   20.5663 C   0  0  0  0  0  0
  -24.1840  -13.0438   20.9159 C   0  0  0  0  0  0
  -24.6390  -11.6904   20.8726 C   0  0  0  0  0  0
  -23.9056  -10.4292   21.0404 C   0  0  0  0  0  0
  -24.3611   -9.4209   21.9184 C   0  0  0  0  0  0
  -23.6288   -8.2244   22.0757 C   0  0  0  0  0  0
  -22.4271   -8.0281   21.3546 C   0  0  0  0  0  0
  -21.9906   -9.0252   20.4645 C   0  0  0  0  0  0
  -22.7232  -10.2132   20.3053 C   0  0  0  0  0  0
  -21.6851   -6.0736   22.5279 C   0  0  0  0  0  0
  -21.4011   -6.5639   23.8213 C   0  0  0  0  0  0
  -21.3657   -5.6791   24.9174 C   0  0  0  0  0  0
  -21.6043   -4.3055   24.7223 C   0  0  0  0  0  0
  -21.8820   -3.8149   23.4344 C   0  0  0  0  0  0
  -21.9192   -4.6965   22.3401 C   0  0  0  0  0  0
  -22.7866  -13.5240   21.1831 C   0  0  0  0  0  0
  -22.1663   -4.2152   21.0979 F   0  0  0  0  0  0
  -21.5628   -3.4540   25.7736 F   0  0  0  0  0  0
  -30.0441  -13.2420   20.4535 N   0  0  0  0  0  0
  -26.3033  -12.9318   20.3367 N   0  0  0  0  0  0
  -25.9314  -11.6480   20.5756 N   0  0  0  0  0  0
  -22.0507  -12.8232   22.0388 N   0  0  0  0  0  0
  -25.4330  -15.1870   20.4077 N   0  0  0  0  0  0
  -31.7957  -14.6557   20.0691 O   0  0  0  0  0  0
  -21.6635   -6.8879   21.4243 O   0  0  0  0  0  0
  -22.3555  -14.5552   20.6690 O   0  0  0  0  0  0
  -24.6113  -31.8700   23.2130 C   0  0  0  0  0  0
  -25.9023  -32.4830   23.8416 C   0  0  1  0  0  0
  -27.2377  -27.4731   20.0885 C   0  0  0  0  0  0
  -25.5895  -33.8629   24.2350 N   0  0  0  0  0  0
  -23.3979  -30.4930   21.5520 C   0  0  2  0  0  0
  -24.8467  -28.9601   20.1172 C   0  0  0  0  0  0
  -22.7386  -29.4670   22.5009 C   0  0  0  0  0  0
  -18.0263  -28.1378   22.8497 C   0  0  0  0  0  0
  -24.1482  -36.7316   23.2639 C   0  0  0  0  0  0
  -25.9221  -30.8454   21.3614 C   0  0  0  0  0  0
  -26.0024  -29.4800   20.7152 C   0  0  0  0  0  0
  -27.2032  -28.7398   20.7065 C   0  0  0  0  0  0
  -26.0735  -26.9557   19.4892 C   0  0  0  0  0  0
  -24.8737  -27.6930   19.5060 C   0  0  0  0  0  0
  -23.6055  -29.8219   20.1668 C   0  0  0  0  0  0
  -25.4103  -36.3118   24.0343 C   0  0  1  0  0  0
  -20.5851  -28.3657   23.1328 C   0  0  2  0  0  0
  -20.6758  -26.9398   22.5420 C   0  0  0  0  0  0
  -19.5738  -26.6387   21.5213 C   0  0  0  0  0  0
  -18.1912  -26.7928   22.1617 C   0  0  0  0  0  0
  -19.1514  -28.8834   23.2910 C   0  0  0  0  0  0
  -18.9444  -30.1442   23.8922 C   0  0  0  0  0  0
  -17.6448  -30.6585   24.0570 C   0  0  0  0  0  0
  -25.9027  -34.9480   23.5142 C   0  0  0  0  0  0
  -16.5339  -29.9089   23.6329 C   0  0  0  0  0  0
  -16.7253  -28.6504   23.0352 C   0  0  0  0  0  0
  -26.4469  -31.6592   25.0721 C   0  0  0  0  0  0
  -25.3749  -31.3660   26.1473 C   0  0  0  0  0  0
  -27.0307  -30.3049   24.6055 C   0  0  0  0  0  0
  -27.6051  -32.4304   25.7482 C   0  0  0  0  0  0
  -27.5581  -37.1815   24.8469 C   0  0  0  0  0  0
  -21.4118  -29.3033   22.3743 N   0  0  0  0  0  0
  -26.4293  -37.3799   23.9412 N   0  0  0  0  0  0
  -24.6619  -31.0827   22.1016 N   0  0  0  0  0  0
  -23.4169  -28.8216   23.3045 O   0  0  0  0  0  0
  -28.3903  -26.7359   20.0470 O   0  0  0  0  0  0
  -26.5578  -34.8925   22.4696 O   0  0  0  0  0  0
  -23.5318  -32.1439   23.7545 O   0  0  0  0  0  0
  -30.2624  -21.7017   20.9162 C   0  0  0  0  0  0
  -30.5197  -20.3193   20.8961 C   0  0  0  0  0  0
  -28.9962  -22.1596   21.3509 C   0  0  0  0  0  0
  -28.0499  -21.1834   21.7414 C   0  0  0  0  0  0
  -29.5162  -19.4313   21.3238 C   0  0  0  0  0  0
  -29.2075  -24.6098   20.8593 C   0  0  0  0  0  0
  -26.6605  -21.5706   22.2138 C   0  0  0  0  0  0
  -28.6269  -25.9808   21.2343 C   0  0  0  0  0  0
  -31.0446  -17.5064   21.5007 C   0  0  0  0  0  0
  -31.0730  -16.2140   22.3334 C   0  0  0  0  0  0
  -28.3072  -19.8559   21.7257 N   0  0  0  0  0  0
  -28.6523  -23.5416   21.4589 N   0  0  0  0  0  0
  -29.6960  -18.0483   21.3815 N   0  0  0  0  0  0
  -30.3384  -15.1120   21.7155 N   0  0  0  0  0  0
  -30.1156  -24.5342   20.0268 O   0  0  0  0  0  0
  -31.4579  -12.4018   19.0837 H   0  0  0  0  0  0
  -30.3200  -11.2741   19.7588 H   0  0  0  0  0  0
  -29.7150  -11.8233   17.3899 H   0  0  0  0  0  0
  -29.6472  -13.5246   17.7799 H   0  0  0  0  0  0
  -27.8179  -11.3197   18.7925 H   0  0  0  0  0  0
  -27.3508  -12.6650   17.7863 H   0  0  0  0  0  0
  -27.7217  -14.2557   19.6027 H   0  0  0  0  0  0
  -28.6664  -11.9055   21.3100 H   0  0  0  0  0  0
  -28.4447  -13.5258   21.8792 H   0  0  0  0  0  0
  -25.2759   -9.5684   22.4754 H   0  0  0  0  0  0
  -23.9998   -7.4638   22.7480 H   0  0  0  0  0  0
  -21.0839   -8.8768   19.8950 H   0  0  0  0  0  0
  -22.3695  -10.9669   19.6158 H   0  0  0  0  0  0
  -21.2003   -7.6148   23.9716 H   0  0  0  0  0  0
  -21.1476   -6.0521   25.9075 H   0  0  0  0  0  0
  -22.0602   -2.7612   23.2844 H   0  0  0  0  0  0
  -22.4118  -11.9883   22.4760 H   0  0  0  0  0  0
  -21.1131  -13.1266   22.2605 H   0  0  0  0  0  0
  -24.6711  -15.8470   20.5193 H   0  0  0  0  0  0
  -26.2943  -15.6245   20.1040 H   0  0  0  0  0  0
  -26.7098  -32.5559   23.1193 H   0  0  0  0  0  0
  -25.0081  -33.9800   25.0519 H   0  0  0  0  0  0
  -22.6858  -31.3089   21.4126 H   0  0  0  0  0  0
  -23.3743  -35.9650   23.3311 H   0  0  0  0  0  0
  -24.3576  -36.8917   22.2051 H   0  0  0  0  0  0
  -23.7231  -37.6525   23.6643 H   0  0  0  0  0  0
  -26.0254  -31.6089   20.5890 H   0  0  0  0  0  0
  -26.8136  -30.9051   21.9737 H   0  0  0  0  0  0
  -28.0985  -29.1387   21.1630 H   0  0  0  0  0  0
  -26.0976  -25.9854   19.0130 H   0  0  0  0  0  0
  -23.9848  -27.2851   19.0443 H   0  0  0  0  0  0
  -23.7082  -30.5949   19.4042 H   0  0  0  0  0  0
  -22.7314  -29.2364   19.8745 H   0  0  0  0  0  0
  -25.1278  -36.1994   25.0836 H   0  0  0  0  0  0
  -20.9935  -28.3219   24.1451 H   0  0  0  0  0  0
  -20.5664  -26.2263   23.3603 H   0  0  0  0  0  0
  -21.6634  -26.7450   22.1214 H   0  0  0  0  0  0
  -19.6901  -25.6303   21.1233 H   0  0  0  0  0  0
  -19.6682  -27.3210   20.6753 H   0  0  0  0  0  0
  -17.4187  -26.6687   21.4009 H   0  0  0  0  0  0
  -18.0302  -26.0058   22.8999 H   0  0  0  0  0  0
  -19.7919  -30.7253   24.2301 H   0  0  0  0  0  0
  -17.5002  -31.6269   24.5162 H   0  0  0  0  0  0
  -15.5343  -30.3002   23.7641 H   0  0  0  0  0  0
  -15.8648  -28.0833   22.7062 H   0  0  0  0  0  0
  -24.5955  -30.6963   25.7815 H   0  0  0  0  0  0
  -24.8894  -32.2791   26.4930 H   0  0  0  0  0  0
  -25.8127  -30.8844   27.0225 H   0  0  0  0  0  0
  -26.2840  -29.6798   24.1143 H   0  0  0  0  0  0
  -27.4146  -29.7286   25.4486 H   0  0  0  0  0  0
  -27.8639  -30.4397   23.9151 H   0  0  0  0  0  0
  -27.2684  -33.3602   26.2082 H   0  0  0  0  0  0
  -28.3854  -32.6864   25.0301 H   0  0  0  0  0  0
  -28.0725  -31.8406   26.5379 H   0  0  0  0  0  0
  -28.2609  -38.0106   24.7519 H   0  0  0  0  0  0
  -28.1070  -36.2638   24.6296 H   0  0  0  0  0  0
  -27.2296  -37.1467   25.8871 H   0  0  0  0  0  0
  -20.9274  -29.8754   21.6966 H   0  0  0  0  0  0
  -26.0185  -38.2879   24.1412 H   0  0  0  0  0  0
  -31.0498  -22.3770   20.6202 H   0  0  0  0  0  0
  -31.4870  -19.9718   20.5624 H   0  0  0  0  0  0
  -26.1603  -22.1852   21.4651 H   0  0  0  0  0  0
  -26.7171  -22.1345   23.1447 H   0  0  0  0  0  0
  -26.0371  -20.6934   22.3904 H   0  0  0  0  0  0
  -29.3404  -26.5126   21.8641 H   0  0  0  0  0  0
  -27.7161  -25.8478   21.8236 H   0  0  0  0  0  0
  -31.4603  -17.3410   20.5059 H   0  0  0  0  0  0
  -31.6938  -18.2321   21.9937 H   0  0  0  0  0  0
  -30.6623  -16.3968   23.3274 H   0  0  0  0  0  0
  -32.1089  -15.9072   22.4912 H   0  0  0  0  0  0
  -27.8568  -23.7546   22.0457 H   0  0  0  0  0  0
  -28.9443  -17.5070   21.7911 H   0  0  0  0  0  0
  -29.4976  -14.7987   22.1774 H   0  0  0  0  0  0
  1 25  1  0  0  0
  1 30  2  0  0  0
  1 84  1  0  0  0
  2  3  1  0  0  0
  2 25  1  0  0  0
  2 86  1  0  0  0
  2 87  1  0  0  0
  3  4  1  0  0  0
  3 88  1  0  0  0
  3 89  1  0  0  0
  4  5  1  0  0  0
  4 90  1  0  0  0
  4 91  1  0  0  0
  5  6  1  0  0  0
  5 26  1  0  0  0
  5 92  1  0  0  0
  6 25  1  0  0  0
  6 93  1  0  0  0
  6 94  1  0  0  0
  7  8  2  0  0  0
  7 26  1  0  0  0
  7 29  1  0  0  0
  8  9  1  0  0  0
  8 22  1  0  0  0
  9 10  1  0  0  0
  9 27  2  0  0  0
 10 11  2  0  0  0
 10 15  1  0  0  0
 11 12  1  0  0  0
 11 95  1  0  0  0
 12 13  2  0  0  0
 12 96  1  0  0  0
 13 14  1  0  0  0
 13 31  1  0  0  0
 14 15  2  0  0  0
 14 97  1  0  0  0
 15 98  1  0  0  0
 16 17  2  0  0  0
 16 21  1  0  0  0
 16 31  1  0  0  0
 17 18  1  0  0  0
 17 99  1  0  0  0
 18 19  2  0  0  0
 18100  1  0  0  0
 19 20  1  0  0  0
 19 24  1  0  0  0
 20 21  2  0  0  0
 20101  1  0  0  0
 21 23  1  0  0  0
 22 28  1  0  0  0
 22 32  2  0  0  0
 26 27  1  0  0  0
 28102  1  0  0  0
 28103  1  0  0  0
 29104  1  0  0  0
 29105  1  0  0  0
 33 34  1  0  0  0
 33 66  1  0  0  0
 33 70  2  0  0  0
 34 36  1  0  0  0
 34 59  1  0  0  0
 34106  1  0  0  0
 35 44  2  0  0  0
 35 45  1  0  0  0
 35 68  1  0  0  0
 36 56  1  0  0  0
 36107  1  0  0  0
 37 39  1  0  0  0
 37 47  1  0  0  0
 37 66  1  0  0  0
 37108  1  0  0  0
 38 43  2  0  0  0
 38 46  1  0  0  0
 38 47  1  0  0  0
 39 64  1  0  0  0
 39 67  2  0  0  0
 40 52  1  0  0  0
 40 53  2  0  0  0
 40 58  1  0  0  0
 41109  1  0  0  0
 41110  1  0  0  0
 41111  1  0  0  0
 41 48  1  0  0  0
 42 43  1  0  0  0
 42 66  1  0  0  0
 42112  1  0  0  0
 42113  1  0  0  0
 43 44  1  0  0  0
 44114  1  0  0  0
 45 46  2  0  0  0
 45115  1  0  0  0
 46116  1  0  0  0
 47117  1  0  0  0
 47118  1  0  0  0
 48 56  1  0  0  0
 48 65  1  0  0  0
 48119  1  0  0  0
 49 50  1  0  0  0
 49 53  1  0  0  0
 49 64  1  0  0  0
 49120  1  0  0  0
 50 51  1  0  0  0
 50121  1  0  0  0
 50122  1  0  0  0
 51 52  1  0  0  0
 51123  1  0  0  0
 51124  1  0  0  0
 52125  1  0  0  0
 52126  1  0  0  0
 53 54  1  0  0  0
 54 55  2  0  0  0
 54127  1  0  0  0
 55 57  1  0  0  0
 55128  1  0  0  0
 56 69  2  0  0  0
 57 58  2  0  0  0
 57129  1  0  0  0
 58130  1  0  0  0
 59 60  1  0  0  0
 59 61  1  0  0  0
 59 62  1  0  0  0
 60131  1  0  0  0
 60132  1  0  0  0
 60133  1  0  0  0
 61134  1  0  0  0
 61135  1  0  0  0
 61136  1  0  0  0
 62137  1  0  0  0
 62138  1  0  0  0
 62139  1  0  0  0
 63 65  1  0  0  0
 63140  1  0  0  0
 63141  1  0  0  0
 63142  1  0  0  0
 64143  1  0  0  0
 65144  1  0  0  0
 68 78  1  0  0  0
 71 72  2  0  0  0
 71 73  1  0  0  0
 71145  1  0  0  0
 72 75  1  0  0  0
 72146  1  0  0  0
 73 74  2  0  0  0
 73 82  1  0  0  0
 74 77  1  0  0  0
 74 81  1  0  0  0
 75 81  2  0  0  0
 75 83  1  0  0  0
 76 78  1  0  0  0
 76 82  1  0  0  0
 76 85  2  0  0  0
 77147  1  0  0  0
 77148  1  0  0  0
 77149  1  0  0  0
 78150  1  0  0  0
 78151  1  0  0  0
 79 80  1  0  0  0
 79 83  1  0  0  0
 79152  1  0  0  0
 79153  1  0  0  0
 80 84  1  0  0  0
 80154  1  0  0  0
 80155  1  0  0  0
 82156  1  0  0  0
 83157  1  0  0  0
 84158  1  0  0  0
M  ISO  4   1 100  68 101  78 101  84 100
M  END
> <chiral flag>
0

> <version>
0

> <s_m_source_file>
/data/baiqing/PycharmProjects/Reinvent-master-3.2/result/LINK_invent/BTK/process_docking_weight1_custom_sum_contain_oxygen_bond_distance_aromatic_linkinvent_7_9_3/rearranged_h_0127.sdf

> <i_m_source_file_index>
79

> <r_mmod_Potential_Energy-OPLS-2005>
-411.638214111328

> <r_mmod_Stretch_Energy-OPLS-2005>
31.7941379547119

> <r_mmod_Bend_Energy-OPLS-2005>
98.305793762207

> <r_mmod_Torsional_Energy-OPLS-2005>
240.264877319336

> <r_mmod_Improper_Torsional_Energy-OPLS-2005>
4.27192354202271

> <r_mmod_Van_der_Waal_Energy-OPLS-2005>
163.863632202148

> <r_mmod_Electrostatic_Energy-OPLS-2005>
-697.957824707031

> <r_mmod_Solvation_Energy-OPLS-2005>
-258.447418212891

> <b_mmod_Minimization_Converged-OPLS-2005>
0

> <r_mmod_RMS_Derivative-OPLS-2005>
0.529709279537201

$$$$
79
                    3D
 Structure written by MMmdl.
162171  0  0  1  0            999 V2000
  -30.5528  -14.8804   20.4386 C   0  0  0  0  0  0
  -30.4387  -12.5420   19.4905 C   0  0  0  0  0  0
  -29.5195  -12.5216   18.2479 C   0  0  0  0  0  0
  -28.0499  -12.3188   18.6646 C   0  0  0  0  0  0
  -27.6336  -13.2419   19.8397 C   0  0  2  0  0  0
  -28.6745  -13.2390   20.9782 C   0  0  0  0  0  0
  -25.2486  -13.8205   20.5671 C   0  0  0  0  0  0
  -24.1811  -13.0439   20.9211 C   0  0  0  0  0  0
  -24.6415  -11.6926   20.8749 C   0  0  0  0  0  0
  -23.9091  -10.4300   21.0401 C   0  0  0  0  0  0
  -24.3616   -9.4235   21.9205 C   0  0  0  0  0  0
  -23.6292   -8.2275   22.0781 C   0  0  0  0  0  0
  -22.4292   -8.0294   21.3540 C   0  0  0  0  0  0
  -21.9934   -9.0249   20.4615 C   0  0  0  0  0  0
  -22.7272  -10.2132   20.3022 C   0  0  0  0  0  0
  -21.6865   -6.0752   22.5281 C   0  0  0  0  0  0
  -21.4030   -6.5653   23.8207 C   0  0  0  0  0  0
  -21.3652   -5.6799   24.9166 C   0  0  0  0  0  0
  -21.6036   -4.3059   24.7217 C   0  0  0  0  0  0
  -21.8831   -3.8160   23.4338 C   0  0  0  0  0  0
  -21.9207   -4.6983   22.3404 C   0  0  0  0  0  0
  -22.7834  -13.5202   21.1873 C   0  0  0  0  0  0
  -22.1677   -4.2167   21.0988 F   0  0  0  0  0  0
  -21.5623   -3.4536   25.7732 F   0  0  0  0  0  0
  -29.9595  -13.6285   20.3855 N   0  0  0  0  0  0
  -26.2914  -12.9425   20.3236 N   0  0  0  0  0  0
  -25.9347  -11.6561   20.5737 N   0  0  0  0  0  0
  -22.0520  -12.8197   22.0472 N   0  0  0  0  0  0
  -25.4171  -15.1921   20.4059 N   0  0  0  0  0  0
  -31.7549  -14.9709   20.1657 O   0  0  0  0  0  0
  -21.6654   -6.8890   21.4245 O   0  0  0  0  0  0
  -22.3506  -14.5478   20.6682 O   0  0  0  0  0  0
  -24.6385  -31.8481   23.1916 C   0  0  0  0  0  0
  -25.9160  -32.4730   23.8302 C   0  0  1  0  0  0
  -27.2228  -27.1857   20.1563 C   0  0  0  0  0  0
  -25.5923  -33.8535   24.2224 N   0  0  0  0  0  0
  -23.4416  -30.4656   21.5365 C   0  0  2  0  0  0
  -24.8932  -28.8959   20.1160 C   0  0  0  0  0  0
  -22.7558  -29.4564   22.4898 C   0  0  0  0  0  0
  -18.0303  -28.1396   22.8475 C   0  0  0  0  0  0
  -24.1507  -36.7284   23.2644 C   0  0  0  0  0  0
  -25.9932  -30.7381   21.3826 C   0  0  0  0  0  0
  -26.0680  -29.3509   20.7306 C   0  0  0  0  0  0
  -27.2392  -28.5115   20.7331 C   0  0  0  0  0  0
  -26.0271  -26.8147   19.5103 C   0  0  0  0  0  0
  -24.8816  -27.6385   19.4925 C   0  0  0  0  0  0
  -23.6666  -29.7926   20.1567 C   0  0  0  0  0  0
  -25.4135  -36.3063   24.0324 C   0  0  1  0  0  0
  -20.5916  -28.3703   23.1265 C   0  0  2  0  0  0
  -20.6790  -26.9413   22.5415 C   0  0  0  0  0  0
  -19.5759  -26.6381   21.5221 C   0  0  0  0  0  0
  -18.1943  -26.7928   22.1633 C   0  0  0  0  0  0
  -19.1562  -28.8868   23.2857 C   0  0  0  0  0  0
  -18.9469  -30.1469   23.8877 C   0  0  0  0  0  0
  -17.6465  -30.6581   24.0559 C   0  0  0  0  0  0
  -25.9067  -34.9428   23.5087 C   0  0  0  0  0  0
  -16.5356  -29.9076   23.6330 C   0  0  0  0  0  0
  -16.7290  -28.6501   23.0336 C   0  0  0  0  0  0
  -26.4498  -31.6569   25.0708 C   0  0  0  0  0  0
  -25.3701  -31.3735   26.1416 C   0  0  0  0  0  0
  -27.0348  -30.2988   24.6213 C   0  0  0  0  0  0
  -27.6059  -32.4301   25.7475 C   0  0  0  0  0  0
  -27.5594  -37.1812   24.8466 C   0  0  0  0  0  0
  -21.4254  -29.3032   22.3648 N   0  0  0  0  0  0
  -26.4309  -37.3763   23.9401 N   0  0  0  0  0  0
  -24.7110  -31.0380   22.0926 N   0  0  0  0  0  0
  -23.4217  -28.8114   23.3030 O   0  0  0  0  0  0
  -28.2765  -26.2205   20.1515 O   0  0  0  0  0  0
  -26.5665  -34.8915   22.4673 O   0  0  0  0  0  0
  -23.5513  -32.1321   23.7158 O   0  0  0  0  0  0
  -29.5971  -22.7530   20.1056 C   0  0  0  0  0  0
  -29.7938  -21.3070   20.0162 C   0  0  0  0  0  0
  -27.4499  -22.3827   20.9964 C   0  0  0  0  0  0
  -28.3947  -23.3740   20.5916 C   0  0  0  0  0  0
  -28.8281  -20.3176   20.4243 C   0  0  0  0  0  0
  -27.6334  -20.9506   20.9245 C   0  0  0  0  0  0
  -25.6537  -18.3838   23.5386 C   0  0  0  0  0  0
  -26.8552  -19.3271   23.6764 C   0  0  0  0  0  0
  -24.8333  -19.5863   23.0580 C   0  0  0  0  0  0
  -26.1478  -20.3114   22.7316 C   0  0  0  0  0  0
  -28.9150  -18.6834   20.1840 C   0  0  0  0  0  0
  -28.1034  -24.9453   20.9721 C   0  0  0  0  0  0
  -30.0499  -17.5719   20.6619 C   0  0  0  0  0  0
  -26.5550  -20.1558   21.3379 N   0  0  0  0  0  0
  -29.7524  -16.0307   20.6003 N   0  0  0  0  0  0
  -31.4772  -12.6906   19.1891 H   0  0  0  0  0  0
  -30.4095  -11.5818   20.0084 H   0  0  0  0  0  0
  -29.8238  -11.7333   17.5578 H   0  0  0  0  0  0
  -29.6200  -13.4616   17.7025 H   0  0  0  0  0  0
  -27.9332  -11.2756   18.9588 H   0  0  0  0  0  0
  -27.3861  -12.4700   17.8122 H   0  0  0  0  0  0
  -27.6062  -14.2501   19.4249 H   0  0  0  0  0  0
  -28.7415  -12.2563   21.4456 H   0  0  0  0  0  0
  -28.3829  -13.9372   21.7655 H   0  0  0  0  0  0
  -25.2746   -9.5744   22.4800 H   0  0  0  0  0  0
  -23.9985   -7.4703   22.7556 H   0  0  0  0  0  0
  -21.0861   -8.8759   19.8920 H   0  0  0  0  0  0
  -22.3735  -10.9674   19.6132 H   0  0  0  0  0  0
  -21.2039   -7.6168   23.9709 H   0  0  0  0  0  0
  -21.1451   -6.0531   25.9061 H   0  0  0  0  0  0
  -22.0618   -2.7623   23.2840 H   0  0  0  0  0  0
  -22.4215  -11.9909   22.4888 H   0  0  0  0  0  0
  -21.1163  -13.1221   22.2752 H   0  0  0  0  0  0
  -24.6343  -15.8336   20.4702 H   0  0  0  0  0  0
  -26.2520  -15.6238   20.0334 H   0  0  0  0  0  0
  -26.7220  -32.5350   23.1040 H   0  0  0  0  0  0
  -25.0006  -33.9671   25.0324 H   0  0  0  0  0  0
  -22.7413  -31.2888   21.3829 H   0  0  0  0  0  0
  -23.3767  -35.9617   23.3284 H   0  0  0  0  0  0
  -24.3599  -36.8926   22.2063 H   0  0  0  0  0  0
  -23.7255  -37.6481   23.6669 H   0  0  0  0  0  0
  -26.1378  -31.4894   20.6048 H   0  0  0  0  0  0
  -26.8694  -30.7974   22.0168 H   0  0  0  0  0  0
  -28.1402  -28.8576   21.2198 H   0  0  0  0  0  0
  -25.9703  -25.8478   19.0301 H   0  0  0  0  0  0
  -23.9849  -27.2848   19.0042 H   0  0  0  0  0  0
  -23.7969  -30.5652   19.3974 H   0  0  0  0  0  0
  -22.7836  -29.2279   19.8505 H   0  0  0  0  0  0
  -25.1324  -36.1908   25.0816 H   0  0  0  0  0  0
  -20.9998  -28.3270   24.1392 H   0  0  0  0  0  0
  -20.5698  -26.2313   23.3630 H   0  0  0  0  0  0
  -21.6660  -26.7425   22.1214 H   0  0  0  0  0  0
  -19.6915  -25.6292   21.1249 H   0  0  0  0  0  0
  -19.6693  -27.3195   20.6754 H   0  0  0  0  0  0
  -17.4222  -26.6672   21.4031 H   0  0  0  0  0  0
  -18.0326  -26.0083   22.9042 H   0  0  0  0  0  0
  -19.7941  -30.7292   24.2238 H   0  0  0  0  0  0
  -17.5007  -31.6257   24.5168 H   0  0  0  0  0  0
  -15.5355  -30.2960   23.7659 H   0  0  0  0  0  0
  -15.8695  -28.0813   22.7042 H   0  0  0  0  0  0
  -24.5896  -30.7061   25.7750 H   0  0  0  0  0  0
  -24.8867  -32.2904   26.4792 H   0  0  0  0  0  0
  -25.7998  -30.8949   27.0222 H   0  0  0  0  0  0
  -26.2955  -29.6776   24.1149 H   0  0  0  0  0  0
  -27.3937  -29.7209   25.4735 H   0  0  0  0  0  0
  -27.8861  -30.4288   23.9529 H   0  0  0  0  0  0
  -27.2685  -33.3626   26.2009 H   0  0  0  0  0  0
  -28.3879  -32.6811   25.0296 H   0  0  0  0  0  0
  -28.0710  -31.8438   26.5415 H   0  0  0  0  0  0
  -28.2610  -38.0114   24.7516 H   0  0  0  0  0  0
  -28.1090  -36.2640   24.6279 H   0  0  0  0  0  0
  -27.2313  -37.1459   25.8872 H   0  0  0  0  0  0
  -20.9464  -29.8738   21.6827 H   0  0  0  0  0  0
  -26.0182  -38.2839   24.1366 H   0  0  0  0  0  0
  -30.4134  -23.3978   19.8078 H   0  0  0  0  0  0
  -30.7298  -20.9551   19.6067 H   0  0  0  0  0  0
  -26.5185  -22.7470   21.4060 H   0  0  0  0  0  0
  -25.3092  -17.9416   24.4748 H   0  0  0  0  0  0
  -25.7911  -17.6299   22.7613 H   0  0  0  0  0  0
  -27.8009  -18.9163   23.3186 H   0  0  0  0  0  0
  -26.9553  -19.7218   24.6885 H   0  0  0  0  0  0
  -24.2864  -20.0641   23.8738 H   0  0  0  0  0  0
  -24.1759  -19.3885   22.2105 H   0  0  0  0  0  0
  -26.1625  -21.3401   23.0931 H   0  0  0  0  0  0
  -28.8139  -18.5672   19.1043 H   0  0  0  0  0  0
  -27.9862  -18.2650   20.5625 H   0  0  0  0  0  0
  -28.7256  -25.1202   21.8507 H   0  0  0  0  0  0
  -27.0871  -24.9697   21.3678 H   0  0  0  0  0  0
  -30.2919  -17.7808   21.7041 H   0  0  0  0  0  0
  -30.9718  -17.7662   20.1125 H   0  0  0  0  0  0
  -26.6125  -19.1878   21.0445 H   0  0  0  0  0  0
  -28.7814  -15.7994   20.7474 H   0  0  0  0  0  0
  1 25  1  0  0  0
  1 30  2  0  0  0
  1 85  1  0  0  0
  2  3  1  0  0  0
  2 25  1  0  0  0
  2 86  1  0  0  0
  2 87  1  0  0  0
  3  4  1  0  0  0
  3 88  1  0  0  0
  3 89  1  0  0  0
  4  5  1  0  0  0
  4 90  1  0  0  0
  4 91  1  0  0  0
  5  6  1  0  0  0
  5 26  1  0  0  0
  5 92  1  0  0  0
  6 25  1  0  0  0
  6 93  1  0  0  0
  6 94  1  0  0  0
  7  8  2  0  0  0
  7 26  1  0  0  0
  7 29  1  0  0  0
  8  9  1  0  0  0
  8 22  1  0  0  0
  9 10  1  0  0  0
  9 27  2  0  0  0
 10 11  2  0  0  0
 10 15  1  0  0  0
 11 12  1  0  0  0
 11 95  1  0  0  0
 12 13  2  0  0  0
 12 96  1  0  0  0
 13 14  1  0  0  0
 13 31  1  0  0  0
 14 15  2  0  0  0
 14 97  1  0  0  0
 15 98  1  0  0  0
 16 17  2  0  0  0
 16 21  1  0  0  0
 16 31  1  0  0  0
 17 18  1  0  0  0
 17 99  1  0  0  0
 18 19  2  0  0  0
 18100  1  0  0  0
 19 20  1  0  0  0
 19 24  1  0  0  0
 20 21  2  0  0  0
 20101  1  0  0  0
 21 23  1  0  0  0
 22 28  1  0  0  0
 22 32  2  0  0  0
 26 27  1  0  0  0
 28102  1  0  0  0
 28103  1  0  0  0
 29104  1  0  0  0
 29105  1  0  0  0
 33 34  1  0  0  0
 33 66  1  0  0  0
 33 70  2  0  0  0
 34 36  1  0  0  0
 34 59  1  0  0  0
 34106  1  0  0  0
 35 44  2  0  0  0
 35 45  1  0  0  0
 35 68  1  0  0  0
 36 56  1  0  0  0
 36107  1  0  0  0
 37 39  1  0  0  0
 37 47  1  0  0  0
 37 66  1  0  0  0
 37108  1  0  0  0
 38 43  2  0  0  0
 38 46  1  0  0  0
 38 47  1  0  0  0
 39 64  1  0  0  0
 39 67  2  0  0  0
 40 52  1  0  0  0
 40 53  2  0  0  0
 40 58  1  0  0  0
 41109  1  0  0  0
 41110  1  0  0  0
 41111  1  0  0  0
 41 48  1  0  0  0
 42 43  1  0  0  0
 42 66  1  0  0  0
 42112  1  0  0  0
 42113  1  0  0  0
 43 44  1  0  0  0
 44114  1  0  0  0
 45 46  2  0  0  0
 45115  1  0  0  0
 46116  1  0  0  0
 47117  1  0  0  0
 47118  1  0  0  0
 48 56  1  0  0  0
 48 65  1  0  0  0
 48119  1  0  0  0
 49 50  1  0  0  0
 49 53  1  0  0  0
 49 64  1  0  0  0
 49120  1  0  0  0
 50 51  1  0  0  0
 50121  1  0  0  0
 50122  1  0  0  0
 51 52  1  0  0  0
 51123  1  0  0  0
 51124  1  0  0  0
 52125  1  0  0  0
 52126  1  0  0  0
 53 54  1  0  0  0
 54 55  2  0  0  0
 54127  1  0  0  0
 55 57  1  0  0  0
 55128  1  0  0  0
 56 69  2  0  0  0
 57 58  2  0  0  0
 57129  1  0  0  0
 58130  1  0  0  0
 59 60  1  0  0  0
 59 61  1  0  0  0
 59 62  1  0  0  0
 60131  1  0  0  0
 60132  1  0  0  0
 60133  1  0  0  0
 61134  1  0  0  0
 61135  1  0  0  0
 61136  1  0  0  0
 62137  1  0  0  0
 62138  1  0  0  0
 62139  1  0  0  0
 63 65  1  0  0  0
 63140  1  0  0  0
 63141  1  0  0  0
 63142  1  0  0  0
 64143  1  0  0  0
 65144  1  0  0  0
 68 82  1  0  0  0
 71 72  2  0  0  0
 71 74  1  0  0  0
 71145  1  0  0  0
 72 75  1  0  0  0
 72146  1  0  0  0
 73 74  2  0  0  0
 73 76  1  0  0  0
 73147  1  0  0  0
 74 82  1  0  0  0
 75 76  2  0  0  0
 75 81  1  0  0  0
 76 84  1  0  0  0
 77 78  1  0  0  0
 77 79  1  0  0  0
 77148  1  0  0  0
 77149  1  0  0  0
 78 80  1  0  0  0
 78150  1  0  0  0
 78151  1  0  0  0
 79 80  1  0  0  0
 79152  1  0  0  0
 79153  1  0  0  0
 80 84  1  0  0  0
 80154  1  0  0  0
 81 83  1  0  0  0
 81155  1  0  0  0
 81156  1  0  0  0
 82157  1  0  0  0
 82158  1  0  0  0
 83 85  1  0  0  0
 83159  1  0  0  0
 83160  1  0  0  0
 84161  1  0  0  0
 85162  1  0  0  0
M  ISO  4   1 100  68 101  82 101  85 100
M  END
> <chiral flag>
0

> <version>
0

> <s_m_source_file>
/data/baiqing/PycharmProjects/Reinvent-master-3.2/result/LINK_invent/BTK/process_docking_weight1_custom_sum_contain_oxygen_bond_distance_aromatic_linkinvent_7_9_3/rearranged_h_0127.sdf

> <i_m_source_file_index>
80

> <r_mmod_Potential_Energy-OPLS-2005>
419.281005859375

> <r_mmod_Stretch_Energy-OPLS-2005>
195.940673828125

> <r_mmod_Bend_Energy-OPLS-2005>
264.029907226562

> <r_mmod_Torsional_Energy-OPLS-2005>
291.560089111328

> <r_mmod_Improper_Torsional_Energy-OPLS-2005>
11.2760887145996

> <r_mmod_Van_der_Waal_Energy-OPLS-2005>
131.331909179688

> <r_mmod_Electrostatic_Energy-OPLS-2005>
-410.188110351562

> <r_mmod_Solvation_Energy-OPLS-2005>
-215.003875732422

> <b_mmod_Minimization_Converged-OPLS-2005>
0

> <r_mmod_RMS_Derivative-OPLS-2005>
2.25055980682373

$$$$
80
                    3D
 Structure written by MMmdl.
164173  0  0  1  0            999 V2000
  -30.7638  -14.3699   20.6502 C   0  0  0  0  0  0
  -30.4226  -12.2737   19.3874 C   0  0  0  0  0  0
  -29.4863  -12.5061   18.1862 C   0  0  0  0  0  0
  -28.0126  -12.3586   18.6124 C   0  0  0  0  0  0
  -27.6741  -13.1855   19.8779 C   0  0  2  0  0  0
  -28.7176  -12.9284   20.9878 C   0  0  0  0  0  0
  -25.2706  -13.8109   20.5638 C   0  0  0  0  0  0
  -24.1895  -13.0409   20.9089 C   0  0  0  0  0  0
  -24.6410  -11.6870   20.8683 C   0  0  0  0  0  0
  -23.9044  -10.4273   21.0385 C   0  0  0  0  0  0
  -24.3589   -9.4202   21.9177 C   0  0  0  0  0  0
  -23.6268   -8.2243   22.0772 C   0  0  0  0  0  0
  -22.4261   -8.0266   21.3549 C   0  0  0  0  0  0
  -21.9874   -9.0232   20.4657 C   0  0  0  0  0  0
  -22.7204  -10.2116   20.3061 C   0  0  0  0  0  0
  -21.6849   -6.0705   22.5263 C   0  0  0  0  0  0
  -21.4012   -6.5620   23.8184 C   0  0  0  0  0  0
  -21.3654   -5.6783   24.9153 C   0  0  0  0  0  0
  -21.6051   -4.3048   24.7214 C   0  0  0  0  0  0
  -21.8821   -3.8126   23.4337 C   0  0  0  0  0  0
  -21.9198   -4.6936   22.3390 C   0  0  0  0  0  0
  -22.7945  -13.5279   21.1696 C   0  0  0  0  0  0
  -22.1671   -4.2113   21.0973 F   0  0  0  0  0  0
  -21.5622   -3.4544   25.7735 F   0  0  0  0  0  0
  -30.0573  -13.2261   20.4469 N   0  0  0  0  0  0
  -26.3113  -12.9221   20.3385 N   0  0  0  0  0  0
  -25.9345  -11.6397   20.5767 N   0  0  0  0  0  0
  -22.0569  -12.8342   22.0302 N   0  0  0  0  0  0
  -25.4512  -15.1806   20.4006 N   0  0  0  0  0  0
  -31.8101  -14.6254   20.0458 O   0  0  0  0  0  0
  -21.6639   -6.8853   21.4234 O   0  0  0  0  0  0
  -22.3654  -14.5558   20.6501 O   0  0  0  0  0  0
  -24.6124  -31.8670   23.2108 C   0  0  0  0  0  0
  -25.8998  -32.4830   23.8401 C   0  0  1  0  0  0
  -27.2373  -27.4276   20.0935 C   0  0  0  0  0  0
  -25.5825  -33.8623   24.2329 N   0  0  0  0  0  0
  -23.3997  -30.4917   21.5503 C   0  0  2  0  0  0
  -24.8441  -28.9534   20.1149 C   0  0  0  0  0  0
  -22.7421  -29.4646   22.5004 C   0  0  0  0  0  0
  -18.0279  -28.1349   22.8496 C   0  0  0  0  0  0
  -24.1431  -36.7240   23.2687 C   0  0  0  0  0  0
  -25.9289  -30.8284   21.3664 C   0  0  0  0  0  0
  -26.0034  -29.4628   20.7096 C   0  0  0  0  0  0
  -27.1957  -28.7064   20.6974 C   0  0  0  0  0  0
  -26.0495  -26.9258   19.5063 C   0  0  0  0  0  0
  -24.8617  -27.6825   19.5142 C   0  0  0  0  0  0
  -23.6075  -29.8233   20.1638 C   0  0  0  0  0  0
  -25.4083  -36.3123   24.0402 C   0  0  1  0  0  0
  -20.5874  -28.3596   23.1334 C   0  0  2  0  0  0
  -20.6746  -26.9331   22.5448 C   0  0  0  0  0  0
  -19.5718  -26.6361   21.5229 C   0  0  0  0  0  0
  -18.1894  -26.7904   22.1627 C   0  0  0  0  0  0
  -19.1542  -28.8791   23.2890 C   0  0  0  0  0  0
  -18.9504  -30.1401   23.8870 C   0  0  0  0  0  0
  -17.6520  -30.6567   24.0534 C   0  0  0  0  0  0
  -25.9029  -34.9490   23.5184 C   0  0  0  0  0  0
  -16.5386  -29.9075   23.6345 C   0  0  0  0  0  0
  -16.7282  -28.6495   23.0360 C   0  0  0  0  0  0
  -26.4447  -31.6642   25.0733 C   0  0  0  0  0  0
  -25.3768  -31.3694   26.1527 C   0  0  0  0  0  0
  -27.0360  -30.3138   24.6073 C   0  0  0  0  0  0
  -27.5966  -32.4455   25.7462 C   0  0  0  0  0  0
  -27.5548  -37.1770   24.8521 C   0  0  0  0  0  0
  -21.4163  -29.2961   22.3727 N   0  0  0  0  0  0
  -26.4246  -37.3827   23.9491 N   0  0  0  0  0  0
  -24.6648  -31.0797   22.0990 N   0  0  0  0  0  0
  -23.4197  -28.8239   23.3078 O   0  0  0  0  0  0
  -28.4342  -26.7345   20.1152 O   0  0  0  0  0  0
  -26.5631  -34.8954   22.4769 O   0  0  0  0  0  0
  -23.5322  -32.1398   23.7523 O   0  0  0  0  0  0
  -32.4680  -18.0779   22.4631 C   0  0  0  0  0  0
  -32.0433  -16.7809   22.1332 C   0  0  0  0  0  0
  -31.5522  -19.1460   22.4622 C   0  0  0  0  0  0
  -29.7621  -17.6089   21.8672 C   0  0  0  0  0  0
  -30.6853  -16.5354   21.8336 C   0  0  0  0  0  0
  -30.1912  -18.9355   22.1272 C   0  0  0  0  0  0
  -29.5818  -23.7686   23.4440 C   0  0  0  0  0  0
  -28.4989  -22.7288   23.1986 C   0  0  0  0  0  0
  -29.5339  -24.5868   22.1531 C   0  0  0  0  0  0
  -28.6772  -22.3688   21.7141 C   0  0  2  0  0  0
  -29.6898  -21.2056   21.4774 C   0  0  0  0  0  0
  -28.1314  -24.2296   20.1102 C   0  0  0  0  0  0
  -28.6022  -25.5158   19.3739 C   0  0  0  0  0  0
  -30.2290  -15.2212   21.5403 N   0  0  0  0  0  0
  -29.1267  -23.6499   21.0686 N   0  3  1  0  0  0
  -29.2662  -19.9667   22.0797 O   0  0  0  0  0  0
  -31.4669  -12.3569   19.0786 H   0  0  0  0  0  0
  -30.3107  -11.2530   19.7573 H   0  0  0  0  0  0
  -29.7157  -11.7951   17.3901 H   0  0  0  0  0  0
  -29.6552  -13.4998   17.7687 H   0  0  0  0  0  0
  -27.8303  -11.3010   18.8069 H   0  0  0  0  0  0
  -27.3486  -12.6300   17.7909 H   0  0  0  0  0  0
  -27.7380  -14.2360   19.5990 H   0  0  0  0  0  0
  -28.6822  -11.8832   21.2968 H   0  0  0  0  0  0
  -28.4799  -13.4953   21.8862 H   0  0  0  0  0  0
  -25.2730   -9.5682   22.4735 H   0  0  0  0  0  0
  -23.9951   -7.4668   22.7537 H   0  0  0  0  0  0
  -21.0772   -8.8749   19.9001 H   0  0  0  0  0  0
  -22.3643  -10.9635   19.6165 H   0  0  0  0  0  0
  -21.2015   -7.6129   23.9667 H   0  0  0  0  0  0
  -21.1472   -6.0522   25.9045 H   0  0  0  0  0  0
  -22.0613   -2.7589   23.2854 H   0  0  0  0  0  0
  -22.4159  -12.0040   22.4744 H   0  0  0  0  0  0
  -21.1204  -13.1421   22.2442 H   0  0  0  0  0  0
  -24.6879  -15.8438   20.4794 H   0  0  0  0  0  0
  -26.3146  -15.6035   20.0787 H   0  0  0  0  0  0
  -26.7038  -32.5526   23.1147 H   0  0  0  0  0  0
  -24.9954  -33.9796   25.0454 H   0  0  0  0  0  0
  -22.6862  -31.3067   21.4094 H   0  0  0  0  0  0
  -23.3762  -35.9500   23.3408 H   0  0  0  0  0  0
  -24.3482  -36.8790   22.2081 H   0  0  0  0  0  0
  -23.7112  -37.6436   23.6655 H   0  0  0  0  0  0
  -26.0626  -31.6008   20.6067 H   0  0  0  0  0  0
  -26.8108  -30.8682   21.9932 H   0  0  0  0  0  0
  -28.0914  -29.0998   21.1552 H   0  0  0  0  0  0
  -26.0150  -25.9475   19.0524 H   0  0  0  0  0  0
  -23.9659  -27.2766   19.0606 H   0  0  0  0  0  0
  -23.7190  -30.5997   19.4048 H   0  0  0  0  0  0
  -22.7285  -29.2465   19.8703 H   0  0  0  0  0  0
  -25.1253  -36.1996   25.0901 H   0  0  0  0  0  0
  -20.9922  -28.3138   24.1477 H   0  0  0  0  0  0
  -20.5652  -26.2200   23.3642 H   0  0  0  0  0  0
  -21.6618  -26.7411   22.1225 H   0  0  0  0  0  0
  -19.6885  -25.6296   21.1209 H   0  0  0  0  0  0
  -19.6634  -27.3206   20.6777 H   0  0  0  0  0  0
  -17.4190  -26.6706   21.3987 H   0  0  0  0  0  0
  -18.0203  -26.0018   22.8980 H   0  0  0  0  0  0
  -19.8011  -30.7182   24.2200 H   0  0  0  0  0  0
  -17.5131  -31.6275   24.5101 H   0  0  0  0  0  0
  -15.5386  -30.2988   23.7695 H   0  0  0  0  0  0
  -15.8687  -28.0827   22.7066 H   0  0  0  0  0  0
  -24.6016  -30.6901   25.7965 H   0  0  0  0  0  0
  -24.8845  -32.2801   26.4943 H   0  0  0  0  0  0
  -25.8223  -30.9004   27.0308 H   0  0  0  0  0  0
  -26.2871  -29.6744   24.1371 H   0  0  0  0  0  0
  -27.4492  -29.7514   25.4454 H   0  0  0  0  0  0
  -27.8517  -30.4577   23.8969 H   0  0  0  0  0  0
  -27.2533  -33.3812   26.1906 H   0  0  0  0  0  0
  -28.3781  -32.6953   25.0272 H   0  0  0  0  0  0
  -28.0607  -31.8704   26.5487 H   0  0  0  0  0  0
  -28.2625  -38.0003   24.7568 H   0  0  0  0  0  0
  -28.0963  -36.2556   24.6346 H   0  0  0  0  0  0
  -27.2254  -37.1428   25.8912 H   0  0  0  0  0  0
  -20.9345  -29.8701   21.6967 H   0  0  0  0  0  0
  -26.0149  -38.2897   24.1560 H   0  0  0  0  0  0
  -33.5022  -18.2530   22.7267 H   0  0  0  0  0  0
  -32.7640  -15.9750   22.1289 H   0  0  0  0  0  0
  -31.9306  -20.1143   22.7516 H   0  0  0  0  0  0
  -28.7189  -17.4111   21.6602 H   0  0  0  0  0  0
  -30.5484  -23.2758   23.5607 H   0  0  0  0  0  0
  -29.4055  -24.3735   24.3357 H   0  0  0  0  0  0
  -27.5240  -23.2009   23.3343 H   0  0  0  0  0  0
  -28.5407  -21.8774   23.8769 H   0  0  0  0  0  0
  -30.4873  -25.0708   21.9332 H   0  0  0  0  0  0
  -28.7892  -25.3764   22.2778 H   0  0  0  0  0  0
  -27.7170  -22.0475   21.3120 H   0  0  0  0  0  0
  -29.7908  -21.0217   20.4064 H   0  0  0  0  0  0
  -30.6706  -21.5200   21.8280 H   0  0  0  0  0  0
  -27.9635  -23.4700   19.3444 H   0  0  0  0  0  0
  -27.1699  -24.3876   20.5973 H   0  0  0  0  0  0
  -28.1146  -25.6025   18.4029 H   0  0  0  0  0  0
  -29.6621  -25.4167   19.1384 H   0  0  0  0  0  0
  -29.3415  -14.9397   21.9289 H   0  0  0  0  0  0
  -29.9634  -23.4340   20.5392 H   0  0  0  0  0  0
  1 25  1  0  0  0
  1 30  2  0  0  0
  1 84  1  0  0  0
  2  3  1  0  0  0
  2 25  1  0  0  0
  2 87  1  0  0  0
  2 88  1  0  0  0
  3  4  1  0  0  0
  3 89  1  0  0  0
  3 90  1  0  0  0
  4  5  1  0  0  0
  4 91  1  0  0  0
  4 92  1  0  0  0
  5  6  1  0  0  0
  5 26  1  0  0  0
  5 93  1  0  0  0
  6 25  1  0  0  0
  6 94  1  0  0  0
  6 95  1  0  0  0
  7  8  2  0  0  0
  7 26  1  0  0  0
  7 29  1  0  0  0
  8  9  1  0  0  0
  8 22  1  0  0  0
  9 10  1  0  0  0
  9 27  2  0  0  0
 10 11  2  0  0  0
 10 15  1  0  0  0
 11 12  1  0  0  0
 11 96  1  0  0  0
 12 13  2  0  0  0
 12 97  1  0  0  0
 13 14  1  0  0  0
 13 31  1  0  0  0
 14 15  2  0  0  0
 14 98  1  0  0  0
 15 99  1  0  0  0
 16 17  2  0  0  0
 16 21  1  0  0  0
 16 31  1  0  0  0
 17 18  1  0  0  0
 17100  1  0  0  0
 18 19  2  0  0  0
 18101  1  0  0  0
 19 20  1  0  0  0
 19 24  1  0  0  0
 20 21  2  0  0  0
 20102  1  0  0  0
 21 23  1  0  0  0
 22 28  1  0  0  0
 22 32  2  0  0  0
 26 27  1  0  0  0
 28103  1  0  0  0
 28104  1  0  0  0
 29105  1  0  0  0
 29106  1  0  0  0
 33 34  1  0  0  0
 33 66  1  0  0  0
 33 70  2  0  0  0
 34 36  1  0  0  0
 34 59  1  0  0  0
 34107  1  0  0  0
 35 44  2  0  0  0
 35 45  1  0  0  0
 35 68  1  0  0  0
 36 56  1  0  0  0
 36108  1  0  0  0
 37 39  1  0  0  0
 37 47  1  0  0  0
 37 66  1  0  0  0
 37109  1  0  0  0
 38 43  2  0  0  0
 38 46  1  0  0  0
 38 47  1  0  0  0
 39 64  1  0  0  0
 39 67  2  0  0  0
 40 52  1  0  0  0
 40 53  2  0  0  0
 40 58  1  0  0  0
 41110  1  0  0  0
 41111  1  0  0  0
 41112  1  0  0  0
 41 48  1  0  0  0
 42 43  1  0  0  0
 42 66  1  0  0  0
 42113  1  0  0  0
 42114  1  0  0  0
 43 44  1  0  0  0
 44115  1  0  0  0
 45 46  2  0  0  0
 45116  1  0  0  0
 46117  1  0  0  0
 47118  1  0  0  0
 47119  1  0  0  0
 48 56  1  0  0  0
 48 65  1  0  0  0
 48120  1  0  0  0
 49 50  1  0  0  0
 49 53  1  0  0  0
 49 64  1  0  0  0
 49121  1  0  0  0
 50 51  1  0  0  0
 50122  1  0  0  0
 50123  1  0  0  0
 51 52  1  0  0  0
 51124  1  0  0  0
 51125  1  0  0  0
 52126  1  0  0  0
 52127  1  0  0  0
 53 54  1  0  0  0
 54 55  2  0  0  0
 54128  1  0  0  0
 55 57  1  0  0  0
 55129  1  0  0  0
 56 69  2  0  0  0
 57 58  2  0  0  0
 57130  1  0  0  0
 58131  1  0  0  0
 59 60  1  0  0  0
 59 61  1  0  0  0
 59 62  1  0  0  0
 60132  1  0  0  0
 60133  1  0  0  0
 60134  1  0  0  0
 61135  1  0  0  0
 61136  1  0  0  0
 61137  1  0  0  0
 62138  1  0  0  0
 62139  1  0  0  0
 62140  1  0  0  0
 63 65  1  0  0  0
 63141  1  0  0  0
 63142  1  0  0  0
 63143  1  0  0  0
 64144  1  0  0  0
 65145  1  0  0  0
 68 83  1  0  0  0
 71 72  2  0  0  0
 71 73  1  0  0  0
 71146  1  0  0  0
 72 75  1  0  0  0
 72147  1  0  0  0
 73 76  2  0  0  0
 73148  1  0  0  0
 74 75  2  0  0  0
 74 76  1  0  0  0
 74149  1  0  0  0
 75 84  1  0  0  0
 76 86  1  0  0  0
 77 78  1  0  0  0
 77 79  1  0  0  0
 77150  1  0  0  0
 77151  1  0  0  0
 78 80  1  0  0  0
 78152  1  0  0  0
 78153  1  0  0  0
 79 85  1  0  0  0
 79154  1  0  0  0
 79155  1  0  0  0
 80 81  1  0  0  0
 80 85  1  0  0  0
 80156  1  0  0  0
 81 86  1  0  0  0
 81157  1  0  0  0
 81158  1  0  0  0
 82 83  1  0  0  0
 82159  1  0  0  0
 82160  1  0  0  0
 82 85  1  0  0  0
 83161  1  0  0  0
 83162  1  0  0  0
 84163  1  0  0  0
 85164  1  0  0  0
M  CHG  1  85   1
M  ISO  4   1 100  68 101  83 101  84 100
M  END
> <chiral flag>
0

> <version>
0

> <s_m_source_file>
/data/baiqing/PycharmProjects/Reinvent-master-3.2/result/LINK_invent/BTK/process_docking_weight1_custom_sum_contain_oxygen_bond_distance_aromatic_linkinvent_7_9_3/rearranged_h_0127.sdf

> <i_m_source_file_index>
81

> <r_mmod_Potential_Energy-OPLS-2005>
23.2947177886963

> <r_mmod_Stretch_Energy-OPLS-2005>
40.9587249755859

> <r_mmod_Bend_Energy-OPLS-2005>
132.53205871582

> <r_mmod_Torsional_Energy-OPLS-2005>
293.109283447266

> <r_mmod_Improper_Torsional_Energy-OPLS-2005>
2.14093422889709

> <r_mmod_Van_der_Waal_Energy-OPLS-2005>
155.473037719727

> <r_mmod_Electrostatic_Energy-OPLS-2005>
-194.179458618164

> <r_mmod_Solvation_Energy-OPLS-2005>
-416.653991699219

> <b_mmod_Minimization_Converged-OPLS-2005>
0

> <r_mmod_RMS_Derivative-OPLS-2005>
5.1281681060791

$$$$
81
                    3D
 Structure written by MMmdl.
160168  0  0  1  0            999 V2000
  -30.6740  -14.4655   20.5593 C   0  0  0  0  0  0
  -30.4233  -12.3027   19.4191 C   0  0  0  0  0  0
  -29.4922  -12.5061   18.2045 C   0  0  0  0  0  0
  -28.0113  -12.3690   18.6125 C   0  0  0  0  0  0
  -27.6582  -13.2045   19.8718 C   0  0  2  0  0  0
  -28.6973  -12.9722   20.9926 C   0  0  0  0  0  0
  -25.2579  -13.8154   20.5692 C   0  0  0  0  0  0
  -24.1820  -13.0431   20.9197 C   0  0  0  0  0  0
  -24.6372  -11.6903   20.8746 C   0  0  0  0  0  0
  -23.9055  -10.4285   21.0406 C   0  0  0  0  0  0
  -24.3633   -9.4184   21.9161 C   0  0  0  0  0  0
  -23.6314   -8.2221   22.0731 C   0  0  0  0  0  0
  -22.4280   -8.0278   21.3546 C   0  0  0  0  0  0
  -21.9889   -9.0266   20.4674 C   0  0  0  0  0  0
  -22.7221  -10.2142   20.3076 C   0  0  0  0  0  0
  -21.6863   -6.0740   22.5295 C   0  0  0  0  0  0
  -21.4022   -6.5638   23.8235 C   0  0  0  0  0  0
  -21.3651   -5.6789   24.9194 C   0  0  0  0  0  0
  -21.6034   -4.3054   24.7244 C   0  0  0  0  0  0
  -21.8821   -3.8148   23.4363 C   0  0  0  0  0  0
  -21.9194   -4.6968   22.3417 C   0  0  0  0  0  0
  -22.7850  -13.5235   21.1853 C   0  0  0  0  0  0
  -22.1663   -4.2150   21.0996 F   0  0  0  0  0  0
  -21.5613   -3.4531   25.7747 F   0  0  0  0  0  0
  -30.0289  -13.2761   20.4464 N   0  0  0  0  0  0
  -26.2994  -12.9316   20.3332 N   0  0  0  0  0  0
  -25.9285  -11.6486   20.5726 N   0  0  0  0  0  0
  -22.0483  -12.8254   22.0432 N   0  0  0  0  0  0
  -25.4287  -15.1883   20.4149 N   0  0  0  0  0  0
  -31.8025  -14.6692   20.1026 O   0  0  0  0  0  0
  -21.6641   -6.8886   21.4260 O   0  0  0  0  0  0
  -22.3529  -14.5532   20.6678 O   0  0  0  0  0  0
  -24.6118  -31.8690   23.2105 C   0  0  0  0  0  0
  -25.9024  -32.4835   23.8393 C   0  0  1  0  0  0
  -27.2381  -27.4499   20.1073 C   0  0  0  0  0  0
  -25.5897  -33.8633   24.2340 N   0  0  0  0  0  0
  -23.3996  -30.4917   21.5483 C   0  0  2  0  0  0
  -24.8495  -28.9525   20.1192 C   0  0  0  0  0  0
  -22.7389  -29.4672   22.4983 C   0  0  0  0  0  0
  -18.0273  -28.1365   22.8497 C   0  0  0  0  0  0
  -24.1480  -36.7318   23.2638 C   0  0  0  0  0  0
  -25.9251  -30.8395   21.3616 C   0  0  0  0  0  0
  -26.0061  -29.4717   20.7160 C   0  0  0  0  0  0
  -27.2054  -28.7264   20.7102 C   0  0  0  0  0  0
  -26.0715  -26.9393   19.5042 C   0  0  0  0  0  0
  -24.8762  -27.6843   19.5114 C   0  0  0  0  0  0
  -23.6098  -29.8179   20.1647 C   0  0  0  0  0  0
  -25.4104  -36.3130   24.0342 C   0  0  1  0  0  0
  -20.5861  -28.3659   23.1321 C   0  0  2  0  0  0
  -20.6764  -26.9401   22.5414 C   0  0  0  0  0  0
  -19.5745  -26.6385   21.5208 C   0  0  0  0  0  0
  -18.1924  -26.7920   22.1620 C   0  0  0  0  0  0
  -19.1521  -28.8830   23.2908 C   0  0  0  0  0  0
  -18.9452  -30.1436   23.8915 C   0  0  0  0  0  0
  -17.6453  -30.6582   24.0574 C   0  0  0  0  0  0
  -25.9023  -34.9489   23.5142 C   0  0  0  0  0  0
  -16.5344  -29.9083   23.6323 C   0  0  0  0  0  0
  -16.7262  -28.6496   23.0350 C   0  0  0  0  0  0
  -26.4460  -31.6600   25.0713 C   0  0  0  0  0  0
  -25.3734  -31.3697   26.1467 C   0  0  0  0  0  0
  -27.0283  -30.3046   24.6081 C   0  0  0  0  0  0
  -27.6047  -32.4296   25.7477 C   0  0  0  0  0  0
  -27.5579  -37.1816   24.8467 C   0  0  0  0  0  0
  -21.4119  -29.3029   22.3725 N   0  0  0  0  0  0
  -26.4293  -37.3813   23.9408 N   0  0  0  0  0  0
  -24.6627  -31.0812   22.0993 N   0  0  0  0  0  0
  -23.4170  -28.8221   23.3024 O   0  0  0  0  0  0
  -28.4043  -26.7269   20.0669 O   0  0  0  0  0  0
  -26.5582  -34.8937   22.4696 O   0  0  0  0  0  0
  -23.5317  -32.1428   23.7519 O   0  0  0  0  0  0
  -28.2518  -21.1095   22.4422 C   0  0  0  0  0  0
  -28.7886  -21.3441   19.9659 C   0  0  0  0  0  0
  -29.5411  -20.2588   22.4028 C   0  0  0  0  0  0
  -28.8164  -19.7984   20.0600 C   0  0  0  0  0  0
  -28.0663  -21.9771   21.1772 C   0  0  2  0  0  0
  -30.1976  -16.8998   20.7507 C   0  0  0  0  0  0
  -29.3321  -17.8785   21.5870 C   0  0  0  0  0  0
  -28.5189  -25.7001   21.0564 C   0  0  0  0  0  0
  -28.0670  -24.3118   20.5553 C   0  0  0  0  0  0
  -29.9156  -15.4788   21.0122 N   0  0  0  0  0  0
  -29.5907  -19.3140   21.2437 N   0  3  2  0  0  0
  -28.5524  -23.2959   21.4395 O   0  0  0  0  0  0
  -31.4661  -12.4165   19.1181 H   0  0  0  0  0  0
  -30.3367  -11.2887   19.8096 H   0  0  0  0  0  0
  -29.7313  -11.7880   17.4186 H   0  0  0  0  0  0
  -29.6612  -13.4958   17.7765 H   0  0  0  0  0  0
  -27.8177  -11.3122   18.8015 H   0  0  0  0  0  0
  -27.3623  -12.6518   17.7827 H   0  0  0  0  0  0
  -27.7033  -14.2522   19.5749 H   0  0  0  0  0  0
  -28.6662  -11.9327   21.3202 H   0  0  0  0  0  0
  -28.4618  -13.5647   21.8782 H   0  0  0  0  0  0
  -25.2793   -9.5633   22.4717 H   0  0  0  0  0  0
  -24.0031   -7.4595   22.7428 H   0  0  0  0  0  0
  -21.0791   -8.8821   19.9019 H   0  0  0  0  0  0
  -22.3678  -10.9704   19.6217 H   0  0  0  0  0  0
  -21.2031   -7.6146   23.9742 H   0  0  0  0  0  0
  -21.1462   -6.0511   25.9100 H   0  0  0  0  0  0
  -22.0602   -2.7608   23.2868 H   0  0  0  0  0  0
  -22.4098  -11.9929   22.4848 H   0  0  0  0  0  0
  -21.1134  -13.1337   22.2687 H   0  0  0  0  0  0
  -24.6503  -15.8306   20.5155 H   0  0  0  0  0  0
  -26.2644  -15.6293   20.0517 H   0  0  0  0  0  0
  -26.7106  -32.5563   23.1174 H   0  0  0  0  0  0
  -25.0076  -33.9797   25.0511 H   0  0  0  0  0  0
  -22.6880  -31.3078   21.4076 H   0  0  0  0  0  0
  -23.3747  -35.9649   23.3312 H   0  0  0  0  0  0
  -24.3577  -36.8909   22.2049 H   0  0  0  0  0  0
  -23.7220  -37.6527   23.6629 H   0  0  0  0  0  0
  -26.0321  -31.6018   20.5890 H   0  0  0  0  0  0
  -26.8146  -30.8983   21.9768 H   0  0  0  0  0  0
  -28.1001  -29.1280   21.1665 H   0  0  0  0  0  0
  -26.0903  -25.9725   19.0231 H   0  0  0  0  0  0
  -23.9888  -27.2783   19.0469 H   0  0  0  0  0  0
  -23.7199  -30.5889   19.4016 H   0  0  0  0  0  0
  -22.7347  -29.2352   19.8706 H   0  0  0  0  0  0
  -25.1283  -36.2002   25.0838 H   0  0  0  0  0  0
  -20.9969  -28.3226   24.1436 H   0  0  0  0  0  0
  -20.5667  -26.2270   23.3601 H   0  0  0  0  0  0
  -21.6636  -26.7439   22.1216 H   0  0  0  0  0  0
  -19.6902  -25.6301   21.1220 H   0  0  0  0  0  0
  -19.6683  -27.3209   20.6755 H   0  0  0  0  0  0
  -17.4199  -26.6682   21.4016 H   0  0  0  0  0  0
  -18.0322  -26.0048   22.9004 H   0  0  0  0  0  0
  -19.7927  -30.7256   24.2287 H   0  0  0  0  0  0
  -17.5008  -31.6265   24.5167 H   0  0  0  0  0  0
  -15.5342  -30.2996   23.7634 H   0  0  0  0  0  0
  -15.8663  -28.0827   22.7048 H   0  0  0  0  0  0
  -24.5934  -30.7016   25.7803 H   0  0  0  0  0  0
  -24.8902  -32.2852   26.4896 H   0  0  0  0  0  0
  -25.8106  -30.8885   27.0230 H   0  0  0  0  0  0
  -26.2827  -29.6823   24.1130 H   0  0  0  0  0  0
  -27.4046  -29.7274   25.4535 H   0  0  0  0  0  0
  -27.8665  -30.4365   23.9236 H   0  0  0  0  0  0
  -27.2691  -33.3594   26.2088 H   0  0  0  0  0  0
  -28.3857  -32.6847   25.0299 H   0  0  0  0  0  0
  -28.0724  -31.8387   26.5372 H   0  0  0  0  0  0
  -28.2617  -38.0095   24.7525 H   0  0  0  0  0  0
  -28.1054  -36.2636   24.6287 H   0  0  0  0  0  0
  -27.2301  -37.1469   25.8870 H   0  0  0  0  0  0
  -20.9267  -29.8754   21.6961 H   0  0  0  0  0  0
  -26.0187  -38.2894   24.1410 H   0  0  0  0  0  0
  -28.2362  -21.7380   23.3342 H   0  0  0  0  0  0
  -27.3987  -20.4376   22.5450 H   0  0  0  0  0  0
  -28.3005  -21.6594   19.0424 H   0  0  0  0  0  0
  -29.8144  -21.7115   19.9077 H   0  0  0  0  0  0
  -29.6889  -19.7445   23.3522 H   0  0  0  0  0  0
  -30.3896  -20.9387   22.3076 H   0  0  0  0  0  0
  -29.2387  -19.3718   19.1500 H   0  0  0  0  0  0
  -27.7869  -19.4402   20.1177 H   0  0  0  0  0  0
  -26.9933  -22.0308   20.9814 H   0  0  0  0  0  0
  -31.2526  -17.0928   20.9523 H   0  0  0  0  0  0
  -30.0454  -17.0784   19.6845 H   0  0  0  0  0  0
  -29.5617  -17.6940   22.6365 H   0  0  0  0  0  0
  -28.2707  -17.6522   21.4766 H   0  0  0  0  0  0
  -29.5746  -25.6460   21.3228 H   0  0  0  0  0  0
  -27.9902  -25.9686   21.9734 H   0  0  0  0  0  0
  -28.4563  -24.1359   19.5513 H   0  0  0  0  0  0
  -26.9786  -24.2807   20.4943 H   0  0  0  0  0  0
  -28.9959  -15.2278   21.3471 H   0  0  0  0  0  0
  -30.5641  -19.3350   20.9748 H   0  0  0  0  0  0
  1 25  1  0  0  0
  1 30  2  0  0  0
  1 80  1  0  0  0
  2  3  1  0  0  0
  2 25  1  0  0  0
  2 83  1  0  0  0
  2 84  1  0  0  0
  3  4  1  0  0  0
  3 85  1  0  0  0
  3 86  1  0  0  0
  4  5  1  0  0  0
  4 87  1  0  0  0
  4 88  1  0  0  0
  5  6  1  0  0  0
  5 26  1  0  0  0
  5 89  1  0  0  0
  6 25  1  0  0  0
  6 90  1  0  0  0
  6 91  1  0  0  0
  7  8  2  0  0  0
  7 26  1  0  0  0
  7 29  1  0  0  0
  8  9  1  0  0  0
  8 22  1  0  0  0
  9 10  1  0  0  0
  9 27  2  0  0  0
 10 11  2  0  0  0
 10 15  1  0  0  0
 11 12  1  0  0  0
 11 92  1  0  0  0
 12 13  2  0  0  0
 12 93  1  0  0  0
 13 14  1  0  0  0
 13 31  1  0  0  0
 14 15  2  0  0  0
 14 94  1  0  0  0
 15 95  1  0  0  0
 16 17  2  0  0  0
 16 21  1  0  0  0
 16 31  1  0  0  0
 17 18  1  0  0  0
 17 96  1  0  0  0
 18 19  2  0  0  0
 18 97  1  0  0  0
 19 20  1  0  0  0
 19 24  1  0  0  0
 20 21  2  0  0  0
 20 98  1  0  0  0
 21 23  1  0  0  0
 22 28  1  0  0  0
 22 32  2  0  0  0
 26 27  1  0  0  0
 28 99  1  0  0  0
 28100  1  0  0  0
 29101  1  0  0  0
 29102  1  0  0  0
 33 34  1  0  0  0
 33 66  1  0  0  0
 33 70  2  0  0  0
 34 36  1  0  0  0
 34 59  1  0  0  0
 34103  1  0  0  0
 35 44  2  0  0  0
 35 45  1  0  0  0
 35 68  1  0  0  0
 36 56  1  0  0  0
 36104  1  0  0  0
 37 39  1  0  0  0
 37 47  1  0  0  0
 37 66  1  0  0  0
 37105  1  0  0  0
 38 43  2  0  0  0
 38 46  1  0  0  0
 38 47  1  0  0  0
 39 64  1  0  0  0
 39 67  2  0  0  0
 40 52  1  0  0  0
 40 53  2  0  0  0
 40 58  1  0  0  0
 41106  1  0  0  0
 41107  1  0  0  0
 41108  1  0  0  0
 41 48  1  0  0  0
 42 43  1  0  0  0
 42 66  1  0  0  0
 42109  1  0  0  0
 42110  1  0  0  0
 43 44  1  0  0  0
 44111  1  0  0  0
 45 46  2  0  0  0
 45112  1  0  0  0
 46113  1  0  0  0
 47114  1  0  0  0
 47115  1  0  0  0
 48 56  1  0  0  0
 48 65  1  0  0  0
 48116  1  0  0  0
 49 50  1  0  0  0
 49 53  1  0  0  0
 49 64  1  0  0  0
 49117  1  0  0  0
 50 51  1  0  0  0
 50118  1  0  0  0
 50119  1  0  0  0
 51 52  1  0  0  0
 51120  1  0  0  0
 51121  1  0  0  0
 52122  1  0  0  0
 52123  1  0  0  0
 53 54  1  0  0  0
 54 55  2  0  0  0
 54124  1  0  0  0
 55 57  1  0  0  0
 55125  1  0  0  0
 56 69  2  0  0  0
 57 58  2  0  0  0
 57126  1  0  0  0
 58127  1  0  0  0
 59 60  1  0  0  0
 59 61  1  0  0  0
 59 62  1  0  0  0
 60128  1  0  0  0
 60129  1  0  0  0
 60130  1  0  0  0
 61131  1  0  0  0
 61132  1  0  0  0
 61133  1  0  0  0
 62134  1  0  0  0
 62135  1  0  0  0
 62136  1  0  0  0
 63 65  1  0  0  0
 63137  1  0  0  0
 63138  1  0  0  0
 63139  1  0  0  0
 64140  1  0  0  0
 65141  1  0  0  0
 68 78  1  0  0  0
 71 73  1  0  0  0
 71 75  1  0  0  0
 71142  1  0  0  0
 71143  1  0  0  0
 72 74  1  0  0  0
 72 75  1  0  0  0
 72144  1  0  0  0
 72145  1  0  0  0
 73 81  1  0  0  0
 73146  1  0  0  0
 73147  1  0  0  0
 74 81  1  0  0  0
 74148  1  0  0  0
 74149  1  0  0  0
 75 82  1  0  0  0
 75150  1  0  0  0
 76 77  1  0  0  0
 76 80  1  0  0  0
 76151  1  0  0  0
 76152  1  0  0  0
 77153  1  0  0  0
 77154  1  0  0  0
 77 81  1  0  0  0
 78 79  1  0  0  0
 78155  1  0  0  0
 78156  1  0  0  0
 79 82  1  0  0  0
 79157  1  0  0  0
 79158  1  0  0  0
 80159  1  0  0  0
 81160  1  0  0  0
M  CHG  1  81   1
M  ISO  4   1 100  68 101  78 101  80 100
M  END
> <chiral flag>
0

> <version>
0

> <s_m_source_file>
/data/baiqing/PycharmProjects/Reinvent-master-3.2/result/LINK_invent/BTK/process_docking_weight1_custom_sum_contain_oxygen_bond_distance_aromatic_linkinvent_7_9_3/rearranged_h_0127.sdf

> <i_m_source_file_index>
82

> <r_mmod_Potential_Energy-OPLS-2005>
-167.110702514648

> <r_mmod_Stretch_Energy-OPLS-2005>
36.2215538024902

> <r_mmod_Bend_Energy-OPLS-2005>
92.8140258789062

> <r_mmod_Torsional_Energy-OPLS-2005>
284.488220214844

> <r_mmod_Improper_Torsional_Energy-OPLS-2005>
5.62655115127563

> <r_mmod_Van_der_Waal_Energy-OPLS-2005>
141.904266357422

> <r_mmod_Electrostatic_Energy-OPLS-2005>
-275.725982666016

> <r_mmod_Solvation_Energy-OPLS-2005>
-463.328002929688

> <b_mmod_Minimization_Converged-OPLS-2005>
0

> <r_mmod_RMS_Derivative-OPLS-2005>
2.02657985687256

$$$$
82
                    3D
 Structure written by MMmdl.
172181  0  0  1  0            999 V2000
  -30.5258  -14.6508   20.3422 C   0  0  0  0  0  0
  -30.4222  -12.3735   19.4501 C   0  0  0  0  0  0
  -29.5024  -12.4716   18.2171 C   0  0  0  0  0  0
  -28.0140  -12.3377   18.6062 C   0  0  0  0  0  0
  -27.6212  -13.1925   19.8442 C   0  0  2  0  0  0
  -28.6703  -13.1032   20.9799 C   0  0  0  0  0  0
  -25.2275  -13.7817   20.5565 C   0  0  0  0  0  0
  -24.1655  -13.0175   20.9466 C   0  0  0  0  0  0
  -24.6269  -11.6728   20.8918 C   0  0  0  0  0  0
  -23.8958  -10.4144   21.0449 C   0  0  0  0  0  0
  -24.3546   -9.4133   21.9256 C   0  0  0  0  0  0
  -23.6248   -8.2171   22.0794 C   0  0  0  0  0  0
  -22.4260   -8.0211   21.3513 C   0  0  0  0  0  0
  -21.9834   -9.0166   20.4665 C   0  0  0  0  0  0
  -22.7125  -10.2071   20.3093 C   0  0  0  0  0  0
  -21.6858   -6.0728   22.5265 C   0  0  0  0  0  0
  -21.4007   -6.5635   23.8190 C   0  0  0  0  0  0
  -21.3645   -5.6796   24.9162 C   0  0  0  0  0  0
  -21.6049   -4.3049   24.7223 C   0  0  0  0  0  0
  -21.8822   -3.8142   23.4334 C   0  0  0  0  0  0
  -21.9178   -4.6960   22.3393 C   0  0  0  0  0  0
  -22.7705  -13.5094   21.2013 C   0  0  0  0  0  0
  -22.1687   -4.2124   21.0988 F   0  0  0  0  0  0
  -21.5604   -3.4551   25.7752 F   0  0  0  0  0  0
  -29.9605  -13.4170   20.3730 N   0  0  0  0  0  0
  -26.2763  -12.9112   20.3250 N   0  0  0  0  0  0
  -25.9166  -11.6338   20.5865 N   0  0  0  0  0  0
  -22.0172  -12.8181   22.0524 N   0  0  0  0  0  0
  -25.3357  -15.1239   20.3134 N   0  0  0  0  0  0
  -31.7310  -14.7978   20.1550 O   0  0  0  0  0  0
  -21.6603   -6.8837   21.4222 O   0  0  0  0  0  0
  -22.3389  -14.5211   20.6597 O   0  0  0  0  0  0
  -24.6249  -31.8903   23.2129 C   0  0  0  0  0  0
  -25.9177  -32.4836   23.8443 C   0  0  1  0  0  0
  -27.1858  -27.4137   20.0225 C   0  0  0  0  0  0
  -25.5985  -33.8617   24.2380 N   0  0  0  0  0  0
  -23.4095  -30.5297   21.5543 C   0  0  2  0  0  0
  -24.8397  -28.9976   20.1062 C   0  0  0  0  0  0
  -22.7470  -29.5168   22.5157 C   0  0  0  0  0  0
  -18.0538  -28.1531   22.8235 C   0  0  0  0  0  0
  -24.1497  -36.7303   23.2635 C   0  0  0  0  0  0
  -25.9470  -30.7919   21.4205 C   0  0  0  0  0  0
  -26.0003  -29.4310   20.7560 C   0  0  0  0  0  0
  -27.1666  -28.6254   20.7673 C   0  0  0  0  0  0
  -26.0714  -27.1592   19.2080 C   0  0  0  0  0  0
  -24.8626  -27.8464   19.3298 C   0  0  0  0  0  0
  -23.6026  -29.8562   20.1667 C   0  0  0  0  0  0
  -25.4084  -36.3078   24.0398 C   0  0  1  0  0  0
  -20.5828  -28.4452   23.1399 C   0  0  2  0  0  0
  -20.7288  -27.0251   22.5466 C   0  0  0  0  0  0
  -19.6669  -26.7695   21.4828 C   0  0  0  0  0  0
  -18.2676  -26.8350   22.1004 C   0  0  0  0  0  0
  -19.1390  -28.9161   23.3143 C   0  0  0  0  0  0
  -18.8739  -30.1482   23.9524 C   0  0  0  0  0  0
  -17.5469  -30.6067   24.1191 C   0  0  0  0  0  0
  -25.9079  -34.9442   23.5144 C   0  0  0  0  0  0
  -16.4812  -29.8403   23.6523 C   0  0  0  0  0  0
  -16.7324  -28.6214   23.0008 C   0  0  0  0  0  0
  -26.4524  -31.6633   25.0826 C   0  0  0  0  0  0
  -25.3777  -31.3876   26.1563 C   0  0  0  0  0  0
  -27.0444  -30.3068   24.6424 C   0  0  0  0  0  0
  -27.6087  -32.4311   25.7617 C   0  0  0  0  0  0
  -27.5570  -37.1811   24.8475 C   0  0  0  0  0  0
  -21.4111  -29.4077   22.4129 N   0  0  0  0  0  0
  -26.4256  -37.3794   23.9476 N   0  0  0  0  0  0
  -24.6701  -31.0973   22.1033 N   0  0  0  0  0  0
  -23.4102  -28.8631   23.3198 O   0  0  0  0  0  0
  -28.2030  -26.4812   20.0769 O   0  0  0  0  0  0
  -26.5531  -34.8862   22.4657 O   0  0  0  0  0  0
  -23.5372  -32.1814   23.7318 O   0  0  0  0  0  0
  -24.9748  -23.0580   19.1685 C   0  0  0  0  0  0
  -26.9036  -21.6914   18.8071 C   0  0  0  0  0  0
  -25.8123  -24.1655   19.3717 C   0  0  0  0  0  0
  -27.7457  -22.8254   19.0054 C   0  0  0  0  0  0
  -25.4906  -21.7821   18.8480 C   0  0  0  0  0  0
  -27.2323  -24.1171   19.2392 C   0  0  0  0  0  0
  -23.5241  -20.3165   20.8771 C   0  0  0  0  0  0
  -24.8612  -19.5997   21.1312 C   0  0  0  0  0  0
  -25.2085  -19.1925   18.5894 C   0  0  0  0  0  0
  -24.5171  -20.5933   18.5222 C   0  0  2  0  0  0
  -23.2168  -20.4525   19.3810 C   0  0  2  0  0  0
  -25.2411  -18.5600   20.0284 C   0  0  1  0  0  0
  -21.9852  -21.3861   19.1389 C   0  0  0  0  0  0
  -28.2115  -25.3488   19.1429 C   0  0  0  0  0  0
  -28.5529  -16.3564   20.5251 C   0  0  0  0  0  0
  -27.4884  -17.1181   19.6006 C   0  0  0  0  0  0
  -29.6998  -15.6430   19.8835 N   0  0  0  0  0  0
  -26.4161  -17.7389   20.4796 N   0  3  0  0  0  0
  -31.4601  -12.5152   19.1295 H   0  0  0  0  0  0
  -30.3525  -11.3916   19.9345 H   0  0  0  0  0  0
  -29.7794  -11.7165   17.4796 H   0  0  0  0  0  0
  -29.6706  -13.4399   17.7407 H   0  0  0  0  0  0
  -27.8184  -11.2816   18.8061 H   0  0  0  0  0  0
  -27.3914  -12.6341   17.7626 H   0  0  0  0  0  0
  -27.5880  -14.2116   19.4778 H   0  0  0  0  0  0
  -28.6907  -12.1123   21.4411 H   0  0  0  0  0  0
  -28.4382  -13.7951   21.7944 H   0  0  0  0  0  0
  -25.2680   -9.5645   22.4837 H   0  0  0  0  0  0
  -23.9939   -7.4596   22.7536 H   0  0  0  0  0  0
  -21.0747   -8.8643   19.9038 H   0  0  0  0  0  0
  -22.3539  -10.9609   19.6210 H   0  0  0  0  0  0
  -21.2047   -7.6152   23.9666 H   0  0  0  0  0  0
  -21.1467   -6.0563   25.9046 H   0  0  0  0  0  0
  -22.0627   -2.7602   23.2838 H   0  0  0  0  0  0
  -22.3608  -11.9813   22.4947 H   0  0  0  0  0  0
  -21.0806  -13.1403   22.2557 H   0  0  0  0  0  0
  -24.3815  -15.4120   20.1037 H   0  0  0  0  0  0
  -25.8863  -15.1409   19.4631 H   0  0  0  0  0  0
  -26.7262  -32.5620   23.1169 H   0  0  0  0  0  0
  -25.0292  -33.9927   25.0579 H   0  0  0  0  0  0
  -22.7091  -31.3547   21.3913 H   0  0  0  0  0  0
  -23.3725  -35.9674   23.3272 H   0  0  0  0  0  0
  -24.3686  -36.8908   22.2072 H   0  0  0  0  0  0
  -23.7295  -37.6537   23.6623 H   0  0  0  0  0  0
  -26.1228  -31.5342   20.6448 H   0  0  0  0  0  0
  -26.8124  -30.8218   22.0763 H   0  0  0  0  0  0
  -28.0367  -28.9498   21.3228 H   0  0  0  0  0  0
  -26.0874  -26.4324   18.4311 H   0  0  0  0  0  0
  -24.0256  -27.5736   18.7070 H   0  0  0  0  0  0
  -23.7530  -30.6184   19.4009 H   0  0  0  0  0  0
  -22.7281  -29.2798   19.8567 H   0  0  0  0  0  0
  -25.1227  -36.1925   25.0907 H   0  0  0  0  0  0
  -20.9482  -28.3763   24.1624 H   0  0  0  0  0  0
  -20.5762  -26.3636   23.3826 H   0  0  0  0  0  0
  -21.7182  -26.8159   22.1482 H   0  0  0  0  0  0
  -19.8594  -25.8392   20.9707 H   0  0  0  0  0  0
  -19.7477  -27.5335   20.7030 H   0  0  0  0  0  0
  -17.5169  -26.7305   21.3220 H   0  0  0  0  0  0
  -18.1399  -26.0143   22.8118 H   0  0  0  0  0  0
  -19.6657  -30.7639   24.3407 H   0  0  0  0  0  0
  -17.3514  -31.5500   24.6026 H   0  0  0  0  0  0
  -15.4676  -30.1875   23.7643 H   0  0  0  0  0  0
  -15.9380  -28.0335   22.5650 H   0  0  0  0  0  0
  -24.5902  -30.7218   25.8020 H   0  0  0  0  0  0
  -24.8930  -32.3059   26.4878 H   0  0  0  0  0  0
  -25.8175  -30.9282   27.0430 H   0  0  0  0  0  0
  -26.3136  -29.6719   24.1404 H   0  0  0  0  0  0
  -27.4130  -29.7470   25.5036 H   0  0  0  0  0  0
  -27.8967  -30.4407   23.9769 H   0  0  0  0  0  0
  -27.2775  -33.3608   26.2250 H   0  0  0  0  0  0
  -28.3877  -32.6925   25.0460 H   0  0  0  0  0  0
  -28.0768  -31.8371   26.5486 H   0  0  0  0  0  0
  -28.2536  -38.0120   24.7426 H   0  0  0  0  0  0
  -28.1106  -36.2667   24.6324 H   0  0  0  0  0  0
  -27.2314  -37.1456   25.8874 H   0  0  0  0  0  0
  -20.9376  -30.0661   21.8283 H   0  0  0  0  0  0
  -26.0122  -38.2892   24.1387 H   0  0  0  0  0  0
  -23.9270  -23.2594   19.1628 H   0  0  0  0  0  0
  -27.3886  -20.7602   18.5415 H   0  0  0  0  0  0
  -25.2565  -25.0360   19.6129 H   0  0  0  0  0  0
  -28.8041  -22.6797   18.8508 H   0  0  0  0  0  0
  -23.4799  -21.2857   21.4071 H   0  0  0  0  0  0
  -22.7288  -19.6963   21.3203 H   0  0  0  0  0  0
  -24.7941  -19.0861   22.1003 H   0  0  0  0  0  0
  -25.6607  -20.3264   21.2765 H   0  0  0  0  0  0
  -26.1260  -19.1809   18.0166 H   0  0  0  0  0  0
  -24.5862  -18.4991   18.0161 H   0  0  0  0  0  0
  -24.1588  -20.7011   17.4914 H   0  0  0  0  0  0
  -22.8115  -19.4847   19.0478 H   0  0  0  0  0  0
  -24.4072  -17.8588   20.0390 H   0  0  0  0  0  0
  -22.2044  -22.3069   18.5734 H   0  0  0  0  0  0
  -21.4815  -21.6622   20.0676 H   0  0  0  0  0  0
  -21.2402  -20.8209   18.5879 H   0  0  0  0  0  0
  -28.1559  -25.7375   18.1235 H   0  0  0  0  0  0
  -29.2203  -24.9147   19.2192 H   0  0  0  0  0  0
  -29.0137  -17.1002   21.1679 H   0  0  0  0  0  0
  -27.9965  -15.7018   21.2060 H   0  0  0  0  0  0
  -27.0252  -16.4738   18.8452 H   0  0  0  0  0  0
  -27.9810  -17.8865   18.9995 H   0  0  0  0  0  0
  -30.2405  -16.3050   19.3496 H   0  0  0  0  0  0
  -26.0263  -16.9539   21.0106 H   0  0  0  0  0  0
  -26.8771  -18.3196   21.1431 H   0  0  0  0  0  0
  1 25  1  0  0  0
  1 30  2  0  0  0
  1 87  1  0  0  0
  2  3  1  0  0  0
  2 25  1  0  0  0
  2 89  1  0  0  0
  2 90  1  0  0  0
  3  4  1  0  0  0
  3 91  1  0  0  0
  3 92  1  0  0  0
  4  5  1  0  0  0
  4 93  1  0  0  0
  4 94  1  0  0  0
  5  6  1  0  0  0
  5 26  1  0  0  0
  5 95  1  0  0  0
  6 25  1  0  0  0
  6 96  1  0  0  0
  6 97  1  0  0  0
  7  8  2  0  0  0
  7 26  1  0  0  0
  7 29  1  0  0  0
  8  9  1  0  0  0
  8 22  1  0  0  0
  9 10  1  0  0  0
  9 27  2  0  0  0
 10 11  2  0  0  0
 10 15  1  0  0  0
 11 12  1  0  0  0
 11 98  1  0  0  0
 12 13  2  0  0  0
 12 99  1  0  0  0
 13 14  1  0  0  0
 13 31  1  0  0  0
 14 15  2  0  0  0
 14100  1  0  0  0
 15101  1  0  0  0
 16 17  2  0  0  0
 16 21  1  0  0  0
 16 31  1  0  0  0
 17 18  1  0  0  0
 17102  1  0  0  0
 18 19  2  0  0  0
 18103  1  0  0  0
 19 20  1  0  0  0
 19 24  1  0  0  0
 20 21  2  0  0  0
 20104  1  0  0  0
 21 23  1  0  0  0
 22 28  1  0  0  0
 22 32  2  0  0  0
 26 27  1  0  0  0
 28105  1  0  0  0
 28106  1  0  0  0
 29107  1  0  0  0
 29108  1  0  0  0
 33 34  1  0  0  0
 33 66  1  0  0  0
 33 70  2  0  0  0
 34 36  1  0  0  0
 34 59  1  0  0  0
 34109  1  0  0  0
 35 44  2  0  0  0
 35 45  1  0  0  0
 35 68  1  0  0  0
 36 56  1  0  0  0
 36110  1  0  0  0
 37 39  1  0  0  0
 37 47  1  0  0  0
 37 66  1  0  0  0
 37111  1  0  0  0
 38 43  2  0  0  0
 38 46  1  0  0  0
 38 47  1  0  0  0
 39 64  1  0  0  0
 39 67  2  0  0  0
 40 52  1  0  0  0
 40 53  2  0  0  0
 40 58  1  0  0  0
 41112  1  0  0  0
 41113  1  0  0  0
 41114  1  0  0  0
 41 48  1  0  0  0
 42 43  1  0  0  0
 42 66  1  0  0  0
 42115  1  0  0  0
 42116  1  0  0  0
 43 44  1  0  0  0
 44117  1  0  0  0
 45 46  2  0  0  0
 45118  1  0  0  0
 46119  1  0  0  0
 47120  1  0  0  0
 47121  1  0  0  0
 48 56  1  0  0  0
 48 65  1  0  0  0
 48122  1  0  0  0
 49 50  1  0  0  0
 49 53  1  0  0  0
 49 64  1  0  0  0
 49123  1  0  0  0
 50 51  1  0  0  0
 50124  1  0  0  0
 50125  1  0  0  0
 51 52  1  0  0  0
 51126  1  0  0  0
 51127  1  0  0  0
 52128  1  0  0  0
 52129  1  0  0  0
 53 54  1  0  0  0
 54 55  2  0  0  0
 54130  1  0  0  0
 55 57  1  0  0  0
 55131  1  0  0  0
 56 69  2  0  0  0
 57 58  2  0  0  0
 57132  1  0  0  0
 58133  1  0  0  0
 59 60  1  0  0  0
 59 61  1  0  0  0
 59 62  1  0  0  0
 60134  1  0  0  0
 60135  1  0  0  0
 60136  1  0  0  0
 61137  1  0  0  0
 61138  1  0  0  0
 61139  1  0  0  0
 62140  1  0  0  0
 62141  1  0  0  0
 62142  1  0  0  0
 63 65  1  0  0  0
 63143  1  0  0  0
 63144  1  0  0  0
 63145  1  0  0  0
 64146  1  0  0  0
 65147  1  0  0  0
 68 84  1  0  0  0
 71 73  2  0  0  0
 71 75  1  0  0  0
 71148  1  0  0  0
 72 74  1  0  0  0
 72 75  2  0  0  0
 72149  1  0  0  0
 73 76  1  0  0  0
 73150  1  0  0  0
 74 76  2  0  0  0
 74151  1  0  0  0
 75 80  1  0  0  0
 76 84  1  0  0  0
 77 78  1  0  0  0
 77 81  1  0  0  0
 77152  1  0  0  0
 77153  1  0  0  0
 78 82  1  0  0  0
 78154  1  0  0  0
 78155  1  0  0  0
 79 80  1  0  0  0
 79 82  1  0  0  0
 79156  1  0  0  0
 79157  1  0  0  0
 80 81  1  0  0  0
 80158  1  0  0  0
 81 83  1  0  0  0
 81159  1  0  0  0
 82 88  1  0  0  0
 82160  1  0  0  0
 83161  1  0  0  0
 83162  1  0  0  0
 83163  1  0  0  0
 84164  1  0  0  0
 84165  1  0  0  0
 85 86  1  0  0  0
 85 87  1  0  0  0
 85166  1  0  0  0
 85167  1  0  0  0
 86 88  1  0  0  0
 86168  1  0  0  0
 86169  1  0  0  0
 87170  1  0  0  0
 88171  1  0  0  0
 88172  1  0  0  0
M  CHG  1  88   1
M  ISO  4   1 100  68 101  84 101  87 100
M  END
> <chiral flag>
0

> <version>
0

> <s_m_source_file>
/data/baiqing/PycharmProjects/Reinvent-master-3.2/result/LINK_invent/BTK/process_docking_weight1_custom_sum_contain_oxygen_bond_distance_aromatic_linkinvent_7_9_3/rearranged_h_0127.sdf

> <i_m_source_file_index>
83

> <r_mmod_Potential_Energy-OPLS-2005>
227.686294555664

> <r_mmod_Stretch_Energy-OPLS-2005>
75.0572967529297

> <r_mmod_Bend_Energy-OPLS-2005>
235.984497070312

> <r_mmod_Torsional_Energy-OPLS-2005>
373.379425048828

> <r_mmod_Improper_Torsional_Energy-OPLS-2005>
35.2911911010742

> <r_mmod_Van_der_Waal_Energy-OPLS-2005>
209.101181030273

> <r_mmod_Electrostatic_Energy-OPLS-2005>
-343.350830078125

> <r_mmod_Solvation_Energy-OPLS-2005>
-454.0654296875

> <b_mmod_Minimization_Converged-OPLS-2005>
0

> <r_mmod_RMS_Derivative-OPLS-2005>
30.5975971221924

$$$$
83
                    3D
 Structure written by MMmdl.
175184  0  0  1  0            999 V2000
  -30.7938  -14.3478   20.6981 C   0  0  0  0  0  0
  -30.4100  -12.2867   19.3916 C   0  0  0  0  0  0
  -29.4794  -12.5325   18.1916 C   0  0  0  0  0  0
  -28.0053  -12.3838   18.6109 C   0  0  0  0  0  0
  -27.6657  -13.2067   19.8813 C   0  0  2  0  0  0
  -28.7092  -12.9663   20.9974 C   0  0  0  0  0  0
  -25.2592  -13.8168   20.5687 C   0  0  0  0  0  0
  -24.1837  -13.0443   20.9177 C   0  0  0  0  0  0
  -24.6394  -11.6913   20.8733 C   0  0  0  0  0  0
  -23.9056  -10.4296   21.0394 C   0  0  0  0  0  0
  -24.3606   -9.4214   21.9179 C   0  0  0  0  0  0
  -23.6286   -8.2244   22.0751 C   0  0  0  0  0  0
  -22.4273   -8.0276   21.3539 C   0  0  0  0  0  0
  -21.9902   -9.0245   20.4639 C   0  0  0  0  0  0
  -22.7227  -10.2129   20.3047 C   0  0  0  0  0  0
  -21.6850   -6.0735   22.5279 C   0  0  0  0  0  0
  -21.4010   -6.5634   23.8213 C   0  0  0  0  0  0
  -21.3660   -5.6790   24.9179 C   0  0  0  0  0  0
  -21.6048   -4.3057   24.7226 C   0  0  0  0  0  0
  -21.8815   -3.8149   23.4350 C   0  0  0  0  0  0
  -21.9187   -4.6962   22.3403 C   0  0  0  0  0  0
  -22.7853  -13.5235   21.1842 C   0  0  0  0  0  0
  -22.1659   -4.2154   21.0982 F   0  0  0  0  0  0
  -21.5629   -3.4539   25.7738 F   0  0  0  0  0  0
  -30.0508  -13.2378   20.4529 N   0  0  0  0  0  0
  -26.3045  -12.9343   20.3412 N   0  0  0  0  0  0
  -25.9326  -11.6499   20.5785 N   0  0  0  0  0  0
  -22.0486  -12.8216   22.0390 N   0  0  0  0  0  0
  -25.4309  -15.1888   20.4078 N   0  0  0  0  0  0
  -31.8021  -14.6189   20.0388 O   0  0  0  0  0  0
  -21.6633   -6.8876   21.4246 O   0  0  0  0  0  0
  -22.3545  -14.5553   20.6704 O   0  0  0  0  0  0
  -24.6111  -31.8710   23.2141 C   0  0  0  0  0  0
  -25.9009  -32.4850   23.8423 C   0  0  1  0  0  0
  -27.2252  -27.4717   20.0752 C   0  0  0  0  0  0
  -25.5876  -33.8650   24.2342 N   0  0  0  0  0  0
  -23.3961  -30.4987   21.5542 C   0  0  2  0  0  0
  -24.8424  -28.9805   20.1051 C   0  0  0  0  0  0
  -22.7398  -29.4663   22.4994 C   0  0  0  0  0  0
  -18.0275  -28.1364   22.8490 C   0  0  0  0  0  0
  -24.1471  -36.7322   23.2642 C   0  0  0  0  0  0
  -25.9247  -30.8460   21.3665 C   0  0  0  0  0  0
  -26.0018  -29.4862   20.7080 C   0  0  0  0  0  0
  -27.1990  -28.7365   20.6983 C   0  0  0  0  0  0
  -26.0543  -26.9863   19.4482 C   0  0  0  0  0  0
  -24.8612  -27.7266   19.4730 C   0  0  0  0  0  0
  -23.6014  -29.8416   20.1645 C   0  0  0  0  0  0
  -25.4096  -36.3129   24.0340 C   0  0  1  0  0  0
  -20.5864  -28.3640   23.1323 C   0  0  2  0  0  0
  -20.6758  -26.9374   22.5434 C   0  0  0  0  0  0
  -19.5744  -26.6363   21.5218 C   0  0  0  0  0  0
  -18.1914  -26.7919   22.1607 C   0  0  0  0  0  0
  -19.1525  -28.8818   23.2908 C   0  0  0  0  0  0
  -18.9466  -30.1434   23.8908 C   0  0  0  0  0  0
  -17.6470  -30.6569   24.0578 C   0  0  0  0  0  0
  -25.9023  -34.9493   23.5134 C   0  0  0  0  0  0
  -16.5357  -29.9078   23.6337 C   0  0  0  0  0  0
  -16.7267  -28.6502   23.0334 C   0  0  0  0  0  0
  -26.4464  -31.6630   25.0746 C   0  0  0  0  0  0
  -25.3749  -31.3732   26.1515 C   0  0  0  0  0  0
  -27.0318  -30.3083   24.6107 C   0  0  0  0  0  0
  -27.6022  -32.4389   25.7494 C   0  0  0  0  0  0
  -27.5579  -37.1803   24.8458 C   0  0  0  0  0  0
  -21.4128  -29.3018   22.3738 N   0  0  0  0  0  0
  -26.4278  -37.3817   23.9425 N   0  0  0  0  0  0
  -24.6618  -31.0847   22.1029 N   0  0  0  0  0  0
  -23.4209  -28.8210   23.3008 O   0  0  0  0  0  0
  -28.3485  -26.6780   20.1306 O   0  0  0  0  0  0
  -26.5600  -34.8940   22.4708 O   0  0  0  0  0  0
  -23.5304  -32.1438   23.7554 O   0  0  0  0  0  0
  -27.7907  -23.0359   19.9508 C   0  0  0  0  0  0
  -28.2939  -24.3146   19.6408 C   0  0  0  0  0  0
  -27.4786  -25.1406   21.7786 C   0  0  0  0  0  0
  -27.0799  -22.8113   21.1524 C   0  0  0  0  0  0
  -26.9446  -23.8722   22.0851 C   0  0  0  0  0  0
  -28.0977  -25.3860   20.5337 C   0  0  0  0  0  0
  -31.7564  -17.9421   24.0554 C   0  0  0  0  0  0
  -32.1169  -16.8065   25.0403 C   0  0  0  0  0  0
  -32.7416  -15.7291   22.8964 C   0  0  0  0  0  0
  -31.4870  -16.3511   22.2058 C   0  0  1  0  0  0
  -26.1728  -23.7148   23.3866 C   0  0  0  0  0  0
  -26.4039  -21.4591   21.3693 C   0  0  0  0  0  0
  -30.3988  -15.2997   21.8422 C   0  0  0  0  0  0
  -30.3495  -18.4997   22.1647 C   0  0  0  0  0  0
  -27.1227  -20.5354   22.3670 C   0  0  0  0  0  0
  -29.1519  -19.2075   22.8269 C   0  0  0  0  0  0
  -30.8566  -17.4182   23.0183 N   0  0  0  0  0  0
  -32.5268  -15.5634   24.3480 N   0  3  0  0  0  0
  -28.4487  -20.0998   21.8843 N   0  3  0  0  0  0
  -31.4543  -12.3710   19.0854 H   0  0  0  0  0  0
  -30.2944  -11.2665   19.7613 H   0  0  0  0  0  0
  -29.7127  -11.8391   17.3826 H   0  0  0  0  0  0
  -29.6482  -13.5351   17.7953 H   0  0  0  0  0  0
  -27.8132  -11.3247   18.7920 H   0  0  0  0  0  0
  -27.3497  -12.6756   17.7893 H   0  0  0  0  0  0
  -27.7189  -14.2590   19.6023 H   0  0  0  0  0  0
  -28.6655  -11.9314   21.3401 H   0  0  0  0  0  0
  -28.4613  -13.5739   21.8665 H   0  0  0  0  0  0
  -25.2749   -9.5695   22.4756 H   0  0  0  0  0  0
  -23.9998   -7.4637   22.7474 H   0  0  0  0  0  0
  -21.0830   -8.8755   19.8948 H   0  0  0  0  0  0
  -22.3678  -10.9661   19.6147 H   0  0  0  0  0  0
  -21.2004   -7.6143   23.9723 H   0  0  0  0  0  0
  -21.1484   -6.0520   25.9082 H   0  0  0  0  0  0
  -22.0595   -2.7609   23.2846 H   0  0  0  0  0  0
  -22.4084  -11.9862   22.4757 H   0  0  0  0  0  0
  -21.1101  -13.1236   22.2591 H   0  0  0  0  0  0
  -24.6613  -15.8438   20.4982 H   0  0  0  0  0  0
  -26.2871  -15.6243   20.0884 H   0  0  0  0  0  0
  -26.7086  -32.5575   23.1196 H   0  0  0  0  0  0
  -25.0051  -33.9834   25.0499 H   0  0  0  0  0  0
  -22.6816  -31.3143   21.4219 H   0  0  0  0  0  0
  -23.3742  -35.9639   23.3290 H   0  0  0  0  0  0
  -24.3570  -36.8956   22.2059 H   0  0  0  0  0  0
  -23.7203  -37.6510   23.6674 H   0  0  0  0  0  0
  -26.0328  -31.6163   20.6023 H   0  0  0  0  0  0
  -26.8127  -30.8957   21.9835 H   0  0  0  0  0  0
  -28.0899  -29.1116   21.1827 H   0  0  0  0  0  0
  -26.0547  -26.0217   18.9617 H   0  0  0  0  0  0
  -23.9719  -27.3322   19.0012 H   0  0  0  0  0  0
  -23.7056  -30.6229   19.4114 H   0  0  0  0  0  0
  -22.7257  -29.2638   19.8656 H   0  0  0  0  0  0
  -25.1271  -36.1993   25.0831 H   0  0  0  0  0  0
  -20.9957  -28.3207   24.1437 H   0  0  0  0  0  0
  -20.5626  -26.2260   23.3630 H   0  0  0  0  0  0
  -21.6637  -26.7389   22.1253 H   0  0  0  0  0  0
  -19.6902  -25.6269   21.1248 H   0  0  0  0  0  0
  -19.6696  -27.3187   20.6757 H   0  0  0  0  0  0
  -17.4205  -26.6705   21.3987 H   0  0  0  0  0  0
  -18.0277  -26.0028   22.8963 H   0  0  0  0  0  0
  -19.7941  -30.7267   24.2242 H   0  0  0  0  0  0
  -17.5021  -31.6237   24.5191 H   0  0  0  0  0  0
  -15.5362  -30.2994   23.7628 H   0  0  0  0  0  0
  -15.8669  -28.0854   22.6991 H   0  0  0  0  0  0
  -24.5936  -30.7043   25.7903 H   0  0  0  0  0  0
  -24.8926  -32.2883   26.4957 H   0  0  0  0  0  0
  -25.8129  -30.8955   27.0286 H   0  0  0  0  0  0
  -26.2871  -29.6825   24.1179 H   0  0  0  0  0  0
  -27.4131  -29.7340   25.4558 H   0  0  0  0  0  0
  -27.8675  -30.4438   23.9237 H   0  0  0  0  0  0
  -27.2610  -33.3669   26.2096 H   0  0  0  0  0  0
  -28.3796  -32.6998   25.0306 H   0  0  0  0  0  0
  -28.0735  -31.8528   26.5390 H   0  0  0  0  0  0
  -28.2582  -38.0116   24.7544 H   0  0  0  0  0  0
  -28.1092  -36.2652   24.6227 H   0  0  0  0  0  0
  -27.2323  -37.1403   25.8867 H   0  0  0  0  0  0
  -20.9265  -29.8806   21.7031 H   0  0  0  0  0  0
  -26.0165  -38.2886   24.1461 H   0  0  0  0  0  0
  -27.8958  -22.2455   19.2196 H   0  0  0  0  0  0
  -28.7598  -24.4910   18.6820 H   0  0  0  0  0  0
  -27.3220  -25.9660   22.4602 H   0  0  0  0  0  0
  -32.6564  -18.3652   23.6034 H   0  0  0  0  0  0
  -31.2844  -18.7529   24.6129 H   0  0  0  0  0  0
  -31.2650  -16.5783   25.6814 H   0  0  0  0  0  0
  -32.9205  -17.1355   25.6998 H   0  0  0  0  0  0
  -33.6080  -16.3755   22.7424 H   0  0  0  0  0  0
  -33.0146  -14.7693   22.4567 H   0  0  0  0  0  0
  -31.8567  -16.8005   21.2808 H   0  0  0  0  0  0
  -25.9872  -24.6839   23.8529 H   0  0  0  0  0  0
  -26.7284  -23.1093   24.1017 H   0  0  0  0  0  0
  -25.1999  -23.2534   23.2190 H   0  0  0  0  0  0
  -26.2987  -20.9468   20.4117 H   0  0  0  0  0  0
  -25.3796  -21.6212   21.7053 H   0  0  0  0  0  0
  -29.4791  -15.7963   21.5347 H   0  0  0  0  0  0
  -30.1566  -14.7161   22.7301 H   0  0  0  0  0  0
  -31.1406  -19.2080   21.9098 H   0  0  0  0  0  0
  -30.0032  -18.0765   21.2199 H   0  0  0  0  0  0
  -26.5016  -19.6540   22.5319 H   0  0  0  0  0  0
  -27.2270  -21.0220   23.3359 H   0  0  0  0  0  0
  -29.4640  -19.7785   23.7014 H   0  0  0  0  0  0
  -28.4520  -18.4476   23.1786 H   0  0  0  0  0  0
  -31.7875  -14.8950   24.4786 H   0  0  0  0  0  0
  -33.3548  -15.1909   24.7826 H   0  0  0  0  0  0
  -29.0181  -20.9121   21.7055 H   0  0  0  0  0  0
  -28.3228  -19.6088   21.0142 H   0  0  0  0  0  0
  1 25  1  0  0  0
  1 30  2  0  0  0
  1 83  1  0  0  0
  2  3  1  0  0  0
  2 25  1  0  0  0
  2 90  1  0  0  0
  2 91  1  0  0  0
  3  4  1  0  0  0
  3 92  1  0  0  0
  3 93  1  0  0  0
  4  5  1  0  0  0
  4 94  1  0  0  0
  4 95  1  0  0  0
  5  6  1  0  0  0
  5 26  1  0  0  0
  5 96  1  0  0  0
  6 25  1  0  0  0
  6 97  1  0  0  0
  6 98  1  0  0  0
  7  8  2  0  0  0
  7 26  1  0  0  0
  7 29  1  0  0  0
  8  9  1  0  0  0
  8 22  1  0  0  0
  9 10  1  0  0  0
  9 27  2  0  0  0
 10 11  2  0  0  0
 10 15  1  0  0  0
 11 12  1  0  0  0
 11 99  1  0  0  0
 12 13  2  0  0  0
 12100  1  0  0  0
 13 14  1  0  0  0
 13 31  1  0  0  0
 14 15  2  0  0  0
 14101  1  0  0  0
 15102  1  0  0  0
 16 17  2  0  0  0
 16 21  1  0  0  0
 16 31  1  0  0  0
 17 18  1  0  0  0
 17103  1  0  0  0
 18 19  2  0  0  0
 18104  1  0  0  0
 19 20  1  0  0  0
 19 24  1  0  0  0
 20 21  2  0  0  0
 20105  1  0  0  0
 21 23  1  0  0  0
 22 28  1  0  0  0
 22 32  2  0  0  0
 26 27  1  0  0  0
 28106  1  0  0  0
 28107  1  0  0  0
 29108  1  0  0  0
 29109  1  0  0  0
 33 34  1  0  0  0
 33 66  1  0  0  0
 33 70  2  0  0  0
 34 36  1  0  0  0
 34 59  1  0  0  0
 34110  1  0  0  0
 35 44  2  0  0  0
 35 45  1  0  0  0
 35 68  1  0  0  0
 36 56  1  0  0  0
 36111  1  0  0  0
 37 39  1  0  0  0
 37 47  1  0  0  0
 37 66  1  0  0  0
 37112  1  0  0  0
 38 43  2  0  0  0
 38 46  1  0  0  0
 38 47  1  0  0  0
 39 64  1  0  0  0
 39 67  2  0  0  0
 40 52  1  0  0  0
 40 53  2  0  0  0
 40 58  1  0  0  0
 41113  1  0  0  0
 41114  1  0  0  0
 41115  1  0  0  0
 41 48  1  0  0  0
 42 43  1  0  0  0
 42 66  1  0  0  0
 42116  1  0  0  0
 42117  1  0  0  0
 43 44  1  0  0  0
 44118  1  0  0  0
 45 46  2  0  0  0
 45119  1  0  0  0
 46120  1  0  0  0
 47121  1  0  0  0
 47122  1  0  0  0
 48 56  1  0  0  0
 48 65  1  0  0  0
 48123  1  0  0  0
 49 50  1  0  0  0
 49 53  1  0  0  0
 49 64  1  0  0  0
 49124  1  0  0  0
 50 51  1  0  0  0
 50125  1  0  0  0
 50126  1  0  0  0
 51 52  1  0  0  0
 51127  1  0  0  0
 51128  1  0  0  0
 52129  1  0  0  0
 52130  1  0  0  0
 53 54  1  0  0  0
 54 55  2  0  0  0
 54131  1  0  0  0
 55 57  1  0  0  0
 55132  1  0  0  0
 56 69  2  0  0  0
 57 58  2  0  0  0
 57133  1  0  0  0
 58134  1  0  0  0
 59 60  1  0  0  0
 59 61  1  0  0  0
 59 62  1  0  0  0
 60135  1  0  0  0
 60136  1  0  0  0
 60137  1  0  0  0
 61138  1  0  0  0
 61139  1  0  0  0
 61140  1  0  0  0
 62141  1  0  0  0
 62142  1  0  0  0
 62143  1  0  0  0
 63 65  1  0  0  0
 63144  1  0  0  0
 63145  1  0  0  0
 63146  1  0  0  0
 64147  1  0  0  0
 65148  1  0  0  0
 68 76  1  0  0  0
 71 72  2  0  0  0
 71 74  1  0  0  0
 71149  1  0  0  0
 72 76  1  0  0  0
 72150  1  0  0  0
 73 75  1  0  0  0
 73 76  2  0  0  0
 73151  1  0  0  0
 74 75  2  0  0  0
 74 82  1  0  0  0
 75 81  1  0  0  0
 77 78  1  0  0  0
 77 87  1  0  0  0
 77152  1  0  0  0
 77153  1  0  0  0
 78 88  1  0  0  0
 78154  1  0  0  0
 78155  1  0  0  0
 79 80  1  0  0  0
 79 88  1  0  0  0
 79156  1  0  0  0
 79157  1  0  0  0
 80 83  1  0  0  0
 80 87  1  0  0  0
 80158  1  0  0  0
 81159  1  0  0  0
 81160  1  0  0  0
 81161  1  0  0  0
 82 85  1  0  0  0
 82162  1  0  0  0
 82163  1  0  0  0
 83164  1  0  0  0
 83165  1  0  0  0
 84 86  1  0  0  0
 84 87  1  0  0  0
 84166  1  0  0  0
 84167  1  0  0  0
 85 89  1  0  0  0
 85168  1  0  0  0
 85169  1  0  0  0
 86 89  1  0  0  0
 86170  1  0  0  0
 86171  1  0  0  0
 88172  1  0  0  0
 88173  1  0  0  0
 89174  1  0  0  0
 89175  1  0  0  0
M  CHG  2  88   1  89   1
M  ISO  4   1 100  68 101  76 101  83 100
M  END
> <chiral flag>
0

> <version>
0

> <s_m_source_file>
/data/baiqing/PycharmProjects/Reinvent-master-3.2/result/LINK_invent/BTK/process_docking_weight1_custom_sum_contain_oxygen_bond_distance_aromatic_linkinvent_7_9_3/rearranged_h_0127.sdf

> <i_m_source_file_index>
84

> <r_mmod_Potential_Energy-OPLS-2005>
-319.831573486328

> <r_mmod_Stretch_Energy-OPLS-2005>
37.7479438781738

> <r_mmod_Bend_Energy-OPLS-2005>
89.7633743286133

> <r_mmod_Torsional_Energy-OPLS-2005>
228.889282226562

> <r_mmod_Improper_Torsional_Energy-OPLS-2005>
2.92039036750793

> <r_mmod_Van_der_Waal_Energy-OPLS-2005>
172.910095214844

> <r_mmod_Electrostatic_Energy-OPLS-2005>
43.0274391174316

> <r_mmod_Solvation_Energy-OPLS-2005>
-905.103576660156

> <b_mmod_Minimization_Converged-OPLS-2005>
0

> <r_mmod_RMS_Derivative-OPLS-2005>
1.84456360340118

$$$$
84
                    3D
 Structure written by MMmdl.
165173  0  0  1  0            999 V2000
  -30.5100  -14.9103   20.4072 C   0  0  0  0  0  0
  -30.4390  -12.5548   19.4963 C   0  0  0  0  0  0
  -29.5122  -12.4919   18.2602 C   0  0  0  0  0  0
  -28.0298  -12.3290   18.6455 C   0  0  0  0  0  0
  -27.6261  -13.2367   19.8379 C   0  0  2  0  0  0
  -28.6701  -13.2044   20.9766 C   0  0  0  0  0  0
  -25.2420  -13.8163   20.5698 C   0  0  0  0  0  0
  -24.1716  -13.0407   20.9189 C   0  0  0  0  0  0
  -24.6315  -11.6894   20.8676 C   0  0  0  0  0  0
  -23.8992  -10.4282   21.0329 C   0  0  0  0  0  0
  -24.3564   -9.4220   21.9109 C   0  0  0  0  0  0
  -23.6297   -8.2231   22.0694 C   0  0  0  0  0  0
  -22.4292   -8.0201   21.3498 C   0  0  0  0  0  0
  -21.9862   -9.0138   20.4602 C   0  0  0  0  0  0
  -22.7142  -10.2066   20.2994 C   0  0  0  0  0  0
  -21.6874   -6.0678   22.5240 C   0  0  0  0  0  0
  -21.4033   -6.5599   23.8172 C   0  0  0  0  0  0
  -21.3666   -5.6760   24.9125 C   0  0  0  0  0  0
  -21.6079   -4.3028   24.7219 C   0  0  0  0  0  0
  -21.8847   -3.8117   23.4346 C   0  0  0  0  0  0
  -21.9206   -4.6905   22.3386 C   0  0  0  0  0  0
  -22.7764  -13.5179   21.1906 C   0  0  0  0  0  0
  -22.1692   -4.2087   21.0967 F   0  0  0  0  0  0
  -21.5601   -3.4530   25.7755 F   0  0  0  0  0  0
  -29.9494  -13.6372   20.3945 N   0  0  0  0  0  0
  -26.2836  -12.9391   20.3191 N   0  0  0  0  0  0
  -25.9227  -11.6546   20.5691 N   0  0  0  0  0  0
  -22.0497  -12.8091   22.0476 N   0  0  0  0  0  0
  -25.4048  -15.1906   20.4181 N   0  0  0  0  0  0
  -31.7003  -15.0104   20.0744 O   0  0  0  0  0  0
  -21.6670   -6.8791   21.4199 O   0  0  0  0  0  0
  -22.3408  -14.5464   20.6728 O   0  0  0  0  0  0
  -24.6468  -31.8459   23.1830 C   0  0  0  0  0  0
  -25.9203  -32.4733   23.8269 C   0  0  1  0  0  0
  -27.2108  -27.1115   20.1345 C   0  0  0  0  0  0
  -25.5889  -33.8527   24.2190 N   0  0  0  0  0  0
  -23.4523  -30.4588   21.5403 C   0  0  2  0  0  0
  -24.8856  -28.8632   20.1248 C   0  0  0  0  0  0
  -22.7578  -29.4543   22.4956 C   0  0  0  0  0  0
  -18.0290  -28.1336   22.8516 C   0  0  0  0  0  0
  -24.1456  -36.7263   23.2672 C   0  0  0  0  0  0
  -26.0085  -30.7007   21.3877 C   0  0  0  0  0  0
  -26.0724  -29.3061   20.7237 C   0  0  0  0  0  0
  -27.2383  -28.4503   20.6986 C   0  0  0  0  0  0
  -25.9945  -26.7537   19.5209 C   0  0  0  0  0  0
  -24.8563  -27.5957   19.5137 C   0  0  0  0  0  0
  -23.6728  -29.7805   20.1610 C   0  0  0  0  0  0
  -25.4101  -36.3087   24.0376 C   0  0  1  0  0  0
  -20.5899  -28.3660   23.1272 C   0  0  2  0  0  0
  -20.6737  -26.9375   22.5406 C   0  0  0  0  0  0
  -19.5699  -26.6324   21.5220 C   0  0  0  0  0  0
  -18.1898  -26.7878   22.1644 C   0  0  0  0  0  0
  -19.1545  -28.8840   23.2875 C   0  0  0  0  0  0
  -18.9454  -30.1431   23.8893 C   0  0  0  0  0  0
  -17.6453  -30.6563   24.0544 C   0  0  0  0  0  0
  -25.9016  -34.9462   23.5114 C   0  0  0  0  0  0
  -16.5362  -29.9033   23.6349 C   0  0  0  0  0  0
  -16.7280  -28.6425   23.0412 C   0  0  0  0  0  0
  -26.4435  -31.6635   25.0783 C   0  0  0  0  0  0
  -25.3578  -31.3835   26.1466 C   0  0  0  0  0  0
  -27.0335  -30.3053   24.6435 C   0  0  0  0  0  0
  -27.5988  -32.4441   25.7507 C   0  0  0  0  0  0
  -27.5603  -37.1796   24.8480 C   0  0  0  0  0  0
  -21.4265  -29.3044   22.3695 N   0  0  0  0  0  0
  -26.4265  -37.3832   23.9454 N   0  0  0  0  0  0
  -24.7252  -31.0220   22.0934 N   0  0  0  0  0  0
  -23.4178  -28.8121   23.3172 O   0  0  0  0  0  0
  -28.2839  -26.1492   20.0762 O   0  0  0  0  0  0
  -26.5636  -34.8974   22.4708 O   0  0  0  0  0  0
  -23.5583  -32.1359   23.7010 O   0  0  0  0  0  0
  -30.6666  -20.8132   18.2224 C   0  0  0  0  0  0
  -29.2983  -20.1567   18.2510 C   0  0  0  0  0  0
  -30.4005  -22.1353   18.9492 C   0  0  1  0  0  0
  -29.2624  -21.8334   20.0033 C   0  0  1  0  0  0
  -32.9761  -22.1186   19.4309 C   0  0  0  0  0  0
  -31.8928  -24.0980   18.2742 C   0  0  0  0  0  0
  -28.1653  -23.1408   19.8495 C   0  0  0  0  0  0
  -29.6993  -17.4893   19.8598 C   0  0  0  0  0  0
  -29.3539  -19.0235   20.5193 C   0  0  0  0  0  0
  -28.2154  -24.6739   20.5947 C   0  0  0  0  0  0
  -31.6808  -22.9642   19.3110 C   0  0  0  0  0  0
  -29.6986  -16.0640   20.5536 N   0  0  0  0  0  0
  -28.8867  -20.3036   19.6631 N   0  3  2  0  0  0
  -31.4604  -12.7413   19.1629 H   0  0  0  0  0  0
  -30.4765  -11.5983   20.0180 H   0  0  0  0  0  0
  -29.8168  -11.6645   17.6156 H   0  0  0  0  0  0
  -29.6355  -13.4031   17.6749 H   0  0  0  0  0  0
  -27.8624  -11.2810   18.8952 H   0  0  0  0  0  0
  -27.3925  -12.5320   17.7855 H   0  0  0  0  0  0
  -27.6051  -14.2540   19.4439 H   0  0  0  0  0  0
  -28.7522  -12.1978   21.3886 H   0  0  0  0  0  0
  -28.3804  -13.8563   21.8022 H   0  0  0  0  0  0
  -25.2715   -9.5756   22.4661 H   0  0  0  0  0  0
  -24.0036   -7.4668   22.7425 H   0  0  0  0  0  0
  -21.0775   -8.8585   19.8964 H   0  0  0  0  0  0
  -22.3490  -10.9538   19.6102 H   0  0  0  0  0  0
  -21.2012   -7.6121   23.9642 H   0  0  0  0  0  0
  -21.1479   -6.0503   25.9028 H   0  0  0  0  0  0
  -22.0624   -2.7576   23.2862 H   0  0  0  0  0  0
  -22.4256  -11.9791   22.4831 H   0  0  0  0  0  0
  -21.1045  -13.0939   22.2740 H   0  0  0  0  0  0
  -24.6249  -15.8226   20.5648 H   0  0  0  0  0  0
  -26.2010  -15.6452   19.9930 H   0  0  0  0  0  0
  -26.7312  -32.5279   23.1026 H   0  0  0  0  0  0
  -25.0061  -33.9606   25.0357 H   0  0  0  0  0  0
  -22.7712  -31.2965   21.3831 H   0  0  0  0  0  0
  -23.3778  -35.9515   23.3286 H   0  0  0  0  0  0
  -24.3580  -36.8914   22.2091 H   0  0  0  0  0  0
  -23.7056  -37.6419   23.6673 H   0  0  0  0  0  0
  -26.1824  -31.4620   20.6249 H   0  0  0  0  0  0
  -26.8762  -30.7393   22.0373 H   0  0  0  0  0  0
  -28.1590  -28.7964   21.1490 H   0  0  0  0  0  0
  -25.9193  -25.7888   19.0440 H   0  0  0  0  0  0
  -23.9458  -27.2418   19.0495 H   0  0  0  0  0  0
  -23.8355  -30.5588   19.4146 H   0  0  0  0  0  0
  -22.7788  -29.2457   19.8401 H   0  0  0  0  0  0
  -25.1258  -36.2004   25.0875 H   0  0  0  0  0  0
  -20.9978  -28.3175   24.1396 H   0  0  0  0  0  0
  -20.5563  -26.2309   23.3618 H   0  0  0  0  0  0
  -21.6602  -26.7329   22.1267 H   0  0  0  0  0  0
  -19.6831  -25.6203   21.1314 H   0  0  0  0  0  0
  -19.6585  -27.3087   20.6708 H   0  0  0  0  0  0
  -17.4153  -26.6680   21.4050 H   0  0  0  0  0  0
  -18.0270  -25.9986   22.9011 H   0  0  0  0  0  0
  -19.7941  -30.7254   24.2254 H   0  0  0  0  0  0
  -17.4999  -31.6259   24.5105 H   0  0  0  0  0  0
  -15.5345  -30.2923   23.7629 H   0  0  0  0  0  0
  -15.8678  -28.0692   22.7186 H   0  0  0  0  0  0
  -24.5674  -30.7314   25.7738 H   0  0  0  0  0  0
  -24.8804  -32.3006   26.4970 H   0  0  0  0  0  0
  -25.7780  -30.8903   27.0239 H   0  0  0  0  0  0
  -26.2992  -29.6801   24.1365 H   0  0  0  0  0  0
  -27.3847  -29.7409   25.5078 H   0  0  0  0  0  0
  -27.8928  -30.4362   23.9855 H   0  0  0  0  0  0
  -27.2610  -33.3793   26.2012 H   0  0  0  0  0  0
  -28.3736  -32.6968   25.0248 H   0  0  0  0  0  0
  -28.0713  -31.8628   26.5440 H   0  0  0  0  0  0
  -28.2618  -38.0120   24.7663 H   0  0  0  0  0  0
  -28.1105  -36.2687   24.6108 H   0  0  0  0  0  0
  -27.2373  -37.1236   25.8895 H   0  0  0  0  0  0
  -20.9446  -29.8862   21.6978 H   0  0  0  0  0  0
  -26.0194  -38.2936   24.1433 H   0  0  0  0  0  0
  -31.0575  -20.9522   17.2131 H   0  0  0  0  0  0
  -31.3679  -20.1797   18.7641 H   0  0  0  0  0  0
  -29.3111  -19.1400   17.8610 H   0  0  0  0  0  0
  -28.6062  -20.7054   17.6038 H   0  0  0  0  0  0
  -29.9085  -22.7317   18.1802 H   0  0  0  0  0  0
  -29.6206  -21.8176   21.0334 H   0  0  0  0  0  0
  -32.8969  -21.3812   20.2330 H   0  0  0  0  0  0
  -33.8628  -22.7291   19.6220 H   0  0  0  0  0  0
  -33.2001  -21.5735   18.5127 H   0  0  0  0  0  0
  -31.0570  -24.8009   18.2788 H   0  0  0  0  0  0
  -31.9771  -23.7099   17.2551 H   0  0  0  0  0  0
  -32.7957  -24.6746   18.4722 H   0  0  0  0  0  0
  -27.2166  -22.7242   20.1906 H   0  0  0  0  0  0
  -27.9700  -23.3231   18.7931 H   0  0  0  0  0  0
  -30.6793  -17.5755   19.3899 H   0  0  0  0  0  0
  -29.0016  -17.3393   19.0376 H   0  0  0  0  0  0
  -30.2728  -19.3329   21.0184 H   0  0  0  0  0  0
  -28.6280  -18.9039   21.3267 H   0  0  0  0  0  0
  -29.0685  -24.6092   21.2708 H   0  0  0  0  0  0
  -27.3650  -24.6858   21.2783 H   0  0  0  0  0  0
  -31.5187  -23.4540   20.2714 H   0  0  0  0  0  0
  -28.7868  -15.8165   20.9142 H   0  0  0  0  0  0
  -27.8780  -20.2445   19.6592 H   0  0  0  0  0  0
  1 25  1  0  0  0
  1 30  2  0  0  0
  1 82  1  0  0  0
  2  3  1  0  0  0
  2 25  1  0  0  0
  2 84  1  0  0  0
  2 85  1  0  0  0
  3  4  1  0  0  0
  3 86  1  0  0  0
  3 87  1  0  0  0
  4  5  1  0  0  0
  4 88  1  0  0  0
  4 89  1  0  0  0
  5  6  1  0  0  0
  5 26  1  0  0  0
  5 90  1  0  0  0
  6 25  1  0  0  0
  6 91  1  0  0  0
  6 92  1  0  0  0
  7  8  2  0  0  0
  7 26  1  0  0  0
  7 29  1  0  0  0
  8  9  1  0  0  0
  8 22  1  0  0  0
  9 10  1  0  0  0
  9 27  2  0  0  0
 10 11  2  0  0  0
 10 15  1  0  0  0
 11 12  1  0  0  0
 11 93  1  0  0  0
 12 13  2  0  0  0
 12 94  1  0  0  0
 13 14  1  0  0  0
 13 31  1  0  0  0
 14 15  2  0  0  0
 14 95  1  0  0  0
 15 96  1  0  0  0
 16 17  2  0  0  0
 16 21  1  0  0  0
 16 31  1  0  0  0
 17 18  1  0  0  0
 17 97  1  0  0  0
 18 19  2  0  0  0
 18 98  1  0  0  0
 19 20  1  0  0  0
 19 24  1  0  0  0
 20 21  2  0  0  0
 20 99  1  0  0  0
 21 23  1  0  0  0
 22 28  1  0  0  0
 22 32  2  0  0  0
 26 27  1  0  0  0
 28100  1  0  0  0
 28101  1  0  0  0
 29102  1  0  0  0
 29103  1  0  0  0
 33 34  1  0  0  0
 33 66  1  0  0  0
 33 70  2  0  0  0
 34 36  1  0  0  0
 34 59  1  0  0  0
 34104  1  0  0  0
 35 44  2  0  0  0
 35 45  1  0  0  0
 35 68  1  0  0  0
 36 56  1  0  0  0
 36105  1  0  0  0
 37 39  1  0  0  0
 37 47  1  0  0  0
 37 66  1  0  0  0
 37106  1  0  0  0
 38 43  2  0  0  0
 38 46  1  0  0  0
 38 47  1  0  0  0
 39 64  1  0  0  0
 39 67  2  0  0  0
 40 52  1  0  0  0
 40 53  2  0  0  0
 40 58  1  0  0  0
 41107  1  0  0  0
 41108  1  0  0  0
 41109  1  0  0  0
 41 48  1  0  0  0
 42 43  1  0  0  0
 42 66  1  0  0  0
 42110  1  0  0  0
 42111  1  0  0  0
 43 44  1  0  0  0
 44112  1  0  0  0
 45 46  2  0  0  0
 45113  1  0  0  0
 46114  1  0  0  0
 47115  1  0  0  0
 47116  1  0  0  0
 48 56  1  0  0  0
 48 65  1  0  0  0
 48117  1  0  0  0
 49 50  1  0  0  0
 49 53  1  0  0  0
 49 64  1  0  0  0
 49118  1  0  0  0
 50 51  1  0  0  0
 50119  1  0  0  0
 50120  1  0  0  0
 51 52  1  0  0  0
 51121  1  0  0  0
 51122  1  0  0  0
 52123  1  0  0  0
 52124  1  0  0  0
 53 54  1  0  0  0
 54 55  2  0  0  0
 54125  1  0  0  0
 55 57  1  0  0  0
 55126  1  0  0  0
 56 69  2  0  0  0
 57 58  2  0  0  0
 57127  1  0  0  0
 58128  1  0  0  0
 59 60  1  0  0  0
 59 61  1  0  0  0
 59 62  1  0  0  0
 60129  1  0  0  0
 60130  1  0  0  0
 60131  1  0  0  0
 61132  1  0  0  0
 61133  1  0  0  0
 61134  1  0  0  0
 62135  1  0  0  0
 62136  1  0  0  0
 62137  1  0  0  0
 63 65  1  0  0  0
 63138  1  0  0  0
 63139  1  0  0  0
 63140  1  0  0  0
 64141  1  0  0  0
 65142  1  0  0  0
 68 80  1  0  0  0
 71 72  1  0  0  0
 71143  1  0  0  0
 71144  1  0  0  0
 71 73  1  0  0  0
 72 83  1  0  0  0
 72145  1  0  0  0
 72146  1  0  0  0
 73 74  1  0  0  0
 73 81  1  0  0  0
 73147  1  0  0  0
 74 77  1  0  0  0
 74 83  1  0  0  0
 74148  1  0  0  0
 75149  1  0  0  0
 75150  1  0  0  0
 75151  1  0  0  0
 75 81  1  0  0  0
 76 81  1  0  0  0
 76152  1  0  0  0
 76153  1  0  0  0
 76154  1  0  0  0
 77 80  1  0  0  0
 77155  1  0  0  0
 77156  1  0  0  0
 78 79  1  0  0  0
 78 82  1  0  0  0
 78157  1  0  0  0
 78158  1  0  0  0
 79159  1  0  0  0
 79160  1  0  0  0
 79 83  1  0  0  0
 80161  1  0  0  0
 80162  1  0  0  0
 81163  1  0  0  0
 82164  1  0  0  0
 83165  1  0  0  0
M  CHG  1  83   1
M  ISO  4   1 100  68 101  80 101  82 100
M  END
> <chiral flag>
0

> <version>
0

> <s_m_source_file>
/data/baiqing/PycharmProjects/Reinvent-master-3.2/result/LINK_invent/BTK/process_docking_weight1_custom_sum_contain_oxygen_bond_distance_aromatic_linkinvent_7_9_3/rearranged_h_0127.sdf

> <i_m_source_file_index>
85

> <r_mmod_Potential_Energy-OPLS-2005>
614.241638183594

> <r_mmod_Stretch_Energy-OPLS-2005>
308.404113769531

> <r_mmod_Bend_Energy-OPLS-2005>
372.693359375

> <r_mmod_Torsional_Energy-OPLS-2005>
344.327850341797

> <r_mmod_Improper_Torsional_Energy-OPLS-2005>
7.00313138961792

> <r_mmod_Van_der_Waal_Energy-OPLS-2005>
115.46605682373

> <r_mmod_Electrostatic_Energy-OPLS-2005>
-254.979141235352

> <r_mmod_Solvation_Energy-OPLS-2005>
-461.527984619141

> <b_mmod_Minimization_Converged-OPLS-2005>
0

> <r_mmod_RMS_Derivative-OPLS-2005>
7.96859836578369

$$$$
85
                    3D
 Structure written by MMmdl.
161170  0  0  1  0            999 V2000
  -30.7247  -14.4686   20.6069 C   0  0  0  0  0  0
  -30.4237  -12.3202   19.4223 C   0  0  0  0  0  0
  -29.4944  -12.5141   18.2071 C   0  0  0  0  0  0
  -28.0164  -12.3752   18.6186 C   0  0  0  0  0  0
  -27.6628  -13.2131   19.8774 C   0  0  2  0  0  0
  -28.7056  -12.9958   20.9983 C   0  0  0  0  0  0
  -25.2572  -13.8178   20.5684 C   0  0  0  0  0  0
  -24.1832  -13.0445   20.9188 C   0  0  0  0  0  0
  -24.6389  -11.6914   20.8727 C   0  0  0  0  0  0
  -23.9055  -10.4298   21.0385 C   0  0  0  0  0  0
  -24.3612   -9.4219   21.9162 C   0  0  0  0  0  0
  -23.6291   -8.2251   22.0741 C   0  0  0  0  0  0
  -22.4268   -8.0279   21.3538 C   0  0  0  0  0  0
  -21.9903   -9.0249   20.4634 C   0  0  0  0  0  0
  -22.7225  -10.2131   20.3040 C   0  0  0  0  0  0
  -21.6856   -6.0725   22.5274 C   0  0  0  0  0  0
  -21.4015   -6.5630   23.8209 C   0  0  0  0  0  0
  -21.3661   -5.6783   24.9172 C   0  0  0  0  0  0
  -21.6053   -4.3045   24.7225 C   0  0  0  0  0  0
  -21.8822   -3.8136   23.4348 C   0  0  0  0  0  0
  -21.9194   -4.6951   22.3402 C   0  0  0  0  0  0
  -22.7851  -13.5230   21.1849 C   0  0  0  0  0  0
  -22.1653   -4.2136   21.0982 F   0  0  0  0  0  0
  -21.5639   -3.4538   25.7741 F   0  0  0  0  0  0
  -30.0389  -13.3013   20.4507 N   0  0  0  0  0  0
  -26.3026  -12.9359   20.3373 N   0  0  0  0  0  0
  -25.9325  -11.6514   20.5766 N   0  0  0  0  0  0
  -22.0489  -12.8230   22.0409 N   0  0  0  0  0  0
  -25.4297  -15.1896   20.4094 N   0  0  0  0  0  0
  -31.8191  -14.6732   20.0754 O   0  0  0  0  0  0
  -21.6643   -6.8866   21.4232 O   0  0  0  0  0  0
  -22.3529  -14.5522   20.6665 O   0  0  0  0  0  0
  -24.6191  -31.8688   23.2111 C   0  0  0  0  0  0
  -25.9065  -32.4830   23.8411 C   0  0  1  0  0  0
  -27.2230  -27.4019   20.0869 C   0  0  0  0  0  0
  -25.5915  -33.8629   24.2344 N   0  0  0  0  0  0
  -23.4079  -30.4974   21.5538 C   0  0  2  0  0  0
  -24.8500  -28.9691   20.1138 C   0  0  0  0  0  0
  -22.7442  -29.4676   22.4977 C   0  0  0  0  0  0
  -18.0282  -28.1378   22.8489 C   0  0  0  0  0  0
  -24.1486  -36.7314   23.2639 C   0  0  0  0  0  0
  -25.9445  -30.8217   21.3736 C   0  0  0  0  0  0
  -26.0167  -29.4574   20.7149 C   0  0  0  0  0  0
  -27.2056  -28.6821   20.7005 C   0  0  0  0  0  0
  -26.0301  -26.9560   19.4615 C   0  0  0  0  0  0
  -24.8528  -27.7178   19.4850 C   0  0  0  0  0  0
  -23.6172  -29.8414   20.1656 C   0  0  0  0  0  0
  -25.4107  -36.3124   24.0347 C   0  0  1  0  0  0
  -20.5878  -28.3680   23.1293 C   0  0  2  0  0  0
  -20.6773  -26.9410   22.5404 C   0  0  0  0  0  0
  -19.5744  -26.6384   21.5210 C   0  0  0  0  0  0
  -18.1927  -26.7921   22.1625 C   0  0  0  0  0  0
  -19.1532  -28.8843   23.2893 C   0  0  0  0  0  0
  -18.9458  -30.1445   23.8910 C   0  0  0  0  0  0
  -17.6459  -30.6584   24.0562 C   0  0  0  0  0  0
  -25.9040  -34.9485   23.5146 C   0  0  0  0  0  0
  -16.5351  -29.9090   23.6316 C   0  0  0  0  0  0
  -16.7270  -28.6504   23.0346 C   0  0  0  0  0  0
  -26.4473  -31.6608   25.0747 C   0  0  0  0  0  0
  -25.3729  -31.3710   26.1490 C   0  0  0  0  0  0
  -27.0304  -30.3048   24.6135 C   0  0  0  0  0  0
  -27.6057  -32.4322   25.7498 C   0  0  0  0  0  0
  -27.5589  -37.1812   24.8463 C   0  0  0  0  0  0
  -21.4165  -29.3055   22.3707 N   0  0  0  0  0  0
  -26.4295  -37.3806   23.9417 N   0  0  0  0  0  0
  -24.6760  -31.0766   22.1031 N   0  0  0  0  0  0
  -23.4202  -28.8199   23.3013 O   0  0  0  0  0  0
  -28.3667  -26.6067   20.1237 O   0  0  0  0  0  0
  -26.5599  -34.8932   22.4706 O   0  0  0  0  0  0
  -23.5373  -32.1453   23.7481 O   0  0  0  0  0  0
  -29.6100  -21.6051   20.3910 C   0  0  0  0  0  0
  -27.8358  -22.3914   18.9773 C   0  0  0  0  0  0
  -28.9052  -22.7035   19.8345 C   0  0  0  0  0  0
  -29.2516  -20.2601   20.0761 C   0  0  0  0  0  0
  -28.1665  -20.0898   19.1581 C   0  0  0  0  0  0
  -28.3431  -17.9726   17.5915 C   0  0  0  0  0  0
  -27.0355  -18.6234   17.2556 C   0  0  0  0  0  0
  -27.6132  -18.7746   18.6562 C   0  0  0  0  0  0
  -29.2808  -24.1764   20.1430 C   0  0  0  0  0  0
  -29.6630  -17.7850   20.5851 C   0  0  0  0  0  0
  -30.5321  -16.8402   21.4482 C   0  0  0  0  0  0
  -28.1685  -25.2093   19.7954 C   0  0  0  0  0  0
  -27.4786  -21.1379   18.6593 N   0  0  0  0  0  0
  -29.9876  -19.2133   20.6987 N   0  0  0  0  0  0
  -30.0979  -15.4381   21.2994 N   0  0  0  0  0  0
  -31.4664  -12.4243   19.1170 H   0  0  0  0  0  0
  -30.3288  -11.3080   19.8180 H   0  0  0  0  0  0
  -29.7360  -11.7855   17.4328 H   0  0  0  0  0  0
  -29.6626  -13.4975   17.7647 H   0  0  0  0  0  0
  -27.8246  -11.3183   18.8078 H   0  0  0  0  0  0
  -27.3676  -12.6548   17.7878 H   0  0  0  0  0  0
  -27.7058  -14.2624   19.5851 H   0  0  0  0  0  0
  -28.6830  -11.9591   21.3361 H   0  0  0  0  0  0
  -28.4597  -13.5931   21.8777 H   0  0  0  0  0  0
  -25.2762   -9.5704   22.4735 H   0  0  0  0  0  0
  -24.0005   -7.4648   22.7465 H   0  0  0  0  0  0
  -21.0834   -8.8756   19.8947 H   0  0  0  0  0  0
  -22.3665  -10.9662   19.6152 H   0  0  0  0  0  0
  -21.1997   -7.6137   23.9706 H   0  0  0  0  0  0
  -21.1484   -6.0516   25.9073 H   0  0  0  0  0  0
  -22.0599   -2.7598   23.2857 H   0  0  0  0  0  0
  -22.4102  -11.9912   22.4838 H   0  0  0  0  0  0
  -21.1087  -13.1231   22.2564 H   0  0  0  0  0  0
  -24.6651  -15.8466   20.5256 H   0  0  0  0  0  0
  -26.2867  -15.6264   20.0956 H   0  0  0  0  0  0
  -26.7142  -32.5523   23.1176 H   0  0  0  0  0  0
  -25.0075  -33.9787   25.0498 H   0  0  0  0  0  0
  -22.6984  -31.3165   21.4185 H   0  0  0  0  0  0
  -23.3756  -35.9639   23.3308 H   0  0  0  0  0  0
  -24.3585  -36.8915   22.2052 H   0  0  0  0  0  0
  -23.7222  -37.6518   23.6638 H   0  0  0  0  0  0
  -26.0703  -31.5879   20.6071 H   0  0  0  0  0  0
  -26.8280  -30.8665   21.9986 H   0  0  0  0  0  0
  -28.1018  -29.0532   21.1777 H   0  0  0  0  0  0
  -25.9644  -26.0121   18.9420 H   0  0  0  0  0  0
  -23.9589  -27.3375   19.0101 H   0  0  0  0  0  0
  -23.7362  -30.6227   19.4139 H   0  0  0  0  0  0
  -22.7377  -29.2716   19.8603 H   0  0  0  0  0  0
  -25.1279  -36.2004   25.0840 H   0  0  0  0  0  0
  -20.9969  -28.3245   24.1412 H   0  0  0  0  0  0
  -20.5676  -26.2293   23.3603 H   0  0  0  0  0  0
  -21.6643  -26.7448   22.1193 H   0  0  0  0  0  0
  -19.6905  -25.6298   21.1234 H   0  0  0  0  0  0
  -19.6672  -27.3198   20.6743 H   0  0  0  0  0  0
  -17.4194  -26.6668   21.4032 H   0  0  0  0  0  0
  -18.0329  -26.0063   22.9021 H   0  0  0  0  0  0
  -19.7937  -30.7252   24.2291 H   0  0  0  0  0  0
  -17.5018  -31.6263   24.5166 H   0  0  0  0  0  0
  -15.5353  -30.3001   23.7623 H   0  0  0  0  0  0
  -15.8671  -28.0825   22.7053 H   0  0  0  0  0  0
  -24.5894  -30.7074   25.7813 H   0  0  0  0  0  0
  -24.8926  -32.2862   26.4963 H   0  0  0  0  0  0
  -25.8069  -30.8851   27.0238 H   0  0  0  0  0  0
  -26.2855  -29.6817   24.1171 H   0  0  0  0  0  0
  -27.4053  -29.7276   25.4597 H   0  0  0  0  0  0
  -27.8704  -30.4369   23.9311 H   0  0  0  0  0  0
  -27.2690  -33.3612   26.2108 H   0  0  0  0  0  0
  -28.3836  -32.6897   25.0298 H   0  0  0  0  0  0
  -28.0761  -31.8427   26.5378 H   0  0  0  0  0  0
  -28.2603  -38.0115   24.7539 H   0  0  0  0  0  0
  -28.1092  -36.2653   24.6255 H   0  0  0  0  0  0
  -27.2315  -37.1422   25.8866 H   0  0  0  0  0  0
  -20.9331  -29.8815   21.6959 H   0  0  0  0  0  0
  -26.0195  -38.2889   24.1416 H   0  0  0  0  0  0
  -30.4300  -21.7968   21.0682 H   0  0  0  0  0  0
  -27.2274  -23.1512   18.5120 H   0  0  0  0  0  0
  -29.2468  -18.4068   17.1687 H   0  0  0  0  0  0
  -28.3437  -16.8884   17.6858 H   0  0  0  0  0  0
  -26.1849  -17.9577   17.1264 H   0  0  0  0  0  0
  -27.0640  -19.4792   16.5851 H   0  0  0  0  0  0
  -27.0788  -18.2487   19.4442 H   0  0  0  0  0  0
  -30.1861  -24.4249   19.5888 H   0  0  0  0  0  0
  -29.5314  -24.2593   21.2007 H   0  0  0  0  0  0
  -28.6198  -17.6328   20.8634 H   0  0  0  0  0  0
  -29.7898  -17.4779   19.5498 H   0  0  0  0  0  0
  -30.4432  -17.1129   22.5003 H   0  0  0  0  0  0
  -31.5876  -16.9526   21.1918 H   0  0  0  0  0  0
  -27.2714  -24.8560   20.3078 H   0  0  0  0  0  0
  -27.9900  -25.1657   18.7204 H   0  0  0  0  0  0
  -30.7259  -19.4678   21.3521 H   0  0  0  0  0  0
  -29.2082  -15.1910   21.7069 H   0  0  0  0  0  0
  1 25  1  0  0  0
  1 30  2  0  0  0
  1 85  1  0  0  0
  2  3  1  0  0  0
  2 25  1  0  0  0
  2 86  1  0  0  0
  2 87  1  0  0  0
  3  4  1  0  0  0
  3 88  1  0  0  0
  3 89  1  0  0  0
  4  5  1  0  0  0
  4 90  1  0  0  0
  4 91  1  0  0  0
  5  6  1  0  0  0
  5 26  1  0  0  0
  5 92  1  0  0  0
  6 25  1  0  0  0
  6 93  1  0  0  0
  6 94  1  0  0  0
  7  8  2  0  0  0
  7 26  1  0  0  0
  7 29  1  0  0  0
  8  9  1  0  0  0
  8 22  1  0  0  0
  9 10  1  0  0  0
  9 27  2  0  0  0
 10 11  2  0  0  0
 10 15  1  0  0  0
 11 12  1  0  0  0
 11 95  1  0  0  0
 12 13  2  0  0  0
 12 96  1  0  0  0
 13 14  1  0  0  0
 13 31  1  0  0  0
 14 15  2  0  0  0
 14 97  1  0  0  0
 15 98  1  0  0  0
 16 17  2  0  0  0
 16 21  1  0  0  0
 16 31  1  0  0  0
 17 18  1  0  0  0
 17 99  1  0  0  0
 18 19  2  0  0  0
 18100  1  0  0  0
 19 20  1  0  0  0
 19 24  1  0  0  0
 20 21  2  0  0  0
 20101  1  0  0  0
 21 23  1  0  0  0
 22 28  1  0  0  0
 22 32  2  0  0  0
 26 27  1  0  0  0
 28102  1  0  0  0
 28103  1  0  0  0
 29104  1  0  0  0
 29105  1  0  0  0
 33 34  1  0  0  0
 33 66  1  0  0  0
 33 70  2  0  0  0
 34 36  1  0  0  0
 34 59  1  0  0  0
 34106  1  0  0  0
 35 44  2  0  0  0
 35 45  1  0  0  0
 35 68  1  0  0  0
 36 56  1  0  0  0
 36107  1  0  0  0
 37 39  1  0  0  0
 37 47  1  0  0  0
 37 66  1  0  0  0
 37108  1  0  0  0
 38 43  2  0  0  0
 38 46  1  0  0  0
 38 47  1  0  0  0
 39 64  1  0  0  0
 39 67  2  0  0  0
 40 52  1  0  0  0
 40 53  2  0  0  0
 40 58  1  0  0  0
 41109  1  0  0  0
 41110  1  0  0  0
 41111  1  0  0  0
 41 48  1  0  0  0
 42 43  1  0  0  0
 42 66  1  0  0  0
 42112  1  0  0  0
 42113  1  0  0  0
 43 44  1  0  0  0
 44114  1  0  0  0
 45 46  2  0  0  0
 45115  1  0  0  0
 46116  1  0  0  0
 47117  1  0  0  0
 47118  1  0  0  0
 48 56  1  0  0  0
 48 65  1  0  0  0
 48119  1  0  0  0
 49 50  1  0  0  0
 49 53  1  0  0  0
 49 64  1  0  0  0
 49120  1  0  0  0
 50 51  1  0  0  0
 50121  1  0  0  0
 50122  1  0  0  0
 51 52  1  0  0  0
 51123  1  0  0  0
 51124  1  0  0  0
 52125  1  0  0  0
 52126  1  0  0  0
 53 54  1  0  0  0
 54 55  2  0  0  0
 54127  1  0  0  0
 55 57  1  0  0  0
 55128  1  0  0  0
 56 69  2  0  0  0
 57 58  2  0  0  0
 57129  1  0  0  0
 58130  1  0  0  0
 59 60  1  0  0  0
 59 61  1  0  0  0
 59 62  1  0  0  0
 60131  1  0  0  0
 60132  1  0  0  0
 60133  1  0  0  0
 61134  1  0  0  0
 61135  1  0  0  0
 61136  1  0  0  0
 62137  1  0  0  0
 62138  1  0  0  0
 62139  1  0  0  0
 63 65  1  0  0  0
 63140  1  0  0  0
 63141  1  0  0  0
 63142  1  0  0  0
 64143  1  0  0  0
 65144  1  0  0  0
 68 82  1  0  0  0
 71 73  2  0  0  0
 71 74  1  0  0  0
 71145  1  0  0  0
 72 73  1  0  0  0
 72 83  2  0  0  0
 72146  1  0  0  0
 73 79  1  0  0  0
 74 75  2  0  0  0
 74 84  1  0  0  0
 75 83  1  0  0  0
 75 78  1  0  0  0
 76 77  1  0  0  0
 76 78  1  0  0  0
 76147  1  0  0  0
 76148  1  0  0  0
 77 78  1  0  0  0
 77149  1  0  0  0
 77150  1  0  0  0
 78151  1  0  0  0
 79 82  1  0  0  0
 79152  1  0  0  0
 79153  1  0  0  0
 80 81  1  0  0  0
 80 84  1  0  0  0
 80154  1  0  0  0
 80155  1  0  0  0
 81 85  1  0  0  0
 81156  1  0  0  0
 81157  1  0  0  0
 82158  1  0  0  0
 82159  1  0  0  0
 84160  1  0  0  0
 85161  1  0  0  0
M  ISO  4   1 100  68 101  82 101  85 100
M  END
> <chiral flag>
0

> <version>
0

> <s_m_source_file>
/data/baiqing/PycharmProjects/Reinvent-master-3.2/result/LINK_invent/BTK/process_docking_weight1_custom_sum_contain_oxygen_bond_distance_aromatic_linkinvent_7_9_3/rearranged_h_0127.sdf

> <i_m_source_file_index>
86

> <r_mmod_Potential_Energy-OPLS-2005>
-178.813888549805

> <r_mmod_Stretch_Energy-OPLS-2005>
47.0786628723145

> <r_mmod_Bend_Energy-OPLS-2005>
122.344902038574

> <r_mmod_Torsional_Energy-OPLS-2005>
203.592575073242

> <r_mmod_Improper_Torsional_Energy-OPLS-2005>
2.54188799858093

> <r_mmod_Van_der_Waal_Energy-OPLS-2005>
168.300476074219

> <r_mmod_Electrostatic_Energy-OPLS-2005>
-501.914459228516

> <r_mmod_Solvation_Energy-OPLS-2005>
-236.920471191406

> <b_mmod_Minimization_Converged-OPLS-2005>
0

> <r_mmod_RMS_Derivative-OPLS-2005>
1.40849125385284

$$$$
86
                    3D
 Structure written by MMmdl.
164172  0  0  1  0            999 V2000
  -30.6635  -14.4982   20.2704 C   0  0  0  0  0  0
  -30.3765  -12.2335   19.3959 C   0  0  0  0  0  0
  -29.4145  -12.2854   18.1812 C   0  0  0  0  0  0
  -27.9402  -12.2429   18.6187 C   0  0  0  0  0  0
  -27.6131  -13.1753   19.8103 C   0  0  2  0  0  0
  -28.6825  -13.0863   20.9243 C   0  0  0  0  0  0
  -25.2455  -13.8170   20.5710 C   0  0  0  0  0  0
  -24.1714  -13.0524   20.9239 C   0  0  0  0  0  0
  -24.6203  -11.6949   20.8847 C   0  0  0  0  0  0
  -23.8890  -10.4338   21.0435 C   0  0  0  0  0  0
  -24.3507   -9.4271   21.9183 C   0  0  0  0  0  0
  -23.6251   -8.2279   22.0763 C   0  0  0  0  0  0
  -22.4259   -8.0274   21.3535 C   0  0  0  0  0  0
  -21.9832   -9.0219   20.4639 C   0  0  0  0  0  0
  -22.7082  -10.2132   20.3052 C   0  0  0  0  0  0
  -21.6857   -6.0722   22.5267 C   0  0  0  0  0  0
  -21.4032   -6.5624   23.8212 C   0  0  0  0  0  0
  -21.3671   -5.6782   24.9156 C   0  0  0  0  0  0
  -21.6044   -4.3036   24.7215 C   0  0  0  0  0  0
  -21.8823   -3.8132   23.4336 C   0  0  0  0  0  0
  -21.9212   -4.6959   22.3393 C   0  0  0  0  0  0
  -22.7730  -13.5332   21.1887 C   0  0  0  0  0  0
  -22.1665   -4.2141   21.0967 F   0  0  0  0  0  0
  -21.5631   -3.4529   25.7719 F   0  0  0  0  0  0
  -29.9987  -13.3159   20.3152 N   0  0  0  0  0  0
  -26.2777  -12.9252   20.3242 N   0  0  0  0  0  0
  -25.9101  -11.6466   20.5901 N   0  0  0  0  0  0
  -22.0320  -12.8338   22.0404 N   0  0  0  0  0  0
  -25.4295  -15.1892   20.4119 N   0  0  0  0  0  0
  -31.8938  -14.5593   20.2544 O   0  0  0  0  0  0
  -21.6667   -6.8850   21.4219 O   0  0  0  0  0  0
  -22.3429  -14.5624   20.6680 O   0  0  0  0  0  0
  -24.6106  -31.8661   23.2123 C   0  0  0  0  0  0
  -25.9005  -32.4843   23.8400 C   0  0  1  0  0  0
  -27.2402  -27.4285   20.0900 C   0  0  0  0  0  0
  -25.5878  -33.8649   24.2316 N   0  0  0  0  0  0
  -23.3995  -30.4909   21.5510 C   0  0  2  0  0  0
  -24.8487  -28.9568   20.1197 C   0  0  0  0  0  0
  -22.7393  -29.4645   22.4980 C   0  0  0  0  0  0
  -18.0261  -28.1379   22.8498 C   0  0  0  0  0  0
  -24.1484  -36.7319   23.2638 C   0  0  0  0  0  0
  -25.9277  -30.8370   21.3602 C   0  0  0  0  0  0
  -26.0093  -29.4674   20.7121 C   0  0  0  0  0  0
  -27.2035  -28.7108   20.6921 C   0  0  0  0  0  0
  -26.0509  -26.9310   19.5032 C   0  0  0  0  0  0
  -24.8650  -27.6886   19.5190 C   0  0  0  0  0  0
  -23.6120  -29.8237   20.1660 C   0  0  0  0  0  0
  -25.4109  -36.3126   24.0323 C   0  0  1  0  0  0
  -20.5855  -28.3645   23.1339 C   0  0  2  0  0  0
  -20.6753  -26.9376   22.5425 C   0  0  0  0  0  0
  -19.5735  -26.6388   21.5212 C   0  0  0  0  0  0
  -18.1916  -26.7929   22.1624 C   0  0  0  0  0  0
  -19.1512  -28.8826   23.2922 C   0  0  0  0  0  0
  -18.9456  -30.1436   23.8925 C   0  0  0  0  0  0
  -17.6454  -30.6599   24.0567 C   0  0  0  0  0  0
  -25.9020  -34.9495   23.5111 C   0  0  0  0  0  0
  -16.5346  -29.9089   23.6347 C   0  0  0  0  0  0
  -16.7250  -28.6522   23.0358 C   0  0  0  0  0  0
  -26.4452  -31.6644   25.0719 C   0  0  0  0  0  0
  -25.3739  -31.3746   26.1484 C   0  0  0  0  0  0
  -27.0263  -30.3091   24.6064 C   0  0  0  0  0  0
  -27.6024  -32.4359   25.7500 C   0  0  0  0  0  0
  -27.5570  -37.1817   24.8459 C   0  0  0  0  0  0
  -21.4116  -29.3008   22.3742 N   0  0  0  0  0  0
  -26.4289  -37.3803   23.9407 N   0  0  0  0  0  0
  -24.6652  -31.0790   22.1008 N   0  0  0  0  0  0
  -23.4179  -28.8169   23.2998 O   0  0  0  0  0  0
  -28.4462  -26.7463   20.0935 O   0  0  0  0  0  0
  -26.5582  -34.8923   22.4656 O   0  0  0  0  0  0
  -23.5307  -32.1430   23.7512 O   0  0  0  0  0  0
  -28.2352  -19.3542   21.7519 C   0  0  0  0  0  0
  -29.5724  -16.7778   17.5278 C   0  0  0  0  0  0
  -28.4807  -16.9963   18.5783 C   0  0  0  0  0  0
  -30.5516  -15.7775   18.1586 C   0  0  0  0  0  0
  -29.0585  -16.4295   19.8918 C   0  0  1  0  0  0
  -29.7513  -17.5549   20.7045 C   0  0  0  0  0  0
  -28.3324  -24.3522   20.7635 C   0  0  0  0  0  0
  -28.4906  -21.8836   21.2853 C   0  0  0  0  0  0
  -28.5492  -25.3869   19.6373 C   0  0  0  0  0  0
  -28.3531  -20.4554   20.6667 C   0  0  2  0  0  0
  -30.0166  -15.3957   19.4741 N   0  0  0  0  0  0
  -28.8388  -18.1546   21.6787 N   0  0  0  0  0  0
  -28.4197  -22.9510   20.2555 N   0  3  0  0  0  0
  -27.4816  -19.5629   22.7022 O   0  0  0  0  0  0
  -27.1422  -20.4411   19.9289 O   0  0  0  0  0  0
  -31.4115  -12.3095   19.0518 H   0  0  0  0  0  0
  -30.2929  -11.2720   19.9127 H   0  0  0  0  0  0
  -29.5875  -11.4246   17.5309 H   0  0  0  0  0  0
  -29.5776  -13.1574   17.5565 H   0  0  0  0  0  0
  -27.7056  -11.2056   18.8758 H   0  0  0  0  0  0
  -27.2808  -12.4732   17.7797 H   0  0  0  0  0  0
  -27.6019  -14.1716   19.3773 H   0  0  0  0  0  0
  -28.6542  -12.1002   21.3909 H   0  0  0  0  0  0
  -28.4853  -13.8157   21.7116 H   0  0  0  0  0  0
  -25.2656   -9.5835   22.4750 H   0  0  0  0  0  0
  -24.0020   -7.4694   22.7481 H   0  0  0  0  0  0
  -21.0782   -8.8667   19.8944 H   0  0  0  0  0  0
  -22.3494  -10.9652   19.6171 H   0  0  0  0  0  0
  -21.2023   -7.6142   23.9702 H   0  0  0  0  0  0
  -21.1477   -6.0501   25.9052 H   0  0  0  0  0  0
  -22.0597   -2.7604   23.2822 H   0  0  0  0  0  0
  -22.3946  -12.0012   22.4823 H   0  0  0  0  0  0
  -21.0930  -13.1363   22.2600 H   0  0  0  0  0  0
  -24.6764  -15.8540   20.5559 H   0  0  0  0  0  0
  -26.2742  -15.6182   20.0634 H   0  0  0  0  0  0
  -26.7056  -32.5571   23.1155 H   0  0  0  0  0  0
  -25.0043  -33.9834   25.0478 H   0  0  0  0  0  0
  -22.6875  -31.3059   21.4104 H   0  0  0  0  0  0
  -23.3744  -35.9659   23.3322 H   0  0  0  0  0  0
  -24.3570  -36.8916   22.2054 H   0  0  0  0  0  0
  -23.7264  -37.6523   23.6652 H   0  0  0  0  0  0
  -26.0184  -31.6048   20.5918 H   0  0  0  0  0  0
  -26.8225  -30.9056   21.9669 H   0  0  0  0  0  0
  -28.1031  -29.1059   21.1410 H   0  0  0  0  0  0
  -26.0057  -25.9652   19.0192 H   0  0  0  0  0  0
  -23.9660  -27.2883   19.0667 H   0  0  0  0  0  0
  -23.7235  -30.5985   19.4066 H   0  0  0  0  0  0
  -22.7377  -29.2427   19.8655 H   0  0  0  0  0  0
  -25.1309  -36.1958   25.0819 H   0  0  0  0  0  0
  -20.9937  -28.3184   24.1463 H   0  0  0  0  0  0
  -20.5667  -26.2220   23.3590 H   0  0  0  0  0  0
  -21.6626  -26.7440   22.1205 H   0  0  0  0  0  0
  -19.6892  -25.6309   21.1220 H   0  0  0  0  0  0
  -19.6695  -27.3222   20.6767 H   0  0  0  0  0  0
  -17.4181  -26.6667   21.4030 H   0  0  0  0  0  0
  -18.0319  -26.0076   22.9028 H   0  0  0  0  0  0
  -19.7921  -30.7237   24.2310 H   0  0  0  0  0  0
  -17.5020  -31.6280   24.5145 H   0  0  0  0  0  0
  -15.5343  -30.3000   23.7697 H   0  0  0  0  0  0
  -15.8637  -28.0852   22.7061 H   0  0  0  0  0  0
  -24.5908  -30.7084   25.7838 H   0  0  0  0  0  0
  -24.8940  -32.2909   26.4936 H   0  0  0  0  0  0
  -25.8127  -30.8928   27.0232 H   0  0  0  0  0  0
  -26.2781  -29.6879   24.1119 H   0  0  0  0  0  0
  -27.4041  -29.7303   25.4502 H   0  0  0  0  0  0
  -27.8619  -30.4414   23.9182 H   0  0  0  0  0  0
  -27.2633  -33.3644   26.2096 H   0  0  0  0  0  0
  -28.3852  -32.6933   25.0360 H   0  0  0  0  0  0
  -28.0660  -31.8464   26.5418 H   0  0  0  0  0  0
  -28.2588  -38.0102   24.7495 H   0  0  0  0  0  0
  -28.1046  -36.2641   24.6303 H   0  0  0  0  0  0
  -27.2267  -37.1489   25.8844 H   0  0  0  0  0  0
  -20.9245  -29.8719   21.6973 H   0  0  0  0  0  0
  -26.0160  -38.2854   24.1443 H   0  0  0  0  0  0
  -30.1033  -17.7038   17.2996 H   0  0  0  0  0  0
  -29.1689  -16.4241   16.5742 H   0  0  0  0  0  0
  -27.5715  -16.4660   18.2832 H   0  0  0  0  0  0
  -28.1983  -18.0482   18.6625 H   0  0  0  0  0  0
  -31.5256  -16.2490   18.2886 H   0  0  0  0  0  0
  -30.7277  -14.9153   17.5190 H   0  0  0  0  0  0
  -28.2780  -15.9655   20.4935 H   0  0  0  0  0  0
  -30.2097  -18.2892   20.0453 H   0  0  0  0  0  0
  -30.5838  -17.1350   21.2696 H   0  0  0  0  0  0
  -27.3545  -24.4968   21.2230 H   0  0  0  0  0  0
  -29.0746  -24.5219   21.5464 H   0  0  0  0  0  0
  -29.4375  -21.9692   21.8256 H   0  0  0  0  0  0
  -27.6963  -22.0584   22.0117 H   0  0  0  0  0  0
  -27.9162  -25.1694   18.7801 H   0  0  0  0  0  0
  -29.5671  -25.2679   19.2625 H   0  0  0  0  0  0
  -29.1907  -20.2643   19.9966 H   0  0  0  0  0  0
  -28.6369  -17.5686   22.4780 H   0  0  0  0  0  0
  -29.2175  -22.8500   19.6488 H   0  0  0  0  0  0
  -27.6022  -22.7447   19.6978 H   0  0  0  0  0  0
  -26.4544  -20.2652   20.5710 H   0  0  0  0  0  0
  1 25  1  0  0  0
  1 30  2  0  0  0
  1 81  1  0  0  0
  2  3  1  0  0  0
  2 25  1  0  0  0
  2 86  1  0  0  0
  2 87  1  0  0  0
  3  4  1  0  0  0
  3 88  1  0  0  0
  3 89  1  0  0  0
  4  5  1  0  0  0
  4 90  1  0  0  0
  4 91  1  0  0  0
  5  6  1  0  0  0
  5 26  1  0  0  0
  5 92  1  0  0  0
  6 25  1  0  0  0
  6 93  1  0  0  0
  6 94  1  0  0  0
  7  8  2  0  0  0
  7 26  1  0  0  0
  7 29  1  0  0  0
  8  9  1  0  0  0
  8 22  1  0  0  0
  9 10  1  0  0  0
  9 27  2  0  0  0
 10 11  2  0  0  0
 10 15  1  0  0  0
 11 12  1  0  0  0
 11 95  1  0  0  0
 12 13  2  0  0  0
 12 96  1  0  0  0
 13 14  1  0  0  0
 13 31  1  0  0  0
 14 15  2  0  0  0
 14 97  1  0  0  0
 15 98  1  0  0  0
 16 17  2  0  0  0
 16 21  1  0  0  0
 16 31  1  0  0  0
 17 18  1  0  0  0
 17 99  1  0  0  0
 18 19  2  0  0  0
 18100  1  0  0  0
 19 20  1  0  0  0
 19 24  1  0  0  0
 20 21  2  0  0  0
 20101  1  0  0  0
 21 23  1  0  0  0
 22 28  1  0  0  0
 22 32  2  0  0  0
 26 27  1  0  0  0
 28102  1  0  0  0
 28103  1  0  0  0
 29104  1  0  0  0
 29105  1  0  0  0
 33 34  1  0  0  0
 33 66  1  0  0  0
 33 70  2  0  0  0
 34 36  1  0  0  0
 34 59  1  0  0  0
 34106  1  0  0  0
 35 44  2  0  0  0
 35 45  1  0  0  0
 35 68  1  0  0  0
 36 56  1  0  0  0
 36107  1  0  0  0
 37 39  1  0  0  0
 37 47  1  0  0  0
 37 66  1  0  0  0
 37108  1  0  0  0
 38 43  2  0  0  0
 38 46  1  0  0  0
 38 47  1  0  0  0
 39 64  1  0  0  0
 39 67  2  0  0  0
 40 52  1  0  0  0
 40 53  2  0  0  0
 40 58  1  0  0  0
 41109  1  0  0  0
 41110  1  0  0  0
 41111  1  0  0  0
 41 48  1  0  0  0
 42 43  1  0  0  0
 42 66  1  0  0  0
 42112  1  0  0  0
 42113  1  0  0  0
 43 44  1  0  0  0
 44114  1  0  0  0
 45 46  2  0  0  0
 45115  1  0  0  0
 46116  1  0  0  0
 47117  1  0  0  0
 47118  1  0  0  0
 48 56  1  0  0  0
 48 65  1  0  0  0
 48119  1  0  0  0
 49 50  1  0  0  0
 49 53  1  0  0  0
 49 64  1  0  0  0
 49120  1  0  0  0
 50 51  1  0  0  0
 50121  1  0  0  0
 50122  1  0  0  0
 51 52  1  0  0  0
 51123  1  0  0  0
 51124  1  0  0  0
 52125  1  0  0  0
 52126  1  0  0  0
 53 54  1  0  0  0
 54 55  2  0  0  0
 54127  1  0  0  0
 55 57  1  0  0  0
 55128  1  0  0  0
 56 69  2  0  0  0
 57 58  2  0  0  0
 57129  1  0  0  0
 58130  1  0  0  0
 59 60  1  0  0  0
 59 61  1  0  0  0
 59 62  1  0  0  0
 60131  1  0  0  0
 60132  1  0  0  0
 60133  1  0  0  0
 61134  1  0  0  0
 61135  1  0  0  0
 61136  1  0  0  0
 62137  1  0  0  0
 62138  1  0  0  0
 62139  1  0  0  0
 63 65  1  0  0  0
 63140  1  0  0  0
 63141  1  0  0  0
 63142  1  0  0  0
 64143  1  0  0  0
 65144  1  0  0  0
 68 79  1  0  0  0
 71 80  1  0  0  0
 71 82  1  0  0  0
 71 84  2  0  0  0
 72 73  1  0  0  0
 72 74  1  0  0  0
 72145  1  0  0  0
 72146  1  0  0  0
 73 75  1  0  0  0
 73147  1  0  0  0
 73148  1  0  0  0
 74 81  1  0  0  0
 74149  1  0  0  0
 74150  1  0  0  0
 75 76  1  0  0  0
 75 81  1  0  0  0
 75151  1  0  0  0
 76 82  1  0  0  0
 76152  1  0  0  0
 76153  1  0  0  0
 77 79  1  0  0  0
 77 83  1  0  0  0
 77154  1  0  0  0
 77155  1  0  0  0
 78 80  1  0  0  0
 78 83  1  0  0  0
 78156  1  0  0  0
 78157  1  0  0  0
 79158  1  0  0  0
 79159  1  0  0  0
 80 85  1  0  0  0
 80160  1  0  0  0
 82161  1  0  0  0
 83162  1  0  0  0
 83163  1  0  0  0
 85164  1  0  0  0
M  CHG  1  83   1
M  ISO  4   1 100  68 101  79 101  81 100
M  END
> <chiral flag>
0

> <version>
0

> <s_m_source_file>
/data/baiqing/PycharmProjects/Reinvent-master-3.2/result/LINK_invent/BTK/process_docking_weight1_custom_sum_contain_oxygen_bond_distance_aromatic_linkinvent_7_9_3/rearranged_h_0127.sdf

> <i_m_source_file_index>
87

> <r_mmod_Potential_Energy-OPLS-2005>
47.9189872741699

> <r_mmod_Stretch_Energy-OPLS-2005>
38.8015060424805

> <r_mmod_Bend_Energy-OPLS-2005>
145.320556640625

> <r_mmod_Torsional_Energy-OPLS-2005>
404.632476806641

> <r_mmod_Improper_Torsional_Energy-OPLS-2005>
32.6057281494141

> <r_mmod_Van_der_Waal_Energy-OPLS-2005>
119.477081298828

> <r_mmod_Electrostatic_Energy-OPLS-2005>
-282.897766113281

> <r_mmod_Solvation_Energy-OPLS-2005>
-460.089752197266

> <b_mmod_Minimization_Converged-OPLS-2005>
0

> <r_mmod_RMS_Derivative-OPLS-2005>
7.089439868927

$$$$
87
                    3D
 Structure written by MMmdl.
182190  0  0  1  0            999 V2000
  -30.4986  -14.9374   20.4361 C   0  0  0  0  0  0
  -30.4377  -12.5777   19.5145 C   0  0  0  0  0  0
  -29.5231  -12.5377   18.2651 C   0  0  0  0  0  0
  -28.0567  -12.3163   18.6769 C   0  0  0  0  0  0
  -27.6294  -13.2450   19.8465 C   0  0  2  0  0  0
  -28.6618  -13.2375   20.9935 C   0  0  0  0  0  0
  -25.2381  -13.8218   20.5565 C   0  0  0  0  0  0
  -24.1761  -13.0481   20.9241 C   0  0  0  0  0  0
  -24.6370  -11.6948   20.8797 C   0  0  0  0  0  0
  -23.9075  -10.4315   21.0438 C   0  0  0  0  0  0
  -24.3638   -9.4223   21.9216 C   0  0  0  0  0  0
  -23.6312   -8.2258   22.0769 C   0  0  0  0  0  0
  -22.4288   -8.0281   21.3553 C   0  0  0  0  0  0
  -21.9931   -9.0272   20.4669 C   0  0  0  0  0  0
  -22.7245  -10.2153   20.3090 C   0  0  0  0  0  0
  -21.6863   -6.0735   22.5283 C   0  0  0  0  0  0
  -21.4026   -6.5656   23.8213 C   0  0  0  0  0  0
  -21.3661   -5.6814   24.9178 C   0  0  0  0  0  0
  -21.6027   -4.3069   24.7223 C   0  0  0  0  0  0
  -21.8822   -3.8162   23.4349 C   0  0  0  0  0  0
  -21.9190   -4.6971   22.3397 C   0  0  0  0  0  0
  -22.7748  -13.5218   21.1843 C   0  0  0  0  0  0
  -22.1670   -4.2158   21.0975 F   0  0  0  0  0  0
  -21.5615   -3.4542   25.7738 F   0  0  0  0  0  0
  -29.9433  -13.6607   20.4172 N   0  0  0  0  0  0
  -26.2842  -12.9465   20.3226 N   0  0  0  0  0  0
  -25.9304  -11.6611   20.5773 N   0  0  0  0  0  0
  -22.0451  -12.8199   22.0421 N   0  0  0  0  0  0
  -25.3940  -15.1919   20.3644 N   0  0  0  0  0  0
  -31.6791  -15.0417   20.0789 O   0  0  0  0  0  0
  -21.6645   -6.8869   21.4254 O   0  0  0  0  0  0
  -22.3444  -14.5535   20.6681 O   0  0  0  0  0  0
  -24.6417  -31.8464   23.1836 C   0  0  0  0  0  0
  -25.9178  -32.4720   23.8247 C   0  0  1  0  0  0
  -27.2021  -27.1192   20.1473 C   0  0  0  0  0  0
  -25.5902  -33.8534   24.2132 N   0  0  0  0  0  0
  -23.4444  -30.4578   21.5355 C   0  0  2  0  0  0
  -24.8863  -28.8751   20.1115 C   0  0  0  0  0  0
  -22.7539  -29.4551   22.4899 C   0  0  0  0  0  0
  -18.0294  -28.1397   22.8494 C   0  0  0  0  0  0
  -24.1463  -36.7252   23.2646 C   0  0  0  0  0  0
  -26.0010  -30.7059   21.3904 C   0  0  0  0  0  0
  -26.0631  -29.3175   20.7278 C   0  0  0  0  0  0
  -27.2170  -28.4512   20.7288 C   0  0  0  0  0  0
  -26.0044  -26.7730   19.4898 C   0  0  0  0  0  0
  -24.8669  -27.6160   19.4882 C   0  0  0  0  0  0
  -23.6635  -29.7770   20.1576 C   0  0  0  0  0  0
  -25.4118  -36.3060   24.0301 C   0  0  1  0  0  0
  -20.5908  -28.3730   23.1246 C   0  0  2  0  0  0
  -20.6785  -26.9430   22.5429 C   0  0  0  0  0  0
  -19.5747  -26.6384   21.5242 C   0  0  0  0  0  0
  -18.1922  -26.7940   22.1626 C   0  0  0  0  0  0
  -19.1552  -28.8881   23.2853 C   0  0  0  0  0  0
  -18.9465  -30.1490   23.8856 C   0  0  0  0  0  0
  -17.6467  -30.6608   24.0568 C   0  0  0  0  0  0
  -25.9076  -34.9441   23.5042 C   0  0  0  0  0  0
  -16.5360  -29.9083   23.6371 C   0  0  0  0  0  0
  -16.7278  -28.6507   23.0386 C   0  0  0  0  0  0
  -26.4472  -31.6634   25.0716 C   0  0  0  0  0  0
  -25.3608  -31.3880   26.1377 C   0  0  0  0  0  0
  -27.0387  -30.3026   24.6394 C   0  0  0  0  0  0
  -27.5955  -32.4457   25.7509 C   0  0  0  0  0  0
  -27.5587  -37.1760   24.8452 C   0  0  0  0  0  0
  -21.4252  -29.3057   22.3628 N   0  0  0  0  0  0
  -26.4280  -37.3779   23.9424 N   0  0  0  0  0  0
  -24.7147  -31.0242   22.0911 N   0  0  0  0  0  0
  -23.4158  -28.8153   23.3107 O   0  0  0  0  0  0
  -28.2683  -26.1616   20.2772 O   0  0  0  0  0  0
  -26.5706  -34.8944   22.4649 O   0  0  0  0  0  0
  -23.5534  -32.1348   23.7047 O   0  0  0  0  0  0
  -28.3323  -19.0972   13.3967 C   0  0  0  0  0  0
  -27.1734  -19.8982   14.0094 C   0  0  0  0  0  0
  -29.6482  -19.4201   14.1262 C   0  0  0  0  0  0
  -27.0629  -19.6842   15.5389 C   0  0  1  0  0  0
  -28.4396  -19.9895   16.2031 C   0  0  1  0  0  0
  -24.5232  -19.7812   15.8465 C   0  0  0  0  0  0
  -28.2477  -19.7014   22.9837 C   0  0  0  0  0  0
  -27.9995  -23.1817   20.3793 C   0  0  0  0  0  0
  -29.2778  -20.4187   18.4931 C   0  0  0  0  0  0
  -29.7321  -17.5612   20.0514 C   0  0  0  0  0  0
  -28.3787  -24.7012   19.7310 C   0  0  0  0  0  0
  -25.8513  -20.5129   16.0833 C   0  0  1  0  0  0
  -28.7627  -20.4330   19.9573 C   0  0  1  0  0  0
  -29.2979  -19.0304   20.7929 C   0  0  1  0  0  0
  -29.6809  -16.0852   20.6380 N   0  0  0  0  0  0
  -28.3737  -19.6658   17.6293 N   0  0  0  0  0  0
  -28.9948  -21.9219   20.4981 N   0  0  0  0  0  0
  -29.5152  -19.1825   15.5806 N   0  3  0  0  0  0
  -28.3288  -18.7240   21.8749 N   0  3  0  0  0  0
  -25.8802  -20.7403   17.4860 O   0  0  0  0  0  0
  -31.4731  -12.7378   19.2101 H   0  0  0  0  0  0
  -30.4293  -11.6165   20.0297 H   0  0  0  0  0  0
  -29.8437  -11.7489   17.5844 H   0  0  0  0  0  0
  -29.6073  -13.4721   17.7089 H   0  0  0  0  0  0
  -27.9583  -11.2758   18.9889 H   0  0  0  0  0  0
  -27.3880  -12.4421   17.8227 H   0  0  0  0  0  0
  -27.6013  -14.2513   19.4320 H   0  0  0  0  0  0
  -28.7407  -12.2443   21.4369 H   0  0  0  0  0  0
  -28.3553  -13.9024   21.8001 H   0  0  0  0  0  0
  -25.2785   -9.5696   22.4797 H   0  0  0  0  0  0
  -24.0013   -7.4644   22.7501 H   0  0  0  0  0  0
  -21.0857   -8.8831   19.8980 H   0  0  0  0  0  0
  -22.3719  -10.9722   19.6215 H   0  0  0  0  0  0
  -21.2064   -7.6176   23.9699 H   0  0  0  0  0  0
  -21.1462   -6.0563   25.9071 H   0  0  0  0  0  0
  -22.0593   -2.7625   23.2848 H   0  0  0  0  0  0
  -22.4105  -11.9866   22.4835 H   0  0  0  0  0  0
  -21.1087  -13.1222   22.2745 H   0  0  0  0  0  0
  -24.5273  -15.7221   20.3196 H   0  0  0  0  0  0
  -26.0334  -15.4865   19.6397 H   0  0  0  0  0  0
  -26.7248  -32.5291   23.0983 H   0  0  0  0  0  0
  -24.9994  -33.9637   25.0249 H   0  0  0  0  0  0
  -22.7490  -31.2879   21.3790 H   0  0  0  0  0  0
  -23.3797  -35.9505   23.3280 H   0  0  0  0  0  0
  -24.3528  -36.8932   22.2063 H   0  0  0  0  0  0
  -23.7123  -37.6385   23.6732 H   0  0  0  0  0  0
  -26.1694  -31.4586   20.6208 H   0  0  0  0  0  0
  -26.8698  -30.7422   22.0395 H   0  0  0  0  0  0
  -28.1123  -28.7786   21.2357 H   0  0  0  0  0  0
  -25.9134  -25.8041   19.0222 H   0  0  0  0  0  0
  -23.9578  -27.2650   19.0195 H   0  0  0  0  0  0
  -23.7855  -30.5448   19.3928 H   0  0  0  0  0  0
  -22.7764  -29.2075   19.8713 H   0  0  0  0  0  0
  -25.1307  -36.1894   25.0785 H   0  0  0  0  0  0
  -20.9973  -28.3342   24.1369 H   0  0  0  0  0  0
  -20.5693  -26.2350   23.3657 H   0  0  0  0  0  0
  -21.6646  -26.7454   22.1209 H   0  0  0  0  0  0
  -19.6908  -25.6286   21.1276 H   0  0  0  0  0  0
  -19.6677  -27.3192   20.6774 H   0  0  0  0  0  0
  -17.4209  -26.6744   21.4004 H   0  0  0  0  0  0
  -18.0261  -26.0069   22.8998 H   0  0  0  0  0  0
  -19.7957  -30.7342   24.2149 H   0  0  0  0  0  0
  -17.5034  -31.6269   24.5198 H   0  0  0  0  0  0
  -15.5354  -30.2978   23.7732 H   0  0  0  0  0  0
  -15.8675  -28.0827   22.7114 H   0  0  0  0  0  0
  -24.5718  -30.7316   25.7696 H   0  0  0  0  0  0
  -24.8850  -32.3086   26.4754 H   0  0  0  0  0  0
  -25.7766  -30.9038   27.0220 H   0  0  0  0  0  0
  -26.3075  -29.6724   24.1313 H   0  0  0  0  0  0
  -27.3894  -29.7348   25.5040 H   0  0  0  0  0  0
  -27.9005  -30.4282   23.9830 H   0  0  0  0  0  0
  -27.2492  -33.3769   26.2031 H   0  0  0  0  0  0
  -28.3761  -32.7047   25.0339 H   0  0  0  0  0  0
  -28.0660  -31.8666   26.5467 H   0  0  0  0  0  0
  -28.2569  -38.0108   24.7623 H   0  0  0  0  0  0
  -28.1109  -36.2642   24.6136 H   0  0  0  0  0  0
  -27.2306  -37.1246   25.8848 H   0  0  0  0  0  0
  -20.9482  -29.8682   21.6726 H   0  0  0  0  0  0
  -26.0167  -38.2827   24.1519 H   0  0  0  0  0  0
  -28.4273  -19.3351   12.3341 H   0  0  0  0  0  0
  -28.1258  -18.0271   13.4468 H   0  0  0  0  0  0
  -26.2432  -19.6313   13.5075 H   0  0  0  0  0  0
  -27.3339  -20.9585   13.8076 H   0  0  0  0  0  0
  -29.9216  -20.4620   13.9572 H   0  0  0  0  0  0
  -30.4658  -18.8158   13.7275 H   0  0  0  0  0  0
  -26.8514  -18.6298   15.7168 H   0  0  0  0  0  0
  -28.6562  -21.0498   16.0598 H   0  0  0  0  0  0
  -24.3640  -19.5384   14.7981 H   0  0  0  0  0  0
  -23.6764  -20.3805   16.1810 H   0  0  0  0  0  0
  -24.5008  -18.8452   16.4061 H   0  0  0  0  0  0
  -27.3426  -19.5269   23.5697 H   0  0  0  0  0  0
  -28.2058  -20.7301   22.6363 H   0  0  0  0  0  0
  -29.1057  -19.6029   23.6476 H   0  0  0  0  0  0
  -27.0798  -22.8526   19.8896 H   0  0  0  0  0  0
  -27.6592  -23.3985   21.3896 H   0  0  0  0  0  0
  -30.2946  -20.0247   18.4392 H   0  0  0  0  0  0
  -29.3379  -21.4453   18.1274 H   0  0  0  0  0  0
  -30.7424  -17.6910   19.6655 H   0  0  0  0  0  0
  -29.1141  -17.4906   19.1578 H   0  0  0  0  0  0
  -27.9431  -24.7190   18.7316 H   0  0  0  0  0  0
  -29.4459  -24.6312   19.5241 H   0  0  0  0  0  0
  -25.8312  -21.4873   15.5872 H   0  0  0  0  0  0
  -27.6779  -20.3181   19.8939 H   0  0  0  0  0  0
  -30.2082  -19.3321   21.3118 H   0  0  0  0  0  0
  -28.7684  -15.8225   20.9821 H   0  0  0  0  0  0
  -27.4101  -19.9499   17.8773 H   0  0  0  0  0  0
  -29.9491  -22.2169   20.2890 H   0  0  0  0  0  0
  -30.3976  -19.4000   16.0143 H   0  0  0  0  0  0
  -29.3316  -18.2054   15.7338 H   0  0  0  0  0  0
  -27.4145  -18.6085   21.4716 H   0  0  0  0  0  0
  -28.5886  -17.8450   22.2912 H   0  0  0  0  0  0
  -25.1389  -21.2979   17.7059 H   0  0  0  0  0  0
  1 25  1  0  0  0
  1 30  2  0  0  0
  1 85  1  0  0  0
  2  3  1  0  0  0
  2 25  1  0  0  0
  2 91  1  0  0  0
  2 92  1  0  0  0
  3  4  1  0  0  0
  3 93  1  0  0  0
  3 94  1  0  0  0
  4  5  1  0  0  0
  4 95  1  0  0  0
  4 96  1  0  0  0
  5  6  1  0  0  0
  5 26  1  0  0  0
  5 97  1  0  0  0
  6 25  1  0  0  0
  6 98  1  0  0  0
  6 99  1  0  0  0
  7  8  2  0  0  0
  7 26  1  0  0  0
  7 29  1  0  0  0
  8  9  1  0  0  0
  8 22  1  0  0  0
  9 10  1  0  0  0
  9 27  2  0  0  0
 10 11  2  0  0  0
 10 15  1  0  0  0
 11 12  1  0  0  0
 11100  1  0  0  0
 12 13  2  0  0  0
 12101  1  0  0  0
 13 14  1  0  0  0
 13 31  1  0  0  0
 14 15  2  0  0  0
 14102  1  0  0  0
 15103  1  0  0  0
 16 17  2  0  0  0
 16 21  1  0  0  0
 16 31  1  0  0  0
 17 18  1  0  0  0
 17104  1  0  0  0
 18 19  2  0  0  0
 18105  1  0  0  0
 19 20  1  0  0  0
 19 24  1  0  0  0
 20 21  2  0  0  0
 20106  1  0  0  0
 21 23  1  0  0  0
 22 28  1  0  0  0
 22 32  2  0  0  0
 26 27  1  0  0  0
 28107  1  0  0  0
 28108  1  0  0  0
 29109  1  0  0  0
 29110  1  0  0  0
 33 34  1  0  0  0
 33 66  1  0  0  0
 33 70  2  0  0  0
 34 36  1  0  0  0
 34 59  1  0  0  0
 34111  1  0  0  0
 35 44  2  0  0  0
 35 45  1  0  0  0
 35 68  1  0  0  0
 36 56  1  0  0  0
 36112  1  0  0  0
 37 39  1  0  0  0
 37 47  1  0  0  0
 37 66  1  0  0  0
 37113  1  0  0  0
 38 43  2  0  0  0
 38 46  1  0  0  0
 38 47  1  0  0  0
 39 64  1  0  0  0
 39 67  2  0  0  0
 40 52  1  0  0  0
 40 53  2  0  0  0
 40 58  1  0  0  0
 41114  1  0  0  0
 41115  1  0  0  0
 41116  1  0  0  0
 41 48  1  0  0  0
 42 43  1  0  0  0
 42 66  1  0  0  0
 42117  1  0  0  0
 42118  1  0  0  0
 43 44  1  0  0  0
 44119  1  0  0  0
 45 46  2  0  0  0
 45120  1  0  0  0
 46121  1  0  0  0
 47122  1  0  0  0
 47123  1  0  0  0
 48 56  1  0  0  0
 48 65  1  0  0  0
 48124  1  0  0  0
 49 50  1  0  0  0
 49 53  1  0  0  0
 49 64  1  0  0  0
 49125  1  0  0  0
 50 51  1  0  0  0
 50126  1  0  0  0
 50127  1  0  0  0
 51 52  1  0  0  0
 51128  1  0  0  0
 51129  1  0  0  0
 52130  1  0  0  0
 52131  1  0  0  0
 53 54  1  0  0  0
 54 55  2  0  0  0
 54132  1  0  0  0
 55 57  1  0  0  0
 55133  1  0  0  0
 56 69  2  0  0  0
 57 58  2  0  0  0
 57134  1  0  0  0
 58135  1  0  0  0
 59 60  1  0  0  0
 59 61  1  0  0  0
 59 62  1  0  0  0
 60136  1  0  0  0
 60137  1  0  0  0
 60138  1  0  0  0
 61139  1  0  0  0
 61140  1  0  0  0
 61141  1  0  0  0
 62142  1  0  0  0
 62143  1  0  0  0
 62144  1  0  0  0
 63 65  1  0  0  0
 63145  1  0  0  0
 63146  1  0  0  0
 63147  1  0  0  0
 64148  1  0  0  0
 65149  1  0  0  0
 68 81  1  0  0  0
 71 72  1  0  0  0
 71 73  1  0  0  0
 71150  1  0  0  0
 71151  1  0  0  0
 72152  1  0  0  0
 72153  1  0  0  0
 72 74  1  0  0  0
 73 88  1  0  0  0
 73154  1  0  0  0
 73155  1  0  0  0
 74 75  1  0  0  0
 74 82  1  0  0  0
 74156  1  0  0  0
 75 86  1  0  0  0
 75 88  1  0  0  0
 75157  1  0  0  0
 76158  1  0  0  0
 76159  1  0  0  0
 76160  1  0  0  0
 76 82  1  0  0  0
 77 89  1  0  0  0
 77161  1  0  0  0
 77162  1  0  0  0
 77163  1  0  0  0
 78 81  1  0  0  0
 78 87  1  0  0  0
 78164  1  0  0  0
 78165  1  0  0  0
 79 86  1  0  0  0
 79166  1  0  0  0
 79167  1  0  0  0
 79 83  1  0  0  0
 80 85  1  0  0  0
 80168  1  0  0  0
 80169  1  0  0  0
 80 84  1  0  0  0
 81170  1  0  0  0
 81171  1  0  0  0
 82 90  1  0  0  0
 82172  1  0  0  0
 83 84  1  0  0  0
 83 87  1  0  0  0
 83173  1  0  0  0
 84 89  1  0  0  0
 84174  1  0  0  0
 85175  1  0  0  0
 86176  1  0  0  0
 87177  1  0  0  0
 88178  1  0  0  0
 88179  1  0  0  0
 89180  1  0  0  0
 89181  1  0  0  0
 90182  1  0  0  0
M  CHG  2  88   1  89   1
M  ISO  4   1 100  68 101  81 101  85 100
M  END
> <chiral flag>
0

> <version>
0

> <s_m_source_file>
/data/baiqing/PycharmProjects/Reinvent-master-3.2/result/LINK_invent/BTK/process_docking_weight1_custom_sum_contain_oxygen_bond_distance_aromatic_linkinvent_7_9_3/rearranged_h_0127.sdf

> <i_m_source_file_index>
88

> <r_mmod_Potential_Energy-OPLS-2005>
403.458343505859

> <r_mmod_Stretch_Energy-OPLS-2005>
304.535522460938

> <r_mmod_Bend_Energy-OPLS-2005>
330.874328613281

> <r_mmod_Torsional_Energy-OPLS-2005>
370.329040527344

> <r_mmod_Improper_Torsional_Energy-OPLS-2005>
10.7884244918823

> <r_mmod_Van_der_Waal_Energy-OPLS-2005>
125.05403137207

> <r_mmod_Electrostatic_Energy-OPLS-2005>
-20.1470546722412

> <r_mmod_Solvation_Energy-OPLS-2005>
-914.025512695312

> <b_mmod_Minimization_Converged-OPLS-2005>
0

> <r_mmod_RMS_Derivative-OPLS-2005>
5.88834095001221

$$$$
88
                    3D
 Structure written by MMmdl.
174182  0  0  1  0            999 V2000
  -30.6940  -14.4608   20.6041 C   0  0  0  0  0  0
  -30.4369  -12.3134   19.4175 C   0  0  0  0  0  0
  -29.4987  -12.5071   18.2065 C   0  0  0  0  0  0
  -28.0197  -12.3647   18.6188 C   0  0  0  0  0  0
  -27.6658  -13.2011   19.8773 C   0  0  2  0  0  0
  -28.7057  -12.9622   20.9956 C   0  0  0  0  0  0
  -25.2613  -13.8157   20.5689 C   0  0  0  0  0  0
  -24.1851  -13.0442   20.9186 C   0  0  0  0  0  0
  -24.6401  -11.6904   20.8745 C   0  0  0  0  0  0
  -23.9067  -10.4297   21.0414 C   0  0  0  0  0  0
  -24.3616   -9.4214   21.9198 C   0  0  0  0  0  0
  -23.6295   -8.2251   22.0762 C   0  0  0  0  0  0
  -22.4278   -8.0296   21.3547 C   0  0  0  0  0  0
  -21.9915   -9.0274   20.4648 C   0  0  0  0  0  0
  -22.7243  -10.2152   20.3056 C   0  0  0  0  0  0
  -21.6852   -6.0746   22.5287 C   0  0  0  0  0  0
  -21.4010   -6.5648   23.8224 C   0  0  0  0  0  0
  -21.3656   -5.6794   24.9179 C   0  0  0  0  0  0
  -21.6033   -4.3057   24.7227 C   0  0  0  0  0  0
  -21.8822   -3.8154   23.4344 C   0  0  0  0  0  0
  -21.9193   -4.6975   22.3399 C   0  0  0  0  0  0
  -22.7868  -13.5253   21.1827 C   0  0  0  0  0  0
  -22.1663   -4.2159   21.0975 F   0  0  0  0  0  0
  -21.5624   -3.4537   25.7739 F   0  0  0  0  0  0
  -30.0416  -13.2779   20.4538 N   0  0  0  0  0  0
  -26.3047  -12.9316   20.3380 N   0  0  0  0  0  0
  -25.9325  -11.6477   20.5766 N   0  0  0  0  0  0
  -22.0476  -12.8269   22.0377 N   0  0  0  0  0  0
  -25.4356  -15.1874   20.4104 N   0  0  0  0  0  0
  -31.7939  -14.7015   20.0955 O   0  0  0  0  0  0
  -21.6636   -6.8898   21.4253 O   0  0  0  0  0  0
  -22.3578  -14.5570   20.6674 O   0  0  0  0  0  0
  -24.6144  -31.8674   23.2087 C   0  0  0  0  0  0
  -25.9035  -32.4824   23.8377 C   0  0  1  0  0  0
  -27.2395  -27.4402   20.0822 C   0  0  0  0  0  0
  -25.5913  -33.8627   24.2318 N   0  0  0  0  0  0
  -23.4017  -30.4956   21.5434 C   0  0  2  0  0  0
  -24.8485  -28.9634   20.1094 C   0  0  0  0  0  0
  -22.7423  -29.4667   22.4909 C   0  0  0  0  0  0
  -18.0298  -28.1400   22.8463 C   0  0  0  0  0  0
  -24.1510  -36.7302   23.2649 C   0  0  0  0  0  0
  -25.9324  -30.8343   21.3639 C   0  0  0  0  0  0
  -26.0082  -29.4699   20.7090 C   0  0  0  0  0  0
  -27.2002  -28.7129   20.6976 C   0  0  0  0  0  0
  -26.0609  -26.9569   19.4624 C   0  0  0  0  0  0
  -24.8713  -27.7047   19.4875 C   0  0  0  0  0  0
  -23.6147  -29.8326   20.1569 C   0  0  0  0  0  0
  -25.4121  -36.3106   24.0357 C   0  0  1  0  0  0
  -20.5884  -28.3678   23.1284 C   0  0  2  0  0  0
  -20.6787  -26.9402   22.5408 C   0  0  0  0  0  0
  -19.5776  -26.6388   21.5210 C   0  0  0  0  0  0
  -18.1947  -26.7950   22.1606 C   0  0  0  0  0  0
  -19.1550  -28.8846   23.2887 C   0  0  0  0  0  0
  -18.9490  -30.1447   23.8901 C   0  0  0  0  0  0
  -17.6496  -30.6583   24.0573 C   0  0  0  0  0  0
  -25.9042  -34.9478   23.5121 C   0  0  0  0  0  0
  -16.5374  -29.9101   23.6320 C   0  0  0  0  0  0
  -16.7293  -28.6538   23.0296 C   0  0  0  0  0  0
  -26.4473  -31.6608   25.0697 C   0  0  0  0  0  0
  -25.3749  -31.3719   26.1456 C   0  0  0  0  0  0
  -27.0316  -30.3065   24.6040 C   0  0  0  0  0  0
  -27.6042  -32.4331   25.7455 C   0  0  0  0  0  0
  -27.5589  -37.1801   24.8469 C   0  0  0  0  0  0
  -21.4142  -29.3062   22.3694 N   0  0  0  0  0  0
  -26.4301  -37.3785   23.9428 N   0  0  0  0  0  0
  -24.6672  -31.0799   22.0972 N   0  0  0  0  0  0
  -23.4217  -28.8182   23.2907 O   0  0  0  0  0  0
  -28.4305  -26.7379   20.1103 O   0  0  0  0  0  0
  -26.5587  -34.8921   22.4666 O   0  0  0  0  0  0
  -23.5332  -32.1431   23.7480 O   0  0  0  0  0  0
  -29.5745  -18.8007   22.8890 C   0  0  0  0  0  0
  -31.8042  -17.5263   23.1043 C   0  0  0  0  0  0
  -30.3368  -17.4659   22.6282 C   0  0  2  0  0  0
  -30.3598  -20.1438   22.7407 C   0  0  1  0  0  0
  -31.8236  -19.9911   23.2773 C   0  0  2  0  0  0
  -32.2427  -22.4364   24.0083 C   0  0  0  0  0  0
  -34.2005  -20.9543   23.5915 C   0  0  0  0  0  0
  -30.1854  -16.8703   21.2022 C   0  0  0  0  0  0
  -30.1533  -20.8348   21.3484 C   0  0  0  0  0  0
  -29.4623  -24.5916   20.6178 C   0  0  0  0  0  0
  -29.5312  -23.0703   20.3208 C   0  0  0  0  0  0
  -28.4547  -25.3528   19.7354 C   0  0  0  0  0  0
  -32.7464  -21.2455   23.1640 C   0  0  0  0  0  0
  -29.9849  -15.4121   21.2330 N   0  0  0  0  0  0
  -32.4633  -18.7871   22.6986 N   0  3  0  0  0  0
  -30.1973  -22.3247   21.4212 N   0  3  0  0  0  0
  -31.4781  -12.4373   19.1117 H   0  0  0  0  0  0
  -30.3617  -11.2981   19.8098 H   0  0  0  0  0  0
  -29.7402  -11.7799   17.4302 H   0  0  0  0  0  0
  -29.6612  -13.4923   17.7654 H   0  0  0  0  0  0
  -27.8308  -11.3088   18.8146 H   0  0  0  0  0  0
  -27.3690  -12.6418   17.7885 H   0  0  0  0  0  0
  -27.7160  -14.2509   19.5875 H   0  0  0  0  0  0
  -28.6838  -11.9184   21.3127 H   0  0  0  0  0  0
  -28.4583  -13.5362   21.8898 H   0  0  0  0  0  0
  -25.2760   -9.5686   22.4774 H   0  0  0  0  0  0
  -23.9998   -7.4635   22.7474 H   0  0  0  0  0  0
  -21.0851   -8.8798   19.8942 H   0  0  0  0  0  0
  -22.3720  -10.9697   19.6155 H   0  0  0  0  0  0
  -21.2006   -7.6155   23.9733 H   0  0  0  0  0  0
  -21.1463   -6.0517   25.9083 H   0  0  0  0  0  0
  -22.0600   -2.7616   23.2840 H   0  0  0  0  0  0
  -22.4053  -11.9931   22.4798 H   0  0  0  0  0  0
  -21.1076  -13.1297   22.2497 H   0  0  0  0  0  0
  -24.6719  -15.8460   20.5217 H   0  0  0  0  0  0
  -26.2901  -15.6242   20.0882 H   0  0  0  0  0  0
  -26.7083  -32.5537   23.1113 H   0  0  0  0  0  0
  -25.0122  -33.9805   25.0498 H   0  0  0  0  0  0
  -22.6940  -31.3141   21.3990 H   0  0  0  0  0  0
  -23.3787  -35.9623   23.3302 H   0  0  0  0  0  0
  -24.3607  -36.8903   22.2062 H   0  0  0  0  0  0
  -23.7250  -37.6506   23.6642 H   0  0  0  0  0  0
  -26.0492  -31.6008   20.5969 H   0  0  0  0  0  0
  -26.8212  -30.8846   21.9822 H   0  0  0  0  0  0
  -28.0944  -29.0986   21.1689 H   0  0  0  0  0  0
  -26.0320  -26.0136   18.9381 H   0  0  0  0  0  0
  -23.9836  -27.3139   19.0099 H   0  0  0  0  0  0
  -23.7333  -30.6111   19.4028 H   0  0  0  0  0  0
  -22.7399  -29.2578   19.8473 H   0  0  0  0  0  0
  -25.1289  -36.1974   25.0852 H   0  0  0  0  0  0
  -20.9982  -28.3247   24.1403 H   0  0  0  0  0  0
  -20.5713  -26.2269   23.3599 H   0  0  0  0  0  0
  -21.6644  -26.7453   22.1181 H   0  0  0  0  0  0
  -19.6931  -25.6304   21.1233 H   0  0  0  0  0  0
  -19.6727  -27.3202   20.6755 H   0  0  0  0  0  0
  -17.4218  -26.6709   21.4006 H   0  0  0  0  0  0
  -18.0302  -26.0102   22.9006 H   0  0  0  0  0  0
  -19.7975  -30.7242   24.2261 H   0  0  0  0  0  0
  -17.5076  -31.6263   24.5166 H   0  0  0  0  0  0
  -15.5385  -30.3011   23.7666 H   0  0  0  0  0  0
  -15.8698  -28.0894   22.6969 H   0  0  0  0  0  0
  -24.5915  -30.7070   25.7796 H   0  0  0  0  0  0
  -24.8955  -32.2891   26.4905 H   0  0  0  0  0  0
  -25.8125  -30.8888   27.0208 H   0  0  0  0  0  0
  -26.2854  -29.6802   24.1127 H   0  0  0  0  0  0
  -27.4187  -29.7303   25.4463 H   0  0  0  0  0  0
  -27.8638  -30.4424   23.9120 H   0  0  0  0  0  0
  -27.2648  -33.3621   26.2042 H   0  0  0  0  0  0
  -28.3832  -32.6915   25.0267 H   0  0  0  0  0  0
  -28.0714  -31.8452   26.5363 H   0  0  0  0  0  0
  -28.2574  -38.0119   24.7499 H   0  0  0  0  0  0
  -28.1111  -36.2645   24.6297 H   0  0  0  0  0  0
  -27.2303  -37.1437   25.8868 H   0  0  0  0  0  0
  -20.9290  -29.8836   21.6952 H   0  0  0  0  0  0
  -26.0206  -38.2872   24.1429 H   0  0  0  0  0  0
  -29.2422  -18.7570   23.9278 H   0  0  0  0  0  0
  -28.6423  -18.8222   22.3233 H   0  0  0  0  0  0
  -32.3666  -16.6730   22.7207 H   0  0  0  0  0  0
  -31.8428  -17.4433   24.1924 H   0  0  0  0  0  0
  -29.8432  -16.7450   23.2842 H   0  0  0  0  0  0
  -29.8489  -20.8024   23.4448 H   0  0  0  0  0  0
  -31.7416  -19.7889   24.3481 H   0  0  0  0  0  0
  -31.2065  -22.7045   23.8163 H   0  0  0  0  0  0
  -32.8441  -23.3280   23.8164 H   0  0  0  0  0  0
  -32.3145  -22.2276   25.0768 H   0  0  0  0  0  0
  -34.6991  -20.2446   22.9305 H   0  0  0  0  0  0
  -34.2524  -20.5607   24.6075 H   0  0  0  0  0  0
  -34.8004  -21.8658   23.5717 H   0  0  0  0  0  0
  -31.0255  -17.1503   20.5645 H   0  0  0  0  0  0
  -29.3006  -17.2834   20.7179 H   0  0  0  0  0  0
  -29.1611  -20.5687   20.9838 H   0  0  0  0  0  0
  -30.8538  -20.4619   20.5994 H   0  0  0  0  0  0
  -30.4516  -25.0355   20.5097 H   0  0  0  0  0  0
  -29.1700  -24.7463   21.6571 H   0  0  0  0  0  0
  -30.0585  -22.8987   19.3810 H   0  0  0  0  0  0
  -28.5218  -22.6765   20.1925 H   0  0  0  0  0  0
  -27.4931  -24.8604   19.8712 H   0  0  0  0  0  0
  -28.7266  -25.2728   18.6823 H   0  0  0  0  0  0
  -32.7891  -21.5567   22.1208 H   0  0  0  0  0  0
  -29.1067  -15.0898   21.6147 H   0  0  0  0  0  0
  -32.5157  -18.8474   21.6944 H   0  0  0  0  0  0
  -33.4112  -18.7548   23.0419 H   0  0  0  0  0  0
  -31.1531  -22.6364   21.4746 H   0  0  0  0  0  0
  -29.7280  -22.5993   22.2683 H   0  0  0  0  0  0
  1 25  1  0  0  0
  1 30  2  0  0  0
  1 84  1  0  0  0
  2  3  1  0  0  0
  2 25  1  0  0  0
  2 87  1  0  0  0
  2 88  1  0  0  0
  3  4  1  0  0  0
  3 89  1  0  0  0
  3 90  1  0  0  0
  4  5  1  0  0  0
  4 91  1  0  0  0
  4 92  1  0  0  0
  5  6  1  0  0  0
  5 26  1  0  0  0
  5 93  1  0  0  0
  6 25  1  0  0  0
  6 94  1  0  0  0
  6 95  1  0  0  0
  7  8  2  0  0  0
  7 26  1  0  0  0
  7 29  1  0  0  0
  8  9  1  0  0  0
  8 22  1  0  0  0
  9 10  1  0  0  0
  9 27  2  0  0  0
 10 11  2  0  0  0
 10 15  1  0  0  0
 11 12  1  0  0  0
 11 96  1  0  0  0
 12 13  2  0  0  0
 12 97  1  0  0  0
 13 14  1  0  0  0
 13 31  1  0  0  0
 14 15  2  0  0  0
 14 98  1  0  0  0
 15 99  1  0  0  0
 16 17  2  0  0  0
 16 21  1  0  0  0
 16 31  1  0  0  0
 17 18  1  0  0  0
 17100  1  0  0  0
 18 19  2  0  0  0
 18101  1  0  0  0
 19 20  1  0  0  0
 19 24  1  0  0  0
 20 21  2  0  0  0
 20102  1  0  0  0
 21 23  1  0  0  0
 22 28  1  0  0  0
 22 32  2  0  0  0
 26 27  1  0  0  0
 28103  1  0  0  0
 28104  1  0  0  0
 29105  1  0  0  0
 29106  1  0  0  0
 33 34  1  0  0  0
 33 66  1  0  0  0
 33 70  2  0  0  0
 34 36  1  0  0  0
 34 59  1  0  0  0
 34107  1  0  0  0
 35 44  2  0  0  0
 35 45  1  0  0  0
 35 68  1  0  0  0
 36 56  1  0  0  0
 36108  1  0  0  0
 37 39  1  0  0  0
 37 47  1  0  0  0
 37 66  1  0  0  0
 37109  1  0  0  0
 38 43  2  0  0  0
 38 46  1  0  0  0
 38 47  1  0  0  0
 39 64  1  0  0  0
 39 67  2  0  0  0
 40 52  1  0  0  0
 40 53  2  0  0  0
 40 58  1  0  0  0
 41110  1  0  0  0
 41111  1  0  0  0
 41112  1  0  0  0
 41 48  1  0  0  0
 42 43  1  0  0  0
 42 66  1  0  0  0
 42113  1  0  0  0
 42114  1  0  0  0
 43 44  1  0  0  0
 44115  1  0  0  0
 45 46  2  0  0  0
 45116  1  0  0  0
 46117  1  0  0  0
 47118  1  0  0  0
 47119  1  0  0  0
 48 56  1  0  0  0
 48 65  1  0  0  0
 48120  1  0  0  0
 49 50  1  0  0  0
 49 53  1  0  0  0
 49 64  1  0  0  0
 49121  1  0  0  0
 50 51  1  0  0  0
 50122  1  0  0  0
 50123  1  0  0  0
 51 52  1  0  0  0
 51124  1  0  0  0
 51125  1  0  0  0
 52126  1  0  0  0
 52127  1  0  0  0
 53 54  1  0  0  0
 54 55  2  0  0  0
 54128  1  0  0  0
 55 57  1  0  0  0
 55129  1  0  0  0
 56 69  2  0  0  0
 57 58  2  0  0  0
 57130  1  0  0  0
 58131  1  0  0  0
 59 60  1  0  0  0
 59 61  1  0  0  0
 59 62  1  0  0  0
 60132  1  0  0  0
 60133  1  0  0  0
 60134  1  0  0  0
 61135  1  0  0  0
 61136  1  0  0  0
 61137  1  0  0  0
 62138  1  0  0  0
 62139  1  0  0  0
 62140  1  0  0  0
 63 65  1  0  0  0
 63141  1  0  0  0
 63142  1  0  0  0
 63143  1  0  0  0
 64144  1  0  0  0
 65145  1  0  0  0
 68 82  1  0  0  0
 71 73  1  0  0  0
 71 74  1  0  0  0
 71146  1  0  0  0
 71147  1  0  0  0
 72 73  1  0  0  0
 72 85  1  0  0  0
 72148  1  0  0  0
 72149  1  0  0  0
 73 78  1  0  0  0
 73150  1  0  0  0
 74 75  1  0  0  0
 74 79  1  0  0  0
 74151  1  0  0  0
 75 83  1  0  0  0
 75 85  1  0  0  0
 75152  1  0  0  0
 76153  1  0  0  0
 76154  1  0  0  0
 76155  1  0  0  0
 76 83  1  0  0  0
 77 83  1  0  0  0
 77156  1  0  0  0
 77157  1  0  0  0
 77158  1  0  0  0
 78 84  1  0  0  0
 78159  1  0  0  0
 78160  1  0  0  0
 79 86  1  0  0  0
 79161  1  0  0  0
 79162  1  0  0  0
 80 81  1  0  0  0
 80 82  1  0  0  0
 80163  1  0  0  0
 80164  1  0  0  0
 81 86  1  0  0  0
 81165  1  0  0  0
 81166  1  0  0  0
 82167  1  0  0  0
 82168  1  0  0  0
 83169  1  0  0  0
 84170  1  0  0  0
 85171  1  0  0  0
 85172  1  0  0  0
 86173  1  0  0  0
 86174  1  0  0  0
M  CHG  2  85   1  86   1
M  ISO  4   1 100  68 101  82 101  84 100
M  END
> <chiral flag>
0

> <version>
0

> <s_m_source_file>
/data/baiqing/PycharmProjects/Reinvent-master-3.2/result/LINK_invent/BTK/process_docking_weight1_custom_sum_contain_oxygen_bond_distance_aromatic_linkinvent_7_9_3/rearranged_h_0127.sdf

> <i_m_source_file_index>
89

> <r_mmod_Potential_Energy-OPLS-2005>
-266.791198730469

> <r_mmod_Stretch_Energy-OPLS-2005>
41.9636001586914

> <r_mmod_Bend_Energy-OPLS-2005>
125.243469238281

> <r_mmod_Torsional_Energy-OPLS-2005>
299.368927001953

> <r_mmod_Improper_Torsional_Energy-OPLS-2005>
3.62762260437012

> <r_mmod_Van_der_Waal_Energy-OPLS-2005>
141.615936279297

> <r_mmod_Electrostatic_Energy-OPLS-2005>
93.9153213500977

> <r_mmod_Solvation_Energy-OPLS-2005>
-984.424438476562

> <b_mmod_Minimization_Converged-OPLS-2005>
0

> <r_mmod_RMS_Derivative-OPLS-2005>
3.23811936378479

$$$$
89
                    3D
 Structure written by MMmdl.
172182  0  0  1  0            999 V2000
  -30.7825  -14.3619   20.6412 C   0  0  0  0  0  0
  -30.4169  -12.2763   19.3841 C   0  0  0  0  0  0
  -29.4747  -12.5051   18.1860 C   0  0  0  0  0  0
  -28.0005  -12.3807   18.6127 C   0  0  0  0  0  0
  -27.6678  -13.2064   19.8818 C   0  0  2  0  0  0
  -28.7140  -12.9506   20.9908 C   0  0  0  0  0  0
  -25.2635  -13.8184   20.5698 C   0  0  0  0  0  0
  -24.1874  -13.0458   20.9208 C   0  0  0  0  0  0
  -24.6440  -11.6934   20.8780 C   0  0  0  0  0  0
  -23.9086  -10.4319   21.0459 C   0  0  0  0  0  0
  -24.3638   -9.4233   21.9220 C   0  0  0  0  0  0
  -23.6324   -8.2260   22.0756 C   0  0  0  0  0  0
  -22.4302   -8.0306   21.3544 C   0  0  0  0  0  0
  -21.9948   -9.0288   20.4651 C   0  0  0  0  0  0
  -22.7271  -10.2178   20.3088 C   0  0  0  0  0  0
  -21.6863   -6.0771   22.5286 C   0  0  0  0  0  0
  -21.4013   -6.5665   23.8223 C   0  0  0  0  0  0
  -21.3648   -5.6805   24.9174 C   0  0  0  0  0  0
  -21.6049   -4.3065   24.7222 C   0  0  0  0  0  0
  -21.8815   -3.8170   23.4336 C   0  0  0  0  0  0
  -21.9205   -4.6999   22.3406 C   0  0  0  0  0  0
  -22.7907  -13.5271   21.1868 C   0  0  0  0  0  0
  -22.1672   -4.2189   21.0990 F   0  0  0  0  0  0
  -21.5632   -3.4550   25.7733 F   0  0  0  0  0  0
  -30.0531  -13.2318   20.4401 N   0  0  0  0  0  0
  -26.3085  -12.9344   20.3443 N   0  0  0  0  0  0
  -25.9363  -11.6515   20.5831 N   0  0  0  0  0  0
  -22.0524  -12.8242   22.0399 N   0  0  0  0  0  0
  -25.4375  -15.1894   20.4067 N   0  0  0  0  0  0
  -31.8549  -14.5904   20.0734 O   0  0  0  0  0  0
  -21.6650   -6.8916   21.4240 O   0  0  0  0  0  0
  -22.3617  -14.5595   20.6735 O   0  0  0  0  0  0
  -24.5104  -31.8690   23.2264 C   0  0  0  0  0  0
  -25.7227  -32.4902   23.9873 C   0  0  1  0  0  0
  -27.2528  -27.4933   20.0936 C   0  0  0  0  0  0
  -25.6086  -33.9202   24.2296 N   0  0  0  0  0  0
  -23.3830  -30.4897   21.5380 C   0  0  2  0  0  0
  -24.8542  -28.9786   20.1230 C   0  0  0  0  0  0
  -22.7312  -29.4567   22.4858 C   0  0  0  0  0  0
  -18.0261  -28.1409   22.8488 C   0  0  0  0  0  0
  -24.1773  -36.7393   23.2373 C   0  0  0  0  0  0
  -25.9011  -30.8848   21.3846 C   0  0  0  0  0  0
  -25.9999  -29.5048   20.7375 C   0  0  0  0  0  0
  -27.1956  -28.7563   20.7296 C   0  0  0  0  0  0
  -26.0839  -26.9801   19.4815 C   0  0  0  0  0  0
  -24.8866  -27.7173   19.5007 C   0  0  0  0  0  0
  -23.6092  -29.8280   20.1567 C   0  0  0  0  0  0
  -25.4508  -36.3223   23.9905 C   0  0  1  0  0  0
  -20.5838  -28.3651   23.1342 C   0  0  2  0  0  0
  -20.6735  -26.9389   22.5462 C   0  0  0  0  0  0
  -19.5724  -26.6386   21.5237 C   0  0  0  0  0  0
  -18.1893  -26.7960   22.1625 C   0  0  0  0  0  0
  -19.1508  -28.8837   23.2927 C   0  0  0  0  0  0
  -18.9454  -30.1451   23.8937 C   0  0  0  0  0  0
  -17.6459  -30.6609   24.0583 C   0  0  0  0  0  0
  -25.9498  -34.9561   23.4748 C   0  0  0  0  0  0
  -16.5345  -29.9123   23.6339 C   0  0  0  0  0  0
  -16.7251  -28.6546   23.0333 C   0  0  0  0  0  0
  -26.4624  -31.6242   25.0900 C   0  0  0  0  0  0
  -25.5048  -31.1881   26.2435 C   0  0  0  0  0  0
  -27.0739  -30.3266   24.5207 C   0  0  0  0  0  0
  -27.6177  -32.4351   25.7217 C   0  0  0  0  0  0
  -27.5722  -37.1973   24.8393 C   0  0  0  0  0  0
  -21.4051  -29.2957   22.3676 N   0  0  0  0  0  0
  -26.4626  -37.3919   23.9100 N   0  0  0  0  0  0
  -24.6305  -31.0965   22.1095 N   0  0  0  0  0  0
  -23.4139  -28.8132   23.2877 O   0  0  0  0  0  0
  -28.4641  -26.8390   20.1250 O   0  0  0  0  0  0
  -26.5902  -34.8567   22.4289 O   0  0  0  0  0  0
  -23.3822  -32.1195   23.6774 O   0  0  0  0  0  0
  -29.3125  -18.8397   21.5776 C   0  0  0  0  0  0
  -30.8520  -24.2757   22.3674 C   0  0  0  0  0  0
  -29.9960  -25.0730   21.5944 C   0  0  0  0  0  0
  -29.8654  -19.8086   22.4384 C   0  0  0  0  0  0
  -29.7976  -17.5339   21.7206 C   0  0  0  0  0  0
  -31.4124  -23.0951   21.8420 C   0  0  0  0  0  0
  -29.6945  -24.7323   20.2601 C   0  0  0  0  0  0
  -31.1358  -22.7405   20.4859 C   0  0  0  0  0  0
  -30.3002  -23.5786   19.6899 C   0  0  0  0  0  0
  -30.7786  -17.2497   22.6393 C   0  0  0  0  0  0
  -30.8779  -19.4318   23.3610 C   0  0  0  0  0  0
  -29.3997  -16.2922   20.9778 C   0  0  0  0  0  0
  -31.1310  -15.7908   22.5952 C   0  0  0  0  0  0
  -31.6872  -21.4669   19.8406 C   0  0  0  0  0  0
  -30.0419  -23.1935   18.2332 C   0  0  0  0  0  0
  -32.2396  -22.2460   22.8114 C   0  0  0  0  0  0
  -28.6401  -25.5613   19.5225 C   0  0  0  0  0  0
  -31.4703  -20.4199   24.3629 C   0  0  0  0  0  0
  -31.3346  -18.1557   23.4631 N   0  0  0  0  0  0
  -30.2708  -15.2314   21.5255 N   0  0  0  0  0  0
  -31.3873  -21.8310   23.9420 N   0  3  0  0  0  0
  -31.4560  -12.3761   19.0613 H   0  0  0  0  0  0
  -30.3173  -11.2561   19.7592 H   0  0  0  0  0  0
  -29.6901  -11.7805   17.3998 H   0  0  0  0  0  0
  -29.6553  -13.4907   17.7538 H   0  0  0  0  0  0
  -27.7985  -11.3245   18.7996 H   0  0  0  0  0  0
  -27.3440  -12.6784   17.7937 H   0  0  0  0  0  0
  -27.7257  -14.2585   19.6050 H   0  0  0  0  0  0
  -28.6753  -11.9108   21.3191 H   0  0  0  0  0  0
  -28.4775  -13.5406   21.8794 H   0  0  0  0  0  0
  -25.2774   -9.5724   22.4809 H   0  0  0  0  0  0
  -24.0044   -7.4655   22.7479 H   0  0  0  0  0  0
  -21.0873   -8.8826   19.8961 H   0  0  0  0  0  0
  -22.3728  -10.9739   19.6216 H   0  0  0  0  0  0
  -21.1971   -7.6167   23.9731 H   0  0  0  0  0  0
  -21.1476   -6.0538   25.9084 H   0  0  0  0  0  0
  -22.0599   -2.7641   23.2829 H   0  0  0  0  0  0
  -22.4090  -11.9871   22.4737 H   0  0  0  0  0  0
  -21.1175  -13.1322   22.2629 H   0  0  0  0  0  0
  -24.6686  -15.8452   20.4951 H   0  0  0  0  0  0
  -26.2815  -15.6185   20.0484 H   0  0  0  0  0  0
  -25.0363  -32.7436   24.7827 H   0  0  0  0  0  0
  -25.0745  -34.1560   25.0544 H   0  0  0  0  0  0
  -22.6537  -31.2906   21.3845 H   0  0  0  0  0  0
  -23.4081  -35.9692   23.3074 H   0  0  0  0  0  0
  -24.3760  -36.9078   22.1783 H   0  0  0  0  0  0
  -23.7530  -37.6559   23.6481 H   0  0  0  0  0  0
  -25.9540  -31.6284   20.5884 H   0  0  0  0  0  0
  -26.7738  -31.0728   22.0029 H   0  0  0  0  0  0
  -28.0779  -29.1507   21.2164 H   0  0  0  0  0  0
  -26.0635  -26.0289   18.9727 H   0  0  0  0  0  0
  -24.0014  -27.3160   19.0276 H   0  0  0  0  0  0
  -23.7068  -30.6017   19.3946 H   0  0  0  0  0  0
  -22.7419  -29.2367   19.8591 H   0  0  0  0  0  0
  -25.1683  -36.2112   25.0406 H   0  0  0  0  0  0
  -20.9959  -28.3248   24.1452 H   0  0  0  0  0  0
  -20.5648  -26.2243   23.3640 H   0  0  0  0  0  0
  -21.6606  -26.7438   22.1244 H   0  0  0  0  0  0
  -19.6880  -25.6290   21.1262 H   0  0  0  0  0  0
  -19.6708  -27.3203   20.6771 H   0  0  0  0  0  0
  -17.4180  -26.6735   21.4010 H   0  0  0  0  0  0
  -18.0274  -26.0117   22.9028 H   0  0  0  0  0  0
  -19.7925  -30.7270   24.2300 H   0  0  0  0  0  0
  -17.5016  -31.6292   24.5202 H   0  0  0  0  0  0
  -15.5344  -30.3046   23.7645 H   0  0  0  0  0  0
  -15.8646  -28.0902   22.6994 H   0  0  0  0  0  0
  -24.6568  -30.6119   25.8716 H   0  0  0  0  0  0
  -25.1094  -32.0351   26.8080 H   0  0  0  0  0  0
  -26.0206  -30.5578   26.9689 H   0  0  0  0  0  0
  -26.3279  -29.6994   24.0325 H   0  0  0  0  0  0
  -27.5262  -29.7207   25.3065 H   0  0  0  0  0  0
  -27.8678  -30.5365   23.8051 H   0  0  0  0  0  0
  -27.2542  -33.3130   26.2575 H   0  0  0  0  0  0
  -28.3179  -32.7836   24.9615 H   0  0  0  0  0  0
  -28.1838  -31.8387   26.4388 H   0  0  0  0  0  0
  -28.2756  -38.0264   24.7526 H   0  0  0  0  0  0
  -28.1256  -36.2792   24.6371 H   0  0  0  0  0  0
  -27.2246  -37.1686   25.8733 H   0  0  0  0  0  0
  -20.9153  -29.8699   21.6951 H   0  0  0  0  0  0
  -26.0442  -38.2997   24.0996 H   0  0  0  0  0  0
  -28.5496  -19.0833   20.8545 H   0  0  0  0  0  0
  -31.0346  -24.5650   23.3951 H   0  0  0  0  0  0
  -29.5509  -25.9417   22.0584 H   0  0  0  0  0  0
  -29.4931  -20.8190   22.3726 H   0  0  0  0  0  0
  -29.5322  -16.4325   19.9021 H   0  0  0  0  0  0
  -28.3518  -16.0568   21.1710 H   0  0  0  0  0  0
  -30.9008  -15.3119   23.5465 H   0  0  0  0  0  0
  -32.1970  -15.6596   22.4010 H   0  0  0  0  0  0
  -32.1981  -20.7687   20.4971 H   0  0  0  0  0  0
  -32.3811  -21.7272   19.0415 H   0  0  0  0  0  0
  -30.8746  -20.8938   19.3920 H   0  0  0  0  0  0
  -29.6244  -23.9898   17.6240 H   0  0  0  0  0  0
  -29.3680  -22.3383   18.1727 H   0  0  0  0  0  0
  -30.9733  -22.9236   17.7361 H   0  0  0  0  0  0
  -33.0565  -22.8508   23.2076 H   0  0  0  0  0  0
  -32.7256  -21.3920   22.3549 H   0  0  0  0  0  0
  -27.7364  -24.9538   19.5313 H   0  0  0  0  0  0
  -28.9166  -25.7491   18.4862 H   0  0  0  0  0  0
  -32.5050  -20.1603   24.5910 H   0  0  0  0  0  0
  -30.9153  -20.3036   25.2943 H   0  0  0  0  0  0
  -30.4347  -22.0204   23.6875 H   0  0  0  0  0  0
  -31.6262  -22.4013   24.7343 H   0  0  0  0  0  0
  1 25  1  0  0  0
  1 30  2  0  0  0
  1 90  1  0  0  0
  2  3  1  0  0  0
  2 25  1  0  0  0
  2 92  1  0  0  0
  2 93  1  0  0  0
  3  4  1  0  0  0
  3 94  1  0  0  0
  3 95  1  0  0  0
  4  5  1  0  0  0
  4 96  1  0  0  0
  4 97  1  0  0  0
  5  6  1  0  0  0
  5 26  1  0  0  0
  5 98  1  0  0  0
  6 25  1  0  0  0
  6 99  1  0  0  0
  6100  1  0  0  0
  7  8  2  0  0  0
  7 26  1  0  0  0
  7 29  1  0  0  0
  8  9  1  0  0  0
  8 22  1  0  0  0
  9 10  1  0  0  0
  9 27  2  0  0  0
 10 11  2  0  0  0
 10 15  1  0  0  0
 11 12  1  0  0  0
 11101  1  0  0  0
 12 13  2  0  0  0
 12102  1  0  0  0
 13 14  1  0  0  0
 13 31  1  0  0  0
 14 15  2  0  0  0
 14103  1  0  0  0
 15104  1  0  0  0
 16 17  2  0  0  0
 16 21  1  0  0  0
 16 31  1  0  0  0
 17 18  1  0  0  0
 17105  1  0  0  0
 18 19  2  0  0  0
 18106  1  0  0  0
 19 20  1  0  0  0
 19 24  1  0  0  0
 20 21  2  0  0  0
 20107  1  0  0  0
 21 23  1  0  0  0
 22 28  1  0  0  0
 22 32  2  0  0  0
 26 27  1  0  0  0
 28108  1  0  0  0
 28109  1  0  0  0
 29110  1  0  0  0
 29111  1  0  0  0
 33 34  1  0  0  0
 33 66  1  0  0  0
 33 70  2  0  0  0
 34 36  1  0  0  0
 34 59  1  0  0  0
 34112  1  0  0  0
 35 44  2  0  0  0
 35 45  1  0  0  0
 35 68  1  0  0  0
 36 56  1  0  0  0
 36113  1  0  0  0
 37 39  1  0  0  0
 37 47  1  0  0  0
 37 66  1  0  0  0
 37114  1  0  0  0
 38 43  2  0  0  0
 38 46  1  0  0  0
 38 47  1  0  0  0
 39 64  1  0  0  0
 39 67  2  0  0  0
 40 52  1  0  0  0
 40 53  2  0  0  0
 40 58  1  0  0  0
 41115  1  0  0  0
 41116  1  0  0  0
 41117  1  0  0  0
 41 48  1  0  0  0
 42 43  1  0  0  0
 42 66  1  0  0  0
 42118  1  0  0  0
 42119  1  0  0  0
 43 44  1  0  0  0
 44120  1  0  0  0
 45 46  2  0  0  0
 45121  1  0  0  0
 46122  1  0  0  0
 47123  1  0  0  0
 47124  1  0  0  0
 48 56  1  0  0  0
 48 65  1  0  0  0
 48125  1  0  0  0
 49 50  1  0  0  0
 49 53  1  0  0  0
 49 64  1  0  0  0
 49126  1  0  0  0
 50 51  1  0  0  0
 50127  1  0  0  0
 50128  1  0  0  0
 51 52  1  0  0  0
 51129  1  0  0  0
 51130  1  0  0  0
 52131  1  0  0  0
 52132  1  0  0  0
 53 54  1  0  0  0
 54 55  2  0  0  0
 54133  1  0  0  0
 55 57  1  0  0  0
 55134  1  0  0  0
 56 69  2  0  0  0
 57 58  2  0  0  0
 57135  1  0  0  0
 58136  1  0  0  0
 59 60  1  0  0  0
 59 61  1  0  0  0
 59 62  1  0  0  0
 60137  1  0  0  0
 60138  1  0  0  0
 60139  1  0  0  0
 61140  1  0  0  0
 61141  1  0  0  0
 61142  1  0  0  0
 62143  1  0  0  0
 62144  1  0  0  0
 62145  1  0  0  0
 63 65  1  0  0  0
 63146  1  0  0  0
 63147  1  0  0  0
 63148  1  0  0  0
 64149  1  0  0  0
 65150  1  0  0  0
 68 87  1  0  0  0
 71 74  2  0  0  0
 71 75  1  0  0  0
 71151  1  0  0  0
 72 73  2  0  0  0
 72 76  1  0  0  0
 72152  1  0  0  0
 73 77  1  0  0  0
 73153  1  0  0  0
 74 81  1  0  0  0
 74154  1  0  0  0
 75 80  2  0  0  0
 75 82  1  0  0  0
 76 78  2  0  0  0
 76 86  1  0  0  0
 77 79  2  0  0  0
 77 87  1  0  0  0
 78 79  1  0  0  0
 78 84  1  0  0  0
 79 85  1  0  0  0
 80 83  1  0  0  0
 80 89  1  0  0  0
 81 88  1  0  0  0
 81 89  2  0  0  0
 82 90  1  0  0  0
 82155  1  0  0  0
 82156  1  0  0  0
 83 90  1  0  0  0
 83157  1  0  0  0
 83158  1  0  0  0
 84159  1  0  0  0
 84160  1  0  0  0
 84161  1  0  0  0
 85162  1  0  0  0
 85163  1  0  0  0
 85164  1  0  0  0
 86 91  1  0  0  0
 86165  1  0  0  0
 86166  1  0  0  0
 87167  1  0  0  0
 87168  1  0  0  0
 88 91  1  0  0  0
 88169  1  0  0  0
 88170  1  0  0  0
 91171  1  0  0  0
 91172  1  0  0  0
M  CHG  1  91   1
M  ISO  4   1 100  68 101  87 101  90 100
M  END
> <chiral flag>
0

> <version>
0

> <s_m_source_file>
/data/baiqing/PycharmProjects/Reinvent-master-3.2/result/LINK_invent/BTK/process_docking_weight1_custom_sum_contain_oxygen_bond_distance_aromatic_linkinvent_7_9_3/rearranged_h_0127.sdf

> <i_m_source_file_index>
90

> <r_mmod_Potential_Energy-OPLS-2005>
-166.96728515625

> <r_mmod_Stretch_Energy-OPLS-2005>
43.9012260437012

> <r_mmod_Bend_Energy-OPLS-2005>
317.276184082031

> <r_mmod_Torsional_Energy-OPLS-2005>
280.121185302734

> <r_mmod_Improper_Torsional_Energy-OPLS-2005>
6.41617679595947

> <r_mmod_Van_der_Waal_Energy-OPLS-2005>
195.403259277344

> <r_mmod_Electrostatic_Energy-OPLS-2005>
-564.942260742188

> <r_mmod_Solvation_Energy-OPLS-2005>
-469.005279541016

> <b_mmod_Minimization_Converged-OPLS-2005>
0

> <r_mmod_RMS_Derivative-OPLS-2005>
4.50509738922119

$$$$
90
                    3D
 Structure written by MMmdl.
167176  0  0  1  0            999 V2000
  -30.6918  -14.4541   20.5197 C   0  0  0  0  0  0
  -30.4206  -12.2788   19.4215 C   0  0  0  0  0  0
  -29.4918  -12.4781   18.2049 C   0  0  0  0  0  0
  -28.0115  -12.3488   18.6203 C   0  0  0  0  0  0
  -27.6565  -13.1988   19.8701 C   0  0  2  0  0  0
  -28.7029  -12.9982   20.9915 C   0  0  0  0  0  0
  -25.2567  -13.8139   20.5692 C   0  0  0  0  0  0
  -24.1823  -13.0433   20.9212 C   0  0  0  0  0  0
  -24.6368  -11.6896   20.8767 C   0  0  0  0  0  0
  -23.9038  -10.4284   21.0427 C   0  0  0  0  0  0
  -24.3597   -9.4201   21.9201 C   0  0  0  0  0  0
  -23.6283   -8.2230   22.0760 C   0  0  0  0  0  0
  -22.4268   -8.0263   21.3541 C   0  0  0  0  0  0
  -21.9900   -9.0241   20.4643 C   0  0  0  0  0  0
  -22.7219  -10.2127   20.3063 C   0  0  0  0  0  0
  -21.6847   -6.0727   22.5283 C   0  0  0  0  0  0
  -21.4009   -6.5637   23.8216 C   0  0  0  0  0  0
  -21.3659   -5.6787   24.9178 C   0  0  0  0  0  0
  -21.6046   -4.3052   24.7230 C   0  0  0  0  0  0
  -21.8816   -3.8146   23.4351 C   0  0  0  0  0  0
  -21.9190   -4.6959   22.3407 C   0  0  0  0  0  0
  -22.7841  -13.5229   21.1854 C   0  0  0  0  0  0
  -22.1651   -4.2149   21.0982 F   0  0  0  0  0  0
  -21.5643   -3.4534   25.7745 F   0  0  0  0  0  0
  -30.0314  -13.2744   20.4254 N   0  0  0  0  0  0
  -26.2991  -12.9291   20.3368 N   0  0  0  0  0  0
  -25.9287  -11.6464   20.5794 N   0  0  0  0  0  0
  -22.0456  -12.8228   22.0391 N   0  0  0  0  0  0
  -25.4292  -15.1852   20.4032 N   0  0  0  0  0  0
  -31.8658  -14.6131   20.1855 O   0  0  0  0  0  0
  -21.6631   -6.8862   21.4241 O   0  0  0  0  0  0
  -22.3552  -14.5551   20.6714 O   0  0  0  0  0  0
  -24.6106  -31.8706   23.2137 C   0  0  0  0  0  0
  -25.9015  -32.4839   23.8421 C   0  0  1  0  0  0
  -27.2372  -27.4667   20.0979 C   0  0  0  0  0  0
  -25.5882  -33.8636   24.2352 N   0  0  0  0  0  0
  -23.3978  -30.4926   21.5523 C   0  0  2  0  0  0
  -24.8476  -28.9606   20.1166 C   0  0  0  0  0  0
  -22.7393  -29.4659   22.5008 C   0  0  0  0  0  0
  -18.0271  -28.1373   22.8495 C   0  0  0  0  0  0
  -24.1484  -36.7323   23.2639 C   0  0  0  0  0  0
  -25.9233  -30.8430   21.3662 C   0  0  0  0  0  0
  -26.0021  -29.4786   20.7175 C   0  0  0  0  0  0
  -27.2010  -28.7358   20.7128 C   0  0  0  0  0  0
  -26.0761  -26.9572   19.4846 C   0  0  0  0  0  0
  -24.8768  -27.6953   19.5008 C   0  0  0  0  0  0
  -23.6064  -29.8229   20.1671 C   0  0  0  0  0  0
  -25.4103  -36.3122   24.0347 C   0  0  1  0  0  0
  -20.5855  -28.3656   23.1332 C   0  0  2  0  0  0
  -20.6758  -26.9392   22.5426 C   0  0  0  0  0  0
  -19.5739  -26.6383   21.5218 C   0  0  0  0  0  0
  -18.1916  -26.7920   22.1624 C   0  0  0  0  0  0
  -19.1517  -28.8832   23.2909 C   0  0  0  0  0  0
  -18.9444  -30.1442   23.8914 C   0  0  0  0  0  0
  -17.6444  -30.6581   24.0567 C   0  0  0  0  0  0
  -25.9028  -34.9483   23.5147 C   0  0  0  0  0  0
  -16.5339  -29.9082   23.6326 C   0  0  0  0  0  0
  -16.7259  -28.6499   23.0349 C   0  0  0  0  0  0
  -26.4454  -31.6613   25.0742 C   0  0  0  0  0  0
  -25.3734  -31.3711   26.1503 C   0  0  0  0  0  0
  -27.0294  -30.3058   24.6114 C   0  0  0  0  0  0
  -27.6039  -32.4332   25.7492 C   0  0  0  0  0  0
  -27.5581  -37.1814   24.8465 C   0  0  0  0  0  0
  -21.4124  -29.3026   22.3745 N   0  0  0  0  0  0
  -26.4296  -37.3802   23.9410 N   0  0  0  0  0  0
  -24.6612  -31.0830   22.1024 N   0  0  0  0  0  0
  -23.4177  -28.8208   23.3043 O   0  0  0  0  0  0
  -28.3891  -26.7234   20.0690 O   0  0  0  0  0  0
  -26.5583  -34.8925   22.4701 O   0  0  0  0  0  0
  -23.5308  -32.1449   23.7551 O   0  0  0  0  0  0
  -26.2947  -20.5555   23.4069 C   0  0  0  0  0  0
  -26.7044  -22.8232   24.1153 C   0  0  0  0  0  0
  -26.0359  -21.5999   24.3136 C   0  0  0  0  0  0
  -27.1895  -20.7779   22.3444 C   0  0  0  0  0  0
  -27.5761  -22.9641   23.0233 C   0  0  0  0  0  0
  -25.5121  -21.4392   26.8774 C   0  0  0  0  0  0
  -25.0168  -20.1555   26.2536 C   0  0  0  0  0  0
  -25.0600  -21.4270   25.4369 C   0  0  0  0  0  0
  -27.4761  -19.6770   21.3398 C   0  0  0  0  0  0
  -29.5908  -16.4537   21.5163 C   0  0  0  0  0  0
  -27.9984  -24.7686   21.4822 C   0  0  0  0  0  0
  -28.7323  -17.6004   20.9368 C   0  0  0  0  0  0
  -28.7235  -26.1187   21.3176 C   0  0  0  0  0  0
  -27.8211  -21.9601   22.1566 N   0  0  0  0  0  0
  -28.2213  -24.1807   22.7998 N   0  0  0  0  0  0
  -29.8775  -15.5108   20.4396 N   0  0  0  0  0  0
  -28.4007  -18.6729   21.8989 N   0  3  0  0  0  0
  -31.4663  -12.3727   19.1230 H   0  0  0  0  0  0
  -30.3104  -11.2737   19.8306 H   0  0  0  0  0  0
  -29.7255  -11.7466   17.4303 H   0  0  0  0  0  0
  -29.6637  -13.4602   17.7613 H   0  0  0  0  0  0
  -27.8184  -11.2953   18.8235 H   0  0  0  0  0  0
  -27.3623  -12.6185   17.7865 H   0  0  0  0  0  0
  -27.6892  -14.2414   19.5578 H   0  0  0  0  0  0
  -28.6699  -11.9758   21.3709 H   0  0  0  0  0  0
  -28.4881  -13.6454   21.8424 H   0  0  0  0  0  0
  -25.2740   -9.5695   22.4775 H   0  0  0  0  0  0
  -24.0003   -7.4620   22.7476 H   0  0  0  0  0  0
  -21.0832   -8.8748   19.8939 H   0  0  0  0  0  0
  -22.3673  -10.9668   19.6172 H   0  0  0  0  0  0
  -21.1989   -7.6144   23.9726 H   0  0  0  0  0  0
  -21.1487   -6.0514   25.9080 H   0  0  0  0  0  0
  -22.0596   -2.7610   23.2851 H   0  0  0  0  0  0
  -22.4030  -11.9880   22.4801 H   0  0  0  0  0  0
  -21.1071  -13.1271   22.2560 H   0  0  0  0  0  0
  -24.6471  -15.8282   20.4613 H   0  0  0  0  0  0
  -26.2560  -15.5944   19.9898 H   0  0  0  0  0  0
  -26.7092  -32.5565   23.1196 H   0  0  0  0  0  0
  -25.0051  -33.9813   25.0507 H   0  0  0  0  0  0
  -22.6853  -31.3086   21.4137 H   0  0  0  0  0  0
  -23.3744  -35.9660   23.3317 H   0  0  0  0  0  0
  -24.3576  -36.8917   22.2050 H   0  0  0  0  0  0
  -23.7238  -37.6536   23.6637 H   0  0  0  0  0  0
  -26.0367  -31.6090   20.5984 H   0  0  0  0  0  0
  -26.8106  -30.8946   21.9854 H   0  0  0  0  0  0
  -28.0936  -29.1334   21.1752 H   0  0  0  0  0  0
  -26.1029  -25.9897   19.0034 H   0  0  0  0  0  0
  -23.9904  -27.2912   19.0329 H   0  0  0  0  0  0
  -23.7104  -30.5976   19.4061 H   0  0  0  0  0  0
  -22.7319  -29.2398   19.8738 H   0  0  0  0  0  0
  -25.1274  -36.2001   25.0843 H   0  0  0  0  0  0
  -20.9949  -28.3213   24.1452 H   0  0  0  0  0  0
  -20.5664  -26.2253   23.3607 H   0  0  0  0  0  0
  -21.6626  -26.7437   22.1211 H   0  0  0  0  0  0
  -19.6894  -25.6300   21.1233 H   0  0  0  0  0  0
  -19.6682  -27.3208   20.6761 H   0  0  0  0  0  0
  -17.4185  -26.6684   21.4024 H   0  0  0  0  0  0
  -18.0302  -26.0061   22.9016 H   0  0  0  0  0  0
  -19.7925  -30.7256   24.2284 H   0  0  0  0  0  0
  -17.5005  -31.6265   24.5163 H   0  0  0  0  0  0
  -15.5341  -30.2986   23.7651 H   0  0  0  0  0  0
  -15.8659  -28.0832   22.7047 H   0  0  0  0  0  0
  -24.5890  -30.7075   25.7839 H   0  0  0  0  0  0
  -24.8948  -32.2869   26.4987 H   0  0  0  0  0  0
  -25.8101  -30.8851   27.0238 H   0  0  0  0  0  0
  -26.2848  -29.6818   24.1156 H   0  0  0  0  0  0
  -27.4049  -29.7290   25.4578 H   0  0  0  0  0  0
  -27.8684  -30.4381   23.9281 H   0  0  0  0  0  0
  -27.2663  -33.3613   26.2115 H   0  0  0  0  0  0
  -28.3818  -32.6926   25.0298 H   0  0  0  0  0  0
  -28.0745  -31.8434   26.5369 H   0  0  0  0  0  0
  -28.2607  -38.0103   24.7503 H   0  0  0  0  0  0
  -28.1067  -36.2632   24.6297 H   0  0  0  0  0  0
  -27.2296  -37.1475   25.8868 H   0  0  0  0  0  0
  -20.9278  -29.8749   21.6971 H   0  0  0  0  0  0
  -26.0191  -38.2888   24.1393 H   0  0  0  0  0  0
  -25.7937  -19.6023   23.5165 H   0  0  0  0  0  0
  -26.5210  -23.6480   24.7911 H   0  0  0  0  0  0
  -26.5786  -21.5153   27.0786 H   0  0  0  0  0  0
  -24.8608  -21.9110   27.6100 H   0  0  0  0  0  0
  -24.0415  -19.7937   26.5737 H   0  0  0  0  0  0
  -25.7585  -19.3852   26.0511 H   0  0  0  0  0  0
  -24.1113  -21.9063   25.2013 H   0  0  0  0  0  0
  -27.8949  -20.1078   20.4283 H   0  0  0  0  0  0
  -26.5336  -19.2031   21.0614 H   0  0  0  0  0  0
  -29.0682  -15.9462   22.3285 H   0  0  0  0  0  0
  -30.5275  -16.8403   21.9206 H   0  0  0  0  0  0
  -28.3274  -24.0828   20.7012 H   0  0  0  0  0  0
  -26.9242  -24.9073   21.3500 H   0  0  0  0  0  0
  -27.8019  -17.1813   20.5510 H   0  0  0  0  0  0
  -29.2468  -18.0512   20.0860 H   0  0  0  0  0  0
  -29.8023  -25.9635   21.3441 H   0  0  0  0  0  0
  -28.4925  -26.7842   22.1514 H   0  0  0  0  0  0
  -28.0899  -24.8471   23.5522 H   0  0  0  0  0  0
  -30.0800  -16.0116   19.5872 H   0  0  0  0  0  0
  -27.9705  -18.2871   22.7220 H   0  0  0  0  0  0
  -29.2324  -19.1652   22.1819 H   0  0  0  0  0  0
  1 25  1  0  0  0
  1 30  2  0  0  0
  1 86  1  0  0  0
  2  3  1  0  0  0
  2 25  1  0  0  0
  2 88  1  0  0  0
  2 89  1  0  0  0
  3  4  1  0  0  0
  3 90  1  0  0  0
  3 91  1  0  0  0
  4  5  1  0  0  0
  4 92  1  0  0  0
  4 93  1  0  0  0
  5  6  1  0  0  0
  5 26  1  0  0  0
  5 94  1  0  0  0
  6 25  1  0  0  0
  6 95  1  0  0  0
  6 96  1  0  0  0
  7  8  2  0  0  0
  7 26  1  0  0  0
  7 29  1  0  0  0
  8  9  1  0  0  0
  8 22  1  0  0  0
  9 10  1  0  0  0
  9 27  2  0  0  0
 10 11  2  0  0  0
 10 15  1  0  0  0
 11 12  1  0  0  0
 11 97  1  0  0  0
 12 13  2  0  0  0
 12 98  1  0  0  0
 13 14  1  0  0  0
 13 31  1  0  0  0
 14 15  2  0  0  0
 14 99  1  0  0  0
 15100  1  0  0  0
 16 17  2  0  0  0
 16 21  1  0  0  0
 16 31  1  0  0  0
 17 18  1  0  0  0
 17101  1  0  0  0
 18 19  2  0  0  0
 18102  1  0  0  0
 19 20  1  0  0  0
 19 24  1  0  0  0
 20 21  2  0  0  0
 20103  1  0  0  0
 21 23  1  0  0  0
 22 28  1  0  0  0
 22 32  2  0  0  0
 26 27  1  0  0  0
 28104  1  0  0  0
 28105  1  0  0  0
 29106  1  0  0  0
 29107  1  0  0  0
 33 34  1  0  0  0
 33 66  1  0  0  0
 33 70  2  0  0  0
 34 36  1  0  0  0
 34 59  1  0  0  0
 34108  1  0  0  0
 35 44  2  0  0  0
 35 45  1  0  0  0
 35 68  1  0  0  0
 36 56  1  0  0  0
 36109  1  0  0  0
 37 39  1  0  0  0
 37 47  1  0  0  0
 37 66  1  0  0  0
 37110  1  0  0  0
 38 43  2  0  0  0
 38 46  1  0  0  0
 38 47  1  0  0  0
 39 64  1  0  0  0
 39 67  2  0  0  0
 40 52  1  0  0  0
 40 53  2  0  0  0
 40 58  1  0  0  0
 41111  1  0  0  0
 41112  1  0  0  0
 41113  1  0  0  0
 41 48  1  0  0  0
 42 43  1  0  0  0
 42 66  1  0  0  0
 42114  1  0  0  0
 42115  1  0  0  0
 43 44  1  0  0  0
 44116  1  0  0  0
 45 46  2  0  0  0
 45117  1  0  0  0
 46118  1  0  0  0
 47119  1  0  0  0
 47120  1  0  0  0
 48 56  1  0  0  0
 48 65  1  0  0  0
 48121  1  0  0  0
 49 50  1  0  0  0
 49 53  1  0  0  0
 49 64  1  0  0  0
 49122  1  0  0  0
 50 51  1  0  0  0
 50123  1  0  0  0
 50124  1  0  0  0
 51 52  1  0  0  0
 51125  1  0  0  0
 51126  1  0  0  0
 52127  1  0  0  0
 52128  1  0  0  0
 53 54  1  0  0  0
 54 55  2  0  0  0
 54129  1  0  0  0
 55 57  1  0  0  0
 55130  1  0  0  0
 56 69  2  0  0  0
 57 58  2  0  0  0
 57131  1  0  0  0
 58132  1  0  0  0
 59 60  1  0  0  0
 59 61  1  0  0  0
 59 62  1  0  0  0
 60133  1  0  0  0
 60134  1  0  0  0
 60135  1  0  0  0
 61136  1  0  0  0
 61137  1  0  0  0
 61138  1  0  0  0
 62139  1  0  0  0
 62140  1  0  0  0
 62141  1  0  0  0
 63 65  1  0  0  0
 63142  1  0  0  0
 63143  1  0  0  0
 63144  1  0  0  0
 64145  1  0  0  0
 65146  1  0  0  0
 68 83  1  0  0  0
 71 73  2  0  0  0
 71 74  1  0  0  0
 71147  1  0  0  0
 72 73  1  0  0  0
 72 75  2  0  0  0
 72148  1  0  0  0
 73 78  1  0  0  0
 74 79  1  0  0  0
 74 84  2  0  0  0
 75 84  1  0  0  0
 75 85  1  0  0  0
 76 77  1  0  0  0
 76 78  1  0  0  0
 76149  1  0  0  0
 76150  1  0  0  0
 77 78  1  0  0  0
 77151  1  0  0  0
 77152  1  0  0  0
 78153  1  0  0  0
 79 87  1  0  0  0
 79154  1  0  0  0
 79155  1  0  0  0
 80 82  1  0  0  0
 80 86  1  0  0  0
 80156  1  0  0  0
 80157  1  0  0  0
 81 83  1  0  0  0
 81 85  1  0  0  0
 81158  1  0  0  0
 81159  1  0  0  0
 82 87  1  0  0  0
 82160  1  0  0  0
 82161  1  0  0  0
 83162  1  0  0  0
 83163  1  0  0  0
 85164  1  0  0  0
 86165  1  0  0  0
 87166  1  0  0  0
 87167  1  0  0  0
M  CHG  1  87   1
M  ISO  4   1 100  68 101  83 101  86 100
M  END
> <chiral flag>
0

> <version>
0

> <s_m_source_file>
/data/baiqing/PycharmProjects/Reinvent-master-3.2/result/LINK_invent/BTK/process_docking_weight1_custom_sum_contain_oxygen_bond_distance_aromatic_linkinvent_7_9_3/rearranged_h_0127.sdf

> <i_m_source_file_index>
91

> <r_mmod_Potential_Energy-OPLS-2005>
-554.772094726562

> <r_mmod_Stretch_Energy-OPLS-2005>
30.1908397674561

> <r_mmod_Bend_Energy-OPLS-2005>
94.0048904418945

> <r_mmod_Torsional_Energy-OPLS-2005>
320.663787841797

> <r_mmod_Improper_Torsional_Energy-OPLS-2005>
27.9864978790283

> <r_mmod_Van_der_Waal_Energy-OPLS-2005>
142.41716003418

> <r_mmod_Electrostatic_Energy-OPLS-2005>
-675.883972167969

> <r_mmod_Solvation_Energy-OPLS-2005>
-508.122711181641

> <b_mmod_Minimization_Converged-OPLS-2005>
0

> <r_mmod_RMS_Derivative-OPLS-2005>
1.29256248474121

$$$$
91
                    3D
 Structure written by MMmdl.
166174  0  0  1  0            999 V2000
  -30.6523  -14.5715   20.5519 C   0  0  0  0  0  0
  -30.4370  -12.3665   19.4323 C   0  0  0  0  0  0
  -29.5012  -12.5069   18.2121 C   0  0  0  0  0  0
  -28.0236  -12.3507   18.6260 C   0  0  0  0  0  0
  -27.6557  -13.2084   19.8656 C   0  0  2  0  0  0
  -28.7003  -13.0311   20.9893 C   0  0  0  0  0  0
  -25.2573  -13.8148   20.5671 C   0  0  0  0  0  0
  -24.1831  -13.0432   20.9183 C   0  0  0  0  0  0
  -24.6387  -11.6896   20.8729 C   0  0  0  0  0  0
  -23.9053  -10.4286   21.0400 C   0  0  0  0  0  0
  -24.3606   -9.4204   21.9179 C   0  0  0  0  0  0
  -23.6283   -8.2239   22.0753 C   0  0  0  0  0  0
  -22.4266   -8.0274   21.3542 C   0  0  0  0  0  0
  -21.9903   -9.0246   20.4644 C   0  0  0  0  0  0
  -22.7226  -10.2125   20.3051 C   0  0  0  0  0  0
  -21.6852   -6.0728   22.5276 C   0  0  0  0  0  0
  -21.4014   -6.5636   23.8207 C   0  0  0  0  0  0
  -21.3658   -5.6793   24.9171 C   0  0  0  0  0  0
  -21.6042   -4.3056   24.7228 C   0  0  0  0  0  0
  -21.8820   -3.8144   23.4351 C   0  0  0  0  0  0
  -21.9194   -4.6956   22.3403 C   0  0  0  0  0  0
  -22.7856  -13.5231   21.1849 C   0  0  0  0  0  0
  -22.1663   -4.2142   21.0980 F   0  0  0  0  0  0
  -21.5630   -3.4539   25.7742 F   0  0  0  0  0  0
  -30.0190  -13.3681   20.4283 N   0  0  0  0  0  0
  -26.2997  -12.9318   20.3325 N   0  0  0  0  0  0
  -25.9313  -11.6478   20.5750 N   0  0  0  0  0  0
  -22.0504  -12.8216   22.0403 N   0  0  0  0  0  0
  -25.4307  -15.1868   20.4077 N   0  0  0  0  0  0
  -31.8046  -14.7580   20.1532 O   0  0  0  0  0  0
  -21.6638   -6.8867   21.4236 O   0  0  0  0  0  0
  -22.3549  -14.5543   20.6705 O   0  0  0  0  0  0
  -24.6210  -31.8637   23.2064 C   0  0  0  0  0  0
  -25.9078  -32.4806   23.8384 C   0  0  1  0  0  0
  -27.2334  -27.3745   20.1181 C   0  0  0  0  0  0
  -25.5911  -33.8606   24.2312 N   0  0  0  0  0  0
  -23.4135  -30.4845   21.5478 C   0  0  2  0  0  0
  -24.8633  -28.9395   20.1211 C   0  0  0  0  0  0
  -22.7452  -29.4632   22.4977 C   0  0  0  0  0  0
  -18.0278  -28.1382   22.8493 C   0  0  0  0  0  0
  -24.1491  -36.7304   23.2637 C   0  0  0  0  0  0
  -25.9478  -30.8108   21.3690 C   0  0  0  0  0  0
  -26.0264  -29.4377   20.7227 C   0  0  0  0  0  0
  -27.2170  -28.6625   20.7184 C   0  0  0  0  0  0
  -26.0563  -26.9083   19.5012 C   0  0  0  0  0  0
  -24.8751  -27.6752   19.5072 C   0  0  0  0  0  0
  -23.6284  -29.8143   20.1654 C   0  0  0  0  0  0
  -25.4116  -36.3099   24.0331 C   0  0  1  0  0  0
  -20.5877  -28.3676   23.1304 C   0  0  2  0  0  0
  -20.6771  -26.9406   22.5418 C   0  0  0  0  0  0
  -19.5747  -26.6383   21.5221 C   0  0  0  0  0  0
  -18.1922  -26.7926   22.1622 C   0  0  0  0  0  0
  -19.1528  -28.8846   23.2892 C   0  0  0  0  0  0
  -18.9454  -30.1451   23.8904 C   0  0  0  0  0  0
  -17.6456  -30.6594   24.0560 C   0  0  0  0  0  0
  -25.9043  -34.9465   23.5118 C   0  0  0  0  0  0
  -16.5349  -29.9092   23.6331 C   0  0  0  0  0  0
  -16.7266  -28.6507   23.0354 C   0  0  0  0  0  0
  -26.4486  -31.6591   25.0731 C   0  0  0  0  0  0
  -25.3732  -31.3693   26.1465 C   0  0  0  0  0  0
  -27.0334  -30.3037   24.6121 C   0  0  0  0  0  0
  -27.6069  -32.4312   25.7488 C   0  0  0  0  0  0
  -27.5581  -37.1805   24.8465 C   0  0  0  0  0  0
  -21.4173  -29.3032   22.3712 N   0  0  0  0  0  0
  -26.4298  -37.3787   23.9405 N   0  0  0  0  0  0
  -24.6793  -31.0687   22.0992 N   0  0  0  0  0  0
  -23.4195  -28.8171   23.3039 O   0  0  0  0  0  0
  -28.3667  -26.5753   20.0695 O   0  0  0  0  0  0
  -26.5612  -34.8915   22.4686 O   0  0  0  0  0  0
  -23.5386  -32.1418   23.7414 O   0  0  0  0  0  0
  -27.6141  -22.1208   19.7714 C   0  0  0  0  0  0
  -27.2800  -23.4738   20.0642 C   0  0  0  0  0  0
  -28.9285  -21.9040   20.0824 C   0  0  0  0  0  0
  -28.3839  -24.1129   20.5575 C   0  0  0  0  0  0
  -32.4834  -25.1771   20.6363 C   0  0  0  0  0  0
  -31.2107  -24.2344   18.6652 C   0  0  0  0  0  0
  -29.7586  -20.6305   19.8192 C   0  0  0  0  0  0
  -28.4969  -25.5543   21.0968 C   0  0  0  0  0  0
  -30.7637  -23.3496   21.0943 C   0  0  0  0  0  0
  -30.2176  -17.0131   21.3144 C   0  0  0  0  0  0
  -29.7200  -18.1083   20.2963 C   0  0  0  0  0  0
  -31.7739  -23.9372   20.0685 C   0  0  0  0  0  0
  -29.4075  -23.1325   20.5913 N   0  0  0  0  0  0
  -29.8782  -15.5944   20.9980 N   0  0  0  0  0  0
  -29.6975  -19.5216   20.8278 N   0  3  0  0  0  0
  -31.4773  -12.4959   19.1280 H   0  0  0  0  0  0
  -30.3716  -11.3630   19.8566 H   0  0  0  0  0  0
  -29.7566  -11.7650   17.4547 H   0  0  0  0  0  0
  -29.6484  -13.4824   17.7460 H   0  0  0  0  0  0
  -27.8508  -11.2962   18.8426 H   0  0  0  0  0  0
  -27.3696  -12.5993   17.7894 H   0  0  0  0  0  0
  -27.6846  -14.2489   19.5421 H   0  0  0  0  0  0
  -28.7025  -12.0010   21.3489 H   0  0  0  0  0  0
  -28.4507  -13.6429   21.8575 H   0  0  0  0  0  0
  -25.2748   -9.5685   22.4753 H   0  0  0  0  0  0
  -23.9996   -7.4633   22.7471 H   0  0  0  0  0  0
  -21.0836   -8.8752   19.8949 H   0  0  0  0  0  0
  -22.3675  -10.9660   19.6161 H   0  0  0  0  0  0
  -21.2005   -7.6144   23.9707 H   0  0  0  0  0  0
  -21.1481   -6.0525   25.9071 H   0  0  0  0  0  0
  -22.0601   -2.7607   23.2852 H   0  0  0  0  0  0
  -22.4120  -11.9866   22.4769 H   0  0  0  0  0  0
  -21.1122  -13.1235   22.2618 H   0  0  0  0  0  0
  -24.6621  -15.8412   20.5052 H   0  0  0  0  0  0
  -26.2757  -15.6197   20.0584 H   0  0  0  0  0  0
  -26.7147  -32.5511   23.1139 H   0  0  0  0  0  0
  -25.0081  -33.9761   25.0474 H   0  0  0  0  0  0
  -22.7050  -31.3023   21.4019 H   0  0  0  0  0  0
  -23.3752  -35.9637   23.3314 H   0  0  0  0  0  0
  -24.3578  -36.8920   22.2049 H   0  0  0  0  0  0
  -23.7241  -37.6507   23.6656 H   0  0  0  0  0  0
  -26.0660  -31.5691   20.5938 H   0  0  0  0  0  0
  -26.8333  -30.8689   21.9898 H   0  0  0  0  0  0
  -28.1163  -29.0429   21.1811 H   0  0  0  0  0  0
  -26.0550  -25.9467   19.0102 H   0  0  0  0  0  0
  -23.9836  -27.2876   19.0348 H   0  0  0  0  0  0
  -23.7435  -30.5866   19.4044 H   0  0  0  0  0  0
  -22.7513  -29.2381   19.8663 H   0  0  0  0  0  0
  -25.1285  -36.1967   25.0821 H   0  0  0  0  0  0
  -20.9960  -28.3250   24.1426 H   0  0  0  0  0  0
  -20.5692  -26.2280   23.3608 H   0  0  0  0  0  0
  -21.6636  -26.7459   22.1191 H   0  0  0  0  0  0
  -19.6916  -25.6299   21.1241 H   0  0  0  0  0  0
  -19.6690  -27.3199   20.6756 H   0  0  0  0  0  0
  -17.4194  -26.6689   21.4018 H   0  0  0  0  0  0
  -18.0313  -26.0070   22.9015 H   0  0  0  0  0  0
  -19.7933  -30.7261   24.2280 H   0  0  0  0  0  0
  -17.5013  -31.6271   24.5157 H   0  0  0  0  0  0
  -15.5350  -30.2985   23.7654 H   0  0  0  0  0  0
  -15.8668  -28.0820   22.7068 H   0  0  0  0  0  0
  -24.5921  -30.7026   25.7788 H   0  0  0  0  0  0
  -24.8894  -32.2834   26.4919 H   0  0  0  0  0  0
  -25.8066  -30.8858   27.0229 H   0  0  0  0  0  0
  -26.2886  -29.6782   24.1179 H   0  0  0  0  0  0
  -27.4115  -29.7287   25.4583 H   0  0  0  0  0  0
  -27.8711  -30.4372   23.9273 H   0  0  0  0  0  0
  -27.2718  -33.3627   26.2062 H   0  0  0  0  0  0
  -28.3873  -32.6848   25.0300 H   0  0  0  0  0  0
  -28.0732  -31.8429   26.5398 H   0  0  0  0  0  0
  -28.2598  -38.0104   24.7519 H   0  0  0  0  0  0
  -28.1075  -36.2631   24.6286 H   0  0  0  0  0  0
  -27.2289  -37.1452   25.8866 H   0  0  0  0  0  0
  -20.9359  -29.8759   21.6924 H   0  0  0  0  0  0
  -26.0187  -38.2865   24.1412 H   0  0  0  0  0  0
  -26.9500  -21.3779   19.3493 H   0  0  0  0  0  0
  -26.3085  -23.9298   19.9359 H   0  0  0  0  0  0
  -33.2718  -25.5227   19.9670 H   0  0  0  0  0  0
  -32.9469  -24.9626   21.5998 H   0  0  0  0  0  0
  -31.7870  -26.0041   20.7809 H   0  0  0  0  0  0
  -31.9941  -24.5924   17.9964 H   0  0  0  0  0  0
  -30.4341  -24.9989   18.6975 H   0  0  0  0  0  0
  -30.7844  -23.3416   18.2069 H   0  0  0  0  0  0
  -30.8050  -20.8860   19.6508 H   0  0  0  0  0  0
  -29.4216  -20.2252   18.8644 H   0  0  0  0  0  0
  -29.4544  -25.7165   21.5870 H   0  0  0  0  0  0
  -27.7470  -25.7014   21.8754 H   0  0  0  0  0  0
  -30.7061  -23.9716   21.9870 H   0  0  0  0  0  0
  -31.1486  -22.4021   21.4721 H   0  0  0  0  0  0
  -29.7777  -17.2180   22.2911 H   0  0  0  0  0  0
  -31.2963  -17.1068   21.4519 H   0  0  0  0  0  0
  -28.7161  -17.8668   19.9455 H   0  0  0  0  0  0
  -30.3659  -18.0681   19.4177 H   0  0  0  0  0  0
  -32.5456  -23.1782   19.9296 H   0  0  0  0  0  0
  -28.9372  -15.3178   21.2363 H   0  0  0  0  0  0
  -28.8537  -19.6403   21.3642 H   0  0  0  0  0  0
  -30.4715  -19.6480   21.4582 H   0  0  0  0  0  0
  1 25  1  0  0  0
  1 30  2  0  0  0
  1 84  1  0  0  0
  2  3  1  0  0  0
  2 25  1  0  0  0
  2 86  1  0  0  0
  2 87  1  0  0  0
  3  4  1  0  0  0
  3 88  1  0  0  0
  3 89  1  0  0  0
  4  5  1  0  0  0
  4 90  1  0  0  0
  4 91  1  0  0  0
  5  6  1  0  0  0
  5 26  1  0  0  0
  5 92  1  0  0  0
  6 25  1  0  0  0
  6 93  1  0  0  0
  6 94  1  0  0  0
  7  8  2  0  0  0
  7 26  1  0  0  0
  7 29  1  0  0  0
  8  9  1  0  0  0
  8 22  1  0  0  0
  9 10  1  0  0  0
  9 27  2  0  0  0
 10 11  2  0  0  0
 10 15  1  0  0  0
 11 12  1  0  0  0
 11 95  1  0  0  0
 12 13  2  0  0  0
 12 96  1  0  0  0
 13 14  1  0  0  0
 13 31  1  0  0  0
 14 15  2  0  0  0
 14 97  1  0  0  0
 15 98  1  0  0  0
 16 17  2  0  0  0
 16 21  1  0  0  0
 16 31  1  0  0  0
 17 18  1  0  0  0
 17 99  1  0  0  0
 18 19  2  0  0  0
 18100  1  0  0  0
 19 20  1  0  0  0
 19 24  1  0  0  0
 20 21  2  0  0  0
 20101  1  0  0  0
 21 23  1  0  0  0
 22 28  1  0  0  0
 22 32  2  0  0  0
 26 27  1  0  0  0
 28102  1  0  0  0
 28103  1  0  0  0
 29104  1  0  0  0
 29105  1  0  0  0
 33 34  1  0  0  0
 33 66  1  0  0  0
 33 70  2  0  0  0
 34 36  1  0  0  0
 34 59  1  0  0  0
 34106  1  0  0  0
 35 44  2  0  0  0
 35 45  1  0  0  0
 35 68  1  0  0  0
 36 56  1  0  0  0
 36107  1  0  0  0
 37 39  1  0  0  0
 37 47  1  0  0  0
 37 66  1  0  0  0
 37108  1  0  0  0
 38 43  2  0  0  0
 38 46  1  0  0  0
 38 47  1  0  0  0
 39 64  1  0  0  0
 39 67  2  0  0  0
 40 52  1  0  0  0
 40 53  2  0  0  0
 40 58  1  0  0  0
 41109  1  0  0  0
 41110  1  0  0  0
 41111  1  0  0  0
 41 48  1  0  0  0
 42 43  1  0  0  0
 42 66  1  0  0  0
 42112  1  0  0  0
 42113  1  0  0  0
 43 44  1  0  0  0
 44114  1  0  0  0
 45 46  2  0  0  0
 45115  1  0  0  0
 46116  1  0  0  0
 47117  1  0  0  0
 47118  1  0  0  0
 48 56  1  0  0  0
 48 65  1  0  0  0
 48119  1  0  0  0
 49 50  1  0  0  0
 49 53  1  0  0  0
 49 64  1  0  0  0
 49120  1  0  0  0
 50 51  1  0  0  0
 50121  1  0  0  0
 50122  1  0  0  0
 51 52  1  0  0  0
 51123  1  0  0  0
 51124  1  0  0  0
 52125  1  0  0  0
 52126  1  0  0  0
 53 54  1  0  0  0
 54 55  2  0  0  0
 54127  1  0  0  0
 55 57  1  0  0  0
 55128  1  0  0  0
 56 69  2  0  0  0
 57 58  2  0  0  0
 57129  1  0  0  0
 58130  1  0  0  0
 59 60  1  0  0  0
 59 61  1  0  0  0
 59 62  1  0  0  0
 60131  1  0  0  0
 60132  1  0  0  0
 60133  1  0  0  0
 61134  1  0  0  0
 61135  1  0  0  0
 61136  1  0  0  0
 62137  1  0  0  0
 62138  1  0  0  0
 62139  1  0  0  0
 63 65  1  0  0  0
 63140  1  0  0  0
 63141  1  0  0  0
 63142  1  0  0  0
 64143  1  0  0  0
 65144  1  0  0  0
 68 78  1  0  0  0
 71 72  1  0  0  0
 71 73  2  0  0  0
 71145  1  0  0  0
 72 74  2  0  0  0
 72146  1  0  0  0
 73 77  1  0  0  0
 73 83  1  0  0  0
 74 78  1  0  0  0
 74 83  1  0  0  0
 75147  1  0  0  0
 75148  1  0  0  0
 75149  1  0  0  0
 75 82  1  0  0  0
 76 82  1  0  0  0
 76150  1  0  0  0
 76151  1  0  0  0
 76152  1  0  0  0
 77 85  1  0  0  0
 77153  1  0  0  0
 77154  1  0  0  0
 78155  1  0  0  0
 78156  1  0  0  0
 79 82  1  0  0  0
 79 83  1  0  0  0
 79157  1  0  0  0
 79158  1  0  0  0
 80 81  1  0  0  0
 80 84  1  0  0  0
 80159  1  0  0  0
 80160  1  0  0  0
 81 85  1  0  0  0
 81161  1  0  0  0
 81162  1  0  0  0
 82163  1  0  0  0
 84164  1  0  0  0
 85165  1  0  0  0
 85166  1  0  0  0
M  CHG  1  85   1
M  ISO  4   1 100  68 101  78 101  84 100
M  END
> <chiral flag>
0

> <version>
0

> <s_m_source_file>
/data/baiqing/PycharmProjects/Reinvent-master-3.2/result/LINK_invent/BTK/process_docking_weight1_custom_sum_contain_oxygen_bond_distance_aromatic_linkinvent_7_9_3/rearranged_h_0127.sdf

> <i_m_source_file_index>
92

> <r_mmod_Potential_Energy-OPLS-2005>
-202.216766357422

> <r_mmod_Stretch_Energy-OPLS-2005>
57.8642272949219

> <r_mmod_Bend_Energy-OPLS-2005>
124.843269348145

> <r_mmod_Torsional_Energy-OPLS-2005>
258.639984130859

> <r_mmod_Improper_Torsional_Energy-OPLS-2005>
4.060950756073

> <r_mmod_Van_der_Waal_Energy-OPLS-2005>
114.066780090332

> <r_mmod_Electrostatic_Energy-OPLS-2005>
-307.854400634766

> <r_mmod_Solvation_Energy-OPLS-2005>
-481.269500732422

> <b_mmod_Minimization_Converged-OPLS-2005>
0

> <r_mmod_RMS_Derivative-OPLS-2005>
1.08920323848724

$$$$
92
                    3D
 Structure written by MMmdl.
159168  0  0  1  0            999 V2000
  -30.4777  -15.2434   20.3263 C   0  0  0  0  0  0
  -30.4503  -12.7914   19.4838 C   0  0  0  0  0  0
  -29.5247  -12.5631   18.2650 C   0  0  0  0  0  0
  -28.0837  -12.2601   18.7201 C   0  0  0  0  0  0
  -27.6201  -13.2152   19.8457 C   0  0  2  0  0  0
  -28.6851  -13.4095   20.9523 C   0  0  0  0  0  0
  -25.2335  -13.8021   20.5712 C   0  0  0  0  0  0
  -24.1696  -13.0307   20.9324 C   0  0  0  0  0  0
  -24.6337  -11.6817   20.8864 C   0  0  0  0  0  0
  -23.9042  -10.4219   21.0452 C   0  0  0  0  0  0
  -24.3588   -9.4136   21.9219 C   0  0  0  0  0  0
  -23.6249   -8.2193   22.0758 C   0  0  0  0  0  0
  -22.4240   -8.0256   21.3546 C   0  0  0  0  0  0
  -21.9899   -9.0232   20.4646 C   0  0  0  0  0  0
  -22.7238  -10.2092   20.3067 C   0  0  0  0  0  0
  -21.6847   -6.0728   22.5284 C   0  0  0  0  0  0
  -21.3994   -6.5639   23.8205 C   0  0  0  0  0  0
  -21.3633   -5.6797   24.9172 C   0  0  0  0  0  0
  -21.6036   -4.3059   24.7231 C   0  0  0  0  0  0
  -21.8805   -3.8157   23.4354 C   0  0  0  0  0  0
  -21.9183   -4.6963   22.3405 C   0  0  0  0  0  0
  -22.7710  -13.5100   21.1952 C   0  0  0  0  0  0
  -22.1640   -4.2150   21.0985 F   0  0  0  0  0  0
  -21.5635   -3.4531   25.7735 F   0  0  0  0  0  0
  -29.8912  -13.9410   20.2806 N   0  0  0  0  0  0
  -26.2846  -12.9258   20.3441 N   0  0  0  0  0  0
  -25.9280  -11.6437   20.5940 N   0  0  0  0  0  0
  -22.0356  -12.8133   22.0533 N   0  0  0  0  0  0
  -25.3682  -15.1709   20.3781 N   0  0  0  0  0  0
  -31.7131  -15.2048   20.2372 O   0  0  0  0  0  0
  -21.6613   -6.8858   21.4242 O   0  0  0  0  0  0
  -22.3441  -14.5433   20.6790 O   0  0  0  0  0  0
  -24.6593  -31.8275   23.1724 C   0  0  0  0  0  0
  -25.9284  -32.4609   23.8168 C   0  0  1  0  0  0
  -27.2294  -26.9756   20.1610 C   0  0  0  0  0  0
  -25.5965  -33.8420   24.2073 N   0  0  0  0  0  0
  -23.4725  -30.4409   21.5218 C   0  0  2  0  0  0
  -24.9275  -28.8366   20.1108 C   0  0  0  0  0  0
  -22.7645  -29.4467   22.4789 C   0  0  0  0  0  0
  -18.0326  -28.1412   22.8469 C   0  0  0  0  0  0
  -24.1489  -36.7235   23.2649 C   0  0  0  0  0  0
  -26.0385  -30.6489   21.3953 C   0  0  0  0  0  0
  -26.1115  -29.2423   20.7399 C   0  0  0  0  0  0
  -27.2562  -28.3306   20.7456 C   0  0  0  0  0  0
  -26.0140  -26.7158   19.4831 C   0  0  0  0  0  0
  -24.9004  -27.5911   19.4669 C   0  0  0  0  0  0
  -23.7104  -29.7582   20.1472 C   0  0  0  0  0  0
  -25.4130  -36.2979   24.0289 C   0  0  1  0  0  0
  -20.5944  -28.3761   23.1186 C   0  0  2  0  0  0
  -20.6796  -26.9442   22.5415 C   0  0  0  0  0  0
  -19.5768  -26.6381   21.5222 C   0  0  0  0  0  0
  -18.1945  -26.7947   22.1621 C   0  0  0  0  0  0
  -19.1589  -28.8907   23.2807 C   0  0  0  0  0  0
  -18.9503  -30.1491   23.8851 C   0  0  0  0  0  0
  -17.6499  -30.6600   24.0566 C   0  0  0  0  0  0
  -25.9092  -34.9360   23.5001 C   0  0  0  0  0  0
  -16.5384  -29.9099   23.6344 C   0  0  0  0  0  0
  -16.7311  -28.6518   23.0363 C   0  0  0  0  0  0
  -26.4564  -31.6544   25.0672 C   0  0  0  0  0  0
  -25.3704  -31.3785   26.1335 C   0  0  0  0  0  0
  -27.0471  -30.2920   24.6370 C   0  0  0  0  0  0
  -27.6030  -32.4388   25.7482 C   0  0  0  0  0  0
  -27.5565  -37.1761   24.8461 C   0  0  0  0  0  0
  -21.4322  -29.3046   22.3531 N   0  0  0  0  0  0
  -26.4271  -37.3710   23.9412 N   0  0  0  0  0  0
  -24.7444  -30.9978   22.0843 N   0  0  0  0  0  0
  -23.4200  -28.8032   23.3019 O   0  0  0  0  0  0
  -28.2362  -25.8865   20.2354 O   0  0  0  0  0  0
  -26.5699  -34.8892   22.4598 O   0  0  0  0  0  0
  -23.5674  -32.1246   23.6831 O   0  0  0  0  0  0
  -28.8077  -21.9619   21.3694 C   0  0  0  0  0  0
  -29.2475  -20.5465   21.4187 C   0  0  0  0  0  0
  -29.6167  -19.7306   20.2712 C   0  0  0  0  0  0
  -28.7253  -22.7958   20.1872 C   0  0  0  0  0  0
  -29.5311  -20.6457   19.1316 C   0  0  0  0  0  0
  -27.8874  -16.4759   18.5355 C   0  0  0  0  0  0
  -27.4860  -17.6299   19.3970 C   0  0  0  0  0  0
  -28.3366  -16.5130   19.9960 C   0  0  0  0  0  0
  -29.3783  -19.9053   22.7870 C   0  0  0  0  0  0
  -29.9814  -20.1384   17.7732 C   0  0  0  0  0  0
  -30.2941  -18.1142   20.3021 C   0  0  0  0  0  0
  -27.8949  -24.3129   20.0015 C   0  0  0  0  0  0
  -29.1043  -22.0042   19.1000 N   0  0  0  0  0  0
  -29.7540  -16.5518   20.2436 N   0  0  0  0  0  0
  -31.4635  -13.0013   19.1362 H   0  0  0  0  0  0
  -30.5305  -11.8832   20.0851 H   0  0  0  0  0  0
  -29.9022  -11.7544   17.6365 H   0  0  0  0  0  0
  -29.5278  -13.4606   17.6435 H   0  0  0  0  0  0
  -28.0543  -11.2313   19.0818 H   0  0  0  0  0  0
  -27.3983  -12.3061   17.8732 H   0  0  0  0  0  0
  -27.5178  -14.1511   19.3325 H   0  0  0  0  0  0
  -28.8927  -12.4757   21.4761 H   0  0  0  0  0  0
  -28.3498  -14.1052   21.7206 H   0  0  0  0  0  0
  -25.2714   -9.5601   22.4832 H   0  0  0  0  0  0
  -23.9935   -7.4586   22.7472 H   0  0  0  0  0  0
  -21.0824   -8.8765   19.8963 H   0  0  0  0  0  0
  -22.3697  -10.9650   19.6190 H   0  0  0  0  0  0
  -21.1988   -7.6153   23.9694 H   0  0  0  0  0  0
  -21.1453   -6.0542   25.9063 H   0  0  0  0  0  0
  -22.0598   -2.7631   23.2857 H   0  0  0  0  0  0
  -22.3920  -11.9760   22.4906 H   0  0  0  0  0  0
  -21.0997  -13.1178   22.2798 H   0  0  0  0  0  0
  -24.5392  -15.7542   20.3270 H   0  0  0  0  0  0
  -26.1663  -15.5878   19.9203 H   0  0  0  0  0  0
  -26.7341  -32.5182   23.0876 H   0  0  0  0  0  0
  -25.0070  -33.9514   25.0191 H   0  0  0  0  0  0
  -22.7843  -31.2715   21.3513 H   0  0  0  0  0  0
  -23.3741  -35.9569   23.3283 H   0  0  0  0  0  0
  -24.3565  -36.8933   22.2072 H   0  0  0  0  0  0
  -23.7262  -37.6418   23.6742 H   0  0  0  0  0  0
  -26.2067  -31.3927   20.6156 H   0  0  0  0  0  0
  -26.9023  -30.7101   22.0451 H   0  0  0  0  0  0
  -28.1508  -28.6355   21.2699 H   0  0  0  0  0  0
  -25.8833  -25.7704   18.9781 H   0  0  0  0  0  0
  -23.9981  -27.2742   18.9605 H   0  0  0  0  0  0
  -23.8618  -30.5283   19.3897 H   0  0  0  0  0  0
  -22.8210  -29.2114   19.8309 H   0  0  0  0  0  0
  -25.1324  -36.1767   25.0773 H   0  0  0  0  0  0
  -21.0035  -28.3380   24.1308 H   0  0  0  0  0  0
  -20.5695  -26.2381   23.3658 H   0  0  0  0  0  0
  -21.6655  -26.7424   22.1211 H   0  0  0  0  0  0
  -19.6931  -25.6281   21.1288 H   0  0  0  0  0  0
  -19.6710  -27.3161   20.6721 H   0  0  0  0  0  0
  -17.4226  -26.6718   21.4009 H   0  0  0  0  0  0
  -18.0304  -26.0088   22.9011 H   0  0  0  0  0  0
  -19.7985  -30.7321   24.2188 H   0  0  0  0  0  0
  -17.5062  -31.6278   24.5182 H   0  0  0  0  0  0
  -15.5387  -30.2994   23.7702 H   0  0  0  0  0  0
  -15.8703  -28.0843   22.7081 H   0  0  0  0  0  0
  -24.5860  -30.7171   25.7649 H   0  0  0  0  0  0
  -24.8918  -32.2987   26.4686 H   0  0  0  0  0  0
  -25.7925  -30.8998   27.0174 H   0  0  0  0  0  0
  -26.3140  -29.6593   24.1359 H   0  0  0  0  0  0
  -27.4021  -29.7282   25.5008 H   0  0  0  0  0  0
  -27.9060  -30.4129   23.9763 H   0  0  0  0  0  0
  -27.2540  -33.3705   26.1952 H   0  0  0  0  0  0
  -28.3871  -32.6957   25.0344 H   0  0  0  0  0  0
  -28.0660  -31.8617   26.5501 H   0  0  0  0  0  0
  -28.2555  -38.0080   24.7494 H   0  0  0  0  0  0
  -28.1082  -36.2604   24.6288 H   0  0  0  0  0  0
  -27.2282  -37.1407   25.8863 H   0  0  0  0  0  0
  -20.9563  -29.8782   21.6708 H   0  0  0  0  0  0
  -26.0119  -38.2759   24.1450 H   0  0  0  0  0  0
  -28.4953  -22.4238   22.2973 H   0  0  0  0  0  0
  -27.0623  -15.8486   18.2034 H   0  0  0  0  0  0
  -28.6414  -16.6669   17.7739 H   0  0  0  0  0  0
  -26.4400  -17.6703   19.6954 H   0  0  0  0  0  0
  -27.8693  -18.5670   19.0299 H   0  0  0  0  0  0
  -27.7811  -15.9644   20.7473 H   0  0  0  0  0  0
  -28.8263  -20.4614   23.5437 H   0  0  0  0  0  0
  -30.4273  -19.8914   23.0854 H   0  0  0  0  0  0
  -29.0114  -18.8780   22.7818 H   0  0  0  0  0  0
  -31.0038  -19.7650   17.8196 H   0  0  0  0  0  0
  -29.9602  -20.9244   17.0181 H   0  0  0  0  0  0
  -29.3386  -19.3310   17.4254 H   0  0  0  0  0  0
  -30.9015  -18.1151   21.2079 H   0  0  0  0  0  0
  -31.0469  -18.1291   19.5139 H   0  0  0  0  0  0
  -26.9769  -24.1593   20.5693 H   0  0  0  0  0  0
  -27.5708  -24.2777   18.9619 H   0  0  0  0  0  0
  1 25  1  0  0  0
  1 30  2  0  0  0
  1 84  1  0  0  0
  2  3  1  0  0  0
  2 25  1  0  0  0
  2 85  1  0  0  0
  2 86  1  0  0  0
  3  4  1  0  0  0
  3 87  1  0  0  0
  3 88  1  0  0  0
  4  5  1  0  0  0
  4 89  1  0  0  0
  4 90  1  0  0  0
  5  6  1  0  0  0
  5 26  1  0  0  0
  5 91  1  0  0  0
  6 25  1  0  0  0
  6 92  1  0  0  0
  6 93  1  0  0  0
  7  8  2  0  0  0
  7 26  1  0  0  0
  7 29  1  0  0  0
  8  9  1  0  0  0
  8 22  1  0  0  0
  9 10  1  0  0  0
  9 27  2  0  0  0
 10 11  2  0  0  0
 10 15  1  0  0  0
 11 12  1  0  0  0
 11 94  1  0  0  0
 12 13  2  0  0  0
 12 95  1  0  0  0
 13 14  1  0  0  0
 13 31  1  0  0  0
 14 15  2  0  0  0
 14 96  1  0  0  0
 15 97  1  0  0  0
 16 17  2  0  0  0
 16 21  1  0  0  0
 16 31  1  0  0  0
 17 18  1  0  0  0
 17 98  1  0  0  0
 18 19  2  0  0  0
 18 99  1  0  0  0
 19 20  1  0  0  0
 19 24  1  0  0  0
 20 21  2  0  0  0
 20100  1  0  0  0
 21 23  1  0  0  0
 22 28  1  0  0  0
 22 32  2  0  0  0
 26 27  1  0  0  0
 28101  1  0  0  0
 28102  1  0  0  0
 29103  1  0  0  0
 29104  1  0  0  0
 33 34  1  0  0  0
 33 66  1  0  0  0
 33 70  2  0  0  0
 34 36  1  0  0  0
 34 59  1  0  0  0
 34105  1  0  0  0
 35 44  2  0  0  0
 35 45  1  0  0  0
 35 68  1  0  0  0
 36 56  1  0  0  0
 36106  1  0  0  0
 37 39  1  0  0  0
 37 47  1  0  0  0
 37 66  1  0  0  0
 37107  1  0  0  0
 38 43  2  0  0  0
 38 46  1  0  0  0
 38 47  1  0  0  0
 39 64  1  0  0  0
 39 67  2  0  0  0
 40 52  1  0  0  0
 40 53  2  0  0  0
 40 58  1  0  0  0
 41108  1  0  0  0
 41109  1  0  0  0
 41110  1  0  0  0
 41 48  1  0  0  0
 42 43  1  0  0  0
 42 66  1  0  0  0
 42111  1  0  0  0
 42112  1  0  0  0
 43 44  1  0  0  0
 44113  1  0  0  0
 45 46  2  0  0  0
 45114  1  0  0  0
 46115  1  0  0  0
 47116  1  0  0  0
 47117  1  0  0  0
 48 56  1  0  0  0
 48 65  1  0  0  0
 48118  1  0  0  0
 49 50  1  0  0  0
 49 53  1  0  0  0
 49 64  1  0  0  0
 49119  1  0  0  0
 50 51  1  0  0  0
 50120  1  0  0  0
 50121  1  0  0  0
 51 52  1  0  0  0
 51122  1  0  0  0
 51123  1  0  0  0
 52124  1  0  0  0
 52125  1  0  0  0
 53 54  1  0  0  0
 54 55  2  0  0  0
 54126  1  0  0  0
 55 57  1  0  0  0
 55127  1  0  0  0
 56 69  2  0  0  0
 57 58  2  0  0  0
 57128  1  0  0  0
 58129  1  0  0  0
 59 60  1  0  0  0
 59 61  1  0  0  0
 59 62  1  0  0  0
 60130  1  0  0  0
 60131  1  0  0  0
 60132  1  0  0  0
 61133  1  0  0  0
 61134  1  0  0  0
 61135  1  0  0  0
 62136  1  0  0  0
 62137  1  0  0  0
 62138  1  0  0  0
 63 65  1  0  0  0
 63139  1  0  0  0
 63140  1  0  0  0
 63141  1  0  0  0
 64142  1  0  0  0
 65143  1  0  0  0
 68 82  1  0  0  0
 71 72  2  0  0  0
 71 74  1  0  0  0
 71144  1  0  0  0
 72 73  1  0  0  0
 72 79  1  0  0  0
 73 75  2  0  0  0
 73 81  1  0  0  0
 74 82  1  0  0  0
 74 83  2  0  0  0
 75 80  1  0  0  0
 75 83  1  0  0  0
 76 77  1  0  0  0
 76 78  1  0  0  0
 76145  1  0  0  0
 76146  1  0  0  0
 77 78  1  0  0  0
 77147  1  0  0  0
 77148  1  0  0  0
 78 84  1  0  0  0
 78149  1  0  0  0
 79150  1  0  0  0
 79151  1  0  0  0
 79152  1  0  0  0
 80153  1  0  0  0
 80154  1  0  0  0
 80155  1  0  0  0
 81 84  1  0  0  0
 81156  1  0  0  0
 81157  1  0  0  0
 82158  1  0  0  0
 82159  1  0  0  0
M  ISO  4   1 100  68 101  82 101  84 100
M  END
> <chiral flag>
0

> <version>
0

> <s_m_source_file>
/data/baiqing/PycharmProjects/Reinvent-master-3.2/result/LINK_invent/BTK/process_docking_weight1_custom_sum_contain_oxygen_bond_distance_aromatic_linkinvent_7_9_3/rearranged_h_0127.sdf

> <i_m_source_file_index>
93

> <r_mmod_Potential_Energy-OPLS-2005>
1224.50988769531

> <r_mmod_Stretch_Energy-OPLS-2005>
485.255523681641

> <r_mmod_Bend_Energy-OPLS-2005>
429.639831542969

> <r_mmod_Torsional_Energy-OPLS-2005>
352.669616699219

> <r_mmod_Improper_Torsional_Energy-OPLS-2005>
10.575629234314

> <r_mmod_Van_der_Waal_Energy-OPLS-2005>
143.994674682617

> <r_mmod_Electrostatic_Energy-OPLS-2005>
-395.732757568359

> <r_mmod_Solvation_Energy-OPLS-2005>
-214.86181640625

> <b_mmod_Minimization_Converged-OPLS-2005>
0

> <r_mmod_RMS_Derivative-OPLS-2005>
3.04070615768433

$$$$
93
                    3D
 Structure written by MMmdl.
166175  0  0  1  0            999 V2000
  -30.6209  -14.6528   20.4799 C   0  0  0  0  0  0
  -30.4329  -12.4014   19.4450 C   0  0  0  0  0  0
  -29.5054  -12.5164   18.2164 C   0  0  0  0  0  0
  -28.0272  -12.3600   18.6298 C   0  0  0  0  0  0
  -27.6514  -13.2259   19.8625 C   0  0  2  0  0  0
  -28.6995  -13.0897   20.9890 C   0  0  0  0  0  0
  -25.2545  -13.8192   20.5726 C   0  0  0  0  0  0
  -24.1833  -13.0433   20.9228 C   0  0  0  0  0  0
  -24.6416  -11.6909   20.8760 C   0  0  0  0  0  0
  -23.9091  -10.4281   21.0421 C   0  0  0  0  0  0
  -24.3635   -9.4196   21.9202 C   0  0  0  0  0  0
  -23.6301   -8.2239   22.0766 C   0  0  0  0  0  0
  -22.4280   -8.0283   21.3546 C   0  0  0  0  0  0
  -21.9912   -9.0275   20.4659 C   0  0  0  0  0  0
  -22.7255  -10.2144   20.3075 C   0  0  0  0  0  0
  -21.6839   -6.0740   22.5288 C   0  0  0  0  0  0
  -21.4019   -6.5649   23.8219 C   0  0  0  0  0  0
  -21.3653   -5.6795   24.9182 C   0  0  0  0  0  0
  -21.6042   -4.3061   24.7224 C   0  0  0  0  0  0
  -21.8806   -3.8144   23.4347 C   0  0  0  0  0  0
  -21.9192   -4.6974   22.3400 C   0  0  0  0  0  0
  -22.7844  -13.5232   21.1854 C   0  0  0  0  0  0
  -22.1657   -4.2166   21.0971 F   0  0  0  0  0  0
  -21.5625   -3.4535   25.7731 F   0  0  0  0  0  0
  -30.0068  -13.4302   20.4146 N   0  0  0  0  0  0
  -26.2990  -12.9392   20.3339 N   0  0  0  0  0  0
  -25.9349  -11.6536   20.5779 N   0  0  0  0  0  0
  -22.0461  -12.8253   22.0413 N   0  0  0  0  0  0
  -25.4196  -15.1925   20.4129 N   0  0  0  0  0  0
  -31.7965  -14.7957   20.1319 O   0  0  0  0  0  0
  -21.6624   -6.8896   21.4248 O   0  0  0  0  0  0
  -22.3540  -14.5527   20.6672 O   0  0  0  0  0  0
  -24.6229  -31.8622   23.2050 C   0  0  0  0  0  0
  -25.9080  -32.4803   23.8369 C   0  0  1  0  0  0
  -27.2277  -27.3252   20.1148 C   0  0  0  0  0  0
  -25.5903  -33.8604   24.2298 N   0  0  0  0  0  0
  -23.4176  -30.4848   21.5464 C   0  0  2  0  0  0
  -24.8667  -28.9376   20.1157 C   0  0  0  0  0  0
  -22.7462  -29.4623   22.4930 C   0  0  0  0  0  0
  -18.0281  -28.1389   22.8498 C   0  0  0  0  0  0
  -24.1477  -36.7281   23.2639 C   0  0  0  0  0  0
  -25.9585  -30.7901   21.3801 C   0  0  0  0  0  0
  -26.0327  -29.4154   20.7276 C   0  0  0  0  0  0
  -27.2125  -28.6154   20.7268 C   0  0  0  0  0  0
  -26.0484  -26.9116   19.4565 C   0  0  0  0  0  0
  -24.8740  -27.6880   19.4759 C   0  0  0  0  0  0
  -23.6356  -29.8190   20.1623 C   0  0  0  0  0  0
  -25.4107  -36.3104   24.0336 C   0  0  1  0  0  0
  -20.5887  -28.3692   23.1293 C   0  0  2  0  0  0
  -20.6772  -26.9413   22.5420 C   0  0  0  0  0  0
  -19.5741  -26.6390   21.5221 C   0  0  0  0  0  0
  -18.1926  -26.7938   22.1636 C   0  0  0  0  0  0
  -19.1537  -28.8861   23.2905 C   0  0  0  0  0  0
  -18.9462  -30.1459   23.8917 C   0  0  0  0  0  0
  -17.6466  -30.6603   24.0571 C   0  0  0  0  0  0
  -25.9043  -34.9470   23.5121 C   0  0  0  0  0  0
  -16.5355  -29.9097   23.6333 C   0  0  0  0  0  0
  -16.7275  -28.6511   23.0368 C   0  0  0  0  0  0
  -26.4471  -31.6619   25.0739 C   0  0  0  0  0  0
  -25.3707  -31.3776   26.1478 C   0  0  0  0  0  0
  -27.0306  -30.3042   24.6195 C   0  0  0  0  0  0
  -27.6042  -32.4344   25.7507 C   0  0  0  0  0  0
  -27.5579  -37.1804   24.8470 C   0  0  0  0  0  0
  -21.4174  -29.3040   22.3677 N   0  0  0  0  0  0
  -26.4290  -37.3798   23.9421 N   0  0  0  0  0  0
  -24.6853  -31.0621   22.1006 N   0  0  0  0  0  0
  -23.4186  -28.8161   23.3003 O   0  0  0  0  0  0
  -28.3636  -26.5026   20.1203 O   0  0  0  0  0  0
  -26.5617  -34.8929   22.4687 O   0  0  0  0  0  0
  -23.5389  -32.1417   23.7366 O   0  0  0  0  0  0
  -29.4463  -22.8590   19.8909 C   0  0  0  0  0  0
  -29.4403  -24.2905   19.8144 C   0  0  0  0  0  0
  -27.2279  -24.3397   20.7094 C   0  0  0  0  0  0
  -28.3200  -22.1136   20.3333 C   0  0  0  0  0  0
  -27.1990  -22.9143   20.7249 C   0  0  0  0  0  0
  -28.3258  -25.0840   20.2107 C   0  0  0  0  0  0
  -28.2318  -20.5672   20.3089 C   0  0  0  0  0  0
  -25.8602  -22.2844   21.0841 C   0  0  0  0  0  0
  -25.8215  -20.7522   20.9962 C   0  0  0  0  0  0
  -26.7854  -20.1461   19.9541 C   0  0  1  0  0  0
  -27.5028  -20.0570   17.4525 C   0  0  0  0  0  0
  -25.0907  -19.8319   18.0340 C   0  0  0  0  0  0
  -28.9146  -18.2007   20.5039 C   0  0  0  0  0  0
  -30.1549  -17.2074   20.6071 C   0  0  0  0  0  0
  -26.4180  -20.4750   18.4687 C   0  0  0  0  0  0
  -29.1894  -19.6865   20.5071 N   0  0  0  0  0  0
  -29.8219  -15.7381   20.7324 N   0  0  0  0  0  0
  -31.4763  -12.5188   19.1449 H   0  0  0  0  0  0
  -30.3604  -11.4086   19.8892 H   0  0  0  0  0  0
  -29.7672  -11.7637   17.4724 H   0  0  0  0  0  0
  -29.6541  -13.4832   17.7326 H   0  0  0  0  0  0
  -27.8537  -11.3070   18.8528 H   0  0  0  0  0  0
  -27.3742  -12.6025   17.7905 H   0  0  0  0  0  0
  -27.6646  -14.2613   19.5223 H   0  0  0  0  0  0
  -28.7188  -12.0720   21.3805 H   0  0  0  0  0  0
  -28.4607  -13.7361   21.8351 H   0  0  0  0  0  0
  -25.2787   -9.5662   22.4783 H   0  0  0  0  0  0
  -24.0004   -7.4610   22.7475 H   0  0  0  0  0  0
  -21.0843   -8.8797   19.8968 H   0  0  0  0  0  0
  -22.3720  -10.9695   19.6186 H   0  0  0  0  0  0
  -21.2019   -7.6154   23.9744 H   0  0  0  0  0  0
  -21.1490   -6.0516   25.9091 H   0  0  0  0  0  0
  -22.0596   -2.7617   23.2827 H   0  0  0  0  0  0
  -22.4052  -11.9944   22.4861 H   0  0  0  0  0  0
  -21.1085  -13.1326   22.2585 H   0  0  0  0  0  0
  -24.6393  -15.8326   20.5114 H   0  0  0  0  0  0
  -26.2475  -15.6291   20.0282 H   0  0  0  0  0  0
  -26.7151  -32.5500   23.1124 H   0  0  0  0  0  0
  -25.0061  -33.9758   25.0449 H   0  0  0  0  0  0
  -22.7095  -31.3038   21.4017 H   0  0  0  0  0  0
  -23.3754  -35.9601   23.3326 H   0  0  0  0  0  0
  -24.3559  -36.8870   22.2049 H   0  0  0  0  0  0
  -23.7210  -37.6481   23.6634 H   0  0  0  0  0  0
  -26.0905  -31.5498   20.6081 H   0  0  0  0  0  0
  -26.8384  -30.8432   22.0104 H   0  0  0  0  0  0
  -28.1099  -28.9732   21.2141 H   0  0  0  0  0  0
  -26.0278  -25.9652   18.9354 H   0  0  0  0  0  0
  -23.9834  -27.3202   18.9843 H   0  0  0  0  0  0
  -23.7574  -30.5945   19.4053 H   0  0  0  0  0  0
  -22.7559  -29.2494   19.8584 H   0  0  0  0  0  0
  -25.1290  -36.1964   25.0830 H   0  0  0  0  0  0
  -21.0004  -28.3276   24.1405 H   0  0  0  0  0  0
  -20.5668  -26.2296   23.3621 H   0  0  0  0  0  0
  -21.6643  -26.7440   22.1213 H   0  0  0  0  0  0
  -19.6895  -25.6299   21.1254 H   0  0  0  0  0  0
  -19.6685  -27.3198   20.6752 H   0  0  0  0  0  0
  -17.4196  -26.6696   21.4043 H   0  0  0  0  0  0
  -18.0322  -26.0076   22.9028 H   0  0  0  0  0  0
  -19.7942  -30.7276   24.2293 H   0  0  0  0  0  0
  -17.5023  -31.6291   24.5157 H   0  0  0  0  0  0
  -15.5356  -30.3016   23.7650 H   0  0  0  0  0  0
  -15.8671  -28.0843   22.7078 H   0  0  0  0  0  0
  -24.5862  -30.7142   25.7818 H   0  0  0  0  0  0
  -24.8918  -32.2953   26.4910 H   0  0  0  0  0  0
  -25.8030  -30.8955   27.0258 H   0  0  0  0  0  0
  -26.2890  -29.6820   24.1171 H   0  0  0  0  0  0
  -27.3945  -29.7285   25.4713 H   0  0  0  0  0  0
  -27.8782  -30.4321   23.9459 H   0  0  0  0  0  0
  -27.2660  -33.3628   26.2128 H   0  0  0  0  0  0
  -28.3834  -32.6942   25.0326 H   0  0  0  0  0  0
  -28.0733  -31.8447   26.5397 H   0  0  0  0  0  0
  -28.2618  -38.0086   24.7530 H   0  0  0  0  0  0
  -28.1059  -36.2622   24.6289 H   0  0  0  0  0  0
  -27.2300  -37.1456   25.8876 H   0  0  0  0  0  0
  -20.9331  -29.8747   21.6897 H   0  0  0  0  0  0
  -26.0173  -38.2872   24.1439 H   0  0  0  0  0  0
  -30.3186  -22.3186   19.5487 H   0  0  0  0  0  0
  -30.3202  -24.7885   19.4315 H   0  0  0  0  0  0
  -26.3474  -24.8626   21.0495 H   0  0  0  0  0  0
  -25.1270  -22.6896   20.3852 H   0  0  0  0  0  0
  -25.5457  -22.6185   22.0738 H   0  0  0  0  0  0
  -24.7966  -20.4154   20.8400 H   0  0  0  0  0  0
  -26.1025  -20.3570   21.9734 H   0  0  0  0  0  0
  -26.6474  -19.0739   20.0692 H   0  0  0  0  0  0
  -28.4466  -20.5767   17.6185 H   0  0  0  0  0  0
  -27.2012  -20.2956   16.4329 H   0  0  0  0  0  0
  -27.6973  -18.9856   17.4990 H   0  0  0  0  0  0
  -24.2571  -20.1354   18.6664 H   0  0  0  0  0  0
  -25.1480  -18.7424   18.0585 H   0  0  0  0  0  0
  -24.8406  -20.1174   17.0105 H   0  0  0  0  0  0
  -28.2468  -17.9704   21.3354 H   0  0  0  0  0  0
  -28.3840  -17.9219   19.5910 H   0  0  0  0  0  0
  -30.7828  -17.3443   19.7251 H   0  0  0  0  0  0
  -30.7718  -17.4832   21.4635 H   0  0  0  0  0  0
  -26.3012  -21.5561   18.3730 H   0  0  0  0  0  0
  -28.8729  -15.5194   20.9937 H   0  0  0  0  0  0
  1 25  1  0  0  0
  1 30  2  0  0  0
  1 87  1  0  0  0
  2  3  1  0  0  0
  2 25  1  0  0  0
  2 88  1  0  0  0
  2 89  1  0  0  0
  3  4  1  0  0  0
  3 90  1  0  0  0
  3 91  1  0  0  0
  4  5  1  0  0  0
  4 92  1  0  0  0
  4 93  1  0  0  0
  5  6  1  0  0  0
  5 26  1  0  0  0
  5 94  1  0  0  0
  6 25  1  0  0  0
  6 95  1  0  0  0
  6 96  1  0  0  0
  7  8  2  0  0  0
  7 26  1  0  0  0
  7 29  1  0  0  0
  8  9  1  0  0  0
  8 22  1  0  0  0
  9 10  1  0  0  0
  9 27  2  0  0  0
 10 11  2  0  0  0
 10 15  1  0  0  0
 11 12  1  0  0  0
 11 97  1  0  0  0
 12 13  2  0  0  0
 12 98  1  0  0  0
 13 14  1  0  0  0
 13 31  1  0  0  0
 14 15  2  0  0  0
 14 99  1  0  0  0
 15100  1  0  0  0
 16 17  2  0  0  0
 16 21  1  0  0  0
 16 31  1  0  0  0
 17 18  1  0  0  0
 17101  1  0  0  0
 18 19  2  0  0  0
 18102  1  0  0  0
 19 20  1  0  0  0
 19 24  1  0  0  0
 20 21  2  0  0  0
 20103  1  0  0  0
 21 23  1  0  0  0
 22 28  1  0  0  0
 22 32  2  0  0  0
 26 27  1  0  0  0
 28104  1  0  0  0
 28105  1  0  0  0
 29106  1  0  0  0
 29107  1  0  0  0
 33 34  1  0  0  0
 33 66  1  0  0  0
 33 70  2  0  0  0
 34 36  1  0  0  0
 34 59  1  0  0  0
 34108  1  0  0  0
 35 44  2  0  0  0
 35 45  1  0  0  0
 35 68  1  0  0  0
 36 56  1  0  0  0
 36109  1  0  0  0
 37 39  1  0  0  0
 37 47  1  0  0  0
 37 66  1  0  0  0
 37110  1  0  0  0
 38 43  2  0  0  0
 38 46  1  0  0  0
 38 47  1  0  0  0
 39 64  1  0  0  0
 39 67  2  0  0  0
 40 52  1  0  0  0
 40 53  2  0  0  0
 40 58  1  0  0  0
 41111  1  0  0  0
 41112  1  0  0  0
 41113  1  0  0  0
 41 48  1  0  0  0
 42 43  1  0  0  0
 42 66  1  0  0  0
 42114  1  0  0  0
 42115  1  0  0  0
 43 44  1  0  0  0
 44116  1  0  0  0
 45 46  2  0  0  0
 45117  1  0  0  0
 46118  1  0  0  0
 47119  1  0  0  0
 47120  1  0  0  0
 48 56  1  0  0  0
 48 65  1  0  0  0
 48121  1  0  0  0
 49 50  1  0  0  0
 49 53  1  0  0  0
 49 64  1  0  0  0
 49122  1  0  0  0
 50 51  1  0  0  0
 50123  1  0  0  0
 50124  1  0  0  0
 51 52  1  0  0  0
 51125  1  0  0  0
 51126  1  0  0  0
 52127  1  0  0  0
 52128  1  0  0  0
 53 54  1  0  0  0
 54 55  2  0  0  0
 54129  1  0  0  0
 55 57  1  0  0  0
 55130  1  0  0  0
 56 69  2  0  0  0
 57 58  2  0  0  0
 57131  1  0  0  0
 58132  1  0  0  0
 59 60  1  0  0  0
 59 61  1  0  0  0
 59 62  1  0  0  0
 60133  1  0  0  0
 60134  1  0  0  0
 60135  1  0  0  0
 61136  1  0  0  0
 61137  1  0  0  0
 61138  1  0  0  0
 62139  1  0  0  0
 62140  1  0  0  0
 62141  1  0  0  0
 63 65  1  0  0  0
 63142  1  0  0  0
 63143  1  0  0  0
 63144  1  0  0  0
 64145  1  0  0  0
 65146  1  0  0  0
 68 76  1  0  0  0
 71 72  2  0  0  0
 71 74  1  0  0  0
 71147  1  0  0  0
 72 76  1  0  0  0
 72148  1  0  0  0
 73 75  1  0  0  0
 73 76  2  0  0  0
 73149  1  0  0  0
 74 75  2  0  0  0
 74 77  1  0  0  0
 75 78  1  0  0  0
 77 80  1  0  0  0
 77 86  2  0  0  0
 78 79  1  0  0  0
 78150  1  0  0  0
 78151  1  0  0  0
 79152  1  0  0  0
 79153  1  0  0  0
 79 80  1  0  0  0
 80 85  1  0  0  0
 80154  1  0  0  0
 81155  1  0  0  0
 81156  1  0  0  0
 81157  1  0  0  0
 81 85  1  0  0  0
 82 85  1  0  0  0
 82158  1  0  0  0
 82159  1  0  0  0
 82160  1  0  0  0
 83 84  1  0  0  0
 83 86  1  0  0  0
 83161  1  0  0  0
 83162  1  0  0  0
 84 87  1  0  0  0
 84163  1  0  0  0
 84164  1  0  0  0
 85165  1  0  0  0
 87166  1  0  0  0
M  ISO  4   1 100  68 101  76 101  87 100
M  END
> <chiral flag>
0

> <version>
0

> <s_m_source_file>
/data/baiqing/PycharmProjects/Reinvent-master-3.2/result/LINK_invent/BTK/process_docking_weight1_custom_sum_contain_oxygen_bond_distance_aromatic_linkinvent_7_9_3/rearranged_h_0127.sdf

> <i_m_source_file_index>
94

> <r_mmod_Potential_Energy-OPLS-2005>
99.6355285644531

> <r_mmod_Stretch_Energy-OPLS-2005>
90.6346664428711

> <r_mmod_Bend_Energy-OPLS-2005>
142.819137573242

> <r_mmod_Torsional_Energy-OPLS-2005>
224.001678466797

> <r_mmod_Improper_Torsional_Energy-OPLS-2005>
5.68755722045898

> <r_mmod_Van_der_Waal_Energy-OPLS-2005>
158.899063110352

> <r_mmod_Electrostatic_Energy-OPLS-2005>
-354.685424804688

> <r_mmod_Solvation_Energy-OPLS-2005>
-215.86750793457

> <b_mmod_Minimization_Converged-OPLS-2005>
0

> <r_mmod_RMS_Derivative-OPLS-2005>
2.99525833129883

$$$$
94
                    3D
 Structure written by MMmdl.
163172  0  0  1  0            999 V2000
  -30.6267  -14.9304   20.4197 C   0  0  0  0  0  0
  -30.4124  -12.5877   19.4941 C   0  0  0  0  0  0
  -29.5045  -12.5141   18.2496 C   0  0  0  0  0  0
  -28.0435  -12.2992   18.6781 C   0  0  0  0  0  0
  -27.6162  -13.2517   19.8243 C   0  0  2  0  0  0
  -28.6592  -13.3366   20.9593 C   0  0  0  0  0  0
  -25.2393  -13.8215   20.5717 C   0  0  0  0  0  0
  -24.1731  -13.0427   20.9247 C   0  0  0  0  0  0
  -24.6368  -11.6920   20.8779 C   0  0  0  0  0  0
  -23.9068  -10.4287   21.0422 C   0  0  0  0  0  0
  -24.3621   -9.4200   21.9194 C   0  0  0  0  0  0
  -23.6293   -8.2239   22.0761 C   0  0  0  0  0  0
  -22.4272   -8.0282   21.3552 C   0  0  0  0  0  0
  -21.9909   -9.0257   20.4654 C   0  0  0  0  0  0
  -22.7241  -10.2130   20.3063 C   0  0  0  0  0  0
  -21.6852   -6.0735   22.5279 C   0  0  0  0  0  0
  -21.4015   -6.5637   23.8213 C   0  0  0  0  0  0
  -21.3657   -5.6791   24.9174 C   0  0  0  0  0  0
  -21.6041   -4.3054   24.7225 C   0  0  0  0  0  0
  -21.8819   -3.8146   23.4347 C   0  0  0  0  0  0
  -21.9193   -4.6961   22.3403 C   0  0  0  0  0  0
  -22.7754  -13.5196   21.1896 C   0  0  0  0  0  0
  -22.1662   -4.2148   21.0981 F   0  0  0  0  0  0
  -21.5626   -3.4537   25.7739 F   0  0  0  0  0  0
  -29.9318  -13.7227   20.3403 N   0  0  0  0  0  0
  -26.2816  -12.9463   20.3221 N   0  0  0  0  0  0
  -25.9296  -11.6590   20.5754 N   0  0  0  0  0  0
  -22.0410  -12.8188   22.0458 N   0  0  0  0  0  0
  -25.4001  -15.1943   20.4131 N   0  0  0  0  0  0
  -31.8427  -14.8511   20.2110 O   0  0  0  0  0  0
  -21.6639   -6.8879   21.4243 O   0  0  0  0  0  0
  -22.3436  -14.5499   20.6737 O   0  0  0  0  0  0
  -24.6422  -31.8451   23.1886 C   0  0  0  0  0  0
  -25.9200  -32.4697   23.8273 C   0  0  1  0  0  0
  -27.2096  -27.1425   20.1560 C   0  0  0  0  0  0
  -25.5951  -33.8504   24.2189 N   0  0  0  0  0  0
  -23.4442  -30.4655   21.5344 C   0  0  2  0  0  0
  -24.8906  -28.8905   20.1125 C   0  0  0  0  0  0
  -22.7556  -29.4558   22.4864 C   0  0  0  0  0  0
  -18.0304  -28.1398   22.8477 C   0  0  0  0  0  0
  -24.1491  -36.7261   23.2642 C   0  0  0  0  0  0
  -25.9988  -30.7212   21.3853 C   0  0  0  0  0  0
  -26.0673  -29.3322   20.7296 C   0  0  0  0  0  0
  -27.2280  -28.4746   20.7317 C   0  0  0  0  0  0
  -26.0093  -26.8002   19.4963 C   0  0  0  0  0  0
  -24.8737  -27.6382   19.4806 C   0  0  0  0  0  0
  -23.6688  -29.7939   20.1538 C   0  0  0  0  0  0
  -25.4121  -36.3034   24.0317 C   0  0  1  0  0  0
  -20.5915  -28.3723   23.1238 C   0  0  2  0  0  0
  -20.6788  -26.9427   22.5404 C   0  0  0  0  0  0
  -19.5762  -26.6384   21.5213 C   0  0  0  0  0  0
  -18.1944  -26.7937   22.1624 C   0  0  0  0  0  0
  -19.1561  -28.8878   23.2852 C   0  0  0  0  0  0
  -18.9477  -30.1473   23.8880 C   0  0  0  0  0  0
  -17.6474  -30.6593   24.0563 C   0  0  0  0  0  0
  -25.9072  -34.9408   23.5063 C   0  0  0  0  0  0
  -16.5365  -29.9088   23.6332 C   0  0  0  0  0  0
  -16.7290  -28.6506   23.0354 C   0  0  0  0  0  0
  -26.4523  -31.6567   25.0714 C   0  0  0  0  0  0
  -25.3710  -31.3764   26.1414 C   0  0  0  0  0  0
  -27.0385  -30.2961   24.6294 C   0  0  0  0  0  0
  -27.6049  -32.4338   25.7499 C   0  0  0  0  0  0
  -27.5575  -37.1786   24.8464 C   0  0  0  0  0  0
  -21.4251  -29.3050   22.3611 N   0  0  0  0  0  0
  -26.4287  -37.3745   23.9408 N   0  0  0  0  0  0
  -24.7150  -31.0321   22.0913 N   0  0  0  0  0  0
  -23.4205  -28.8109   23.3015 O   0  0  0  0  0  0
  -28.2878  -26.1908   20.2025 O   0  0  0  0  0  0
  -26.5659  -34.8906   22.4641 O   0  0  0  0  0  0
  -23.5544  -32.1325   23.7116 O   0  0  0  0  0  0
  -30.7857  -21.7995   18.9747 C   0  0  0  0  0  0
  -31.4970  -22.6495   18.1396 C   0  0  0  0  0  0
  -29.2439  -23.6581   19.4960 C   0  0  0  0  0  0
  -29.6042  -22.1817   19.6594 C   0  0  0  0  0  0
  -29.9957  -24.3525   18.4866 C   0  0  0  0  0  0
  -28.3611  -18.3778   20.2672 C   0  0  0  0  0  0
  -28.7818  -16.8156   20.0382 C   0  0  0  0  0  0
  -31.0003  -17.4051   20.8180 C   0  0  0  0  0  0
  -30.4826  -18.8891   21.1728 C   0  0  2  0  0  0
  -29.4412  -19.5374   20.1724 C   0  0  2  0  0  0
  -29.6279  -25.7139   17.9089 C   0  0  0  0  0  0
  -31.7018  -19.7868   21.4343 C   0  0  0  0  0  0
  -28.1241  -24.6354   20.1815 C   0  0  0  0  0  0
  -31.0862  -23.8811   17.8626 N   0  0  0  0  0  0
  -30.0585  -16.2412   20.6025 N   0  0  0  0  0  0
  -29.0047  -21.0408   20.3560 O   0  0  0  0  0  0
  -31.4495  -12.7039   19.1769 H   0  0  0  0  0  0
  -30.3823  -11.6517   20.0539 H   0  0  0  0  0  0
  -29.8247  -11.7044   17.5922 H   0  0  0  0  0  0
  -29.5919  -13.4347   17.6706 H   0  0  0  0  0  0
  -27.9514  -11.2635   19.0072 H   0  0  0  0  0  0
  -27.3744  -12.4072   17.8235 H   0  0  0  0  0  0
  -27.5601  -14.2342   19.3586 H   0  0  0  0  0  0
  -28.7483  -12.3864   21.4880 H   0  0  0  0  0  0
  -28.3580  -14.0812   21.6981 H   0  0  0  0  0  0
  -25.2768   -9.5672   22.4770 H   0  0  0  0  0  0
  -24.0002   -7.4621   22.7468 H   0  0  0  0  0  0
  -21.0842   -8.8774   19.8953 H   0  0  0  0  0  0
  -22.3706  -10.9672   19.6171 H   0  0  0  0  0  0
  -21.2013   -7.6147   23.9717 H   0  0  0  0  0  0
  -21.1475   -6.0522   25.9077 H   0  0  0  0  0  0
  -22.0601   -2.7607   23.2848 H   0  0  0  0  0  0
  -22.4033  -11.9859   22.4859 H   0  0  0  0  0  0
  -21.1024  -13.1204   22.2665 H   0  0  0  0  0  0
  -24.6286  -15.8422   20.5316 H   0  0  0  0  0  0
  -26.2427  -15.6404   20.0778 H   0  0  0  0  0  0
  -26.7265  -32.5304   23.1001 H   0  0  0  0  0  0
  -25.0068  -33.9617   25.0318 H   0  0  0  0  0  0
  -22.7464  -31.2912   21.3808 H   0  0  0  0  0  0
  -23.3754  -35.9591   23.3292 H   0  0  0  0  0  0
  -24.3577  -36.8905   22.2059 H   0  0  0  0  0  0
  -23.7247  -37.6455   23.6688 H   0  0  0  0  0  0
  -26.1531  -31.4743   20.6115 H   0  0  0  0  0  0
  -26.8701  -30.7712   22.0266 H   0  0  0  0  0  0
  -28.1281  -28.8099   21.2276 H   0  0  0  0  0  0
  -25.9167  -25.8543   18.9866 H   0  0  0  0  0  0
  -23.9763  -27.2983   18.9818 H   0  0  0  0  0  0
  -23.8067  -30.5676   19.3977 H   0  0  0  0  0  0
  -22.7826  -29.2374   19.8435 H   0  0  0  0  0  0
  -25.1309  -36.1861   25.0809 H   0  0  0  0  0  0
  -21.0008  -28.3316   24.1360 H   0  0  0  0  0  0
  -20.5682  -26.2340   23.3625 H   0  0  0  0  0  0
  -21.6656  -26.7436   22.1205 H   0  0  0  0  0  0
  -19.6924  -25.6290   21.1258 H   0  0  0  0  0  0
  -19.6697  -27.3181   20.6733 H   0  0  0  0  0  0
  -17.4212  -26.6681   21.4029 H   0  0  0  0  0  0
  -18.0343  -26.0086   22.9027 H   0  0  0  0  0  0
  -19.7953  -30.7294   24.2244 H   0  0  0  0  0  0
  -17.5028  -31.6270   24.5171 H   0  0  0  0  0  0
  -15.5366  -30.2985   23.7667 H   0  0  0  0  0  0
  -15.8689  -28.0820   22.7077 H   0  0  0  0  0  0
  -24.5886  -30.7113   25.7743 H   0  0  0  0  0  0
  -24.8904  -32.2951   26.4787 H   0  0  0  0  0  0
  -25.7993  -30.8974   27.0227 H   0  0  0  0  0  0
  -26.2999  -29.6685   24.1294 H   0  0  0  0  0  0
  -27.3988  -29.7261   25.4869 H   0  0  0  0  0  0
  -27.8911  -30.4195   23.9613 H   0  0  0  0  0  0
  -27.2633  -33.3651   26.2028 H   0  0  0  0  0  0
  -28.3883  -32.6882   25.0346 H   0  0  0  0  0  0
  -28.0695  -31.8502   26.5457 H   0  0  0  0  0  0
  -28.2588  -38.0086   24.7504 H   0  0  0  0  0  0
  -28.1075  -36.2616   24.6296 H   0  0  0  0  0  0
  -27.2295  -37.1441   25.8867 H   0  0  0  0  0  0
  -20.9461  -29.8759   21.6786 H   0  0  0  0  0  0
  -26.0153  -38.2815   24.1406 H   0  0  0  0  0  0
  -31.2275  -20.8249   19.0455 H   0  0  0  0  0  0
  -32.3916  -22.3110   17.6376 H   0  0  0  0  0  0
  -27.8867  -18.4482   21.2475 H   0  0  0  0  0  0
  -27.5580  -18.6110   19.5675 H   0  0  0  0  0  0
  -28.8158  -16.6333   18.9633 H   0  0  0  0  0  0
  -27.9668  -16.2036   20.4163 H   0  0  0  0  0  0
  -31.6951  -17.1064   21.6054 H   0  0  0  0  0  0
  -31.6063  -17.4828   19.9133 H   0  0  0  0  0  0
  -29.9816  -18.8206   22.1403 H   0  0  0  0  0  0
  -29.8021  -19.4159   19.1529 H   0  0  0  0  0  0
  -28.5507  -25.8231   17.7853 H   0  0  0  0  0  0
  -30.0544  -25.8534   16.9143 H   0  0  0  0  0  0
  -30.0150  -26.5210   18.5309 H   0  0  0  0  0  0
  -32.3809  -19.8128   20.5826 H   0  0  0  0  0  0
  -32.2768  -19.4192   22.2849 H   0  0  0  0  0  0
  -31.4042  -20.8087   21.6703 H   0  0  0  0  0  0
  -28.0396  -24.3240   21.2227 H   0  0  0  0  0  0
  -27.1753  -24.3552   19.7308 H   0  0  0  0  0  0
  1 25  1  0  0  0
  1 30  2  0  0  0
  1 85  1  0  0  0
  2  3  1  0  0  0
  2 25  1  0  0  0
  2 87  1  0  0  0
  2 88  1  0  0  0
  3  4  1  0  0  0
  3 89  1  0  0  0
  3 90  1  0  0  0
  4  5  1  0  0  0
  4 91  1  0  0  0
  4 92  1  0  0  0
  5  6  1  0  0  0
  5 26  1  0  0  0
  5 93  1  0  0  0
  6 25  1  0  0  0
  6 94  1  0  0  0
  6 95  1  0  0  0
  7  8  2  0  0  0
  7 26  1  0  0  0
  7 29  1  0  0  0
  8  9  1  0  0  0
  8 22  1  0  0  0
  9 10  1  0  0  0
  9 27  2  0  0  0
 10 11  2  0  0  0
 10 15  1  0  0  0
 11 12  1  0  0  0
 11 96  1  0  0  0
 12 13  2  0  0  0
 12 97  1  0  0  0
 13 14  1  0  0  0
 13 31  1  0  0  0
 14 15  2  0  0  0
 14 98  1  0  0  0
 15 99  1  0  0  0
 16 17  2  0  0  0
 16 21  1  0  0  0
 16 31  1  0  0  0
 17 18  1  0  0  0
 17100  1  0  0  0
 18 19  2  0  0  0
 18101  1  0  0  0
 19 20  1  0  0  0
 19 24  1  0  0  0
 20 21  2  0  0  0
 20102  1  0  0  0
 21 23  1  0  0  0
 22 28  1  0  0  0
 22 32  2  0  0  0
 26 27  1  0  0  0
 28103  1  0  0  0
 28104  1  0  0  0
 29105  1  0  0  0
 29106  1  0  0  0
 33 34  1  0  0  0
 33 66  1  0  0  0
 33 70  2  0  0  0
 34 36  1  0  0  0
 34 59  1  0  0  0
 34107  1  0  0  0
 35 44  2  0  0  0
 35 45  1  0  0  0
 35 68  1  0  0  0
 36 56  1  0  0  0
 36108  1  0  0  0
 37 39  1  0  0  0
 37 47  1  0  0  0
 37 66  1  0  0  0
 37109  1  0  0  0
 38 43  2  0  0  0
 38 46  1  0  0  0
 38 47  1  0  0  0
 39 64  1  0  0  0
 39 67  2  0  0  0
 40 52  1  0  0  0
 40 53  2  0  0  0
 40 58  1  0  0  0
 41110  1  0  0  0
 41111  1  0  0  0
 41112  1  0  0  0
 41 48  1  0  0  0
 42 43  1  0  0  0
 42 66  1  0  0  0
 42113  1  0  0  0
 42114  1  0  0  0
 43 44  1  0  0  0
 44115  1  0  0  0
 45 46  2  0  0  0
 45116  1  0  0  0
 46117  1  0  0  0
 47118  1  0  0  0
 47119  1  0  0  0
 48 56  1  0  0  0
 48 65  1  0  0  0
 48120  1  0  0  0
 49 50  1  0  0  0
 49 53  1  0  0  0
 49 64  1  0  0  0
 49121  1  0  0  0
 50 51  1  0  0  0
 50122  1  0  0  0
 50123  1  0  0  0
 51 52  1  0  0  0
 51124  1  0  0  0
 51125  1  0  0  0
 52126  1  0  0  0
 52127  1  0  0  0
 53 54  1  0  0  0
 54 55  2  0  0  0
 54128  1  0  0  0
 55 57  1  0  0  0
 55129  1  0  0  0
 56 69  2  0  0  0
 57 58  2  0  0  0
 57130  1  0  0  0
 58131  1  0  0  0
 59 60  1  0  0  0
 59 61  1  0  0  0
 59 62  1  0  0  0
 60132  1  0  0  0
 60133  1  0  0  0
 60134  1  0  0  0
 61135  1  0  0  0
 61136  1  0  0  0
 61137  1  0  0  0
 62138  1  0  0  0
 62139  1  0  0  0
 62140  1  0  0  0
 63 65  1  0  0  0
 63141  1  0  0  0
 63142  1  0  0  0
 63143  1  0  0  0
 64144  1  0  0  0
 65145  1  0  0  0
 68 83  1  0  0  0
 71 72  2  0  0  0
 71 74  1  0  0  0
 71146  1  0  0  0
 72 84  1  0  0  0
 72147  1  0  0  0
 73 74  2  0  0  0
 73 75  1  0  0  0
 73 83  1  0  0  0
 74 86  1  0  0  0
 75 81  1  0  0  0
 75 84  2  0  0  0
 76 77  1  0  0  0
 76 80  1  0  0  0
 76148  1  0  0  0
 76149  1  0  0  0
 77 85  1  0  0  0
 77150  1  0  0  0
 77151  1  0  0  0
 78 79  1  0  0  0
 78 85  1  0  0  0
 78152  1  0  0  0
 78153  1  0  0  0
 79 80  1  0  0  0
 79 82  1  0  0  0
 79154  1  0  0  0
 80 86  1  0  0  0
 80155  1  0  0  0
 81156  1  0  0  0
 81157  1  0  0  0
 81158  1  0  0  0
 82159  1  0  0  0
 82160  1  0  0  0
 82161  1  0  0  0
 83162  1  0  0  0
 83163  1  0  0  0
M  ISO  4   1 100  68 101  83 101  85 100
M  END
> <chiral flag>
0

> <version>
0

> <s_m_source_file>
/data/baiqing/PycharmProjects/Reinvent-master-3.2/result/LINK_invent/BTK/process_docking_weight1_custom_sum_contain_oxygen_bond_distance_aromatic_linkinvent_7_9_3/rearranged_h_0127.sdf

> <i_m_source_file_index>
95

> <r_mmod_Potential_Energy-OPLS-2005>
633.360412597656

> <r_mmod_Stretch_Energy-OPLS-2005>
266.288848876953

> <r_mmod_Bend_Energy-OPLS-2005>
335.867828369141

> <r_mmod_Torsional_Energy-OPLS-2005>
331.358978271484

> <r_mmod_Improper_Torsional_Energy-OPLS-2005>
4.62905645370483

> <r_mmod_Van_der_Waal_Energy-OPLS-2005>
167.161819458008

> <r_mmod_Electrostatic_Energy-OPLS-2005>
-439.812957763672

> <r_mmod_Solvation_Energy-OPLS-2005>
-215.257369995117

> <b_mmod_Minimization_Converged-OPLS-2005>
0

> <r_mmod_RMS_Derivative-OPLS-2005>
0.854703426361084

$$$$
95
                    3D
 Structure written by MMmdl.
167176  0  0  1  0            999 V2000
  -30.6769  -14.6244   20.5081 C   0  0  0  0  0  0
  -30.4233  -12.3902   19.4540 C   0  0  0  0  0  0
  -29.4927  -12.4905   18.2270 C   0  0  0  0  0  0
  -28.0215  -12.3288   18.6530 C   0  0  0  0  0  0
  -27.6486  -13.2220   19.8659 C   0  0  2  0  0  0
  -28.6972  -13.1141   20.9962 C   0  0  0  0  0  0
  -25.2553  -13.8192   20.5742 C   0  0  0  0  0  0
  -24.1822  -13.0453   20.9227 C   0  0  0  0  0  0
  -24.6399  -11.6925   20.8805 C   0  0  0  0  0  0
  -23.9073  -10.4307   21.0452 C   0  0  0  0  0  0
  -24.3624   -9.4211   21.9216 C   0  0  0  0  0  0
  -23.6289   -8.2252   22.0774 C   0  0  0  0  0  0
  -22.4266   -8.0298   21.3561 C   0  0  0  0  0  0
  -21.9917   -9.0283   20.4670 C   0  0  0  0  0  0
  -22.7253  -10.2156   20.3090 C   0  0  0  0  0  0
  -21.6850   -6.0754   22.5288 C   0  0  0  0  0  0
  -21.4011   -6.5656   23.8226 C   0  0  0  0  0  0
  -21.3653   -5.6802   24.9189 C   0  0  0  0  0  0
  -21.6036   -4.3069   24.7235 C   0  0  0  0  0  0
  -21.8811   -3.8162   23.4355 C   0  0  0  0  0  0
  -21.9186   -4.6980   22.3411 C   0  0  0  0  0  0
  -22.7843  -13.5251   21.1850 C   0  0  0  0  0  0
  -22.1659   -4.2158   21.0998 F   0  0  0  0  0  0
  -21.5617   -3.4563   25.7758 F   0  0  0  0  0  0
  -30.0076  -13.4322   20.4167 N   0  0  0  0  0  0
  -26.2980  -12.9380   20.3397 N   0  0  0  0  0  0
  -25.9332  -11.6529   20.5857 N   0  0  0  0  0  0
  -22.0472  -12.8261   22.0407 N   0  0  0  0  0  0
  -25.4254  -15.1914   20.4134 N   0  0  0  0  0  0
  -31.8483  -14.7265   20.1410 O   0  0  0  0  0  0
  -21.6629   -6.8894   21.4250 O   0  0  0  0  0  0
  -22.3552  -14.5564   20.6705 O   0  0  0  0  0  0
  -24.6277  -31.8628   23.2052 C   0  0  0  0  0  0
  -25.9123  -32.4801   23.8360 C   0  0  1  0  0  0
  -27.2066  -27.2975   20.1040 C   0  0  0  0  0  0
  -25.5945  -33.8594   24.2287 N   0  0  0  0  0  0
  -23.4205  -30.4920   21.5495 C   0  0  2  0  0  0
  -24.8634  -28.9599   20.1018 C   0  0  0  0  0  0
  -22.7484  -29.4639   22.4922 C   0  0  0  0  0  0
  -18.0292  -28.1402   22.8495 C   0  0  0  0  0  0
  -24.1486  -36.7295   23.2636 C   0  0  0  0  0  0
  -25.9664  -30.7825   21.3851 C   0  0  0  0  0  0
  -26.0338  -29.4109   20.7239 C   0  0  0  0  0  0
  -27.2015  -28.5867   20.7287 C   0  0  0  0  0  0
  -26.0178  -26.9372   19.4187 C   0  0  0  0  0  0
  -24.8605  -27.7288   19.4411 C   0  0  0  0  0  0
  -23.6332  -29.8406   20.1601 C   0  0  0  0  0  0
  -25.4114  -36.3093   24.0325 C   0  0  1  0  0  0
  -20.5897  -28.3714   23.1279 C   0  0  2  0  0  0
  -20.6792  -26.9439   22.5407 C   0  0  0  0  0  0
  -19.5759  -26.6404   21.5224 C   0  0  0  0  0  0
  -18.1937  -26.7945   22.1637 C   0  0  0  0  0  0
  -19.1547  -28.8871   23.2886 C   0  0  0  0  0  0
  -18.9465  -30.1474   23.8906 C   0  0  0  0  0  0
  -17.6466  -30.6605   24.0570 C   0  0  0  0  0  0
  -25.9061  -34.9468   23.5100 C   0  0  0  0  0  0
  -16.5357  -29.9105   23.6332 C   0  0  0  0  0  0
  -16.7279  -28.6523   23.0349 C   0  0  0  0  0  0
  -26.4493  -31.6601   25.0723 C   0  0  0  0  0  0
  -25.3692  -31.3753   26.1420 C   0  0  0  0  0  0
  -27.0345  -30.3023   24.6202 C   0  0  0  0  0  0
  -27.6056  -32.4322   25.7493 C   0  0  0  0  0  0
  -27.5578  -37.1806   24.8467 C   0  0  0  0  0  0
  -21.4196  -29.3070   22.3664 N   0  0  0  0  0  0
  -26.4292  -37.3787   23.9409 N   0  0  0  0  0  0
  -24.6906  -31.0613   22.1032 N   0  0  0  0  0  0
  -23.4213  -28.8116   23.2951 O   0  0  0  0  0  0
  -28.2968  -26.4059   20.2282 O   0  0  0  0  0  0
  -26.5631  -34.8931   22.4670 O   0  0  0  0  0  0
  -23.5439  -32.1441   23.7373 O   0  0  0  0  0  0
  -30.1281  -23.3114   19.8340 C   0  0  0  0  0  0
  -30.6010  -21.9846   20.0210 C   0  0  0  0  0  0
  -28.5091  -21.3695   20.9916 C   0  0  0  0  0  0
  -28.0158  -22.7145   20.8469 C   0  0  0  0  0  0
  -28.8158  -23.7263   20.1838 C   0  0  0  0  0  0
  -29.7912  -20.9572   20.5539 C   0  0  0  0  0  0
  -26.7305  -23.0873   23.0111 C   0  0  0  0  0  0
  -25.7300  -24.0364   20.9338 C   0  0  0  0  0  0
  -25.3418  -23.1247   23.6850 C   0  0  0  0  0  0
  -24.3459  -24.0355   21.6113 C   0  0  0  0  0  0
  -26.6258  -22.9206   21.4800 C   0  0  0  0  0  0
  -28.3095  -25.0870   19.5369 C   0  0  0  0  0  0
  -30.5279  -17.1537   20.8192 C   0  0  0  0  0  0
  -29.5691  -18.4285   20.8069 C   0  0  0  0  0  0
  -29.9671  -15.7518   20.8248 N   0  0  0  0  0  0
  -24.4654  -24.1534   23.0819 N   0  3  0  0  0  0
  -30.3399  -19.6622   20.6422 O   0  0  0  0  0  0
  -30.3556  -11.4019   19.9133 H   0  0  0  0  0  0
  -31.4621  -12.5014   19.1400 H   0  0  0  0  0  0
  -29.7541  -11.7284   17.4902 H   0  0  0  0  0  0
  -29.6299  -13.4538   17.7348 H   0  0  0  0  0  0
  -27.8692  -11.2799   18.9087 H   0  0  0  0  0  0
  -27.3587  -12.5365   17.8135 H   0  0  0  0  0  0
  -27.6591  -14.2499   19.5052 H   0  0  0  0  0  0
  -28.7100  -12.1119   21.4266 H   0  0  0  0  0  0
  -28.4488  -13.7899   21.8147 H   0  0  0  0  0  0
  -25.2757   -9.5692   22.4811 H   0  0  0  0  0  0
  -23.9990   -7.4648   22.7501 H   0  0  0  0  0  0
  -21.0843   -8.8823   19.8982 H   0  0  0  0  0  0
  -22.3712  -10.9718   19.6225 H   0  0  0  0  0  0
  -21.2012   -7.6167   23.9738 H   0  0  0  0  0  0
  -21.1475   -6.0541   25.9090 H   0  0  0  0  0  0
  -22.0585   -2.7625   23.2869 H   0  0  0  0  0  0
  -22.4040  -11.9890   22.4777 H   0  0  0  0  0  0
  -21.1117  -13.1352   22.2640 H   0  0  0  0  0  0
  -24.6554  -15.8418   20.5232 H   0  0  0  0  0  0
  -26.2688  -15.6307   20.0669 H   0  0  0  0  0  0
  -26.7177  -32.5464   23.1094 H   0  0  0  0  0  0
  -25.0051  -33.9722   25.0404 H   0  0  0  0  0  0
  -22.7165  -31.3147   21.4145 H   0  0  0  0  0  0
  -23.3755  -35.9619   23.3306 H   0  0  0  0  0  0
  -24.3576  -36.8910   22.2050 H   0  0  0  0  0  0
  -23.7233  -37.6499   23.6647 H   0  0  0  0  0  0
  -26.1033  -31.5450   20.6173 H   0  0  0  0  0  0
  -26.8467  -30.8289   22.0139 H   0  0  0  0  0  0
  -28.0900  -28.9180   21.2473 H   0  0  0  0  0  0
  -25.8933  -26.0239   18.8676 H   0  0  0  0  0  0
  -23.9699  -27.3868   18.9328 H   0  0  0  0  0  0
  -23.7498  -30.6245   19.4117 H   0  0  0  0  0  0
  -22.7512  -29.2745   19.8545 H   0  0  0  0  0  0
  -25.1291  -36.1947   25.0815 H   0  0  0  0  0  0
  -21.0003  -28.3309   24.1395 H   0  0  0  0  0  0
  -20.5725  -26.2328   23.3616 H   0  0  0  0  0  0
  -21.6647  -26.7493   22.1171 H   0  0  0  0  0  0
  -19.6917  -25.6318   21.1251 H   0  0  0  0  0  0
  -19.6681  -27.3211   20.6757 H   0  0  0  0  0  0
  -17.4202  -26.6694   21.4044 H   0  0  0  0  0  0
  -18.0334  -26.0091   22.9039 H   0  0  0  0  0  0
  -19.7934  -30.7296   24.2278 H   0  0  0  0  0  0
  -17.5014  -31.6282   24.5179 H   0  0  0  0  0  0
  -15.5356  -30.3011   23.7654 H   0  0  0  0  0  0
  -15.8677  -28.0854   22.7052 H   0  0  0  0  0  0
  -24.5868  -30.7117   25.7718 H   0  0  0  0  0  0
  -24.8869  -32.2924   26.4806 H   0  0  0  0  0  0
  -25.7954  -30.8931   27.0222 H   0  0  0  0  0  0
  -26.2936  -29.6777   24.1200 H   0  0  0  0  0  0
  -27.4018  -29.7279   25.4719 H   0  0  0  0  0  0
  -27.8810  -30.4318   23.9454 H   0  0  0  0  0  0
  -27.2683  -33.3623   26.2076 H   0  0  0  0  0  0
  -28.3859  -32.6886   25.0313 H   0  0  0  0  0  0
  -28.0735  -31.8443   26.5406 H   0  0  0  0  0  0
  -28.2602  -38.0100   24.7525 H   0  0  0  0  0  0
  -28.1071  -36.2639   24.6277 H   0  0  0  0  0  0
  -27.2299  -37.1432   25.8870 H   0  0  0  0  0  0
  -20.9368  -29.8814   21.6895 H   0  0  0  0  0  0
  -26.0184  -38.2860   24.1414 H   0  0  0  0  0  0
  -30.7826  -24.0133   19.3366 H   0  0  0  0  0  0
  -31.6022  -21.7384   19.6953 H   0  0  0  0  0  0
  -27.8837  -20.6281   21.4691 H   0  0  0  0  0  0
  -27.3021  -22.2642   23.4409 H   0  0  0  0  0  0
  -27.2851  -23.9962   23.2488 H   0  0  0  0  0  0
  -26.2050  -24.9922   21.1292 H   0  0  0  0  0  0
  -25.5903  -23.9202   19.8597 H   0  0  0  0  0  0
  -25.4497  -23.3303   24.7502 H   0  0  0  0  0  0
  -24.8594  -22.1496   23.6043 H   0  0  0  0  0  0
  -23.8079  -23.1199   21.3622 H   0  0  0  0  0  0
  -23.7452  -24.8645   21.2330 H   0  0  0  0  0  0
  -26.0808  -21.9936   21.2873 H   0  0  0  0  0  0
  -27.4093  -24.8147   19.0103 H   0  0  0  0  0  0
  -28.9796  -25.2753   18.6983 H   0  0  0  0  0  0
  -31.1878  -17.2440   21.6827 H   0  0  0  0  0  0
  -31.1786  -17.2391   19.9486 H   0  0  0  0  0  0
  -28.9953  -18.4740   21.7338 H   0  0  0  0  0  0
  -28.8562  -18.3524   19.9854 H   0  0  0  0  0  0
  -28.9911  -15.6311   21.0539 H   0  0  0  0  0  0
  -24.8126  -25.0694   23.3212 H   0  0  0  0  0  0
  -23.5461  -24.0691   23.4884 H   0  0  0  0  0  0
  1 25  1  0  0  0
  1 30  2  0  0  0
  1 85  1  0  0  0
  2  3  1  0  0  0
  2 25  1  0  0  0
  2 88  1  0  0  0
  2 89  1  0  0  0
  3  4  1  0  0  0
  3 90  1  0  0  0
  3 91  1  0  0  0
  4  5  1  0  0  0
  4 92  1  0  0  0
  4 93  1  0  0  0
  5  6  1  0  0  0
  5 26  1  0  0  0
  5 94  1  0  0  0
  6 25  1  0  0  0
  6 95  1  0  0  0
  6 96  1  0  0  0
  7  8  2  0  0  0
  7 26  1  0  0  0
  7 29  1  0  0  0
  8  9  1  0  0  0
  8 22  1  0  0  0
  9 10  1  0  0  0
  9 27  2  0  0  0
 10 11  2  0  0  0
 10 15  1  0  0  0
 11 12  1  0  0  0
 11 97  1  0  0  0
 12 13  2  0  0  0
 12 98  1  0  0  0
 13 14  1  0  0  0
 13 31  1  0  0  0
 14 15  2  0  0  0
 14 99  1  0  0  0
 15100  1  0  0  0
 16 17  2  0  0  0
 16 21  1  0  0  0
 16 31  1  0  0  0
 17 18  1  0  0  0
 17101  1  0  0  0
 18 19  2  0  0  0
 18102  1  0  0  0
 19 20  1  0  0  0
 19 24  1  0  0  0
 20 21  2  0  0  0
 20103  1  0  0  0
 21 23  1  0  0  0
 22 28  1  0  0  0
 22 32  2  0  0  0
 26 27  1  0  0  0
 28104  1  0  0  0
 28105  1  0  0  0
 29106  1  0  0  0
 29107  1  0  0  0
 33 34  1  0  0  0
 33 66  1  0  0  0
 33 70  2  0  0  0
 34 36  1  0  0  0
 34 59  1  0  0  0
 34108  1  0  0  0
 35 44  2  0  0  0
 35 45  1  0  0  0
 35 68  1  0  0  0
 36 56  1  0  0  0
 36109  1  0  0  0
 37 39  1  0  0  0
 37 47  1  0  0  0
 37 66  1  0  0  0
 37110  1  0  0  0
 38 43  2  0  0  0
 38 46  1  0  0  0
 38 47  1  0  0  0
 39 64  1  0  0  0
 39 67  2  0  0  0
 40 52  1  0  0  0
 40 53  2  0  0  0
 40 58  1  0  0  0
 41111  1  0  0  0
 41112  1  0  0  0
 41113  1  0  0  0
 41 48  1  0  0  0
 42 43  1  0  0  0
 42 66  1  0  0  0
 42114  1  0  0  0
 42115  1  0  0  0
 43 44  1  0  0  0
 44116  1  0  0  0
 45 46  2  0  0  0
 45117  1  0  0  0
 46118  1  0  0  0
 47119  1  0  0  0
 47120  1  0  0  0
 48 56  1  0  0  0
 48 65  1  0  0  0
 48121  1  0  0  0
 49 50  1  0  0  0
 49 53  1  0  0  0
 49 64  1  0  0  0
 49122  1  0  0  0
 50 51  1  0  0  0
 50123  1  0  0  0
 50124  1  0  0  0
 51 52  1  0  0  0
 51125  1  0  0  0
 51126  1  0  0  0
 52127  1  0  0  0
 52128  1  0  0  0
 53 54  1  0  0  0
 54 55  2  0  0  0
 54129  1  0  0  0
 55 57  1  0  0  0
 55130  1  0  0  0
 56 69  2  0  0  0
 57 58  2  0  0  0
 57131  1  0  0  0
 58132  1  0  0  0
 59 60  1  0  0  0
 59 61  1  0  0  0
 59 62  1  0  0  0
 60133  1  0  0  0
 60134  1  0  0  0
 60135  1  0  0  0
 61136  1  0  0  0
 61137  1  0  0  0
 61138  1  0  0  0
 62139  1  0  0  0
 62140  1  0  0  0
 62141  1  0  0  0
 63 65  1  0  0  0
 63142  1  0  0  0
 63143  1  0  0  0
 63144  1  0  0  0
 64145  1  0  0  0
 65146  1  0  0  0
 68 82  1  0  0  0
 71 72  2  0  0  0
 71 75  1  0  0  0
 71147  1  0  0  0
 72 76  1  0  0  0
 72148  1  0  0  0
 73 74  1  0  0  0
 73 76  2  0  0  0
 73149  1  0  0  0
 74 75  2  0  0  0
 74 81  1  0  0  0
 75 82  1  0  0  0
 76 87  1  0  0  0
 77 79  1  0  0  0
 77 81  1  0  0  0
 77150  1  0  0  0
 77151  1  0  0  0
 78 80  1  0  0  0
 78 81  1  0  0  0
 78152  1  0  0  0
 78153  1  0  0  0
 79 86  1  0  0  0
 79154  1  0  0  0
 79155  1  0  0  0
 80 86  1  0  0  0
 80156  1  0  0  0
 80157  1  0  0  0
 81158  1  0  0  0
 82159  1  0  0  0
 82160  1  0  0  0
 83 84  1  0  0  0
 83 85  1  0  0  0
 83161  1  0  0  0
 83162  1  0  0  0
 84 87  1  0  0  0
 84163  1  0  0  0
 84164  1  0  0  0
 85165  1  0  0  0
 86166  1  0  0  0
 86167  1  0  0  0
M  CHG  1  86   1
M  ISO  4   1 100  68 101  82 101  85 100
M  END
> <chiral flag>
0

> <version>
0

> <s_m_source_file>
/data/baiqing/PycharmProjects/Reinvent-master-3.2/result/LINK_invent/BTK/process_docking_weight1_custom_sum_contain_oxygen_bond_distance_aromatic_linkinvent_7_9_3/rearranged_h_0127.sdf

> <i_m_source_file_index>
96

> <r_mmod_Potential_Energy-OPLS-2005>
-53.6566276550293

> <r_mmod_Stretch_Energy-OPLS-2005>
89.3505096435547

> <r_mmod_Bend_Energy-OPLS-2005>
192.532135009766

> <r_mmod_Torsional_Energy-OPLS-2005>
255.347793579102

> <r_mmod_Improper_Torsional_Energy-OPLS-2005>
6.68998289108276

> <r_mmod_Van_der_Waal_Energy-OPLS-2005>
153.731170654297

> <r_mmod_Electrostatic_Energy-OPLS-2005>
-343.516418457031

> <r_mmod_Solvation_Energy-OPLS-2005>
-466.41064453125

> <b_mmod_Minimization_Converged-OPLS-2005>
0

> <r_mmod_RMS_Derivative-OPLS-2005>
2.26286864280701

$$$$
96
                    3D
 Structure written by MMmdl.
162171  0  0  1  0            999 V2000
  -30.6672  -14.5333   20.5268 C   0  0  0  0  0  0
  -30.4244  -12.3310   19.4396 C   0  0  0  0  0  0
  -29.5015  -12.4922   18.2140 C   0  0  0  0  0  0
  -28.0208  -12.3553   18.6220 C   0  0  0  0  0  0
  -27.6558  -13.2106   19.8673 C   0  0  2  0  0  0
  -28.6963  -13.0283   20.9959 C   0  0  0  0  0  0
  -25.2578  -13.8174   20.5690 C   0  0  0  0  0  0
  -24.1839  -13.0452   20.9201 C   0  0  0  0  0  0
  -24.6396  -11.6916   20.8751 C   0  0  0  0  0  0
  -23.9064  -10.4301   21.0405 C   0  0  0  0  0  0
  -24.3621   -9.4224   21.9173 C   0  0  0  0  0  0
  -23.6305   -8.2259   22.0737 C   0  0  0  0  0  0
  -22.4285   -8.0293   21.3536 C   0  0  0  0  0  0
  -21.9921   -9.0266   20.4639 C   0  0  0  0  0  0
  -22.7244  -10.2148   20.3045 C   0  0  0  0  0  0
  -21.6866   -6.0754   22.5277 C   0  0  0  0  0  0
  -21.4027   -6.5650   23.8213 C   0  0  0  0  0  0
  -21.3658   -5.6791   24.9166 C   0  0  0  0  0  0
  -21.6046   -4.3060   24.7208 C   0  0  0  0  0  0
  -21.8822   -3.8158   23.4324 C   0  0  0  0  0  0
  -21.9203   -4.6981   22.3392 C   0  0  0  0  0  0
  -22.7863  -13.5264   21.1846 C   0  0  0  0  0  0
  -22.1665   -4.2163   21.0974 F   0  0  0  0  0  0
  -21.5616   -3.4533   25.7712 F   0  0  0  0  0  0
  -30.0211  -13.3366   20.4364 N   0  0  0  0  0  0
  -26.2997  -12.9341   20.3318 N   0  0  0  0  0  0
  -25.9315  -11.6505   20.5747 N   0  0  0  0  0  0
  -22.0486  -12.8258   22.0386 N   0  0  0  0  0  0
  -25.4309  -15.1897   20.4129 N   0  0  0  0  0  0
  -31.8180  -14.6960   20.1134 O   0  0  0  0  0  0
  -21.6651   -6.8892   21.4234 O   0  0  0  0  0  0
  -22.3567  -14.5566   20.6677 O   0  0  0  0  0  0
  -24.6165  -31.8666   23.2067 C   0  0  0  0  0  0
  -25.9055  -32.4805   23.8377 C   0  0  1  0  0  0
  -27.2274  -27.3931   20.1001 C   0  0  0  0  0  0
  -25.5914  -33.8603   24.2315 N   0  0  0  0  0  0
  -23.4055  -30.4893   21.5483 C   0  0  2  0  0  0
  -24.8486  -28.9472   20.1142 C   0  0  0  0  0  0
  -22.7417  -29.4660   22.4985 C   0  0  0  0  0  0
  -18.0285  -28.1369   22.8490 C   0  0  0  0  0  0
  -24.1498  -36.7294   23.2640 C   0  0  0  0  0  0
  -25.9380  -30.8161   21.3677 C   0  0  0  0  0  0
  -26.0108  -29.4479   20.7118 C   0  0  0  0  0  0
  -27.1990  -28.6777   20.7012 C   0  0  0  0  0  0
  -26.0429  -26.9145   19.4944 C   0  0  0  0  0  0
  -24.8614  -27.6808   19.5041 C   0  0  0  0  0  0
  -23.6130  -29.8187   20.1637 C   0  0  0  0  0  0
  -25.4123  -36.3094   24.0336 C   0  0  1  0  0  0
  -20.5874  -28.3664   23.1313 C   0  0  2  0  0  0
  -20.6776  -26.9404   22.5410 C   0  0  0  0  0  0
  -19.5759  -26.6379   21.5203 C   0  0  0  0  0  0
  -18.1937  -26.7923   22.1611 C   0  0  0  0  0  0
  -19.1533  -28.8836   23.2900 C   0  0  0  0  0  0
  -18.9455  -30.1443   23.8916 C   0  0  0  0  0  0
  -17.6456  -30.6584   24.0558 C   0  0  0  0  0  0
  -25.9046  -34.9465   23.5123 C   0  0  0  0  0  0
  -16.5349  -29.9078   23.6324 C   0  0  0  0  0  0
  -16.7271  -28.6487   23.0360 C   0  0  0  0  0  0
  -26.4473  -31.6588   25.0717 C   0  0  0  0  0  0
  -25.3725  -31.3699   26.1453 C   0  0  0  0  0  0
  -27.0314  -30.3029   24.6113 C   0  0  0  0  0  0
  -27.6062  -32.4312   25.7466 C   0  0  0  0  0  0
  -27.5586  -37.1811   24.8477 C   0  0  0  0  0  0
  -21.4148  -29.3031   22.3712 N   0  0  0  0  0  0
  -26.4315  -37.3774   23.9395 N   0  0  0  0  0  0
  -24.6715  -31.0735   22.0975 N   0  0  0  0  0  0
  -23.4181  -28.8229   23.3057 O   0  0  0  0  0  0
  -28.3992  -26.6539   20.1455 O   0  0  0  0  0  0
  -26.5609  -34.8922   22.4682 O   0  0  0  0  0  0
  -23.5353  -32.1443   23.7429 O   0  0  0  0  0  0
  -29.5288  -23.2072   21.8839 C   0  0  0  0  0  0
  -30.1119  -20.8358   21.9272 C   0  0  0  0  0  0
  -28.4881  -21.6664   20.3133 C   0  0  0  0  0  0
  -30.2668  -22.1424   22.4411 C   0  0  0  0  0  0
  -28.6236  -22.9880   20.8296 C   0  0  0  0  0  0
  -29.2266  -20.5736   20.8583 C   0  0  0  0  0  0
  -30.9133  -21.8925   24.9655 C   0  0  0  0  0  0
  -30.8787  -23.3758   24.6758 C   0  0  0  0  0  0
  -31.2131  -22.3961   23.5738 C   0  0  0  0  0  0
  -27.7548  -24.1694   20.3466 C   0  0  0  0  0  0
  -29.1861  -18.0433   21.1377 C   0  0  0  0  0  0
  -30.2469  -17.0126   20.6297 C   0  0  0  0  0  0
  -28.4825  -25.3209   19.5802 C   0  0  0  0  0  0
  -29.0896  -19.2708   20.3181 N   0  0  0  0  0  0
  -29.9047  -15.5928   20.8855 N   0  0  0  0  0  0
  -31.4694  -12.4354   19.1432 H   0  0  0  0  0  0
  -30.3335  -11.3287   19.8597 H   0  0  0  0  0  0
  -29.7511  -11.7449   17.4595 H   0  0  0  0  0  0
  -29.6668  -13.4651   17.7478 H   0  0  0  0  0  0
  -27.8343  -11.3009   18.8303 H   0  0  0  0  0  0
  -27.3759  -12.6134   17.7813 H   0  0  0  0  0  0
  -27.6913  -14.2545   19.5517 H   0  0  0  0  0  0
  -28.6803  -12.0040   21.3696 H   0  0  0  0  0  0
  -28.4565  -13.6607   21.8515 H   0  0  0  0  0  0
  -25.2750   -9.5734   22.4763 H   0  0  0  0  0  0
  -24.0029   -7.4663   22.7464 H   0  0  0  0  0  0
  -21.0851   -8.8790   19.8961 H   0  0  0  0  0  0
  -22.3681  -10.9698   19.6167 H   0  0  0  0  0  0
  -21.2021   -7.6160   23.9724 H   0  0  0  0  0  0
  -21.1475   -6.0515   25.9075 H   0  0  0  0  0  0
  -22.0603   -2.7623   23.2813 H   0  0  0  0  0  0
  -22.4099  -11.9929   22.4808 H   0  0  0  0  0  0
  -21.1102  -13.1294   22.2563 H   0  0  0  0  0  0
  -24.6615  -15.8417   20.5147 H   0  0  0  0  0  0
  -26.2749  -15.6276   20.0660 H   0  0  0  0  0  0
  -26.7118  -32.5499   23.1129 H   0  0  0  0  0  0
  -25.0082  -33.9773   25.0470 H   0  0  0  0  0  0
  -22.6955  -31.3067   21.4080 H   0  0  0  0  0  0
  -23.3752  -35.9638   23.3346 H   0  0  0  0  0  0
  -24.3581  -36.8858   22.2045 H   0  0  0  0  0  0
  -23.7272  -37.6520   23.6625 H   0  0  0  0  0  0
  -26.0660  -31.5829   20.6024 H   0  0  0  0  0  0
  -26.8199  -30.8604   21.9948 H   0  0  0  0  0  0
  -28.0964  -29.0606   21.1678 H   0  0  0  0  0  0
  -26.0057  -25.9458   19.0198 H   0  0  0  0  0  0
  -23.9658  -27.2856   19.0448 H   0  0  0  0  0  0
  -23.7228  -30.5920   19.4025 H   0  0  0  0  0  0
  -22.7342  -29.2411   19.8701 H   0  0  0  0  0  0
  -25.1303  -36.1962   25.0832 H   0  0  0  0  0  0
  -20.9978  -28.3233   24.1428 H   0  0  0  0  0  0
  -20.5684  -26.2276   23.3595 H   0  0  0  0  0  0
  -21.6648  -26.7455   22.1204 H   0  0  0  0  0  0
  -19.6924  -25.6285   21.1245 H   0  0  0  0  0  0
  -19.6708  -27.3176   20.6725 H   0  0  0  0  0  0
  -17.4213  -26.6685   21.4005 H   0  0  0  0  0  0
  -18.0339  -26.0055   22.8999 H   0  0  0  0  0  0
  -19.7929  -30.7250   24.2301 H   0  0  0  0  0  0
  -17.5010  -31.6269   24.5143 H   0  0  0  0  0  0
  -15.5349  -30.2981   23.7637 H   0  0  0  0  0  0
  -15.8675  -28.0798   22.7086 H   0  0  0  0  0  0
  -24.5896  -30.7061   25.7763 H   0  0  0  0  0  0
  -24.8907  -32.2851   26.4904 H   0  0  0  0  0  0
  -25.8051  -30.8846   27.0209 H   0  0  0  0  0  0
  -26.2858  -29.6783   24.1178 H   0  0  0  0  0  0
  -27.4093  -29.7281   25.4578 H   0  0  0  0  0  0
  -27.8693  -30.4346   23.9264 H   0  0  0  0  0  0
  -27.2698  -33.3614   26.2058 H   0  0  0  0  0  0
  -28.3843  -32.6870   25.0262 H   0  0  0  0  0  0
  -28.0760  -31.8427   26.5354 H   0  0  0  0  0  0
  -28.2637  -38.0073   24.7471 H   0  0  0  0  0  0
  -28.1051  -36.2602   24.6377 H   0  0  0  0  0  0
  -27.2300  -37.1547   25.8883 H   0  0  0  0  0  0
  -20.9315  -29.8711   21.6894 H   0  0  0  0  0  0
  -26.0208  -38.2866   24.1339 H   0  0  0  0  0  0
  -29.6401  -24.2067   22.2846 H   0  0  0  0  0  0
  -30.7007  -20.0395   22.3579 H   0  0  0  0  0  0
  -27.7909  -21.4906   19.5057 H   0  0  0  0  0  0
  -29.9593  -21.3965   25.1360 H   0  0  0  0  0  0
  -31.7445  -21.5259   25.5648 H   0  0  0  0  0  0
  -31.6927  -23.9855   25.0636 H   0  0  0  0  0  0
  -29.8998  -23.8528   24.6723 H   0  0  0  0  0  0
  -32.2466  -22.3610   23.2326 H   0  0  0  0  0  0
  -27.2517  -24.5846   21.2209 H   0  0  0  0  0  0
  -26.9534  -23.7785   19.7198 H   0  0  0  0  0  0
  -29.3475  -18.2707   22.1926 H   0  0  0  0  0  0
  -28.1998  -17.5792   21.0943 H   0  0  0  0  0  0
  -31.2231  -17.2421   21.0623 H   0  0  0  0  0  0
  -30.3641  -17.1189   19.5504 H   0  0  0  0  0  0
  -28.1629  -25.3359   18.5375 H   0  0  0  0  0  0
  -29.5458  -25.0841   19.5335 H   0  0  0  0  0  0
  -28.4672  -19.1945   19.5160 H   0  0  0  0  0  0
  -28.9649  -15.3884   21.1895 H   0  0  0  0  0  0
  1 25  1  0  0  0
  1 30  2  0  0  0
  1 85  1  0  0  0
  2  3  1  0  0  0
  2 25  1  0  0  0
  2 86  1  0  0  0
  2 87  1  0  0  0
  3  4  1  0  0  0
  3 88  1  0  0  0
  3 89  1  0  0  0
  4  5  1  0  0  0
  4 90  1  0  0  0
  4 91  1  0  0  0
  5  6  1  0  0  0
  5 26  1  0  0  0
  5 92  1  0  0  0
  6 25  1  0  0  0
  6 93  1  0  0  0
  6 94  1  0  0  0
  7  8  2  0  0  0
  7 26  1  0  0  0
  7 29  1  0  0  0
  8  9  1  0  0  0
  8 22  1  0  0  0
  9 10  1  0  0  0
  9 27  2  0  0  0
 10 11  2  0  0  0
 10 15  1  0  0  0
 11 12  1  0  0  0
 11 95  1  0  0  0
 12 13  2  0  0  0
 12 96  1  0  0  0
 13 14  1  0  0  0
 13 31  1  0  0  0
 14 15  2  0  0  0
 14 97  1  0  0  0
 15 98  1  0  0  0
 16 17  2  0  0  0
 16 21  1  0  0  0
 16 31  1  0  0  0
 17 18  1  0  0  0
 17 99  1  0  0  0
 18 19  2  0  0  0
 18100  1  0  0  0
 19 20  1  0  0  0
 19 24  1  0  0  0
 20 21  2  0  0  0
 20101  1  0  0  0
 21 23  1  0  0  0
 22 28  1  0  0  0
 22 32  2  0  0  0
 26 27  1  0  0  0
 28102  1  0  0  0
 28103  1  0  0  0
 29104  1  0  0  0
 29105  1  0  0  0
 33 34  1  0  0  0
 33 66  1  0  0  0
 33 70  2  0  0  0
 34 36  1  0  0  0
 34 59  1  0  0  0
 34106  1  0  0  0
 35 44  2  0  0  0
 35 45  1  0  0  0
 35 68  1  0  0  0
 36 56  1  0  0  0
 36107  1  0  0  0
 37 39  1  0  0  0
 37 47  1  0  0  0
 37 66  1  0  0  0
 37108  1  0  0  0
 38 43  2  0  0  0
 38 46  1  0  0  0
 38 47  1  0  0  0
 39 64  1  0  0  0
 39 67  2  0  0  0
 40 52  1  0  0  0
 40 53  2  0  0  0
 40 58  1  0  0  0
 41109  1  0  0  0
 41110  1  0  0  0
 41111  1  0  0  0
 41 48  1  0  0  0
 42 43  1  0  0  0
 42 66  1  0  0  0
 42112  1  0  0  0
 42113  1  0  0  0
 43 44  1  0  0  0
 44114  1  0  0  0
 45 46  2  0  0  0
 45115  1  0  0  0
 46116  1  0  0  0
 47117  1  0  0  0
 47118  1  0  0  0
 48 56  1  0  0  0
 48 65  1  0  0  0
 48119  1  0  0  0
 49 50  1  0  0  0
 49 53  1  0  0  0
 49 64  1  0  0  0
 49120  1  0  0  0
 50 51  1  0  0  0
 50121  1  0  0  0
 50122  1  0  0  0
 51 52  1  0  0  0
 51123  1  0  0  0
 51124  1  0  0  0
 52125  1  0  0  0
 52126  1  0  0  0
 53 54  1  0  0  0
 54 55  2  0  0  0
 54127  1  0  0  0
 55 57  1  0  0  0
 55128  1  0  0  0
 56 69  2  0  0  0
 57 58  2  0  0  0
 57129  1  0  0  0
 58130  1  0  0  0
 59 60  1  0  0  0
 59 61  1  0  0  0
 59 62  1  0  0  0
 60131  1  0  0  0
 60132  1  0  0  0
 60133  1  0  0  0
 61134  1  0  0  0
 61135  1  0  0  0
 61136  1  0  0  0
 62137  1  0  0  0
 62138  1  0  0  0
 62139  1  0  0  0
 63 65  1  0  0  0
 63140  1  0  0  0
 63141  1  0  0  0
 63142  1  0  0  0
 64143  1  0  0  0
 65144  1  0  0  0
 68 83  1  0  0  0
 71 74  2  0  0  0
 71 75  1  0  0  0
 71145  1  0  0  0
 72 74  1  0  0  0
 72 76  2  0  0  0
 72146  1  0  0  0
 73 75  2  0  0  0
 73 76  1  0  0  0
 73147  1  0  0  0
 74 79  1  0  0  0
 75 80  1  0  0  0
 76 84  1  0  0  0
 77 78  1  0  0  0
 77 79  1  0  0  0
 77148  1  0  0  0
 77149  1  0  0  0
 78 79  1  0  0  0
 78150  1  0  0  0
 78151  1  0  0  0
 79152  1  0  0  0
 80 83  1  0  0  0
 80153  1  0  0  0
 80154  1  0  0  0
 81 82  1  0  0  0
 81 84  1  0  0  0
 81155  1  0  0  0
 81156  1  0  0  0
 82 85  1  0  0  0
 82157  1  0  0  0
 82158  1  0  0  0
 83159  1  0  0  0
 83160  1  0  0  0
 84161  1  0  0  0
 85162  1  0  0  0
M  ISO  4   1 100  68 101  83 101  85 100
M  END
> <chiral flag>
0

> <version>
0

> <s_m_source_file>
/data/baiqing/PycharmProjects/Reinvent-master-3.2/result/LINK_invent/BTK/process_docking_weight1_custom_sum_contain_oxygen_bond_distance_aromatic_linkinvent_7_9_3/rearranged_h_0127.sdf

> <i_m_source_file_index>
97

> <r_mmod_Potential_Energy-OPLS-2005>
-70.7787322998047

> <r_mmod_Stretch_Energy-OPLS-2005>
46.3103523254395

> <r_mmod_Bend_Energy-OPLS-2005>
116.565849304199

> <r_mmod_Torsional_Energy-OPLS-2005>
236.879165649414

> <r_mmod_Improper_Torsional_Energy-OPLS-2005>
7.87522506713867

> <r_mmod_Van_der_Waal_Energy-OPLS-2005>
143.940475463867

> <r_mmod_Electrostatic_Energy-OPLS-2005>
-420.813293457031

> <r_mmod_Solvation_Energy-OPLS-2005>
-223.313369750977

> <b_mmod_Minimization_Converged-OPLS-2005>
0

> <r_mmod_RMS_Derivative-OPLS-2005>
2.23438811302185

$$$$
97
                    3D
 Structure written by MMmdl.
163172  0  0  1  0            999 V2000
  -30.5553  -14.9937   20.3772 C   0  0  0  0  0  0
  -30.4269  -12.6165   19.5124 C   0  0  0  0  0  0
  -29.5223  -12.5281   18.2632 C   0  0  0  0  0  0
  -28.0578  -12.3080   18.6837 C   0  0  0  0  0  0
  -27.6206  -13.2588   19.8293 C   0  0  2  0  0  0
  -28.6584  -13.3388   20.9688 C   0  0  0  0  0  0
  -25.2411  -13.8242   20.5730 C   0  0  0  0  0  0
  -24.1751  -13.0440   20.9239 C   0  0  0  0  0  0
  -24.6385  -11.6930   20.8753 C   0  0  0  0  0  0
  -23.9081  -10.4287   21.0400 C   0  0  0  0  0  0
  -24.3622   -9.4206   21.9176 C   0  0  0  0  0  0
  -23.6295   -8.2240   22.0751 C   0  0  0  0  0  0
  -22.4275   -8.0280   21.3547 C   0  0  0  0  0  0
  -21.9912   -9.0262   20.4650 C   0  0  0  0  0  0
  -22.7245  -10.2137   20.3053 C   0  0  0  0  0  0
  -21.6859   -6.0733   22.5274 C   0  0  0  0  0  0
  -21.4039   -6.5637   23.8210 C   0  0  0  0  0  0
  -21.3655   -5.6787   24.9171 C   0  0  0  0  0  0
  -21.6037   -4.3046   24.7225 C   0  0  0  0  0  0
  -21.8815   -3.8144   23.4342 C   0  0  0  0  0  0
  -21.9197   -4.6963   22.3402 C   0  0  0  0  0  0
  -22.7770  -13.5206   21.1876 C   0  0  0  0  0  0
  -22.1652   -4.2143   21.0979 F   0  0  0  0  0  0
  -21.5612   -3.4533   25.7735 F   0  0  0  0  0  0
  -29.9273  -13.7451   20.3558 N   0  0  0  0  0  0
  -26.2832  -12.9491   20.3217 N   0  0  0  0  0  0
  -25.9318  -11.6606   20.5729 N   0  0  0  0  0  0
  -22.0413  -12.8216   22.0440 N   0  0  0  0  0  0
  -25.4052  -15.1978   20.4169 N   0  0  0  0  0  0
  -31.7791  -14.9648   20.2043 O   0  0  0  0  0  0
  -21.6636   -6.8885   21.4240 O   0  0  0  0  0  0
  -22.3453  -14.5500   20.6700 O   0  0  0  0  0  0
  -24.6460  -31.8415   23.1845 C   0  0  0  0  0  0
  -25.9215  -32.4689   23.8258 C   0  0  1  0  0  0
  -27.2116  -27.0982   20.1797 C   0  0  0  0  0  0
  -25.5945  -33.8496   24.2171 N   0  0  0  0  0  0
  -23.4523  -30.4575   21.5314 C   0  0  2  0  0  0
  -24.9007  -28.8699   20.1198 C   0  0  0  0  0  0
  -22.7583  -29.4534   22.4858 C   0  0  0  0  0  0
  -18.0308  -28.1401   22.8481 C   0  0  0  0  0  0
  -24.1489  -36.7247   23.2643 C   0  0  0  0  0  0
  -26.0100  -30.7031   21.3883 C   0  0  0  0  0  0
  -26.0800  -29.3077   20.7377 C   0  0  0  0  0  0
  -27.2400  -28.4410   20.7422 C   0  0  0  0  0  0
  -26.0080  -26.7614   19.5285 C   0  0  0  0  0  0
  -24.8788  -27.6111   19.4980 C   0  0  0  0  0  0
  -23.6816  -29.7798   20.1546 C   0  0  0  0  0  0
  -25.4124  -36.3031   24.0312 C   0  0  1  0  0  0
  -20.5922  -28.3730   23.1233 C   0  0  2  0  0  0
  -20.6796  -26.9432   22.5401 C   0  0  0  0  0  0
  -19.5766  -26.6383   21.5214 C   0  0  0  0  0  0
  -18.1948  -26.7940   22.1627 C   0  0  0  0  0  0
  -19.1564  -28.8884   23.2849 C   0  0  0  0  0  0
  -18.9480  -30.1477   23.8881 C   0  0  0  0  0  0
  -17.6476  -30.6599   24.0558 C   0  0  0  0  0  0
  -25.9079  -34.9405   23.5054 C   0  0  0  0  0  0
  -16.5368  -29.9089   23.6339 C   0  0  0  0  0  0
  -16.7292  -28.6503   23.0369 C   0  0  0  0  0  0
  -26.4523  -31.6575   25.0716 C   0  0  0  0  0  0
  -25.3692  -31.3771   26.1403 C   0  0  0  0  0  0
  -27.0393  -30.2971   24.6308 C   0  0  0  0  0  0
  -27.6053  -32.4343   25.7494 C   0  0  0  0  0  0
  -27.5574  -37.1779   24.8466 C   0  0  0  0  0  0
  -21.4270  -29.3046   22.3603 N   0  0  0  0  0  0
  -26.4286  -37.3743   23.9410 N   0  0  0  0  0  0
  -24.7233  -31.0230   22.0899 N   0  0  0  0  0  0
  -23.4208  -28.8092   23.3031 O   0  0  0  0  0  0
  -28.2646  -26.1075   20.1776 O   0  0  0  0  0  0
  -26.5673  -34.8906   22.4639 O   0  0  0  0  0  0
  -23.5567  -32.1304   23.7042 O   0  0  0  0  0  0
  -31.2707  -19.6665   17.9320 C   0  0  0  0  0  0
  -31.5943  -18.3281   17.7484 C   0  0  0  0  0  0
  -30.3812  -20.0180   18.9477 C   0  0  0  0  0  0
  -31.0604  -17.3561   18.6024 C   0  0  0  0  0  0
  -29.7805  -19.0926   19.8380 C   0  0  0  0  0  0
  -30.1864  -17.6081   19.7039 C   0  0  0  0  0  0
  -28.6560  -19.1279   22.0433 C   0  0  0  0  0  0
  -27.6569  -19.6334   23.0767 C   0  0  0  0  0  0
  -27.8362  -21.9409   22.3052 C   0  0  0  0  0  0
  -28.7310  -19.9586   20.7421 C   0  0  1  0  0  0
  -28.7913  -21.6759   21.1006 C   0  0  1  0  0  0
  -28.5495  -23.0900   20.1500 C   0  0  0  0  0  0
  -28.0952  -24.6477   20.7320 C   0  0  0  0  0  0
  -29.8440  -16.2543   20.3874 N   0  0  0  0  0  0
  -27.9894  -21.0126   23.4395 N   0  3  0  0  0  0
  -31.4650  -12.7527   19.2066 H   0  0  0  0  0  0
  -30.4075  -11.6823   20.0743 H   0  0  0  0  0  0
  -29.8538  -11.7188   17.6113 H   0  0  0  0  0  0
  -29.6068  -13.4473   17.6811 H   0  0  0  0  0  0
  -27.9684  -11.2738   19.0162 H   0  0  0  0  0  0
  -27.3940  -12.4113   17.8242 H   0  0  0  0  0  0
  -27.5695  -14.2492   19.3766 H   0  0  0  0  0  0
  -28.7564  -12.3826   21.4853 H   0  0  0  0  0  0
  -28.3504  -14.0709   21.7170 H   0  0  0  0  0  0
  -25.2769   -9.5678   22.4760 H   0  0  0  0  0  0
  -23.9993   -7.4633   22.7480 H   0  0  0  0  0  0
  -21.0827   -8.8794   19.8973 H   0  0  0  0  0  0
  -22.3697  -10.9677   19.6165 H   0  0  0  0  0  0
  -21.2057   -7.6151   23.9720 H   0  0  0  0  0  0
  -21.1467   -6.0513   25.9069 H   0  0  0  0  0  0
  -22.0603   -2.7605   23.2843 H   0  0  0  0  0  0
  -22.4019  -11.9901   22.4881 H   0  0  0  0  0  0
  -21.1020  -13.1244   22.2610 H   0  0  0  0  0  0
  -24.6292  -15.8433   20.5183 H   0  0  0  0  0  0
  -26.2403  -15.6393   20.0560 H   0  0  0  0  0  0
  -26.7279  -32.5292   23.0985 H   0  0  0  0  0  0
  -25.0066  -33.9609   25.0302 H   0  0  0  0  0  0
  -22.7563  -31.2841   21.3717 H   0  0  0  0  0  0
  -23.3766  -35.9563   23.3296 H   0  0  0  0  0  0
  -24.3571  -36.8893   22.2058 H   0  0  0  0  0  0
  -23.7228  -37.6428   23.6694 H   0  0  0  0  0  0
  -26.1683  -31.4498   20.6093 H   0  0  0  0  0  0
  -26.8797  -30.7579   22.0324 H   0  0  0  0  0  0
  -28.1446  -28.7751   21.2303 H   0  0  0  0  0  0
  -25.9291  -25.7945   19.0510 H   0  0  0  0  0  0
  -23.9791  -27.2692   19.0045 H   0  0  0  0  0  0
  -23.8279  -30.5503   19.3964 H   0  0  0  0  0  0
  -22.7955  -29.2249   19.8421 H   0  0  0  0  0  0
  -25.1312  -36.1856   25.0802 H   0  0  0  0  0  0
  -21.0011  -28.3322   24.1354 H   0  0  0  0  0  0
  -20.5698  -26.2341   23.3619 H   0  0  0  0  0  0
  -21.6662  -26.7443   22.1193 H   0  0  0  0  0  0
  -19.6929  -25.6283   21.1266 H   0  0  0  0  0  0
  -19.6705  -27.3175   20.6729 H   0  0  0  0  0  0
  -17.4214  -26.6681   21.4034 H   0  0  0  0  0  0
  -18.0353  -26.0090   22.9030 H   0  0  0  0  0  0
  -19.7953  -30.7296   24.2251 H   0  0  0  0  0  0
  -17.5029  -31.6282   24.5154 H   0  0  0  0  0  0
  -15.5366  -30.2987   23.7673 H   0  0  0  0  0  0
  -15.8692  -28.0808   22.7113 H   0  0  0  0  0  0
  -24.5859  -30.7145   25.7703 H   0  0  0  0  0  0
  -24.8898  -32.2957   26.4792 H   0  0  0  0  0  0
  -25.7949  -30.8944   27.0210 H   0  0  0  0  0  0
  -26.3014  -29.6693   24.1301 H   0  0  0  0  0  0
  -27.3991  -29.7276   25.4888 H   0  0  0  0  0  0
  -27.8930  -30.4221   23.9645 H   0  0  0  0  0  0
  -27.2661  -33.3674   26.2004 H   0  0  0  0  0  0
  -28.3891  -32.6855   25.0338 H   0  0  0  0  0  0
  -28.0696  -31.8518   26.5460 H   0  0  0  0  0  0
  -28.2583  -38.0085   24.7525 H   0  0  0  0  0  0
  -28.1079  -36.2613   24.6285 H   0  0  0  0  0  0
  -27.2294  -37.1419   25.8869 H   0  0  0  0  0  0
  -20.9498  -29.8736   21.6753 H   0  0  0  0  0  0
  -26.0154  -38.2807   24.1424 H   0  0  0  0  0  0
  -31.6784  -20.4228   17.2757 H   0  0  0  0  0  0
  -32.2525  -18.0385   16.9406 H   0  0  0  0  0  0
  -30.1333  -21.0657   19.0087 H   0  0  0  0  0  0
  -31.3577  -16.3569   18.3309 H   0  0  0  0  0  0
  -28.3741  -18.1024   21.8049 H   0  0  0  0  0  0
  -29.6487  -19.0692   22.4925 H   0  0  0  0  0  0
  -27.6937  -19.0060   23.9687 H   0  0  0  0  0  0
  -26.6366  -19.5747   22.6932 H   0  0  0  0  0  0
  -26.7976  -21.9279   21.9706 H   0  0  0  0  0  0
  -28.0102  -22.9277   22.7290 H   0  0  0  0  0  0
  -27.7735  -19.8212   20.2375 H   0  0  0  0  0  0
  -29.7964  -21.8102   21.5030 H   0  0  0  0  0  0
  -27.8126  -22.8315   19.3897 H   0  0  0  0  0  0
  -29.4731  -23.2362   19.5902 H   0  0  0  0  0  0
  -28.6355  -24.7450   21.6724 H   0  0  0  0  0  0
  -27.0520  -24.5653   21.0389 H   0  0  0  0  0  0
  -28.8967  -16.1811   20.7275 H   0  0  0  0  0  0
  -28.9278  -21.0548   23.8037 H   0  0  0  0  0  0
  -27.3685  -21.3032   24.1789 H   0  0  0  0  0  0
  1 25  1  0  0  0
  1 30  2  0  0  0
  1 84  1  0  0  0
  2  3  1  0  0  0
  2 25  1  0  0  0
  2 86  1  0  0  0
  2 87  1  0  0  0
  3  4  1  0  0  0
  3 88  1  0  0  0
  3 89  1  0  0  0
  4  5  1  0  0  0
  4 90  1  0  0  0
  4 91  1  0  0  0
  5  6  1  0  0  0
  5 26  1  0  0  0
  5 92  1  0  0  0
  6 25  1  0  0  0
  6 93  1  0  0  0
  6 94  1  0  0  0
  7  8  2  0  0  0
  7 26  1  0  0  0
  7 29  1  0  0  0
  8  9  1  0  0  0
  8 22  1  0  0  0
  9 10  1  0  0  0
  9 27  2  0  0  0
 10 11  2  0  0  0
 10 15  1  0  0  0
 11 12  1  0  0  0
 11 95  1  0  0  0
 12 13  2  0  0  0
 12 96  1  0  0  0
 13 14  1  0  0  0
 13 31  1  0  0  0
 14 15  2  0  0  0
 14 97  1  0  0  0
 15 98  1  0  0  0
 16 17  2  0  0  0
 16 21  1  0  0  0
 16 31  1  0  0  0
 17 18  1  0  0  0
 17 99  1  0  0  0
 18 19  2  0  0  0
 18100  1  0  0  0
 19 20  1  0  0  0
 19 24  1  0  0  0
 20 21  2  0  0  0
 20101  1  0  0  0
 21 23  1  0  0  0
 22 28  1  0  0  0
 22 32  2  0  0  0
 26 27  1  0  0  0
 28102  1  0  0  0
 28103  1  0  0  0
 29104  1  0  0  0
 29105  1  0  0  0
 33 34  1  0  0  0
 33 66  1  0  0  0
 33 70  2  0  0  0
 34 36  1  0  0  0
 34 59  1  0  0  0
 34106  1  0  0  0
 35 44  2  0  0  0
 35 45  1  0  0  0
 35 68  1  0  0  0
 36 56  1  0  0  0
 36107  1  0  0  0
 37 39  1  0  0  0
 37 47  1  0  0  0
 37 66  1  0  0  0
 37108  1  0  0  0
 38 43  2  0  0  0
 38 46  1  0  0  0
 38 47  1  0  0  0
 39 64  1  0  0  0
 39 67  2  0  0  0
 40 52  1  0  0  0
 40 53  2  0  0  0
 40 58  1  0  0  0
 41109  1  0  0  0
 41110  1  0  0  0
 41111  1  0  0  0
 41 48  1  0  0  0
 42 43  1  0  0  0
 42 66  1  0  0  0
 42112  1  0  0  0
 42113  1  0  0  0
 43 44  1  0  0  0
 44114  1  0  0  0
 45 46  2  0  0  0
 45115  1  0  0  0
 46116  1  0  0  0
 47117  1  0  0  0
 47118  1  0  0  0
 48 56  1  0  0  0
 48 65  1  0  0  0
 48119  1  0  0  0
 49 50  1  0  0  0
 49 53  1  0  0  0
 49 64  1  0  0  0
 49120  1  0  0  0
 50 51  1  0  0  0
 50121  1  0  0  0
 50122  1  0  0  0
 51 52  1  0  0  0
 51123  1  0  0  0
 51124  1  0  0  0
 52125  1  0  0  0
 52126  1  0  0  0
 53 54  1  0  0  0
 54 55  2  0  0  0
 54127  1  0  0  0
 55 57  1  0  0  0
 55128  1  0  0  0
 56 69  2  0  0  0
 57 58  2  0  0  0
 57129  1  0  0  0
 58130  1  0  0  0
 59 60  1  0  0  0
 59 61  1  0  0  0
 59 62  1  0  0  0
 60131  1  0  0  0
 60132  1  0  0  0
 60133  1  0  0  0
 61134  1  0  0  0
 61135  1  0  0  0
 61136  1  0  0  0
 62137  1  0  0  0
 62138  1  0  0  0
 62139  1  0  0  0
 63 65  1  0  0  0
 63140  1  0  0  0
 63141  1  0  0  0
 63142  1  0  0  0
 64143  1  0  0  0
 65144  1  0  0  0
 68 83  1  0  0  0
 71 72  2  0  0  0
 71 73  1  0  0  0
 71145  1  0  0  0
 72 74  1  0  0  0
 72146  1  0  0  0
 73 75  2  0  0  0
 73147  1  0  0  0
 74 76  2  0  0  0
 74148  1  0  0  0
 75 76  1  0  0  0
 75 80  1  0  0  0
 76 84  1  0  0  0
 77 78  1  0  0  0
 77 80  1  0  0  0
 77149  1  0  0  0
 77150  1  0  0  0
 78 85  1  0  0  0
 78151  1  0  0  0
 78152  1  0  0  0
 79 81  1  0  0  0
 79 85  1  0  0  0
 79153  1  0  0  0
 79154  1  0  0  0
 80 81  1  0  0  0
 80155  1  0  0  0
 81 82  1  0  0  0
 81156  1  0  0  0
 82 83  1  0  0  0
 82157  1  0  0  0
 82158  1  0  0  0
 83159  1  0  0  0
 83160  1  0  0  0
 84161  1  0  0  0
 85162  1  0  0  0
 85163  1  0  0  0
M  CHG  1  85   1
M  ISO  4   1 100  68 101  83 101  84 100
M  END
> <chiral flag>
0

> <version>
0

> <s_m_source_file>
/data/baiqing/PycharmProjects/Reinvent-master-3.2/result/LINK_invent/BTK/process_docking_weight1_custom_sum_contain_oxygen_bond_distance_aromatic_linkinvent_7_9_3/rearranged_h_0127.sdf

> <i_m_source_file_index>
98

> <r_mmod_Potential_Energy-OPLS-2005>
670.077270507812

> <r_mmod_Stretch_Energy-OPLS-2005>
366.878875732422

> <r_mmod_Bend_Energy-OPLS-2005>
390.005310058594

> <r_mmod_Torsional_Energy-OPLS-2005>
295.580810546875

> <r_mmod_Improper_Torsional_Energy-OPLS-2005>
5.05132007598877

> <r_mmod_Van_der_Waal_Energy-OPLS-2005>
145.87825012207

> <r_mmod_Electrostatic_Energy-OPLS-2005>
-266.566131591797

> <r_mmod_Solvation_Energy-OPLS-2005>
-492.209320068359

> <b_mmod_Minimization_Converged-OPLS-2005>
0

> <r_mmod_RMS_Derivative-OPLS-2005>
1.84470593929291

$$$$
