0
                    3D
 Structure written by MMmdl.
173180  0  0  1  0            999 V2000
  -30.6648  -14.7146   20.4242 C   0  0  0  0  0  0
  -30.4163  -12.4475   19.4495 C   0  0  0  0  0  0
  -29.4767  -12.4618   18.2280 C   0  0  0  0  0  0
  -28.0160  -12.2882   18.6661 C   0  0  0  0  0  0
  -27.6279  -13.2300   19.8348 C   0  0  2  0  0  0
  -28.6796  -13.2168   20.9622 C   0  0  0  0  0  0
  -25.2458  -13.8237   20.5751 C   0  0  0  0  0  0
  -24.1774  -13.0486   20.9247 C   0  0  0  0  0  0
  -24.6339  -11.6954   20.8739 C   0  0  0  0  0  0
  -23.9002  -10.4355   21.0370 C   0  0  0  0  0  0
  -24.3586   -9.4286   21.9144 C   0  0  0  0  0  0
  -23.6292   -8.2314   22.0716 C   0  0  0  0  0  0
  -22.4263   -8.0326   21.3524 C   0  0  0  0  0  0
  -21.9880   -9.0285   20.4602 C   0  0  0  0  0  0
  -22.7166  -10.2185   20.3017 C   0  0  0  0  0  0
  -21.6873   -6.0730   22.5263 C   0  0  0  0  0  0
  -21.4029   -6.5612   23.8197 C   0  0  0  0  0  0
  -21.3657   -5.6764   24.9154 C   0  0  0  0  0  0
  -21.6058   -4.3039   24.7210 C   0  0  0  0  0  0
  -21.8840   -3.8129   23.4334 C   0  0  0  0  0  0
  -21.9218   -4.6956   22.3378 C   0  0  0  0  0  0
  -22.7783  -13.5192   21.1948 C   0  0  0  0  0  0
  -22.1674   -4.2132   21.0965 F   0  0  0  0  0  0
  -21.5651   -3.4526   25.7732 F   0  0  0  0  0  0
  -29.9783  -13.5310   20.3530 N   0  0  0  0  0  0
  -26.2865  -12.9429   20.3290 N   0  0  0  0  0  0
  -25.9276  -11.6578   20.5781 N   0  0  0  0  0  0
  -22.0488  -12.8115   22.0471 N   0  0  0  0  0  0
  -25.4223  -15.1968   20.4187 N   0  0  0  0  0  0
  -31.8745  -14.7410   20.1832 O   0  0  0  0  0  0
  -21.6645   -6.8907   21.4231 O   0  0  0  0  0  0
  -22.3414  -14.5498   20.6808 O   0  0  0  0  0  0
  -24.6303  -31.8591   23.2065 C   0  0  0  0  0  0
  -25.9131  -32.4790   23.8405 C   0  0  1  0  0  0
  -27.1913  -27.3060   20.1037 C   0  0  0  0  0  0
  -25.5929  -33.8591   24.2314 N   0  0  0  0  0  0
  -23.4219  -30.4898   21.5494 C   0  0  2  0  0  0
  -24.8568  -28.9530   20.1105 C   0  0  0  0  0  0
  -22.7495  -29.4648   22.4950 C   0  0  0  0  0  0
  -18.0284  -28.1385   22.8446 C   0  0  0  0  0  0
  -24.1495  -36.7313   23.2636 C   0  0  0  0  0  0
  -25.9664  -30.7842   21.3837 C   0  0  0  0  0  0
  -26.0309  -29.4139   20.7189 C   0  0  0  0  0  0
  -27.2049  -28.5994   20.7091 C   0  0  0  0  0  0
  -25.9894  -26.9130   19.4638 C   0  0  0  0  0  0
  -24.8380  -27.7071   19.4763 C   0  0  0  0  0  0
  -23.6337  -29.8352   20.1617 C   0  0  0  0  0  0
  -25.4117  -36.3102   24.0340 C   0  0  1  0  0  0
  -20.5891  -28.3715   23.1291 C   0  0  2  0  0  0
  -20.6767  -26.9429   22.5471 C   0  0  0  0  0  0
  -19.5831  -26.6409   21.5190 C   0  0  0  0  0  0
  -18.1976  -26.7947   22.1538 C   0  0  0  0  0  0
  -19.1524  -28.8856   23.2860 C   0  0  0  0  0  0
  -18.9422  -30.1436   23.8898 C   0  0  0  0  0  0
  -17.6416  -30.6537   24.0577 C   0  0  0  0  0  0
  -25.9044  -34.9460   23.5120 C   0  0  0  0  0  0
  -16.5325  -29.9043   23.6309 C   0  0  0  0  0  0
  -16.7257  -28.6486   23.0291 C   0  0  0  0  0  0
  -26.4483  -31.6610   25.0782 C   0  0  0  0  0  0
  -25.3737  -31.3745   26.1537 C   0  0  0  0  0  0
  -27.0330  -30.3038   24.6257 C   0  0  0  0  0  0
  -27.6051  -32.4344   25.7544 C   0  0  0  0  0  0
  -27.5586  -37.1823   24.8471 C   0  0  0  0  0  0
  -21.4213  -29.3055   22.3658 N   0  0  0  0  0  0
  -26.4313  -37.3788   23.9402 N   0  0  0  0  0  0
  -24.6919  -31.0623   22.1018 N   0  0  0  0  0  0
  -23.4202  -28.8184   23.3043 O   0  0  0  0  0  0
  -28.2775  -26.4162   20.1501 O   0  0  0  0  0  0
  -26.5609  -34.8906   22.4683 O   0  0  0  0  0  0
  -23.5450  -32.1412   23.7359 O   0  0  0  0  0  0
  -26.0912  -22.3595   21.2038 C   0  0  0  0  0  0
  -27.5683  -18.9196   20.6448 C   0  0  0  0  0  0
  -29.5833  -18.3768   18.5600 C   0  0  0  0  0  0
  -31.3074  -19.5540   19.8528 C   0  0  0  0  0  0
  -30.0749  -24.0269   19.1193 C   0  0  0  0  0  0
  -29.6845  -24.0551   21.5790 C   0  0  0  0  0  0
  -26.9411  -22.1661   19.9308 C   0  0  0  0  0  0
  -29.0549  -21.1107   21.0525 C   0  0  0  0  0  0
  -30.5825  -17.2768   20.7125 C   0  0  0  0  0  0
  -27.9519  -24.9768   19.9595 C   0  0  0  0  0  0
  -28.9801  -19.4942   20.8439 C   0  0  2  0  0  0
  -28.4810  -22.2547   20.0769 C   0  0  2  0  0  0
  -30.0607  -18.6463   20.0070 C   0  0  0  0  0  0
  -29.0120  -23.8033   20.2145 C   0  0  0  0  0  0
  -29.9673  -15.8995   20.5381 N   0  0  0  0  0  0
  -31.4478  -12.5803   19.1161 H   0  0  0  0  0  0
  -30.3867  -11.4904   19.9709 H   0  0  0  0  0  0
  -29.7532  -11.6556   17.5473 H   0  0  0  0  0  0
  -29.5711  -13.3925   17.6631 H   0  0  0  0  0  0
  -27.8912  -11.2498   18.9754 H   0  0  0  0  0  0
  -27.3373  -12.4339   17.8246 H   0  0  0  0  0  0
  -27.6078  -14.2335   19.4138 H   0  0  0  0  0  0
  -28.7058  -12.2488   21.4651 H   0  0  0  0  0  0
  -28.4196  -13.9507   21.7266 H   0  0  0  0  0  0
  -25.2753   -9.5797   22.4668 H   0  0  0  0  0  0
  -24.0081   -7.4685   22.7381 H   0  0  0  0  0  0
  -21.0870   -8.8753   19.8832 H   0  0  0  0  0  0
  -22.3628  -10.9732   19.6119 H   0  0  0  0  0  0
  -21.2001   -7.6116   23.9700 H   0  0  0  0  0  0
  -21.1432   -6.0479   25.9049 H   0  0  0  0  0  0
  -22.0606   -2.7588   23.2833 H   0  0  0  0  0  0
  -22.4184  -11.9794   22.4852 H   0  0  0  0  0  0
  -21.1090  -13.1077   22.2738 H   0  0  0  0  0  0
  -24.6681  -15.8665   20.5315 H   0  0  0  0  0  0
  -26.2747  -15.6083   20.0640 H   0  0  0  0  0  0
  -26.7185  -32.5417   23.1143 H   0  0  0  0  0  0
  -25.0121  -33.9726   25.0490 H   0  0  0  0  0  0
  -22.7188  -31.3129   21.4081 H   0  0  0  0  0  0
  -23.3743  -35.9664   23.3323 H   0  0  0  0  0  0
  -24.3587  -36.8905   22.2045 H   0  0  0  0  0  0
  -23.7254  -37.6533   23.6625 H   0  0  0  0  0  0
  -26.1111  -31.5454   20.6177 H   0  0  0  0  0  0
  -26.8461  -30.8169   22.0200 H   0  0  0  0  0  0
  -28.1025  -28.9393   21.2087 H   0  0  0  0  0  0
  -25.8798  -25.9691   18.9579 H   0  0  0  0  0  0
  -23.9361  -27.3459   19.0013 H   0  0  0  0  0  0
  -23.7615  -30.6125   19.4072 H   0  0  0  0  0  0
  -22.7509  -29.2701   19.8525 H   0  0  0  0  0  0
  -25.1288  -36.1993   25.0838 H   0  0  0  0  0  0
  -20.9958  -28.3311   24.1432 H   0  0  0  0  0  0
  -20.5505  -26.2369   23.3702 H   0  0  0  0  0  0
  -21.6690  -26.7418   22.1431 H   0  0  0  0  0  0
  -19.7040  -25.6318   21.1246 H   0  0  0  0  0  0
  -19.6831  -27.3244   20.6750 H   0  0  0  0  0  0
  -17.4318  -26.6759   21.3863 H   0  0  0  0  0  0
  -18.0300  -26.0031   22.8861 H   0  0  0  0  0  0
  -19.7879  -30.7230   24.2320 H   0  0  0  0  0  0
  -17.4937  -31.6179   24.5224 H   0  0  0  0  0  0
  -15.5316  -30.2907   23.7661 H   0  0  0  0  0  0
  -15.8673  -28.0803   22.6978 H   0  0  0  0  0  0
  -24.5877  -30.7121   25.7893 H   0  0  0  0  0  0
  -24.8962  -32.2900   26.5042 H   0  0  0  0  0  0
  -25.8085  -30.8879   27.0292 H   0  0  0  0  0  0
  -26.2911  -29.6801   24.1258 H   0  0  0  0  0  0
  -27.3991  -29.7281   25.4774 H   0  0  0  0  0  0
  -27.8802  -30.4331   23.9524 H   0  0  0  0  0  0
  -27.2667  -33.3622   26.2196 H   0  0  0  0  0  0
  -28.3831  -32.6980   25.0352 H   0  0  0  0  0  0
  -28.0790  -31.8452   26.5421 H   0  0  0  0  0  0
  -28.2639  -38.0089   24.7475 H   0  0  0  0  0  0
  -28.1047  -36.2613   24.6354 H   0  0  0  0  0  0
  -27.2294  -37.1555   25.8876 H   0  0  0  0  0  0
  -20.9428  -29.8709   21.6795 H   0  0  0  0  0  0
  -26.0203  -38.2893   24.1338 H   0  0  0  0  0  0
  -25.0544  -22.5674   20.9238 H   0  0  0  0  0  0
  -26.4313  -23.1864   21.8243 H   0  0  0  0  0  0
  -26.0824  -21.4683   21.8299 H   0  0  0  0  0  0
  -27.5889  -17.8359   20.7728 H   0  0  0  0  0  0
  -27.1841  -19.1188   19.6435 H   0  0  0  0  0  0
  -26.8632  -19.3197   21.3684 H   0  0  0  0  0  0
  -29.1948  -19.2928   18.1031 H   0  0  0  0  0  0
  -28.8081  -17.6164   18.4971 H   0  0  0  0  0  0
  -30.4075  -18.0235   17.9359 H   0  0  0  0  0  0
  -31.7507  -19.8241   20.8121 H   0  0  0  0  0  0
  -32.0869  -19.0735   19.2596 H   0  0  0  0  0  0
  -31.0700  -20.4821   19.3298 H   0  0  0  0  0  0
  -30.5245  -25.0163   19.2035 H   0  0  0  0  0  0
  -29.6271  -23.9691   18.1254 H   0  0  0  0  0  0
  -30.8760  -23.2916   19.1581 H   0  0  0  0  0  0
  -29.9710  -25.1026   21.6740 H   0  0  0  0  0  0
  -30.6055  -23.4842   21.6843 H   0  0  0  0  0  0
  -29.0383  -23.8077   22.4196 H   0  0  0  0  0  0
  -26.6229  -22.8903   19.1854 H   0  0  0  0  0  0
  -26.6741  -21.2196   19.4684 H   0  0  0  0  0  0
  -30.0952  -21.3567   21.2560 H   0  0  0  0  0  0
  -28.5736  -21.2954   22.0178 H   0  0  0  0  0  0
  -30.6585  -17.4432   21.7877 H   0  0  0  0  0  0
  -31.6187  -17.1626   20.3995 H   0  0  0  0  0  0
  -27.0648  -24.7762   20.5555 H   0  0  0  0  0  0
  -27.6558  -24.8832   18.9165 H   0  0  0  0  0  0
  -29.2126  -19.1766   21.8593 H   0  0  0  0  0  0
  -28.8415  -21.9323   19.1011 H   0  0  0  0  0  0
  -28.9648  -15.8360   20.5953 H   0  0  0  0  0  0
  1 25  1  0  0  0
  1 30  2  0  0  0
  1 85  1  0  0  0
  2  3  1  0  0  0
  2 25  1  0  0  0
  2 86  1  0  0  0
  2 87  1  0  0  0
  3  4  1  0  0  0
  3 88  1  0  0  0
  3 89  1  0  0  0
  4  5  1  0  0  0
  4 90  1  0  0  0
  4 91  1  0  0  0
  5  6  1  0  0  0
  5 26  1  0  0  0
  5 92  1  0  0  0
  6 25  1  0  0  0
  6 93  1  0  0  0
  6 94  1  0  0  0
  7  8  2  0  0  0
  7 26  1  0  0  0
  7 29  1  0  0  0
  8  9  1  0  0  0
  8 22  1  0  0  0
  9 10  1  0  0  0
  9 27  2  0  0  0
 10 11  2  0  0  0
 10 15  1  0  0  0
 11 12  1  0  0  0
 11 95  1  0  0  0
 12 13  2  0  0  0
 12 96  1  0  0  0
 13 14  1  0  0  0
 13 31  1  0  0  0
 14 15  2  0  0  0
 14 97  1  0  0  0
 15 98  1  0  0  0
 16 17  2  0  0  0
 16 21  1  0  0  0
 16 31  1  0  0  0
 17 18  1  0  0  0
 17 99  1  0  0  0
 18 19  2  0  0  0
 18100  1  0  0  0
 19 20  1  0  0  0
 19 24  1  0  0  0
 20 21  2  0  0  0
 20101  1  0  0  0
 21 23  1  0  0  0
 22 28  1  0  0  0
 22 32  2  0  0  0
 26 27  1  0  0  0
 28102  1  0  0  0
 28103  1  0  0  0
 29104  1  0  0  0
 29105  1  0  0  0
 33 34  1  0  0  0
 33 66  1  0  0  0
 33 70  2  0  0  0
 34 36  1  0  0  0
 34 59  1  0  0  0
 34106  1  0  0  0
 35 44  2  0  0  0
 35 45  1  0  0  0
 35 68  1  0  0  0
 36 56  1  0  0  0
 36107  1  0  0  0
 37 39  1  0  0  0
 37 47  1  0  0  0
 37 66  1  0  0  0
 37108  1  0  0  0
 38 43  2  0  0  0
 38 46  1  0  0  0
 38 47  1  0  0  0
 39 64  1  0  0  0
 39 67  2  0  0  0
 40 52  1  0  0  0
 40 53  2  0  0  0
 40 58  1  0  0  0
 41109  1  0  0  0
 41110  1  0  0  0
 41111  1  0  0  0
 41 48  1  0  0  0
 42 43  1  0  0  0
 42 66  1  0  0  0
 42112  1  0  0  0
 42113  1  0  0  0
 43 44  1  0  0  0
 44114  1  0  0  0
 45 46  2  0  0  0
 45115  1  0  0  0
 46116  1  0  0  0
 47117  1  0  0  0
 47118  1  0  0  0
 48 56  1  0  0  0
 48 65  1  0  0  0
 48119  1  0  0  0
 49 50  1  0  0  0
 49 53  1  0  0  0
 49 64  1  0  0  0
 49120  1  0  0  0
 50 51  1  0  0  0
 50121  1  0  0  0
 50122  1  0  0  0
 51 52  1  0  0  0
 51123  1  0  0  0
 51124  1  0  0  0
 52125  1  0  0  0
 52126  1  0  0  0
 53 54  1  0  0  0
 54 55  2  0  0  0
 54127  1  0  0  0
 55 57  1  0  0  0
 55128  1  0  0  0
 56 69  2  0  0  0
 57 58  2  0  0  0
 57129  1  0  0  0
 58130  1  0  0  0
 59 60  1  0  0  0
 59 61  1  0  0  0
 59 62  1  0  0  0
 60131  1  0  0  0
 60132  1  0  0  0
 60133  1  0  0  0
 61134  1  0  0  0
 61135  1  0  0  0
 61136  1  0  0  0
 62137  1  0  0  0
 62138  1  0  0  0
 62139  1  0  0  0
 63 65  1  0  0  0
 63140  1  0  0  0
 63141  1  0  0  0
 63142  1  0  0  0
 64143  1  0  0  0
 65144  1  0  0  0
 68 80  1  0  0  0
 71 77  1  0  0  0
 71145  1  0  0  0
 71146  1  0  0  0
 71147  1  0  0  0
 72148  1  0  0  0
 72149  1  0  0  0
 72150  1  0  0  0
 72 81  1  0  0  0
 73151  1  0  0  0
 73152  1  0  0  0
 73153  1  0  0  0
 73 83  1  0  0  0
 74 83  1  0  0  0
 74154  1  0  0  0
 74155  1  0  0  0
 74156  1  0  0  0
 75157  1  0  0  0
 75158  1  0  0  0
 75159  1  0  0  0
 75 84  1  0  0  0
 76 84  1  0  0  0
 76160  1  0  0  0
 76161  1  0  0  0
 76162  1  0  0  0
 77163  1  0  0  0
 77164  1  0  0  0
 77 82  1  0  0  0
 78 81  1  0  0  0
 78 82  1  0  0  0
 78165  1  0  0  0
 78166  1  0  0  0
 79 83  1  0  0  0
 79 85  1  0  0  0
 79167  1  0  0  0
 79168  1  0  0  0
 80 84  1  0  0  0
 80169  1  0  0  0
 80170  1  0  0  0
 81 83  1  0  0  0
 81171  1  0  0  0
 82 84  1  0  0  0
 82172  1  0  0  0
 85173  1  0  0  0
M  ISO  4   1 100  68 101  80 101  85 100
M  END
> <chiral flag>
0

> <version>
0

> <s_m_source_file>
/data/baiqing/PycharmProjects/Reinvent-master-3.2/result/LINK_invent/BTK/process_docking_weight1_custom_sum_contain_oxygen_bond_distance_aromatic_linkinvent_7_9_3/rearranged_h_0050.sdf

> <i_m_source_file_index>
1

> <r_mmod_Potential_Energy-OPLS-2005>
246.200576782227

> <r_mmod_Stretch_Energy-OPLS-2005>
115.203926086426

> <r_mmod_Bend_Energy-OPLS-2005>
220.187957763672

> <r_mmod_Torsional_Energy-OPLS-2005>
289.926910400391

> <r_mmod_Improper_Torsional_Energy-OPLS-2005>
4.83963584899902

> <r_mmod_Van_der_Waal_Energy-OPLS-2005>
147.429168701172

> <r_mmod_Electrostatic_Energy-OPLS-2005>
-430.393859863281

> <r_mmod_Solvation_Energy-OPLS-2005>
-181.332763671875

> <b_mmod_Minimization_Converged-OPLS-2005>
0

> <r_mmod_RMS_Derivative-OPLS-2005>
7.05459547042847

$$$$
1
                    3D
 Structure written by MMmdl.
160168  0  0  1  0            999 V2000
  -30.7090  -14.5730   20.4650 C   0  0  0  0  0  0
  -30.4179  -12.3432   19.4432 C   0  0  0  0  0  0
  -29.4877  -12.4395   18.2154 C   0  0  0  0  0  0
  -28.0126  -12.2919   18.6402 C   0  0  0  0  0  0
  -27.6353  -13.1822   19.8530 C   0  0  2  0  0  0
  -28.6950  -13.1131   20.9772 C   0  0  0  0  0  0
  -25.2536  -13.8044   20.5751 C   0  0  0  0  0  0
  -24.1761  -13.0366   20.9211 C   0  0  0  0  0  0
  -24.6308  -11.6839   20.8798 C   0  0  0  0  0  0
  -23.8968  -10.4251   21.0464 C   0  0  0  0  0  0
  -24.3548   -9.4162   21.9217 C   0  0  0  0  0  0
  -23.6263   -8.2174   22.0759 C   0  0  0  0  0  0
  -22.4252   -8.0224   21.3536 C   0  0  0  0  0  0
  -21.9874   -9.0203   20.4647 C   0  0  0  0  0  0
  -22.7169  -10.2111   20.3097 C   0  0  0  0  0  0
  -21.6815   -6.0709   22.5289 C   0  0  0  0  0  0
  -21.3991   -6.5634   23.8219 C   0  0  0  0  0  0
  -21.3660   -5.6803   24.9193 C   0  0  0  0  0  0
  -21.6048   -4.3061   24.7245 C   0  0  0  0  0  0
  -21.8815   -3.8143   23.4380 C   0  0  0  0  0  0
  -21.9178   -4.6942   22.3424 C   0  0  0  0  0  0
  -22.7806  -13.5223   21.1839 C   0  0  0  0  0  0
  -22.1645   -4.2141   21.0998 F   0  0  0  0  0  0
  -21.5649   -3.4539   25.7749 F   0  0  0  0  0  0
  -30.0094  -13.4005   20.3839 N   0  0  0  0  0  0
  -26.2907  -12.9144   20.3384 N   0  0  0  0  0  0
  -25.9218  -11.6347   20.5835 N   0  0  0  0  0  0
  -22.0447  -12.8252   22.0416 N   0  0  0  0  0  0
  -25.4293  -15.1754   20.4201 N   0  0  0  0  0  0
  -31.9157  -14.6198   20.2169 O   0  0  0  0  0  0
  -21.6615   -6.8832   21.4235 O   0  0  0  0  0  0
  -22.3509  -14.5531   20.6681 O   0  0  0  0  0  0
  -24.6174  -31.8653   23.2062 C   0  0  0  0  0  0
  -25.9060  -32.4802   23.8376 C   0  0  1  0  0  0
  -27.2336  -27.3949   20.1305 C   0  0  0  0  0  0
  -25.5906  -33.8600   24.2311 N   0  0  0  0  0  0
  -23.4080  -30.4878   21.5461 C   0  0  2  0  0  0
  -24.8581  -28.9491   20.1134 C   0  0  0  0  0  0
  -22.7425  -29.4650   22.4955 C   0  0  0  0  0  0
  -18.0273  -28.1377   22.8484 C   0  0  0  0  0  0
  -24.1489  -36.7310   23.2640 C   0  0  0  0  0  0
  -25.9400  -30.8227   21.3642 C   0  0  0  0  0  0
  -26.0192  -29.4546   20.7116 C   0  0  0  0  0  0
  -27.2126  -28.6893   20.7090 C   0  0  0  0  0  0
  -26.0582  -26.9179   19.5094 C   0  0  0  0  0  0
  -24.8758  -27.6833   19.5020 C   0  0  0  0  0  0
  -23.6200  -29.8186   20.1609 C   0  0  0  0  0  0
  -25.4108  -36.3096   24.0336 C   0  0  1  0  0  0
  -20.5867  -28.3676   23.1296 C   0  0  2  0  0  0
  -20.6761  -26.9404   22.5412 C   0  0  0  0  0  0
  -19.5744  -26.6381   21.5207 C   0  0  0  0  0  0
  -18.1923  -26.7917   22.1616 C   0  0  0  0  0  0
  -19.1522  -28.8843   23.2886 C   0  0  0  0  0  0
  -18.9453  -30.1444   23.8900 C   0  0  0  0  0  0
  -17.6460  -30.6582   24.0559 C   0  0  0  0  0  0
  -25.9041  -34.9464   23.5122 C   0  0  0  0  0  0
  -16.5352  -29.9085   23.6326 C   0  0  0  0  0  0
  -16.7266  -28.6502   23.0348 C   0  0  0  0  0  0
  -26.4489  -31.6583   25.0710 C   0  0  0  0  0  0
  -25.3765  -31.3687   26.1466 C   0  0  0  0  0  0
  -27.0321  -30.3020   24.6101 C   0  0  0  0  0  0
  -27.6061  -32.4307   25.7467 C   0  0  0  0  0  0
  -27.5581  -37.1804   24.8464 C   0  0  0  0  0  0
  -21.4154  -29.3035   22.3699 N   0  0  0  0  0  0
  -26.4293  -37.3788   23.9409 N   0  0  0  0  0  0
  -24.6734  -31.0733   22.0968 N   0  0  0  0  0  0
  -23.4183  -28.8203   23.3019 O   0  0  0  0  0  0
  -28.3737  -26.6079   20.1726 O   0  0  0  0  0  0
  -26.5606  -34.8926   22.4683 O   0  0  0  0  0  0
  -23.5364  -32.1422   23.7441 O   0  0  0  0  0  0
  -29.2332  -23.1663   23.0220 C   0  0  0  0  0  0
  -29.3912  -21.9774   23.7469 C   0  0  0  0  0  0
  -29.4729  -23.1259   21.6393 C   0  0  0  0  0  0
  -29.9551  -20.8530   21.8311 C   0  0  0  0  0  0
  -29.2262  -21.9321   25.2504 C   0  0  0  0  0  0
  -29.1641  -16.1365   19.4549 C   0  0  0  0  0  0
  -29.5101  -24.4338   20.8112 C   0  0  0  0  0  0
  -30.5956  -19.5803   21.2439 C   0  0  0  0  0  0
  -29.8393  -18.2251   21.4471 C   0  0  0  0  0  0
  -30.7174  -16.9681   21.0858 C   0  0  0  0  0  0
  -28.1970  -25.2759   20.7377 C   0  0  0  0  0  0
  -29.7580  -20.8343   23.1443 N   0  0  0  0  0  0
  -29.8223  -21.9448   21.0551 N   0  0  0  0  0  0
  -30.0109  -15.7489   20.5955 N   0  0  0  0  0  0
  -31.4609  -12.4354   19.1335 H   0  0  0  0  0  0
  -30.3294  -11.3631   19.9164 H   0  0  0  0  0  0
  -29.7433  -11.6645   17.4922 H   0  0  0  0  0  0
  -29.6325  -13.3873   17.6979 H   0  0  0  0  0  0
  -27.8483  -11.2439   18.8913 H   0  0  0  0  0  0
  -27.3560  -12.5068   17.7962 H   0  0  0  0  0  0
  -27.5945  -14.1862   19.4588 H   0  0  0  0  0  0
  -28.7025  -12.1233   21.4363 H   0  0  0  0  0  0
  -28.4620  -13.8187   21.7757 H   0  0  0  0  0  0
  -25.2679   -9.5645   22.4801 H   0  0  0  0  0  0
  -23.9983   -7.4555   22.7472 H   0  0  0  0  0  0
  -21.0814   -8.8726   19.8940 H   0  0  0  0  0  0
  -22.3619  -10.9675   19.6233 H   0  0  0  0  0  0
  -21.1981   -7.6146   23.9729 H   0  0  0  0  0  0
  -21.1481   -6.0532   25.9099 H   0  0  0  0  0  0
  -22.0599   -2.7603   23.2889 H   0  0  0  0  0  0
  -22.4049  -11.9917   22.4798 H   0  0  0  0  0  0
  -21.1073  -13.1280   22.2651 H   0  0  0  0  0  0
  -24.6686  -15.8361   20.5308 H   0  0  0  0  0  0
  -26.2918  -15.6106   20.1198 H   0  0  0  0  0  0
  -26.7130  -32.5514   23.1137 H   0  0  0  0  0  0
  -25.0048  -33.9764   25.0453 H   0  0  0  0  0  0
  -22.6979  -31.3042   21.4034 H   0  0  0  0  0  0
  -23.3747  -35.9648   23.3301 H   0  0  0  0  0  0
  -24.3587  -36.8931   22.2056 H   0  0  0  0  0  0
  -23.7253  -37.6517   23.6662 H   0  0  0  0  0  0
  -26.0582  -31.5873   20.5955 H   0  0  0  0  0  0
  -26.8258  -30.8757   21.9860 H   0  0  0  0  0  0
  -28.1077  -29.0722   21.1795 H   0  0  0  0  0  0
  -26.0453  -25.9486   19.0309 H   0  0  0  0  0  0
  -23.9865  -27.2901   19.0290 H   0  0  0  0  0  0
  -23.7306  -30.5938   19.4011 H   0  0  0  0  0  0
  -22.7447  -29.2392   19.8632 H   0  0  0  0  0  0
  -25.1286  -36.1952   25.0831 H   0  0  0  0  0  0
  -20.9958  -28.3248   24.1417 H   0  0  0  0  0  0
  -20.5658  -26.2284   23.3609 H   0  0  0  0  0  0
  -21.6636  -26.7437   22.1213 H   0  0  0  0  0  0
  -19.6908  -25.6296   21.1229 H   0  0  0  0  0  0
  -19.6681  -27.3196   20.6742 H   0  0  0  0  0  0
  -17.4193  -26.6658   21.4021 H   0  0  0  0  0  0
  -18.0327  -26.0061   22.9014 H   0  0  0  0  0  0
  -19.7938  -30.7245   24.2274 H   0  0  0  0  0  0
  -17.5025  -31.6265   24.5155 H   0  0  0  0  0  0
  -15.5351  -30.2990   23.7654 H   0  0  0  0  0  0
  -15.8662  -28.0824   22.7060 H   0  0  0  0  0  0
  -24.5902  -30.7083   25.7795 H   0  0  0  0  0  0
  -24.9008  -32.2848   26.4977 H   0  0  0  0  0  0
  -25.8131  -30.8793   27.0180 H   0  0  0  0  0  0
  -26.2858  -29.6756   24.1198 H   0  0  0  0  0  0
  -27.4128  -29.7282   25.4559 H   0  0  0  0  0  0
  -27.8680  -30.4325   23.9223 H   0  0  0  0  0  0
  -27.2677  -33.3594   26.2071 H   0  0  0  0  0  0
  -28.3852  -32.6888   25.0284 H   0  0  0  0  0  0
  -28.0749  -31.8414   26.5360 H   0  0  0  0  0  0
  -28.2596  -38.0103   24.7513 H   0  0  0  0  0  0
  -28.1074  -36.2632   24.6279 H   0  0  0  0  0  0
  -27.2301  -37.1447   25.8870 H   0  0  0  0  0  0
  -20.9316  -29.8755   21.6916 H   0  0  0  0  0  0
  -26.0173  -38.2859   24.1414 H   0  0  0  0  0  0
  -28.9825  -24.0942   23.5218 H   0  0  0  0  0  0
  -29.6296  -22.8359   25.7062 H   0  0  0  0  0  0
  -29.7564  -21.0820   25.6815 H   0  0  0  0  0  0
  -28.1728  -21.8485   25.5170 H   0  0  0  0  0  0
  -28.1395  -16.2923   19.7900 H   0  0  0  0  0  0
  -29.1706  -15.4105   18.6417 H   0  0  0  0  0  0
  -29.4951  -17.0657   18.9886 H   0  0  0  0  0  0
  -29.8479  -24.2097   19.7991 H   0  0  0  0  0  0
  -30.2929  -25.0549   21.2476 H   0  0  0  0  0  0
  -31.5907  -19.4985   21.6828 H   0  0  0  0  0  0
  -30.7613  -19.7312   20.1759 H   0  0  0  0  0  0
  -28.9115  -18.2760   20.8796 H   0  0  0  0  0  0
  -29.5307  -18.1348   22.4897 H   0  0  0  0  0  0
  -31.3212  -16.7025   21.9565 H   0  0  0  0  0  0
  -31.4405  -17.2506   20.3176 H   0  0  0  0  0  0
  -27.7975  -25.3989   21.7464 H   0  0  0  0  0  0
  -27.4571  -24.7015   20.1807 H   0  0  0  0  0  0
  1 25  1  0  0  0
  1 30  2  0  0  0
  1 84  1  0  0  0
  2  3  1  0  0  0
  2 25  1  0  0  0
  2 85  1  0  0  0
  2 86  1  0  0  0
  3  4  1  0  0  0
  3 87  1  0  0  0
  3 88  1  0  0  0
  4  5  1  0  0  0
  4 89  1  0  0  0
  4 90  1  0  0  0
  5  6  1  0  0  0
  5 26  1  0  0  0
  5 91  1  0  0  0
  6 25  1  0  0  0
  6 92  1  0  0  0
  6 93  1  0  0  0
  7  8  2  0  0  0
  7 26  1  0  0  0
  7 29  1  0  0  0
  8  9  1  0  0  0
  8 22  1  0  0  0
  9 10  1  0  0  0
  9 27  2  0  0  0
 10 11  2  0  0  0
 10 15  1  0  0  0
 11 12  1  0  0  0
 11 94  1  0  0  0
 12 13  2  0  0  0
 12 95  1  0  0  0
 13 14  1  0  0  0
 13 31  1  0  0  0
 14 15  2  0  0  0
 14 96  1  0  0  0
 15 97  1  0  0  0
 16 17  2  0  0  0
 16 21  1  0  0  0
 16 31  1  0  0  0
 17 18  1  0  0  0
 17 98  1  0  0  0
 18 19  2  0  0  0
 18 99  1  0  0  0
 19 20  1  0  0  0
 19 24  1  0  0  0
 20 21  2  0  0  0
 20100  1  0  0  0
 21 23  1  0  0  0
 22 28  1  0  0  0
 22 32  2  0  0  0
 26 27  1  0  0  0
 28101  1  0  0  0
 28102  1  0  0  0
 29103  1  0  0  0
 29104  1  0  0  0
 33 34  1  0  0  0
 33 66  1  0  0  0
 33 70  2  0  0  0
 34 36  1  0  0  0
 34 59  1  0  0  0
 34105  1  0  0  0
 35 44  2  0  0  0
 35 45  1  0  0  0
 35 68  1  0  0  0
 36 56  1  0  0  0
 36106  1  0  0  0
 37 39  1  0  0  0
 37 47  1  0  0  0
 37 66  1  0  0  0
 37107  1  0  0  0
 38 43  2  0  0  0
 38 46  1  0  0  0
 38 47  1  0  0  0
 39 64  1  0  0  0
 39 67  2  0  0  0
 40 52  1  0  0  0
 40 53  2  0  0  0
 40 58  1  0  0  0
 41108  1  0  0  0
 41109  1  0  0  0
 41110  1  0  0  0
 41 48  1  0  0  0
 42 43  1  0  0  0
 42 66  1  0  0  0
 42111  1  0  0  0
 42112  1  0  0  0
 43 44  1  0  0  0
 44113  1  0  0  0
 45 46  2  0  0  0
 45114  1  0  0  0
 46115  1  0  0  0
 47116  1  0  0  0
 47117  1  0  0  0
 48 56  1  0  0  0
 48 65  1  0  0  0
 48118  1  0  0  0
 49 50  1  0  0  0
 49 53  1  0  0  0
 49 64  1  0  0  0
 49119  1  0  0  0
 50 51  1  0  0  0
 50120  1  0  0  0
 50121  1  0  0  0
 51 52  1  0  0  0
 51122  1  0  0  0
 51123  1  0  0  0
 52124  1  0  0  0
 52125  1  0  0  0
 53 54  1  0  0  0
 54 55  2  0  0  0
 54126  1  0  0  0
 55 57  1  0  0  0
 55127  1  0  0  0
 56 69  2  0  0  0
 57 58  2  0  0  0
 57128  1  0  0  0
 58129  1  0  0  0
 59 60  1  0  0  0
 59 61  1  0  0  0
 59 62  1  0  0  0
 60130  1  0  0  0
 60131  1  0  0  0
 60132  1  0  0  0
 61133  1  0  0  0
 61134  1  0  0  0
 61135  1  0  0  0
 62136  1  0  0  0
 62137  1  0  0  0
 62138  1  0  0  0
 63 65  1  0  0  0
 63139  1  0  0  0
 63140  1  0  0  0
 63141  1  0  0  0
 64142  1  0  0  0
 65143  1  0  0  0
 68 81  1  0  0  0
 71 72  2  0  0  0
 71 73  1  0  0  0
 71144  1  0  0  0
 72 75  1  0  0  0
 72 82  1  0  0  0
 73 77  1  0  0  0
 73 83  2  0  0  0
 74 78  1  0  0  0
 74 82  2  0  0  0
 74 83  1  0  0  0
 75145  1  0  0  0
 75146  1  0  0  0
 75147  1  0  0  0
 76 84  1  0  0  0
 76148  1  0  0  0
 76149  1  0  0  0
 76150  1  0  0  0
 77 81  1  0  0  0
 77151  1  0  0  0
 77152  1  0  0  0
 78 79  1  0  0  0
 78153  1  0  0  0
 78154  1  0  0  0
 79 80  1  0  0  0
 79155  1  0  0  0
 79156  1  0  0  0
 80 84  1  0  0  0
 80157  1  0  0  0
 80158  1  0  0  0
 81159  1  0  0  0
 81160  1  0  0  0
M  ISO  4   1 100  68 101  81 101  84 100
M  END
> <chiral flag>
0

> <version>
0

> <s_m_source_file>
/data/baiqing/PycharmProjects/Reinvent-master-3.2/result/LINK_invent/BTK/process_docking_weight1_custom_sum_contain_oxygen_bond_distance_aromatic_linkinvent_7_9_3/rearranged_h_0050.sdf

> <i_m_source_file_index>
2

> <r_mmod_Potential_Energy-OPLS-2005>
-224.293121337891

> <r_mmod_Stretch_Energy-OPLS-2005>
51.5367126464844

> <r_mmod_Bend_Energy-OPLS-2005>
120.021095275879

> <r_mmod_Torsional_Energy-OPLS-2005>
297.938873291016

> <r_mmod_Improper_Torsional_Energy-OPLS-2005>
11.1184492111206

> <r_mmod_Van_der_Waal_Energy-OPLS-2005>
166.354278564453

> <r_mmod_Electrostatic_Energy-OPLS-2005>
-684.922790527344

> <r_mmod_Solvation_Energy-OPLS-2005>
-223.573852539062

> <b_mmod_Minimization_Converged-OPLS-2005>
0

> <r_mmod_RMS_Derivative-OPLS-2005>
2.3372266292572

$$$$
2
                    3D
 Structure written by MMmdl.
163171  0  0  1  0            999 V2000
  -30.6350  -14.5458   20.4468 C   0  0  0  0  0  0
  -30.4505  -12.2956   19.4614 C   0  0  0  0  0  0
  -29.5109  -12.4003   18.2456 C   0  0  0  0  0  0
  -28.0386  -12.2595   18.6622 C   0  0  0  0  0  0
  -27.6603  -13.1834   19.8404 C   0  0  2  0  0  0
  -28.6963  -13.0440   20.9732 C   0  0  0  0  0  0
  -25.2705  -13.8188   20.5793 C   0  0  0  0  0  0
  -24.1910  -13.0582   20.9071 C   0  0  0  0  0  0
  -24.6370  -11.6971   20.8716 C   0  0  0  0  0  0
  -23.9066  -10.4378   21.0468 C   0  0  0  0  0  0
  -24.3578   -9.4249   21.9261 C   0  0  0  0  0  0
  -23.6264   -8.2289   22.0786 C   0  0  0  0  0  0
  -22.4246   -8.0316   21.3571 C   0  0  0  0  0  0
  -21.9930   -9.0301   20.4649 C   0  0  0  0  0  0
  -22.7261  -10.2181   20.3082 C   0  0  0  0  0  0
  -21.6847   -6.0715   22.5281 C   0  0  0  0  0  0
  -21.4040   -6.5632   23.8202 C   0  0  0  0  0  0
  -21.3631   -5.6795   24.9171 C   0  0  0  0  0  0
  -21.6039   -4.3058   24.7253 C   0  0  0  0  0  0
  -21.8815   -3.8131   23.4388 C   0  0  0  0  0  0
  -21.9175   -4.6937   22.3420 C   0  0  0  0  0  0
  -22.7890  -13.5391   21.1669 C   0  0  0  0  0  0
  -22.1633   -4.2135   21.0991 F   0  0  0  0  0  0
  -21.5609   -3.4523   25.7764 F   0  0  0  0  0  0
  -30.0362  -13.3208   20.4282 N   0  0  0  0  0  0
  -26.3043  -12.9311   20.3203 N   0  0  0  0  0  0
  -25.9268  -11.6499   20.5711 N   0  0  0  0  0  0
  -22.0524  -12.8364   22.0105 N   0  0  0  0  0  0
  -25.4896  -15.1960   20.4766 N   0  0  0  0  0  0
  -31.8238  -14.7063   20.1667 O   0  0  0  0  0  0
  -21.6631   -6.8914   21.4249 O   0  0  0  0  0  0
  -22.3609  -14.5763   20.6549 O   0  0  0  0  0  0
  -24.6227  -31.8653   23.2224 C   0  0  0  0  0  0
  -25.9152  -32.4830   23.8459 C   0  0  1  0  0  0
  -27.1852  -27.3571   20.1240 C   0  0  0  0  0  0
  -25.6073  -33.8672   24.2368 N   0  0  0  0  0  0
  -23.4097  -30.4976   21.5679 C   0  0  2  0  0  0
  -24.8483  -28.9611   20.1270 C   0  0  0  0  0  0
  -22.7418  -29.4719   22.5100 C   0  0  0  0  0  0
  -18.0327  -28.1553   22.8083 C   0  0  0  0  0  0
  -24.1526  -36.7234   23.2601 C   0  0  0  0  0  0
  -25.9497  -30.8031   21.3995 C   0  0  0  0  0  0
  -26.0190  -29.4424   20.7280 C   0  0  0  0  0  0
  -27.2006  -28.6516   20.7243 C   0  0  0  0  0  0
  -26.0076  -26.9204   19.4815 C   0  0  0  0  0  0
  -24.8388  -27.6994   19.4904 C   0  0  0  0  0  0
  -23.6236  -29.8505   20.1728 C   0  0  0  0  0  0
  -25.4176  -36.3055   24.0290 C   0  0  1  0  0  0
  -20.5788  -28.3771   23.1052 C   0  0  2  0  0  0
  -20.6679  -26.9627   22.5007 C   0  0  0  0  0  0
  -19.5831  -26.7056   21.4556 C   0  0  0  0  0  0
  -18.2059  -26.8311   22.0758 C   0  0  0  0  0  0
  -19.1483  -28.8958   23.2787 C   0  0  0  0  0  0
  -18.9213  -30.1353   23.9214 C   0  0  0  0  0  0
  -17.6075  -30.6265   24.1049 C   0  0  0  0  0  0
  -25.9075  -34.9452   23.5044 C   0  0  0  0  0  0
  -16.5085  -29.8815   23.6522 C   0  0  0  0  0  0
  -16.7236  -28.6538   22.9941 C   0  0  0  0  0  0
  -26.4611  -31.6696   25.0864 C   0  0  0  0  0  0
  -25.3918  -31.3815   26.1672 C   0  0  0  0  0  0
  -27.0580  -30.3154   24.6371 C   0  0  0  0  0  0
  -27.6072  -32.4551   25.7582 C   0  0  0  0  0  0
  -27.5582  -37.1856   24.8497 C   0  0  0  0  0  0
  -21.4152  -29.3063   22.3526 N   0  0  0  0  0  0
  -26.4299  -37.3778   23.9368 N   0  0  0  0  0  0
  -24.6791  -31.0687   22.1162 N   0  0  0  0  0  0
  -23.4177  -28.8435   23.3263 O   0  0  0  0  0  0
  -28.2483  -26.4719   20.2035 O   0  0  0  0  0  0
  -26.5501  -34.8854   22.4506 O   0  0  0  0  0  0
  -23.5380  -32.1515   23.7531 O   0  0  0  0  0  0
  -26.0209  -23.1059   19.7313 C   0  0  0  0  0  0
  -27.2731  -22.8035   20.2037 C   0  0  0  0  0  0
  -27.1961  -21.3616   20.3642 C   0  0  0  0  0  0
  -23.9987  -21.8069   18.9027 C   0  0  0  0  0  0
  -29.2351  -18.1776   22.8788 C   0  0  0  0  0  0
  -28.3976  -23.8177   20.5134 C   0  0  0  0  0  0
  -27.9575  -20.3747   21.2689 C   0  0  0  0  0  0
  -29.7034  -15.7982   20.4970 C   0  0  0  0  0  0
  -29.0714  -19.4535   20.6644 C   0  0  0  0  0  0
  -30.3039  -17.2055   20.8124 C   0  0  0  0  0  0
  -27.9798  -25.2717   21.0156 C   0  0  0  0  0  0
  -26.1192  -20.8668   19.7424 N   0  0  0  0  0  0
  -25.3624  -21.9435   19.4044 N   0  0  0  0  0  0
  -29.2497  -18.1304   21.3779 N   0  3  1  0  0  0
  -31.4870  -12.4245   19.1441 H   0  0  0  0  0  0
  -30.4044  -11.3082   19.9282 H   0  0  0  0  0  0
  -29.7582  -11.6253   17.5202 H   0  0  0  0  0  0
  -29.6621  -13.3516   17.7428 H   0  0  0  0  0  0
  -27.8808  -11.2186   18.9557 H   0  0  0  0  0  0
  -27.3767  -12.4113   17.8096 H   0  0  0  0  0  0
  -27.6773  -14.1942   19.4417 H   0  0  0  0  0  0
  -28.6620  -12.0359   21.3726 H   0  0  0  0  0  0
  -28.4518  -13.6863   21.8195 H   0  0  0  0  0  0
  -25.2690   -9.5686   22.4887 H   0  0  0  0  0  0
  -23.9908   -7.4669   22.7529 H   0  0  0  0  0  0
  -21.0849   -8.8812   19.8990 H   0  0  0  0  0  0
  -22.3730  -10.9707   19.6171 H   0  0  0  0  0  0
  -21.2081   -7.6132   23.9726 H   0  0  0  0  0  0
  -21.1439   -6.0510   25.9076 H   0  0  0  0  0  0
  -22.0632   -2.7595   23.2885 H   0  0  0  0  0  0
  -22.4076  -12.0014   22.4521 H   0  0  0  0  0  0
  -21.1225  -13.1573   22.2396 H   0  0  0  0  0  0
  -24.7743  -15.8781   20.6988 H   0  0  0  0  0  0
  -26.4243  -15.5814   20.4684 H   0  0  0  0  0  0
  -26.7181  -32.5523   23.1125 H   0  0  0  0  0  0
  -25.0629  -33.9902   25.0785 H   0  0  0  0  0  0
  -22.7109  -31.3274   21.4516 H   0  0  0  0  0  0
  -23.3737  -35.9588   23.3283 H   0  0  0  0  0  0
  -24.3609  -36.8810   22.2010 H   0  0  0  0  0  0
  -23.7337  -37.6460   23.6613 H   0  0  0  0  0  0
  -26.1069  -31.5885   20.6493 H   0  0  0  0  0  0
  -26.8186  -30.8221   22.0548 H   0  0  0  0  0  0
  -28.0987  -29.0192   21.2111 H   0  0  0  0  0  0
  -25.9942  -25.9593   19.0087 H   0  0  0  0  0  0
  -23.9464  -27.3235   19.0173 H   0  0  0  0  0  0
  -23.7277  -30.6314   19.4286 H   0  0  0  0  0  0
  -22.7378  -29.2793   19.8867 H   0  0  0  0  0  0
  -25.1342  -36.1826   25.0777 H   0  0  0  0  0  0
  -20.9871  -28.2986   24.1132 H   0  0  0  0  0  0
  -20.5730  -26.2204   23.2983 H   0  0  0  0  0  0
  -21.6453  -26.8042   22.0544 H   0  0  0  0  0  0
  -19.7215  -25.7402   20.9789 H   0  0  0  0  0  0
  -19.7041  -27.4474   20.6537 H   0  0  0  0  0  0
  -17.4459  -26.7606   21.2878 H   0  0  0  0  0  0
  -18.0551  -26.0165   22.7832 H   0  0  0  0  0  0
  -19.7483  -30.7238   24.2923 H   0  0  0  0  0  0
  -17.4389  -31.5697   24.6057 H   0  0  0  0  0  0
  -15.4922  -30.2405   23.7988 H   0  0  0  0  0  0
  -15.8925  -28.0802   22.6192 H   0  0  0  0  0  0
  -24.5974  -30.7211   25.8133 H   0  0  0  0  0  0
  -24.9214  -32.2993   26.5227 H   0  0  0  0  0  0
  -25.8362  -30.8976   27.0384 H   0  0  0  0  0  0
  -26.3160  -29.6693   24.1639 H   0  0  0  0  0  0
  -27.4588  -29.7649   25.4909 H   0  0  0  0  0  0
  -27.8856  -30.4469   23.9377 H   0  0  0  0  0  0
  -27.2534  -33.3799   26.2140 H   0  0  0  0  0  0
  -28.3813  -32.7293   25.0403 H   0  0  0  0  0  0
  -28.0820  -31.8816   26.5558 H   0  0  0  0  0  0
  -28.2610  -38.0147   24.7453 H   0  0  0  0  0  0
  -28.1072  -36.2683   24.6392 H   0  0  0  0  0  0
  -27.2267  -37.1510   25.8894 H   0  0  0  0  0  0
  -20.9485  -29.8219   21.6120 H   0  0  0  0  0  0
  -26.0118  -38.2787   24.1358 H   0  0  0  0  0  0
  -25.5219  -24.0547   19.6050 H   0  0  0  0  0  0
  -23.8746  -22.3369   17.9482 H   0  0  0  0  0  0
  -23.2967  -22.2486   19.6162 H   0  0  0  0  0  0
  -23.7086  -20.7654   18.7734 H   0  0  0  0  0  0
  -28.1970  -18.1957   23.2240 H   0  0  0  0  0  0
  -29.7260  -19.0684   23.2756 H   0  0  0  0  0  0
  -29.7158  -17.3139   23.3585 H   0  0  0  0  0  0
  -28.9896  -23.9662   19.6006 H   0  0  0  0  0  0
  -29.1000  -23.3540   21.2114 H   0  0  0  0  0  0
  -27.1943  -19.7364   21.7269 H   0  0  0  0  0  0
  -28.3798  -20.9317   22.1098 H   0  0  0  0  0  0
  -29.2240  -15.8629   19.5159 H   0  0  0  0  0  0
  -28.8969  -15.6243   21.2035 H   0  0  0  0  0  0
  -30.0246  -19.9937   20.6854 H   0  0  0  0  0  0
  -28.8548  -19.2365   19.6196 H   0  0  0  0  0  0
  -30.7240  -17.6018   19.8845 H   0  0  0  0  0  0
  -31.1640  -17.1208   21.4783 H   0  0  0  0  0  0
  -26.9491  -25.2566   21.3856 H   0  0  0  0  0  0
  -28.5205  -25.4651   21.9397 H   0  0  0  0  0  0
  -28.3829  -17.6530   21.1559 H   0  0  0  0  0  0
  1 25  1  0  0  0
  1 30  2  0  0  0
  1 78  1  0  0  0
  2  3  1  0  0  0
  2 25  1  0  0  0
  2 85  1  0  0  0
  2 86  1  0  0  0
  3  4  1  0  0  0
  3 87  1  0  0  0
  3 88  1  0  0  0
  4  5  1  0  0  0
  4 89  1  0  0  0
  4 90  1  0  0  0
  5  6  1  0  0  0
  5 26  1  0  0  0
  5 91  1  0  0  0
  6 25  1  0  0  0
  6 92  1  0  0  0
  6 93  1  0  0  0
  7  8  2  0  0  0
  7 26  1  0  0  0
  7 29  1  0  0  0
  8  9  1  0  0  0
  8 22  1  0  0  0
  9 10  1  0  0  0
  9 27  2  0  0  0
 10 11  2  0  0  0
 10 15  1  0  0  0
 11 12  1  0  0  0
 11 94  1  0  0  0
 12 13  2  0  0  0
 12 95  1  0  0  0
 13 14  1  0  0  0
 13 31  1  0  0  0
 14 15  2  0  0  0
 14 96  1  0  0  0
 15 97  1  0  0  0
 16 17  2  0  0  0
 16 21  1  0  0  0
 16 31  1  0  0  0
 17 18  1  0  0  0
 17 98  1  0  0  0
 18 19  2  0  0  0
 18 99  1  0  0  0
 19 20  1  0  0  0
 19 24  1  0  0  0
 20 21  2  0  0  0
 20100  1  0  0  0
 21 23  1  0  0  0
 22 28  1  0  0  0
 22 32  2  0  0  0
 26 27  1  0  0  0
 28101  1  0  0  0
 28102  1  0  0  0
 29103  1  0  0  0
 29104  1  0  0  0
 33 34  1  0  0  0
 33 66  1  0  0  0
 33 70  2  0  0  0
 34 36  1  0  0  0
 34 59  1  0  0  0
 34105  1  0  0  0
 35 44  2  0  0  0
 35 45  1  0  0  0
 35 68  1  0  0  0
 36 56  1  0  0  0
 36106  1  0  0  0
 37 39  1  0  0  0
 37 47  1  0  0  0
 37 66  1  0  0  0
 37107  1  0  0  0
 38 43  2  0  0  0
 38 46  1  0  0  0
 38 47  1  0  0  0
 39 64  1  0  0  0
 39 67  2  0  0  0
 40 52  1  0  0  0
 40 53  2  0  0  0
 40 58  1  0  0  0
 41108  1  0  0  0
 41109  1  0  0  0
 41110  1  0  0  0
 41 48  1  0  0  0
 42 43  1  0  0  0
 42 66  1  0  0  0
 42111  1  0  0  0
 42112  1  0  0  0
 43 44  1  0  0  0
 44113  1  0  0  0
 45 46  2  0  0  0
 45114  1  0  0  0
 46115  1  0  0  0
 47116  1  0  0  0
 47117  1  0  0  0
 48 56  1  0  0  0
 48 65  1  0  0  0
 48118  1  0  0  0
 49 50  1  0  0  0
 49 53  1  0  0  0
 49 64  1  0  0  0
 49119  1  0  0  0
 50 51  1  0  0  0
 50120  1  0  0  0
 50121  1  0  0  0
 51 52  1  0  0  0
 51122  1  0  0  0
 51123  1  0  0  0
 52124  1  0  0  0
 52125  1  0  0  0
 53 54  1  0  0  0
 54 55  2  0  0  0
 54126  1  0  0  0
 55 57  1  0  0  0
 55127  1  0  0  0
 56 69  2  0  0  0
 57 58  2  0  0  0
 57128  1  0  0  0
 58129  1  0  0  0
 59 60  1  0  0  0
 59 61  1  0  0  0
 59 62  1  0  0  0
 60130  1  0  0  0
 60131  1  0  0  0
 60132  1  0  0  0
 61133  1  0  0  0
 61134  1  0  0  0
 61135  1  0  0  0
 62136  1  0  0  0
 62137  1  0  0  0
 62138  1  0  0  0
 63 65  1  0  0  0
 63139  1  0  0  0
 63140  1  0  0  0
 63141  1  0  0  0
 64142  1  0  0  0
 65143  1  0  0  0
 68 81  1  0  0  0
 71 72  2  0  0  0
 71 83  1  0  0  0
 71144  1  0  0  0
 72 73  1  0  0  0
 72 76  1  0  0  0
 73 77  1  0  0  0
 73 82  2  0  0  0
 74 83  1  0  0  0
 74145  1  0  0  0
 74146  1  0  0  0
 74147  1  0  0  0
 75148  1  0  0  0
 75149  1  0  0  0
 75150  1  0  0  0
 75 84  1  0  0  0
 76 81  1  0  0  0
 76151  1  0  0  0
 76152  1  0  0  0
 77 79  1  0  0  0
 77153  1  0  0  0
 77154  1  0  0  0
 78 80  1  0  0  0
 78155  1  0  0  0
 78156  1  0  0  0
 79 84  1  0  0  0
 79157  1  0  0  0
 79158  1  0  0  0
 80 84  1  0  0  0
 80159  1  0  0  0
 80160  1  0  0  0
 81161  1  0  0  0
 81162  1  0  0  0
 82 83  1  0  0  0
 84163  1  0  0  0
M  CHG  1  84   1
M  ISO  4   1 100  68 101  78 100  81 101
M  END
> <chiral flag>
0

> <version>
0

> <s_m_source_file>
/data/baiqing/PycharmProjects/Reinvent-master-3.2/result/LINK_invent/BTK/process_docking_weight1_custom_sum_contain_oxygen_bond_distance_aromatic_linkinvent_7_9_3/rearranged_h_0050.sdf

> <i_m_source_file_index>
3

> <r_mmod_Potential_Energy-OPLS-2005>
-68.0085372924805

> <r_mmod_Stretch_Energy-OPLS-2005>
64.2030715942383

> <r_mmod_Bend_Energy-OPLS-2005>
132.411315917969

> <r_mmod_Torsional_Energy-OPLS-2005>
273.184112548828

> <r_mmod_Improper_Torsional_Energy-OPLS-2005>
9.75921535491943

> <r_mmod_Van_der_Waal_Energy-OPLS-2005>
122.520896911621

> <r_mmod_Electrostatic_Energy-OPLS-2005>
-260.844451904297

> <r_mmod_Solvation_Energy-OPLS-2005>
-459.848236083984

> <b_mmod_Minimization_Converged-OPLS-2005>
0

> <r_mmod_RMS_Derivative-OPLS-2005>
18.9893474578857

$$$$
3
                    3D
 Structure written by MMmdl.
161168  0  0  1  0            999 V2000
  -30.3359  -15.5830   20.3571 C   0  0  0  0  0  0
  -30.4298  -13.0325   19.5757 C   0  0  0  0  0  0
  -29.5606  -12.6574   18.3418 C   0  0  0  0  0  0
  -28.1349  -12.2925   18.7778 C   0  0  0  0  0  0
  -27.6058  -13.2985   19.8258 C   0  0  2  0  0  0
  -28.6121  -13.6099   20.9601 C   0  0  0  0  0  0
  -25.2371  -13.8244   20.5746 C   0  0  0  0  0  0
  -24.1719  -13.0419   20.9196 C   0  0  0  0  0  0
  -24.6404  -11.6912   20.8673 C   0  0  0  0  0  0
  -23.9090  -10.4273   21.0357 C   0  0  0  0  0  0
  -24.3617   -9.4196   21.9156 C   0  0  0  0  0  0
  -23.6264   -8.2254   22.0770 C   0  0  0  0  0  0
  -22.4253   -8.0284   21.3556 C   0  0  0  0  0  0
  -21.9876   -9.0263   20.4655 C   0  0  0  0  0  0
  -22.7237  -10.2127   20.3050 C   0  0  0  0  0  0
  -21.6868   -6.0731   22.5287 C   0  0  0  0  0  0
  -21.4032   -6.5641   23.8218 C   0  0  0  0  0  0
  -21.3653   -5.6796   24.9174 C   0  0  0  0  0  0
  -21.6035   -4.3060   24.7225 C   0  0  0  0  0  0
  -21.8813   -3.8147   23.4349 C   0  0  0  0  0  0
  -21.9191   -4.6958   22.3399 C   0  0  0  0  0  0
  -22.7754  -13.5188   21.1842 C   0  0  0  0  0  0
  -22.1657   -4.2149   21.0978 F   0  0  0  0  0  0
  -21.5596   -3.4532   25.7720 F   0  0  0  0  0  0
  -29.8136  -14.2166   20.3393 N   0  0  0  0  0  0
  -26.2812  -12.9550   20.3221 N   0  0  0  0  0  0
  -25.9358  -11.6626   20.5650 N   0  0  0  0  0  0
  -22.0401  -12.8214   22.0416 N   0  0  0  0  0  0
  -25.3949  -15.1989   20.4259 N   0  0  0  0  0  0
  -31.5289  -15.5410   20.0036 O   0  0  0  0  0  0
  -21.6646   -6.8863   21.4252 O   0  0  0  0  0  0
  -22.3411  -14.5484   20.6648 O   0  0  0  0  0  0
  -24.6773  -31.8065   23.1529 C   0  0  0  0  0  0
  -25.9395  -32.4507   23.8067 C   0  0  1  0  0  0
  -27.2238  -26.7537   20.2178 C   0  0  0  0  0  0
  -25.5992  -33.8319   24.1970 N   0  0  0  0  0  0
  -23.5019  -30.4089   21.5045 C   0  0  2  0  0  0
  -24.9606  -28.7572   20.1084 C   0  0  0  0  0  0
  -22.7748  -29.4345   22.4694 C   0  0  0  0  0  0
  -18.0350  -28.1432   22.8447 C   0  0  0  0  0  0
  -24.1496  -36.7179   23.2644 C   0  0  0  0  0  0
  -26.0797  -30.5527   21.4152 C   0  0  0  0  0  0
  -26.1426  -29.1250   20.7621 C   0  0  0  0  0  0
  -27.2565  -28.1446   20.7915 C   0  0  0  0  0  0
  -26.0213  -26.5846   19.4920 C   0  0  0  0  0  0
  -24.9357  -27.5131   19.4502 C   0  0  0  0  0  0
  -23.7547  -29.7058   20.1374 C   0  0  0  0  0  0
  -25.4147  -36.2934   24.0285 C   0  0  1  0  0  0
  -20.5985  -28.3793   23.1150 C   0  0  2  0  0  0
  -20.6818  -26.9449   22.5403 C   0  0  0  0  0  0
  -19.5793  -26.6370   21.5223 C   0  0  0  0  0  0
  -18.1975  -26.7955   22.1619 C   0  0  0  0  0  0
  -19.1612  -28.8932   23.2790 C   0  0  0  0  0  0
  -18.9509  -30.1512   23.8838 C   0  0  0  0  0  0
  -17.6500  -30.6603   24.0559 C   0  0  0  0  0  0
  -25.9118  -34.9318   23.4968 C   0  0  0  0  0  0
  -16.5394  -29.9088   23.6343 C   0  0  0  0  0  0
  -16.7329  -28.6512   23.0354 C   0  0  0  0  0  0
  -26.4582  -31.6520   25.0667 C   0  0  0  0  0  0
  -25.3641  -31.3862   26.1282 C   0  0  0  0  0  0
  -27.0461  -30.2843   24.6545 C   0  0  0  0  0  0
  -27.6072  -32.4354   25.7454 C   0  0  0  0  0  0
  -27.5588  -37.1739   24.8460 C   0  0  0  0  0  0
  -21.4398  -29.3041   22.3462 N   0  0  0  0  0  0
  -26.4298  -37.3682   23.9401 N   0  0  0  0  0  0
  -24.7755  -30.9556   22.0760 N   0  0  0  0  0  0
  -23.4219  -28.7950   23.3035 O   0  0  0  0  0  0
  -28.1979  -25.5750   20.3935 O   0  0  0  0  0  0
  -26.5751  -34.8878   22.4579 O   0  0  0  0  0  0
  -23.5806  -32.1124   23.6513 O   0  0  0  0  0  0
  -32.8785  -22.0583   19.3691 C   0  0  0  0  0  0
  -32.5891  -20.0693   20.8776 C   0  0  0  0  0  0
  -31.6219  -22.3126   21.5072 C   0  0  0  0  0  0
  -29.1135  -16.9730   22.0201 C   0  0  0  0  0  0
  -28.4294  -22.0979   20.5859 C   0  0  0  0  0  0
  -30.6208  -20.9472   19.5663 C   0  0  0  0  0  0
  -29.1996  -18.5587   20.0384 C   0  0  0  0  0  0
  -28.3570  -23.9010   19.9433 C   0  0  0  0  0  0
  -29.4047  -20.4461   20.3957 C   0  0  2  0  0  0
  -31.9100  -21.3428   20.3405 C   0  0  0  0  0  0
  -29.6206  -16.9450   20.6475 N   0  0  0  0  0  0
  -31.4341  -13.2659   19.2233 H   0  0  0  0  0  0
  -30.5605  -12.1703   20.2338 H   0  0  0  0  0  0
  -30.0160  -11.8365   17.7871 H   0  0  0  0  0  0
  -29.5197  -13.5069   17.6602 H   0  0  0  0  0  0
  -28.1705  -11.2939   19.2181 H   0  0  0  0  0  0
  -27.4696  -12.2325   17.9166 H   0  0  0  0  0  0
  -27.4830  -14.2302   19.2722 H   0  0  0  0  0  0
  -28.8511  -12.7195   21.5429 H   0  0  0  0  0  0
  -28.1649  -14.3164   21.6595 H   0  0  0  0  0  0
  -25.2767   -9.5681   22.4703 H   0  0  0  0  0  0
  -23.9969   -7.4670   22.7520 H   0  0  0  0  0  0
  -21.0793   -8.8797   19.8966 H   0  0  0  0  0  0
  -22.3697  -10.9657   19.6152 H   0  0  0  0  0  0
  -21.2090   -7.6166   23.9716 H   0  0  0  0  0  0
  -21.1443   -6.0532   25.9077 H   0  0  0  0  0  0
  -22.0592   -2.7608   23.2858 H   0  0  0  0  0  0
  -22.4043  -11.9942   22.4900 H   0  0  0  0  0  0
  -21.1015  -13.1272   22.2576 H   0  0  0  0  0  0
  -24.6121  -15.8336   20.5386 H   0  0  0  0  0  0
  -26.2400  -15.6559   20.1071 H   0  0  0  0  0  0
  -26.7470  -32.4981   23.0772 H   0  0  0  0  0  0
  -25.0044  -33.9353   25.0062 H   0  0  0  0  0  0
  -22.8275  -31.2456   21.3168 H   0  0  0  0  0  0
  -23.3788  -35.9481   23.3259 H   0  0  0  0  0  0
  -24.3567  -36.8879   22.2067 H   0  0  0  0  0  0
  -23.7217  -37.6331   23.6743 H   0  0  0  0  0  0
  -26.2843  -31.2807   20.6296 H   0  0  0  0  0  0
  -26.9319  -30.6164   22.0781 H   0  0  0  0  0  0
  -28.1373  -28.4183   21.3545 H   0  0  0  0  0  0
  -25.8691  -25.6363   18.9929 H   0  0  0  0  0  0
  -24.0427  -27.2287   18.9130 H   0  0  0  0  0  0
  -23.9266  -30.4660   19.3767 H   0  0  0  0  0  0
  -22.8592  -29.1707   19.8136 H   0  0  0  0  0  0
  -25.1349  -36.1723   25.0780 H   0  0  0  0  0  0
  -21.0084  -28.3428   24.1276 H   0  0  0  0  0  0
  -20.5704  -26.2404   23.3662 H   0  0  0  0  0  0
  -21.6678  -26.7394   22.1218 H   0  0  0  0  0  0
  -19.6946  -25.6258   21.1293 H   0  0  0  0  0  0
  -19.6738  -27.3138   20.6723 H   0  0  0  0  0  0
  -17.4240  -26.6705   21.4033 H   0  0  0  0  0  0
  -18.0368  -26.0136   22.9044 H   0  0  0  0  0  0
  -19.7979  -30.7360   24.2191 H   0  0  0  0  0  0
  -17.5036  -31.6276   24.5171 H   0  0  0  0  0  0
  -15.5389  -30.2967   23.7698 H   0  0  0  0  0  0
  -15.8732  -28.0809   22.7100 H   0  0  0  0  0  0
  -24.5797  -30.7269   25.7554 H   0  0  0  0  0  0
  -24.8854  -32.3086   26.4568 H   0  0  0  0  0  0
  -25.7771  -30.9064   27.0156 H   0  0  0  0  0  0
  -26.3122  -29.6487   24.1570 H   0  0  0  0  0  0
  -27.3907  -29.7297   25.5286 H   0  0  0  0  0  0
  -27.9128  -30.3951   24.0027 H   0  0  0  0  0  0
  -27.2666  -33.3731   26.1860 H   0  0  0  0  0  0
  -28.3947  -32.6792   25.0309 H   0  0  0  0  0  0
  -28.0673  -31.8585   26.5485 H   0  0  0  0  0  0
  -28.2583  -38.0062   24.7530 H   0  0  0  0  0  0
  -28.1114  -36.2586   24.6271 H   0  0  0  0  0  0
  -27.2302  -37.1353   25.8864 H   0  0  0  0  0  0
  -20.9707  -29.8671   21.6494 H   0  0  0  0  0  0
  -26.0144  -38.2742   24.1416 H   0  0  0  0  0  0
  -33.8601  -22.2135   19.8203 H   0  0  0  0  0  0
  -32.5042  -23.0440   19.0815 H   0  0  0  0  0  0
  -33.0380  -21.4910   18.4524 H   0  0  0  0  0  0
  -33.4825  -20.3106   21.4531 H   0  0  0  0  0  0
  -32.8908  -19.4058   20.0655 H   0  0  0  0  0  0
  -31.9217  -19.4987   21.5253 H   0  0  0  0  0  0
  -32.5462  -22.7002   21.9363 H   0  0  0  0  0  0
  -31.0830  -21.8314   22.3231 H   0  0  0  0  0  0
  -31.0327  -23.1720   21.1854 H   0  0  0  0  0  0
  -29.3882  -17.9118   22.5038 H   0  0  0  0  0  0
  -29.5133  -16.1769   22.6535 H   0  0  0  0  0  0
  -28.0268  -16.8904   22.0317 H   0  0  0  0  0  0
  -27.3858  -21.7983   20.6863 H   0  0  0  0  0  0
  -28.6896  -22.3214   21.6211 H   0  0  0  0  0  0
  -30.2933  -21.8173   18.9954 H   0  0  0  0  0  0
  -30.8718  -20.2257   18.7893 H   0  0  0  0  0  0
  -29.4703  -18.4649   18.9872 H   0  0  0  0  0  0
  -28.1126  -18.4703   19.9909 H   0  0  0  0  0  0
  -27.7823  -23.8326   19.0207 H   0  0  0  0  0  0
  -29.3837  -23.9778   19.5897 H   0  0  0  0  0  0
  -29.7328  -20.3289   21.4259 H   0  0  0  0  0  0
  1 25  1  0  0  0
  1 30  2  0  0  0
  1 81  1  0  0  0
  2  3  1  0  0  0
  2 25  1  0  0  0
  2 82  1  0  0  0
  2 83  1  0  0  0
  3  4  1  0  0  0
  3 84  1  0  0  0
  3 85  1  0  0  0
  4  5  1  0  0  0
  4 86  1  0  0  0
  4 87  1  0  0  0
  5  6  1  0  0  0
  5 26  1  0  0  0
  5 88  1  0  0  0
  6 25  1  0  0  0
  6 89  1  0  0  0
  6 90  1  0  0  0
  7  8  2  0  0  0
  7 26  1  0  0  0
  7 29  1  0  0  0
  8  9  1  0  0  0
  8 22  1  0  0  0
  9 10  1  0  0  0
  9 27  2  0  0  0
 10 11  2  0  0  0
 10 15  1  0  0  0
 11 12  1  0  0  0
 11 91  1  0  0  0
 12 13  2  0  0  0
 12 92  1  0  0  0
 13 14  1  0  0  0
 13 31  1  0  0  0
 14 15  2  0  0  0
 14 93  1  0  0  0
 15 94  1  0  0  0
 16 17  2  0  0  0
 16 21  1  0  0  0
 16 31  1  0  0  0
 17 18  1  0  0  0
 17 95  1  0  0  0
 18 19  2  0  0  0
 18 96  1  0  0  0
 19 20  1  0  0  0
 19 24  1  0  0  0
 20 21  2  0  0  0
 20 97  1  0  0  0
 21 23  1  0  0  0
 22 28  1  0  0  0
 22 32  2  0  0  0
 26 27  1  0  0  0
 28 98  1  0  0  0
 28 99  1  0  0  0
 29100  1  0  0  0
 29101  1  0  0  0
 33 34  1  0  0  0
 33 66  1  0  0  0
 33 70  2  0  0  0
 34 36  1  0  0  0
 34 59  1  0  0  0
 34102  1  0  0  0
 35 44  2  0  0  0
 35 45  1  0  0  0
 35 68  1  0  0  0
 36 56  1  0  0  0
 36103  1  0  0  0
 37 39  1  0  0  0
 37 47  1  0  0  0
 37 66  1  0  0  0
 37104  1  0  0  0
 38 43  2  0  0  0
 38 46  1  0  0  0
 38 47  1  0  0  0
 39 64  1  0  0  0
 39 67  2  0  0  0
 40 52  1  0  0  0
 40 53  2  0  0  0
 40 58  1  0  0  0
 41105  1  0  0  0
 41106  1  0  0  0
 41107  1  0  0  0
 41 48  1  0  0  0
 42 43  1  0  0  0
 42 66  1  0  0  0
 42108  1  0  0  0
 42109  1  0  0  0
 43 44  1  0  0  0
 44110  1  0  0  0
 45 46  2  0  0  0
 45111  1  0  0  0
 46112  1  0  0  0
 47113  1  0  0  0
 47114  1  0  0  0
 48 56  1  0  0  0
 48 65  1  0  0  0
 48115  1  0  0  0
 49 50  1  0  0  0
 49 53  1  0  0  0
 49 64  1  0  0  0
 49116  1  0  0  0
 50 51  1  0  0  0
 50117  1  0  0  0
 50118  1  0  0  0
 51 52  1  0  0  0
 51119  1  0  0  0
 51120  1  0  0  0
 52121  1  0  0  0
 52122  1  0  0  0
 53 54  1  0  0  0
 54 55  2  0  0  0
 54123  1  0  0  0
 55 57  1  0  0  0
 55124  1  0  0  0
 56 69  2  0  0  0
 57 58  2  0  0  0
 57125  1  0  0  0
 58126  1  0  0  0
 59 60  1  0  0  0
 59 61  1  0  0  0
 59 62  1  0  0  0
 60127  1  0  0  0
 60128  1  0  0  0
 60129  1  0  0  0
 61130  1  0  0  0
 61131  1  0  0  0
 61132  1  0  0  0
 62133  1  0  0  0
 62134  1  0  0  0
 62135  1  0  0  0
 63 65  1  0  0  0
 63136  1  0  0  0
 63137  1  0  0  0
 63138  1  0  0  0
 64139  1  0  0  0
 65140  1  0  0  0
 68 78  1  0  0  0
 71141  1  0  0  0
 71142  1  0  0  0
 71143  1  0  0  0
 71 80  1  0  0  0
 72 80  1  0  0  0
 72144  1  0  0  0
 72145  1  0  0  0
 72146  1  0  0  0
 73 80  1  0  0  0
 73147  1  0  0  0
 73148  1  0  0  0
 73149  1  0  0  0
 74 81  1  0  0  0
 74150  1  0  0  0
 74151  1  0  0  0
 74152  1  0  0  0
 75 78  1  0  0  0
 75153  1  0  0  0
 75154  1  0  0  0
 75 79  1  0  0  0
 76 79  1  0  0  0
 76 80  1  0  0  0
 76155  1  0  0  0
 76156  1  0  0  0
 77 79  1  0  0  0
 77 81  1  0  0  0
 77157  1  0  0  0
 77158  1  0  0  0
 78159  1  0  0  0
 78160  1  0  0  0
 79161  1  0  0  0
M  ISO  4   1 100  68 101  78 101  81 100
M  END
> <chiral flag>
0

> <version>
0

> <s_m_source_file>
/data/baiqing/PycharmProjects/Reinvent-master-3.2/result/LINK_invent/BTK/process_docking_weight1_custom_sum_contain_oxygen_bond_distance_aromatic_linkinvent_7_9_3/rearranged_h_0050.sdf

> <i_m_source_file_index>
4

> <r_mmod_Potential_Energy-OPLS-2005>
2661.51440429688

> <r_mmod_Stretch_Energy-OPLS-2005>
1118.53076171875

> <r_mmod_Bend_Energy-OPLS-2005>
749.742919921875

> <r_mmod_Torsional_Energy-OPLS-2005>
346.662872314453

> <r_mmod_Improper_Torsional_Energy-OPLS-2005>
2.20812344551086

> <r_mmod_Van_der_Waal_Energy-OPLS-2005>
111.320419311523

> <r_mmod_Electrostatic_Energy-OPLS-2005>
-294.115997314453

> <r_mmod_Solvation_Energy-OPLS-2005>
-188.384399414062

> <b_mmod_Minimization_Converged-OPLS-2005>
0

> <r_mmod_RMS_Derivative-OPLS-2005>
4.50408792495728

$$$$
4
                    3D
 Structure written by MMmdl.
161169  0  0  1  0            999 V2000
  -30.6498  -14.5759   20.5768 C   0  0  0  0  0  0
  -30.4394  -12.3689   19.4372 C   0  0  0  0  0  0
  -29.5027  -12.5108   18.2164 C   0  0  0  0  0  0
  -28.0256  -12.3486   18.6284 C   0  0  0  0  0  0
  -27.6570  -13.2088   19.8652 C   0  0  2  0  0  0
  -28.7008  -13.0333   20.9902 C   0  0  0  0  0  0
  -25.2574  -13.8158   20.5678 C   0  0  0  0  0  0
  -24.1830  -13.0438   20.9183 C   0  0  0  0  0  0
  -24.6383  -11.6907   20.8731 C   0  0  0  0  0  0
  -23.9048  -10.4293   21.0399 C   0  0  0  0  0  0
  -24.3603   -9.4216   21.9177 C   0  0  0  0  0  0
  -23.6287   -8.2250   22.0750 C   0  0  0  0  0  0
  -22.4272   -8.0276   21.3542 C   0  0  0  0  0  0
  -21.9901   -9.0248   20.4645 C   0  0  0  0  0  0
  -22.7221  -10.2133   20.3049 C   0  0  0  0  0  0
  -21.6856   -6.0735   22.5278 C   0  0  0  0  0  0
  -21.4018   -6.5640   23.8212 C   0  0  0  0  0  0
  -21.3659   -5.6793   24.9175 C   0  0  0  0  0  0
  -21.6041   -4.3056   24.7228 C   0  0  0  0  0  0
  -21.8823   -3.8144   23.4352 C   0  0  0  0  0  0
  -21.9198   -4.6962   22.3401 C   0  0  0  0  0  0
  -22.7855  -13.5242   21.1860 C   0  0  0  0  0  0
  -22.1666   -4.2147   21.0976 F   0  0  0  0  0  0
  -21.5629   -3.4534   25.7741 F   0  0  0  0  0  0
  -30.0258  -13.3649   20.4427 N   0  0  0  0  0  0
  -26.3000  -12.9328   20.3322 N   0  0  0  0  0  0
  -25.9305  -11.6495   20.5749 N   0  0  0  0  0  0
  -22.0493  -12.8228   22.0411 N   0  0  0  0  0  0
  -25.4308  -15.1874   20.4086 N   0  0  0  0  0  0
  -31.7749  -14.7726   20.1079 O   0  0  0  0  0  0
  -21.6645   -6.8874   21.4240 O   0  0  0  0  0  0
  -22.3551  -14.5554   20.6712 O   0  0  0  0  0  0
  -24.6217  -31.8626   23.2033 C   0  0  0  0  0  0
  -25.9080  -32.4796   23.8356 C   0  0  1  0  0  0
  -27.2359  -27.3750   20.1196 C   0  0  0  0  0  0
  -25.5918  -33.8598   24.2287 N   0  0  0  0  0  0
  -23.4129  -30.4850   21.5429 C   0  0  2  0  0  0
  -24.8639  -28.9377   20.1178 C   0  0  0  0  0  0
  -22.7446  -29.4650   22.4940 C   0  0  0  0  0  0
  -18.0282  -28.1385   22.8488 C   0  0  0  0  0  0
  -24.1489  -36.7301   23.2640 C   0  0  0  0  0  0
  -25.9484  -30.8103   21.3674 C   0  0  0  0  0  0
  -26.0271  -29.4372   20.7204 C   0  0  0  0  0  0
  -27.2196  -28.6663   20.7153 C   0  0  0  0  0  0
  -26.0585  -26.9033   19.5080 C   0  0  0  0  0  0
  -24.8781  -27.6724   19.5057 C   0  0  0  0  0  0
  -23.6274  -29.8109   20.1610 C   0  0  0  0  0  0
  -25.4112  -36.3101   24.0327 C   0  0  1  0  0  0
  -20.5877  -28.3680   23.1285 C   0  0  2  0  0  0
  -20.6777  -26.9399   22.5417 C   0  0  0  0  0  0
  -19.5753  -26.6380   21.5229 C   0  0  0  0  0  0
  -18.1921  -26.7935   22.1612 C   0  0  0  0  0  0
  -19.1531  -28.8849   23.2882 C   0  0  0  0  0  0
  -18.9463  -30.1454   23.8891 C   0  0  0  0  0  0
  -17.6459  -30.6585   24.0571 C   0  0  0  0  0  0
  -25.9040  -34.9465   23.5099 C   0  0  0  0  0  0
  -16.5352  -29.9085   23.6332 C   0  0  0  0  0  0
  -16.7268  -28.6505   23.0356 C   0  0  0  0  0  0
  -26.4474  -31.6610   25.0720 C   0  0  0  0  0  0
  -25.3721  -31.3752   26.1468 C   0  0  0  0  0  0
  -27.0329  -30.3050   24.6160 C   0  0  0  0  0  0
  -27.6033  -32.4360   25.7490 C   0  0  0  0  0  0
  -27.5571  -37.1818   24.8470 C   0  0  0  0  0  0
  -21.4167  -29.3045   22.3687 N   0  0  0  0  0  0
  -26.4285  -37.3801   23.9409 N   0  0  0  0  0  0
  -24.6787  -31.0699   22.0936 N   0  0  0  0  0  0
  -23.4202  -28.8175   23.2980 O   0  0  0  0  0  0
  -28.3595  -26.5610   20.0808 O   0  0  0  0  0  0
  -26.5605  -34.8923   22.4668 O   0  0  0  0  0  0
  -23.5402  -32.1369   23.7420 O   0  0  0  0  0  0
  -29.6226  -23.1858   20.8187 C   0  0  0  0  0  0
  -28.5747  -24.0957   20.8373 C   0  0  0  0  0  0
  -27.7673  -21.9939   20.7018 C   0  0  0  0  0  0
  -26.7593  -20.8910   20.7072 C   0  0  0  0  0  0
  -31.7998  -18.5158   19.6197 C   0  0  0  0  0  0
  -28.4948  -25.5997   21.1632 C   0  0  0  0  0  0
  -29.8759  -15.7822   21.2157 C   0  0  0  0  0  0
  -29.9015  -20.6042   20.9489 C   0  0  0  0  0  0
  -30.5362  -17.2161   21.3195 C   0  0  0  0  0  0
  -29.4840  -19.2936   20.1603 C   0  0  0  0  0  0
  -29.1102  -21.8918   20.7680 N   0  0  0  0  0  0
  -27.4585  -23.3049   20.7085 N   0  3  0  0  0  0
  -30.4563  -18.1284   20.1172 N   0  3  1  0  0  0
  -31.4798  -12.4964   19.1318 H   0  0  0  0  0  0
  -30.3729  -11.3638   19.8571 H   0  0  0  0  0  0
  -29.7598  -11.7699   17.4583 H   0  0  0  0  0  0
  -29.6488  -13.4882   17.7525 H   0  0  0  0  0  0
  -27.8577  -11.2943   18.8493 H   0  0  0  0  0  0
  -27.3695  -12.5893   17.7902 H   0  0  0  0  0  0
  -27.6849  -14.2479   19.5372 H   0  0  0  0  0  0
  -28.6984  -12.0040   21.3518 H   0  0  0  0  0  0
  -28.4403  -13.6443   21.8544 H   0  0  0  0  0  0
  -25.2753   -9.5708   22.4747 H   0  0  0  0  0  0
  -24.0011   -7.4647   22.7467 H   0  0  0  0  0  0
  -21.0836   -8.8752   19.8951 H   0  0  0  0  0  0
  -22.3667  -10.9664   19.6153 H   0  0  0  0  0  0
  -21.2007   -7.6150   23.9718 H   0  0  0  0  0  0
  -21.1474   -6.0520   25.9079 H   0  0  0  0  0  0
  -22.0601   -2.7605   23.2847 H   0  0  0  0  0  0
  -22.4105  -11.9878   22.4780 H   0  0  0  0  0  0
  -21.1109  -13.1253   22.2614 H   0  0  0  0  0  0
  -24.6640  -15.8435   20.5124 H   0  0  0  0  0  0
  -26.2799  -15.6221   20.0704 H   0  0  0  0  0  0
  -26.7129  -32.5496   23.1096 H   0  0  0  0  0  0
  -25.0146  -33.9744   25.0487 H   0  0  0  0  0  0
  -22.7073  -31.3050   21.3963 H   0  0  0  0  0  0
  -23.3746  -35.9641   23.3334 H   0  0  0  0  0  0
  -24.3584  -36.8896   22.2052 H   0  0  0  0  0  0
  -23.7231  -37.6500   23.6646 H   0  0  0  0  0  0
  -26.0781  -31.5712   20.5963 H   0  0  0  0  0  0
  -26.8309  -30.8592   21.9951 H   0  0  0  0  0  0
  -28.1182  -29.0551   21.1756 H   0  0  0  0  0  0
  -26.0581  -25.9307   19.0377 H   0  0  0  0  0  0
  -23.9862  -27.2816   19.0356 H   0  0  0  0  0  0
  -23.7433  -30.5832   19.4010 H   0  0  0  0  0  0
  -22.7514  -29.2353   19.8574 H   0  0  0  0  0  0
  -25.1298  -36.1946   25.0814 H   0  0  0  0  0  0
  -20.9970  -28.3262   24.1413 H   0  0  0  0  0  0
  -20.5702  -26.2284   23.3623 H   0  0  0  0  0  0
  -21.6637  -26.7458   22.1189 H   0  0  0  0  0  0
  -19.6915  -25.6304   21.1245 H   0  0  0  0  0  0
  -19.6696  -27.3202   20.6769 H   0  0  0  0  0  0
  -17.4205  -26.6704   21.4001 H   0  0  0  0  0  0
  -18.0280  -26.0077   22.9003 H   0  0  0  0  0  0
  -19.7944  -30.7278   24.2252 H   0  0  0  0  0  0
  -17.5023  -31.6276   24.5172 H   0  0  0  0  0  0
  -15.5346  -30.2999   23.7679 H   0  0  0  0  0  0
  -15.8667  -28.0840   22.7076 H   0  0  0  0  0  0
  -24.5892  -30.7086   25.7816 H   0  0  0  0  0  0
  -24.8908  -32.2931   26.4873 H   0  0  0  0  0  0
  -25.8066  -30.8955   27.0256 H   0  0  0  0  0  0
  -26.2891  -29.6800   24.1207 H   0  0  0  0  0  0
  -27.4068  -29.7310   25.4647 H   0  0  0  0  0  0
  -27.8741  -30.4351   23.9346 H   0  0  0  0  0  0
  -27.2624  -33.3684   26.2017 H   0  0  0  0  0  0
  -28.3871  -32.6904   25.0333 H   0  0  0  0  0  0
  -28.0666  -31.8520   26.5459 H   0  0  0  0  0  0
  -28.2619  -38.0091   24.7521 H   0  0  0  0  0  0
  -28.1039  -36.2635   24.6299 H   0  0  0  0  0  0
  -27.2305  -37.1468   25.8877 H   0  0  0  0  0  0
  -20.9330  -29.8785   21.6925 H   0  0  0  0  0  0
  -26.0175  -38.2880   24.1412 H   0  0  0  0  0  0
  -30.6827  -23.3715   20.9306 H   0  0  0  0  0  0
  -26.9818  -20.2223   21.5395 H   0  0  0  0  0  0
  -26.8074  -20.3622   19.7553 H   0  0  0  0  0  0
  -25.7649  -21.3169   20.8432 H   0  0  0  0  0  0
  -32.3742  -17.6336   19.3353 H   0  0  0  0  0  0
  -32.3682  -19.0512   20.3821 H   0  0  0  0  0  0
  -31.7312  -19.1545   18.7387 H   0  0  0  0  0  0
  -29.4039  -25.8631   21.7048 H   0  0  0  0  0  0
  -27.6905  -25.7375   21.8887 H   0  0  0  0  0  0
  -28.8923  -15.8726   20.7569 H   0  0  0  0  0  0
  -29.6927  -15.4736   22.2454 H   0  0  0  0  0  0
  -30.9304  -20.8613   20.7050 H   0  0  0  0  0  0
  -29.8973  -20.3880   22.0171 H   0  0  0  0  0  0
  -31.5766  -17.0919   21.6248 H   0  0  0  0  0  0
  -30.0787  -17.7410   22.1587 H   0  0  0  0  0  0
  -29.2955  -19.5762   19.1227 H   0  0  0  0  0  0
  -28.5371  -18.9025   20.5287 H   0  0  0  0  0  0
  -26.5107  -23.6586   20.7180 H   0  0  0  0  0  0
  -30.0929  -17.5407   19.3823 H   0  0  0  0  0  0
  1 25  1  0  0  0
  1 30  2  0  0  0
  1 77  1  0  0  0
  2  3  1  0  0  0
  2 25  1  0  0  0
  2 84  1  0  0  0
  2 85  1  0  0  0
  3  4  1  0  0  0
  3 86  1  0  0  0
  3 87  1  0  0  0
  4  5  1  0  0  0
  4 88  1  0  0  0
  4 89  1  0  0  0
  5  6  1  0  0  0
  5 26  1  0  0  0
  5 90  1  0  0  0
  6 25  1  0  0  0
  6 91  1  0  0  0
  6 92  1  0  0  0
  7  8  2  0  0  0
  7 26  1  0  0  0
  7 29  1  0  0  0
  8  9  1  0  0  0
  8 22  1  0  0  0
  9 10  1  0  0  0
  9 27  2  0  0  0
 10 11  2  0  0  0
 10 15  1  0  0  0
 11 12  1  0  0  0
 11 93  1  0  0  0
 12 13  2  0  0  0
 12 94  1  0  0  0
 13 14  1  0  0  0
 13 31  1  0  0  0
 14 15  2  0  0  0
 14 95  1  0  0  0
 15 96  1  0  0  0
 16 17  2  0  0  0
 16 21  1  0  0  0
 16 31  1  0  0  0
 17 18  1  0  0  0
 17 97  1  0  0  0
 18 19  2  0  0  0
 18 98  1  0  0  0
 19 20  1  0  0  0
 19 24  1  0  0  0
 20 21  2  0  0  0
 20 99  1  0  0  0
 21 23  1  0  0  0
 22 28  1  0  0  0
 22 32  2  0  0  0
 26 27  1  0  0  0
 28100  1  0  0  0
 28101  1  0  0  0
 29102  1  0  0  0
 29103  1  0  0  0
 33 34  1  0  0  0
 33 66  1  0  0  0
 33 70  2  0  0  0
 34 36  1  0  0  0
 34 59  1  0  0  0
 34104  1  0  0  0
 35 44  2  0  0  0
 35 45  1  0  0  0
 35 68  1  0  0  0
 36 56  1  0  0  0
 36105  1  0  0  0
 37 39  1  0  0  0
 37 47  1  0  0  0
 37 66  1  0  0  0
 37106  1  0  0  0
 38 43  2  0  0  0
 38 46  1  0  0  0
 38 47  1  0  0  0
 39 64  1  0  0  0
 39 67  2  0  0  0
 40 52  1  0  0  0
 40 53  2  0  0  0
 40 58  1  0  0  0
 41107  1  0  0  0
 41108  1  0  0  0
 41109  1  0  0  0
 41 48  1  0  0  0
 42 43  1  0  0  0
 42 66  1  0  0  0
 42110  1  0  0  0
 42111  1  0  0  0
 43 44  1  0  0  0
 44112  1  0  0  0
 45 46  2  0  0  0
 45113  1  0  0  0
 46114  1  0  0  0
 47115  1  0  0  0
 47116  1  0  0  0
 48 56  1  0  0  0
 48 65  1  0  0  0
 48117  1  0  0  0
 49 50  1  0  0  0
 49 53  1  0  0  0
 49 64  1  0  0  0
 49118  1  0  0  0
 50 51  1  0  0  0
 50119  1  0  0  0
 50120  1  0  0  0
 51 52  1  0  0  0
 51121  1  0  0  0
 51122  1  0  0  0
 52123  1  0  0  0
 52124  1  0  0  0
 53 54  1  0  0  0
 54 55  2  0  0  0
 54125  1  0  0  0
 55 57  1  0  0  0
 55126  1  0  0  0
 56 69  2  0  0  0
 57 58  2  0  0  0
 57127  1  0  0  0
 58128  1  0  0  0
 59 60  1  0  0  0
 59 61  1  0  0  0
 59 62  1  0  0  0
 60129  1  0  0  0
 60130  1  0  0  0
 60131  1  0  0  0
 61132  1  0  0  0
 61133  1  0  0  0
 61134  1  0  0  0
 62135  1  0  0  0
 62136  1  0  0  0
 62137  1  0  0  0
 63 65  1  0  0  0
 63138  1  0  0  0
 63139  1  0  0  0
 63140  1  0  0  0
 64141  1  0  0  0
 65142  1  0  0  0
 68 76  1  0  0  0
 71 72  2  0  0  0
 71 81  1  0  0  0
 71143  1  0  0  0
 72 76  1  0  0  0
 72 82  1  0  0  0
 73 74  1  0  0  0
 73 81  1  0  0  0
 73 82  2  0  0  0
 74144  1  0  0  0
 74145  1  0  0  0
 74146  1  0  0  0
 75147  1  0  0  0
 75148  1  0  0  0
 75149  1  0  0  0
 75 83  1  0  0  0
 76150  1  0  0  0
 76151  1  0  0  0
 77 79  1  0  0  0
 77152  1  0  0  0
 77153  1  0  0  0
 78 80  1  0  0  0
 78 81  1  0  0  0
 78154  1  0  0  0
 78155  1  0  0  0
 79 83  1  0  0  0
 79156  1  0  0  0
 79157  1  0  0  0
 80 83  1  0  0  0
 80158  1  0  0  0
 80159  1  0  0  0
 82160  1  0  0  0
 83161  1  0  0  0
M  CHG  2  82   1  83   1
M  ISO  4   1 100  68 101  76 101  77 100
M  END
> <chiral flag>
0

> <version>
0

> <s_m_source_file>
/data/baiqing/PycharmProjects/Reinvent-master-3.2/result/LINK_invent/BTK/process_docking_weight1_custom_sum_contain_oxygen_bond_distance_aromatic_linkinvent_7_9_3/rearranged_h_0050.sdf

> <i_m_source_file_index>
5

> <r_mmod_Potential_Energy-OPLS-2005>
-213.947463989258

> <r_mmod_Stretch_Energy-OPLS-2005>
62.6829376220703

> <r_mmod_Bend_Energy-OPLS-2005>
135.289886474609

> <r_mmod_Torsional_Energy-OPLS-2005>
230.863754272461

> <r_mmod_Improper_Torsional_Energy-OPLS-2005>
4.83460378646851

> <r_mmod_Van_der_Waal_Energy-OPLS-2005>
114.440284729004

> <r_mmod_Electrostatic_Energy-OPLS-2005>
102.74543762207

> <r_mmod_Solvation_Energy-OPLS-2005>
-892.387939453125

> <b_mmod_Minimization_Converged-OPLS-2005>
0

> <r_mmod_RMS_Derivative-OPLS-2005>
2.80373072624207

$$$$
5
                    3D
 Structure written by MMmdl.
166174  0  0  1  0            999 V2000
  -30.7622  -14.4638   20.6157 C   0  0  0  0  0  0
  -30.4039  -12.3101   19.4513 C   0  0  0  0  0  0
  -29.5084  -12.5279   18.2188 C   0  0  0  0  0  0
  -28.0270  -12.3777   18.6090 C   0  0  0  0  0  0
  -27.6563  -13.2200   19.8596 C   0  0  2  0  0  0
  -28.6857  -13.0404   20.9961 C   0  0  0  0  0  0
  -25.2557  -13.8178   20.5627 C   0  0  0  0  0  0
  -24.1844  -13.0438   20.9176 C   0  0  0  0  0  0
  -24.6424  -11.6907   20.8694 C   0  0  0  0  0  0
  -23.9086  -10.4294   21.0383 C   0  0  0  0  0  0
  -24.3625   -9.4210   21.9168 C   0  0  0  0  0  0
  -23.6315   -8.2223   22.0744 C   0  0  0  0  0  0
  -22.4294   -8.0262   21.3546 C   0  0  0  0  0  0
  -21.9933   -9.0228   20.4641 C   0  0  0  0  0  0
  -22.7238  -10.2112   20.3048 C   0  0  0  0  0  0
  -21.6831   -6.0764   22.5301 C   0  0  0  0  0  0
  -21.3993   -6.5674   23.8235 C   0  0  0  0  0  0
  -21.3660   -5.6808   24.9194 C   0  0  0  0  0  0
  -21.6041   -4.3068   24.7217 C   0  0  0  0  0  0
  -21.8811   -3.8181   23.4329 C   0  0  0  0  0  0
  -21.9179   -4.7006   22.3407 C   0  0  0  0  0  0
  -22.7868  -13.5246   21.1859 C   0  0  0  0  0  0
  -22.1643   -4.2210   21.0971 F   0  0  0  0  0  0
  -21.5642   -3.4534   25.7715 F   0  0  0  0  0  0
  -30.0311  -13.3166   20.4644 N   0  0  0  0  0  0
  -26.2986  -12.9363   20.3218 N   0  0  0  0  0  0
  -25.9339  -11.6521   20.5669 N   0  0  0  0  0  0
  -22.0468  -12.8254   22.0387 N   0  0  0  0  0  0
  -25.4281  -15.1887   20.4082 N   0  0  0  0  0  0
  -31.8179  -14.6385   20.0011 O   0  0  0  0  0  0
  -21.6639   -6.8870   21.4248 O   0  0  0  0  0  0
  -22.3568  -14.5548   20.6681 O   0  0  0  0  0  0
  -24.6200  -31.8665   23.2098 C   0  0  0  0  0  0
  -25.9076  -32.4810   23.8392 C   0  0  1  0  0  0
  -27.2148  -27.3891   20.0978 C   0  0  0  0  0  0
  -25.5924  -33.8613   24.2336 N   0  0  0  0  0  0
  -23.4073  -30.4930   21.5544 C   0  0  2  0  0  0
  -24.8482  -28.9630   20.1123 C   0  0  0  0  0  0
  -22.7441  -29.4641   22.4999 C   0  0  0  0  0  0
  -18.0269  -28.1366   22.8506 C   0  0  0  0  0  0
  -24.1486  -36.7309   23.2636 C   0  0  0  0  0  0
  -25.9413  -30.8193   21.3672 C   0  0  0  0  0  0
  -26.0150  -29.4519   20.7136 C   0  0  0  0  0  0
  -27.2007  -28.6715   20.7080 C   0  0  0  0  0  0
  -26.0285  -26.9461   19.4628 C   0  0  0  0  0  0
  -24.8529  -27.7102   19.4836 C   0  0  0  0  0  0
  -23.6151  -29.8349   20.1657 C   0  0  0  0  0  0
  -25.4103  -36.3110   24.0349 C   0  0  1  0  0  0
  -20.5870  -28.3653   23.1334 C   0  0  2  0  0  0
  -20.6766  -26.9389   22.5434 C   0  0  0  0  0  0
  -19.5740  -26.6381   21.5234 C   0  0  0  0  0  0
  -18.1912  -26.7920   22.1631 C   0  0  0  0  0  0
  -19.1519  -28.8825   23.2917 C   0  0  0  0  0  0
  -18.9444  -30.1430   23.8920 C   0  0  0  0  0  0
  -17.6451  -30.6576   24.0567 C   0  0  0  0  0  0
  -25.9032  -34.9473   23.5132 C   0  0  0  0  0  0
  -16.5338  -29.9085   23.6323 C   0  0  0  0  0  0
  -16.7256  -28.6496   23.0350 C   0  0  0  0  0  0
  -26.4503  -31.6588   25.0713 C   0  0  0  0  0  0
  -25.3799  -31.3698   26.1489 C   0  0  0  0  0  0
  -27.0333  -30.3037   24.6068 C   0  0  0  0  0  0
  -27.6077  -32.4323   25.7462 C   0  0  0  0  0  0
  -27.5594  -37.1786   24.8461 C   0  0  0  0  0  0
  -21.4158  -29.3029   22.3755 N   0  0  0  0  0  0
  -26.4284  -37.3806   23.9437 N   0  0  0  0  0  0
  -24.6757  -31.0737   22.1021 N   0  0  0  0  0  0
  -23.4202  -28.8173   23.3045 O   0  0  0  0  0  0
  -28.3484  -26.5833   20.1463 O   0  0  0  0  0  0
  -26.5587  -34.8940   22.4687 O   0  0  0  0  0  0
  -23.5381  -32.1429   23.7472 O   0  0  0  0  0  0
  -31.2438  -22.0212   21.1308 C   0  0  0  0  0  0
  -29.9166  -21.6609   20.8061 C   0  0  0  0  0  0
  -30.3658  -19.4661   21.4903 C   0  0  0  0  0  0
  -31.6779  -19.8730   21.8813 C   0  0  0  0  0  0
  -33.0247  -19.5394   24.0063 C   0  0  0  0  0  0
  -33.9167  -18.6534   21.7908 C   0  0  0  0  0  0
  -30.2167  -15.3029   22.8060 C   0  0  0  0  0  0
  -28.8924  -22.6924   20.2938 C   0  0  0  0  0  0
  -29.8351  -18.0375   21.7447 C   0  0  0  0  0  0
  -29.2436  -24.2095   20.4660 C   0  0  0  0  0  0
  -30.4954  -16.8910   20.9032 C   0  0  0  0  0  0
  -28.1403  -25.1605   19.9317 C   0  0  0  0  0  0
  -32.6624  -18.9633   22.6260 C   0  0  0  0  0  0
  -32.1184  -21.1384   21.6615 N   0  0  0  0  0  0
  -29.4926  -20.3708   20.9573 N   0  0  0  0  0  0
  -30.2307  -15.4842   21.3470 N   0  0  0  0  0  0
  -31.4594  -12.3547   19.1741 H   0  0  0  0  0  0
  -30.2469  -11.3042   19.8464 H   0  0  0  0  0  0
  -29.7678  -11.8160   17.4336 H   0  0  0  0  0  0
  -29.6842  -13.5242   17.8029 H   0  0  0  0  0  0
  -27.8371  -11.3224   18.8073 H   0  0  0  0  0  0
  -27.3917  -12.6438   17.7634 H   0  0  0  0  0  0
  -27.6914  -14.2658   19.5529 H   0  0  0  0  0  0
  -28.6511  -12.0235   21.3894 H   0  0  0  0  0  0
  -28.4066  -13.6873   21.8254 H   0  0  0  0  0  0
  -25.2728   -9.5705   22.4782 H   0  0  0  0  0  0
  -24.0027   -7.4634   22.7487 H   0  0  0  0  0  0
  -21.0846   -8.8713   19.8980 H   0  0  0  0  0  0
  -22.3643  -10.9651   19.6183 H   0  0  0  0  0  0
  -21.1966   -7.6174   23.9745 H   0  0  0  0  0  0
  -21.1505   -6.0545   25.9103 H   0  0  0  0  0  0
  -22.0596   -2.7653   23.2795 H   0  0  0  0  0  0
  -22.4020  -11.9926   22.4858 H   0  0  0  0  0  0
  -21.1092  -13.1309   22.2541 H   0  0  0  0  0  0
  -24.6616  -15.8406   20.5314 H   0  0  0  0  0  0
  -26.2860  -15.6316   20.1043 H   0  0  0  0  0  0
  -26.7135  -32.5519   23.1143 H   0  0  0  0  0  0
  -25.0141  -33.9769   25.0525 H   0  0  0  0  0  0
  -22.6982  -31.3120   21.4191 H   0  0  0  0  0  0
  -23.3761  -35.9620   23.3259 H   0  0  0  0  0  0
  -24.3608  -36.8956   22.2059 H   0  0  0  0  0  0
  -23.7200  -37.6495   23.6660 H   0  0  0  0  0  0
  -26.0554  -31.5787   20.5928 H   0  0  0  0  0  0
  -26.8304  -30.8747   21.9829 H   0  0  0  0  0  0
  -28.0923  -29.0395   21.1975 H   0  0  0  0  0  0
  -25.9766  -25.9993   18.9457 H   0  0  0  0  0  0
  -23.9602  -27.3280   19.0074 H   0  0  0  0  0  0
  -23.7325  -30.6152   19.4126 H   0  0  0  0  0  0
  -22.7348  -29.2642   19.8642 H   0  0  0  0  0  0
  -25.1260  -36.1978   25.0839 H   0  0  0  0  0  0
  -20.9952  -28.3204   24.1459 H   0  0  0  0  0  0
  -20.5686  -26.2252   23.3619 H   0  0  0  0  0  0
  -21.6634  -26.7444   22.1210 H   0  0  0  0  0  0
  -19.6901  -25.6302   21.1239 H   0  0  0  0  0  0
  -19.6687  -27.3219   20.6787 H   0  0  0  0  0  0
  -17.4208  -26.6700   21.4010 H   0  0  0  0  0  0
  -18.0274  -26.0044   22.8997 H   0  0  0  0  0  0
  -19.7922  -30.7238   24.2314 H   0  0  0  0  0  0
  -17.5000  -31.6260   24.5160 H   0  0  0  0  0  0
  -15.5340  -30.2991   23.7618 H   0  0  0  0  0  0
  -15.8661  -28.0818   22.7058 H   0  0  0  0  0  0
  -24.5931  -30.7077   25.7857 H   0  0  0  0  0  0
  -24.9039  -32.2857   26.5000 H   0  0  0  0  0  0
  -25.8182  -30.8835   27.0209 H   0  0  0  0  0  0
  -26.2853  -29.6777   24.1182 H   0  0  0  0  0  0
  -27.4200  -29.7291   25.4493 H   0  0  0  0  0  0
  -27.8649  -30.4379   23.9143 H   0  0  0  0  0  0
  -27.2671  -33.3593   26.2089 H   0  0  0  0  0  0
  -28.3838  -32.6939   25.0255 H   0  0  0  0  0  0
  -28.0796  -31.8429   26.5335 H   0  0  0  0  0  0
  -28.2578  -38.0120   24.7573 H   0  0  0  0  0  0
  -28.1120  -36.2659   24.6179 H   0  0  0  0  0  0
  -27.2334  -37.1312   25.8868 H   0  0  0  0  0  0
  -20.9313  -29.8794   21.7018 H   0  0  0  0  0  0
  -26.0173  -38.2872   24.1495 H   0  0  0  0  0  0
  -31.6110  -23.0285   20.9922 H   0  0  0  0  0  0
  -32.1241  -19.7904   24.5701 H   0  0  0  0  0  0
  -33.6260  -20.4454   23.9164 H   0  0  0  0  0  0
  -33.5905  -18.8223   24.6014 H   0  0  0  0  0  0
  -33.6533  -18.2366   20.8184 H   0  0  0  0  0  0
  -34.5499  -17.9283   22.3013 H   0  0  0  0  0  0
  -34.5149  -19.5464   21.6091 H   0  0  0  0  0  0
  -31.0876  -15.7819   23.2545 H   0  0  0  0  0  0
  -30.2507  -14.2557   23.1126 H   0  0  0  0  0  0
  -29.3167  -15.7340   23.2458 H   0  0  0  0  0  0
  -27.9553  -22.4957   20.8169 H   0  0  0  0  0  0
  -28.7012  -22.4780   19.2421 H   0  0  0  0  0  0
  -28.7585  -18.0192   21.5688 H   0  0  0  0  0  0
  -29.9539  -17.8704   22.8127 H   0  0  0  0  0  0
  -30.1746  -24.4370   19.9484 H   0  0  0  0  0  0
  -29.4111  -24.4149   21.5250 H   0  0  0  0  0  0
  -31.5750  -17.0365   20.8749 H   0  0  0  0  0  0
  -30.1698  -16.9947   19.8669 H   0  0  0  0  0  0
  -27.2120  -24.8464   20.4148 H   0  0  0  0  0  0
  -28.0171  -24.9905   18.8601 H   0  0  0  0  0  0
  -32.1830  -18.0114   22.8363 H   0  0  0  0  0  0
  1 25  1  0  0  0
  1 30  2  0  0  0
  1 86  1  0  0  0
  2  3  1  0  0  0
  2 25  1  0  0  0
  2 87  1  0  0  0
  2 88  1  0  0  0
  3  4  1  0  0  0
  3 89  1  0  0  0
  3 90  1  0  0  0
  4  5  1  0  0  0
  4 91  1  0  0  0
  4 92  1  0  0  0
  5  6  1  0  0  0
  5 26  1  0  0  0
  5 93  1  0  0  0
  6 25  1  0  0  0
  6 94  1  0  0  0
  6 95  1  0  0  0
  7  8  2  0  0  0
  7 26  1  0  0  0
  7 29  1  0  0  0
  8  9  1  0  0  0
  8 22  1  0  0  0
  9 10  1  0  0  0
  9 27  2  0  0  0
 10 11  2  0  0  0
 10 15  1  0  0  0
 11 12  1  0  0  0
 11 96  1  0  0  0
 12 13  2  0  0  0
 12 97  1  0  0  0
 13 14  1  0  0  0
 13 31  1  0  0  0
 14 15  2  0  0  0
 14 98  1  0  0  0
 15 99  1  0  0  0
 16 17  2  0  0  0
 16 21  1  0  0  0
 16 31  1  0  0  0
 17 18  1  0  0  0
 17100  1  0  0  0
 18 19  2  0  0  0
 18101  1  0  0  0
 19 20  1  0  0  0
 19 24  1  0  0  0
 20 21  2  0  0  0
 20102  1  0  0  0
 21 23  1  0  0  0
 22 28  1  0  0  0
 22 32  2  0  0  0
 26 27  1  0  0  0
 28103  1  0  0  0
 28104  1  0  0  0
 29105  1  0  0  0
 29106  1  0  0  0
 33 34  1  0  0  0
 33 66  1  0  0  0
 33 70  2  0  0  0
 34 36  1  0  0  0
 34 59  1  0  0  0
 34107  1  0  0  0
 35 44  2  0  0  0
 35 45  1  0  0  0
 35 68  1  0  0  0
 36 56  1  0  0  0
 36108  1  0  0  0
 37 39  1  0  0  0
 37 47  1  0  0  0
 37 66  1  0  0  0
 37109  1  0  0  0
 38 43  2  0  0  0
 38 46  1  0  0  0
 38 47  1  0  0  0
 39 64  1  0  0  0
 39 67  2  0  0  0
 40 52  1  0  0  0
 40 53  2  0  0  0
 40 58  1  0  0  0
 41110  1  0  0  0
 41111  1  0  0  0
 41112  1  0  0  0
 41 48  1  0  0  0
 42 43  1  0  0  0
 42 66  1  0  0  0
 42113  1  0  0  0
 42114  1  0  0  0
 43 44  1  0  0  0
 44115  1  0  0  0
 45 46  2  0  0  0
 45116  1  0  0  0
 46117  1  0  0  0
 47118  1  0  0  0
 47119  1  0  0  0
 48 56  1  0  0  0
 48 65  1  0  0  0
 48120  1  0  0  0
 49 50  1  0  0  0
 49 53  1  0  0  0
 49 64  1  0  0  0
 49121  1  0  0  0
 50 51  1  0  0  0
 50122  1  0  0  0
 50123  1  0  0  0
 51 52  1  0  0  0
 51124  1  0  0  0
 51125  1  0  0  0
 52126  1  0  0  0
 52127  1  0  0  0
 53 54  1  0  0  0
 54 55  2  0  0  0
 54128  1  0  0  0
 55 57  1  0  0  0
 55129  1  0  0  0
 56 69  2  0  0  0
 57 58  2  0  0  0
 57130  1  0  0  0
 58131  1  0  0  0
 59 60  1  0  0  0
 59 61  1  0  0  0
 59 62  1  0  0  0
 60132  1  0  0  0
 60133  1  0  0  0
 60134  1  0  0  0
 61135  1  0  0  0
 61136  1  0  0  0
 61137  1  0  0  0
 62138  1  0  0  0
 62139  1  0  0  0
 62140  1  0  0  0
 63 65  1  0  0  0
 63141  1  0  0  0
 63142  1  0  0  0
 63143  1  0  0  0
 64144  1  0  0  0
 65145  1  0  0  0
 68 82  1  0  0  0
 71 72  2  0  0  0
 71 84  1  0  0  0
 71146  1  0  0  0
 72 78  1  0  0  0
 72 85  1  0  0  0
 73 74  1  0  0  0
 73 79  1  0  0  0
 73 85  2  0  0  0
 74 83  1  0  0  0
 74 84  2  0  0  0
 75147  1  0  0  0
 75148  1  0  0  0
 75149  1  0  0  0
 75 83  1  0  0  0
 76 83  1  0  0  0
 76150  1  0  0  0
 76151  1  0  0  0
 76152  1  0  0  0
 77 86  1  0  0  0
 77153  1  0  0  0
 77154  1  0  0  0
 77155  1  0  0  0
 78 80  1  0  0  0
 78156  1  0  0  0
 78157  1  0  0  0
 79 81  1  0  0  0
 79158  1  0  0  0
 79159  1  0  0  0
 80 82  1  0  0  0
 80160  1  0  0  0
 80161  1  0  0  0
 81 86  1  0  0  0
 81162  1  0  0  0
 81163  1  0  0  0
 82164  1  0  0  0
 82165  1  0  0  0
 83166  1  0  0  0
M  ISO  4   1 100  68 101  82 101  86 100
M  END
> <chiral flag>
0

> <version>
0

> <s_m_source_file>
/data/baiqing/PycharmProjects/Reinvent-master-3.2/result/LINK_invent/BTK/process_docking_weight1_custom_sum_contain_oxygen_bond_distance_aromatic_linkinvent_7_9_3/rearranged_h_0050.sdf

> <i_m_source_file_index>
6

> <r_mmod_Potential_Energy-OPLS-2005>
156.023498535156

> <r_mmod_Stretch_Energy-OPLS-2005>
54.9326629638672

> <r_mmod_Bend_Energy-OPLS-2005>
115.856346130371

> <r_mmod_Torsional_Energy-OPLS-2005>
255.753860473633

> <r_mmod_Improper_Torsional_Energy-OPLS-2005>
6.46149253845215

> <r_mmod_Van_der_Waal_Energy-OPLS-2005>
170.308303833008

> <r_mmod_Electrostatic_Energy-OPLS-2005>
-262.384521484375

> <r_mmod_Solvation_Energy-OPLS-2005>
-204.145538330078

> <b_mmod_Minimization_Converged-OPLS-2005>
0

> <r_mmod_RMS_Derivative-OPLS-2005>
3.88712859153748

$$$$
6
                    3D
 Structure written by MMmdl.
164172  0  0  1  0            999 V2000
  -30.4224  -15.2844   20.3430 C   0  0  0  0  0  0
  -30.4341  -12.7972   19.5363 C   0  0  0  0  0  0
  -29.5396  -12.5941   18.2818 C   0  0  0  0  0  0
  -28.0810  -12.3336   18.7000 C   0  0  0  0  0  0
  -27.6206  -13.2809   19.8356 C   0  0  2  0  0  0
  -28.6582  -13.4438   20.9700 C   0  0  0  0  0  0
  -25.2430  -13.8196   20.5718 C   0  0  0  0  0  0
  -24.1825  -13.0411   20.9269 C   0  0  0  0  0  0
  -24.6499  -11.6900   20.8782 C   0  0  0  0  0  0
  -23.9174  -10.4269   21.0408 C   0  0  0  0  0  0
  -24.3692   -9.4180   21.9199 C   0  0  0  0  0  0
  -23.6335   -8.2243   22.0766 C   0  0  0  0  0  0
  -22.4309   -8.0301   21.3547 C   0  0  0  0  0  0
  -21.9967   -9.0302   20.4661 C   0  0  0  0  0  0
  -22.7339  -10.2152   20.3056 C   0  0  0  0  0  0
  -21.6843   -6.0786   22.5284 C   0  0  0  0  0  0
  -21.4025   -6.5672   23.8230 C   0  0  0  0  0  0
  -21.3668   -5.6816   24.9181 C   0  0  0  0  0  0
  -21.6024   -4.3073   24.7230 C   0  0  0  0  0  0
  -21.8824   -3.8187   23.4340 C   0  0  0  0  0  0
  -21.9197   -4.7015   22.3398 C   0  0  0  0  0  0
  -22.7815  -13.5159   21.1909 C   0  0  0  0  0  0
  -22.1643   -4.2197   21.0971 F   0  0  0  0  0  0
  -21.5619   -3.4558   25.7735 F   0  0  0  0  0  0
  -29.8919  -13.9548   20.3531 N   0  0  0  0  0  0
  -26.2909  -12.9517   20.3293 N   0  0  0  0  0  0
  -25.9462  -11.6604   20.5799 N   0  0  0  0  0  0
  -22.0416  -12.8187   22.0427 N   0  0  0  0  0  0
  -25.4000  -15.1953   20.4044 N   0  0  0  0  0  0
  -31.6167  -15.2834   20.0105 O   0  0  0  0  0  0
  -21.6628   -6.8928   21.4248 O   0  0  0  0  0  0
  -22.3571  -14.5504   20.6757 O   0  0  0  0  0  0
  -24.6688  -31.8181   23.1587 C   0  0  0  0  0  0
  -25.9355  -32.4537   23.8079 C   0  0  1  0  0  0
  -27.1957  -26.8712   20.1806 C   0  0  0  0  0  0
  -25.6033  -33.8357   24.1963 N   0  0  0  0  0  0
  -23.4799  -30.4239   21.5207 C   0  0  2  0  0  0
  -24.9240  -28.8003   20.1067 C   0  0  0  0  0  0
  -22.7695  -29.4370   22.4825 C   0  0  0  0  0  0
  -18.0338  -28.1437   22.8476 C   0  0  0  0  0  0
  -24.1510  -36.7188   23.2619 C   0  0  0  0  0  0
  -26.0529  -30.5982   21.3967 C   0  0  0  0  0  0
  -26.1125  -29.1844   20.7418 C   0  0  0  0  0  0
  -27.2439  -28.2452   20.7476 C   0  0  0  0  0  0
  -25.9819  -26.6518   19.4917 C   0  0  0  0  0  0
  -24.8866  -27.5542   19.4599 C   0  0  0  0  0  0
  -23.7174  -29.7409   20.1479 C   0  0  0  0  0  0
  -25.4168  -36.2910   24.0229 C   0  0  1  0  0  0
  -20.5953  -28.3730   23.1248 C   0  0  2  0  0  0
  -20.6844  -26.9419   22.5419 C   0  0  0  0  0  0
  -19.5821  -26.6378   21.5244 C   0  0  0  0  0  0
  -18.1991  -26.7974   22.1629 C   0  0  0  0  0  0
  -19.1593  -28.8929   23.2842 C   0  0  0  0  0  0
  -18.9500  -30.1562   23.8792 C   0  0  0  0  0  0
  -17.6483  -30.6613   24.0572 C   0  0  0  0  0  0
  -25.9154  -34.9317   23.4915 C   0  0  0  0  0  0
  -16.5377  -29.9081   23.6379 C   0  0  0  0  0  0
  -16.7319  -28.6539   23.0330 C   0  0  0  0  0  0
  -26.4579  -31.6525   25.0663 C   0  0  0  0  0  0
  -25.3654  -31.3813   26.1300 C   0  0  0  0  0  0
  -27.0474  -30.2871   24.6440 C   0  0  0  0  0  0
  -27.6077  -32.4351   25.7485 C   0  0  0  0  0  0
  -27.5586  -37.1763   24.8460 C   0  0  0  0  0  0
  -21.4353  -29.2983   22.3585 N   0  0  0  0  0  0
  -26.4300  -37.3663   23.9385 N   0  0  0  0  0  0
  -24.7555  -30.9820   22.0723 N   0  0  0  0  0  0
  -23.4247  -28.7973   23.3087 O   0  0  0  0  0  0
  -28.1731  -25.7335   20.2593 O   0  0  0  0  0  0
  -26.5797  -34.8862   22.4527 O   0  0  0  0  0  0
  -23.5771  -32.1167   23.6707 O   0  0  0  0  0  0
  -29.7329  -18.1693   20.0925 C   0  0  0  0  0  0
  -29.6690  -16.7810   20.6059 C   0  0  0  0  0  0
  -28.5276  -18.3058   21.8708 C   0  0  0  0  0  0
  -27.8475  -18.6009   23.1467 C   0  0  0  0  0  0
  -27.3679  -22.9032   23.2234 C   0  0  0  0  0  0
  -26.0155  -20.9622   23.8759 C   0  0  0  0  0  0
  -25.0475  -22.4735   22.2419 C   0  0  0  0  0  0
  -28.7575  -22.4760   20.1863 C   0  0  0  0  0  0
  -26.9173  -20.9934   21.3754 C   0  0  0  0  0  0
  -27.8749  -24.0923   20.1331 C   0  0  0  0  0  0
  -28.4519  -20.8810   21.0053 C   0  0  1  0  0  0
  -26.3945  -21.8258   22.6445 C   0  0  0  0  0  0
  -28.9310  -19.1709   20.8670 N   0  0  0  0  0  0
  -28.9019  -17.0050   21.6995 N   0  3  0  0  0  0
  -31.4708  -12.9457   19.2325 H   0  0  0  0  0  0
  -30.4510  -11.8783   20.1241 H   0  0  0  0  0  0
  -29.9032  -11.7545   17.6844 H   0  0  0  0  0  0
  -29.6011  -13.4766   17.6421 H   0  0  0  0  0  0
  -28.0191  -11.3021   19.0450 H   0  0  0  0  0  0
  -27.4080  -12.4104   17.8440 H   0  0  0  0  0  0
  -27.5356  -14.2611   19.3700 H   0  0  0  0  0  0
  -28.8359  -12.5073   21.5018 H   0  0  0  0  0  0
  -28.3089  -14.1559   21.7190 H   0  0  0  0  0  0
  -25.2830   -9.5665   22.4791 H   0  0  0  0  0  0
  -24.0078   -7.4622   22.7469 H   0  0  0  0  0  0
  -21.0895   -8.8871   19.8936 H   0  0  0  0  0  0
  -22.3838  -10.9740   19.6191 H   0  0  0  0  0  0
  -21.2008   -7.6185   23.9772 H   0  0  0  0  0  0
  -21.1471   -6.0516   25.9097 H   0  0  0  0  0  0
  -22.0595   -2.7643   23.2828 H   0  0  0  0  0  0
  -22.4044  -11.9894   22.4899 H   0  0  0  0  0  0
  -21.1051  -13.1207   22.2684 H   0  0  0  0  0  0
  -24.5688  -15.7750   20.3738 H   0  0  0  0  0  0
  -26.1751  -15.5946   19.8909 H   0  0  0  0  0  0
  -26.7445  -32.5033   23.0824 H   0  0  0  0  0  0
  -25.0107  -33.9443   25.0069 H   0  0  0  0  0  0
  -22.7830  -31.2477   21.3546 H   0  0  0  0  0  0
  -23.3742  -35.9556   23.3278 H   0  0  0  0  0  0
  -24.3524  -36.8868   22.2020 H   0  0  0  0  0  0
  -23.7326  -37.6373   23.6737 H   0  0  0  0  0  0
  -26.2587  -31.3244   20.6098 H   0  0  0  0  0  0
  -26.9044  -30.6450   22.0641 H   0  0  0  0  0  0
  -28.1436  -28.5373   21.2697 H   0  0  0  0  0  0
  -25.8405  -25.7022   18.9958 H   0  0  0  0  0  0
  -23.9845  -27.2442   18.9482 H   0  0  0  0  0  0
  -23.8786  -30.5113   19.3916 H   0  0  0  0  0  0
  -22.8158  -29.2122   19.8358 H   0  0  0  0  0  0
  -25.1392  -36.1638   25.0713 H   0  0  0  0  0  0
  -21.0029  -28.3309   24.1390 H   0  0  0  0  0  0
  -20.5797  -26.2301   23.3603 H   0  0  0  0  0  0
  -21.6707  -26.7474   22.1178 H   0  0  0  0  0  0
  -19.6955  -25.6276   21.1313 H   0  0  0  0  0  0
  -19.6804  -27.3171   20.6743 H   0  0  0  0  0  0
  -17.4270  -26.6726   21.4014 H   0  0  0  0  0  0
  -18.0375  -26.0166   22.9059 H   0  0  0  0  0  0
  -19.7971  -30.7475   24.2003 H   0  0  0  0  0  0
  -17.5011  -31.6258   24.5240 H   0  0  0  0  0  0
  -15.5370  -30.2919   23.7785 H   0  0  0  0  0  0
  -15.8734  -28.0854   22.6988 H   0  0  0  0  0  0
  -24.5853  -30.7168   25.7578 H   0  0  0  0  0  0
  -24.8833  -32.3024   26.4576 H   0  0  0  0  0  0
  -25.7827  -30.9043   27.0173 H   0  0  0  0  0  0
  -26.3132  -29.6538   24.1434 H   0  0  0  0  0  0
  -27.3960  -29.7283   25.5135 H   0  0  0  0  0  0
  -27.9103  -30.4033   23.9872 H   0  0  0  0  0  0
  -27.2638  -33.3691   26.1951 H   0  0  0  0  0  0
  -28.3945  -32.6849   25.0351 H   0  0  0  0  0  0
  -28.0687  -31.8537   26.5482 H   0  0  0  0  0  0
  -28.2584  -38.0079   24.7501 H   0  0  0  0  0  0
  -28.1117  -36.2602   24.6330 H   0  0  0  0  0  0
  -27.2301  -37.1439   25.8864 H   0  0  0  0  0  0
  -20.9580  -29.8544   21.6632 H   0  0  0  0  0  0
  -26.0099  -38.2704   24.1389 H   0  0  0  0  0  0
  -30.3094  -18.5098   19.2425 H   0  0  0  0  0  0
  -28.2703  -19.5294   23.5105 H   0  0  0  0  0  0
  -28.0844  -17.8130   23.8640 H   0  0  0  0  0  0
  -26.7727  -18.6088   22.9765 H   0  0  0  0  0  0
  -26.9776  -23.3281   24.1498 H   0  0  0  0  0  0
  -27.5540  -23.7702   22.6091 H   0  0  0  0  0  0
  -28.3507  -22.4996   23.4679 H   0  0  0  0  0  0
  -25.4624  -21.5454   24.6094 H   0  0  0  0  0  0
  -26.8670  -20.6305   24.4569 H   0  0  0  0  0  0
  -25.3800  -20.1125   23.6318 H   0  0  0  0  0  0
  -24.4727  -22.8170   23.1043 H   0  0  0  0  0  0
  -24.4108  -21.7573   21.7136 H   0  0  0  0  0  0
  -25.1672  -23.3363   21.5946 H   0  0  0  0  0  0
  -29.8108  -22.7004   20.3481 H   0  0  0  0  0  0
  -28.7515  -22.1862   19.1355 H   0  0  0  0  0  0
  -26.4438  -20.0141   21.3709 H   0  0  0  0  0  0
  -26.4556  -21.4161   20.4813 H   0  0  0  0  0  0
  -26.9294  -23.9474   20.6373 H   0  0  0  0  0  0
  -27.5141  -24.0531   19.1059 H   0  0  0  0  0  0
  -28.9786  -21.0901   21.9345 H   0  0  0  0  0  0
  -28.7300  -16.2958   22.4008 H   0  0  0  0  0  0
  1 25  1  0  0  0
  1 30  2  0  0  0
  1 72  1  0  0  0
  2  3  1  0  0  0
  2 25  1  0  0  0
  2 85  1  0  0  0
  2 86  1  0  0  0
  3  4  1  0  0  0
  3 87  1  0  0  0
  3 88  1  0  0  0
  4  5  1  0  0  0
  4 89  1  0  0  0
  4 90  1  0  0  0
  5  6  1  0  0  0
  5 26  1  0  0  0
  5 91  1  0  0  0
  6 25  1  0  0  0
  6 92  1  0  0  0
  6 93  1  0  0  0
  7  8  2  0  0  0
  7 26  1  0  0  0
  7 29  1  0  0  0
  8  9  1  0  0  0
  8 22  1  0  0  0
  9 10  1  0  0  0
  9 27  2  0  0  0
 10 11  2  0  0  0
 10 15  1  0  0  0
 11 12  1  0  0  0
 11 94  1  0  0  0
 12 13  2  0  0  0
 12 95  1  0  0  0
 13 14  1  0  0  0
 13 31  1  0  0  0
 14 15  2  0  0  0
 14 96  1  0  0  0
 15 97  1  0  0  0
 16 17  2  0  0  0
 16 21  1  0  0  0
 16 31  1  0  0  0
 17 18  1  0  0  0
 17 98  1  0  0  0
 18 19  2  0  0  0
 18 99  1  0  0  0
 19 20  1  0  0  0
 19 24  1  0  0  0
 20 21  2  0  0  0
 20100  1  0  0  0
 21 23  1  0  0  0
 22 28  1  0  0  0
 22 32  2  0  0  0
 26 27  1  0  0  0
 28101  1  0  0  0
 28102  1  0  0  0
 29103  1  0  0  0
 29104  1  0  0  0
 33 34  1  0  0  0
 33 66  1  0  0  0
 33 70  2  0  0  0
 34 36  1  0  0  0
 34 59  1  0  0  0
 34105  1  0  0  0
 35 44  2  0  0  0
 35 45  1  0  0  0
 35 68  1  0  0  0
 36 56  1  0  0  0
 36106  1  0  0  0
 37 39  1  0  0  0
 37 47  1  0  0  0
 37 66  1  0  0  0
 37107  1  0  0  0
 38 43  2  0  0  0
 38 46  1  0  0  0
 38 47  1  0  0  0
 39 64  1  0  0  0
 39 67  2  0  0  0
 40 52  1  0  0  0
 40 53  2  0  0  0
 40 58  1  0  0  0
 41108  1  0  0  0
 41109  1  0  0  0
 41110  1  0  0  0
 41 48  1  0  0  0
 42 43  1  0  0  0
 42 66  1  0  0  0
 42111  1  0  0  0
 42112  1  0  0  0
 43 44  1  0  0  0
 44113  1  0  0  0
 45 46  2  0  0  0
 45114  1  0  0  0
 46115  1  0  0  0
 47116  1  0  0  0
 47117  1  0  0  0
 48 56  1  0  0  0
 48 65  1  0  0  0
 48118  1  0  0  0
 49 50  1  0  0  0
 49 53  1  0  0  0
 49 64  1  0  0  0
 49119  1  0  0  0
 50 51  1  0  0  0
 50120  1  0  0  0
 50121  1  0  0  0
 51 52  1  0  0  0
 51122  1  0  0  0
 51123  1  0  0  0
 52124  1  0  0  0
 52125  1  0  0  0
 53 54  1  0  0  0
 54 55  2  0  0  0
 54126  1  0  0  0
 55 57  1  0  0  0
 55127  1  0  0  0
 56 69  2  0  0  0
 57 58  2  0  0  0
 57128  1  0  0  0
 58129  1  0  0  0
 59 60  1  0  0  0
 59 61  1  0  0  0
 59 62  1  0  0  0
 60130  1  0  0  0
 60131  1  0  0  0
 60132  1  0  0  0
 61133  1  0  0  0
 61134  1  0  0  0
 61135  1  0  0  0
 62136  1  0  0  0
 62137  1  0  0  0
 62138  1  0  0  0
 63 65  1  0  0  0
 63139  1  0  0  0
 63140  1  0  0  0
 63141  1  0  0  0
 64142  1  0  0  0
 65143  1  0  0  0
 68 80  1  0  0  0
 71 72  2  0  0  0
 71 83  1  0  0  0
 71144  1  0  0  0
 72 84  1  0  0  0
 73 74  1  0  0  0
 73 83  1  0  0  0
 73 84  2  0  0  0
 74145  1  0  0  0
 74146  1  0  0  0
 74147  1  0  0  0
 75148  1  0  0  0
 75149  1  0  0  0
 75150  1  0  0  0
 75 82  1  0  0  0
 76 82  1  0  0  0
 76151  1  0  0  0
 76152  1  0  0  0
 76153  1  0  0  0
 77 82  1  0  0  0
 77154  1  0  0  0
 77155  1  0  0  0
 77156  1  0  0  0
 78 80  1  0  0  0
 78157  1  0  0  0
 78158  1  0  0  0
 78 81  1  0  0  0
 79 81  1  0  0  0
 79 82  1  0  0  0
 79159  1  0  0  0
 79160  1  0  0  0
 80161  1  0  0  0
 80162  1  0  0  0
 81 83  1  0  0  0
 81163  1  0  0  0
 84164  1  0  0  0
M  CHG  1  84   1
M  ISO  4   1 100  68 101  72 100  80 101
M  END
> <chiral flag>
0

> <version>
0

> <s_m_source_file>
/data/baiqing/PycharmProjects/Reinvent-master-3.2/result/LINK_invent/BTK/process_docking_weight1_custom_sum_contain_oxygen_bond_distance_aromatic_linkinvent_7_9_3/rearranged_h_0050.sdf

> <i_m_source_file_index>
7

> <r_mmod_Potential_Energy-OPLS-2005>
1592.50085449219

> <r_mmod_Stretch_Energy-OPLS-2005>
703.816223144531

> <r_mmod_Bend_Energy-OPLS-2005>
583.059326171875

> <r_mmod_Torsional_Energy-OPLS-2005>
280.682098388672

> <r_mmod_Improper_Torsional_Energy-OPLS-2005>
5.81927394866943

> <r_mmod_Van_der_Waal_Energy-OPLS-2005>
132.002548217773

> <r_mmod_Electrostatic_Energy-OPLS-2005>
-211.77490234375

> <r_mmod_Solvation_Energy-OPLS-2005>
-403.763641357422

> <b_mmod_Minimization_Converged-OPLS-2005>
0

> <r_mmod_RMS_Derivative-OPLS-2005>
7.54132127761841

$$$$
7
                    3D
 Structure written by MMmdl.
162170  0  0  1  0            999 V2000
  -30.6348  -14.7505   20.4713 C   0  0  0  0  0  0
  -30.4318  -12.4606   19.4793 C   0  0  0  0  0  0
  -29.5161  -12.4888   18.2364 C   0  0  0  0  0  0
  -28.0385  -12.3413   18.6494 C   0  0  0  0  0  0
  -27.6387  -13.2419   19.8492 C   0  0  2  0  0  0
  -28.6817  -13.2011   20.9831 C   0  0  0  0  0  0
  -25.2474  -13.8147   20.5642 C   0  0  0  0  0  0
  -24.1783  -13.0415   20.9195 C   0  0  0  0  0  0
  -24.6406  -11.6893   20.8755 C   0  0  0  0  0  0
  -23.9072  -10.4280   21.0406 C   0  0  0  0  0  0
  -24.3620   -9.4194   21.9188 C   0  0  0  0  0  0
  -23.6293   -8.2227   22.0749 C   0  0  0  0  0  0
  -22.4279   -8.0251   21.3527 C   0  0  0  0  0  0
  -21.9905   -9.0245   20.4641 C   0  0  0  0  0  0
  -22.7232  -10.2121   20.3062 C   0  0  0  0  0  0
  -21.6835   -6.0719   22.5282 C   0  0  0  0  0  0
  -21.3989   -6.5628   23.8212 C   0  0  0  0  0  0
  -21.3656   -5.6771   24.9175 C   0  0  0  0  0  0
  -21.6052   -4.3041   24.7231 C   0  0  0  0  0  0
  -21.8826   -3.8137   23.4355 C   0  0  0  0  0  0
  -21.9203   -4.6951   22.3402 C   0  0  0  0  0  0
  -22.7825  -13.5222   21.1862 C   0  0  0  0  0  0
  -22.1660   -4.2137   21.0983 F   0  0  0  0  0  0
  -21.5656   -3.4524   25.7744 F   0  0  0  0  0  0
  -29.9799  -13.5378   20.3909 N   0  0  0  0  0  0
  -26.2927  -12.9406   20.3274 N   0  0  0  0  0  0
  -25.9342  -11.6545   20.5771 N   0  0  0  0  0  0
  -22.0453  -12.8199   22.0395 N   0  0  0  0  0  0
  -25.4157  -15.1834   20.3901 N   0  0  0  0  0  0
  -31.8464  -14.7887   20.2411 O   0  0  0  0  0  0
  -21.6634   -6.8854   21.4226 O   0  0  0  0  0  0
  -22.3524  -14.5553   20.6730 O   0  0  0  0  0  0
  -24.6270  -31.8594   23.2005 C   0  0  0  0  0  0
  -25.9105  -32.4780   23.8347 C   0  0  1  0  0  0
  -27.2154  -27.2860   20.1715 C   0  0  0  0  0  0
  -25.5913  -33.8581   24.2264 N   0  0  0  0  0  0
  -23.4217  -30.4816   21.5418 C   0  0  2  0  0  0
  -24.8738  -28.9314   20.1102 C   0  0  0  0  0  0
  -22.7475  -29.4635   22.4930 C   0  0  0  0  0  0
  -18.0289  -28.1390   22.8485 C   0  0  0  0  0  0
  -24.1488  -36.7315   23.2636 C   0  0  0  0  0  0
  -25.9612  -30.7872   21.3716 C   0  0  0  0  0  0
  -26.0407  -29.4074   20.7241 C   0  0  0  0  0  0
  -27.2161  -28.5972   20.7429 C   0  0  0  0  0  0
  -26.0356  -26.8675   19.5220 C   0  0  0  0  0  0
  -24.8771  -27.6695   19.4918 C   0  0  0  0  0  0
  -23.6401  -29.8142   20.1569 C   0  0  0  0  0  0
  -25.4113  -36.3091   24.0316 C   0  0  1  0  0  0
  -20.5896  -28.3706   23.1281 C   0  0  2  0  0  0
  -20.6794  -26.9428   22.5420 C   0  0  0  0  0  0
  -19.5764  -26.6394   21.5218 C   0  0  0  0  0  0
  -18.1939  -26.7933   22.1625 C   0  0  0  0  0  0
  -19.1549  -28.8859   23.2875 C   0  0  0  0  0  0
  -18.9465  -30.1459   23.8898 C   0  0  0  0  0  0
  -17.6470  -30.6588   24.0581 C   0  0  0  0  0  0
  -25.9055  -34.9458   23.5098 C   0  0  0  0  0  0
  -16.5362  -29.9097   23.6333 C   0  0  0  0  0  0
  -16.7282  -28.6530   23.0333 C   0  0  0  0  0  0
  -26.4493  -31.6588   25.0722 C   0  0  0  0  0  0
  -25.3705  -31.3716   26.1434 C   0  0  0  0  0  0
  -27.0341  -30.3011   24.6161 C   0  0  0  0  0  0
  -27.6060  -32.4311   25.7498 C   0  0  0  0  0  0
  -27.5571  -37.1814   24.8459 C   0  0  0  0  0  0
  -21.4195  -29.3056   22.3669 N   0  0  0  0  0  0
  -26.4287  -37.3782   23.9403 N   0  0  0  0  0  0
  -24.6887  -31.0592   22.0967 N   0  0  0  0  0  0
  -23.4192  -28.8163   23.3008 O   0  0  0  0  0  0
  -28.3050  -26.3996   20.2167 O   0  0  0  0  0  0
  -26.5633  -34.8917   22.4672 O   0  0  0  0  0  0
  -23.5432  -32.1429   23.7332 O   0  0  0  0  0  0
  -30.0441  -19.9281   21.0986 C   0  0  0  0  0  0
  -29.0264  -20.9513   20.9224 C   0  0  0  0  0  0
  -29.4755  -18.6554   20.9549 C   0  0  0  0  0  0
  -25.7348  -18.6263   21.2522 C   0  0  0  0  0  0
  -31.5075  -17.3361   21.8201 C   0  0  0  0  0  0
  -29.5254  -16.3151   19.0543 C   0  0  0  0  0  0
  -28.9759  -22.4818   21.3312 C   0  0  0  0  0  0
  -28.6453  -23.6899   20.3148 C   0  0  0  0  0  0
  -26.9906  -18.1119   20.5177 C   0  0  0  0  0  0
  -28.1192  -25.0925   20.9223 C   0  0  0  0  0  0
  -30.0511  -17.1982   21.3185 C   0  0  2  0  0  0
  -27.9104  -20.3316   20.5847 N   0  0  0  0  0  0
  -28.1427  -18.9829   20.6723 N   0  0  0  0  0  0
  -29.8878  -15.9392   20.4262 N   0  0  0  0  0  0
  -31.4756  -12.5779   19.1818 H   0  0  0  0  0  0
  -30.3677  -11.4921   19.9764 H   0  0  0  0  0  0
  -29.7948  -11.6936   17.5424 H   0  0  0  0  0  0
  -29.6604  -13.4160   17.6859 H   0  0  0  0  0  0
  -27.8865  -11.2940   18.9094 H   0  0  0  0  0  0
  -27.3858  -12.5436   17.7988 H   0  0  0  0  0  0
  -27.6162  -14.2620   19.4639 H   0  0  0  0  0  0
  -28.7071  -12.2154   21.4503 H   0  0  0  0  0  0
  -28.4219  -13.9110   21.7707 H   0  0  0  0  0  0
  -25.2757   -9.5685   22.4764 H   0  0  0  0  0  0
  -24.0007   -7.4615   22.7463 H   0  0  0  0  0  0
  -21.0841   -8.8761   19.8945 H   0  0  0  0  0  0
  -22.3683  -10.9670   19.6189 H   0  0  0  0  0  0
  -21.1921   -7.6121   23.9704 H   0  0  0  0  0  0
  -21.1485   -6.0511   25.9081 H   0  0  0  0  0  0
  -22.0617   -2.7599   23.2868 H   0  0  0  0  0  0
  -22.4017  -11.9838   22.4781 H   0  0  0  0  0  0
  -21.1081  -13.1261   22.2587 H   0  0  0  0  0  0
  -24.6509  -15.8410   20.4835 H   0  0  0  0  0  0
  -26.2684  -15.6039   20.0490 H   0  0  0  0  0  0
  -26.7184  -32.5451   23.1105 H   0  0  0  0  0  0
  -25.0049  -33.9725   25.0397 H   0  0  0  0  0  0
  -22.7162  -31.3029   21.3963 H   0  0  0  0  0  0
  -23.3738  -35.9661   23.3316 H   0  0  0  0  0  0
  -24.3576  -36.8938   22.2052 H   0  0  0  0  0  0
  -23.7267  -37.6520   23.6673 H   0  0  0  0  0  0
  -26.0783  -31.5416   20.5925 H   0  0  0  0  0  0
  -26.8469  -30.8536   21.9925 H   0  0  0  0  0  0
  -28.1069  -28.9543   21.2408 H   0  0  0  0  0  0
  -26.0034  -25.8914   19.0586 H   0  0  0  0  0  0
  -23.9843  -27.3004   19.0054 H   0  0  0  0  0  0
  -23.7623  -30.5930   19.4030 H   0  0  0  0  0  0
  -22.7587  -29.2469   19.8518 H   0  0  0  0  0  0
  -25.1295  -36.1946   25.0806 H   0  0  0  0  0  0
  -20.9977  -28.3295   24.1403 H   0  0  0  0  0  0
  -20.5728  -26.2307   23.3627 H   0  0  0  0  0  0
  -21.6653  -26.7488   22.1178 H   0  0  0  0  0  0
  -19.6947  -25.6301   21.1250 H   0  0  0  0  0  0
  -19.6697  -27.3206   20.6747 H   0  0  0  0  0  0
  -17.4216  -26.6683   21.4019 H   0  0  0  0  0  0
  -18.0335  -26.0056   22.9007 H   0  0  0  0  0  0
  -19.7932  -30.7277   24.2258 H   0  0  0  0  0  0
  -17.5023  -31.6259   24.5190 H   0  0  0  0  0  0
  -15.5362  -30.3014   23.7644 H   0  0  0  0  0  0
  -15.8673  -28.0867   22.7022 H   0  0  0  0  0  0
  -24.5890  -30.7063   25.7747 H   0  0  0  0  0  0
  -24.8870  -32.2870   26.4852 H   0  0  0  0  0  0
  -25.7998  -30.8895   27.0221 H   0  0  0  0  0  0
  -26.2918  -29.6747   24.1192 H   0  0  0  0  0  0
  -27.4073  -29.7274   25.4660 H   0  0  0  0  0  0
  -27.8770  -30.4318   23.9366 H   0  0  0  0  0  0
  -27.2692  -33.3629   26.2054 H   0  0  0  0  0  0
  -28.3877  -32.6829   25.0319 H   0  0  0  0  0  0
  -28.0716  -31.8436   26.5422 H   0  0  0  0  0  0
  -28.2586  -38.0106   24.7491 H   0  0  0  0  0  0
  -28.1058  -36.2638   24.6301 H   0  0  0  0  0  0
  -27.2286  -37.1487   25.8855 H   0  0  0  0  0  0
  -20.9391  -29.8774   21.6861 H   0  0  0  0  0  0
  -26.0174  -38.2860   24.1374 H   0  0  0  0  0  0
  -31.0565  -20.1153   21.4303 H   0  0  0  0  0  0
  -25.3129  -19.5137   20.7754 H   0  0  0  0  0  0
  -25.9643  -18.8854   22.2867 H   0  0  0  0  0  0
  -24.9498  -17.8723   21.2710 H   0  0  0  0  0  0
  -32.2040  -17.4777   20.9926 H   0  0  0  0  0  0
  -31.8282  -16.4623   22.3869 H   0  0  0  0  0  0
  -31.6278  -18.1818   22.4971 H   0  0  0  0  0  0
  -28.5062  -16.6800   18.9921 H   0  0  0  0  0  0
  -29.5831  -15.4828   18.3526 H   0  0  0  0  0  0
  -30.1993  -17.0833   18.6788 H   0  0  0  0  0  0
  -29.9232  -22.7245   21.8150 H   0  0  0  0  0  0
  -28.2533  -22.5657   22.1445 H   0  0  0  0  0  0
  -27.8845  -23.3467   19.6172 H   0  0  0  0  0  0
  -29.5361  -23.8742   19.7167 H   0  0  0  0  0  0
  -26.7869  -18.0051   19.4509 H   0  0  0  0  0  0
  -27.2575  -17.1307   20.9045 H   0  0  0  0  0  0
  -28.5915  -25.2272   21.8968 H   0  0  0  0  0  0
  -27.0631  -24.9606   21.1678 H   0  0  0  0  0  0
  -29.4920  -16.9115   22.2103 H   0  0  0  0  0  0
  1 25  1  0  0  0
  1 30  2  0  0  0
  1 84  1  0  0  0
  2  3  1  0  0  0
  2 25  1  0  0  0
  2 85  1  0  0  0
  2 86  1  0  0  0
  3  4  1  0  0  0
  3 87  1  0  0  0
  3 88  1  0  0  0
  4  5  1  0  0  0
  4 89  1  0  0  0
  4 90  1  0  0  0
  5  6  1  0  0  0
  5 26  1  0  0  0
  5 91  1  0  0  0
  6 25  1  0  0  0
  6 92  1  0  0  0
  6 93  1  0  0  0
  7  8  2  0  0  0
  7 26  1  0  0  0
  7 29  1  0  0  0
  8  9  1  0  0  0
  8 22  1  0  0  0
  9 10  1  0  0  0
  9 27  2  0  0  0
 10 11  2  0  0  0
 10 15  1  0  0  0
 11 12  1  0  0  0
 11 94  1  0  0  0
 12 13  2  0  0  0
 12 95  1  0  0  0
 13 14  1  0  0  0
 13 31  1  0  0  0
 14 15  2  0  0  0
 14 96  1  0  0  0
 15 97  1  0  0  0
 16 17  2  0  0  0
 16 21  1  0  0  0
 16 31  1  0  0  0
 17 18  1  0  0  0
 17 98  1  0  0  0
 18 19  2  0  0  0
 18 99  1  0  0  0
 19 20  1  0  0  0
 19 24  1  0  0  0
 20 21  2  0  0  0
 20100  1  0  0  0
 21 23  1  0  0  0
 22 28  1  0  0  0
 22 32  2  0  0  0
 26 27  1  0  0  0
 28101  1  0  0  0
 28102  1  0  0  0
 29103  1  0  0  0
 29104  1  0  0  0
 33 34  1  0  0  0
 33 66  1  0  0  0
 33 70  2  0  0  0
 34 36  1  0  0  0
 34 59  1  0  0  0
 34105  1  0  0  0
 35 44  2  0  0  0
 35 45  1  0  0  0
 35 68  1  0  0  0
 36 56  1  0  0  0
 36106  1  0  0  0
 37 39  1  0  0  0
 37 47  1  0  0  0
 37 66  1  0  0  0
 37107  1  0  0  0
 38 43  2  0  0  0
 38 46  1  0  0  0
 38 47  1  0  0  0
 39 64  1  0  0  0
 39 67  2  0  0  0
 40 52  1  0  0  0
 40 53  2  0  0  0
 40 58  1  0  0  0
 41108  1  0  0  0
 41109  1  0  0  0
 41110  1  0  0  0
 41 48  1  0  0  0
 42 43  1  0  0  0
 42 66  1  0  0  0
 42111  1  0  0  0
 42112  1  0  0  0
 43 44  1  0  0  0
 44113  1  0  0  0
 45 46  2  0  0  0
 45114  1  0  0  0
 46115  1  0  0  0
 47116  1  0  0  0
 47117  1  0  0  0
 48 56  1  0  0  0
 48 65  1  0  0  0
 48118  1  0  0  0
 49 50  1  0  0  0
 49 53  1  0  0  0
 49 64  1  0  0  0
 49119  1  0  0  0
 50 51  1  0  0  0
 50120  1  0  0  0
 50121  1  0  0  0
 51 52  1  0  0  0
 51122  1  0  0  0
 51123  1  0  0  0
 52124  1  0  0  0
 52125  1  0  0  0
 53 54  1  0  0  0
 54 55  2  0  0  0
 54126  1  0  0  0
 55 57  1  0  0  0
 55127  1  0  0  0
 56 69  2  0  0  0
 57 58  2  0  0  0
 57128  1  0  0  0
 58129  1  0  0  0
 59 60  1  0  0  0
 59 61  1  0  0  0
 59 62  1  0  0  0
 60130  1  0  0  0
 60131  1  0  0  0
 60132  1  0  0  0
 61133  1  0  0  0
 61134  1  0  0  0
 61135  1  0  0  0
 62136  1  0  0  0
 62137  1  0  0  0
 62138  1  0  0  0
 63 65  1  0  0  0
 63139  1  0  0  0
 63140  1  0  0  0
 63141  1  0  0  0
 64142  1  0  0  0
 65143  1  0  0  0
 68 80  1  0  0  0
 71 72  1  0  0  0
 71 73  2  0  0  0
 71144  1  0  0  0
 72 77  1  0  0  0
 72 82  2  0  0  0
 73 81  1  0  0  0
 73 83  1  0  0  0
 74 79  1  0  0  0
 74145  1  0  0  0
 74146  1  0  0  0
 74147  1  0  0  0
 75148  1  0  0  0
 75149  1  0  0  0
 75150  1  0  0  0
 75 81  1  0  0  0
 76 84  1  0  0  0
 76151  1  0  0  0
 76152  1  0  0  0
 76153  1  0  0  0
 77 78  1  0  0  0
 77154  1  0  0  0
 77155  1  0  0  0
 78 80  1  0  0  0
 78156  1  0  0  0
 78157  1  0  0  0
 79 83  1  0  0  0
 79158  1  0  0  0
 79159  1  0  0  0
 80160  1  0  0  0
 80161  1  0  0  0
 81 84  1  0  0  0
 81162  1  0  0  0
 82 83  1  0  0  0
M  ISO  4   1 100  68 101  80 101  84 100
M  END
> <chiral flag>
0

> <version>
0

> <s_m_source_file>
/data/baiqing/PycharmProjects/Reinvent-master-3.2/result/LINK_invent/BTK/process_docking_weight1_custom_sum_contain_oxygen_bond_distance_aromatic_linkinvent_7_9_3/rearranged_h_0050.sdf

> <i_m_source_file_index>
8

> <r_mmod_Potential_Energy-OPLS-2005>
309.422729492188

> <r_mmod_Stretch_Energy-OPLS-2005>
125.771812438965

> <r_mmod_Bend_Energy-OPLS-2005>
184.193923950195

> <r_mmod_Torsional_Energy-OPLS-2005>
331.700042724609

> <r_mmod_Improper_Torsional_Energy-OPLS-2005>
16.297571182251

> <r_mmod_Van_der_Waal_Energy-OPLS-2005>
117.699020385742

> <r_mmod_Electrostatic_Energy-OPLS-2005>
-353.825866699219

> <r_mmod_Solvation_Energy-OPLS-2005>
-197.780990600586

> <b_mmod_Minimization_Converged-OPLS-2005>
0

> <r_mmod_RMS_Derivative-OPLS-2005>
4.40014743804932

$$$$
8
                    3D
 Structure written by MMmdl.
176184  0  0  1  0            999 V2000
  -30.7486  -14.4201   20.6818 C   0  0  0  0  0  0
  -30.4209  -12.3223   19.4071 C   0  0  0  0  0  0
  -29.4880  -12.5463   18.1984 C   0  0  0  0  0  0
  -28.0060  -12.4050   18.6014 C   0  0  0  0  0  0
  -27.6666  -13.1995   19.8902 C   0  0  2  0  0  0
  -28.7092  -12.8845   20.9844 C   0  0  0  0  0  0
  -25.2593  -13.8159   20.5687 C   0  0  0  0  0  0
  -24.1833  -13.0430   20.9145 C   0  0  0  0  0  0
  -24.6393  -11.6905   20.8721 C   0  0  0  0  0  0
  -23.9072  -10.4280   21.0395 C   0  0  0  0  0  0
  -24.3621   -9.4197   21.9172 C   0  0  0  0  0  0
  -23.6287   -8.2241   22.0751 C   0  0  0  0  0  0
  -22.4264   -8.0284   21.3556 C   0  0  0  0  0  0
  -21.9906   -9.0252   20.4654 C   0  0  0  0  0  0
  -22.7248  -10.2118   20.3051 C   0  0  0  0  0  0
  -21.6856   -6.0732   22.5300 C   0  0  0  0  0  0
  -21.4033   -6.5641   23.8238 C   0  0  0  0  0  0
  -21.3635   -5.6784   24.9192 C   0  0  0  0  0  0
  -21.6043   -4.3050   24.7242 C   0  0  0  0  0  0
  -21.8823   -3.8144   23.4362 C   0  0  0  0  0  0
  -21.9193   -4.6961   22.3420 C   0  0  0  0  0  0
  -22.7853  -13.5222   21.1790 C   0  0  0  0  0  0
  -22.1673   -4.2153   21.0997 F   0  0  0  0  0  0
  -21.5625   -3.4537   25.7746 F   0  0  0  0  0  0
  -30.0342  -13.2696   20.4749 N   0  0  0  0  0  0
  -26.3046  -12.9324   20.3433 N   0  0  0  0  0  0
  -25.9321  -11.6490   20.5794 N   0  0  0  0  0  0
  -22.0503  -12.8230   22.0370 N   0  0  0  0  0  0
  -25.4262  -15.1880   20.4063 N   0  0  0  0  0  0
  -31.7951  -14.5997   20.0481 O   0  0  0  0  0  0
  -21.6636   -6.8880   21.4260 O   0  0  0  0  0  0
  -22.3540  -14.5523   20.6636 O   0  0  0  0  0  0
  -24.6080  -31.8710   23.2123 C   0  0  0  0  0  0
  -25.9000  -32.4844   23.8405 C   0  0  1  0  0  0
  -27.2580  -27.4812   20.1080 C   0  0  0  0  0  0
  -25.5879  -33.8642   24.2342 N   0  0  0  0  0  0
  -23.3939  -30.4905   21.5512 C   0  0  2  0  0  0
  -24.8459  -28.9566   20.1206 C   0  0  0  0  0  0
  -22.7374  -29.4660   22.5026 C   0  0  0  0  0  0
  -18.0263  -28.1364   22.8496 C   0  0  0  0  0  0
  -24.1484  -36.7328   23.2636 C   0  0  0  0  0  0
  -25.9125  -30.8549   21.3543 C   0  0  0  0  0  0
  -25.9956  -29.4858   20.7176 C   0  0  0  0  0  0
  -27.1996  -28.7574   20.7152 C   0  0  0  0  0  0
  -26.0966  -26.9639   19.4982 C   0  0  0  0  0  0
  -24.8881  -27.6900   19.5096 C   0  0  0  0  0  0
  -23.6014  -29.8140   20.1676 C   0  0  0  0  0  0
  -25.4101  -36.3132   24.0346 C   0  0  1  0  0  0
  -20.5846  -28.3640   23.1344 C   0  0  2  0  0  0
  -20.6751  -26.9387   22.5422 C   0  0  0  0  0  0
  -19.5735  -26.6383   21.5210 C   0  0  0  0  0  0
  -18.1911  -26.7917   22.1618 C   0  0  0  0  0  0
  -19.1510  -28.8819   23.2918 C   0  0  0  0  0  0
  -18.9441  -30.1430   23.8922 C   0  0  0  0  0  0
  -17.6443  -30.6575   24.0563 C   0  0  0  0  0  0
  -25.9027  -34.9495   23.5142 C   0  0  0  0  0  0
  -16.5334  -29.9078   23.6317 C   0  0  0  0  0  0
  -16.7254  -28.6493   23.0345 C   0  0  0  0  0  0
  -26.4460  -31.6605   25.0704 C   0  0  0  0  0  0
  -25.3754  -31.3674   26.1468 C   0  0  0  0  0  0
  -27.0279  -30.3066   24.6011 C   0  0  0  0  0  0
  -27.6051  -32.4305   25.7459 C   0  0  0  0  0  0
  -27.5589  -37.1808   24.8461 C   0  0  0  0  0  0
  -21.4109  -29.3017   22.3761 N   0  0  0  0  0  0
  -26.4291  -37.3812   23.9422 N   0  0  0  0  0  0
  -24.6560  -31.0858   22.0992 N   0  0  0  0  0  0
  -23.4171  -28.8218   23.3061 O   0  0  0  0  0  0
  -28.4070  -26.7275   20.0369 O   0  0  0  0  0  0
  -26.5589  -34.8939   22.4703 O   0  0  0  0  0  0
  -23.5295  -32.1429   23.7565 O   0  0  0  0  0  0
  -30.6875  -22.0297   19.6973 C   0  0  0  0  0  0
  -30.7396  -22.4263   21.0492 C   0  0  0  0  0  0
  -30.5188  -23.0770   18.7507 C   0  0  0  0  0  0
  -30.5833  -24.6311   20.4435 C   0  0  0  0  0  0
  -30.8942  -21.4437   22.1958 C   0  0  0  0  0  0
  -28.9805  -15.6375   22.3178 C   0  0  0  0  0  0
  -31.4177  -15.6302   22.7770 C   0  0  0  0  0  0
  -29.3892  -18.1954   17.4301 C   0  0  0  0  0  0
  -30.8914  -20.5696   19.2749 C   0  0  0  0  0  0
  -30.6349  -26.0953   20.8507 C   0  0  0  0  0  0
  -30.5211  -16.9633   20.8582 C   0  0  0  0  0  0
  -29.6495  -19.6590   19.3949 C   0  0  0  0  0  0
  -29.5571  -17.1633   19.6604 C   0  0  0  0  0  0
  -29.2732  -26.7321   21.1750 C   0  0  0  0  0  0
  -30.4180  -22.8457   17.2330 C   0  0  0  0  0  0
  -30.3703  -15.6149   21.6395 C   0  0  0  0  0  0
  -30.6787  -23.7208   21.4050 N   0  0  0  0  0  0
  -30.4893  -24.3670   19.1510 N   0  0  0  0  0  0
  -29.9311  -18.3214   18.8046 N   0  3  1  0  0  0
  -29.5888  -21.8344   16.9603 F   0  0  0  0  0  0
  -29.9561  -23.9291   16.6005 F   0  0  0  0  0  0
  -31.6239  -22.5576   16.7401 F   0  0  0  0  0  0
  -31.4624  -12.4225   19.0970 H   0  0  0  0  0  0
  -30.3353  -11.2957   19.7651 H   0  0  0  0  0  0
  -29.7274  -11.8421   17.4006 H   0  0  0  0  0  0
  -29.6577  -13.5420   17.7869 H   0  0  0  0  0  0
  -27.7975  -11.3454   18.7496 H   0  0  0  0  0  0
  -27.3628  -12.7265   17.7818 H   0  0  0  0  0  0
  -27.7342  -14.2584   19.6462 H   0  0  0  0  0  0
  -28.7021  -11.8095   21.1746 H   0  0  0  0  0  0
  -28.4399  -13.2874   21.9488 H   0  0  0  0  0  0
  -25.2772   -9.5645   22.4729 H   0  0  0  0  0  0
  -23.9995   -7.4633   22.7463 H   0  0  0  0  0  0
  -21.0829   -8.8784   19.8962 H   0  0  0  0  0  0
  -22.3733  -10.9656   19.6151 H   0  0  0  0  0  0
  -21.2087   -7.6159   23.9755 H   0  0  0  0  0  0
  -21.1410   -6.0499   25.9084 H   0  0  0  0  0  0
  -22.0611   -2.7605   23.2858 H   0  0  0  0  0  0
  -22.4136  -11.9915   22.4787 H   0  0  0  0  0  0
  -21.1140  -13.1288   22.2598 H   0  0  0  0  0  0
  -24.6508  -15.8348   20.5002 H   0  0  0  0  0  0
  -26.2732  -15.6298   20.0761 H   0  0  0  0  0  0
  -26.7083  -32.5593   23.1194 H   0  0  0  0  0  0
  -25.0054  -33.9814   25.0505 H   0  0  0  0  0  0
  -22.6800  -31.3045   21.4103 H   0  0  0  0  0  0
  -23.3751  -35.9656   23.3295 H   0  0  0  0  0  0
  -24.3591  -36.8941   22.2053 H   0  0  0  0  0  0
  -23.7227  -37.6531   23.6644 H   0  0  0  0  0  0
  -26.0054  -31.6134   20.5755 H   0  0  0  0  0  0
  -26.8069  -30.9259   21.9609 H   0  0  0  0  0  0
  -28.0727  -29.2101   21.1591 H   0  0  0  0  0  0
  -26.1304  -25.9949   19.0198 H   0  0  0  0  0  0
  -24.0068  -27.2752   19.0402 H   0  0  0  0  0  0
  -23.7010  -30.5828   19.4007 H   0  0  0  0  0  0
  -22.7299  -29.2233   19.8789 H   0  0  0  0  0  0
  -25.1272  -36.1999   25.0839 H   0  0  0  0  0  0
  -20.9932  -28.3193   24.1467 H   0  0  0  0  0  0
  -20.5653  -26.2247   23.3600 H   0  0  0  0  0  0
  -21.6628  -26.7440   22.1220 H   0  0  0  0  0  0
  -19.6905  -25.6302   21.1224 H   0  0  0  0  0  0
  -19.6678  -27.3209   20.6753 H   0  0  0  0  0  0
  -17.4188  -26.6672   21.4011 H   0  0  0  0  0  0
  -18.0309  -26.0043   22.8996 H   0  0  0  0  0  0
  -19.7918  -30.7237   24.2306 H   0  0  0  0  0  0
  -17.5000  -31.6262   24.5157 H   0  0  0  0  0  0
  -15.5338  -30.2990   23.7627 H   0  0  0  0  0  0
  -15.8652  -28.0820   22.7048 H   0  0  0  0  0  0
  -24.5930  -30.7016   25.7804 H   0  0  0  0  0  0
  -24.8944  -32.2815   26.4953 H   0  0  0  0  0  0
  -25.8137  -30.8819   27.0196 H   0  0  0  0  0  0
  -26.2784  -29.6829   24.1119 H   0  0  0  0  0  0
  -27.4144  -29.7289   25.4418 H   0  0  0  0  0  0
  -27.8577  -30.4417   23.9067 H   0  0  0  0  0  0
  -27.2681  -33.3586   26.2082 H   0  0  0  0  0  0
  -28.3831  -32.6888   25.0265 H   0  0  0  0  0  0
  -28.0745  -31.8396   26.5331 H   0  0  0  0  0  0
  -28.2591  -38.0122   24.7558 H   0  0  0  0  0  0
  -28.1097  -36.2663   24.6217 H   0  0  0  0  0  0
  -27.2320  -37.1382   25.8865 H   0  0  0  0  0  0
  -20.9269  -29.8732   21.6980 H   0  0  0  0  0  0
  -26.0184  -38.2888   24.1440 H   0  0  0  0  0  0
  -30.0441  -20.7649   22.2409 H   0  0  0  0  0  0
  -30.9451  -21.9602   23.1549 H   0  0  0  0  0  0
  -31.8068  -20.8588   22.0884 H   0  0  0  0  0  0
  -28.9091  -14.9187   23.1352 H   0  0  0  0  0  0
  -28.1587  -15.4826   21.6216 H   0  0  0  0  0  0
  -28.7968  -16.6045   22.7868 H   0  0  0  0  0  0
  -31.2552  -16.4625   23.4618 H   0  0  0  0  0  0
  -32.4360  -15.7281   22.3959 H   0  0  0  0  0  0
  -31.3798  -14.7146   23.3685 H   0  0  0  0  0  0
  -29.7131  -19.0249   16.8015 H   0  0  0  0  0  0
  -28.2986  -18.1822   17.4353 H   0  0  0  0  0  0
  -29.7353  -17.2785   16.9532 H   0  0  0  0  0  0
  -31.6981  -20.1486   19.8753 H   0  0  0  0  0  0
  -31.2768  -20.5362   18.2565 H   0  0  0  0  0  0
  -31.1214  -26.6683   20.0604 H   0  0  0  0  0  0
  -31.2866  -26.1897   21.7201 H   0  0  0  0  0  0
  -30.4011  -17.7931   21.5549 H   0  0  0  0  0  0
  -31.5477  -17.0585   20.5004 H   0  0  0  0  0  0
  -28.7892  -20.1147   18.9021 H   0  0  0  0  0  0
  -29.3580  -19.5632   20.4398 H   0  0  0  0  0  0
  -28.5246  -17.2673   19.9965 H   0  0  0  0  0  0
  -29.5817  -16.2673   19.0397 H   0  0  0  0  0  0
  -29.4819  -27.7364   21.5342 H   0  0  0  0  0  0
  -28.7944  -26.1953   21.9942 H   0  0  0  0  0  0
  -30.9334  -18.2636   18.6992 H   0  0  0  0  0  0
  1 25  1  0  0  0
  1 30  2  0  0  0
  1 86  1  0  0  0
  2  3  1  0  0  0
  2 25  1  0  0  0
  2 93  1  0  0  0
  2 94  1  0  0  0
  3  4  1  0  0  0
  3 95  1  0  0  0
  3 96  1  0  0  0
  4  5  1  0  0  0
  4 97  1  0  0  0
  4 98  1  0  0  0
  5  6  1  0  0  0
  5 26  1  0  0  0
  5 99  1  0  0  0
  6 25  1  0  0  0
  6100  1  0  0  0
  6101  1  0  0  0
  7  8  2  0  0  0
  7 26  1  0  0  0
  7 29  1  0  0  0
  8  9  1  0  0  0
  8 22  1  0  0  0
  9 10  1  0  0  0
  9 27  2  0  0  0
 10 11  2  0  0  0
 10 15  1  0  0  0
 11 12  1  0  0  0
 11102  1  0  0  0
 12 13  2  0  0  0
 12103  1  0  0  0
 13 14  1  0  0  0
 13 31  1  0  0  0
 14 15  2  0  0  0
 14104  1  0  0  0
 15105  1  0  0  0
 16 17  2  0  0  0
 16 21  1  0  0  0
 16 31  1  0  0  0
 17 18  1  0  0  0
 17106  1  0  0  0
 18 19  2  0  0  0
 18107  1  0  0  0
 19 20  1  0  0  0
 19 24  1  0  0  0
 20 21  2  0  0  0
 20108  1  0  0  0
 21 23  1  0  0  0
 22 28  1  0  0  0
 22 32  2  0  0  0
 26 27  1  0  0  0
 28109  1  0  0  0
 28110  1  0  0  0
 29111  1  0  0  0
 29112  1  0  0  0
 33 34  1  0  0  0
 33 66  1  0  0  0
 33 70  2  0  0  0
 34 36  1  0  0  0
 34 59  1  0  0  0
 34113  1  0  0  0
 35 44  2  0  0  0
 35 45  1  0  0  0
 35 68  1  0  0  0
 36 56  1  0  0  0
 36114  1  0  0  0
 37 39  1  0  0  0
 37 47  1  0  0  0
 37 66  1  0  0  0
 37115  1  0  0  0
 38 43  2  0  0  0
 38 46  1  0  0  0
 38 47  1  0  0  0
 39 64  1  0  0  0
 39 67  2  0  0  0
 40 52  1  0  0  0
 40 53  2  0  0  0
 40 58  1  0  0  0
 41116  1  0  0  0
 41117  1  0  0  0
 41118  1  0  0  0
 41 48  1  0  0  0
 42 43  1  0  0  0
 42 66  1  0  0  0
 42119  1  0  0  0
 42120  1  0  0  0
 43 44  1  0  0  0
 44121  1  0  0  0
 45 46  2  0  0  0
 45122  1  0  0  0
 46123  1  0  0  0
 47124  1  0  0  0
 47125  1  0  0  0
 48 56  1  0  0  0
 48 65  1  0  0  0
 48126  1  0  0  0
 49 50  1  0  0  0
 49 53  1  0  0  0
 49 64  1  0  0  0
 49127  1  0  0  0
 50 51  1  0  0  0
 50128  1  0  0  0
 50129  1  0  0  0
 51 52  1  0  0  0
 51130  1  0  0  0
 51131  1  0  0  0
 52132  1  0  0  0
 52133  1  0  0  0
 53 54  1  0  0  0
 54 55  2  0  0  0
 54134  1  0  0  0
 55 57  1  0  0  0
 55135  1  0  0  0
 56 69  2  0  0  0
 57 58  2  0  0  0
 57136  1  0  0  0
 58137  1  0  0  0
 59 60  1  0  0  0
 59 61  1  0  0  0
 59 62  1  0  0  0
 60138  1  0  0  0
 60139  1  0  0  0
 60140  1  0  0  0
 61141  1  0  0  0
 61142  1  0  0  0
 61143  1  0  0  0
 62144  1  0  0  0
 62145  1  0  0  0
 62146  1  0  0  0
 63 65  1  0  0  0
 63147  1  0  0  0
 63148  1  0  0  0
 63149  1  0  0  0
 64150  1  0  0  0
 65151  1  0  0  0
 68 84  1  0  0  0
 71 72  2  0  0  0
 71 73  1  0  0  0
 71 79  1  0  0  0
 72 75  1  0  0  0
 72 87  1  0  0  0
 73 85  1  0  0  0
 73 88  2  0  0  0
 74 80  1  0  0  0
 74 87  2  0  0  0
 74 88  1  0  0  0
 75152  1  0  0  0
 75153  1  0  0  0
 75154  1  0  0  0
 76155  1  0  0  0
 76156  1  0  0  0
 76157  1  0  0  0
 76 86  1  0  0  0
 77 86  1  0  0  0
 77158  1  0  0  0
 77159  1  0  0  0
 77160  1  0  0  0
 78161  1  0  0  0
 78162  1  0  0  0
 78163  1  0  0  0
 78 89  1  0  0  0
 79 82  1  0  0  0
 79164  1  0  0  0
 79165  1  0  0  0
 80 84  1  0  0  0
 80166  1  0  0  0
 80167  1  0  0  0
 81 83  1  0  0  0
 81 86  1  0  0  0
 81168  1  0  0  0
 81169  1  0  0  0
 82 89  1  0  0  0
 82170  1  0  0  0
 82171  1  0  0  0
 83 89  1  0  0  0
 83172  1  0  0  0
 83173  1  0  0  0
 84174  1  0  0  0
 84175  1  0  0  0
 85 90  1  0  0  0
 85 91  1  0  0  0
 85 92  1  0  0  0
 89176  1  0  0  0
M  CHG  1  89   1
M  ISO  4   1 100  68 101  84 101  86 100
M  END
> <chiral flag>
0

> <version>
0

> <s_m_source_file>
/data/baiqing/PycharmProjects/Reinvent-master-3.2/result/LINK_invent/BTK/process_docking_weight1_custom_sum_contain_oxygen_bond_distance_aromatic_linkinvent_7_9_3/rearranged_h_0050.sdf

> <i_m_source_file_index>
9

> <r_mmod_Potential_Energy-OPLS-2005>
-351.529022216797

> <r_mmod_Stretch_Energy-OPLS-2005>
42.8050155639648

> <r_mmod_Bend_Energy-OPLS-2005>
140.858322143555

> <r_mmod_Torsional_Energy-OPLS-2005>
186.706466674805

> <r_mmod_Improper_Torsional_Energy-OPLS-2005>
2.17208909988403

> <r_mmod_Van_der_Waal_Energy-OPLS-2005>
171.590972900391

> <r_mmod_Electrostatic_Energy-OPLS-2005>
-469.685516357422

> <r_mmod_Solvation_Energy-OPLS-2005>
-433.654235839844

> <b_mmod_Minimization_Converged-OPLS-2005>
0

> <r_mmod_RMS_Derivative-OPLS-2005>
1.83408677577972

$$$$
9
                    3D
 Structure written by MMmdl.
160168  0  0  1  0            999 V2000
  -30.6520  -14.8207   20.2586 C   0  0  0  0  0  0
  -30.4280  -12.4660   19.4781 C   0  0  0  0  0  0
  -29.5116  -12.3985   18.2399 C   0  0  0  0  0  0
  -28.0364  -12.2274   18.6644 C   0  0  0  0  0  0
  -27.6111  -13.1746   19.8146 C   0  0  2  0  0  0
  -28.6824  -13.3077   20.9204 C   0  0  0  0  0  0
  -25.2519  -13.8015   20.5798 C   0  0  0  0  0  0
  -24.1767  -13.0335   20.9293 C   0  0  0  0  0  0
  -24.6312  -11.6814   20.8848 C   0  0  0  0  0  0
  -23.9000  -10.4237   21.0475 C   0  0  0  0  0  0
  -24.3586   -9.4156   21.9230 C   0  0  0  0  0  0
  -23.6279   -8.2191   22.0777 C   0  0  0  0  0  0
  -22.4265   -8.0230   21.3551 C   0  0  0  0  0  0
  -21.9888   -9.0205   20.4668 C   0  0  0  0  0  0
  -22.7189  -10.2091   20.3099 C   0  0  0  0  0  0
  -21.6846   -6.0709   22.5274 C   0  0  0  0  0  0
  -21.3998   -6.5616   23.8199 C   0  0  0  0  0  0
  -21.3677   -5.6777   24.9170 C   0  0  0  0  0  0
  -21.6062   -4.3038   24.7225 C   0  0  0  0  0  0
  -21.8826   -3.8128   23.4343 C   0  0  0  0  0  0
  -21.9194   -4.6940   22.3397 C   0  0  0  0  0  0
  -22.7806  -13.5185   21.1871 C   0  0  0  0  0  0
  -22.1642   -4.2130   21.0972 F   0  0  0  0  0  0
  -21.5671   -3.4523   25.7742 F   0  0  0  0  0  0
  -29.9719  -13.6158   20.2880 N   0  0  0  0  0  0
  -26.2836  -12.9068   20.3343 N   0  0  0  0  0  0
  -25.9211  -11.6305   20.5897 N   0  0  0  0  0  0
  -22.0408  -12.8219   22.0423 N   0  0  0  0  0  0
  -25.4232  -15.1731   20.4225 N   0  0  0  0  0  0
  -31.8773  -14.7570   20.3702 O   0  0  0  0  0  0
  -21.6632   -6.8827   21.4231 O   0  0  0  0  0  0
  -22.3546  -14.5478   20.6657 O   0  0  0  0  0  0
  -24.6248  -31.8573   23.1964 C   0  0  0  0  0  0
  -25.9096  -32.4758   23.8314 C   0  0  1  0  0  0
  -27.2305  -27.2965   20.1228 C   0  0  0  0  0  0
  -25.5901  -33.8558   24.2246 N   0  0  0  0  0  0
  -23.4209  -30.4768   21.5392 C   0  0  2  0  0  0
  -24.8675  -28.9201   20.1065 C   0  0  0  0  0  0
  -22.7459  -29.4619   22.4921 C   0  0  0  0  0  0
  -18.0292  -28.1379   22.8492 C   0  0  0  0  0  0
  -24.1487  -36.7281   23.2645 C   0  0  0  0  0  0
  -25.9598  -30.7777   21.3723 C   0  0  0  0  0  0
  -26.0330  -29.4021   20.7158 C   0  0  0  0  0  0
  -27.2094  -28.5993   20.7162 C   0  0  0  0  0  0
  -26.0450  -26.8621   19.4925 C   0  0  0  0  0  0
  -24.8771  -27.6571   19.4861 C   0  0  0  0  0  0
  -23.6358  -29.8020   20.1564 C   0  0  0  0  0  0
  -25.4110  -36.3064   24.0337 C   0  0  1  0  0  0
  -20.5884  -28.3693   23.1280 C   0  0  2  0  0  0
  -20.6788  -26.9412   22.5419 C   0  0  0  0  0  0
  -19.5778  -26.6377   21.5213 C   0  0  0  0  0  0
  -18.1951  -26.7919   22.1618 C   0  0  0  0  0  0
  -19.1539  -28.8857   23.2883 C   0  0  0  0  0  0
  -18.9458  -30.1454   23.8899 C   0  0  0  0  0  0
  -17.6459  -30.6585   24.0561 C   0  0  0  0  0  0
  -25.9060  -34.9439   23.5102 C   0  0  0  0  0  0
  -16.5356  -29.9086   23.6329 C   0  0  0  0  0  0
  -16.7275  -28.6501   23.0348 C   0  0  0  0  0  0
  -26.4469  -31.6584   25.0700 C   0  0  0  0  0  0
  -25.3701  -31.3737   26.1433 C   0  0  0  0  0  0
  -27.0319  -30.3013   24.6154 C   0  0  0  0  0  0
  -27.6028  -32.4328   25.7473 C   0  0  0  0  0  0
  -27.5573  -37.1795   24.8468 C   0  0  0  0  0  0
  -21.4169  -29.3061   22.3678 N   0  0  0  0  0  0
  -26.4283  -37.3762   23.9416 N   0  0  0  0  0  0
  -24.6867  -31.0558   22.0922 N   0  0  0  0  0  0
  -23.4179  -28.8171   23.3018 O   0  0  0  0  0  0
  -28.3734  -26.4847   20.2198 O   0  0  0  0  0  0
  -26.5626  -34.8923   22.4657 O   0  0  0  0  0  0
  -23.5413  -32.1387   23.7298 O   0  0  0  0  0  0
  -30.5705  -19.4550   21.4376 C   0  0  0  0  0  0
  -30.9178  -18.1284   21.2378 C   0  0  0  0  0  0
  -29.4552  -19.7211   20.5857 C   0  0  0  0  0  0
  -27.4539  -20.9117   21.5569 C   0  0  0  0  0  0
  -31.1383  -16.4928   18.4271 C   0  0  0  0  0  0
  -28.7754  -16.0820   18.8190 C   0  0  0  0  0  0
  -28.1242  -23.7643   20.3553 C   0  0  0  0  0  0
  -29.1215  -22.4832   20.3521 C   0  0  0  0  0  0
  -28.5306  -25.1342   19.6185 C   0  0  0  0  0  0
  -28.5163  -20.9911   20.4489 C   0  0  1  0  0  0
  -30.1157  -16.2190   19.5657 C   0  0  0  0  0  0
  -29.1734  -18.5694   19.9422 N   0  0  0  0  0  0
  -30.0479  -17.5515   20.3275 N   0  0  0  0  0  0
  -31.4685  -12.5629   19.1673 H   0  0  0  0  0  0
  -30.3724  -11.5414   20.0585 H   0  0  0  0  0  0
  -29.8087  -11.5541   17.6182 H   0  0  0  0  0  0
  -29.6405  -13.2843   17.6202 H   0  0  0  0  0  0
  -27.9123  -11.1921   18.9827 H   0  0  0  0  0  0
  -27.3826  -12.3602   17.8017 H   0  0  0  0  0  0
  -27.4724  -14.1083   19.3157 H   0  0  0  0  0  0
  -28.7561  -12.3902   21.5048 H   0  0  0  0  0  0
  -28.4158  -14.1054   21.6154 H   0  0  0  0  0  0
  -25.2724   -9.5646   22.4815 H   0  0  0  0  0  0
  -24.0007   -7.4591   22.7495 H   0  0  0  0  0  0
  -21.0812   -8.8714   19.8976 H   0  0  0  0  0  0
  -22.3650  -10.9651   19.6226 H   0  0  0  0  0  0
  -21.1961   -7.6122   23.9679 H   0  0  0  0  0  0
  -21.1507   -6.0515   25.9072 H   0  0  0  0  0  0
  -22.0606   -2.7588   23.2847 H   0  0  0  0  0  0
  -22.3994  -11.9877   22.4825 H   0  0  0  0  0  0
  -21.1040  -13.1291   22.2599 H   0  0  0  0  0  0
  -24.6619  -15.8296   20.5531 H   0  0  0  0  0  0
  -26.2763  -15.6138   20.1073 H   0  0  0  0  0  0
  -26.7163  -32.5428   23.1066 H   0  0  0  0  0  0
  -25.0033  -33.9697   25.0381 H   0  0  0  0  0  0
  -22.7162  -31.2979   21.3906 H   0  0  0  0  0  0
  -23.3746  -35.9615   23.3307 H   0  0  0  0  0  0
  -24.3591  -36.8892   22.2060 H   0  0  0  0  0  0
  -23.7257  -37.6488   23.6673 H   0  0  0  0  0  0
  -26.0974  -31.5367   20.6003 H   0  0  0  0  0  0
  -26.8400  -30.8290   22.0017 H   0  0  0  0  0  0
  -28.1024  -28.9595   21.2084 H   0  0  0  0  0  0
  -25.9959  -25.8882   19.0285 H   0  0  0  0  0  0
  -23.9803  -27.2806   19.0125 H   0  0  0  0  0  0
  -23.7541  -30.5751   19.3962 H   0  0  0  0  0  0
  -22.7553  -29.2286   19.8574 H   0  0  0  0  0  0
  -25.1294  -36.1896   25.0832 H   0  0  0  0  0  0
  -20.9985  -28.3272   24.1392 H   0  0  0  0  0  0
  -20.5682  -26.2292   23.3613 H   0  0  0  0  0  0
  -21.6661  -26.7453   22.1211 H   0  0  0  0  0  0
  -19.6943  -25.6281   21.1252 H   0  0  0  0  0  0
  -19.6714  -27.3173   20.6730 H   0  0  0  0  0  0
  -17.4208  -26.6629   21.4022 H   0  0  0  0  0  0
  -18.0371  -26.0070   22.9024 H   0  0  0  0  0  0
  -19.7939  -30.7257   24.2261 H   0  0  0  0  0  0
  -17.5029  -31.6270   24.5152 H   0  0  0  0  0  0
  -15.5364  -30.2984   23.7677 H   0  0  0  0  0  0
  -15.8663  -28.0828   22.7061 H   0  0  0  0  0  0
  -24.5864  -30.7087   25.7775 H   0  0  0  0  0  0
  -24.8897  -32.2918   26.4845 H   0  0  0  0  0  0
  -25.8023  -30.8929   27.0222 H   0  0  0  0  0  0
  -26.2892  -29.6767   24.1160 H   0  0  0  0  0  0
  -27.4022  -29.7255   25.4650 H   0  0  0  0  0  0
  -27.8766  -30.4316   23.9374 H   0  0  0  0  0  0
  -27.2616  -33.3629   26.2029 H   0  0  0  0  0  0
  -28.3834  -32.6877   25.0296 H   0  0  0  0  0  0
  -28.0694  -31.8466   26.5402 H   0  0  0  0  0  0
  -28.2583  -38.0088   24.7495 H   0  0  0  0  0  0
  -28.1068  -36.2623   24.6308 H   0  0  0  0  0  0
  -27.2299  -37.1455   25.8869 H   0  0  0  0  0  0
  -20.9353  -29.8785   21.6884 H   0  0  0  0  0  0
  -26.0157  -38.2834   24.1398 H   0  0  0  0  0  0
  -31.0544  -20.1450   22.1149 H   0  0  0  0  0  0
  -31.7351  -17.5541   21.6556 H   0  0  0  0  0  0
  -26.6799  -21.6700   21.4376 H   0  0  0  0  0  0
  -27.9057  -21.0361   22.5410 H   0  0  0  0  0  0
  -26.9521  -19.9441   21.5384 H   0  0  0  0  0  0
  -31.2691  -15.6224   17.7787 H   0  0  0  0  0  0
  -32.1204  -16.7518   18.8244 H   0  0  0  0  0  0
  -30.8352  -17.3246   17.7905 H   0  0  0  0  0  0
  -28.5860  -16.9271   18.1562 H   0  0  0  0  0  0
  -27.9556  -16.0864   19.5337 H   0  0  0  0  0  0
  -28.7465  -15.2215   18.1570 H   0  0  0  0  0  0
  -27.8571  -23.9881   21.3890 H   0  0  0  0  0  0
  -27.1855  -23.4539   19.8926 H   0  0  0  0  0  0
  -29.8206  -22.6130   21.1806 H   0  0  0  0  0  0
  -29.7318  -22.5291   19.4503 H   0  0  0  0  0  0
  -28.1106  -25.1380   18.6118 H   0  0  0  0  0  0
  -29.6031  -25.0622   19.4385 H   0  0  0  0  0  0
  -27.9651  -20.8632   19.5147 H   0  0  0  0  0  0
  1 25  1  0  0  0
  1 30  2  0  0  0
  1 81  1  0  0  0
  2  3  1  0  0  0
  2 25  1  0  0  0
  2 84  1  0  0  0
  2 85  1  0  0  0
  3  4  1  0  0  0
  3 86  1  0  0  0
  3 87  1  0  0  0
  4  5  1  0  0  0
  4 88  1  0  0  0
  4 89  1  0  0  0
  5  6  1  0  0  0
  5 26  1  0  0  0
  5 90  1  0  0  0
  6 25  1  0  0  0
  6 91  1  0  0  0
  6 92  1  0  0  0
  7  8  2  0  0  0
  7 26  1  0  0  0
  7 29  1  0  0  0
  8  9  1  0  0  0
  8 22  1  0  0  0
  9 10  1  0  0  0
  9 27  2  0  0  0
 10 11  2  0  0  0
 10 15  1  0  0  0
 11 12  1  0  0  0
 11 93  1  0  0  0
 12 13  2  0  0  0
 12 94  1  0  0  0
 13 14  1  0  0  0
 13 31  1  0  0  0
 14 15  2  0  0  0
 14 95  1  0  0  0
 15 96  1  0  0  0
 16 17  2  0  0  0
 16 21  1  0  0  0
 16 31  1  0  0  0
 17 18  1  0  0  0
 17 97  1  0  0  0
 18 19  2  0  0  0
 18 98  1  0  0  0
 19 20  1  0  0  0
 19 24  1  0  0  0
 20 21  2  0  0  0
 20 99  1  0  0  0
 21 23  1  0  0  0
 22 28  1  0  0  0
 22 32  2  0  0  0
 26 27  1  0  0  0
 28100  1  0  0  0
 28101  1  0  0  0
 29102  1  0  0  0
 29103  1  0  0  0
 33 34  1  0  0  0
 33 66  1  0  0  0
 33 70  2  0  0  0
 34 36  1  0  0  0
 34 59  1  0  0  0
 34104  1  0  0  0
 35 44  2  0  0  0
 35 45  1  0  0  0
 35 68  1  0  0  0
 36 56  1  0  0  0
 36105  1  0  0  0
 37 39  1  0  0  0
 37 47  1  0  0  0
 37 66  1  0  0  0
 37106  1  0  0  0
 38 43  2  0  0  0
 38 46  1  0  0  0
 38 47  1  0  0  0
 39 64  1  0  0  0
 39 67  2  0  0  0
 40 52  1  0  0  0
 40 53  2  0  0  0
 40 58  1  0  0  0
 41107  1  0  0  0
 41108  1  0  0  0
 41109  1  0  0  0
 41 48  1  0  0  0
 42 43  1  0  0  0
 42 66  1  0  0  0
 42110  1  0  0  0
 42111  1  0  0  0
 43 44  1  0  0  0
 44112  1  0  0  0
 45 46  2  0  0  0
 45113  1  0  0  0
 46114  1  0  0  0
 47115  1  0  0  0
 47116  1  0  0  0
 48 56  1  0  0  0
 48 65  1  0  0  0
 48117  1  0  0  0
 49 50  1  0  0  0
 49 53  1  0  0  0
 49 64  1  0  0  0
 49118  1  0  0  0
 50 51  1  0  0  0
 50119  1  0  0  0
 50120  1  0  0  0
 51 52  1  0  0  0
 51121  1  0  0  0
 51122  1  0  0  0
 52123  1  0  0  0
 52124  1  0  0  0
 53 54  1  0  0  0
 54 55  2  0  0  0
 54125  1  0  0  0
 55 57  1  0  0  0
 55126  1  0  0  0
 56 69  2  0  0  0
 57 58  2  0  0  0
 57127  1  0  0  0
 58128  1  0  0  0
 59 60  1  0  0  0
 59 61  1  0  0  0
 59 62  1  0  0  0
 60129  1  0  0  0
 60130  1  0  0  0
 60131  1  0  0  0
 61132  1  0  0  0
 61133  1  0  0  0
 61134  1  0  0  0
 62135  1  0  0  0
 62136  1  0  0  0
 62137  1  0  0  0
 63 65  1  0  0  0
 63138  1  0  0  0
 63139  1  0  0  0
 63140  1  0  0  0
 64141  1  0  0  0
 65142  1  0  0  0
 68 79  1  0  0  0
 71 72  2  0  0  0
 71 73  1  0  0  0
 71143  1  0  0  0
 72 83  1  0  0  0
 72144  1  0  0  0
 73 80  1  0  0  0
 73 82  2  0  0  0
 74145  1  0  0  0
 74146  1  0  0  0
 74147  1  0  0  0
 74 80  1  0  0  0
 75148  1  0  0  0
 75149  1  0  0  0
 75150  1  0  0  0
 75 81  1  0  0  0
 76 81  1  0  0  0
 76151  1  0  0  0
 76152  1  0  0  0
 76153  1  0  0  0
 77 78  1  0  0  0
 77 79  1  0  0  0
 77154  1  0  0  0
 77155  1  0  0  0
 78 80  1  0  0  0
 78156  1  0  0  0
 78157  1  0  0  0
 79158  1  0  0  0
 79159  1  0  0  0
 80160  1  0  0  0
 81 83  1  0  0  0
 82 83  1  0  0  0
M  ISO  4   1 100  68 101  79 101  81 100
M  END
> <chiral flag>
0

> <version>
0

> <s_m_source_file>
/data/baiqing/PycharmProjects/Reinvent-master-3.2/result/LINK_invent/BTK/process_docking_weight1_custom_sum_contain_oxygen_bond_distance_aromatic_linkinvent_7_9_3/rearranged_h_0050.sdf

> <i_m_source_file_index>
10

> <r_mmod_Potential_Energy-OPLS-2005>
365.010009765625

> <r_mmod_Stretch_Energy-OPLS-2005>
122.74063873291

> <r_mmod_Bend_Energy-OPLS-2005>
219.098175048828

> <r_mmod_Torsional_Energy-OPLS-2005>
263.002868652344

> <r_mmod_Improper_Torsional_Energy-OPLS-2005>
17.2941188812256

> <r_mmod_Van_der_Waal_Energy-OPLS-2005>
133.22932434082

> <r_mmod_Electrostatic_Energy-OPLS-2005>
-328.828826904297

> <r_mmod_Solvation_Energy-OPLS-2005>
-186.669952392578

> <b_mmod_Minimization_Converged-OPLS-2005>
0

> <r_mmod_RMS_Derivative-OPLS-2005>
3.16316080093384

$$$$
10
                    3D
 Structure written by MMmdl.
165173  0  0  1  0            999 V2000
  -30.7932  -14.4206   20.6337 C   0  0  0  0  0  0
  -30.3988  -12.3002   19.4235 C   0  0  0  0  0  0
  -29.4835  -12.5079   18.2032 C   0  0  0  0  0  0
  -28.0082  -12.3661   18.6166 C   0  0  0  0  0  0
  -27.6571  -13.2175   19.8633 C   0  0  2  0  0  0
  -28.6984  -13.0381   20.9886 C   0  0  0  0  0  0
  -25.2569  -13.8181   20.5685 C   0  0  0  0  0  0
  -24.1838  -13.0438   20.9176 C   0  0  0  0  0  0
  -24.6408  -11.6910   20.8727 C   0  0  0  0  0  0
  -23.9072  -10.4289   21.0398 C   0  0  0  0  0  0
  -24.3619   -9.4200   21.9180 C   0  0  0  0  0  0
  -23.6291   -8.2238   22.0753 C   0  0  0  0  0  0
  -22.4275   -8.0276   21.3538 C   0  0  0  0  0  0
  -21.9909   -9.0253   20.4643 C   0  0  0  0  0  0
  -22.7240  -10.2129   20.3051 C   0  0  0  0  0  0
  -21.6857   -6.0728   22.5272 C   0  0  0  0  0  0
  -21.4024   -6.5638   23.8202 C   0  0  0  0  0  0
  -21.3659   -5.6793   24.9166 C   0  0  0  0  0  0
  -21.6037   -4.3052   24.7223 C   0  0  0  0  0  0
  -21.8826   -3.8142   23.4345 C   0  0  0  0  0  0
  -21.9195   -4.6956   22.3398 C   0  0  0  0  0  0
  -22.7855  -13.5216   21.1853 C   0  0  0  0  0  0
  -22.1661   -4.2137   21.0973 F   0  0  0  0  0  0
  -21.5626   -3.4536   25.7736 F   0  0  0  0  0  0
  -30.0373  -13.3023   20.4404 N   0  0  0  0  0  0
  -26.3014  -12.9382   20.3335 N   0  0  0  0  0  0
  -25.9341  -11.6527   20.5758 N   0  0  0  0  0  0
  -22.0520  -12.8194   22.0412 N   0  0  0  0  0  0
  -25.4284  -15.1904   20.4116 N   0  0  0  0  0  0
  -31.8619  -14.5618   20.0432 O   0  0  0  0  0  0
  -21.6638   -6.8873   21.4235 O   0  0  0  0  0  0
  -22.3519  -14.5519   20.6705 O   0  0  0  0  0  0
  -24.6181  -31.8718   23.2175 C   0  0  0  0  0  0
  -25.9064  -32.4840   23.8455 C   0  0  1  0  0  0
  -27.2022  -27.4068   20.0757 C   0  0  0  0  0  0
  -25.5910  -33.8633   24.2362 N   0  0  0  0  0  0
  -23.4043  -30.5052   21.5620 C   0  0  2  0  0  0
  -24.8391  -28.9869   20.1118 C   0  0  0  0  0  0
  -22.7422  -29.4688   22.5006 C   0  0  0  0  0  0
  -18.0273  -28.1381   22.8492 C   0  0  0  0  0  0
  -24.1482  -36.7330   23.2638 C   0  0  0  0  0  0
  -25.9429  -30.8265   21.3783 C   0  0  0  0  0  0
  -26.0108  -29.4653   20.7134 C   0  0  0  0  0  0
  -27.1955  -28.6833   20.6967 C   0  0  0  0  0  0
  -26.0020  -26.9789   19.4455 C   0  0  0  0  0  0
  -24.8311  -27.7423   19.4767 C   0  0  0  0  0  0
  -23.6085  -29.8590   20.1708 C   0  0  0  0  0  0
  -25.4097  -36.3112   24.0354 C   0  0  1  0  0  0
  -20.5871  -28.3668   23.1320 C   0  0  2  0  0  0
  -20.6762  -26.9409   22.5407 C   0  0  0  0  0  0
  -19.5737  -26.6388   21.5208 C   0  0  0  0  0  0
  -18.1920  -26.7927   22.1626 C   0  0  0  0  0  0
  -19.1526  -28.8837   23.2906 C   0  0  0  0  0  0
  -18.9449  -30.1445   23.8906 C   0  0  0  0  0  0
  -17.6448  -30.6591   24.0556 C   0  0  0  0  0  0
  -25.9036  -34.9485   23.5150 C   0  0  0  0  0  0
  -16.5335  -29.9094   23.6336 C   0  0  0  0  0  0
  -16.7268  -28.6518   23.0346 C   0  0  0  0  0  0
  -26.4473  -31.6611   25.0782 C   0  0  0  0  0  0
  -25.3721  -31.3709   26.1515 C   0  0  0  0  0  0
  -27.0323  -30.3041   24.6204 C   0  0  0  0  0  0
  -27.6051  -32.4325   25.7531 C   0  0  0  0  0  0
  -27.5588  -37.1803   24.8470 C   0  0  0  0  0  0
  -21.4147  -29.3040   22.3722 N   0  0  0  0  0  0
  -26.4285  -37.3794   23.9426 N   0  0  0  0  0  0
  -24.6741  -31.0827   22.1087 N   0  0  0  0  0  0
  -23.4189  -28.8200   23.3021 O   0  0  0  0  0  0
  -28.3257  -26.5828   20.1126 O   0  0  0  0  0  0
  -26.5600  -34.8941   22.4715 O   0  0  0  0  0  0
  -23.5368  -32.1476   23.7568 O   0  0  0  0  0  0
  -28.5670  -20.3939   19.2951 C   0  0  0  0  0  0
  -29.2352  -19.1582   19.2605 C   0  0  0  0  0  0
  -30.1576  -21.1235   20.9555 C   0  0  0  0  0  0
  -29.0330  -21.4070   20.1576 C   0  0  0  0  0  0
  -30.3557  -18.9619   20.0888 C   0  0  0  0  0  0
  -30.4439  -15.1655   23.0373 C   0  0  0  0  0  0
  -32.5393  -18.6216   18.0259 C   0  0  0  0  0  0
  -28.2494  -22.7140   20.2704 C   0  0  0  0  0  0
  -29.0257  -24.0646   20.2619 C   0  0  0  0  0  0
  -31.2103  -16.8911   21.3770 C   0  0  0  0  0  0
  -28.0246  -25.1819   19.8920 C   0  0  0  0  0  0
  -31.1683  -17.6555   20.0148 C   0  0  2  0  0  0
  -30.3467  -15.5882   21.5541 C   0  0  1  0  0  0
  -32.5789  -17.9055   19.3883 C   0  0  0  0  0  0
  -30.8015  -19.9360   20.9213 N   0  0  0  0  0  0
  -33.2052  -16.7498   19.1746 F   0  0  0  0  0  0
  -33.3414  -18.6259   20.2132 F   0  0  0  0  0  0
  -31.4471  -12.3490   19.1246 H   0  0  0  0  0  0
  -30.2610  -11.2990   19.8341 H   0  0  0  0  0  0
  -29.7221  -11.7823   17.4241 H   0  0  0  0  0  0
  -29.6567  -13.4945   17.7696 H   0  0  0  0  0  0
  -27.8242  -11.3115   18.8260 H   0  0  0  0  0  0
  -27.3530  -12.6299   17.7854 H   0  0  0  0  0  0
  -27.6919  -14.2610   19.5493 H   0  0  0  0  0  0
  -28.6652  -12.0251   21.3914 H   0  0  0  0  0  0
  -28.4339  -13.6978   21.8106 H   0  0  0  0  0  0
  -25.2770   -9.5670   22.4745 H   0  0  0  0  0  0
  -23.9994   -7.4632   22.7483 H   0  0  0  0  0  0
  -21.0831   -8.8767   19.8958 H   0  0  0  0  0  0
  -22.3696  -10.9660   19.6152 H   0  0  0  0  0  0
  -21.2029   -7.6152   23.9700 H   0  0  0  0  0  0
  -21.1475   -6.0525   25.9064 H   0  0  0  0  0  0
  -22.0610   -2.7605   23.2846 H   0  0  0  0  0  0
  -22.4153  -11.9833   22.4748 H   0  0  0  0  0  0
  -21.1150  -13.1211   22.2676 H   0  0  0  0  0  0
  -24.6664  -15.8497   20.5283 H   0  0  0  0  0  0
  -26.2894  -15.6280   20.1094 H   0  0  0  0  0  0
  -26.7132  -32.5510   23.1213 H   0  0  0  0  0  0
  -24.9986  -33.9797   25.0455 H   0  0  0  0  0  0
  -22.6940  -31.3248   21.4377 H   0  0  0  0  0  0
  -23.3742  -35.9664   23.3300 H   0  0  0  0  0  0
  -24.3553  -36.8944   22.2046 H   0  0  0  0  0  0
  -23.7268  -37.6551   23.6655 H   0  0  0  0  0  0
  -26.0670  -31.5954   20.6154 H   0  0  0  0  0  0
  -26.8268  -30.8649   22.0026 H   0  0  0  0  0  0
  -28.0929  -29.0453   21.1822 H   0  0  0  0  0  0
  -25.9136  -26.0412   18.9201 H   0  0  0  0  0  0
  -23.9305  -27.3728   19.0043 H   0  0  0  0  0  0
  -23.7224  -30.6449   19.4237 H   0  0  0  0  0  0
  -22.7265  -29.2916   19.8687 H   0  0  0  0  0  0
  -25.1278  -36.1964   25.0851 H   0  0  0  0  0  0
  -20.9962  -28.3220   24.1447 H   0  0  0  0  0  0
  -20.5682  -26.2281   23.3591 H   0  0  0  0  0  0
  -21.6631  -26.7460   22.1198 H   0  0  0  0  0  0
  -19.6890  -25.6303   21.1241 H   0  0  0  0  0  0
  -19.6669  -27.3190   20.6735 H   0  0  0  0  0  0
  -17.4190  -26.6663   21.4028 H   0  0  0  0  0  0
  -18.0322  -26.0073   22.9027 H   0  0  0  0  0  0
  -19.7916  -30.7256   24.2282 H   0  0  0  0  0  0
  -17.5008  -31.6282   24.5138 H   0  0  0  0  0  0
  -15.5330  -30.2981   23.7698 H   0  0  0  0  0  0
  -15.8665  -28.0852   22.7040 H   0  0  0  0  0  0
  -24.5919  -30.7025   25.7859 H   0  0  0  0  0  0
  -24.8869  -32.2843   26.4952 H   0  0  0  0  0  0
  -25.8057  -30.8902   27.0291 H   0  0  0  0  0  0
  -26.2900  -29.6761   24.1254 H   0  0  0  0  0  0
  -27.4070  -29.7321   25.4711 H   0  0  0  0  0  0
  -27.8753  -30.4378   23.9418 H   0  0  0  0  0  0
  -27.2711  -33.3650   26.2100 H   0  0  0  0  0  0
  -28.3856  -32.6817   25.0330 H   0  0  0  0  0  0
  -28.0723  -31.8445   26.5443 H   0  0  0  0  0  0
  -28.2591  -38.0113   24.7538 H   0  0  0  0  0  0
  -28.1103  -36.2646   24.6268 H   0  0  0  0  0  0
  -27.2320  -37.1446   25.8877 H   0  0  0  0  0  0
  -20.9306  -29.8781   21.6956 H   0  0  0  0  0  0
  -26.0176  -38.2879   24.1393 H   0  0  0  0  0  0
  -27.6980  -20.5515   18.6735 H   0  0  0  0  0  0
  -28.8919  -18.3787   18.5943 H   0  0  0  0  0  0
  -30.5455  -21.8572   21.6462 H   0  0  0  0  0  0
  -30.0875  -15.9597   23.6931 H   0  0  0  0  0  0
  -31.4743  -14.9470   23.3176 H   0  0  0  0  0  0
  -29.8631  -14.2775   23.2768 H   0  0  0  0  0  0
  -31.9453  -18.0591   17.3046 H   0  0  0  0  0  0
  -33.5418  -18.7265   17.6094 H   0  0  0  0  0  0
  -32.1147  -19.6236   18.0977 H   0  0  0  0  0  0
  -27.6449  -22.6524   21.1765 H   0  0  0  0  0  0
  -27.5255  -22.7220   19.4530 H   0  0  0  0  0  0
  -29.8323  -24.0482   19.5267 H   0  0  0  0  0  0
  -29.4770  -24.2458   21.2357 H   0  0  0  0  0  0
  -30.9685  -17.5894   22.1782 H   0  0  0  0  0  0
  -32.2498  -16.6301   21.5776 H   0  0  0  0  0  0
  -27.1207  -24.9438   20.4594 H   0  0  0  0  0  0
  -27.7942  -25.0464   18.8352 H   0  0  0  0  0  0
  -30.6460  -17.0136   19.3043 H   0  0  0  0  0  0
  -29.3100  -15.8308   21.3180 H   0  0  0  0  0  0
  1 25  1  0  0  0
  1 30  2  0  0  0
  1 83  1  0  0  0
  2  3  1  0  0  0
  2 25  1  0  0  0
  2 88  1  0  0  0
  2 89  1  0  0  0
  3  4  1  0  0  0
  3 90  1  0  0  0
  3 91  1  0  0  0
  4  5  1  0  0  0
  4 92  1  0  0  0
  4 93  1  0  0  0
  5  6  1  0  0  0
  5 26  1  0  0  0
  5 94  1  0  0  0
  6 25  1  0  0  0
  6 95  1  0  0  0
  6 96  1  0  0  0
  7  8  2  0  0  0
  7 26  1  0  0  0
  7 29  1  0  0  0
  8  9  1  0  0  0
  8 22  1  0  0  0
  9 10  1  0  0  0
  9 27  2  0  0  0
 10 11  2  0  0  0
 10 15  1  0  0  0
 11 12  1  0  0  0
 11 97  1  0  0  0
 12 13  2  0  0  0
 12 98  1  0  0  0
 13 14  1  0  0  0
 13 31  1  0  0  0
 14 15  2  0  0  0
 14 99  1  0  0  0
 15100  1  0  0  0
 16 17  2  0  0  0
 16 21  1  0  0  0
 16 31  1  0  0  0
 17 18  1  0  0  0
 17101  1  0  0  0
 18 19  2  0  0  0
 18102  1  0  0  0
 19 20  1  0  0  0
 19 24  1  0  0  0
 20 21  2  0  0  0
 20103  1  0  0  0
 21 23  1  0  0  0
 22 28  1  0  0  0
 22 32  2  0  0  0
 26 27  1  0  0  0
 28104  1  0  0  0
 28105  1  0  0  0
 29106  1  0  0  0
 29107  1  0  0  0
 33 34  1  0  0  0
 33 66  1  0  0  0
 33 70  2  0  0  0
 34 36  1  0  0  0
 34 59  1  0  0  0
 34108  1  0  0  0
 35 44  2  0  0  0
 35 45  1  0  0  0
 35 68  1  0  0  0
 36 56  1  0  0  0
 36109  1  0  0  0
 37 39  1  0  0  0
 37 47  1  0  0  0
 37 66  1  0  0  0
 37110  1  0  0  0
 38 43  2  0  0  0
 38 46  1  0  0  0
 38 47  1  0  0  0
 39 64  1  0  0  0
 39 67  2  0  0  0
 40 52  1  0  0  0
 40 53  2  0  0  0
 40 58  1  0  0  0
 41111  1  0  0  0
 41112  1  0  0  0
 41113  1  0  0  0
 41 48  1  0  0  0
 42 43  1  0  0  0
 42 66  1  0  0  0
 42114  1  0  0  0
 42115  1  0  0  0
 43 44  1  0  0  0
 44116  1  0  0  0
 45 46  2  0  0  0
 45117  1  0  0  0
 46118  1  0  0  0
 47119  1  0  0  0
 47120  1  0  0  0
 48 56  1  0  0  0
 48 65  1  0  0  0
 48121  1  0  0  0
 49 50  1  0  0  0
 49 53  1  0  0  0
 49 64  1  0  0  0
 49122  1  0  0  0
 50 51  1  0  0  0
 50123  1  0  0  0
 50124  1  0  0  0
 51 52  1  0  0  0
 51125  1  0  0  0
 51126  1  0  0  0
 52127  1  0  0  0
 52128  1  0  0  0
 53 54  1  0  0  0
 54 55  2  0  0  0
 54129  1  0  0  0
 55 57  1  0  0  0
 55130  1  0  0  0
 56 69  2  0  0  0
 57 58  2  0  0  0
 57131  1  0  0  0
 58132  1  0  0  0
 59 60  1  0  0  0
 59 61  1  0  0  0
 59 62  1  0  0  0
 60133  1  0  0  0
 60134  1  0  0  0
 60135  1  0  0  0
 61136  1  0  0  0
 61137  1  0  0  0
 61138  1  0  0  0
 62139  1  0  0  0
 62140  1  0  0  0
 62141  1  0  0  0
 63 65  1  0  0  0
 63142  1  0  0  0
 63143  1  0  0  0
 63144  1  0  0  0
 64145  1  0  0  0
 65146  1  0  0  0
 68 81  1  0  0  0
 71 72  2  0  0  0
 71 74  1  0  0  0
 71147  1  0  0  0
 72 75  1  0  0  0
 72148  1  0  0  0
 73 74  2  0  0  0
 73 85  1  0  0  0
 73149  1  0  0  0
 74 78  1  0  0  0
 75 82  1  0  0  0
 75 85  2  0  0  0
 76150  1  0  0  0
 76151  1  0  0  0
 76152  1  0  0  0
 76 83  1  0  0  0
 77153  1  0  0  0
 77154  1  0  0  0
 77155  1  0  0  0
 77 84  1  0  0  0
 78 79  1  0  0  0
 78156  1  0  0  0
 78157  1  0  0  0
 79 81  1  0  0  0
 79158  1  0  0  0
 79159  1  0  0  0
 80 83  1  0  0  0
 80160  1  0  0  0
 80161  1  0  0  0
 80 82  1  0  0  0
 81162  1  0  0  0
 81163  1  0  0  0
 82 84  1  0  0  0
 82164  1  0  0  0
 83165  1  0  0  0
 84 86  1  0  0  0
 84 87  1  0  0  0
M  ISO  4   1 100  68 101  81 101  83 100
M  END
> <chiral flag>
0

> <version>
0

> <s_m_source_file>
/data/baiqing/PycharmProjects/Reinvent-master-3.2/result/LINK_invent/BTK/process_docking_weight1_custom_sum_contain_oxygen_bond_distance_aromatic_linkinvent_7_9_3/rearranged_h_0050.sdf

> <i_m_source_file_index>
11

> <r_mmod_Potential_Energy-OPLS-2005>
-78.6908721923828

> <r_mmod_Stretch_Energy-OPLS-2005>
44.6978607177734

> <r_mmod_Bend_Energy-OPLS-2005>
119.473922729492

> <r_mmod_Torsional_Energy-OPLS-2005>
178.0322265625

> <r_mmod_Improper_Torsional_Energy-OPLS-2005>
1.97661018371582

> <r_mmod_Van_der_Waal_Energy-OPLS-2005>
172.090560913086

> <r_mmod_Electrostatic_Energy-OPLS-2005>
-415.730133056641

> <r_mmod_Solvation_Energy-OPLS-2005>
-198.68879699707

> <b_mmod_Minimization_Converged-OPLS-2005>
0

> <r_mmod_RMS_Derivative-OPLS-2005>
2.3244309425354

$$$$
11
                    3D
 Structure written by MMmdl.
152160  0  0  1  0            999 V2000
  -30.6477  -14.7269   20.5145 C   0  0  0  0  0  0
  -30.4378  -12.4565   19.4760 C   0  0  0  0  0  0
  -29.5076  -12.5125   18.2428 C   0  0  0  0  0  0
  -28.0322  -12.3408   18.6551 C   0  0  0  0  0  0
  -27.6493  -13.2249   19.8712 C   0  0  2  0  0  0
  -28.6979  -13.1031   20.9961 C   0  0  0  0  0  0
  -25.2538  -13.8194   20.5738 C   0  0  0  0  0  0
  -24.1809  -13.0442   20.9217 C   0  0  0  0  0  0
  -24.6390  -11.6919   20.8773 C   0  0  0  0  0  0
  -23.9068  -10.4294   21.0425 C   0  0  0  0  0  0
  -24.3622   -9.4208   21.9195 C   0  0  0  0  0  0
  -23.6297   -8.2237   22.0755 C   0  0  0  0  0  0
  -22.4280   -8.0281   21.3551 C   0  0  0  0  0  0
  -21.9925   -9.0257   20.4649 C   0  0  0  0  0  0
  -22.7242  -10.2137   20.3069 C   0  0  0  0  0  0
  -21.6850   -6.0746   22.5286 C   0  0  0  0  0  0
  -21.4011   -6.5649   23.8219 C   0  0  0  0  0  0
  -21.3658   -5.6798   24.9182 C   0  0  0  0  0  0
  -21.6040   -4.3063   24.7228 C   0  0  0  0  0  0
  -21.8822   -3.8158   23.4349 C   0  0  0  0  0  0
  -21.9190   -4.6973   22.3409 C   0  0  0  0  0  0
  -22.7829  -13.5221   21.1869 C   0  0  0  0  0  0
  -22.1661   -4.2165   21.0983 F   0  0  0  0  0  0
  -21.5627   -3.4541   25.7737 F   0  0  0  0  0  0
  -29.9923  -13.5089   20.4259 N   0  0  0  0  0  0
  -26.2974  -12.9381   20.3407 N   0  0  0  0  0  0
  -25.9326  -11.6529   20.5827 N   0  0  0  0  0  0
  -22.0487  -12.8203   22.0431 N   0  0  0  0  0  0
  -25.4254  -15.1908   20.4141 N   0  0  0  0  0  0
  -31.8094  -14.7929   20.0981 O   0  0  0  0  0  0
  -21.6639   -6.8885   21.4247 O   0  0  0  0  0  0
  -22.3506  -14.5534   20.6727 O   0  0  0  0  0  0
  -24.6332  -31.8546   23.1989 C   0  0  0  0  0  0
  -25.9158  -32.4745   23.8321 C   0  0  1  0  0  0
  -27.2161  -27.2576   20.1160 C   0  0  0  0  0  0
  -25.5959  -33.8545   24.2246 N   0  0  0  0  0  0
  -23.4294  -30.4799   21.5426 C   0  0  2  0  0  0
  -24.8739  -28.9315   20.1070 C   0  0  0  0  0  0
  -22.7513  -29.4600   22.4899 C   0  0  0  0  0  0
  -18.0304  -28.1397   22.8474 C   0  0  0  0  0  0
  -24.1501  -36.7282   23.2637 C   0  0  0  0  0  0
  -25.9776  -30.7653   21.3802 C   0  0  0  0  0  0
  -26.0481  -29.3895   20.7189 C   0  0  0  0  0  0
  -27.2210  -28.5647   20.7138 C   0  0  0  0  0  0
  -26.0149  -26.8763   19.4719 C   0  0  0  0  0  0
  -24.8636  -27.6827   19.4742 C   0  0  0  0  0  0
  -23.6461  -29.8191   20.1571 C   0  0  0  0  0  0
  -25.4127  -36.3056   24.0314 C   0  0  1  0  0  0
  -20.5904  -28.3700   23.1268 C   0  0  2  0  0  0
  -20.6788  -26.9418   22.5411 C   0  0  0  0  0  0
  -19.5762  -26.6391   21.5217 C   0  0  0  0  0  0
  -18.1939  -26.7939   22.1622 C   0  0  0  0  0  0
  -19.1553  -28.8868   23.2866 C   0  0  0  0  0  0
  -18.9472  -30.1466   23.8891 C   0  0  0  0  0  0
  -17.6471  -30.6593   24.0560 C   0  0  0  0  0  0
  -25.9072  -34.9429   23.5081 C   0  0  0  0  0  0
  -16.5359  -29.9086   23.6338 C   0  0  0  0  0  0
  -16.7286  -28.6511   23.0351 C   0  0  0  0  0  0
  -26.4522  -31.6571   25.0719 C   0  0  0  0  0  0
  -25.3737  -31.3718   26.1432 C   0  0  0  0  0  0
  -27.0367  -30.2984   24.6212 C   0  0  0  0  0  0
  -27.6079  -32.4310   25.7486 C   0  0  0  0  0  0
  -27.5574  -37.1791   24.8463 C   0  0  0  0  0  0
  -21.4217  -29.3045   22.3652 N   0  0  0  0  0  0
  -26.4293  -37.3752   23.9401 N   0  0  0  0  0  0
  -24.6991  -31.0510   22.0966 N   0  0  0  0  0  0
  -23.4216  -28.8126   23.2983 O   0  0  0  0  0  0
  -28.3031  -26.3468   20.1752 O   0  0  0  0  0  0
  -26.5638  -34.8900   22.4651 O   0  0  0  0  0  0
  -23.5477  -32.1372   23.7281 O   0  0  0  0  0  0
  -29.0798  -19.6135   19.6309 C   0  0  0  0  0  0
  -29.8092  -18.6817   20.3625 C   0  0  0  0  0  0
  -29.1579  -16.1045   21.9643 C   0  0  0  0  0  0
  -30.2931  -17.2145   19.9986 C   0  0  0  0  0  0
  -29.0051  -23.6469   20.2912 C   0  0  0  0  0  0
  -28.4207  -22.1689   19.9826 C   0  0  0  0  0  0
  -28.0198  -24.8852   19.9426 C   0  0  0  0  0  0
  -30.2953  -19.4209   21.4542 N   0  0  0  0  0  0
  -29.8759  -20.6722   21.4224 N   0  0  0  0  0  0
  -29.1506  -20.8640   20.2891 N   0  0  0  0  0  0
  -29.9428  -15.9175   20.7398 N   0  0  0  0  0  0
  -31.4752  -12.5825   19.1610 H   0  0  0  0  0  0
  -30.4007  -11.4725   19.9477 H   0  0  0  0  0  0
  -29.7860  -11.7418   17.5230 H   0  0  0  0  0  0
  -29.6343  -13.4690   17.7344 H   0  0  0  0  0  0
  -27.8785  -11.2897   18.9028 H   0  0  0  0  0  0
  -27.3739  -12.5504   17.8121 H   0  0  0  0  0  0
  -27.6607  -14.2574   19.5223 H   0  0  0  0  0  0
  -28.7497  -12.0731   21.3532 H   0  0  0  0  0  0
  -28.4123  -13.6806   21.8698 H   0  0  0  0  0  0
  -25.2764   -9.5679   22.4776 H   0  0  0  0  0  0
  -24.0013   -7.4629   22.7469 H   0  0  0  0  0  0
  -21.0864   -8.8770   19.8949 H   0  0  0  0  0  0
  -22.3702  -10.9686   19.6189 H   0  0  0  0  0  0
  -21.2005   -7.6156   23.9731 H   0  0  0  0  0  0
  -21.1477   -6.0526   25.9084 H   0  0  0  0  0  0
  -22.0606   -2.7622   23.2845 H   0  0  0  0  0  0
  -22.4087  -11.9833   22.4775 H   0  0  0  0  0  0
  -21.1125  -13.1256   22.2695 H   0  0  0  0  0  0
  -24.6651  -15.8524   20.5307 H   0  0  0  0  0  0
  -26.2821  -15.6281   20.0992 H   0  0  0  0  0  0
  -26.7212  -32.5376   23.1043 H   0  0  0  0  0  0
  -25.0095  -33.9683   25.0380 H   0  0  0  0  0  0
  -22.7264  -31.3028   21.3983 H   0  0  0  0  0  0
  -23.3752  -35.9624   23.3307 H   0  0  0  0  0  0
  -24.3593  -36.8914   22.2052 H   0  0  0  0  0  0
  -23.7272  -37.6489   23.6670 H   0  0  0  0  0  0
  -26.1211  -31.5246   20.6105 H   0  0  0  0  0  0
  -26.8551  -30.8107   22.0136 H   0  0  0  0  0  0
  -28.1170  -28.9054   21.2130 H   0  0  0  0  0  0
  -25.9204  -25.9253   18.9708 H   0  0  0  0  0  0
  -23.9658  -27.3270   18.9874 H   0  0  0  0  0  0
  -23.7697  -30.5988   19.4046 H   0  0  0  0  0  0
  -22.7626  -29.2558   19.8506 H   0  0  0  0  0  0
  -25.1305  -36.1890   25.0802 H   0  0  0  0  0  0
  -20.9991  -28.3277   24.1388 H   0  0  0  0  0  0
  -20.5718  -26.2292   23.3608 H   0  0  0  0  0  0
  -21.6647  -26.7458   22.1177 H   0  0  0  0  0  0
  -19.6931  -25.6311   21.1240 H   0  0  0  0  0  0
  -19.6711  -27.3202   20.6753 H   0  0  0  0  0  0
  -17.4209  -26.6684   21.4026 H   0  0  0  0  0  0
  -18.0336  -26.0093   22.9034 H   0  0  0  0  0  0
  -19.7945  -30.7284   24.2246 H   0  0  0  0  0  0
  -17.5025  -31.6269   24.5162 H   0  0  0  0  0  0
  -15.5359  -30.2980   23.7683 H   0  0  0  0  0  0
  -15.8684  -28.0833   22.7057 H   0  0  0  0  0  0
  -24.5929  -30.7047   25.7757 H   0  0  0  0  0  0
  -24.8904  -32.2881   26.4828 H   0  0  0  0  0  0
  -25.8050  -30.8918   27.0225 H   0  0  0  0  0  0
  -26.2944  -29.6720   24.1251 H   0  0  0  0  0  0
  -27.4063  -29.7255   25.4728 H   0  0  0  0  0  0
  -27.8820  -30.4260   23.9444 H   0  0  0  0  0  0
  -27.2704  -33.3621   26.2037 H   0  0  0  0  0  0
  -28.3898  -32.6848   25.0320 H   0  0  0  0  0  0
  -28.0733  -31.8449   26.5420 H   0  0  0  0  0  0
  -28.2578  -38.0092   24.7503 H   0  0  0  0  0  0
  -28.1077  -36.2626   24.6296 H   0  0  0  0  0  0
  -27.2293  -37.1447   25.8862 H   0  0  0  0  0  0
  -20.9397  -29.8771   21.6862 H   0  0  0  0  0  0
  -26.0169  -38.2820   24.1413 H   0  0  0  0  0  0
  -28.5475  -19.4980   18.6953 H   0  0  0  0  0  0
  -28.0995  -15.9240   21.7755 H   0  0  0  0  0  0
  -29.2486  -17.1088   22.3740 H   0  0  0  0  0  0
  -29.4907  -15.4364   22.7602 H   0  0  0  0  0  0
  -31.3819  -17.2609   19.9583 H   0  0  0  0  0  0
  -30.0065  -17.0229   18.9637 H   0  0  0  0  0  0
  -29.9381  -23.7717   19.7408 H   0  0  0  0  0  0
  -29.2730  -23.7024   21.3458 H   0  0  0  0  0  0
  -28.1721  -22.1353   18.9218 H   0  0  0  0  0  0
  -27.4606  -22.0945   20.4937 H   0  0  0  0  0  0
  -27.0956  -24.6592   20.4759 H   0  0  0  0  0  0
  -27.7898  -24.7840   18.8808 H   0  0  0  0  0  0
  1 25  1  0  0  0
  1 30  2  0  0  0
  1 81  1  0  0  0
  2  3  1  0  0  0
  2 25  1  0  0  0
  2 82  1  0  0  0
  2 83  1  0  0  0
  3  4  1  0  0  0
  3 84  1  0  0  0
  3 85  1  0  0  0
  4  5  1  0  0  0
  4 86  1  0  0  0
  4 87  1  0  0  0
  5  6  1  0  0  0
  5 26  1  0  0  0
  5 88  1  0  0  0
  6 25  1  0  0  0
  6 89  1  0  0  0
  6 90  1  0  0  0
  7  8  2  0  0  0
  7 26  1  0  0  0
  7 29  1  0  0  0
  8  9  1  0  0  0
  8 22  1  0  0  0
  9 10  1  0  0  0
  9 27  2  0  0  0
 10 11  2  0  0  0
 10 15  1  0  0  0
 11 12  1  0  0  0
 11 91  1  0  0  0
 12 13  2  0  0  0
 12 92  1  0  0  0
 13 14  1  0  0  0
 13 31  1  0  0  0
 14 15  2  0  0  0
 14 93  1  0  0  0
 15 94  1  0  0  0
 16 17  2  0  0  0
 16 21  1  0  0  0
 16 31  1  0  0  0
 17 18  1  0  0  0
 17 95  1  0  0  0
 18 19  2  0  0  0
 18 96  1  0  0  0
 19 20  1  0  0  0
 19 24  1  0  0  0
 20 21  2  0  0  0
 20 97  1  0  0  0
 21 23  1  0  0  0
 22 28  1  0  0  0
 22 32  2  0  0  0
 26 27  1  0  0  0
 28 98  1  0  0  0
 28 99  1  0  0  0
 29100  1  0  0  0
 29101  1  0  0  0
 33 34  1  0  0  0
 33 66  1  0  0  0
 33 70  2  0  0  0
 34 36  1  0  0  0
 34 59  1  0  0  0
 34102  1  0  0  0
 35 44  2  0  0  0
 35 45  1  0  0  0
 35 68  1  0  0  0
 36 56  1  0  0  0
 36103  1  0  0  0
 37 39  1  0  0  0
 37 47  1  0  0  0
 37 66  1  0  0  0
 37104  1  0  0  0
 38 43  2  0  0  0
 38 46  1  0  0  0
 38 47  1  0  0  0
 39 64  1  0  0  0
 39 67  2  0  0  0
 40 52  1  0  0  0
 40 53  2  0  0  0
 40 58  1  0  0  0
 41105  1  0  0  0
 41106  1  0  0  0
 41107  1  0  0  0
 41 48  1  0  0  0
 42 43  1  0  0  0
 42 66  1  0  0  0
 42108  1  0  0  0
 42109  1  0  0  0
 43 44  1  0  0  0
 44110  1  0  0  0
 45 46  2  0  0  0
 45111  1  0  0  0
 46112  1  0  0  0
 47113  1  0  0  0
 47114  1  0  0  0
 48 56  1  0  0  0
 48 65  1  0  0  0
 48115  1  0  0  0
 49 50  1  0  0  0
 49 53  1  0  0  0
 49 64  1  0  0  0
 49116  1  0  0  0
 50 51  1  0  0  0
 50117  1  0  0  0
 50118  1  0  0  0
 51 52  1  0  0  0
 51119  1  0  0  0
 51120  1  0  0  0
 52121  1  0  0  0
 52122  1  0  0  0
 53 54  1  0  0  0
 54 55  2  0  0  0
 54123  1  0  0  0
 55 57  1  0  0  0
 55124  1  0  0  0
 56 69  2  0  0  0
 57 58  2  0  0  0
 57125  1  0  0  0
 58126  1  0  0  0
 59 60  1  0  0  0
 59 61  1  0  0  0
 59 62  1  0  0  0
 60127  1  0  0  0
 60128  1  0  0  0
 60129  1  0  0  0
 61130  1  0  0  0
 61131  1  0  0  0
 61132  1  0  0  0
 62133  1  0  0  0
 62134  1  0  0  0
 62135  1  0  0  0
 63 65  1  0  0  0
 63136  1  0  0  0
 63137  1  0  0  0
 63138  1  0  0  0
 64139  1  0  0  0
 65140  1  0  0  0
 68 77  1  0  0  0
 71 72  2  0  0  0
 71 80  1  0  0  0
 71141  1  0  0  0
 72 74  1  0  0  0
 72 78  1  0  0  0
 73 81  1  0  0  0
 73142  1  0  0  0
 73143  1  0  0  0
 73144  1  0  0  0
 74 81  1  0  0  0
 74145  1  0  0  0
 74146  1  0  0  0
 75 76  1  0  0  0
 75 77  1  0  0  0
 75147  1  0  0  0
 75148  1  0  0  0
 76 80  1  0  0  0
 76149  1  0  0  0
 76150  1  0  0  0
 77151  1  0  0  0
 77152  1  0  0  0
 78 79  2  0  0  0
 79 80  1  0  0  0
M  ISO  4   1 100  68 101  77 101  81 100
M  END
> <chiral flag>
0

> <version>
0

> <s_m_source_file>
/data/baiqing/PycharmProjects/Reinvent-master-3.2/result/LINK_invent/BTK/process_docking_weight1_custom_sum_contain_oxygen_bond_distance_aromatic_linkinvent_7_9_3/rearranged_h_0050.sdf

> <i_m_source_file_index>
12

> <r_mmod_Potential_Energy-OPLS-2005>
213.459823608398

> <r_mmod_Stretch_Energy-OPLS-2005>
121.979278564453

> <r_mmod_Bend_Energy-OPLS-2005>
190.375335693359

> <r_mmod_Torsional_Energy-OPLS-2005>
261.687713623047

> <r_mmod_Improper_Torsional_Energy-OPLS-2005>
11.171347618103

> <r_mmod_Van_der_Waal_Energy-OPLS-2005>
129.71028137207

> <r_mmod_Electrostatic_Energy-OPLS-2005>
-357.82568359375

> <r_mmod_Solvation_Energy-OPLS-2005>
-221.851272583008

> <b_mmod_Minimization_Converged-OPLS-2005>
0

> <r_mmod_RMS_Derivative-OPLS-2005>
1.65442407131195

$$$$
12
                    3D
 Structure written by MMmdl.
168176  0  0  1  0            999 V2000
  -30.6858  -14.5060   20.5806 C   0  0  0  0  0  0
  -30.4303  -12.3358   19.4242 C   0  0  0  0  0  0
  -29.5019  -12.5225   18.2069 C   0  0  0  0  0  0
  -28.0214  -12.3729   18.6127 C   0  0  0  0  0  0
  -27.6592  -13.2080   19.8699 C   0  0  2  0  0  0
  -28.7010  -12.9995   20.9924 C   0  0  0  0  0  0
  -25.2558  -13.8127   20.5663 C   0  0  0  0  0  0
  -24.1826  -13.0409   20.9194 C   0  0  0  0  0  0
  -24.6378  -11.6887   20.8729 C   0  0  0  0  0  0
  -23.9035  -10.4286   21.0390 C   0  0  0  0  0  0
  -24.3594   -9.4215   21.9172 C   0  0  0  0  0  0
  -23.6289   -8.2237   22.0745 C   0  0  0  0  0  0
  -22.4272   -8.0258   21.3535 C   0  0  0  0  0  0
  -21.9894   -9.0228   20.4642 C   0  0  0  0  0  0
  -22.7203  -10.2121   20.3048 C   0  0  0  0  0  0
  -21.6851   -6.0727   22.5286 C   0  0  0  0  0  0
  -21.4009   -6.5639   23.8219 C   0  0  0  0  0  0
  -21.3663   -5.6794   24.9176 C   0  0  0  0  0  0
  -21.6052   -4.3058   24.7228 C   0  0  0  0  0  0
  -21.8822   -3.8146   23.4349 C   0  0  0  0  0  0
  -21.9194   -4.6956   22.3408 C   0  0  0  0  0  0
  -22.7855  -13.5225   21.1856 C   0  0  0  0  0  0
  -22.1663   -4.2141   21.0988 F   0  0  0  0  0  0
  -21.5624   -3.4553   25.7746 F   0  0  0  0  0  0
  -30.0311  -13.3188   20.4453 N   0  0  0  0  0  0
  -26.3004  -12.9316   20.3324 N   0  0  0  0  0  0
  -25.9305  -11.6474   20.5727 N   0  0  0  0  0  0
  -22.0475  -12.8243   22.0415 N   0  0  0  0  0  0
  -25.4227  -15.1833   20.4051 N   0  0  0  0  0  0
  -31.8127  -14.7017   20.1192 O   0  0  0  0  0  0
  -21.6626   -6.8858   21.4245 O   0  0  0  0  0  0
  -22.3561  -14.5524   20.6683 O   0  0  0  0  0  0
  -24.6187  -31.8649   23.2095 C   0  0  0  0  0  0
  -25.9070  -32.4806   23.8390 C   0  0  1  0  0  0
  -27.2313  -27.3980   20.1004 C   0  0  0  0  0  0
  -25.5913  -33.8604   24.2312 N   0  0  0  0  0  0
  -23.4077  -30.4911   21.5499 C   0  0  2  0  0  0
  -24.8536  -28.9605   20.1109 C   0  0  0  0  0  0
  -22.7429  -29.4649   22.4967 C   0  0  0  0  0  0
  -18.0278  -28.1380   22.8492 C   0  0  0  0  0  0
  -24.1485  -36.7317   23.2634 C   0  0  0  0  0  0
  -25.9414  -30.8189   21.3711 C   0  0  0  0  0  0
  -26.0160  -29.4524   20.7165 C   0  0  0  0  0  0
  -27.2039  -28.6772   20.7133 C   0  0  0  0  0  0
  -26.0474  -26.9490   19.4611 C   0  0  0  0  0  0
  -24.8666  -27.7097   19.4783 C   0  0  0  0  0  0
  -23.6171  -29.8279   20.1634 C   0  0  0  0  0  0
  -25.4103  -36.3098   24.0330 C   0  0  1  0  0  0
  -20.5868  -28.3671   23.1304 C   0  0  2  0  0  0
  -20.6765  -26.9403   22.5409 C   0  0  0  0  0  0
  -19.5743  -26.6384   21.5208 C   0  0  0  0  0  0
  -18.1923  -26.7925   22.1624 C   0  0  0  0  0  0
  -19.1527  -28.8842   23.2893 C   0  0  0  0  0  0
  -18.9454  -30.1449   23.8906 C   0  0  0  0  0  0
  -17.6456  -30.6588   24.0562 C   0  0  0  0  0  0
  -25.9035  -34.9467   23.5117 C   0  0  0  0  0  0
  -16.5346  -29.9089   23.6329 C   0  0  0  0  0  0
  -16.7263  -28.6503   23.0350 C   0  0  0  0  0  0
  -26.4484  -31.6594   25.0731 C   0  0  0  0  0  0
  -25.3739  -31.3727   26.1476 C   0  0  0  0  0  0
  -27.0319  -30.3026   24.6138 C   0  0  0  0  0  0
  -27.6048  -32.4318   25.7505 C   0  0  0  0  0  0
  -27.5580  -37.1809   24.8457 C   0  0  0  0  0  0
  -21.4153  -29.3038   22.3712 N   0  0  0  0  0  0
  -26.4285  -37.3789   23.9412 N   0  0  0  0  0  0
  -24.6738  -31.0733   22.1016 N   0  0  0  0  0  0
  -23.4186  -28.8178   23.3015 O   0  0  0  0  0  0
  -28.3858  -26.6207   20.1591 O   0  0  0  0  0  0
  -26.5592  -34.8925   22.4677 O   0  0  0  0  0  0
  -23.5365  -32.1417   23.7475 O   0  0  0  0  0  0
  -28.9418  -20.3939   19.9253 C   0  0  0  0  0  0
  -30.8846  -21.2316   20.3489 C   0  0  0  0  0  0
  -29.7936  -19.3569   20.2684 C   0  0  0  0  0  0
  -29.6850  -22.9682   17.9087 C   0  0  0  0  0  0
  -30.0216  -17.4368   18.7036 C   0  0  0  0  0  0
  -28.0344  -17.5761   20.2109 C   0  0  0  0  0  0
  -30.7797  -24.8263   19.9936 C   0  0  0  0  0  0
  -29.1803  -23.9449   21.7039 C   0  0  0  0  0  0
  -30.2920  -16.9579   21.1767 C   0  0  0  0  0  0
  -28.2807  -25.2400   19.7296 C   0  0  0  0  0  0
  -29.1848  -22.8752   19.3657 C   0  0  2  0  0  0
  -29.5515  -17.8449   20.1123 C   0  0  0  0  0  0
  -29.3763  -24.2145   20.1968 C   0  0  0  0  0  0
  -31.0433  -19.9186   20.5475 N   0  0  0  0  0  0
  -29.6617  -21.5910   19.9257 N   0  0  0  0  0  0
  -29.9609  -15.5100   21.1171 N   0  0  0  0  0  0
  -31.4733  -12.4485   19.1235 H   0  0  0  0  0  0
  -30.3420  -11.3232   19.8211 H   0  0  0  0  0  0
  -29.7559  -11.8010   17.4291 H   0  0  0  0  0  0
  -29.6635  -13.5084   17.7686 H   0  0  0  0  0  0
  -27.8338  -11.3156   18.8001 H   0  0  0  0  0  0
  -27.3728  -12.6473   17.7802 H   0  0  0  0  0  0
  -27.6964  -14.2535   19.5669 H   0  0  0  0  0  0
  -28.6858  -11.9632   21.3335 H   0  0  0  0  0  0
  -28.4538  -13.5992   21.8691 H   0  0  0  0  0  0
  -25.2729   -9.5723   22.4741 H   0  0  0  0  0  0
  -24.0019   -7.4642   22.7464 H   0  0  0  0  0  0
  -21.0820   -8.8732   19.8953 H   0  0  0  0  0  0
  -22.3637  -10.9651   19.6157 H   0  0  0  0  0  0
  -21.1993   -7.6145   23.9722 H   0  0  0  0  0  0
  -21.1484   -6.0518   25.9084 H   0  0  0  0  0  0
  -22.0595   -2.7604   23.2853 H   0  0  0  0  0  0
  -22.4059  -11.9917   22.4854 H   0  0  0  0  0  0
  -21.1075  -13.1277   22.2546 H   0  0  0  0  0  0
  -24.6529  -15.8341   20.5062 H   0  0  0  0  0  0
  -26.2689  -15.6243   20.0727 H   0  0  0  0  0  0
  -26.7142  -32.5504   23.1149 H   0  0  0  0  0  0
  -25.0081  -33.9758   25.0469 H   0  0  0  0  0  0
  -22.6982  -31.3092   21.4110 H   0  0  0  0  0  0
  -23.3738  -35.9660   23.3291 H   0  0  0  0  0  0
  -24.3580  -36.8939   22.2051 H   0  0  0  0  0  0
  -23.7251  -37.6526   23.6652 H   0  0  0  0  0  0
  -26.0585  -31.5844   20.6030 H   0  0  0  0  0  0
  -26.8276  -30.8698   21.9917 H   0  0  0  0  0  0
  -28.0955  -29.0465   21.2003 H   0  0  0  0  0  0
  -25.9975  -26.0068   18.9363 H   0  0  0  0  0  0
  -23.9768  -27.3327   18.9927 H   0  0  0  0  0  0
  -23.7253  -30.6020   19.4030 H   0  0  0  0  0  0
  -22.7418  -29.2462   19.8685 H   0  0  0  0  0  0
  -25.1281  -36.1953   25.0823 H   0  0  0  0  0  0
  -20.9961  -28.3236   24.1424 H   0  0  0  0  0  0
  -20.5664  -26.2279   23.3599 H   0  0  0  0  0  0
  -21.6635  -26.7442   22.1202 H   0  0  0  0  0  0
  -19.6902  -25.6295   21.1236 H   0  0  0  0  0  0
  -19.6686  -27.3193   20.6738 H   0  0  0  0  0  0
  -17.4192  -26.6668   21.4028 H   0  0  0  0  0  0
  -18.0333  -26.0062   22.9018 H   0  0  0  0  0  0
  -19.7932  -30.7257   24.2276 H   0  0  0  0  0  0
  -17.5017  -31.6273   24.5159 H   0  0  0  0  0  0
  -15.5347  -30.2993   23.7656 H   0  0  0  0  0  0
  -15.8661  -28.0829   22.7059 H   0  0  0  0  0  0
  -24.5899  -30.7086   25.7822 H   0  0  0  0  0  0
  -24.8952  -32.2900   26.4916 H   0  0  0  0  0  0
  -25.8082  -30.8902   27.0240 H   0  0  0  0  0  0
  -26.2885  -29.6791   24.1159 H   0  0  0  0  0  0
  -27.4035  -29.7261   25.4621 H   0  0  0  0  0  0
  -27.8743  -30.4330   23.9340 H   0  0  0  0  0  0
  -27.2651  -33.3598   26.2117 H   0  0  0  0  0  0
  -28.3853  -32.6907   25.0338 H   0  0  0  0  0  0
  -28.0724  -31.8421   26.5401 H   0  0  0  0  0  0
  -28.2583  -38.0119   24.7516 H   0  0  0  0  0  0
  -28.1087  -36.2651   24.6256 H   0  0  0  0  0  0
  -27.2302  -37.1431   25.8860 H   0  0  0  0  0  0
  -20.9311  -29.8782   21.6955 H   0  0  0  0  0  0
  -26.0167  -38.2863   24.1421 H   0  0  0  0  0  0
  -27.9186  -20.3653   19.5749 H   0  0  0  0  0  0
  -31.7053  -21.9279   20.4294 H   0  0  0  0  0  0
  -29.3291  -23.8591   17.3946 H   0  0  0  0  0  0
  -29.3428  -22.1092   17.3301 H   0  0  0  0  0  0
  -30.7742  -22.9755   17.8593 H   0  0  0  0  0  0
  -29.5217  -18.0276   17.9349 H   0  0  0  0  0  0
  -29.8155  -16.3896   18.4884 H   0  0  0  0  0  0
  -31.0943  -17.5921   18.5896 H   0  0  0  0  0  0
  -27.4740  -18.1155   19.4470 H   0  0  0  0  0  0
  -27.6417  -17.8767   21.1827 H   0  0  0  0  0  0
  -27.8013  -16.5253   20.0702 H   0  0  0  0  0  0
  -30.9100  -25.7194   20.6058 H   0  0  0  0  0  0
  -30.9482  -25.1280   18.9600 H   0  0  0  0  0  0
  -31.5748  -24.1358   20.2695 H   0  0  0  0  0  0
  -29.1860  -24.8742   22.2752 H   0  0  0  0  0  0
  -29.9677  -23.3123   22.1140 H   0  0  0  0  0  0
  -28.2287  -23.4487   21.8995 H   0  0  0  0  0  0
  -30.0315  -17.3098   22.1752 H   0  0  0  0  0  0
  -31.3707  -17.0970   21.0887 H   0  0  0  0  0  0
  -27.3347  -24.8203   20.0744 H   0  0  0  0  0  0
  -28.2309  -25.2670   18.6419 H   0  0  0  0  0  0
  -28.1040  -22.7452   19.2877 H   0  0  0  0  0  0
  -29.0462  -15.2519   21.4545 H   0  0  0  0  0  0
  1 25  1  0  0  0
  1 30  2  0  0  0
  1 86  1  0  0  0
  2  3  1  0  0  0
  2 25  1  0  0  0
  2 87  1  0  0  0
  2 88  1  0  0  0
  3  4  1  0  0  0
  3 89  1  0  0  0
  3 90  1  0  0  0
  4  5  1  0  0  0
  4 91  1  0  0  0
  4 92  1  0  0  0
  5  6  1  0  0  0
  5 26  1  0  0  0
  5 93  1  0  0  0
  6 25  1  0  0  0
  6 94  1  0  0  0
  6 95  1  0  0  0
  7  8  2  0  0  0
  7 26  1  0  0  0
  7 29  1  0  0  0
  8  9  1  0  0  0
  8 22  1  0  0  0
  9 10  1  0  0  0
  9 27  2  0  0  0
 10 11  2  0  0  0
 10 15  1  0  0  0
 11 12  1  0  0  0
 11 96  1  0  0  0
 12 13  2  0  0  0
 12 97  1  0  0  0
 13 14  1  0  0  0
 13 31  1  0  0  0
 14 15  2  0  0  0
 14 98  1  0  0  0
 15 99  1  0  0  0
 16 17  2  0  0  0
 16 21  1  0  0  0
 16 31  1  0  0  0
 17 18  1  0  0  0
 17100  1  0  0  0
 18 19  2  0  0  0
 18101  1  0  0  0
 19 20  1  0  0  0
 19 24  1  0  0  0
 20 21  2  0  0  0
 20102  1  0  0  0
 21 23  1  0  0  0
 22 28  1  0  0  0
 22 32  2  0  0  0
 26 27  1  0  0  0
 28103  1  0  0  0
 28104  1  0  0  0
 29105  1  0  0  0
 29106  1  0  0  0
 33 34  1  0  0  0
 33 66  1  0  0  0
 33 70  2  0  0  0
 34 36  1  0  0  0
 34 59  1  0  0  0
 34107  1  0  0  0
 35 44  2  0  0  0
 35 45  1  0  0  0
 35 68  1  0  0  0
 36 56  1  0  0  0
 36108  1  0  0  0
 37 39  1  0  0  0
 37 47  1  0  0  0
 37 66  1  0  0  0
 37109  1  0  0  0
 38 43  2  0  0  0
 38 46  1  0  0  0
 38 47  1  0  0  0
 39 64  1  0  0  0
 39 67  2  0  0  0
 40 52  1  0  0  0
 40 53  2  0  0  0
 40 58  1  0  0  0
 41110  1  0  0  0
 41111  1  0  0  0
 41112  1  0  0  0
 41 48  1  0  0  0
 42 43  1  0  0  0
 42 66  1  0  0  0
 42113  1  0  0  0
 42114  1  0  0  0
 43 44  1  0  0  0
 44115  1  0  0  0
 45 46  2  0  0  0
 45116  1  0  0  0
 46117  1  0  0  0
 47118  1  0  0  0
 47119  1  0  0  0
 48 56  1  0  0  0
 48 65  1  0  0  0
 48120  1  0  0  0
 49 50  1  0  0  0
 49 53  1  0  0  0
 49 64  1  0  0  0
 49121  1  0  0  0
 50 51  1  0  0  0
 50122  1  0  0  0
 50123  1  0  0  0
 51 52  1  0  0  0
 51124  1  0  0  0
 51125  1  0  0  0
 52126  1  0  0  0
 52127  1  0  0  0
 53 54  1  0  0  0
 54 55  2  0  0  0
 54128  1  0  0  0
 55 57  1  0  0  0
 55129  1  0  0  0
 56 69  2  0  0  0
 57 58  2  0  0  0
 57130  1  0  0  0
 58131  1  0  0  0
 59 60  1  0  0  0
 59 61  1  0  0  0
 59 62  1  0  0  0
 60132  1  0  0  0
 60133  1  0  0  0
 60134  1  0  0  0
 61135  1  0  0  0
 61136  1  0  0  0
 61137  1  0  0  0
 62138  1  0  0  0
 62139  1  0  0  0
 62140  1  0  0  0
 63 65  1  0  0  0
 63141  1  0  0  0
 63142  1  0  0  0
 63143  1  0  0  0
 64144  1  0  0  0
 65145  1  0  0  0
 68 80  1  0  0  0
 71 73  2  0  0  0
 71 85  1  0  0  0
 71146  1  0  0  0
 72 84  2  0  0  0
 72 85  1  0  0  0
 72147  1  0  0  0
 73 82  1  0  0  0
 73 84  1  0  0  0
 74148  1  0  0  0
 74149  1  0  0  0
 74150  1  0  0  0
 74 81  1  0  0  0
 75151  1  0  0  0
 75152  1  0  0  0
 75153  1  0  0  0
 75 82  1  0  0  0
 76 82  1  0  0  0
 76154  1  0  0  0
 76155  1  0  0  0
 76156  1  0  0  0
 77157  1  0  0  0
 77158  1  0  0  0
 77159  1  0  0  0
 77 83  1  0  0  0
 78 83  1  0  0  0
 78160  1  0  0  0
 78161  1  0  0  0
 78162  1  0  0  0
 79 82  1  0  0  0
 79 86  1  0  0  0
 79163  1  0  0  0
 79164  1  0  0  0
 80 83  1  0  0  0
 80165  1  0  0  0
 80166  1  0  0  0
 81 83  1  0  0  0
 81 85  1  0  0  0
 81167  1  0  0  0
 86168  1  0  0  0
M  ISO  4   1 100  68 101  80 101  86 100
M  END
> <chiral flag>
0

> <version>
0

> <s_m_source_file>
/data/baiqing/PycharmProjects/Reinvent-master-3.2/result/LINK_invent/BTK/process_docking_weight1_custom_sum_contain_oxygen_bond_distance_aromatic_linkinvent_7_9_3/rearranged_h_0050.sdf

> <i_m_source_file_index>
13

> <r_mmod_Potential_Energy-OPLS-2005>
-75.1664581298828

> <r_mmod_Stretch_Energy-OPLS-2005>
50.8361930847168

> <r_mmod_Bend_Energy-OPLS-2005>
133.7802734375

> <r_mmod_Torsional_Energy-OPLS-2005>
235.774688720703

> <r_mmod_Improper_Torsional_Energy-OPLS-2005>
6.21824502944946

> <r_mmod_Van_der_Waal_Energy-OPLS-2005>
135.720336914062

> <r_mmod_Electrostatic_Energy-OPLS-2005>
-441.240417480469

> <r_mmod_Solvation_Energy-OPLS-2005>
-215.542816162109

> <b_mmod_Minimization_Converged-OPLS-2005>
0

> <r_mmod_RMS_Derivative-OPLS-2005>
1.65810179710388

$$$$
13
                    3D
 Structure written by MMmdl.
173181  0  0  1  0            999 V2000
  -30.6997  -14.4936   20.7629 C   0  0  0  0  0  0
  -30.4447  -12.3670   19.4690 C   0  0  0  0  0  0
  -29.5187  -12.5314   18.2425 C   0  0  0  0  0  0
  -28.0466  -12.3489   18.6517 C   0  0  0  0  0  0
  -27.6718  -13.1946   19.9000 C   0  0  2  0  0  0
  -28.6944  -12.9813   21.0360 C   0  0  0  0  0  0
  -25.2731  -13.8054   20.5704 C   0  0  0  0  0  0
  -24.1938  -13.0321   20.9205 C   0  0  0  0  0  0
  -24.6445  -11.6808   20.8820 C   0  0  0  0  0  0
  -23.9052  -10.4214   21.0522 C   0  0  0  0  0  0
  -24.3538   -9.4050   21.9244 C   0  0  0  0  0  0
  -23.6182   -8.2093   22.0830 C   0  0  0  0  0  0
  -22.4175   -8.0225   21.3591 C   0  0  0  0  0  0
  -21.9896   -9.0224   20.4671 C   0  0  0  0  0  0
  -22.7277  -10.2089   20.3092 C   0  0  0  0  0  0
  -21.6766   -6.0611   22.5210 C   0  0  0  0  0  0
  -21.4026   -6.5557   23.8139 C   0  0  0  0  0  0
  -21.3718   -5.6771   24.9144 C   0  0  0  0  0  0
  -21.6059   -4.3006   24.7233 C   0  0  0  0  0  0
  -21.8857   -3.8069   23.4349 C   0  0  0  0  0  0
  -21.9221   -4.6854   22.3380 C   0  0  0  0  0  0
  -22.8019  -13.5198   21.1756 C   0  0  0  0  0  0
  -22.1673   -4.2007   21.0967 F   0  0  0  0  0  0
  -21.5630   -3.4522   25.7772 F   0  0  0  0  0  0
  -30.0208  -13.3293   20.5162 N   0  0  0  0  0  0
  -26.3127  -12.9200   20.3460 N   0  0  0  0  0  0
  -25.9373  -11.6371   20.5849 N   0  0  0  0  0  0
  -22.0651  -12.8235   22.0306 N   0  0  0  0  0  0
  -25.4322  -15.1723   20.4060 N   0  0  0  0  0  0
  -31.7465  -14.7548   20.1588 O   0  0  0  0  0  0
  -21.6584   -6.8779   21.4180 O   0  0  0  0  0  0
  -22.3741  -14.5402   20.6463 O   0  0  0  0  0  0
  -24.6198  -31.8625   23.2077 C   0  0  0  0  0  0
  -25.9051  -32.4738   23.8434 C   0  0  1  0  0  0
  -27.2263  -27.3786   20.1210 C   0  0  0  0  0  0
  -25.5857  -33.8542   24.2269 N   0  0  0  0  0  0
  -23.4121  -30.4871   21.5547 C   0  0  2  0  0  0
  -24.8601  -28.9446   20.1177 C   0  0  0  0  0  0
  -22.7476  -29.4652   22.5071 C   0  0  0  0  0  0
  -18.0264  -28.1462   22.8572 C   0  0  0  0  0  0
  -24.1492  -36.7334   23.2661 C   0  0  0  0  0  0
  -25.9374  -30.8192   21.3645 C   0  0  0  0  0  0
  -26.0256  -29.4460   20.7167 C   0  0  0  0  0  0
  -27.2152  -28.6697   20.7153 C   0  0  0  0  0  0
  -26.0580  -26.9169   19.4837 C   0  0  0  0  0  0
  -24.8744  -27.6825   19.4985 C   0  0  0  0  0  0
  -23.6239  -29.8172   20.1738 C   0  0  0  0  0  0
  -25.4112  -36.3028   24.0297 C   0  0  1  0  0  0
  -20.5821  -28.3806   23.1341 C   0  0  2  0  0  0
  -20.6727  -26.9552   22.5475 C   0  0  0  0  0  0
  -19.5731  -26.6480   21.5275 C   0  0  0  0  0  0
  -18.1891  -26.8009   22.1683 C   0  0  0  0  0  0
  -19.1488  -28.8973   23.2893 C   0  0  0  0  0  0
  -18.9415  -30.1572   23.8923 C   0  0  0  0  0  0
  -17.6403  -30.6648   24.0677 C   0  0  0  0  0  0
  -25.9044  -34.9401   23.5068 C   0  0  0  0  0  0
  -16.5312  -29.9182   23.6340 C   0  0  0  0  0  0
  -16.7245  -28.6577   23.0402 C   0  0  0  0  0  0
  -26.4442  -31.6481   25.0755 C   0  0  0  0  0  0
  -25.3706  -31.3482   26.1473 C   0  0  0  0  0  0
  -27.0371  -30.2986   24.6077 C   0  0  0  0  0  0
  -27.5994  -32.4293   25.7511 C   0  0  0  0  0  0
  -27.5544  -37.1754   24.8432 C   0  0  0  0  0  0
  -21.4193  -29.3089   22.3724 N   0  0  0  0  0  0
  -26.4259  -37.3759   23.9395 N   0  0  0  0  0  0
  -24.6746  -31.0721   22.1020 N   0  0  0  0  0  0
  -23.4185  -28.8241   23.3202 O   0  0  0  0  0  0
  -28.3324  -26.5447   20.1587 O   0  0  0  0  0  0
  -26.5700  -34.8864   22.4681 O   0  0  0  0  0  0
  -23.5352  -32.1414   23.7431 O   0  0  0  0  0  0
  -27.9191  -23.1536   21.9916 C   0  0  0  0  0  0
  -27.9372  -21.7519   21.7984 C   0  0  0  0  0  0
  -28.2573  -24.0292   20.9293 C   0  0  0  0  0  0
  -28.3277  -21.2241   20.5525 C   0  0  0  0  0  0
  -28.6020  -23.4141   19.7017 C   0  0  0  0  0  0
  -28.9344  -24.2420   18.4815 C   0  0  0  0  0  0
  -29.6421  -14.0773   24.8097 C   0  0  0  0  0  0
  -31.7879  -16.9147   22.9949 C   0  0  0  0  0  0
  -30.8794  -19.8050   20.2892 C   0  0  0  0  0  0
  -28.3122  -25.5613   21.2313 C   0  0  0  0  0  0
  -28.3934  -19.6836   20.3000 C   0  0  0  0  0  0
  -30.3185  -15.4014   24.3830 C   0  0  0  0  0  0
  -29.3289  -16.5073   21.4223 C   0  0  0  0  0  0
  -29.8289  -17.5355   20.3226 C   0  0  0  0  0  0
  -31.0373  -15.5455   22.9927 C   0  0  1  0  0  0
  -28.6577  -22.0600   19.5298 N   0  0  0  0  0  0
  -30.2149  -15.3340   21.7463 N   0  0  0  0  0  0
  -29.6864  -19.0038   20.6935 N   0  3  1  0  0  0
  -31.4845  -12.5153   19.1693 H   0  0  0  0  0  0
  -30.3971  -11.3479   19.8576 H   0  0  0  0  0  0
  -29.7644  -11.8160   17.4563 H   0  0  0  0  0  0
  -29.6758  -13.5253   17.8221 H   0  0  0  0  0  0
  -27.8821  -11.2894   18.8496 H   0  0  0  0  0  0
  -27.3918  -12.6106   17.8166 H   0  0  0  0  0  0
  -27.7203  -14.2377   19.6008 H   0  0  0  0  0  0
  -28.6997  -11.9408   21.3740 H   0  0  0  0  0  0
  -28.4164  -13.5675   21.9105 H   0  0  0  0  0  0
  -25.2656   -9.5349   22.4881 H   0  0  0  0  0  0
  -23.9769   -7.4459   22.7586 H   0  0  0  0  0  0
  -21.0853   -8.8730   19.9014 H   0  0  0  0  0  0
  -22.3730  -10.9602   19.6190 H   0  0  0  0  0  0
  -21.2006   -7.6063   23.9531 H   0  0  0  0  0  0
  -21.1554   -6.0551   25.9026 H   0  0  0  0  0  0
  -22.0622   -2.7520   23.2886 H   0  0  0  0  0  0
  -22.4403  -11.9958   22.4627 H   0  0  0  0  0  0
  -21.1261  -13.1187   22.2423 H   0  0  0  0  0  0
  -24.5929  -15.7412   20.3986 H   0  0  0  0  0  0
  -26.1868  -15.5714   19.8653 H   0  0  0  0  0  0
  -26.7131  -32.5494   23.1230 H   0  0  0  0  0  0
  -24.9760  -33.9700   25.0222 H   0  0  0  0  0  0
  -22.7015  -31.3010   21.4174 H   0  0  0  0  0  0
  -23.3745  -35.9653   23.3196 H   0  0  0  0  0  0
  -24.3536  -36.9201   22.2089 H   0  0  0  0  0  0
  -23.7277  -37.6489   23.6859 H   0  0  0  0  0  0
  -26.0247  -31.5765   20.5826 H   0  0  0  0  0  0
  -26.8299  -30.8951   21.9742 H   0  0  0  0  0  0
  -28.1120  -29.0476   21.1877 H   0  0  0  0  0  0
  -26.0645  -25.9550   18.9847 H   0  0  0  0  0  0
  -23.9753  -27.2978   19.0337 H   0  0  0  0  0  0
  -23.7384  -30.5919   19.4186 H   0  0  0  0  0  0
  -22.7459  -29.2422   19.8757 H   0  0  0  0  0  0
  -25.1246  -36.1865   25.0801 H   0  0  0  0  0  0
  -20.9859  -28.3420   24.1495 H   0  0  0  0  0  0
  -20.5761  -26.2446   23.3669 H   0  0  0  0  0  0
  -21.6570  -26.7629   22.1241 H   0  0  0  0  0  0
  -19.6911  -25.6405   21.1317 H   0  0  0  0  0  0
  -19.6607  -27.3266   20.6784 H   0  0  0  0  0  0
  -17.4155  -26.6881   21.4044 H   0  0  0  0  0  0
  -18.0230  -26.0108   22.9033 H   0  0  0  0  0  0
  -19.7855  -30.7432   24.2288 H   0  0  0  0  0  0
  -17.4946  -31.6296   24.5423 H   0  0  0  0  0  0
  -15.5331  -30.3178   23.7552 H   0  0  0  0  0  0
  -15.8646  -28.0944   22.7098 H   0  0  0  0  0  0
  -24.6031  -30.6647   25.7766 H   0  0  0  0  0  0
  -24.8662  -32.2545   26.4833 H   0  0  0  0  0  0
  -25.8042  -30.8767   27.0301 H   0  0  0  0  0  0
  -26.2905  -29.6688   24.1195 H   0  0  0  0  0  0
  -27.4319  -29.7216   25.4450 H   0  0  0  0  0  0
  -27.8639  -30.4424   23.9126 H   0  0  0  0  0  0
  -27.2593  -33.3721   26.1831 H   0  0  0  0  0  0
  -28.3831  -32.6629   25.0284 H   0  0  0  0  0  0
  -28.0603  -31.8599   26.5600 H   0  0  0  0  0  0
  -28.2389  -38.0210   24.7602 H   0  0  0  0  0  0
  -28.1193  -36.2685   24.6097 H   0  0  0  0  0  0
  -27.2260  -37.1275   25.8848 H   0  0  0  0  0  0
  -20.9470  -29.8741   21.6795 H   0  0  0  0  0  0
  -26.0109  -38.2792   24.1552 H   0  0  0  0  0  0
  -27.6406  -23.5491   22.9605 H   0  0  0  0  0  0
  -27.6454  -21.0987   22.6133 H   0  0  0  0  0  0
  -28.1221  -24.9472   18.3017 H   0  0  0  0  0  0
  -29.0634  -23.6519   17.5729 H   0  0  0  0  0  0
  -29.8483  -24.8088   18.6532 H   0  0  0  0  0  0
  -29.6244  -14.0177   25.9055 H   0  0  0  0  0  0
  -30.1657  -13.1915   24.4568 H   0  0  0  0  0  0
  -28.5936  -14.0117   24.5083 H   0  0  0  0  0  0
  -32.7346  -16.8566   23.5340 H   0  0  0  0  0  0
  -31.2096  -17.6888   23.5076 H   0  0  0  0  0  0
  -32.0189  -17.2728   21.9919 H   0  0  0  0  0  0
  -30.9147  -20.7491   20.8394 H   0  0  0  0  0  0
  -30.8611  -20.0327   19.2185 H   0  0  0  0  0  0
  -31.8285  -19.3049   20.5072 H   0  0  0  0  0  0
  -29.2302  -25.7171   21.8039 H   0  0  0  0  0  0
  -27.4947  -25.7901   21.9195 H   0  0  0  0  0  0
  -28.1980  -19.5225   19.2370 H   0  0  0  0  0  0
  -27.5649  -19.2020   20.8226 H   0  0  0  0  0  0
  -31.0957  -15.5768   25.1344 H   0  0  0  0  0  0
  -29.6089  -16.2145   24.5415 H   0  0  0  0  0  0
  -28.3677  -16.0923   21.1020 H   0  0  0  0  0  0
  -29.0863  -17.0480   22.3377 H   0  0  0  0  0  0
  -29.2902  -17.3422   19.3854 H   0  0  0  0  0  0
  -30.8720  -17.3285   20.0756 H   0  0  0  0  0  0
  -31.8152  -14.7818   22.9886 H   0  0  0  0  0  0
  -29.7193  -19.0406   21.7027 H   0  0  0  0  0  0
  1 25  1  0  0  0
  1 30  2  0  0  0
  1 87  1  0  0  0
  2  3  1  0  0  0
  2 25  1  0  0  0
  2 89  1  0  0  0
  2 90  1  0  0  0
  3  4  1  0  0  0
  3 91  1  0  0  0
  3 92  1  0  0  0
  4  5  1  0  0  0
  4 93  1  0  0  0
  4 94  1  0  0  0
  5  6  1  0  0  0
  5 26  1  0  0  0
  5 95  1  0  0  0
  6 25  1  0  0  0
  6 96  1  0  0  0
  6 97  1  0  0  0
  7  8  2  0  0  0
  7 26  1  0  0  0
  7 29  1  0  0  0
  8  9  1  0  0  0
  8 22  1  0  0  0
  9 10  1  0  0  0
  9 27  2  0  0  0
 10 11  2  0  0  0
 10 15  1  0  0  0
 11 12  1  0  0  0
 11 98  1  0  0  0
 12 13  2  0  0  0
 12 99  1  0  0  0
 13 14  1  0  0  0
 13 31  1  0  0  0
 14 15  2  0  0  0
 14100  1  0  0  0
 15101  1  0  0  0
 16 17  2  0  0  0
 16 21  1  0  0  0
 16 31  1  0  0  0
 17 18  1  0  0  0
 17102  1  0  0  0
 18 19  2  0  0  0
 18103  1  0  0  0
 19 20  1  0  0  0
 19 24  1  0  0  0
 20 21  2  0  0  0
 20104  1  0  0  0
 21 23  1  0  0  0
 22 28  1  0  0  0
 22 32  2  0  0  0
 26 27  1  0  0  0
 28105  1  0  0  0
 28106  1  0  0  0
 29107  1  0  0  0
 29108  1  0  0  0
 33 34  1  0  0  0
 33 66  1  0  0  0
 33 70  2  0  0  0
 34 36  1  0  0  0
 34 59  1  0  0  0
 34109  1  0  0  0
 35 44  2  0  0  0
 35 45  1  0  0  0
 35 68  1  0  0  0
 36 56  1  0  0  0
 36110  1  0  0  0
 37 39  1  0  0  0
 37 47  1  0  0  0
 37 66  1  0  0  0
 37111  1  0  0  0
 38 43  2  0  0  0
 38 46  1  0  0  0
 38 47  1  0  0  0
 39 64  1  0  0  0
 39 67  2  0  0  0
 40 52  1  0  0  0
 40 53  2  0  0  0
 40 58  1  0  0  0
 41112  1  0  0  0
 41113  1  0  0  0
 41114  1  0  0  0
 41 48  1  0  0  0
 42 43  1  0  0  0
 42 66  1  0  0  0
 42115  1  0  0  0
 42116  1  0  0  0
 43 44  1  0  0  0
 44117  1  0  0  0
 45 46  2  0  0  0
 45118  1  0  0  0
 46119  1  0  0  0
 47120  1  0  0  0
 47121  1  0  0  0
 48 56  1  0  0  0
 48 65  1  0  0  0
 48122  1  0  0  0
 49 50  1  0  0  0
 49 53  1  0  0  0
 49 64  1  0  0  0
 49123  1  0  0  0
 50 51  1  0  0  0
 50124  1  0  0  0
 50125  1  0  0  0
 51 52  1  0  0  0
 51126  1  0  0  0
 51127  1  0  0  0
 52128  1  0  0  0
 52129  1  0  0  0
 53 54  1  0  0  0
 54 55  2  0  0  0
 54130  1  0  0  0
 55 57  1  0  0  0
 55131  1  0  0  0
 56 69  2  0  0  0
 57 58  2  0  0  0
 57132  1  0  0  0
 58133  1  0  0  0
 59 60  1  0  0  0
 59 61  1  0  0  0
 59 62  1  0  0  0
 60134  1  0  0  0
 60135  1  0  0  0
 60136  1  0  0  0
 61137  1  0  0  0
 61138  1  0  0  0
 61139  1  0  0  0
 62140  1  0  0  0
 62141  1  0  0  0
 62142  1  0  0  0
 63 65  1  0  0  0
 63143  1  0  0  0
 63144  1  0  0  0
 63145  1  0  0  0
 64146  1  0  0  0
 65147  1  0  0  0
 68 80  1  0  0  0
 71 72  2  0  0  0
 71 73  1  0  0  0
 71148  1  0  0  0
 72 74  1  0  0  0
 72149  1  0  0  0
 73 75  2  0  0  0
 73 80  1  0  0  0
 74 81  1  0  0  0
 74 86  2  0  0  0
 75 76  1  0  0  0
 75 86  1  0  0  0
 76150  1  0  0  0
 76151  1  0  0  0
 76152  1  0  0  0
 77 82  1  0  0  0
 77153  1  0  0  0
 77154  1  0  0  0
 77155  1  0  0  0
 78156  1  0  0  0
 78157  1  0  0  0
 78158  1  0  0  0
 78 85  1  0  0  0
 79159  1  0  0  0
 79160  1  0  0  0
 79161  1  0  0  0
 79 88  1  0  0  0
 80162  1  0  0  0
 80163  1  0  0  0
 81 88  1  0  0  0
 81164  1  0  0  0
 81165  1  0  0  0
 82 85  1  0  0  0
 82166  1  0  0  0
 82167  1  0  0  0
 83 84  1  0  0  0
 83 87  1  0  0  0
 83168  1  0  0  0
 83169  1  0  0  0
 84 88  1  0  0  0
 84170  1  0  0  0
 84171  1  0  0  0
 85 87  1  0  0  0
 85172  1  0  0  0
 88173  1  0  0  0
M  CHG  1  88   1
M  ISO  4   1 100  68 101  80 101  87 100
M  END
> <chiral flag>
0

> <version>
0

> <s_m_source_file>
/data/baiqing/PycharmProjects/Reinvent-master-3.2/result/LINK_invent/BTK/process_docking_weight1_custom_sum_contain_oxygen_bond_distance_aromatic_linkinvent_7_9_3/rearranged_h_0050.sdf

> <i_m_source_file_index>
14

> <r_mmod_Potential_Energy-OPLS-2005>
-31.4253578186035

> <r_mmod_Stretch_Energy-OPLS-2005>
75.3312301635742

> <r_mmod_Bend_Energy-OPLS-2005>
141.007064819336

> <r_mmod_Torsional_Energy-OPLS-2005>
390.652038574219

> <r_mmod_Improper_Torsional_Energy-OPLS-2005>
6.24377536773682

> <r_mmod_Van_der_Waal_Energy-OPLS-2005>
138.90966796875

> <r_mmod_Electrostatic_Energy-OPLS-2005>
-399.311187744141

> <r_mmod_Solvation_Energy-OPLS-2005>
-410.655059814453

> <b_mmod_Minimization_Converged-OPLS-2005>
0

> <r_mmod_RMS_Derivative-OPLS-2005>
11.2408781051636

$$$$
14
                    3D
 Structure written by MMmdl.
168175  0  0  1  0            999 V2000
  -30.3142  -15.4829   20.4499 C   0  0  0  0  0  0
  -30.4560  -12.9796   19.5356 C   0  0  0  0  0  0
  -29.5510  -12.6633   18.3051 C   0  0  0  0  0  0
  -28.1053  -12.3273   18.7159 C   0  0  0  0  0  0
  -27.6193  -13.2732   19.8349 C   0  0  2  0  0  0
  -28.6609  -13.3815   20.9654 C   0  0  0  0  0  0
  -25.2378  -13.8193   20.5674 C   0  0  0  0  0  0
  -24.1746  -13.0394   20.9226 C   0  0  0  0  0  0
  -24.6417  -11.6899   20.8744 C   0  0  0  0  0  0
  -23.9103  -10.4270   21.0401 C   0  0  0  0  0  0
  -24.3641   -9.4187   21.9186 C   0  0  0  0  0  0
  -23.6299   -8.2232   22.0758 C   0  0  0  0  0  0
  -22.4281   -8.0278   21.3546 C   0  0  0  0  0  0
  -21.9925   -9.0253   20.4646 C   0  0  0  0  0  0
  -22.7270  -10.2121   20.3052 C   0  0  0  0  0  0
  -21.6851   -6.0734   22.5279 C   0  0  0  0  0  0
  -21.4014   -6.5638   23.8212 C   0  0  0  0  0  0
  -21.3660   -5.6791   24.9174 C   0  0  0  0  0  0
  -21.6044   -4.3054   24.7225 C   0  0  0  0  0  0
  -21.8819   -3.8146   23.4346 C   0  0  0  0  0  0
  -21.9192   -4.6962   22.3402 C   0  0  0  0  0  0
  -22.7767  -13.5161   21.1892 C   0  0  0  0  0  0
  -22.1662   -4.2148   21.0980 F   0  0  0  0  0  0
  -21.5629   -3.4538   25.7739 F   0  0  0  0  0  0
  -29.8477  -14.0912   20.3967 N   0  0  0  0  0  0
  -26.2846  -12.9477   20.3213 N   0  0  0  0  0  0
  -25.9360  -11.6584   20.5701 N   0  0  0  0  0  0
  -22.0435  -12.8150   22.0460 N   0  0  0  0  0  0
  -25.3899  -15.1921   20.4028 N   0  0  0  0  0  0
  -31.4803  -15.4927   20.0122 O   0  0  0  0  0  0
  -21.6638   -6.8880   21.4243 O   0  0  0  0  0  0
  -22.3437  -14.5462   20.6737 O   0  0  0  0  0  0
  -24.6738  -31.8112   23.1596 C   0  0  0  0  0  0
  -25.9365  -32.4526   23.8108 C   0  0  1  0  0  0
  -27.2328  -26.8156   20.1999 C   0  0  0  0  0  0
  -25.5985  -33.8345   24.2003 N   0  0  0  0  0  0
  -23.4949  -30.4161   21.5116 C   0  0  2  0  0  0
  -24.9517  -28.7770   20.1167 C   0  0  0  0  0  0
  -22.7718  -29.4375   22.4751 C   0  0  0  0  0  0
  -18.0328  -28.1424   22.8459 C   0  0  0  0  0  0
  -24.1493  -36.7179   23.2650 C   0  0  0  0  0  0
  -26.0697  -30.5813   21.4063 C   0  0  0  0  0  0
  -26.1385  -29.1579   20.7545 C   0  0  0  0  0  0
  -27.2685  -28.2028   20.7640 C   0  0  0  0  0  0
  -26.0111  -26.6119   19.5142 C   0  0  0  0  0  0
  -24.9199  -27.5269   19.4748 C   0  0  0  0  0  0
  -23.7419  -29.7184   20.1440 C   0  0  0  0  0  0
  -25.4140  -36.2931   24.0289 C   0  0  1  0  0  0
  -20.5956  -28.3777   23.1166 C   0  0  2  0  0  0
  -20.6797  -26.9446   22.5406 C   0  0  0  0  0  0
  -19.5774  -26.6376   21.5217 C   0  0  0  0  0  0
  -18.1956  -26.7956   22.1620 C   0  0  0  0  0  0
  -19.1590  -28.8924   23.2795 C   0  0  0  0  0  0
  -18.9496  -30.1511   23.8834 C   0  0  0  0  0  0
  -17.6487  -30.6610   24.0551 C   0  0  0  0  0  0
  -25.9113  -34.9318   23.4977 C   0  0  0  0  0  0
  -16.5378  -29.9090   23.6348 C   0  0  0  0  0  0
  -16.7309  -28.6512   23.0368 C   0  0  0  0  0  0
  -26.4577  -31.6520   25.0688 C   0  0  0  0  0  0
  -25.3670  -31.3803   26.1321 C   0  0  0  0  0  0
  -27.0493  -30.2873   24.6505 C   0  0  0  0  0  0
  -27.6045  -32.4358   25.7501 C   0  0  0  0  0  0
  -27.5567  -37.1746   24.8467 C   0  0  0  0  0  0
  -21.4376  -29.3042   22.3500 N   0  0  0  0  0  0
  -26.4276  -37.3680   23.9408 N   0  0  0  0  0  0
  -24.7685  -30.9662   22.0791 N   0  0  0  0  0  0
  -23.4208  -28.7963   23.3052 O   0  0  0  0  0  0
  -28.2341  -25.6681   20.2638 O   0  0  0  0  0  0
  -26.5742  -34.8877   22.4585 O   0  0  0  0  0  0
  -23.5781  -32.1135   23.6618 O   0  0  0  0  0  0
  -30.8421  -17.2245   22.1775 C   0  0  0  0  0  0
  -28.5087  -16.3183   21.9363 C   0  0  0  0  0  0
  -27.5627  -20.8152   22.3211 C   0  0  0  0  0  0
  -26.6162  -18.6902   21.6581 C   0  0  0  0  0  0
  -28.3387  -19.0235   23.6208 C   0  0  0  0  0  0
  -28.0304  -20.2895   18.9614 C   0  0  0  0  0  0
  -30.4701  -20.3376   19.2803 C   0  0  0  0  0  0
  -28.0414  -23.9689   20.1882 C   0  0  0  0  0  0
  -29.1604  -18.9895   21.0790 C   0  0  2  0  0  0
  -29.1075  -22.4259   20.3114 C   0  0  2  0  0  0
  -29.6434  -17.0545   21.1892 C   0  0  0  0  0  0
  -27.9602  -19.3233   22.1276 C   0  0  0  0  0  0
  -29.1266  -20.5336   20.0168 C   0  0  0  0  0  0
  -29.8842  -22.6212   21.3780 F   0  0  0  0  0  0
  -31.4441  -13.2563   19.1679 H   0  0  0  0  0  0
  -30.6397  -12.0766   20.1202 H   0  0  0  0  0  0
  -29.9758  -11.8475   17.7191 H   0  0  0  0  0  0
  -29.5385  -13.5350   17.6492 H   0  0  0  0  0  0
  -28.0861  -11.2974   19.0749 H   0  0  0  0  0  0
  -27.4382  -12.3672   17.8540 H   0  0  0  0  0  0
  -27.5426  -14.2561   19.3691 H   0  0  0  0  0  0
  -28.9124  -12.3854   21.3331 H   0  0  0  0  0  0
  -28.2190  -13.8338   21.8423 H   0  0  0  0  0  0
  -25.2784   -9.5655   22.4765 H   0  0  0  0  0  0
  -23.9995   -7.4623   22.7484 H   0  0  0  0  0  0
  -21.0854   -8.8783   19.8954 H   0  0  0  0  0  0
  -22.3737  -10.9662   19.6161 H   0  0  0  0  0  0
  -21.2007   -7.6147   23.9715 H   0  0  0  0  0  0
  -21.1483   -6.0522   25.9077 H   0  0  0  0  0  0
  -22.0597   -2.7607   23.2847 H   0  0  0  0  0  0
  -22.4068  -11.9815   22.4840 H   0  0  0  0  0  0
  -21.1053  -13.1163   22.2682 H   0  0  0  0  0  0
  -24.6170  -15.8361   20.5255 H   0  0  0  0  0  0
  -26.2329  -15.6422   20.0733 H   0  0  0  0  0  0
  -26.7442  -32.5031   23.0822 H   0  0  0  0  0  0
  -25.0056  -33.9399   25.0104 H   0  0  0  0  0  0
  -22.8145  -31.2505   21.3293 H   0  0  0  0  0  0
  -23.3772  -35.9491   23.3273 H   0  0  0  0  0  0
  -24.3563  -36.8874   22.2072 H   0  0  0  0  0  0
  -23.7235  -37.6344   23.6744 H   0  0  0  0  0  0
  -26.2601  -31.3147   20.6215 H   0  0  0  0  0  0
  -26.9252  -30.6450   22.0668 H   0  0  0  0  0  0
  -28.1664  -28.4990   21.2879 H   0  0  0  0  0  0
  -25.8664  -25.6609   19.0223 H   0  0  0  0  0  0
  -24.0207  -27.2271   18.9543 H   0  0  0  0  0  0
  -23.9063  -30.4808   19.3816 H   0  0  0  0  0  0
  -22.8493  -29.1771   19.8252 H   0  0  0  0  0  0
  -25.1344  -36.1708   25.0779 H   0  0  0  0  0  0
  -21.0036  -28.3398   24.1293 H   0  0  0  0  0  0
  -20.5662  -26.2402   23.3659 H   0  0  0  0  0  0
  -21.6663  -26.7400   22.1227 H   0  0  0  0  0  0
  -19.6929  -25.6264   21.1300 H   0  0  0  0  0  0
  -19.6718  -27.3136   20.6707 H   0  0  0  0  0  0
  -17.4224  -26.6702   21.4025 H   0  0  0  0  0  0
  -18.0345  -26.0115   22.9030 H   0  0  0  0  0  0
  -19.7970  -30.7347   24.2175 H   0  0  0  0  0  0
  -17.5032  -31.6285   24.5162 H   0  0  0  0  0  0
  -15.5373  -30.2967   23.7709 H   0  0  0  0  0  0
  -15.8711  -28.0807   22.7120 H   0  0  0  0  0  0
  -24.5875  -30.7133   25.7621 H   0  0  0  0  0  0
  -24.8837  -32.3014   26.4586 H   0  0  0  0  0  0
  -25.7872  -30.9072   27.0205 H   0  0  0  0  0  0
  -26.3185  -29.6518   24.1491 H   0  0  0  0  0  0
  -27.3959  -29.7280   25.5205 H   0  0  0  0  0  0
  -27.9151  -30.4026   23.9982 H   0  0  0  0  0  0
  -27.2597  -33.3716   26.1912 H   0  0  0  0  0  0
  -28.3943  -32.6828   25.0394 H   0  0  0  0  0  0
  -28.0619  -31.8598   26.5556 H   0  0  0  0  0  0
  -28.2560  -38.0064   24.7515 H   0  0  0  0  0  0
  -28.1087  -36.2589   24.6294 H   0  0  0  0  0  0
  -27.2283  -37.1385   25.8869 H   0  0  0  0  0  0
  -20.9662  -29.8711   21.6590 H   0  0  0  0  0  0
  -26.0113  -38.2732   24.1420 H   0  0  0  0  0  0
  -30.6296  -17.8434   23.0425 H   0  0  0  0  0  0
  -31.6864  -17.6916   21.6688 H   0  0  0  0  0  0
  -31.2084  -16.2861   22.5993 H   0  0  0  0  0  0
  -28.9275  -15.5758   22.6142 H   0  0  0  0  0  0
  -27.8395  -15.8601   21.2146 H   0  0  0  0  0  0
  -27.8342  -16.8323   22.5866 H   0  0  0  0  0  0
  -26.7759  -20.9202   23.0708 H   0  0  0  0  0  0
  -27.1346  -21.2856   21.4397 H   0  0  0  0  0  0
  -28.3891  -21.4192   22.6887 H   0  0  0  0  0  0
  -25.9552  -19.4021   21.1632 H   0  0  0  0  0  0
  -26.0472  -18.2778   22.4924 H   0  0  0  0  0  0
  -26.7572  -17.9031   20.9203 H   0  0  0  0  0  0
  -27.4904  -19.1852   24.2876 H   0  0  0  0  0  0
  -29.1309  -19.6934   23.9591 H   0  0  0  0  0  0
  -28.7059  -18.0391   23.8788 H   0  0  0  0  0  0
  -28.0681  -19.2697   18.5764 H   0  0  0  0  0  0
  -28.1364  -20.9657   18.1126 H   0  0  0  0  0  0
  -27.0321  -20.4470   19.3649 H   0  0  0  0  0  0
  -30.5966  -19.3073   18.9444 H   0  0  0  0  0  0
  -31.3104  -20.5707   19.9351 H   0  0  0  0  0  0
  -30.5591  -20.9692   18.3957 H   0  0  0  0  0  0
  -27.2629  -23.7984   20.9318 H   0  0  0  0  0  0
  -27.5208  -23.8382   19.2398 H   0  0  0  0  0  0
  -30.0188  -19.3719   21.6279 H   0  0  0  0  0  0
  -29.7881  -22.7297   19.5174 H   0  0  0  0  0  0
  1 25  1  0  0  0
  1 30  2  0  0  0
  1 81  1  0  0  0
  2  3  1  0  0  0
  2 25  1  0  0  0
  2 85  1  0  0  0
  2 86  1  0  0  0
  3  4  1  0  0  0
  3 87  1  0  0  0
  3 88  1  0  0  0
  4  5  1  0  0  0
  4 89  1  0  0  0
  4 90  1  0  0  0
  5  6  1  0  0  0
  5 26  1  0  0  0
  5 91  1  0  0  0
  6 25  1  0  0  0
  6 92  1  0  0  0
  6 93  1  0  0  0
  7  8  2  0  0  0
  7 26  1  0  0  0
  7 29  1  0  0  0
  8  9  1  0  0  0
  8 22  1  0  0  0
  9 10  1  0  0  0
  9 27  2  0  0  0
 10 11  2  0  0  0
 10 15  1  0  0  0
 11 12  1  0  0  0
 11 94  1  0  0  0
 12 13  2  0  0  0
 12 95  1  0  0  0
 13 14  1  0  0  0
 13 31  1  0  0  0
 14 15  2  0  0  0
 14 96  1  0  0  0
 15 97  1  0  0  0
 16 17  2  0  0  0
 16 21  1  0  0  0
 16 31  1  0  0  0
 17 18  1  0  0  0
 17 98  1  0  0  0
 18 19  2  0  0  0
 18 99  1  0  0  0
 19 20  1  0  0  0
 19 24  1  0  0  0
 20 21  2  0  0  0
 20100  1  0  0  0
 21 23  1  0  0  0
 22 28  1  0  0  0
 22 32  2  0  0  0
 26 27  1  0  0  0
 28101  1  0  0  0
 28102  1  0  0  0
 29103  1  0  0  0
 29104  1  0  0  0
 33 34  1  0  0  0
 33 66  1  0  0  0
 33 70  2  0  0  0
 34 36  1  0  0  0
 34 59  1  0  0  0
 34105  1  0  0  0
 35 44  2  0  0  0
 35 45  1  0  0  0
 35 68  1  0  0  0
 36 56  1  0  0  0
 36106  1  0  0  0
 37 39  1  0  0  0
 37 47  1  0  0  0
 37 66  1  0  0  0
 37107  1  0  0  0
 38 43  2  0  0  0
 38 46  1  0  0  0
 38 47  1  0  0  0
 39 64  1  0  0  0
 39 67  2  0  0  0
 40 52  1  0  0  0
 40 53  2  0  0  0
 40 58  1  0  0  0
 41108  1  0  0  0
 41109  1  0  0  0
 41110  1  0  0  0
 41 48  1  0  0  0
 42 43  1  0  0  0
 42 66  1  0  0  0
 42111  1  0  0  0
 42112  1  0  0  0
 43 44  1  0  0  0
 44113  1  0  0  0
 45 46  2  0  0  0
 45114  1  0  0  0
 46115  1  0  0  0
 47116  1  0  0  0
 47117  1  0  0  0
 48 56  1  0  0  0
 48 65  1  0  0  0
 48118  1  0  0  0
 49 50  1  0  0  0
 49 53  1  0  0  0
 49 64  1  0  0  0
 49119  1  0  0  0
 50 51  1  0  0  0
 50120  1  0  0  0
 50121  1  0  0  0
 51 52  1  0  0  0
 51122  1  0  0  0
 51123  1  0  0  0
 52124  1  0  0  0
 52125  1  0  0  0
 53 54  1  0  0  0
 54 55  2  0  0  0
 54126  1  0  0  0
 55 57  1  0  0  0
 55127  1  0  0  0
 56 69  2  0  0  0
 57 58  2  0  0  0
 57128  1  0  0  0
 58129  1  0  0  0
 59 60  1  0  0  0
 59 61  1  0  0  0
 59 62  1  0  0  0
 60130  1  0  0  0
 60131  1  0  0  0
 60132  1  0  0  0
 61133  1  0  0  0
 61134  1  0  0  0
 61135  1  0  0  0
 62136  1  0  0  0
 62137  1  0  0  0
 62138  1  0  0  0
 63 65  1  0  0  0
 63139  1  0  0  0
 63140  1  0  0  0
 63141  1  0  0  0
 64142  1  0  0  0
 65143  1  0  0  0
 68 78  1  0  0  0
 71144  1  0  0  0
 71145  1  0  0  0
 71146  1  0  0  0
 71 81  1  0  0  0
 72 81  1  0  0  0
 72147  1  0  0  0
 72148  1  0  0  0
 72149  1  0  0  0
 73150  1  0  0  0
 73151  1  0  0  0
 73152  1  0  0  0
 73 82  1  0  0  0
 74 82  1  0  0  0
 74153  1  0  0  0
 74154  1  0  0  0
 74155  1  0  0  0
 75 82  1  0  0  0
 75156  1  0  0  0
 75157  1  0  0  0
 75158  1  0  0  0
 76159  1  0  0  0
 76160  1  0  0  0
 76161  1  0  0  0
 76 83  1  0  0  0
 77 83  1  0  0  0
 77162  1  0  0  0
 77163  1  0  0  0
 77164  1  0  0  0
 78 80  1  0  0  0
 78165  1  0  0  0
 78166  1  0  0  0
 79 81  1  0  0  0
 79 82  1  0  0  0
 79 83  1  0  0  0
 79167  1  0  0  0
 80 83  1  0  0  0
 80 84  1  0  0  0
 80168  1  0  0  0
M  ISO  4   1 100  68 101  78 101  81 100
M  END
> <chiral flag>
0

> <version>
0

> <s_m_source_file>
/data/baiqing/PycharmProjects/Reinvent-master-3.2/result/LINK_invent/BTK/process_docking_weight1_custom_sum_contain_oxygen_bond_distance_aromatic_linkinvent_7_9_3/rearranged_h_0050.sdf

> <i_m_source_file_index>
15

> <r_mmod_Potential_Energy-OPLS-2005>
2667.90966796875

> <r_mmod_Stretch_Energy-OPLS-2005>
1147.15844726562

> <r_mmod_Bend_Energy-OPLS-2005>
862.040649414062

> <r_mmod_Torsional_Energy-OPLS-2005>
258.739227294922

> <r_mmod_Improper_Torsional_Energy-OPLS-2005>
4.04469776153564

> <r_mmod_Van_der_Waal_Energy-OPLS-2005>
195.670745849609

> <r_mmod_Electrostatic_Energy-OPLS-2005>
-289.503021240234

> <r_mmod_Solvation_Energy-OPLS-2005>
-170.818466186523

> <b_mmod_Minimization_Converged-OPLS-2005>
0

> <r_mmod_RMS_Derivative-OPLS-2005>
0.388031333684921

$$$$
15
                    3D
 Structure written by MMmdl.
163171  0  0  1  0            999 V2000
  -30.6343  -14.7359   20.5472 C   0  0  0  0  0  0
  -30.4399  -12.4723   19.4831 C   0  0  0  0  0  0
  -29.5196  -12.5403   18.2433 C   0  0  0  0  0  0
  -28.0442  -12.3506   18.6463 C   0  0  0  0  0  0
  -27.6502  -13.2293   19.8622 C   0  0  2  0  0  0
  -28.6859  -13.1059   20.9970 C   0  0  0  0  0  0
  -25.2549  -13.8205   20.5707 C   0  0  0  0  0  0
  -24.1819  -13.0463   20.9177 C   0  0  0  0  0  0
  -24.6393  -11.6938   20.8694 C   0  0  0  0  0  0
  -23.9051  -10.4324   21.0397 C   0  0  0  0  0  0
  -24.3610   -9.4243   21.9192 C   0  0  0  0  0  0
  -23.6307   -8.2268   22.0760 C   0  0  0  0  0  0
  -22.4293   -8.0295   21.3544 C   0  0  0  0  0  0
  -21.9906   -9.0257   20.4643 C   0  0  0  0  0  0
  -22.7214  -10.2156   20.3058 C   0  0  0  0  0  0
  -21.6853   -6.0749   22.5276 C   0  0  0  0  0  0
  -21.4004   -6.5643   23.8205 C   0  0  0  0  0  0
  -21.3674   -5.6794   24.9163 C   0  0  0  0  0  0
  -21.6071   -4.3062   24.7219 C   0  0  0  0  0  0
  -21.8818   -3.8156   23.4328 C   0  0  0  0  0  0
  -21.9190   -4.6978   22.3391 C   0  0  0  0  0  0
  -22.7843  -13.5265   21.1832 C   0  0  0  0  0  0
  -22.1651   -4.2173   21.0970 F   0  0  0  0  0  0
  -21.5637   -3.4534   25.7724 F   0  0  0  0  0  0
  -29.9910  -13.5119   20.4473 N   0  0  0  0  0  0
  -26.2969  -12.9403   20.3291 N   0  0  0  0  0  0
  -25.9322  -11.6546   20.5690 N   0  0  0  0  0  0
  -22.0425  -12.8290   22.0375 N   0  0  0  0  0  0
  -25.4276  -15.1925   20.4162 N   0  0  0  0  0  0
  -31.7734  -14.8438   20.0793 O   0  0  0  0  0  0
  -21.6663   -6.8887   21.4232 O   0  0  0  0  0  0
  -22.3545  -14.5578   20.6669 O   0  0  0  0  0  0
  -24.6309  -31.8559   23.1945 C   0  0  0  0  0  0
  -25.9133  -32.4762   23.8313 C   0  0  1  0  0  0
  -27.2308  -27.2605   20.1476 C   0  0  0  0  0  0
  -25.5921  -33.8555   24.2239 N   0  0  0  0  0  0
  -23.4294  -30.4745   21.5389 C   0  0  2  0  0  0
  -24.8818  -28.9086   20.1203 C   0  0  0  0  0  0
  -22.7476  -29.4632   22.4925 C   0  0  0  0  0  0
  -18.0290  -28.1409   22.8486 C   0  0  0  0  0  0
  -24.1497  -36.7286   23.2637 C   0  0  0  0  0  0
  -25.9738  -30.7666   21.3775 C   0  0  0  0  0  0
  -26.0498  -29.3817   20.7336 C   0  0  0  0  0  0
  -27.2284  -28.5684   20.7423 C   0  0  0  0  0  0
  -26.0442  -26.8476   19.5104 C   0  0  0  0  0  0
  -24.8818  -27.6460   19.5015 C   0  0  0  0  0  0
  -23.6524  -29.7975   20.1589 C   0  0  0  0  0  0
  -25.4119  -36.3068   24.0328 C   0  0  1  0  0  0
  -20.5890  -28.3729   23.1269 C   0  0  2  0  0  0
  -20.6800  -26.9452   22.5410 C   0  0  0  0  0  0
  -19.5773  -26.6409   21.5219 C   0  0  0  0  0  0
  -18.1952  -26.7946   22.1624 C   0  0  0  0  0  0
  -19.1545  -28.8880   23.2874 C   0  0  0  0  0  0
  -18.9466  -30.1483   23.8905 C   0  0  0  0  0  0
  -17.6469  -30.6605   24.0576 C   0  0  0  0  0  0
  -25.9062  -34.9442   23.5080 C   0  0  0  0  0  0
  -16.5360  -29.9110   23.6339 C   0  0  0  0  0  0
  -16.7283  -28.6527   23.0352 C   0  0  0  0  0  0
  -26.4492  -31.6569   25.0696 C   0  0  0  0  0  0
  -25.3704  -31.3728   26.1401 C   0  0  0  0  0  0
  -27.0351  -30.2987   24.6190 C   0  0  0  0  0  0
  -27.6053  -32.4298   25.7472 C   0  0  0  0  0  0
  -27.5581  -37.1802   24.8462 C   0  0  0  0  0  0
  -21.4191  -29.3067   22.3644 N   0  0  0  0  0  0
  -26.4299  -37.3762   23.9401 N   0  0  0  0  0  0
  -24.6969  -31.0517   22.0932 N   0  0  0  0  0  0
  -23.4160  -28.8173   23.3048 O   0  0  0  0  0  0
  -28.3252  -26.3730   20.0899 O   0  0  0  0  0  0
  -26.5633  -34.8910   22.4659 O   0  0  0  0  0  0
  -23.5460  -32.1403   23.7219 O   0  0  0  0  0  0
  -27.3507  -22.8784   21.2319 C   0  0  0  0  0  0
  -28.3701  -23.7086   20.8144 C   0  0  0  0  0  0
  -28.9598  -21.4578   20.5602 C   0  0  0  0  0  0
  -31.3640  -24.3084   20.0983 C   0  0  0  0  0  0
  -30.3157  -23.1263   18.1002 C   0  0  0  0  0  0
  -29.4073  -15.9476   22.3031 C   0  0  0  0  0  0
  -28.4453  -25.2755   21.0941 C   0  0  0  0  0  0
  -29.7189  -20.0947   20.2310 C   0  0  0  0  0  0
  -29.3304  -18.6289   20.8311 C   0  0  0  0  0  0
  -30.1801  -17.3029   20.3600 C   0  0  0  0  0  0
  -30.5956  -23.0678   19.6112 C   0  0  0  0  0  0
  -29.3367  -22.7753   20.3428 N   0  0  0  0  0  0
  -27.7266  -21.5599   21.0672 N   0  3  0  0  0  0
  -29.9355  -15.8914   20.9350 N   0  0  0  0  0  0
  -30.3902  -11.4828   19.9393 H   0  0  0  0  0  0
  -31.4815  -12.5968   19.1848 H   0  0  0  0  0  0
  -29.8108  -11.7836   17.5134 H   0  0  0  0  0  0
  -29.6444  -13.5043   17.7496 H   0  0  0  0  0  0
  -27.9028  -11.2955   18.8861 H   0  0  0  0  0  0
  -27.3928  -12.5615   17.7992 H   0  0  0  0  0  0
  -27.6659  -14.2647   19.5200 H   0  0  0  0  0  0
  -28.7349  -12.0802   21.3623 H   0  0  0  0  0  0
  -28.3643  -13.6910   21.8526 H   0  0  0  0  0  0
  -25.2748   -9.5726   22.4786 H   0  0  0  0  0  0
  -24.0029   -7.4661   22.7495 H   0  0  0  0  0  0
  -21.0833   -8.8780   19.8938 H   0  0  0  0  0  0
  -22.3680  -10.9707   19.6183 H   0  0  0  0  0  0
  -21.1982   -7.6154   23.9724 H   0  0  0  0  0  0
  -21.1493   -6.0508   25.9081 H   0  0  0  0  0  0
  -22.0578   -2.7620   23.2807 H   0  0  0  0  0  0
  -22.3980  -12.0011   22.4899 H   0  0  0  0  0  0
  -21.1005  -13.1333   22.2462 H   0  0  0  0  0  0
  -24.6652  -15.8492   20.5427 H   0  0  0  0  0  0
  -26.2953  -15.6372   20.1408 H   0  0  0  0  0  0
  -26.7191  -32.5447   23.1048 H   0  0  0  0  0  0
  -25.0071  -33.9694   25.0379 H   0  0  0  0  0  0
  -22.7277  -31.2970   21.3825 H   0  0  0  0  0  0
  -23.3763  -35.9623   23.3310 H   0  0  0  0  0  0
  -24.3588  -36.8897   22.2052 H   0  0  0  0  0  0
  -23.7251  -37.6487   23.6660 H   0  0  0  0  0  0
  -26.1080  -31.5224   20.6021 H   0  0  0  0  0  0
  -26.8512  -30.8243   22.0104 H   0  0  0  0  0  0
  -28.1247  -28.9310   21.2265 H   0  0  0  0  0  0
  -26.0191  -25.8836   19.0234 H   0  0  0  0  0  0
  -23.9884  -27.2728   19.0200 H   0  0  0  0  0  0
  -23.7774  -30.5678   19.3977 H   0  0  0  0  0  0
  -22.7735  -29.2253   19.8570 H   0  0  0  0  0  0
  -25.1309  -36.1925   25.0829 H   0  0  0  0  0  0
  -20.9991  -28.3335   24.1381 H   0  0  0  0  0  0
  -20.5733  -26.2350   23.3617 H   0  0  0  0  0  0
  -21.6677  -26.7514   22.1193 H   0  0  0  0  0  0
  -19.6958  -25.6313   21.1270 H   0  0  0  0  0  0
  -19.6720  -27.3205   20.6732 H   0  0  0  0  0  0
  -17.4227  -26.6693   21.4018 H   0  0  0  0  0  0
  -18.0355  -26.0096   22.9027 H   0  0  0  0  0  0
  -19.7956  -30.7298   24.2279 H   0  0  0  0  0  0
  -17.5033  -31.6282   24.5176 H   0  0  0  0  0  0
  -15.5368  -30.3014   23.7661 H   0  0  0  0  0  0
  -15.8682  -28.0849   22.7058 H   0  0  0  0  0  0
  -24.5900  -30.7047   25.7702 H   0  0  0  0  0  0
  -24.8875  -32.2911   26.4762 H   0  0  0  0  0  0
  -25.8014  -30.8939   27.0203 H   0  0  0  0  0  0
  -26.2945  -29.6709   24.1217 H   0  0  0  0  0  0
  -27.4016  -29.7259   25.4712 H   0  0  0  0  0  0
  -27.8818  -30.4231   23.9441 H   0  0  0  0  0  0
  -27.2670  -33.3607   26.2024 H   0  0  0  0  0  0
  -28.3887  -32.6826   25.0318 H   0  0  0  0  0  0
  -28.0692  -31.8434   26.5409 H   0  0  0  0  0  0
  -28.2604  -38.0085   24.7503 H   0  0  0  0  0  0
  -28.1071  -36.2626   24.6314 H   0  0  0  0  0  0
  -27.2305  -37.1472   25.8861 H   0  0  0  0  0  0
  -20.9370  -29.8745   21.6809 H   0  0  0  0  0  0
  -26.0190  -38.2853   24.1358 H   0  0  0  0  0  0
  -26.4003  -23.1305   21.6847 H   0  0  0  0  0  0
  -32.3491  -24.3424   19.6280 H   0  0  0  0  0  0
  -31.5199  -24.2843   21.1782 H   0  0  0  0  0  0
  -30.8637  -25.2394   19.8354 H   0  0  0  0  0  0
  -31.2387  -23.2370   17.5302 H   0  0  0  0  0  0
  -29.6605  -23.9590   17.8429 H   0  0  0  0  0  0
  -29.8255  -22.2156   17.7564 H   0  0  0  0  0  0
  -29.6839  -15.0726   22.8967 H   0  0  0  0  0  0
  -28.3184  -16.0269   22.2789 H   0  0  0  0  0  0
  -29.7991  -16.7971   22.8618 H   0  0  0  0  0  0
  -27.6886  -25.4697   21.8555 H   0  0  0  0  0  0
  -29.3794  -25.4570   21.6239 H   0  0  0  0  0  0
  -30.7511  -20.2737   20.5322 H   0  0  0  0  0  0
  -29.7215  -20.0394   19.1428 H   0  0  0  0  0  0
  -28.2747  -18.4441   20.6336 H   0  0  0  0  0  0
  -29.4078  -18.7247   21.9144 H   0  0  0  0  0  0
  -31.2389  -17.5214   20.5101 H   0  0  0  0  0  0
  -30.0648  -17.2053   19.2787 H   0  0  0  0  0  0
  -31.2708  -22.2313   19.7876 H   0  0  0  0  0  0
  -27.1409  -20.7714   21.3098 H   0  0  0  0  0  0
  1 25  1  0  0  0
  1 30  2  0  0  0
  1 84  1  0  0  0
  2  3  1  0  0  0
  2 25  1  0  0  0
  2 85  1  0  0  0
  2 86  1  0  0  0
  3  4  1  0  0  0
  3 87  1  0  0  0
  3 88  1  0  0  0
  4  5  1  0  0  0
  4 89  1  0  0  0
  4 90  1  0  0  0
  5  6  1  0  0  0
  5 26  1  0  0  0
  5 91  1  0  0  0
  6 25  1  0  0  0
  6 92  1  0  0  0
  6 93  1  0  0  0
  7  8  2  0  0  0
  7 26  1  0  0  0
  7 29  1  0  0  0
  8  9  1  0  0  0
  8 22  1  0  0  0
  9 10  1  0  0  0
  9 27  2  0  0  0
 10 11  2  0  0  0
 10 15  1  0  0  0
 11 12  1  0  0  0
 11 94  1  0  0  0
 12 13  2  0  0  0
 12 95  1  0  0  0
 13 14  1  0  0  0
 13 31  1  0  0  0
 14 15  2  0  0  0
 14 96  1  0  0  0
 15 97  1  0  0  0
 16 17  2  0  0  0
 16 21  1  0  0  0
 16 31  1  0  0  0
 17 18  1  0  0  0
 17 98  1  0  0  0
 18 19  2  0  0  0
 18 99  1  0  0  0
 19 20  1  0  0  0
 19 24  1  0  0  0
 20 21  2  0  0  0
 20100  1  0  0  0
 21 23  1  0  0  0
 22 28  1  0  0  0
 22 32  2  0  0  0
 26 27  1  0  0  0
 28101  1  0  0  0
 28102  1  0  0  0
 29103  1  0  0  0
 29104  1  0  0  0
 33 34  1  0  0  0
 33 66  1  0  0  0
 33 70  2  0  0  0
 34 36  1  0  0  0
 34 59  1  0  0  0
 34105  1  0  0  0
 35 44  2  0  0  0
 35 45  1  0  0  0
 35 68  1  0  0  0
 36 56  1  0  0  0
 36106  1  0  0  0
 37 39  1  0  0  0
 37 47  1  0  0  0
 37 66  1  0  0  0
 37107  1  0  0  0
 38 43  2  0  0  0
 38 46  1  0  0  0
 38 47  1  0  0  0
 39 64  1  0  0  0
 39 67  2  0  0  0
 40 52  1  0  0  0
 40 53  2  0  0  0
 40 58  1  0  0  0
 41108  1  0  0  0
 41109  1  0  0  0
 41110  1  0  0  0
 41 48  1  0  0  0
 42 43  1  0  0  0
 42 66  1  0  0  0
 42111  1  0  0  0
 42112  1  0  0  0
 43 44  1  0  0  0
 44113  1  0  0  0
 45 46  2  0  0  0
 45114  1  0  0  0
 46115  1  0  0  0
 47116  1  0  0  0
 47117  1  0  0  0
 48 56  1  0  0  0
 48 65  1  0  0  0
 48118  1  0  0  0
 49 50  1  0  0  0
 49 53  1  0  0  0
 49 64  1  0  0  0
 49119  1  0  0  0
 50 51  1  0  0  0
 50120  1  0  0  0
 50121  1  0  0  0
 51 52  1  0  0  0
 51122  1  0  0  0
 51123  1  0  0  0
 52124  1  0  0  0
 52125  1  0  0  0
 53 54  1  0  0  0
 54 55  2  0  0  0
 54126  1  0  0  0
 55 57  1  0  0  0
 55127  1  0  0  0
 56 69  2  0  0  0
 57 58  2  0  0  0
 57128  1  0  0  0
 58129  1  0  0  0
 59 60  1  0  0  0
 59 61  1  0  0  0
 59 62  1  0  0  0
 60130  1  0  0  0
 60131  1  0  0  0
 60132  1  0  0  0
 61133  1  0  0  0
 61134  1  0  0  0
 61135  1  0  0  0
 62136  1  0  0  0
 62137  1  0  0  0
 62138  1  0  0  0
 63 65  1  0  0  0
 63139  1  0  0  0
 63140  1  0  0  0
 63141  1  0  0  0
 64142  1  0  0  0
 65143  1  0  0  0
 68 77  1  0  0  0
 71 72  2  0  0  0
 71 83  1  0  0  0
 71144  1  0  0  0
 72 77  1  0  0  0
 72 82  1  0  0  0
 73 78  1  0  0  0
 73 82  1  0  0  0
 73 83  2  0  0  0
 74145  1  0  0  0
 74146  1  0  0  0
 74147  1  0  0  0
 74 81  1  0  0  0
 75 81  1  0  0  0
 75148  1  0  0  0
 75149  1  0  0  0
 75150  1  0  0  0
 76 84  1  0  0  0
 76151  1  0  0  0
 76152  1  0  0  0
 76153  1  0  0  0
 77154  1  0  0  0
 77155  1  0  0  0
 78 79  1  0  0  0
 78156  1  0  0  0
 78157  1  0  0  0
 79 80  1  0  0  0
 79158  1  0  0  0
 79159  1  0  0  0
 80 84  1  0  0  0
 80160  1  0  0  0
 80161  1  0  0  0
 81 82  1  0  0  0
 81162  1  0  0  0
 83163  1  0  0  0
M  CHG  1  83   1
M  ISO  4   1 100  68 101  77 101  84 100
M  END
> <chiral flag>
0

> <version>
0

> <s_m_source_file>
/data/baiqing/PycharmProjects/Reinvent-master-3.2/result/LINK_invent/BTK/process_docking_weight1_custom_sum_contain_oxygen_bond_distance_aromatic_linkinvent_7_9_3/rearranged_h_0050.sdf

> <i_m_source_file_index>
16

> <r_mmod_Potential_Energy-OPLS-2005>
335.796508789062

> <r_mmod_Stretch_Energy-OPLS-2005>
143.553115844727

> <r_mmod_Bend_Energy-OPLS-2005>
202.842178344727

> <r_mmod_Torsional_Energy-OPLS-2005>
340.237670898438

> <r_mmod_Improper_Torsional_Energy-OPLS-2005>
8.84367561340332

> <r_mmod_Van_der_Waal_Energy-OPLS-2005>
117.544036865234

> <r_mmod_Electrostatic_Energy-OPLS-2005>
-149.525497436523

> <r_mmod_Solvation_Energy-OPLS-2005>
-404.106384277344

> <b_mmod_Minimization_Converged-OPLS-2005>
0

> <r_mmod_RMS_Derivative-OPLS-2005>
4.00685119628906

$$$$
16
                    3D
 Structure written by MMmdl.
173181  0  0  1  0            999 V2000
  -30.7094  -14.5475   20.4629 C   0  0  0  0  0  0
  -30.4212  -12.3256   19.4357 C   0  0  0  0  0  0
  -29.4961  -12.4548   18.2090 C   0  0  0  0  0  0
  -28.0160  -12.3269   18.6263 C   0  0  0  0  0  0
  -27.6437  -13.1970   19.8582 C   0  0  2  0  0  0
  -28.7046  -13.0916   20.9786 C   0  0  0  0  0  0
  -25.2561  -13.8098   20.5723 C   0  0  0  0  0  0
  -24.1800  -13.0388   20.9210 C   0  0  0  0  0  0
  -24.6358  -11.6861   20.8767 C   0  0  0  0  0  0
  -23.9033  -10.4258   21.0417 C   0  0  0  0  0  0
  -24.3592   -9.4173   21.9186 C   0  0  0  0  0  0
  -23.6264   -8.2213   22.0757 C   0  0  0  0  0  0
  -22.4246   -8.0267   21.3546 C   0  0  0  0  0  0
  -21.9885   -9.0245   20.4651 C   0  0  0  0  0  0
  -22.7217  -10.2116   20.3056 C   0  0  0  0  0  0
  -21.6840   -6.0716   22.5280 C   0  0  0  0  0  0
  -21.4012   -6.5625   23.8212 C   0  0  0  0  0  0
  -21.3648   -5.6782   24.9175 C   0  0  0  0  0  0
  -21.6041   -4.3046   24.7234 C   0  0  0  0  0  0
  -21.8819   -3.8132   23.4359 C   0  0  0  0  0  0
  -21.9184   -4.6942   22.3407 C   0  0  0  0  0  0
  -22.7833  -13.5218   21.1838 C   0  0  0  0  0  0
  -22.1657   -4.2119   21.0987 F   0  0  0  0  0  0
  -21.5622   -3.4536   25.7753 F   0  0  0  0  0  0
  -30.0234  -13.3701   20.3895 N   0  0  0  0  0  0
  -26.2958  -12.9222   20.3379 N   0  0  0  0  0  0
  -25.9278  -11.6406   20.5806 N   0  0  0  0  0  0
  -22.0443  -12.8247   22.0401 N   0  0  0  0  0  0
  -25.4301  -15.1821   20.4146 N   0  0  0  0  0  0
  -31.9113  -14.6331   20.2034 O   0  0  0  0  0  0
  -21.6622   -6.8858   21.4240 O   0  0  0  0  0  0
  -22.3544  -14.5509   20.6650 O   0  0  0  0  0  0
  -24.6184  -31.8672   23.2123 C   0  0  0  0  0  0
  -25.9066  -32.4820   23.8424 C   0  0  1  0  0  0
  -27.2218  -27.4043   20.0993 C   0  0  0  0  0  0
  -25.5916  -33.8621   24.2348 N   0  0  0  0  0  0
  -23.4088  -30.4958   21.5524 C   0  0  2  0  0  0
  -24.8554  -28.9734   20.1061 C   0  0  0  0  0  0
  -22.7448  -29.4665   22.4968 C   0  0  0  0  0  0
  -18.0285  -28.1381   22.8494 C   0  0  0  0  0  0
  -24.1488  -36.7319   23.2644 C   0  0  0  0  0  0
  -25.9449  -30.8219   21.3764 C   0  0  0  0  0  0
  -26.0205  -29.4604   20.7130 C   0  0  0  0  0  0
  -27.2089  -28.6842   20.7092 C   0  0  0  0  0  0
  -26.0460  -26.9729   19.4369 C   0  0  0  0  0  0
  -24.8665  -27.7313   19.4596 C   0  0  0  0  0  0
  -23.6185  -29.8401   20.1637 C   0  0  0  0  0  0
  -25.4106  -36.3115   24.0347 C   0  0  1  0  0  0
  -20.5879  -28.3678   23.1299 C   0  0  2  0  0  0
  -20.6772  -26.9410   22.5413 C   0  0  0  0  0  0
  -19.5749  -26.6389   21.5213 C   0  0  0  0  0  0
  -18.1930  -26.7930   22.1628 C   0  0  0  0  0  0
  -19.1536  -28.8848   23.2893 C   0  0  0  0  0  0
  -18.9460  -30.1451   23.8907 C   0  0  0  0  0  0
  -17.6460  -30.6585   24.0570 C   0  0  0  0  0  0
  -25.9032  -34.9479   23.5142 C   0  0  0  0  0  0
  -16.5350  -29.9083   23.6328 C   0  0  0  0  0  0
  -16.7272  -28.6501   23.0346 C   0  0  0  0  0  0
  -26.4480  -31.6593   25.0753 C   0  0  0  0  0  0
  -25.3738  -31.3706   26.1495 C   0  0  0  0  0  0
  -27.0296  -30.3016   24.6159 C   0  0  0  0  0  0
  -27.6065  -32.4301   25.7498 C   0  0  0  0  0  0
  -27.5586  -37.1816   24.8464 C   0  0  0  0  0  0
  -21.4167  -29.3043   22.3705 N   0  0  0  0  0  0
  -26.4296  -37.3795   23.9411 N   0  0  0  0  0  0
  -24.6753  -31.0757   22.1042 N   0  0  0  0  0  0
  -23.4216  -28.8187   23.3002 O   0  0  0  0  0  0
  -28.3138  -26.5506   20.2026 O   0  0  0  0  0  0
  -26.5591  -34.8924   22.4700 O   0  0  0  0  0  0
  -23.5366  -32.1442   23.7499 O   0  0  0  0  0  0
  -30.0736  -22.8062   22.6493 C   0  0  0  0  0  0
  -29.5512  -24.0455   22.2209 C   0  0  0  0  0  0
  -29.4182  -21.8785   20.5328 C   0  0  0  0  0  0
  -29.9563  -21.6632   21.8202 C   0  0  0  0  0  0
  -28.9221  -24.1280   20.9645 C   0  0  0  0  0  0
  -33.1855  -21.2659   21.2862 C   0  0  0  0  0  0
  -33.5158  -17.8722   22.2734 C   0  0  0  0  0  0
  -29.3532  -16.1654   19.3003 C   0  0  0  0  0  0
  -27.8956  -25.2343   20.6638 C   0  0  0  0  0  0
  -32.2777  -20.1781   20.6747 C   0  0  0  0  0  0
  -32.3350  -18.7393   22.7636 C   0  0  0  0  0  0
  -30.7852  -18.1460   20.8086 C   0  0  0  0  0  0
  -30.3147  -16.7950   21.4843 C   0  0  0  0  0  0
  -30.2977  -20.2509   22.3748 C   0  0  2  0  0  0
  -31.3983  -19.3333   21.6619 C   0  0  0  0  0  0
  -28.9166  -23.0674   20.1176 N   0  0  0  0  0  0
  -29.9619  -15.6854   20.5519 N   0  0  0  0  0  0
  -29.0691  -19.5254   22.7511 N   0  3  0  0  0  0
  -31.4651  -12.4111   19.1309 H   0  0  0  0  0  0
  -30.3224  -11.3405   19.8950 H   0  0  0  0  0  0
  -29.7426  -11.6832   17.4788 H   0  0  0  0  0  0
  -29.6687  -13.4052   17.7035 H   0  0  0  0  0  0
  -27.8348  -11.2762   18.8552 H   0  0  0  0  0  0
  -27.3663  -12.5687   17.7847 H   0  0  0  0  0  0
  -27.6177  -14.2202   19.5092 H   0  0  0  0  0  0
  -28.7005  -12.0974   21.4265 H   0  0  0  0  0  0
  -28.4780  -13.7921   21.7844 H   0  0  0  0  0  0
  -25.2727   -9.5635   22.4772 H   0  0  0  0  0  0
  -23.9957   -7.4591   22.7479 H   0  0  0  0  0  0
  -21.0806   -8.8778   19.8962 H   0  0  0  0  0  0
  -22.3682  -10.9666   19.6169 H   0  0  0  0  0  0
  -21.2023   -7.6134   23.9715 H   0  0  0  0  0  0
  -21.1461   -6.0512   25.9077 H   0  0  0  0  0  0
  -22.0608   -2.7595   23.2873 H   0  0  0  0  0  0
  -22.4042  -11.9938   22.4853 H   0  0  0  0  0  0
  -21.1054  -13.1300   22.2550 H   0  0  0  0  0  0
  -24.6676  -15.8409   20.5308 H   0  0  0  0  0  0
  -26.2918  -15.6214   20.1174 H   0  0  0  0  0  0
  -26.7141  -32.5524   23.1190 H   0  0  0  0  0  0
  -25.0062  -33.9783   25.0492 H   0  0  0  0  0  0
  -22.6996  -31.3154   21.4190 H   0  0  0  0  0  0
  -23.3740  -35.9661   23.3310 H   0  0  0  0  0  0
  -24.3583  -36.8929   22.2058 H   0  0  0  0  0  0
  -23.7252  -37.6533   23.6648 H   0  0  0  0  0  0
  -26.0720  -31.5916   20.6146 H   0  0  0  0  0  0
  -26.8265  -30.8650   22.0045 H   0  0  0  0  0  0
  -28.0967  -29.0429   21.2110 H   0  0  0  0  0  0
  -26.0076  -26.0398   18.8961 H   0  0  0  0  0  0
  -23.9777  -27.3602   18.9678 H   0  0  0  0  0  0
  -23.7298  -30.6213   19.4112 H   0  0  0  0  0  0
  -22.7413  -29.2646   19.8624 H   0  0  0  0  0  0
  -25.1286  -36.1992   25.0842 H   0  0  0  0  0  0
  -20.9978  -28.3242   24.1415 H   0  0  0  0  0  0
  -20.5676  -26.2290   23.3605 H   0  0  0  0  0  0
  -21.6640  -26.7446   22.1206 H   0  0  0  0  0  0
  -19.6907  -25.6302   21.1234 H   0  0  0  0  0  0
  -19.6678  -27.3203   20.6746 H   0  0  0  0  0  0
  -17.4198  -26.6682   21.4027 H   0  0  0  0  0  0
  -18.0326  -26.0068   22.9023 H   0  0  0  0  0  0
  -19.7930  -30.7270   24.2280 H   0  0  0  0  0  0
  -17.5006  -31.6263   24.5173 H   0  0  0  0  0  0
  -15.5347  -30.2988   23.7641 H   0  0  0  0  0  0
  -15.8673  -28.0823   22.7048 H   0  0  0  0  0  0
  -24.5908  -30.7056   25.7832 H   0  0  0  0  0  0
  -24.8927  -32.2861   26.4950 H   0  0  0  0  0  0
  -25.8087  -30.8876   27.0253 H   0  0  0  0  0  0
  -26.2856  -29.6809   24.1148 H   0  0  0  0  0  0
  -27.3957  -29.7239   25.4660 H   0  0  0  0  0  0
  -27.8755  -30.4300   23.9398 H   0  0  0  0  0  0
  -27.2690  -33.3576   26.2133 H   0  0  0  0  0  0
  -28.3831  -32.6900   25.0293 H   0  0  0  0  0  0
  -28.0779  -31.8391   26.5361 H   0  0  0  0  0  0
  -28.2609  -38.0107   24.7508 H   0  0  0  0  0  0
  -28.1082  -36.2644   24.6293 H   0  0  0  0  0  0
  -27.2309  -37.1475   25.8868 H   0  0  0  0  0  0
  -20.9337  -29.8794   21.6945 H   0  0  0  0  0  0
  -26.0195  -38.2883   24.1384 H   0  0  0  0  0  0
  -30.4769  -22.7232   23.6482 H   0  0  0  0  0  0
  -29.5239  -24.8871   22.9010 H   0  0  0  0  0  0
  -29.2984  -21.0547   19.8445 H   0  0  0  0  0  0
  -32.6384  -21.9904   21.8864 H   0  0  0  0  0  0
  -33.6898  -21.8239   20.4960 H   0  0  0  0  0  0
  -33.9681  -20.8403   21.9137 H   0  0  0  0  0  0
  -34.2406  -18.4529   21.7036 H   0  0  0  0  0  0
  -33.2017  -17.0379   21.6473 H   0  0  0  0  0  0
  -34.0494  -17.4484   23.1235 H   0  0  0  0  0  0
  -30.0440  -16.7851   18.7310 H   0  0  0  0  0  0
  -29.0921  -15.3696   18.6083 H   0  0  0  0  0  0
  -28.4516  -16.7435   19.5034 H   0  0  0  0  0  0
  -27.3153  -25.3710   21.5800 H   0  0  0  0  0  0
  -27.2127  -24.7717   19.9551 H   0  0  0  0  0  0
  -32.9379  -19.5194   20.1089 H   0  0  0  0  0  0
  -31.6527  -20.6269   19.9050 H   0  0  0  0  0  0
  -32.7511  -19.5403   23.3770 H   0  0  0  0  0  0
  -31.7467  -18.1516   23.4678 H   0  0  0  0  0  0
  -29.9739  -18.5607   20.2089 H   0  0  0  0  0  0
  -31.5407  -17.8469   20.0812 H   0  0  0  0  0  0
  -29.4367  -16.9643   22.1049 H   0  0  0  0  0  0
  -31.0764  -16.4252   22.1701 H   0  0  0  0  0  0
  -30.7244  -20.4878   23.3503 H   0  0  0  0  0  0
  -29.2948  -18.7122   23.2969 H   0  0  0  0  0  0
  -28.5460  -19.2398   21.9428 H   0  0  0  0  0  0
  -28.4771  -20.1086   23.3173 H   0  0  0  0  0  0
  1 25  1  0  0  0
  1 30  2  0  0  0
  1 87  1  0  0  0
  2  3  1  0  0  0
  2 25  1  0  0  0
  2 89  1  0  0  0
  2 90  1  0  0  0
  3  4  1  0  0  0
  3 91  1  0  0  0
  3 92  1  0  0  0
  4  5  1  0  0  0
  4 93  1  0  0  0
  4 94  1  0  0  0
  5  6  1  0  0  0
  5 26  1  0  0  0
  5 95  1  0  0  0
  6 25  1  0  0  0
  6 96  1  0  0  0
  6 97  1  0  0  0
  7  8  2  0  0  0
  7 26  1  0  0  0
  7 29  1  0  0  0
  8  9  1  0  0  0
  8 22  1  0  0  0
  9 10  1  0  0  0
  9 27  2  0  0  0
 10 11  2  0  0  0
 10 15  1  0  0  0
 11 12  1  0  0  0
 11 98  1  0  0  0
 12 13  2  0  0  0
 12 99  1  0  0  0
 13 14  1  0  0  0
 13 31  1  0  0  0
 14 15  2  0  0  0
 14100  1  0  0  0
 15101  1  0  0  0
 16 17  2  0  0  0
 16 21  1  0  0  0
 16 31  1  0  0  0
 17 18  1  0  0  0
 17102  1  0  0  0
 18 19  2  0  0  0
 18103  1  0  0  0
 19 20  1  0  0  0
 19 24  1  0  0  0
 20 21  2  0  0  0
 20104  1  0  0  0
 21 23  1  0  0  0
 22 28  1  0  0  0
 22 32  2  0  0  0
 26 27  1  0  0  0
 28105  1  0  0  0
 28106  1  0  0  0
 29107  1  0  0  0
 29108  1  0  0  0
 33 34  1  0  0  0
 33 66  1  0  0  0
 33 70  2  0  0  0
 34 36  1  0  0  0
 34 59  1  0  0  0
 34109  1  0  0  0
 35 44  2  0  0  0
 35 45  1  0  0  0
 35 68  1  0  0  0
 36 56  1  0  0  0
 36110  1  0  0  0
 37 39  1  0  0  0
 37 47  1  0  0  0
 37 66  1  0  0  0
 37111  1  0  0  0
 38 43  2  0  0  0
 38 46  1  0  0  0
 38 47  1  0  0  0
 39 64  1  0  0  0
 39 67  2  0  0  0
 40 52  1  0  0  0
 40 53  2  0  0  0
 40 58  1  0  0  0
 41112  1  0  0  0
 41113  1  0  0  0
 41114  1  0  0  0
 41 48  1  0  0  0
 42 43  1  0  0  0
 42 66  1  0  0  0
 42115  1  0  0  0
 42116  1  0  0  0
 43 44  1  0  0  0
 44117  1  0  0  0
 45 46  2  0  0  0
 45118  1  0  0  0
 46119  1  0  0  0
 47120  1  0  0  0
 47121  1  0  0  0
 48 56  1  0  0  0
 48 65  1  0  0  0
 48122  1  0  0  0
 49 50  1  0  0  0
 49 53  1  0  0  0
 49 64  1  0  0  0
 49123  1  0  0  0
 50 51  1  0  0  0
 50124  1  0  0  0
 50125  1  0  0  0
 51 52  1  0  0  0
 51126  1  0  0  0
 51127  1  0  0  0
 52128  1  0  0  0
 52129  1  0  0  0
 53 54  1  0  0  0
 54 55  2  0  0  0
 54130  1  0  0  0
 55 57  1  0  0  0
 55131  1  0  0  0
 56 69  2  0  0  0
 57 58  2  0  0  0
 57132  1  0  0  0
 58133  1  0  0  0
 59 60  1  0  0  0
 59 61  1  0  0  0
 59 62  1  0  0  0
 60134  1  0  0  0
 60135  1  0  0  0
 60136  1  0  0  0
 61137  1  0  0  0
 61138  1  0  0  0
 61139  1  0  0  0
 62140  1  0  0  0
 62141  1  0  0  0
 62142  1  0  0  0
 63 65  1  0  0  0
 63143  1  0  0  0
 63144  1  0  0  0
 63145  1  0  0  0
 64146  1  0  0  0
 65147  1  0  0  0
 68 79  1  0  0  0
 71 72  2  0  0  0
 71 74  1  0  0  0
 71148  1  0  0  0
 72 75  1  0  0  0
 72149  1  0  0  0
 73 74  2  0  0  0
 73 86  1  0  0  0
 73150  1  0  0  0
 74 84  1  0  0  0
 75 79  1  0  0  0
 75 86  2  0  0  0
 76 80  1  0  0  0
 76151  1  0  0  0
 76152  1  0  0  0
 76153  1  0  0  0
 77 81  1  0  0  0
 77154  1  0  0  0
 77155  1  0  0  0
 77156  1  0  0  0
 78 87  1  0  0  0
 78157  1  0  0  0
 78158  1  0  0  0
 78159  1  0  0  0
 79160  1  0  0  0
 79161  1  0  0  0
 80162  1  0  0  0
 80163  1  0  0  0
 80 85  1  0  0  0
 81 85  1  0  0  0
 81164  1  0  0  0
 81165  1  0  0  0
 82 83  1  0  0  0
 82 85  1  0  0  0
 82166  1  0  0  0
 82167  1  0  0  0
 83 87  1  0  0  0
 83168  1  0  0  0
 83169  1  0  0  0
 84 85  1  0  0  0
 84 88  1  0  0  0
 84170  1  0  0  0
 88171  1  0  0  0
 88172  1  0  0  0
 88173  1  0  0  0
M  CHG  1  88   1
M  ISO  4   1 100  68 101  79 101  87 100
M  END
> <chiral flag>
0

> <version>
0

> <s_m_source_file>
/data/baiqing/PycharmProjects/Reinvent-master-3.2/result/LINK_invent/BTK/process_docking_weight1_custom_sum_contain_oxygen_bond_distance_aromatic_linkinvent_7_9_3/rearranged_h_0050.sdf

> <i_m_source_file_index>
17

> <r_mmod_Potential_Energy-OPLS-2005>
-25.0145626068115

> <r_mmod_Stretch_Energy-OPLS-2005>
61.6743316650391

> <r_mmod_Bend_Energy-OPLS-2005>
143.061218261719

> <r_mmod_Torsional_Energy-OPLS-2005>
362.276916503906

> <r_mmod_Improper_Torsional_Energy-OPLS-2005>
12.729323387146

> <r_mmod_Van_der_Waal_Energy-OPLS-2005>
179.831970214844

> <r_mmod_Electrostatic_Energy-OPLS-2005>
-335.119903564453

> <r_mmod_Solvation_Energy-OPLS-2005>
-486.185638427734

> <b_mmod_Minimization_Converged-OPLS-2005>
0

> <r_mmod_RMS_Derivative-OPLS-2005>
1.75586676597595

$$$$
17
                    3D
 Structure written by MMmdl.
166174  0  0  1  0            999 V2000
  -30.8363  -14.3185   20.6997 C   0  0  0  0  0  0
  -30.4026  -12.2743   19.3937 C   0  0  0  0  0  0
  -29.4774  -12.5385   18.1968 C   0  0  0  0  0  0
  -28.0049  -12.4010   18.6106 C   0  0  0  0  0  0
  -27.6683  -13.2126   19.8852 C   0  0  2  0  0  0
  -28.7141  -12.9783   21.0019 C   0  0  0  0  0  0
  -25.2554  -13.8131   20.5549 C   0  0  0  0  0  0
  -24.1843  -13.0395   20.9149 C   0  0  0  0  0  0
  -24.6444  -11.6863   20.8782 C   0  0  0  0  0  0
  -23.9093  -10.4254   21.0480 C   0  0  0  0  0  0
  -24.3619   -9.4188   21.9296 C   0  0  0  0  0  0
  -23.6298   -8.2203   22.0810 C   0  0  0  0  0  0
  -22.4283   -8.0250   21.3578 C   0  0  0  0  0  0
  -21.9897   -9.0275   20.4753 C   0  0  0  0  0  0
  -22.7280  -10.2106   20.3111 C   0  0  0  0  0  0
  -21.6881   -6.0699   22.5294 C   0  0  0  0  0  0
  -21.3997   -6.5633   23.8205 C   0  0  0  0  0  0
  -21.3629   -5.6802   24.9181 C   0  0  0  0  0  0
  -21.6037   -4.3060   24.7283 C   0  0  0  0  0  0
  -21.8814   -3.8133   23.4430 C   0  0  0  0  0  0
  -21.9189   -4.6911   22.3455 C   0  0  0  0  0  0
  -22.7870  -13.5190   21.1796 C   0  0  0  0  0  0
  -22.1672   -4.2059   21.1033 F   0  0  0  0  0  0
  -21.5577   -3.4565   25.7822 F   0  0  0  0  0  0
  -30.0650  -13.2241   20.4653 N   0  0  0  0  0  0
  -26.3068  -12.9336   20.3422 N   0  0  0  0  0  0
  -25.9384  -11.6474   20.5885 N   0  0  0  0  0  0
  -22.0634  -12.8189   22.0479 N   0  0  0  0  0  0
  -25.4046  -15.1802   20.3631 N   0  0  0  0  0  0
  -31.7552  -14.6636   19.9506 O   0  0  0  0  0  0
  -21.6656   -6.8830   21.4262 O   0  0  0  0  0  0
  -22.3495  -14.5475   20.6666 O   0  0  0  0  0  0
  -24.6106  -31.8709   23.2144 C   0  0  0  0  0  0
  -25.9019  -32.4835   23.8402 C   0  0  1  0  0  0
  -27.2393  -27.4727   20.1024 C   0  0  0  0  0  0
  -25.5895  -33.8640   24.2344 N   0  0  0  0  0  0
  -23.3970  -30.4953   21.5521 C   0  0  2  0  0  0
  -24.8493  -28.9663   20.1148 C   0  0  0  0  0  0
  -22.7382  -29.4686   22.5002 C   0  0  0  0  0  0
  -18.0257  -28.1390   22.8481 C   0  0  0  0  0  0
  -24.1484  -36.7312   23.2635 C   0  0  0  0  0  0
  -25.9214  -30.8519   21.3603 C   0  0  0  0  0  0
  -26.0035  -29.4877   20.7118 C   0  0  0  0  0  0
  -27.2039  -28.7461   20.7067 C   0  0  0  0  0  0
  -26.0780  -26.9590   19.4940 C   0  0  0  0  0  0
  -24.8775  -27.6977   19.5033 C   0  0  0  0  0  0
  -23.6050  -29.8254   20.1662 C   0  0  0  0  0  0
  -25.4107  -36.3129   24.0343 C   0  0  1  0  0  0
  -20.5833  -28.3674   23.1316 C   0  0  2  0  0  0
  -20.6753  -26.9408   22.5415 C   0  0  0  0  0  0
  -19.5748  -26.6393   21.5201 C   0  0  0  0  0  0
  -18.1922  -26.7929   22.1611 C   0  0  0  0  0  0
  -19.1503  -28.8846   23.2898 C   0  0  0  0  0  0
  -18.9440  -30.1439   23.8921 C   0  0  0  0  0  0
  -17.6448  -30.6598   24.0558 C   0  0  0  0  0  0
  -25.9031  -34.9482   23.5140 C   0  0  0  0  0  0
  -16.5337  -29.9099   23.6315 C   0  0  0  0  0  0
  -16.7245  -28.6512   23.0345 C   0  0  0  0  0  0
  -26.4470  -31.6602   25.0704 C   0  0  0  0  0  0
  -25.3736  -31.3692   26.1446 C   0  0  0  0  0  0
  -27.0307  -30.3045   24.6075 C   0  0  0  0  0  0
  -27.6080  -32.4285   25.7446 C   0  0  0  0  0  0
  -27.5584  -37.1809   24.8469 C   0  0  0  0  0  0
  -21.4114  -29.3033   22.3721 N   0  0  0  0  0  0
  -26.4298  -37.3802   23.9411 N   0  0  0  0  0  0
  -24.6606  -31.0861   22.1011 N   0  0  0  0  0  0
  -23.4172  -28.8229   23.3039 O   0  0  0  0  0  0
  -28.3957  -26.7363   20.0879 O   0  0  0  0  0  0
  -26.5594  -34.8932   22.4695 O   0  0  0  0  0  0
  -23.5303  -32.1451   23.7572 O   0  0  0  0  0  0
  -26.9269  -17.2729   22.4982 C   0  0  0  0  0  0
  -26.1548  -18.2415   23.1457 C   0  0  0  0  0  0
  -28.2032  -17.6578   22.0699 C   0  0  0  0  0  0
  -27.8546  -19.7532   22.9232 C   0  0  0  0  0  0
  -24.7734  -17.9413   23.6829 C   0  0  0  0  0  0
  -32.0344  -14.5871   22.7713 C   0  0  0  0  0  0
  -29.1532  -16.6672   21.4154 C   0  0  0  0  0  0
  -28.3612  -21.1679   23.1513 C   0  0  0  0  0  0
  -28.0090  -22.1320   22.0000 C   0  0  0  0  0  0
  -28.5170  -23.5712   22.2342 C   0  0  0  0  0  0
  -28.1921  -24.5091   21.0551 C   0  0  0  0  0  0
  -29.9067  -15.8270   22.4727 C   0  0  0  0  0  0
  -28.6184  -25.9728   21.2753 C   0  0  0  0  0  0
  -26.6246  -19.4848   23.3491 N   0  0  0  0  0  0
  -28.6628  -18.9045   22.2935 N   0  0  0  0  0  0
  -30.8178  -14.7776   21.9699 N   0  0  0  0  0  0
  -31.4516  -12.3367   19.0883 H   0  0  0  0  0  0
  -30.2624  -11.2497   19.7441 H   0  0  0  0  0  0
  -29.7042  -11.8462   17.3871 H   0  0  0  0  0  0
  -29.6523  -13.5447   17.8141 H   0  0  0  0  0  0
  -27.7976  -11.3419   18.7649 H   0  0  0  0  0  0
  -27.3594  -12.7227   17.7937 H   0  0  0  0  0  0
  -27.7185  -14.2613   19.6057 H   0  0  0  0  0  0
  -28.6588  -11.9506   21.3593 H   0  0  0  0  0  0
  -28.4874  -13.6052   21.8630 H   0  0  0  0  0  0
  -25.2704   -9.5676   22.4993 H   0  0  0  0  0  0
  -23.9995   -7.4584   22.7528 H   0  0  0  0  0  0
  -21.0775   -8.8838   19.9150 H   0  0  0  0  0  0
  -22.3793  -10.9611   19.6156 H   0  0  0  0  0  0
  -21.1966   -7.6132   23.9656 H   0  0  0  0  0  0
  -21.1427   -6.0559   25.9045 H   0  0  0  0  0  0
  -22.0590   -2.7589   23.2993 H   0  0  0  0  0  0
  -22.4436  -11.9964   22.4915 H   0  0  0  0  0  0
  -21.1293  -13.1192   22.2854 H   0  0  0  0  0  0
  -24.6318  -15.8218   20.4943 H   0  0  0  0  0  0
  -26.2289  -15.6344   19.9949 H   0  0  0  0  0  0
  -26.7097  -32.5602   23.1183 H   0  0  0  0  0  0
  -25.0055  -33.9789   25.0496 H   0  0  0  0  0  0
  -22.6835  -31.3108   21.4134 H   0  0  0  0  0  0
  -23.3753  -35.9634   23.3315 H   0  0  0  0  0  0
  -24.3565  -36.8906   22.2042 H   0  0  0  0  0  0
  -23.7225  -37.6519   23.6632 H   0  0  0  0  0  0
  -26.0253  -31.6238   20.5964 H   0  0  0  0  0  0
  -26.8101  -30.9081   21.9748 H   0  0  0  0  0  0
  -28.0977  -29.1480   21.1617 H   0  0  0  0  0  0
  -26.1026  -25.9903   19.0149 H   0  0  0  0  0  0
  -23.9896  -27.2904   19.0402 H   0  0  0  0  0  0
  -23.7048  -30.6009   19.4060 H   0  0  0  0  0  0
  -22.7314  -29.2391   19.8739 H   0  0  0  0  0  0
  -25.1276  -36.1996   25.0834 H   0  0  0  0  0  0
  -20.9921  -28.3244   24.1441 H   0  0  0  0  0  0
  -20.5664  -26.2277   23.3608 H   0  0  0  0  0  0
  -21.6631  -26.7469   22.1207 H   0  0  0  0  0  0
  -19.6920  -25.6311   21.1225 H   0  0  0  0  0  0
  -19.6687  -27.3219   20.6750 H   0  0  0  0  0  0
  -17.4180  -26.6650   21.4025 H   0  0  0  0  0  0
  -18.0333  -26.0079   22.9025 H   0  0  0  0  0  0
  -19.7922  -30.7231   24.2318 H   0  0  0  0  0  0
  -17.5019  -31.6286   24.5161 H   0  0  0  0  0  0
  -15.5345  -30.3025   23.7651 H   0  0  0  0  0  0
  -15.8634  -28.0856   22.7063 H   0  0  0  0  0  0
  -24.5897  -30.7069   25.7752 H   0  0  0  0  0  0
  -24.8936  -32.2845   26.4923 H   0  0  0  0  0  0
  -25.8061  -30.8811   27.0190 H   0  0  0  0  0  0
  -26.2855  -29.6779   24.1161 H   0  0  0  0  0  0
  -27.4119  -29.7299   25.4534 H   0  0  0  0  0  0
  -27.8665  -30.4361   23.9194 H   0  0  0  0  0  0
  -27.2752  -33.3577   26.2080 H   0  0  0  0  0  0
  -28.3858  -32.6851   25.0238 H   0  0  0  0  0  0
  -28.0792  -31.8362   26.5305 H   0  0  0  0  0  0
  -28.2622  -38.0091   24.7516 H   0  0  0  0  0  0
  -28.1066  -36.2626   24.6303 H   0  0  0  0  0  0
  -27.2297  -37.1466   25.8872 H   0  0  0  0  0  0
  -20.9291  -29.8725   21.6905 H   0  0  0  0  0  0
  -26.0203  -38.2882   24.1417 H   0  0  0  0  0  0
  -26.5511  -16.2686   22.3546 H   0  0  0  0  0  0
  -24.3040  -17.1246   23.1352 H   0  0  0  0  0  0
  -24.1262  -18.8162   23.6057 H   0  0  0  0  0  0
  -24.8389  -17.6597   24.7336 H   0  0  0  0  0  0
  -32.0358  -15.1389   23.7109 H   0  0  0  0  0  0
  -32.9306  -14.8865   22.2242 H   0  0  0  0  0  0
  -32.1428  -13.5304   23.0203 H   0  0  0  0  0  0
  -29.8690  -17.2258   20.8057 H   0  0  0  0  0  0
  -28.5853  -16.0426   20.7274 H   0  0  0  0  0  0
  -29.4420  -21.1360   23.2929 H   0  0  0  0  0  0
  -27.9466  -21.5360   24.0909 H   0  0  0  0  0  0
  -26.9251  -22.1455   21.8595 H   0  0  0  0  0  0
  -28.4315  -21.7400   21.0732 H   0  0  0  0  0  0
  -29.5961  -23.5523   22.3929 H   0  0  0  0  0  0
  -28.0828  -23.9680   23.1532 H   0  0  0  0  0  0
  -27.1227  -24.4757   20.8463 H   0  0  0  0  0  0
  -28.6904  -24.1344   20.1608 H   0  0  0  0  0  0
  -29.1848  -15.3423   23.1284 H   0  0  0  0  0  0
  -30.4518  -16.5278   23.1076 H   0  0  0  0  0  0
  -29.6824  -26.0172   21.5117 H   0  0  0  0  0  0
  -28.0967  -26.3961   22.1375 H   0  0  0  0  0  0
  1 25  1  0  0  0
  1 30  2  0  0  0
  1 86  1  0  0  0
  2  3  1  0  0  0
  2 25  1  0  0  0
  2 87  1  0  0  0
  2 88  1  0  0  0
  3  4  1  0  0  0
  3 89  1  0  0  0
  3 90  1  0  0  0
  4  5  1  0  0  0
  4 91  1  0  0  0
  4 92  1  0  0  0
  5  6  1  0  0  0
  5 26  1  0  0  0
  5 93  1  0  0  0
  6 25  1  0  0  0
  6 94  1  0  0  0
  6 95  1  0  0  0
  7  8  2  0  0  0
  7 26  1  0  0  0
  7 29  1  0  0  0
  8  9  1  0  0  0
  8 22  1  0  0  0
  9 10  1  0  0  0
  9 27  2  0  0  0
 10 11  2  0  0  0
 10 15  1  0  0  0
 11 12  1  0  0  0
 11 96  1  0  0  0
 12 13  2  0  0  0
 12 97  1  0  0  0
 13 14  1  0  0  0
 13 31  1  0  0  0
 14 15  2  0  0  0
 14 98  1  0  0  0
 15 99  1  0  0  0
 16 17  2  0  0  0
 16 21  1  0  0  0
 16 31  1  0  0  0
 17 18  1  0  0  0
 17100  1  0  0  0
 18 19  2  0  0  0
 18101  1  0  0  0
 19 20  1  0  0  0
 19 24  1  0  0  0
 20 21  2  0  0  0
 20102  1  0  0  0
 21 23  1  0  0  0
 22 28  1  0  0  0
 22 32  2  0  0  0
 26 27  1  0  0  0
 28103  1  0  0  0
 28104  1  0  0  0
 29105  1  0  0  0
 29106  1  0  0  0
 33 34  1  0  0  0
 33 66  1  0  0  0
 33 70  2  0  0  0
 34 36  1  0  0  0
 34 59  1  0  0  0
 34107  1  0  0  0
 35 44  2  0  0  0
 35 45  1  0  0  0
 35 68  1  0  0  0
 36 56  1  0  0  0
 36108  1  0  0  0
 37 39  1  0  0  0
 37 47  1  0  0  0
 37 66  1  0  0  0
 37109  1  0  0  0
 38 43  2  0  0  0
 38 46  1  0  0  0
 38 47  1  0  0  0
 39 64  1  0  0  0
 39 67  2  0  0  0
 40 52  1  0  0  0
 40 53  2  0  0  0
 40 58  1  0  0  0
 41110  1  0  0  0
 41111  1  0  0  0
 41112  1  0  0  0
 41 48  1  0  0  0
 42 43  1  0  0  0
 42 66  1  0  0  0
 42113  1  0  0  0
 42114  1  0  0  0
 43 44  1  0  0  0
 44115  1  0  0  0
 45 46  2  0  0  0
 45116  1  0  0  0
 46117  1  0  0  0
 47118  1  0  0  0
 47119  1  0  0  0
 48 56  1  0  0  0
 48 65  1  0  0  0
 48120  1  0  0  0
 49 50  1  0  0  0
 49 53  1  0  0  0
 49 64  1  0  0  0
 49121  1  0  0  0
 50 51  1  0  0  0
 50122  1  0  0  0
 50123  1  0  0  0
 51 52  1  0  0  0
 51124  1  0  0  0
 51125  1  0  0  0
 52126  1  0  0  0
 52127  1  0  0  0
 53 54  1  0  0  0
 54 55  2  0  0  0
 54128  1  0  0  0
 55 57  1  0  0  0
 55129  1  0  0  0
 56 69  2  0  0  0
 57 58  2  0  0  0
 57130  1  0  0  0
 58131  1  0  0  0
 59 60  1  0  0  0
 59 61  1  0  0  0
 59 62  1  0  0  0
 60132  1  0  0  0
 60133  1  0  0  0
 60134  1  0  0  0
 61135  1  0  0  0
 61136  1  0  0  0
 61137  1  0  0  0
 62138  1  0  0  0
 62139  1  0  0  0
 62140  1  0  0  0
 63 65  1  0  0  0
 63141  1  0  0  0
 63142  1  0  0  0
 63143  1  0  0  0
 64144  1  0  0  0
 65145  1  0  0  0
 68 83  1  0  0  0
 71 72  2  0  0  0
 71 73  1  0  0  0
 71146  1  0  0  0
 72 75  1  0  0  0
 72 84  1  0  0  0
 73 77  1  0  0  0
 73 85  2  0  0  0
 74 78  1  0  0  0
 74 84  2  0  0  0
 74 85  1  0  0  0
 75147  1  0  0  0
 75148  1  0  0  0
 75149  1  0  0  0
 76 86  1  0  0  0
 76150  1  0  0  0
 76151  1  0  0  0
 76152  1  0  0  0
 77 82  1  0  0  0
 77153  1  0  0  0
 77154  1  0  0  0
 78 79  1  0  0  0
 78155  1  0  0  0
 78156  1  0  0  0
 79 80  1  0  0  0
 79157  1  0  0  0
 79158  1  0  0  0
 80 81  1  0  0  0
 80159  1  0  0  0
 80160  1  0  0  0
 81 83  1  0  0  0
 81161  1  0  0  0
 81162  1  0  0  0
 82 86  1  0  0  0
 82163  1  0  0  0
 82164  1  0  0  0
 83165  1  0  0  0
 83166  1  0  0  0
M  ISO  4   1 100  68 101  83 101  86 100
M  END
> <chiral flag>
0

> <version>
0

> <s_m_source_file>
/data/baiqing/PycharmProjects/Reinvent-master-3.2/result/LINK_invent/BTK/process_docking_weight1_custom_sum_contain_oxygen_bond_distance_aromatic_linkinvent_7_9_3/rearranged_h_0050.sdf

> <i_m_source_file_index>
18

> <r_mmod_Potential_Energy-OPLS-2005>
-326.627807617188

> <r_mmod_Stretch_Energy-OPLS-2005>
32.9673500061035

> <r_mmod_Bend_Energy-OPLS-2005>
93.2156448364258

> <r_mmod_Torsional_Energy-OPLS-2005>
276.177673339844

> <r_mmod_Improper_Torsional_Energy-OPLS-2005>
11.74964427948

> <r_mmod_Van_der_Waal_Energy-OPLS-2005>
150.241729736328

> <r_mmod_Electrostatic_Energy-OPLS-2005>
-687.626831054688

> <r_mmod_Solvation_Energy-OPLS-2005>
-212.191253662109

> <b_mmod_Minimization_Converged-OPLS-2005>
0

> <r_mmod_RMS_Derivative-OPLS-2005>
4.91050910949707

$$$$
18
                    3D
 Structure written by MMmdl.
178186  0  0  1  0            999 V2000
  -30.8156  -14.3767   20.7185 C   0  0  0  0  0  0
  -30.4057  -12.3007   19.4419 C   0  0  0  0  0  0
  -29.4986  -12.5359   18.2152 C   0  0  0  0  0  0
  -28.0165  -12.3823   18.5974 C   0  0  0  0  0  0
  -27.6614  -13.2029   19.8586 C   0  0  2  0  0  0
  -28.6790  -12.9321   20.9827 C   0  0  0  0  0  0
  -25.2606  -13.8194   20.5674 C   0  0  0  0  0  0
  -24.1863  -13.0475   20.9195 C   0  0  0  0  0  0
  -24.6392  -11.6926   20.8702 C   0  0  0  0  0  0
  -23.9056  -10.4314   21.0394 C   0  0  0  0  0  0
  -24.3615   -9.4230   21.9173 C   0  0  0  0  0  0
  -23.6290   -8.2263   22.0754 C   0  0  0  0  0  0
  -22.4272   -8.0288   21.3549 C   0  0  0  0  0  0
  -21.9902   -9.0263   20.4653 C   0  0  0  0  0  0
  -22.7226  -10.2147   20.3051 C   0  0  0  0  0  0
  -21.6859   -6.0736   22.5276 C   0  0  0  0  0  0
  -21.4017   -6.5635   23.8211 C   0  0  0  0  0  0
  -21.3662   -5.6790   24.9174 C   0  0  0  0  0  0
  -21.6044   -4.3052   24.7223 C   0  0  0  0  0  0
  -21.8820   -3.8144   23.4343 C   0  0  0  0  0  0
  -21.9201   -4.6963   22.3404 C   0  0  0  0  0  0
  -22.7891  -13.5274   21.1874 C   0  0  0  0  0  0
  -22.1669   -4.2144   21.0984 F   0  0  0  0  0  0
  -21.5628   -3.4544   25.7739 F   0  0  0  0  0  0
  -30.0463  -13.2548   20.5209 N   0  0  0  0  0  0
  -26.2988  -12.9345   20.3171 N   0  0  0  0  0  0
  -25.9282  -11.6512   20.5595 N   0  0  0  0  0  0
  -22.0511  -12.8264   22.0407 N   0  0  0  0  0  0
  -25.4343  -15.1943   20.4162 N   0  0  0  0  0  0
  -31.7422  -14.6192   19.9353 O   0  0  0  0  0  0
  -21.6648   -6.8876   21.4236 O   0  0  0  0  0  0
  -22.3629  -14.5614   20.6731 O   0  0  0  0  0  0
  -24.6117  -31.8711   23.2119 C   0  0  0  0  0  0
  -25.9024  -32.4826   23.8419 C   0  0  1  0  0  0
  -27.2322  -27.4670   20.0977 C   0  0  0  0  0  0
  -25.5900  -33.8629   24.2343 N   0  0  0  0  0  0
  -23.3989  -30.4938   21.5517 C   0  0  2  0  0  0
  -24.8483  -28.9645   20.1118 C   0  0  0  0  0  0
  -22.7424  -29.4666   22.5015 C   0  0  0  0  0  0
  -18.0278  -28.1374   22.8498 C   0  0  0  0  0  0
  -24.1495  -36.7302   23.2630 C   0  0  0  0  0  0
  -25.9234  -30.8489   21.3586 C   0  0  0  0  0  0
  -26.0050  -29.4857   20.7056 C   0  0  0  0  0  0
  -27.2046  -28.7429   20.6980 C   0  0  0  0  0  0
  -26.0650  -26.9518   19.4978 C   0  0  0  0  0  0
  -24.8709  -27.6966   19.5028 C   0  0  0  0  0  0
  -23.6075  -29.8259   20.1658 C   0  0  0  0  0  0
  -25.4106  -36.3089   24.0332 C   0  0  1  0  0  0
  -20.5856  -28.3672   23.1322 C   0  0  2  0  0  0
  -20.6761  -26.9417   22.5416 C   0  0  0  0  0  0
  -19.5748  -26.6398   21.5209 C   0  0  0  0  0  0
  -18.1922  -26.7927   22.1614 C   0  0  0  0  0  0
  -19.1520  -28.8841   23.2908 C   0  0  0  0  0  0
  -18.9456  -30.1439   23.8932 C   0  0  0  0  0  0
  -17.6461  -30.6594   24.0552 C   0  0  0  0  0  0
  -25.9046  -34.9472   23.5134 C   0  0  0  0  0  0
  -16.5350  -29.9095   23.6317 C   0  0  0  0  0  0
  -16.7269  -28.6495   23.0363 C   0  0  0  0  0  0
  -26.4466  -31.6592   25.0729 C   0  0  0  0  0  0
  -25.3735  -31.3682   26.1474 C   0  0  0  0  0  0
  -27.0287  -30.3045   24.6054 C   0  0  0  0  0  0
  -27.6062  -32.4313   25.7467 C   0  0  0  0  0  0
  -27.5579  -37.1784   24.8467 C   0  0  0  0  0  0
  -21.4161  -29.3032   22.3748 N   0  0  0  0  0  0
  -26.4287  -37.3770   23.9419 N   0  0  0  0  0  0
  -24.6623  -31.0835   22.1005 N   0  0  0  0  0  0
  -23.4208  -28.8238   23.3067 O   0  0  0  0  0  0
  -28.3650  -26.6972   20.1495 O   0  0  0  0  0  0
  -26.5609  -34.8923   22.4698 O   0  0  0  0  0  0
  -23.5327  -32.1462   23.7531 O   0  0  0  0  0  0
  -27.1599  -22.0789   21.5817 C   0  0  0  0  0  0
  -26.7714  -21.2848   22.6867 C   0  0  0  0  0  0
  -27.7953  -23.3120   21.8745 C   0  0  0  0  0  0
  -27.6762  -22.8284   24.1149 C   0  0  0  0  0  0
  -26.9069  -21.6231   20.1483 C   0  0  0  0  0  0
  -27.9659  -23.2422   25.5403 C   0  0  0  0  0  0
  -32.9574  -15.6632   22.8566 C   0  0  0  0  0  0
  -25.0682  -17.2107   23.5697 C   0  0  0  0  0  0
  -26.0521  -19.9391   22.5726 C   0  0  0  0  0  0
  -28.2247  -24.3104   20.7892 C   0  0  0  0  0  0
  -28.4853  -16.1222   22.3224 C   0  0  0  0  0  0
  -31.7401  -16.2019   22.0901 C   0  0  0  0  0  0
  -29.6503  -15.2616   22.8604 C   0  0  0  0  0  0
  -26.9396  -18.7814   23.0829 C   0  0  0  0  0  0
  -27.3585  -16.3574   23.3474 C   0  0  0  0  0  0
  -28.3403  -25.7792   21.2544 C   0  0  0  0  0  0
  -27.0211  -21.6885   23.9445 N   0  0  0  0  0  0
  -28.0824  -23.6427   23.1496 N   0  0  0  0  0  0
  -30.7213  -15.1490   21.8543 N   0  0  0  0  0  0
  -26.3862  -17.4010   22.9139 N   0  3  1  0  0  0
  -31.4552  -12.3627   19.1466 H   0  0  0  0  0  0
  -30.2847  -11.2781   19.8031 H   0  0  0  0  0  0
  -29.7518  -11.8334   17.4201 H   0  0  0  0  0  0
  -29.6767  -13.5333   17.8098 H   0  0  0  0  0  0
  -27.8222  -11.3235   18.7745 H   0  0  0  0  0  0
  -27.3789  -12.6744   17.7619 H   0  0  0  0  0  0
  -27.7225  -14.2563   19.5860 H   0  0  0  0  0  0
  -28.6448  -11.8781   21.2635 H   0  0  0  0  0  0
  -28.3155  -13.4417   21.8559 H   0  0  0  0  0  0
  -25.2765   -9.5713   22.4742 H   0  0  0  0  0  0
  -24.0010   -7.4656   22.7471 H   0  0  0  0  0  0
  -21.0836   -8.8778   19.8957 H   0  0  0  0  0  0
  -22.3676  -10.9685   19.6160 H   0  0  0  0  0  0
  -21.2006   -7.6143   23.9710 H   0  0  0  0  0  0
  -21.1481   -6.0523   25.9076 H   0  0  0  0  0  0
  -22.0597   -2.7602   23.2852 H   0  0  0  0  0  0
  -22.4090  -11.9886   22.4759 H   0  0  0  0  0  0
  -21.1127  -13.1298   22.2593 H   0  0  0  0  0  0
  -24.5704  -15.7080   20.2814 H   0  0  0  0  0  0
  -26.1458  -15.4888   19.7590 H   0  0  0  0  0  0
  -26.7097  -32.5570   23.1204 H   0  0  0  0  0  0
  -25.0043  -33.9808   25.0480 H   0  0  0  0  0  0
  -22.6832  -31.3073   21.4148 H   0  0  0  0  0  0
  -23.3755  -35.9639   23.3299 H   0  0  0  0  0  0
  -24.3580  -36.8925   22.2041 H   0  0  0  0  0  0
  -23.7285  -37.6516   23.6669 H   0  0  0  0  0  0
  -26.0275  -31.6214   20.5938 H   0  0  0  0  0  0
  -26.8129  -30.9053   21.9746 H   0  0  0  0  0  0
  -28.0988  -29.1328   21.1650 H   0  0  0  0  0  0
  -26.0760  -25.9724   19.0407 H   0  0  0  0  0  0
  -23.9795  -27.2903   19.0434 H   0  0  0  0  0  0
  -23.7064  -30.6003   19.4037 H   0  0  0  0  0  0
  -22.7345  -29.2381   19.8752 H   0  0  0  0  0  0
  -25.1282  -36.1916   25.0821 H   0  0  0  0  0  0
  -20.9922  -28.3233   24.1447 H   0  0  0  0  0  0
  -20.5641  -26.2300   23.3612 H   0  0  0  0  0  0
  -21.6641  -26.7457   22.1216 H   0  0  0  0  0  0
  -19.6916  -25.6313   21.1242 H   0  0  0  0  0  0
  -19.6669  -27.3211   20.6745 H   0  0  0  0  0  0
  -17.4186  -26.6710   21.4010 H   0  0  0  0  0  0
  -18.0295  -26.0056   22.8992 H   0  0  0  0  0  0
  -19.7936  -30.7233   24.2333 H   0  0  0  0  0  0
  -17.5024  -31.6277   24.5160 H   0  0  0  0  0  0
  -15.5348  -30.2998   23.7643 H   0  0  0  0  0  0
  -15.8667  -28.0813   22.7076 H   0  0  0  0  0  0
  -24.5988  -30.6916   25.7846 H   0  0  0  0  0  0
  -24.8803  -32.2804   26.4842 H   0  0  0  0  0  0
  -25.8096  -30.8966   27.0288 H   0  0  0  0  0  0
  -26.2809  -29.6795   24.1147 H   0  0  0  0  0  0
  -27.4152  -29.7266   25.4462 H   0  0  0  0  0  0
  -27.8604  -30.4399   23.9129 H   0  0  0  0  0  0
  -27.2721  -33.3647   26.2022 H   0  0  0  0  0  0
  -28.3857  -32.6826   25.0253 H   0  0  0  0  0  0
  -28.0745  -31.8449   26.5380 H   0  0  0  0  0  0
  -28.2576  -38.0093   24.7506 H   0  0  0  0  0  0
  -28.1097  -36.2627   24.6295 H   0  0  0  0  0  0
  -27.2300  -37.1417   25.8868 H   0  0  0  0  0  0
  -20.9359  -29.8744   21.6935 H   0  0  0  0  0  0
  -26.0168  -38.2847   24.1430 H   0  0  0  0  0  0
  -27.1251  -20.5612   20.0320 H   0  0  0  0  0  0
  -27.5378  -22.1363   19.4236 H   0  0  0  0  0  0
  -25.8652  -21.7928   19.8731 H   0  0  0  0  0  0
  -28.1497  -22.3706   26.1684 H   0  0  0  0  0  0
  -27.1158  -23.7870   25.9524 H   0  0  0  0  0  0
  -28.8458  -23.8840   25.5937 H   0  0  0  0  0  0
  -33.6723  -16.4642   23.0518 H   0  0  0  0  0  0
  -33.4776  -14.8908   22.2886 H   0  0  0  0  0  0
  -32.6667  -15.2390   23.8183 H   0  0  0  0  0  0
  -24.3097  -17.8748   23.1582 H   0  0  0  0  0  0
  -25.1328  -17.3906   24.6432 H   0  0  0  0  0  0
  -24.6981  -16.1947   23.4208 H   0  0  0  0  0  0
  -25.7242  -19.7450   21.5537 H   0  0  0  0  0  0
  -25.1389  -20.0085   23.1651 H   0  0  0  0  0  0
  -27.4820  -24.2832   19.9944 H   0  0  0  0  0  0
  -29.1658  -23.9835   20.3475 H   0  0  0  0  0  0
  -28.0604  -15.6810   21.4234 H   0  0  0  0  0  0
  -28.9087  -17.0713   22.0000 H   0  0  0  0  0  0
  -32.0702  -16.6604   21.1557 H   0  0  0  0  0  0
  -31.3226  -17.0485   22.6387 H   0  0  0  0  0  0
  -29.3690  -14.2983   23.2768 H   0  0  0  0  0  0
  -30.0361  -15.7521   23.7562 H   0  0  0  0  0  0
  -27.1611  -18.9434   24.1395 H   0  0  0  0  0  0
  -27.8940  -18.8620   22.5642 H   0  0  0  0  0  0
  -27.7731  -16.6288   24.3195 H   0  0  0  0  0  0
  -26.8446  -15.4066   23.4972 H   0  0  0  0  0  0
  -29.2496  -25.9115   21.8428 H   0  0  0  0  0  0
  -27.5148  -26.0050   21.9342 H   0  0  0  0  0  0
  -26.2209  -17.2344   21.9310 H   0  0  0  0  0  0
  1 25  1  0  0  0
  1 30  2  0  0  0
  1 89  1  0  0  0
  2  3  1  0  0  0
  2 25  1  0  0  0
  2 91  1  0  0  0
  2 92  1  0  0  0
  3  4  1  0  0  0
  3 93  1  0  0  0
  3 94  1  0  0  0
  4  5  1  0  0  0
  4 95  1  0  0  0
  4 96  1  0  0  0
  5  6  1  0  0  0
  5 26  1  0  0  0
  5 97  1  0  0  0
  6 25  1  0  0  0
  6 98  1  0  0  0
  6 99  1  0  0  0
  7  8  2  0  0  0
  7 26  1  0  0  0
  7 29  1  0  0  0
  8  9  1  0  0  0
  8 22  1  0  0  0
  9 10  1  0  0  0
  9 27  2  0  0  0
 10 11  2  0  0  0
 10 15  1  0  0  0
 11 12  1  0  0  0
 11100  1  0  0  0
 12 13  2  0  0  0
 12101  1  0  0  0
 13 14  1  0  0  0
 13 31  1  0  0  0
 14 15  2  0  0  0
 14102  1  0  0  0
 15103  1  0  0  0
 16 17  2  0  0  0
 16 21  1  0  0  0
 16 31  1  0  0  0
 17 18  1  0  0  0
 17104  1  0  0  0
 18 19  2  0  0  0
 18105  1  0  0  0
 19 20  1  0  0  0
 19 24  1  0  0  0
 20 21  2  0  0  0
 20106  1  0  0  0
 21 23  1  0  0  0
 22 28  1  0  0  0
 22 32  2  0  0  0
 26 27  1  0  0  0
 28107  1  0  0  0
 28108  1  0  0  0
 29109  1  0  0  0
 29110  1  0  0  0
 33 34  1  0  0  0
 33 66  1  0  0  0
 33 70  2  0  0  0
 34 36  1  0  0  0
 34 59  1  0  0  0
 34111  1  0  0  0
 35 44  2  0  0  0
 35 45  1  0  0  0
 35 68  1  0  0  0
 36 56  1  0  0  0
 36112  1  0  0  0
 37 39  1  0  0  0
 37 47  1  0  0  0
 37 66  1  0  0  0
 37113  1  0  0  0
 38 43  2  0  0  0
 38 46  1  0  0  0
 38 47  1  0  0  0
 39 64  1  0  0  0
 39 67  2  0  0  0
 40 52  1  0  0  0
 40 53  2  0  0  0
 40 58  1  0  0  0
 41114  1  0  0  0
 41115  1  0  0  0
 41116  1  0  0  0
 41 48  1  0  0  0
 42 43  1  0  0  0
 42 66  1  0  0  0
 42117  1  0  0  0
 42118  1  0  0  0
 43 44  1  0  0  0
 44119  1  0  0  0
 45 46  2  0  0  0
 45120  1  0  0  0
 46121  1  0  0  0
 47122  1  0  0  0
 47123  1  0  0  0
 48 56  1  0  0  0
 48 65  1  0  0  0
 48124  1  0  0  0
 49 50  1  0  0  0
 49 53  1  0  0  0
 49 64  1  0  0  0
 49125  1  0  0  0
 50 51  1  0  0  0
 50126  1  0  0  0
 50127  1  0  0  0
 51 52  1  0  0  0
 51128  1  0  0  0
 51129  1  0  0  0
 52130  1  0  0  0
 52131  1  0  0  0
 53 54  1  0  0  0
 54 55  2  0  0  0
 54132  1  0  0  0
 55 57  1  0  0  0
 55133  1  0  0  0
 56 69  2  0  0  0
 57 58  2  0  0  0
 57134  1  0  0  0
 58135  1  0  0  0
 59 60  1  0  0  0
 59 61  1  0  0  0
 59 62  1  0  0  0
 60136  1  0  0  0
 60137  1  0  0  0
 60138  1  0  0  0
 61139  1  0  0  0
 61140  1  0  0  0
 61141  1  0  0  0
 62142  1  0  0  0
 62143  1  0  0  0
 62144  1  0  0  0
 63 65  1  0  0  0
 63145  1  0  0  0
 63146  1  0  0  0
 63147  1  0  0  0
 64148  1  0  0  0
 65149  1  0  0  0
 68 86  1  0  0  0
 71 72  2  0  0  0
 71 73  1  0  0  0
 71 75  1  0  0  0
 72 79  1  0  0  0
 72 87  1  0  0  0
 73 80  1  0  0  0
 73 88  2  0  0  0
 74 76  1  0  0  0
 74 87  2  0  0  0
 74 88  1  0  0  0
 75150  1  0  0  0
 75151  1  0  0  0
 75152  1  0  0  0
 76153  1  0  0  0
 76154  1  0  0  0
 76155  1  0  0  0
 77 82  1  0  0  0
 77156  1  0  0  0
 77157  1  0  0  0
 77158  1  0  0  0
 78159  1  0  0  0
 78160  1  0  0  0
 78161  1  0  0  0
 78 90  1  0  0  0
 79 84  1  0  0  0
 79162  1  0  0  0
 79163  1  0  0  0
 80 86  1  0  0  0
 80164  1  0  0  0
 80165  1  0  0  0
 81 83  1  0  0  0
 81 85  1  0  0  0
 81166  1  0  0  0
 81167  1  0  0  0
 82 89  1  0  0  0
 82168  1  0  0  0
 82169  1  0  0  0
 83 89  1  0  0  0
 83170  1  0  0  0
 83171  1  0  0  0
 84 90  1  0  0  0
 84172  1  0  0  0
 84173  1  0  0  0
 85 90  1  0  0  0
 85174  1  0  0  0
 85175  1  0  0  0
 86176  1  0  0  0
 86177  1  0  0  0
 90178  1  0  0  0
M  CHG  1  90   1
M  ISO  4   1 100  68 101  86 101  89 100
M  END
> <chiral flag>
0

> <version>
0

> <s_m_source_file>
/data/baiqing/PycharmProjects/Reinvent-master-3.2/result/LINK_invent/BTK/process_docking_weight1_custom_sum_contain_oxygen_bond_distance_aromatic_linkinvent_7_9_3/rearranged_h_0050.sdf

> <i_m_source_file_index>
19

> <r_mmod_Potential_Energy-OPLS-2005>
-347.543487548828

> <r_mmod_Stretch_Energy-OPLS-2005>
45.1401977539062

> <r_mmod_Bend_Energy-OPLS-2005>
132.974395751953

> <r_mmod_Torsional_Energy-OPLS-2005>
286.589447021484

> <r_mmod_Improper_Torsional_Energy-OPLS-2005>
9.02089881896973

> <r_mmod_Van_der_Waal_Energy-OPLS-2005>
177.665222167969

> <r_mmod_Electrostatic_Energy-OPLS-2005>
-568.154846191406

> <r_mmod_Solvation_Energy-OPLS-2005>
-443.114135742188

> <b_mmod_Minimization_Converged-OPLS-2005>
0

> <r_mmod_RMS_Derivative-OPLS-2005>
2.01137614250183

$$$$
19
                    3D
 Structure written by MMmdl.
166174  0  0  1  0            999 V2000
  -30.6787  -14.5413   20.5318 C   0  0  0  0  0  0
  -30.4245  -12.3479   19.4192 C   0  0  0  0  0  0
  -29.4949  -12.5142   18.2017 C   0  0  0  0  0  0
  -28.0138  -12.3774   18.6120 C   0  0  0  0  0  0
  -27.6536  -13.2223   19.8637 C   0  0  2  0  0  0
  -28.7001  -13.0416   20.9835 C   0  0  0  0  0  0
  -25.2551  -13.8185   20.5673 C   0  0  0  0  0  0
  -24.1824  -13.0446   20.9206 C   0  0  0  0  0  0
  -24.6403  -11.6917   20.8723 C   0  0  0  0  0  0
  -23.9083  -10.4295   21.0397 C   0  0  0  0  0  0
  -24.3628   -9.4206   21.9182 C   0  0  0  0  0  0
  -23.6303   -8.2242   22.0754 C   0  0  0  0  0  0
  -22.4287   -8.0284   21.3544 C   0  0  0  0  0  0
  -21.9913   -9.0262   20.4653 C   0  0  0  0  0  0
  -22.7246  -10.2142   20.3061 C   0  0  0  0  0  0
  -21.6859   -6.0743   22.5278 C   0  0  0  0  0  0
  -21.4013   -6.5640   23.8205 C   0  0  0  0  0  0
  -21.3665   -5.6797   24.9168 C   0  0  0  0  0  0
  -21.6042   -4.3059   24.7222 C   0  0  0  0  0  0
  -21.8825   -3.8151   23.4340 C   0  0  0  0  0  0
  -21.9186   -4.6966   22.3394 C   0  0  0  0  0  0
  -22.7846  -13.5230   21.1863 C   0  0  0  0  0  0
  -22.1663   -4.2149   21.0973 F   0  0  0  0  0  0
  -21.5628   -3.4536   25.7735 F   0  0  0  0  0  0
  -30.0204  -13.3551   20.4137 N   0  0  0  0  0  0
  -26.2993  -12.9386   20.3323 N   0  0  0  0  0  0
  -25.9328  -11.6525   20.5750 N   0  0  0  0  0  0
  -22.0489  -12.8219   22.0419 N   0  0  0  0  0  0
  -25.4227  -15.1916   20.4075 N   0  0  0  0  0  0
  -31.8511  -14.6871   20.1781 O   0  0  0  0  0  0
  -21.6648   -6.8887   21.4248 O   0  0  0  0  0  0
  -22.3514  -14.5534   20.6707 O   0  0  0  0  0  0
  -24.6189  -31.8641   23.2080 C   0  0  0  0  0  0
  -25.9096  -32.4783   23.8354 C   0  0  1  0  0  0
  -27.2362  -27.4078   20.0872 C   0  0  0  0  0  0
  -25.5964  -33.8584   24.2291 N   0  0  0  0  0  0
  -23.4055  -30.4903   21.5450 C   0  0  2  0  0  0
  -24.8512  -28.9523   20.1079 C   0  0  0  0  0  0
  -22.7411  -29.4642   22.4923 C   0  0  0  0  0  0
  -18.0284  -28.1372   22.8492 C   0  0  0  0  0  0
  -24.1492  -36.7291   23.2632 C   0  0  0  0  0  0
  -25.9370  -30.8239   21.3625 C   0  0  0  0  0  0
  -26.0111  -29.4571   20.7045 C   0  0  0  0  0  0
  -27.2027  -28.6935   20.6908 C   0  0  0  0  0  0
  -26.0519  -26.9176   19.4951 C   0  0  0  0  0  0
  -24.8679  -27.6825   19.5020 C   0  0  0  0  0  0
  -23.6178  -29.8271   20.1581 C   0  0  0  0  0  0
  -25.4114  -36.3060   24.0314 C   0  0  1  0  0  0
  -20.5876  -28.3670   23.1290 C   0  0  2  0  0  0
  -20.6755  -26.9392   22.5402 C   0  0  0  0  0  0
  -19.5736  -26.6386   21.5201 C   0  0  0  0  0  0
  -18.1931  -26.7925   22.1626 C   0  0  0  0  0  0
  -19.1534  -28.8831   23.2894 C   0  0  0  0  0  0
  -18.9457  -30.1434   23.8915 C   0  0  0  0  0  0
  -17.6469  -30.6584   24.0567 C   0  0  0  0  0  0
  -25.9059  -34.9448   23.5086 C   0  0  0  0  0  0
  -16.5357  -29.9093   23.6315 C   0  0  0  0  0  0
  -16.7270  -28.6506   23.0344 C   0  0  0  0  0  0
  -26.4540  -31.6573   25.0688 C   0  0  0  0  0  0
  -25.3829  -31.3709   26.1445 C   0  0  0  0  0  0
  -27.0371  -30.3003   24.6101 C   0  0  0  0  0  0
  -27.6079  -32.4309   25.7488 C   0  0  0  0  0  0
  -27.5568  -37.1797   24.8457 C   0  0  0  0  0  0
  -21.4136  -29.3054   22.3696 N   0  0  0  0  0  0
  -26.4269  -37.3763   23.9416 N   0  0  0  0  0  0
  -24.6717  -31.0727   22.0986 N   0  0  0  0  0  0
  -23.4181  -28.8161   23.2955 O   0  0  0  0  0  0
  -28.4178  -26.6842   20.1147 O   0  0  0  0  0  0
  -26.5591  -34.8921   22.4627 O   0  0  0  0  0  0
  -23.5392  -32.1403   23.7487 O   0  0  0  0  0  0
  -30.2385  -22.7245   19.9384 C   0  0  0  0  0  0
  -28.8861  -22.8753   20.1307 C   0  0  0  0  0  0
  -29.4143  -20.6596   20.1874 C   0  0  0  0  0  0
  -26.3698  -20.9676   18.9553 C   0  0  0  0  0  0
  -30.6431  -17.5869   18.8596 C   0  0  0  0  0  0
  -31.8755  -18.8369   20.6240 C   0  0  0  0  0  0
  -28.0550  -24.1547   20.2877 C   0  0  0  0  0  0
  -29.2958  -19.1297   20.3686 C   0  0  0  0  0  0
  -26.9962  -21.1559   20.3482 C   0  0  0  0  0  0
  -30.4091  -16.9385   21.3501 C   0  0  0  0  0  0
  -28.5499  -25.3928   19.4726 C   0  0  0  0  0  0
  -30.5354  -18.1297   20.3002 C   0  0  0  0  0  0
  -28.4061  -21.5683   20.2327 N   0  0  0  0  0  0
  -30.5176  -21.3835   19.9680 N   0  3  0  0  0  0
  -29.9278  -15.6022   20.9153 N   0  0  0  0  0  0
  -31.4670  -12.4581   19.1182 H   0  0  0  0  0  0
  -30.3360  -11.3454   19.8402 H   0  0  0  0  0  0
  -29.7428  -11.7780   17.4365 H   0  0  0  0  0  0
  -29.6616  -13.4935   17.7490 H   0  0  0  0  0  0
  -27.8178  -11.3230   18.8032 H   0  0  0  0  0  0
  -27.3705  -12.6596   17.7784 H   0  0  0  0  0  0
  -27.6815  -14.2663   19.5515 H   0  0  0  0  0  0
  -28.6919  -12.0163   21.3567 H   0  0  0  0  0  0
  -28.4637  -13.6709   21.8422 H   0  0  0  0  0  0
  -25.2774   -9.5680   22.4739 H   0  0  0  0  0  0
  -24.0015   -7.4635   22.7456 H   0  0  0  0  0  0
  -21.0849   -8.8794   19.8954 H   0  0  0  0  0  0
  -22.3714  -10.9685   19.6162 H   0  0  0  0  0  0
  -21.2013   -7.6145   23.9718 H   0  0  0  0  0  0
  -21.1483   -6.0518   25.9078 H   0  0  0  0  0  0
  -22.0597   -2.7611   23.2839 H   0  0  0  0  0  0
  -22.4132  -11.9887   22.4797 H   0  0  0  0  0  0
  -21.1113  -13.1231   22.2628 H   0  0  0  0  0  0
  -24.6493  -15.8400   20.5112 H   0  0  0  0  0  0
  -26.2622  -15.6328   20.0521 H   0  0  0  0  0  0
  -26.7178  -32.5480   23.1112 H   0  0  0  0  0  0
  -25.0167  -33.9737   25.0474 H   0  0  0  0  0  0
  -22.6969  -31.3100   21.4084 H   0  0  0  0  0  0
  -23.3733  -35.9640   23.3282 H   0  0  0  0  0  0
  -24.3596  -36.8926   22.2049 H   0  0  0  0  0  0
  -23.7288  -37.6506   23.6670 H   0  0  0  0  0  0
  -26.0591  -31.5967   20.6022 H   0  0  0  0  0  0
  -26.8204  -30.8649   21.9897 H   0  0  0  0  0  0
  -28.0989  -29.0921   21.1494 H   0  0  0  0  0  0
  -26.0200  -25.9411   19.0347 H   0  0  0  0  0  0
  -23.9735  -27.2849   19.0404 H   0  0  0  0  0  0
  -23.7440  -30.6085   19.4077 H   0  0  0  0  0  0
  -22.7380  -29.2631   19.8446 H   0  0  0  0  0  0
  -25.1305  -36.1879   25.0797 H   0  0  0  0  0  0
  -20.9987  -28.3252   24.1397 H   0  0  0  0  0  0
  -20.5649  -26.2279   23.3597 H   0  0  0  0  0  0
  -21.6626  -26.7419   22.1201 H   0  0  0  0  0  0
  -19.6891  -25.6301   21.1222 H   0  0  0  0  0  0
  -19.6681  -27.3192   20.6726 H   0  0  0  0  0  0
  -17.4185  -26.6673   21.4033 H   0  0  0  0  0  0
  -18.0334  -26.0060   22.9007 H   0  0  0  0  0  0
  -19.7934  -30.7236   24.2308 H   0  0  0  0  0  0
  -17.5024  -31.6267   24.5151 H   0  0  0  0  0  0
  -15.5351  -30.3011   23.7617 H   0  0  0  0  0  0
  -15.8669  -28.0833   22.7048 H   0  0  0  0  0  0
  -24.5992  -30.7051   25.7818 H   0  0  0  0  0  0
  -24.9036  -32.2872   26.4885 H   0  0  0  0  0  0
  -25.8202  -30.8908   27.0200 H   0  0  0  0  0  0
  -26.2915  -29.6751   24.1162 H   0  0  0  0  0  0
  -27.4134  -29.7264   25.4576 H   0  0  0  0  0  0
  -27.8756  -30.4286   23.9254 H   0  0  0  0  0  0
  -27.2657  -33.3588   26.2083 H   0  0  0  0  0  0
  -28.3912  -32.6902   25.0354 H   0  0  0  0  0  0
  -28.0730  -31.8432   26.5417 H   0  0  0  0  0  0
  -28.2563  -38.0108   24.7498 H   0  0  0  0  0  0
  -28.1090  -36.2639   24.6277 H   0  0  0  0  0  0
  -27.2294  -37.1428   25.8861 H   0  0  0  0  0  0
  -20.9288  -29.8827   21.6966 H   0  0  0  0  0  0
  -26.0135  -38.2824   24.1437 H   0  0  0  0  0  0
  -31.0195  -23.4610   19.8068 H   0  0  0  0  0  0
  -25.3141  -20.7128   19.0359 H   0  0  0  0  0  0
  -26.8546  -20.1617   18.4011 H   0  0  0  0  0  0
  -26.4544  -21.8753   18.3543 H   0  0  0  0  0  0
  -30.7917  -18.3927   18.1406 H   0  0  0  0  0  0
  -29.7464  -17.0492   18.5553 H   0  0  0  0  0  0
  -31.4877  -16.9068   18.7461 H   0  0  0  0  0  0
  -32.2079  -19.5031   19.8284 H   0  0  0  0  0  0
  -32.6895  -18.1213   20.7349 H   0  0  0  0  0  0
  -31.8163  -19.4004   21.5568 H   0  0  0  0  0  0
  -28.0722  -24.4179   21.3443 H   0  0  0  0  0  0
  -27.0091  -23.9583   20.0454 H   0  0  0  0  0  0
  -28.5139  -18.7997   19.6844 H   0  0  0  0  0  0
  -28.8581  -19.0499   21.3619 H   0  0  0  0  0  0
  -26.9294  -20.2327   20.9241 H   0  0  0  0  0  0
  -26.4576  -21.9060   20.9238 H   0  0  0  0  0  0
  -29.7605  -17.2502   22.1688 H   0  0  0  0  0  0
  -31.3633  -16.7678   21.8516 H   0  0  0  0  0  0
  -29.6274  -25.2928   19.3384 H   0  0  0  0  0  0
  -28.1486  -25.4007   18.4578 H   0  0  0  0  0  0
  -31.4423  -20.9885   19.8595 H   0  0  0  0  0  0
  -28.9525  -15.4038   21.0857 H   0  0  0  0  0  0
  1 25  1  0  0  0
  1 30  2  0  0  0
  1 85  1  0  0  0
  2  3  1  0  0  0
  2 25  1  0  0  0
  2 86  1  0  0  0
  2 87  1  0  0  0
  3  4  1  0  0  0
  3 88  1  0  0  0
  3 89  1  0  0  0
  4  5  1  0  0  0
  4 90  1  0  0  0
  4 91  1  0  0  0
  5  6  1  0  0  0
  5 26  1  0  0  0
  5 92  1  0  0  0
  6 25  1  0  0  0
  6 93  1  0  0  0
  6 94  1  0  0  0
  7  8  2  0  0  0
  7 26  1  0  0  0
  7 29  1  0  0  0
  8  9  1  0  0  0
  8 22  1  0  0  0
  9 10  1  0  0  0
  9 27  2  0  0  0
 10 11  2  0  0  0
 10 15  1  0  0  0
 11 12  1  0  0  0
 11 95  1  0  0  0
 12 13  2  0  0  0
 12 96  1  0  0  0
 13 14  1  0  0  0
 13 31  1  0  0  0
 14 15  2  0  0  0
 14 97  1  0  0  0
 15 98  1  0  0  0
 16 17  2  0  0  0
 16 21  1  0  0  0
 16 31  1  0  0  0
 17 18  1  0  0  0
 17 99  1  0  0  0
 18 19  2  0  0  0
 18100  1  0  0  0
 19 20  1  0  0  0
 19 24  1  0  0  0
 20 21  2  0  0  0
 20101  1  0  0  0
 21 23  1  0  0  0
 22 28  1  0  0  0
 22 32  2  0  0  0
 26 27  1  0  0  0
 28102  1  0  0  0
 28103  1  0  0  0
 29104  1  0  0  0
 29105  1  0  0  0
 33 34  1  0  0  0
 33 66  1  0  0  0
 33 70  2  0  0  0
 34 36  1  0  0  0
 34 59  1  0  0  0
 34106  1  0  0  0
 35 44  2  0  0  0
 35 45  1  0  0  0
 35 68  1  0  0  0
 36 56  1  0  0  0
 36107  1  0  0  0
 37 39  1  0  0  0
 37 47  1  0  0  0
 37 66  1  0  0  0
 37108  1  0  0  0
 38 43  2  0  0  0
 38 46  1  0  0  0
 38 47  1  0  0  0
 39 64  1  0  0  0
 39 67  2  0  0  0
 40 52  1  0  0  0
 40 53  2  0  0  0
 40 58  1  0  0  0
 41109  1  0  0  0
 41110  1  0  0  0
 41111  1  0  0  0
 41 48  1  0  0  0
 42 43  1  0  0  0
 42 66  1  0  0  0
 42112  1  0  0  0
 42113  1  0  0  0
 43 44  1  0  0  0
 44114  1  0  0  0
 45 46  2  0  0  0
 45115  1  0  0  0
 46116  1  0  0  0
 47117  1  0  0  0
 47118  1  0  0  0
 48 56  1  0  0  0
 48 65  1  0  0  0
 48119  1  0  0  0
 49 50  1  0  0  0
 49 53  1  0  0  0
 49 64  1  0  0  0
 49120  1  0  0  0
 50 51  1  0  0  0
 50121  1  0  0  0
 50122  1  0  0  0
 51 52  1  0  0  0
 51123  1  0  0  0
 51124  1  0  0  0
 52125  1  0  0  0
 52126  1  0  0  0
 53 54  1  0  0  0
 54 55  2  0  0  0
 54127  1  0  0  0
 55 57  1  0  0  0
 55128  1  0  0  0
 56 69  2  0  0  0
 57 58  2  0  0  0
 57129  1  0  0  0
 58130  1  0  0  0
 59 60  1  0  0  0
 59 61  1  0  0  0
 59 62  1  0  0  0
 60131  1  0  0  0
 60132  1  0  0  0
 60133  1  0  0  0
 61134  1  0  0  0
 61135  1  0  0  0
 61136  1  0  0  0
 62137  1  0  0  0
 62138  1  0  0  0
 62139  1  0  0  0
 63 65  1  0  0  0
 63140  1  0  0  0
 63141  1  0  0  0
 63142  1  0  0  0
 64143  1  0  0  0
 65144  1  0  0  0
 68 81  1  0  0  0
 71 72  2  0  0  0
 71 84  1  0  0  0
 71145  1  0  0  0
 72 77  1  0  0  0
 72 83  1  0  0  0
 73 78  1  0  0  0
 73 83  1  0  0  0
 73 84  2  0  0  0
 74 79  1  0  0  0
 74146  1  0  0  0
 74147  1  0  0  0
 74148  1  0  0  0
 75149  1  0  0  0
 75150  1  0  0  0
 75151  1  0  0  0
 75 82  1  0  0  0
 76 82  1  0  0  0
 76152  1  0  0  0
 76153  1  0  0  0
 76154  1  0  0  0
 77 81  1  0  0  0
 77155  1  0  0  0
 77156  1  0  0  0
 78 82  1  0  0  0
 78157  1  0  0  0
 78158  1  0  0  0
 79 83  1  0  0  0
 79159  1  0  0  0
 79160  1  0  0  0
 80 82  1  0  0  0
 80 85  1  0  0  0
 80161  1  0  0  0
 80162  1  0  0  0
 81163  1  0  0  0
 81164  1  0  0  0
 84165  1  0  0  0
 85166  1  0  0  0
M  CHG  1  84   1
M  ISO  4   1 100  68 101  81 101  85 100
M  END
> <chiral flag>
0

> <version>
0

> <s_m_source_file>
/data/baiqing/PycharmProjects/Reinvent-master-3.2/result/LINK_invent/BTK/process_docking_weight1_custom_sum_contain_oxygen_bond_distance_aromatic_linkinvent_7_9_3/rearranged_h_0050.sdf

> <i_m_source_file_index>
20

> <r_mmod_Potential_Energy-OPLS-2005>
-64.1756286621094

> <r_mmod_Stretch_Energy-OPLS-2005>
56.297176361084

> <r_mmod_Bend_Energy-OPLS-2005>
139.520568847656

> <r_mmod_Torsional_Energy-OPLS-2005>
242.692901611328

> <r_mmod_Improper_Torsional_Energy-OPLS-2005>
3.84743189811707

> <r_mmod_Van_der_Waal_Energy-OPLS-2005>
133.732559204102

> <r_mmod_Electrostatic_Energy-OPLS-2005>
-247.890426635742

> <r_mmod_Solvation_Energy-OPLS-2005>
-414.488861083984

> <b_mmod_Minimization_Converged-OPLS-2005>
0

> <r_mmod_RMS_Derivative-OPLS-2005>
3.84941148757935

$$$$
20
                    3D
 Structure written by MMmdl.
159167  0  0  1  0            999 V2000
  -30.6913  -14.7684   20.4547 C   0  0  0  0  0  0
  -30.4220  -12.4421   19.5137 C   0  0  0  0  0  0
  -29.5402  -12.5419   18.2558 C   0  0  0  0  0  0
  -28.0713  -12.3105   18.6519 C   0  0  0  0  0  0
  -27.6549  -13.2208   19.8407 C   0  0  2  0  0  0
  -28.6995  -13.2001   20.9895 C   0  0  0  0  0  0
  -25.2540  -13.7884   20.5500 C   0  0  0  0  0  0
  -24.1880  -13.0287   20.9135 C   0  0  0  0  0  0
  -24.6475  -11.6756   20.8699 C   0  0  0  0  0  0
  -23.9098  -10.4228   21.0379 C   0  0  0  0  0  0
  -24.3629   -9.4155   21.9158 C   0  0  0  0  0  0
  -23.6248   -8.2264   22.0796 C   0  0  0  0  0  0
  -22.4246   -8.0315   21.3567 C   0  0  0  0  0  0
  -21.9895   -9.0279   20.4671 C   0  0  0  0  0  0
  -22.7256  -10.2125   20.3027 C   0  0  0  0  0  0
  -21.6811   -6.0792   22.5283 C   0  0  0  0  0  0
  -21.3981   -6.5680   23.8208 C   0  0  0  0  0  0
  -21.3657   -5.6814   24.9159 C   0  0  0  0  0  0
  -21.6046   -4.3079   24.7188 C   0  0  0  0  0  0
  -21.8774   -3.8196   23.4290 C   0  0  0  0  0  0
  -21.9160   -4.7049   22.3364 C   0  0  0  0  0  0
  -22.7906  -13.5099   21.1835 C   0  0  0  0  0  0
  -22.1629   -4.2251   21.0938 F   0  0  0  0  0  0
  -21.5677   -3.4543   25.7683 F   0  0  0  0  0  0
  -30.0141  -13.5511   20.4258 N   0  0  0  0  0  0
  -26.3058  -12.9213   20.3142 N   0  0  0  0  0  0
  -25.9420  -11.6367   20.5657 N   0  0  0  0  0  0
  -22.0554  -12.8158   22.0409 N   0  0  0  0  0  0
  -25.4148  -15.1504   20.3559 N   0  0  0  0  0  0
  -31.8148  -14.8176   19.9508 O   0  0  0  0  0  0
  -21.6612   -6.8952   21.4250 O   0  0  0  0  0  0
  -22.3615  -14.5461   20.6749 O   0  0  0  0  0  0
  -24.6327  -31.8509   23.2016 C   0  0  0  0  0  0
  -25.9109  -32.4766   23.8403 C   0  0  1  0  0  0
  -27.2584  -27.2844   20.0832 C   0  0  0  0  0  0
  -25.5894  -33.8582   24.2316 N   0  0  0  0  0  0
  -23.4320  -30.4724   21.5437 C   0  0  2  0  0  0
  -24.8849  -28.9182   20.1132 C   0  0  0  0  0  0
  -22.7503  -29.4560   22.4915 C   0  0  0  0  0  0
  -18.0274  -28.1395   22.8492 C   0  0  0  0  0  0
  -24.1474  -36.7302   23.2648 C   0  0  0  0  0  0
  -25.9765  -30.7782   21.3662 C   0  0  0  0  0  0
  -26.0571  -29.3990   20.7076 C   0  0  0  0  0  0
  -27.2398  -28.5918   20.6799 C   0  0  0  0  0  0
  -26.0549  -26.8621   19.4734 C   0  0  0  0  0  0
  -24.8867  -27.6565   19.4917 C   0  0  0  0  0  0
  -23.6532  -29.8047   20.1623 C   0  0  0  0  0  0
  -25.4084  -36.3085   24.0349 C   0  0  1  0  0  0
  -20.5898  -28.3697   23.1270 C   0  0  2  0  0  0
  -20.6772  -26.9409   22.5401 C   0  0  0  0  0  0
  -19.5755  -26.6391   21.5200 C   0  0  0  0  0  0
  -18.1933  -26.7932   22.1626 C   0  0  0  0  0  0
  -19.1545  -28.8871   23.2887 C   0  0  0  0  0  0
  -18.9437  -30.1453   23.8943 C   0  0  0  0  0  0
  -17.6446  -30.6594   24.0579 C   0  0  0  0  0  0
  -25.9023  -34.9451   23.5134 C   0  0  0  0  0  0
  -16.5337  -29.9108   23.6316 C   0  0  0  0  0  0
  -16.7267  -28.6522   23.0346 C   0  0  0  0  0  0
  -26.4512  -31.6614   25.0801 C   0  0  0  0  0  0
  -25.3746  -31.3734   26.1520 C   0  0  0  0  0  0
  -27.0338  -30.3057   24.6214 C   0  0  0  0  0  0
  -27.6108  -32.4338   25.7557 C   0  0  0  0  0  0
  -27.5560  -37.1785   24.8458 C   0  0  0  0  0  0
  -21.4216  -29.3035   22.3670 N   0  0  0  0  0  0
  -26.4271  -37.3770   23.9417 N   0  0  0  0  0  0
  -24.7017  -31.0484   22.0971 N   0  0  0  0  0  0
  -23.4213  -28.8064   23.2987 O   0  0  0  0  0  0
  -28.3982  -26.4486   20.1643 O   0  0  0  0  0  0
  -26.5573  -34.8899   22.4692 O   0  0  0  0  0  0
  -23.5451  -32.1299   23.7291 O   0  0  0  0  0  0
  -27.4210  -19.5806   21.4997 C   0  0  0  0  0  0
  -29.1998  -20.0526   20.3919 C   0  0  0  0  0  0
  -29.2374  -18.6270   20.6364 C   0  0  0  0  0  0
  -27.3297  -17.1448   21.3887 C   0  0  0  0  0  0
  -30.4374  -16.1030   22.3866 C   0  0  0  0  0  0
  -29.9466  -21.0528   19.4577 C   0  0  0  0  0  0
  -30.1389  -17.3507   20.2271 C   0  0  0  0  0  0
  -29.7931  -22.6786   19.3928 C   0  0  0  0  0  0
  -28.6999  -23.6757   20.0232 C   0  0  0  0  0  0
  -28.6411  -25.1826   19.4025 C   0  0  0  0  0  0
  -28.0813  -20.6079   21.0098 N   0  0  0  0  0  0
  -27.9853  -18.4039   21.2149 N   0  0  0  0  0  0
  -30.1277  -15.9586   20.9543 N   0  0  0  0  0  0
  -31.4838  -12.4348   19.2581 H   0  0  0  0  0  0
  -30.2499  -11.4794   20.0026 H   0  0  0  0  0  0
  -29.8605  -11.8289   17.4990 H   0  0  0  0  0  0
  -29.6511  -13.5327   17.8133 H   0  0  0  0  0  0
  -27.9811  -11.2603   18.9360 H   0  0  0  0  0  0
  -27.4104  -12.4474   17.7940 H   0  0  0  0  0  0
  -27.6406  -14.2336   19.4404 H   0  0  0  0  0  0
  -28.4196  -13.9019   21.7755 H   0  0  0  0  0  0
  -28.7408  -12.2087   21.4404 H   0  0  0  0  0  0
  -25.2807   -9.5627   22.4684 H   0  0  0  0  0  0
  -23.9942   -7.4673   22.7531 H   0  0  0  0  0  0
  -21.0821   -8.8732   19.8988 H   0  0  0  0  0  0
  -22.3677  -10.9642   19.6109 H   0  0  0  0  0  0
  -21.1956   -7.6189   23.9695 H   0  0  0  0  0  0
  -21.1524   -6.0594   25.9059 H   0  0  0  0  0  0
  -22.0555   -2.7683   23.2728 H   0  0  0  0  0  0
  -22.4005  -11.9673   22.4676 H   0  0  0  0  0  0
  -21.1297  -13.1427   22.2771 H   0  0  0  0  0  0
  -24.6619  -15.8250   20.4157 H   0  0  0  0  0  0
  -26.2866  -15.5424   20.0314 H   0  0  0  0  0  0
  -26.7209  -32.5454   23.1183 H   0  0  0  0  0  0
  -25.0099  -33.9758   25.0502 H   0  0  0  0  0  0
  -22.7300  -31.2950   21.3926 H   0  0  0  0  0  0
  -23.3740  -35.9637   23.3299 H   0  0  0  0  0  0
  -24.3586  -36.8925   22.2073 H   0  0  0  0  0  0
  -23.7223  -37.6503   23.6665 H   0  0  0  0  0  0
  -26.0818  -31.5431   20.5958 H   0  0  0  0  0  0
  -26.8698  -30.8554   21.9756 H   0  0  0  0  0  0
  -28.1529  -28.9604   21.1281 H   0  0  0  0  0  0
  -25.9963  -25.8954   18.9964 H   0  0  0  0  0  0
  -23.9800  -27.2842   19.0312 H   0  0  0  0  0  0
  -23.7830  -30.5839   19.4108 H   0  0  0  0  0  0
  -22.7721  -29.2421   19.8513 H   0  0  0  0  0  0
  -25.1249  -36.1971   25.0845 H   0  0  0  0  0  0
  -20.9995  -28.3261   24.1391 H   0  0  0  0  0  0
  -20.5627  -26.2292   23.3585 H   0  0  0  0  0  0
  -21.6624  -26.7374   22.1208 H   0  0  0  0  0  0
  -19.6894  -25.6297   21.1228 H   0  0  0  0  0  0
  -19.6708  -27.3219   20.6744 H   0  0  0  0  0  0
  -17.4166  -26.6678   21.4057 H   0  0  0  0  0  0
  -18.0359  -26.0082   22.9048 H   0  0  0  0  0  0
  -19.7907  -30.7246   24.2374 H   0  0  0  0  0  0
  -17.4976  -31.6265   24.5172 H   0  0  0  0  0  0
  -15.5343  -30.3018   23.7587 H   0  0  0  0  0  0
  -15.8657  -28.0836   22.7054 H   0  0  0  0  0  0
  -24.5970  -30.7017   25.7856 H   0  0  0  0  0  0
  -24.8866  -32.2877   26.4915 H   0  0  0  0  0  0
  -25.8076  -30.8968   27.0325 H   0  0  0  0  0  0
  -26.2895  -29.6836   24.1222 H   0  0  0  0  0  0
  -27.4048  -29.7281   25.4690 H   0  0  0  0  0  0
  -27.8764  -30.4398   23.9428 H   0  0  0  0  0  0
  -27.2788  -33.3674   26.2108 H   0  0  0  0  0  0
  -28.3937  -32.6814   25.0385 H   0  0  0  0  0  0
  -28.0756  -31.8470   26.5482 H   0  0  0  0  0  0
  -28.2544  -38.0101   24.7473 H   0  0  0  0  0  0
  -28.1060  -36.2613   24.6295 H   0  0  0  0  0  0
  -27.2265  -37.1471   25.8855 H   0  0  0  0  0  0
  -20.9369  -29.8832   21.6963 H   0  0  0  0  0  0
  -26.0145  -38.2838   24.1455 H   0  0  0  0  0  0
  -26.4628  -19.6862   21.9953 H   0  0  0  0  0  0
  -27.5437  -16.7238   22.3655 H   0  0  0  0  0  0
  -27.6735  -16.4711   20.6053 H   0  0  0  0  0  0
  -26.2571  -17.3108   21.2575 H   0  0  0  0  0  0
  -31.4415  -15.7301   22.6327 H   0  0  0  0  0  0
  -29.7330  -15.4987   22.9473 H   0  0  0  0  0  0
  -30.3839  -17.1277   22.7627 H   0  0  0  0  0  0
  -29.6852  -20.7494   18.4461 H   0  0  0  0  0  0
  -31.0169  -20.8490   19.4930 H   0  0  0  0  0  0
  -29.8430  -17.1094   19.2102 H   0  0  0  0  0  0
  -31.1722  -17.6839   20.1330 H   0  0  0  0  0  0
  -29.7208  -22.8735   18.3217 H   0  0  0  0  0  0
  -30.7801  -23.0705   19.6377 H   0  0  0  0  0  0
  -27.7345  -23.1980   19.8706 H   0  0  0  0  0  0
  -28.8418  -23.7111   21.1020 H   0  0  0  0  0  0
  -28.0561  -25.1704   18.4811 H   0  0  0  0  0  0
  -29.6612  -25.3496   19.0448 H   0  0  0  0  0  0
  1 25  1  0  0  0
  1 30  2  0  0  0
  1 83  1  0  0  0
  2  3  1  0  0  0
  2 25  1  0  0  0
  2 84  1  0  0  0
  2 85  1  0  0  0
  3  4  1  0  0  0
  3 86  1  0  0  0
  3 87  1  0  0  0
  4  5  1  0  0  0
  4 88  1  0  0  0
  4 89  1  0  0  0
  5  6  1  0  0  0
  5 26  1  0  0  0
  5 90  1  0  0  0
  6 25  1  0  0  0
  6 91  1  0  0  0
  6 92  1  0  0  0
  7  8  2  0  0  0
  7 26  1  0  0  0
  7 29  1  0  0  0
  8  9  1  0  0  0
  8 22  1  0  0  0
  9 10  1  0  0  0
  9 27  2  0  0  0
 10 11  2  0  0  0
 10 15  1  0  0  0
 11 12  1  0  0  0
 11 93  1  0  0  0
 12 13  2  0  0  0
 12 94  1  0  0  0
 13 14  1  0  0  0
 13 31  1  0  0  0
 14 15  2  0  0  0
 14 95  1  0  0  0
 15 96  1  0  0  0
 16 17  2  0  0  0
 16 21  1  0  0  0
 16 31  1  0  0  0
 17 18  1  0  0  0
 17 97  1  0  0  0
 18 19  2  0  0  0
 18 98  1  0  0  0
 19 20  1  0  0  0
 19 24  1  0  0  0
 20 21  2  0  0  0
 20 99  1  0  0  0
 21 23  1  0  0  0
 22 28  1  0  0  0
 22 32  2  0  0  0
 26 27  1  0  0  0
 28100  1  0  0  0
 28101  1  0  0  0
 29102  1  0  0  0
 29103  1  0  0  0
 33 34  1  0  0  0
 33 66  1  0  0  0
 33 70  2  0  0  0
 34 36  1  0  0  0
 34 59  1  0  0  0
 34104  1  0  0  0
 35 44  2  0  0  0
 35 45  1  0  0  0
 35 68  1  0  0  0
 36 56  1  0  0  0
 36105  1  0  0  0
 37 39  1  0  0  0
 37 47  1  0  0  0
 37 66  1  0  0  0
 37106  1  0  0  0
 38 43  2  0  0  0
 38 46  1  0  0  0
 38 47  1  0  0  0
 39 64  1  0  0  0
 39 67  2  0  0  0
 40 52  1  0  0  0
 40 53  2  0  0  0
 40 58  1  0  0  0
 41107  1  0  0  0
 41108  1  0  0  0
 41109  1  0  0  0
 41 48  1  0  0  0
 42 43  1  0  0  0
 42 66  1  0  0  0
 42110  1  0  0  0
 42111  1  0  0  0
 43 44  1  0  0  0
 44112  1  0  0  0
 45 46  2  0  0  0
 45113  1  0  0  0
 46114  1  0  0  0
 47115  1  0  0  0
 47116  1  0  0  0
 48 56  1  0  0  0
 48 65  1  0  0  0
 48117  1  0  0  0
 49 50  1  0  0  0
 49 53  1  0  0  0
 49 64  1  0  0  0
 49118  1  0  0  0
 50 51  1  0  0  0
 50119  1  0  0  0
 50120  1  0  0  0
 51 52  1  0  0  0
 51121  1  0  0  0
 51122  1  0  0  0
 52123  1  0  0  0
 52124  1  0  0  0
 53 54  1  0  0  0
 54 55  2  0  0  0
 54125  1  0  0  0
 55 57  1  0  0  0
 55126  1  0  0  0
 56 69  2  0  0  0
 57 58  2  0  0  0
 57127  1  0  0  0
 58128  1  0  0  0
 59 60  1  0  0  0
 59 61  1  0  0  0
 59 62  1  0  0  0
 60129  1  0  0  0
 60130  1  0  0  0
 60131  1  0  0  0
 61132  1  0  0  0
 61133  1  0  0  0
 61134  1  0  0  0
 62135  1  0  0  0
 62136  1  0  0  0
 62137  1  0  0  0
 63 65  1  0  0  0
 63138  1  0  0  0
 63139  1  0  0  0
 63140  1  0  0  0
 64141  1  0  0  0
 65142  1  0  0  0
 68 80  1  0  0  0
 71 81  2  0  0  0
 71 82  1  0  0  0
 71143  1  0  0  0
 72 73  2  0  0  0
 72 76  1  0  0  0
 72 81  1  0  0  0
 73 77  1  0  0  0
 73 82  1  0  0  0
 74 82  1  0  0  0
 74144  1  0  0  0
 74145  1  0  0  0
 74146  1  0  0  0
 75 83  1  0  0  0
 75147  1  0  0  0
 75148  1  0  0  0
 75149  1  0  0  0
 76 78  1  0  0  0
 76150  1  0  0  0
 76151  1  0  0  0
 77 83  1  0  0  0
 77152  1  0  0  0
 77153  1  0  0  0
 78 79  1  0  0  0
 78154  1  0  0  0
 78155  1  0  0  0
 79 80  1  0  0  0
 79156  1  0  0  0
 79157  1  0  0  0
 80158  1  0  0  0
 80159  1  0  0  0
M  ISO  4   1 100  68 101  80 101  83 100
M  END
> <chiral flag>
0

> <version>
0

> <s_m_source_file>
/data/baiqing/PycharmProjects/Reinvent-master-3.2/result/LINK_invent/BTK/process_docking_weight1_custom_sum_contain_oxygen_bond_distance_aromatic_linkinvent_7_9_3/rearranged_h_0050.sdf

> <i_m_source_file_index>
21

> <r_mmod_Potential_Energy-OPLS-2005>
439.246368408203

> <r_mmod_Stretch_Energy-OPLS-2005>
162.859176635742

> <r_mmod_Bend_Energy-OPLS-2005>
287.813995361328

> <r_mmod_Torsional_Energy-OPLS-2005>
292.019378662109

> <r_mmod_Improper_Torsional_Energy-OPLS-2005>
8.40575695037842

> <r_mmod_Van_der_Waal_Energy-OPLS-2005>
122.117515563965

> <r_mmod_Electrostatic_Energy-OPLS-2005>
-306.96484375

> <r_mmod_Solvation_Energy-OPLS-2005>
-209.81477355957

> <b_mmod_Minimization_Converged-OPLS-2005>
0

> <r_mmod_RMS_Derivative-OPLS-2005>
10.8607168197632

$$$$
21
                    3D
 Structure written by MMmdl.
164172  0  0  1  0            999 V2000
  -30.6505  -14.4003   20.5711 C   0  0  0  0  0  0
  -30.4029  -12.2425   19.4082 C   0  0  0  0  0  0
  -29.4655  -12.4563   18.1994 C   0  0  0  0  0  0
  -27.9908  -12.3296   18.6278 C   0  0  0  0  0  0
  -27.6510  -13.1659   19.8862 C   0  0  2  0  0  0
  -28.6896  -12.8921   20.9942 C   0  0  0  0  0  0
  -25.2611  -13.8044   20.5753 C   0  0  0  0  0  0
  -24.1827  -13.0395   20.9159 C   0  0  0  0  0  0
  -24.6300  -11.6812   20.8759 C   0  0  0  0  0  0
  -23.8982  -10.4236   21.0457 C   0  0  0  0  0  0
  -24.3557   -9.4134   21.9207 C   0  0  0  0  0  0
  -23.6243   -8.2171   22.0769 C   0  0  0  0  0  0
  -22.4226   -8.0233   21.3529 C   0  0  0  0  0  0
  -21.9842   -9.0217   20.4633 C   0  0  0  0  0  0
  -22.7172  -10.2083   20.3082 C   0  0  0  0  0  0
  -21.6838   -6.0690   22.5240 C   0  0  0  0  0  0
  -21.4033   -6.5619   23.8166 C   0  0  0  0  0  0
  -21.3672   -5.6789   24.9133 C   0  0  0  0  0  0
  -21.6030   -4.3046   24.7206 C   0  0  0  0  0  0
  -21.8828   -3.8116   23.4334 C   0  0  0  0  0  0
  -21.9198   -4.6927   22.3383 C   0  0  0  0  0  0
  -22.7892  -13.5232   21.1834 C   0  0  0  0  0  0
  -22.1684   -4.2091   21.0971 F   0  0  0  0  0  0
  -21.5603   -3.4548   25.7747 F   0  0  0  0  0  0
  -30.0180  -13.2061   20.4476 N   0  0  0  0  0  0
  -26.2967  -12.9098   20.3440 N   0  0  0  0  0  0
  -25.9201  -11.6301   20.5832 N   0  0  0  0  0  0
  -22.0663  -12.8202   22.0431 N   0  0  0  0  0  0
  -25.4522  -15.1771   20.4280 N   0  0  0  0  0  0
  -31.7966  -14.6122   20.1612 O   0  0  0  0  0  0
  -21.6616   -6.8818   21.4202 O   0  0  0  0  0  0
  -22.3568  -14.5566   20.6725 O   0  0  0  0  0  0
  -24.6201  -31.8690   23.2111 C   0  0  0  0  0  0
  -25.9086  -32.4839   23.8414 C   0  0  1  0  0  0
  -27.2291  -27.4375   20.0623 C   0  0  0  0  0  0
  -25.5959  -33.8647   24.2370 N   0  0  0  0  0  0
  -23.4051  -30.4969   21.5541 C   0  0  2  0  0  0
  -24.8405  -28.9586   20.1178 C   0  0  0  0  0  0
  -22.7432  -29.4695   22.5004 C   0  0  0  0  0  0
  -18.0285  -28.1374   22.8509 C   0  0  0  0  0  0
  -24.1474  -36.7314   23.2611 C   0  0  0  0  0  0
  -25.9342  -30.8331   21.3581 C   0  0  0  0  0  0
  -26.0053  -29.4662   20.7070 C   0  0  0  0  0  0
  -27.1995  -28.7108   20.6772 C   0  0  0  0  0  0
  -26.0333  -26.9289   19.5040 C   0  0  0  0  0  0
  -24.8483  -27.6858   19.5216 C   0  0  0  0  0  0
  -23.6100  -29.8367   20.1663 C   0  0  0  0  0  0
  -25.4081  -36.3140   24.0349 C   0  0  1  0  0  0
  -20.5872  -28.3684   23.1301 C   0  0  2  0  0  0
  -20.6772  -26.9415   22.5409 C   0  0  0  0  0  0
  -19.5741  -26.6397   21.5216 C   0  0  0  0  0  0
  -18.1920  -26.7937   22.1610 C   0  0  0  0  0  0
  -19.1530  -28.8843   23.2912 C   0  0  0  0  0  0
  -18.9455  -30.1447   23.8937 C   0  0  0  0  0  0
  -17.6459  -30.6587   24.0577 C   0  0  0  0  0  0
  -25.9052  -34.9510   23.5149 C   0  0  0  0  0  0
  -16.5352  -29.9095   23.6307 C   0  0  0  0  0  0
  -16.7278  -28.6501   23.0369 C   0  0  0  0  0  0
  -26.4482  -31.6601   25.0743 C   0  0  0  0  0  0
  -25.3773  -31.3774   26.1546 C   0  0  0  0  0  0
  -27.0212  -30.3022   24.6080 C   0  0  0  0  0  0
  -27.6145  -32.4243   25.7446 C   0  0  0  0  0  0
  -27.5648  -37.1712   24.8375 C   0  0  0  0  0  0
  -21.4161  -29.3081   22.3735 N   0  0  0  0  0  0
  -26.4226  -37.3869   23.9530 N   0  0  0  0  0  0
  -24.6734  -31.0787   22.1014 N   0  0  0  0  0  0
  -23.4201  -28.8208   23.3037 O   0  0  0  0  0  0
  -28.4286  -26.7524   20.0230 O   0  0  0  0  0  0
  -26.5605  -34.8952   22.4707 O   0  0  0  0  0  0
  -23.5395  -32.1450   23.7493 O   0  0  0  0  0  0
  -28.4295  -24.0535   21.2618 C   0  0  0  0  0  0
  -27.4098  -23.2932   19.2145 C   0  0  0  0  0  0
  -28.1066  -24.2951   19.9134 C   0  0  0  0  0  0
  -28.0654  -22.8253   21.8547 C   0  0  0  0  0  0
  -27.3598  -21.8781   21.0688 C   0  0  0  0  0  0
  -29.5276  -16.2221   19.5217 C   0  0  0  0  0  0
  -28.1922  -19.2524   19.7190 C   0  0  0  0  0  0
  -28.5512  -25.5750   19.2111 C   0  0  0  0  0  0
  -27.0148  -20.4657   21.5679 C   0  0  0  0  0  0
  -29.3549  -17.5554   22.1476 C   0  0  0  0  0  0
  -29.4992  -16.0138   22.0588 C   0  0  0  0  0  0
  -27.9447  -18.1473   21.8705 C   0  0  0  0  0  0
  -27.0132  -22.1366   19.7852 N   0  0  0  0  0  0
  -29.7894  -15.4338   20.7255 N   0  0  0  0  0  0
  -28.0487  -19.4627   21.1805 N   0  3  1  0  0  0
  -28.5110  -22.5186   23.4960 Cl  0  0  0  0  0  0
  -31.4463  -12.3377   19.1027 H   0  0  0  0  0  0
  -30.2919  -11.2226   19.7833 H   0  0  0  0  0  0
  -29.6852  -11.7198   17.4250 H   0  0  0  0  0  0
  -29.6390  -13.4337   17.7517 H   0  0  0  0  0  0
  -27.8176  -11.2732   18.8449 H   0  0  0  0  0  0
  -27.3142  -12.5816   17.8101 H   0  0  0  0  0  0
  -27.6927  -14.2162   19.6112 H   0  0  0  0  0  0
  -28.6490  -11.8396   21.2820 H   0  0  0  0  0  0
  -28.4595  -13.4444   21.9031 H   0  0  0  0  0  0
  -25.2728   -9.5583   22.4726 H   0  0  0  0  0  0
  -23.9950   -7.4566   22.7503 H   0  0  0  0  0  0
  -21.0777   -8.8776   19.8938 H   0  0  0  0  0  0
  -22.3705  -10.9652   19.6188 H   0  0  0  0  0  0
  -21.2053   -7.6127   23.9647 H   0  0  0  0  0  0
  -21.1488   -6.0532   25.9030 H   0  0  0  0  0  0
  -22.0590   -2.7576   23.2876 H   0  0  0  0  0  0
  -22.4474  -11.9857   22.4648 H   0  0  0  0  0  0
  -21.1351  -13.1207   22.2939 H   0  0  0  0  0  0
  -24.6980  -15.8440   20.5459 H   0  0  0  0  0  0
  -26.3022  -15.5921   20.0762 H   0  0  0  0  0  0
  -26.7181  -32.5522   23.1195 H   0  0  0  0  0  0
  -25.0182  -33.9802   25.0565 H   0  0  0  0  0  0
  -22.6976  -31.3176   21.4203 H   0  0  0  0  0  0
  -23.3866  -35.9492   23.2956 H   0  0  0  0  0  0
  -24.3664  -36.9254   22.2099 H   0  0  0  0  0  0
  -23.6989  -37.6321   23.6808 H   0  0  0  0  0  0
  -26.0388  -31.5937   20.5822 H   0  0  0  0  0  0
  -26.8278  -30.8918   21.9676 H   0  0  0  0  0  0
  -28.1067  -29.1081   21.1067 H   0  0  0  0  0  0
  -25.9874  -25.9500   19.0517 H   0  0  0  0  0  0
  -23.9464  -27.2795   19.0826 H   0  0  0  0  0  0
  -23.7323  -30.6203   19.4183 H   0  0  0  0  0  0
  -22.7279  -29.2746   19.8561 H   0  0  0  0  0  0
  -25.1205  -36.1964   25.0821 H   0  0  0  0  0  0
  -20.9985  -28.3252   24.1411 H   0  0  0  0  0  0
  -20.5696  -26.2311   23.3619 H   0  0  0  0  0  0
  -21.6637  -26.7454   22.1174 H   0  0  0  0  0  0
  -19.6896  -25.6319   21.1239 H   0  0  0  0  0  0
  -19.6676  -27.3234   20.6776 H   0  0  0  0  0  0
  -17.4209  -26.6778   21.3977 H   0  0  0  0  0  0
  -18.0251  -26.0043   22.8947 H   0  0  0  0  0  0
  -19.7920  -30.7263   24.2322 H   0  0  0  0  0  0
  -17.4996  -31.6258   24.5185 H   0  0  0  0  0  0
  -15.5352  -30.3020   23.7579 H   0  0  0  0  0  0
  -15.8687  -28.0829   22.7069 H   0  0  0  0  0  0
  -24.5828  -30.7251   25.7904 H   0  0  0  0  0  0
  -24.9126  -32.2973   26.5107 H   0  0  0  0  0  0
  -25.8126  -30.8826   27.0238 H   0  0  0  0  0  0
  -26.2670  -29.6829   24.1209 H   0  0  0  0  0  0
  -27.4047  -29.7236   25.4490 H   0  0  0  0  0  0
  -27.8508  -30.4316   23.9127 H   0  0  0  0  0  0
  -27.2922  -33.3652   26.1907 H   0  0  0  0  0  0
  -28.3996  -32.6573   25.0242 H   0  0  0  0  0  0
  -28.0719  -31.8378   26.5423 H   0  0  0  0  0  0
  -28.2328  -38.0331   24.7978 H   0  0  0  0  0  0
  -28.1479  -36.2947   24.5472 H   0  0  0  0  0  0
  -27.2499  -37.0466   25.8755 H   0  0  0  0  0  0
  -20.9340  -29.8870   21.7002 H   0  0  0  0  0  0
  -26.0103  -38.2859   24.1872 H   0  0  0  0  0  0
  -28.9793  -24.7891   21.8267 H   0  0  0  0  0  0
  -27.1759  -23.3994   18.1647 H   0  0  0  0  0  0
  -28.5188  -16.6279   19.5297 H   0  0  0  0  0  0
  -29.5717  -15.6194   18.6133 H   0  0  0  0  0  0
  -30.2797  -17.0009   19.4125 H   0  0  0  0  0  0
  -28.1739  -20.1369   19.0973 H   0  0  0  0  0  0
  -27.4174  -18.5818   19.3469 H   0  0  0  0  0  0
  -29.1666  -18.8104   19.5334 H   0  0  0  0  0  0
  -28.0390  -25.6846   18.2523 H   0  0  0  0  0  0
  -29.6051  -25.4734   18.9440 H   0  0  0  0  0  0
  -26.0335  -20.1649   21.1968 H   0  0  0  0  0  0
  -26.9222  -20.4918   22.6540 H   0  0  0  0  0  0
  -30.1296  -18.0249   21.5441 H   0  0  0  0  0  0
  -29.5982  -17.8470   23.1700 H   0  0  0  0  0  0
  -28.5962  -15.5636   22.4683 H   0  0  0  0  0  0
  -30.3128  -15.7146   22.7260 H   0  0  0  0  0  0
  -27.4122  -18.2533   22.8152 H   0  0  0  0  0  0
  -27.3253  -17.4574   21.2922 H   0  0  0  0  0  0
  -28.9103  -19.8797   21.4994 H   0  0  0  0  0  0
  1 25  1  0  0  0
  1 30  2  0  0  0
  1 84  1  0  0  0
  2  3  1  0  0  0
  2 25  1  0  0  0
  2 87  1  0  0  0
  2 88  1  0  0  0
  3  4  1  0  0  0
  3 89  1  0  0  0
  3 90  1  0  0  0
  4  5  1  0  0  0
  4 91  1  0  0  0
  4 92  1  0  0  0
  5  6  1  0  0  0
  5 26  1  0  0  0
  5 93  1  0  0  0
  6 25  1  0  0  0
  6 94  1  0  0  0
  6 95  1  0  0  0
  7  8  2  0  0  0
  7 26  1  0  0  0
  7 29  1  0  0  0
  8  9  1  0  0  0
  8 22  1  0  0  0
  9 10  1  0  0  0
  9 27  2  0  0  0
 10 11  2  0  0  0
 10 15  1  0  0  0
 11 12  1  0  0  0
 11 96  1  0  0  0
 12 13  2  0  0  0
 12 97  1  0  0  0
 13 14  1  0  0  0
 13 31  1  0  0  0
 14 15  2  0  0  0
 14 98  1  0  0  0
 15 99  1  0  0  0
 16 17  2  0  0  0
 16 21  1  0  0  0
 16 31  1  0  0  0
 17 18  1  0  0  0
 17100  1  0  0  0
 18 19  2  0  0  0
 18101  1  0  0  0
 19 20  1  0  0  0
 19 24  1  0  0  0
 20 21  2  0  0  0
 20102  1  0  0  0
 21 23  1  0  0  0
 22 28  1  0  0  0
 22 32  2  0  0  0
 26 27  1  0  0  0
 28103  1  0  0  0
 28104  1  0  0  0
 29105  1  0  0  0
 29106  1  0  0  0
 33 34  1  0  0  0
 33 66  1  0  0  0
 33 70  2  0  0  0
 34 36  1  0  0  0
 34 59  1  0  0  0
 34107  1  0  0  0
 35 44  2  0  0  0
 35 45  1  0  0  0
 35 68  1  0  0  0
 36 56  1  0  0  0
 36108  1  0  0  0
 37 39  1  0  0  0
 37 47  1  0  0  0
 37 66  1  0  0  0
 37109  1  0  0  0
 38 43  2  0  0  0
 38 46  1  0  0  0
 38 47  1  0  0  0
 39 64  1  0  0  0
 39 67  2  0  0  0
 40 52  1  0  0  0
 40 53  2  0  0  0
 40 58  1  0  0  0
 41110  1  0  0  0
 41111  1  0  0  0
 41112  1  0  0  0
 41 48  1  0  0  0
 42 43  1  0  0  0
 42 66  1  0  0  0
 42113  1  0  0  0
 42114  1  0  0  0
 43 44  1  0  0  0
 44115  1  0  0  0
 45 46  2  0  0  0
 45116  1  0  0  0
 46117  1  0  0  0
 47118  1  0  0  0
 47119  1  0  0  0
 48 56  1  0  0  0
 48 65  1  0  0  0
 48120  1  0  0  0
 49 50  1  0  0  0
 49 53  1  0  0  0
 49 64  1  0  0  0
 49121  1  0  0  0
 50 51  1  0  0  0
 50122  1  0  0  0
 50123  1  0  0  0
 51 52  1  0  0  0
 51124  1  0  0  0
 51125  1  0  0  0
 52126  1  0  0  0
 52127  1  0  0  0
 53 54  1  0  0  0
 54 55  2  0  0  0
 54128  1  0  0  0
 55 57  1  0  0  0
 55129  1  0  0  0
 56 69  2  0  0  0
 57 58  2  0  0  0
 57130  1  0  0  0
 58131  1  0  0  0
 59 60  1  0  0  0
 59 61  1  0  0  0
 59 62  1  0  0  0
 60132  1  0  0  0
 60133  1  0  0  0
 60134  1  0  0  0
 61135  1  0  0  0
 61136  1  0  0  0
 61137  1  0  0  0
 62138  1  0  0  0
 62139  1  0  0  0
 62140  1  0  0  0
 63 65  1  0  0  0
 63141  1  0  0  0
 63142  1  0  0  0
 63143  1  0  0  0
 64144  1  0  0  0
 65145  1  0  0  0
 68 78  1  0  0  0
 71 73  2  0  0  0
 71 74  1  0  0  0
 71146  1  0  0  0
 72 73  1  0  0  0
 72 83  2  0  0  0
 72147  1  0  0  0
 73 78  1  0  0  0
 74 75  2  0  0  0
 74 86  1  0  0  0
 75 79  1  0  0  0
 75 83  1  0  0  0
 76 84  1  0  0  0
 76148  1  0  0  0
 76149  1  0  0  0
 76150  1  0  0  0
 77151  1  0  0  0
 77152  1  0  0  0
 77153  1  0  0  0
 77 85  1  0  0  0
 78154  1  0  0  0
 78155  1  0  0  0
 79 85  1  0  0  0
 79156  1  0  0  0
 79157  1  0  0  0
 80 81  1  0  0  0
 80 82  1  0  0  0
 80158  1  0  0  0
 80159  1  0  0  0
 81 84  1  0  0  0
 81160  1  0  0  0
 81161  1  0  0  0
 82 85  1  0  0  0
 82162  1  0  0  0
 82163  1  0  0  0
 85164  1  0  0  0
M  CHG  1  85   1
M  ISO  4   1 100  68 101  78 101  84 100
M  END
> <chiral flag>
0

> <version>
0

> <s_m_source_file>
/data/baiqing/PycharmProjects/Reinvent-master-3.2/result/LINK_invent/BTK/process_docking_weight1_custom_sum_contain_oxygen_bond_distance_aromatic_linkinvent_7_9_3/rearranged_h_0050.sdf

> <i_m_source_file_index>
22

> <r_mmod_Potential_Energy-OPLS-2005>
-104.204010009766

> <r_mmod_Stretch_Energy-OPLS-2005>
38.0973205566406

> <r_mmod_Bend_Energy-OPLS-2005>
111.533515930176

> <r_mmod_Torsional_Energy-OPLS-2005>
319.736663818359

> <r_mmod_Improper_Torsional_Energy-OPLS-2005>
15.2457828521729

> <r_mmod_Van_der_Waal_Energy-OPLS-2005>
169.521743774414

> <r_mmod_Electrostatic_Energy-OPLS-2005>
-333.240661621094

> <r_mmod_Solvation_Energy-OPLS-2005>
-439.732025146484

> <b_mmod_Minimization_Converged-OPLS-2005>
0

> <r_mmod_RMS_Derivative-OPLS-2005>
6.53957891464233

$$$$
22
                    3D
 Structure written by MMmdl.
156165  0  0  1  0            999 V2000
  -30.6724  -14.7161   20.4155 C   0  0  0  0  0  0
  -30.4229  -12.4288   19.4620 C   0  0  0  0  0  0
  -29.5081  -12.5039   18.2224 C   0  0  0  0  0  0
  -28.0354  -12.3400   18.6420 C   0  0  0  0  0  0
  -27.6465  -13.2450   19.8421 C   0  0  2  0  0  0
  -28.6973  -13.2041   20.9715 C   0  0  0  0  0  0
  -25.2588  -13.8218   20.5717 C   0  0  0  0  0  0
  -24.1899  -13.0461   20.9218 C   0  0  0  0  0  0
  -24.6499  -11.6929   20.8751 C   0  0  0  0  0  0
  -23.9170  -10.4312   21.0409 C   0  0  0  0  0  0
  -24.3673   -9.4210   21.9191 C   0  0  0  0  0  0
  -23.6328   -8.2254   22.0763 C   0  0  0  0  0  0
  -22.4295   -8.0297   21.3564 C   0  0  0  0  0  0
  -21.9967   -9.0287   20.4660 C   0  0  0  0  0  0
  -22.7335  -10.2165   20.3074 C   0  0  0  0  0  0
  -21.6841   -6.0757   22.5304 C   0  0  0  0  0  0
  -21.3972   -6.5651   23.8231 C   0  0  0  0  0  0
  -21.3660   -5.6816   24.9204 C   0  0  0  0  0  0
  -21.6070   -4.3078   24.7250 C   0  0  0  0  0  0
  -21.8812   -3.8157   23.4360 C   0  0  0  0  0  0
  -21.9172   -4.6980   22.3411 C   0  0  0  0  0  0
  -22.7896  -13.5215   21.1893 C   0  0  0  0  0  0
  -22.1648   -4.2173   21.0996 F   0  0  0  0  0  0
  -21.5657   -3.4548   25.7745 F   0  0  0  0  0  0
  -30.0011  -13.5154   20.3784 N   0  0  0  0  0  0
  -26.3020  -12.9467   20.3283 N   0  0  0  0  0  0
  -25.9427  -11.6577   20.5707 N   0  0  0  0  0  0
  -22.0531  -12.8168   22.0409 N   0  0  0  0  0  0
  -25.4245  -15.1963   20.4144 N   0  0  0  0  0  0
  -31.8893  -14.7256   20.2084 O   0  0  0  0  0  0
  -21.6642   -6.8901   21.4251 O   0  0  0  0  0  0
  -22.3576  -14.5551   20.6798 O   0  0  0  0  0  0
  -24.6306  -31.8511   23.2002 C   0  0  0  0  0  0
  -25.9132  -32.4739   23.8336 C   0  0  1  0  0  0
  -27.2347  -27.2914   20.0884 C   0  0  0  0  0  0
  -25.5986  -33.8548   24.2295 N   0  0  0  0  0  0
  -23.4286  -30.4768   21.5395 C   0  0  2  0  0  0
  -24.8724  -28.9304   20.0962 C   0  0  0  0  0  0
  -22.7532  -29.4567   22.4870 C   0  0  0  0  0  0
  -18.0307  -28.1364   22.8543 C   0  0  0  0  0  0
  -24.1478  -36.7211   23.2640 C   0  0  0  0  0  0
  -25.9672  -30.7796   21.3642 C   0  0  0  0  0  0
  -26.0408  -29.4017   20.7065 C   0  0  0  0  0  0
  -27.2173  -28.5895   20.7000 C   0  0  0  0  0  0
  -26.0349  -26.8718   19.4678 C   0  0  0  0  0  0
  -24.8770  -27.6736   19.4656 C   0  0  0  0  0  0
  -23.6411  -29.8139   20.1529 C   0  0  0  0  0  0
  -25.4088  -36.3035   24.0373 C   0  0  1  0  0  0
  -20.5921  -28.3666   23.1266 C   0  0  2  0  0  0
  -20.6774  -26.9391   22.5374 C   0  0  0  0  0  0
  -19.5729  -26.6384   21.5206 C   0  0  0  0  0  0
  -18.1928  -26.7921   22.1633 C   0  0  0  0  0  0
  -19.1574  -28.8835   23.2908 C   0  0  0  0  0  0
  -18.9468  -30.1437   23.8918 C   0  0  0  0  0  0
  -17.6461  -30.6561   24.0580 C   0  0  0  0  0  0
  -25.9044  -34.9433   23.5111 C   0  0  0  0  0  0
  -16.5357  -29.9056   23.6334 C   0  0  0  0  0  0
  -16.7292  -28.6463   23.0382 C   0  0  0  0  0  0
  -26.4537  -31.6563   25.0708 C   0  0  0  0  0  0
  -25.3817  -31.3618   26.1455 C   0  0  0  0  0  0
  -27.0335  -30.3004   24.6090 C   0  0  0  0  0  0
  -27.6143  -32.4296   25.7439 C   0  0  0  0  0  0
  -27.5553  -37.1751   24.8515 C   0  0  0  0  0  0
  -21.4230  -29.3026   22.3636 N   0  0  0  0  0  0
  -26.4246  -37.3752   23.9489 N   0  0  0  0  0  0
  -24.6958  -31.0530   22.0931 N   0  0  0  0  0  0
  -23.4252  -28.8027   23.2892 O   0  0  0  0  0  0
  -28.3586  -26.4449   20.1460 O   0  0  0  0  0  0
  -26.5534  -34.8922   22.4623 O   0  0  0  0  0  0
  -23.5454  -32.1254   23.7336 O   0  0  0  0  0  0
  -29.5219  -17.9740   18.6801 C   0  0  0  0  0  0
  -29.9170  -16.6397   18.9264 C   0  0  0  0  0  0
  -29.1612  -18.8689   19.7216 C   0  0  0  0  0  0
  -29.9725  -16.1082   20.2341 C   0  0  0  0  0  0
  -29.2638  -18.2897   21.0315 C   0  0  0  0  0  0
  -28.3870  -23.8345   19.8207 C   0  0  0  0  0  0
  -27.4790  -22.1293   20.6599 C   0  0  0  0  0  0
  -28.9456  -19.0904   22.2924 C   0  0  0  0  0  0
  -26.4484  -21.2741   21.3084 C   0  0  0  0  0  0
  -28.5872  -20.2686   19.1946 C   0  0  0  0  0  0
  -28.5630  -25.2796   19.2363 C   0  0  0  0  0  0
  -29.6556  -16.9768   21.2596 N   0  0  0  0  0  0
  -27.4321  -23.4719   20.7278 N   0  0  0  0  0  0
  -29.0397  -22.7611   19.3044 N   0  0  0  0  0  0
  -28.4427  -21.6345   19.8554 N   0  0  0  0  0  0
  -31.4722  -12.4988   19.1714 H   0  0  0  0  0  0
  -30.3116  -11.4555   19.9402 H   0  0  0  0  0  0
  -29.7694  -11.7254   17.5058 H   0  0  0  0  0  0
  -29.6524  -13.4525   17.7018 H   0  0  0  0  0  0
  -27.8982  -11.2910   18.9103 H   0  0  0  0  0  0
  -27.3735  -12.5301   17.7940 H   0  0  0  0  0  0
  -27.6345  -14.2650   19.4554 H   0  0  0  0  0  0
  -28.7282  -12.2216   21.4444 H   0  0  0  0  0  0
  -28.4512  -13.9225   21.7561 H   0  0  0  0  0  0
  -25.2784   -9.5672   22.4817 H   0  0  0  0  0  0
  -24.0018   -7.4633   22.7484 H   0  0  0  0  0  0
  -21.0901   -8.8843   19.8947 H   0  0  0  0  0  0
  -22.3785  -10.9727   19.6223 H   0  0  0  0  0  0
  -21.1919   -7.6153   23.9755 H   0  0  0  0  0  0
  -21.1494   -6.0527   25.9133 H   0  0  0  0  0  0
  -22.0567   -2.7606   23.2856 H   0  0  0  0  0  0
  -22.4042  -11.9751   22.4716 H   0  0  0  0  0  0
  -21.1175  -13.1252   22.2664 H   0  0  0  0  0  0
  -24.6546  -15.8445   20.5342 H   0  0  0  0  0  0
  -26.2862  -15.6458   20.1317 H   0  0  0  0  0  0
  -26.7183  -32.5419   23.1065 H   0  0  0  0  0  0
  -25.0514  -33.9711   25.0681 H   0  0  0  0  0  0
  -22.7266  -31.2991   21.3949 H   0  0  0  0  0  0
  -23.3798  -35.9492   23.3297 H   0  0  0  0  0  0
  -24.3604  -36.8785   22.2063 H   0  0  0  0  0  0
  -23.7151  -37.6398   23.6613 H   0  0  0  0  0  0
  -26.0913  -31.5442   20.5945 H   0  0  0  0  0  0
  -26.8517  -30.8363   21.9903 H   0  0  0  0  0  0
  -28.1192  -28.9496   21.1776 H   0  0  0  0  0  0
  -25.9636  -25.8993   19.0072 H   0  0  0  0  0  0
  -23.9868  -27.3078   18.9726 H   0  0  0  0  0  0
  -23.7588  -30.5966   19.4010 H   0  0  0  0  0  0
  -22.7580  -29.2475   19.8483 H   0  0  0  0  0  0
  -25.1241  -36.1874   25.0856 H   0  0  0  0  0  0
  -21.0095  -28.3186   24.1356 H   0  0  0  0  0  0
  -20.5727  -26.2258   23.3556 H   0  0  0  0  0  0
  -21.6611  -26.7406   22.1125 H   0  0  0  0  0  0
  -19.6912  -25.6318   21.1193 H   0  0  0  0  0  0
  -19.6652  -27.3237   20.6783 H   0  0  0  0  0  0
  -17.4205  -26.6747   21.4031 H   0  0  0  0  0  0
  -18.0295  -25.9999   22.8964 H   0  0  0  0  0  0
  -19.7928  -30.7275   24.2298 H   0  0  0  0  0  0
  -17.4985  -31.6268   24.5121 H   0  0  0  0  0  0
  -15.5339  -30.2953   23.7630 H   0  0  0  0  0  0
  -15.8702  -28.0774   22.7103 H   0  0  0  0  0  0
  -24.6227  -30.6666   25.7847 H   0  0  0  0  0  0
  -24.8723  -32.2681   26.4735 H   0  0  0  0  0  0
  -25.8240  -30.9039   27.0314 H   0  0  0  0  0  0
  -26.2791  -29.6766   24.1285 H   0  0  0  0  0  0
  -27.4223  -29.7259   25.4512 H   0  0  0  0  0  0
  -27.8614  -30.4327   23.9127 H   0  0  0  0  0  0
  -27.2858  -33.3716   26.1848 H   0  0  0  0  0  0
  -28.3993  -32.6639   25.0241 H   0  0  0  0  0  0
  -28.0758  -31.8513   26.5457 H   0  0  0  0  0  0
  -28.2572  -38.0061   24.7535 H   0  0  0  0  0  0
  -28.1015  -36.2569   24.6299 H   0  0  0  0  0  0
  -27.2278  -37.1315   25.8927 H   0  0  0  0  0  0
  -20.9387  -29.8762   21.6881 H   0  0  0  0  0  0
  -26.0121  -38.2819   24.1553 H   0  0  0  0  0  0
  -29.4896  -18.3021   17.6491 H   0  0  0  0  0  0
  -30.2336  -16.0282   18.0893 H   0  0  0  0  0  0
  -28.8193  -20.1477   22.0800 H   0  0  0  0  0  0
  -29.7479  -19.0309   23.0311 H   0  0  0  0  0  0
  -28.0298  -18.7432   22.7774 H   0  0  0  0  0  0
  -25.4622  -21.7141   21.1515 H   0  0  0  0  0  0
  -26.6360  -21.2167   22.3778 H   0  0  0  0  0  0
  -26.4479  -20.2674   20.8927 H   0  0  0  0  0  0
  -27.5783  -20.0059   18.8698 H   0  0  0  0  0  0
  -29.1117  -20.4584   18.2538 H   0  0  0  0  0  0
  -27.9711  -25.3642   18.3292 H   0  0  0  0  0  0
  -29.5966  -25.3457   18.8917 H   0  0  0  0  0  0
  1 25  1  0  0  0
  1 30  2  0  0  0
  1 74  1  0  0  0
  2  3  1  0  0  0
  2 25  1  0  0  0
  2 86  1  0  0  0
  2 87  1  0  0  0
  3  4  1  0  0  0
  3 88  1  0  0  0
  3 89  1  0  0  0
  4  5  1  0  0  0
  4 90  1  0  0  0
  4 91  1  0  0  0
  5  6  1  0  0  0
  5 26  1  0  0  0
  5 92  1  0  0  0
  6 25  1  0  0  0
  6 93  1  0  0  0
  6 94  1  0  0  0
  7  8  2  0  0  0
  7 26  1  0  0  0
  7 29  1  0  0  0
  8  9  1  0  0  0
  8 22  1  0  0  0
  9 10  1  0  0  0
  9 27  2  0  0  0
 10 11  2  0  0  0
 10 15  1  0  0  0
 11 12  1  0  0  0
 11 95  1  0  0  0
 12 13  2  0  0  0
 12 96  1  0  0  0
 13 14  1  0  0  0
 13 31  1  0  0  0
 14 15  2  0  0  0
 14 97  1  0  0  0
 15 98  1  0  0  0
 16 17  2  0  0  0
 16 21  1  0  0  0
 16 31  1  0  0  0
 17 18  1  0  0  0
 17 99  1  0  0  0
 18 19  2  0  0  0
 18100  1  0  0  0
 19 20  1  0  0  0
 19 24  1  0  0  0
 20 21  2  0  0  0
 20101  1  0  0  0
 21 23  1  0  0  0
 22 28  1  0  0  0
 22 32  2  0  0  0
 26 27  1  0  0  0
 28102  1  0  0  0
 28103  1  0  0  0
 29104  1  0  0  0
 29105  1  0  0  0
 33 34  1  0  0  0
 33 66  1  0  0  0
 33 70  2  0  0  0
 34 36  1  0  0  0
 34 59  1  0  0  0
 34106  1  0  0  0
 35 44  2  0  0  0
 35 45  1  0  0  0
 35 68  1  0  0  0
 36 56  1  0  0  0
 36107  1  0  0  0
 37 39  1  0  0  0
 37 47  1  0  0  0
 37 66  1  0  0  0
 37108  1  0  0  0
 38 43  2  0  0  0
 38 46  1  0  0  0
 38 47  1  0  0  0
 39 64  1  0  0  0
 39 67  2  0  0  0
 40 52  1  0  0  0
 40 53  2  0  0  0
 40 58  1  0  0  0
 41109  1  0  0  0
 41110  1  0  0  0
 41111  1  0  0  0
 41 48  1  0  0  0
 42 43  1  0  0  0
 42 66  1  0  0  0
 42112  1  0  0  0
 42113  1  0  0  0
 43 44  1  0  0  0
 44114  1  0  0  0
 45 46  2  0  0  0
 45115  1  0  0  0
 46116  1  0  0  0
 47117  1  0  0  0
 47118  1  0  0  0
 48 56  1  0  0  0
 48 65  1  0  0  0
 48119  1  0  0  0
 49 50  1  0  0  0
 49 53  1  0  0  0
 49 64  1  0  0  0
 49120  1  0  0  0
 50 51  1  0  0  0
 50121  1  0  0  0
 50122  1  0  0  0
 51 52  1  0  0  0
 51123  1  0  0  0
 51124  1  0  0  0
 52125  1  0  0  0
 52126  1  0  0  0
 53 54  1  0  0  0
 54 55  2  0  0  0
 54127  1  0  0  0
 55 57  1  0  0  0
 55128  1  0  0  0
 56 69  2  0  0  0
 57 58  2  0  0  0
 57129  1  0  0  0
 58130  1  0  0  0
 59 60  1  0  0  0
 59 61  1  0  0  0
 59 62  1  0  0  0
 60131  1  0  0  0
 60132  1  0  0  0
 60133  1  0  0  0
 61134  1  0  0  0
 61135  1  0  0  0
 61136  1  0  0  0
 62137  1  0  0  0
 62138  1  0  0  0
 62139  1  0  0  0
 63 65  1  0  0  0
 63140  1  0  0  0
 63141  1  0  0  0
 63142  1  0  0  0
 64143  1  0  0  0
 65144  1  0  0  0
 68 81  1  0  0  0
 71 72  2  0  0  0
 71 73  1  0  0  0
 71145  1  0  0  0
 72 74  1  0  0  0
 72146  1  0  0  0
 73 75  2  0  0  0
 73 80  1  0  0  0
 74 82  2  0  0  0
 75 78  1  0  0  0
 75 82  1  0  0  0
 76 81  1  0  0  0
 76 83  1  0  0  0
 76 84  2  0  0  0
 77 79  1  0  0  0
 77 83  2  0  0  0
 77 85  1  0  0  0
 78147  1  0  0  0
 78148  1  0  0  0
 78149  1  0  0  0
 79150  1  0  0  0
 79151  1  0  0  0
 79152  1  0  0  0
 80 85  1  0  0  0
 80153  1  0  0  0
 80154  1  0  0  0
 81155  1  0  0  0
 81156  1  0  0  0
 84 85  1  0  0  0
M  ISO  4   1 100  68 101  74 100  81 101
M  END
> <chiral flag>
0

> <version>
0

> <s_m_source_file>
/data/baiqing/PycharmProjects/Reinvent-master-3.2/result/LINK_invent/BTK/process_docking_weight1_custom_sum_contain_oxygen_bond_distance_aromatic_linkinvent_7_9_3/rearranged_h_0050.sdf

> <i_m_source_file_index>
23

> <r_mmod_Potential_Energy-OPLS-2005>
223.535995483398

> <r_mmod_Stretch_Energy-OPLS-2005>
108.114196777344

> <r_mmod_Bend_Energy-OPLS-2005>
235.39697265625

> <r_mmod_Torsional_Energy-OPLS-2005>
245.478637695312

> <r_mmod_Improper_Torsional_Energy-OPLS-2005>
19.8021030426025

> <r_mmod_Van_der_Waal_Energy-OPLS-2005>
125.473747253418

> <r_mmod_Electrostatic_Energy-OPLS-2005>
-356.5380859375

> <r_mmod_Solvation_Energy-OPLS-2005>
-229.107406616211

> <b_mmod_Minimization_Converged-OPLS-2005>
0

> <r_mmod_RMS_Derivative-OPLS-2005>
6.43069887161255

$$$$
23
                    3D
 Structure written by MMmdl.
167175  0  0  1  0            999 V2000
  -30.7657  -14.4563   20.5901 C   0  0  0  0  0  0
  -30.4197  -12.3019   19.4317 C   0  0  0  0  0  0
  -29.5206  -12.5159   18.2005 C   0  0  0  0  0  0
  -28.0231  -12.4256   18.5719 C   0  0  0  0  0  0
  -27.6685  -13.2158   19.8649 C   0  0  2  0  0  0
  -28.7085  -12.9754   20.9762 C   0  0  0  0  0  0
  -25.2652  -13.8168   20.5617 C   0  0  0  0  0  0
  -24.1905  -13.0427   20.9138 C   0  0  0  0  0  0
  -24.6467  -11.6912   20.8631 C   0  0  0  0  0  0
  -23.9108  -10.4285   21.0285 C   0  0  0  0  0  0
  -24.3686   -9.4222   21.9071 C   0  0  0  0  0  0
  -23.6347   -8.2270   22.0674 C   0  0  0  0  0  0
  -22.4296   -8.0304   21.3509 C   0  0  0  0  0  0
  -21.9932   -9.0253   20.4586 C   0  0  0  0  0  0
  -22.7267  -10.2113   20.2947 C   0  0  0  0  0  0
  -21.6890   -6.0748   22.5278 C   0  0  0  0  0  0
  -21.4046   -6.5622   23.8224 C   0  0  0  0  0  0
  -21.3653   -5.6751   24.9164 C   0  0  0  0  0  0
  -21.6049   -4.3025   24.7204 C   0  0  0  0  0  0
  -21.8841   -3.8139   23.4304 C   0  0  0  0  0  0
  -21.9227   -4.6973   22.3381 C   0  0  0  0  0  0
  -22.7940  -13.5233   21.1811 C   0  0  0  0  0  0
  -22.1692   -4.2164   21.0958 F   0  0  0  0  0  0
  -21.5625   -3.4497   25.7709 F   0  0  0  0  0  0
  -30.0423  -13.3015   20.4490 N   0  0  0  0  0  0
  -26.3090  -12.9348   20.3235 N   0  0  0  0  0  0
  -25.9409  -11.6505   20.5613 N   0  0  0  0  0  0
  -22.0590  -12.8193   22.0359 N   0  0  0  0  0  0
  -25.4354  -15.1891   20.4088 N   0  0  0  0  0  0
  -31.8792  -14.5474   20.0624 O   0  0  0  0  0  0
  -21.6665   -6.8893   21.4227 O   0  0  0  0  0  0
  -22.3617  -14.5515   20.6643 O   0  0  0  0  0  0
  -24.6123  -31.8688   23.2109 C   0  0  0  0  0  0
  -25.9025  -32.4810   23.8387 C   0  0  1  0  0  0
  -27.2355  -27.4541   20.1260 C   0  0  0  0  0  0
  -25.5877  -33.8628   24.2316 N   0  0  0  0  0  0
  -23.4006  -30.4882   21.5500 C   0  0  2  0  0  0
  -24.8475  -28.9533   20.1136 C   0  0  0  0  0  0
  -22.7421  -29.4684   22.5038 C   0  0  0  0  0  0
  -18.0285  -28.1354   22.8507 C   0  0  0  0  0  0
  -24.1488  -36.7355   23.2633 C   0  0  0  0  0  0
  -25.9245  -30.8405   21.3610 C   0  0  0  0  0  0
  -26.0018  -29.4770   20.7105 C   0  0  0  0  0  0
  -27.1999  -28.7336   20.7106 C   0  0  0  0  0  0
  -26.0758  -26.9380   19.5120 C   0  0  0  0  0  0
  -24.8782  -27.6827   19.5059 C   0  0  0  0  0  0
  -23.6054  -29.8118   20.1656 C   0  0  0  0  0  0
  -25.4105  -36.3146   24.0340 C   0  0  1  0  0  0
  -20.5853  -28.3656   23.1326 C   0  0  2  0  0  0
  -20.6769  -26.9393   22.5433 C   0  0  0  0  0  0
  -19.5744  -26.6378   21.5225 C   0  0  0  0  0  0
  -18.1916  -26.7922   22.1616 C   0  0  0  0  0  0
  -19.1521  -28.8824   23.2891 C   0  0  0  0  0  0
  -18.9457  -30.1453   23.8888 C   0  0  0  0  0  0
  -17.6446  -30.6555   24.0568 C   0  0  0  0  0  0
  -25.9037  -34.9492   23.5141 C   0  0  0  0  0  0
  -16.5333  -29.9073   23.6312 C   0  0  0  0  0  0
  -16.7272  -28.6480   23.0337 C   0  0  0  0  0  0
  -26.4450  -31.6578   25.0731 C   0  0  0  0  0  0
  -25.3719  -31.3650   26.1468 C   0  0  0  0  0  0
  -27.0236  -30.3006   24.6095 C   0  0  0  0  0  0
  -27.6041  -32.4287   25.7495 C   0  0  0  0  0  0
  -27.5592  -37.1836   24.8444 C   0  0  0  0  0  0
  -21.4150  -29.3028   22.3759 N   0  0  0  0  0  0
  -26.4284  -37.3825   23.9416 N   0  0  0  0  0  0
  -24.6634  -31.0816   22.0999 N   0  0  0  0  0  0
  -23.4205  -28.8242   23.3083 O   0  0  0  0  0  0
  -28.3902  -26.7174   20.1874 O   0  0  0  0  0  0
  -26.5618  -34.8947   22.4712 O   0  0  0  0  0  0
  -23.5335  -32.1443   23.7498 O   0  0  0  0  0  0
  -28.7198  -21.4753   19.6417 C   0  0  0  0  0  0
  -28.9163  -20.5905   20.7287 C   0  0  0  0  0  0
  -29.6422  -22.3528   22.0454 C   0  0  0  0  0  0
  -29.4065  -23.2517   20.9597 C   0  0  0  0  0  0
  -30.1583  -22.7693   23.4163 C   0  0  0  0  0  0
  -29.5987  -16.4922   18.7917 C   0  0  0  0  0  0
  -29.5832  -15.5961   22.6537 C   0  0  0  0  0  0
  -30.9668  -18.7622   19.8278 C   0  0  0  0  0  0
  -29.6087  -24.7673   21.0079 C   0  0  0  0  0  0
  -28.6171  -19.0998   20.6012 C   0  0  0  0  0  0
  -28.2840  -25.5632   21.0382 C   0  0  0  0  0  0
  -29.4897  -16.7765   20.3183 C   0  0  1  0  0  0
  -30.2570  -15.7765   21.2771 C   0  0  2  0  0  0
  -28.9662  -22.7989   19.7552 N   0  0  0  0  0  0
  -29.3961  -21.0227   21.9202 N   0  0  0  0  0  0
  -29.8222  -18.2172   20.6159 N   0  3  1  0  0  0
  -31.3688  -16.4335   21.6316 F   0  0  0  0  0  0
  -31.4714  -12.3555   19.1422 H   0  0  0  0  0  0
  -30.2950  -11.2902   19.8244 H   0  0  0  0  0  0
  -29.7619  -11.7718   17.4392 H   0  0  0  0  0  0
  -29.7522  -13.4822   17.7485 H   0  0  0  0  0  0
  -27.7675  -11.3732   18.6883 H   0  0  0  0  0  0
  -27.4212  -12.7872   17.7356 H   0  0  0  0  0  0
  -27.7062  -14.2728   19.6139 H   0  0  0  0  0  0
  -28.6926  -11.9248   21.2701 H   0  0  0  0  0  0
  -28.4369  -13.5031   21.8788 H   0  0  0  0  0  0
  -25.2856   -9.5734   22.4586 H   0  0  0  0  0  0
  -24.0089   -7.4674   22.7398 H   0  0  0  0  0  0
  -21.0869   -8.8744   19.8911 H   0  0  0  0  0  0
  -22.3710  -10.9625   19.6022 H   0  0  0  0  0  0
  -21.2023   -7.6125   23.9744 H   0  0  0  0  0  0
  -21.1450   -6.0443   25.9061 H   0  0  0  0  0  0
  -22.0622   -2.7592   23.2798 H   0  0  0  0  0  0
  -22.4260  -11.9885   22.4786 H   0  0  0  0  0  0
  -21.1141  -13.1107   22.2426 H   0  0  0  0  0  0
  -24.6578  -15.8347   20.4968 H   0  0  0  0  0  0
  -26.2685  -15.6272   20.0442 H   0  0  0  0  0  0
  -26.7130  -32.5507   23.1179 H   0  0  0  0  0  0
  -24.9970  -33.9785   25.0415 H   0  0  0  0  0  0
  -22.6884  -31.3034   21.4056 H   0  0  0  0  0  0
  -23.3759  -35.9670   23.3253 H   0  0  0  0  0  0
  -24.3593  -36.9024   22.2050 H   0  0  0  0  0  0
  -23.7221  -37.6550   23.6675 H   0  0  0  0  0  0
  -26.0325  -31.6019   20.5863 H   0  0  0  0  0  0
  -26.8173  -30.8942   21.9736 H   0  0  0  0  0  0
  -28.0896  -29.1259   21.1794 H   0  0  0  0  0  0
  -26.0984  -25.9626   19.0465 H   0  0  0  0  0  0
  -23.9905  -27.2678   19.0441 H   0  0  0  0  0  0
  -23.7052  -30.5798   19.3971 H   0  0  0  0  0  0
  -22.7337  -29.2201   19.8832 H   0  0  0  0  0  0
  -25.1274  -36.2025   25.0833 H   0  0  0  0  0  0
  -20.9911  -28.3227   24.1458 H   0  0  0  0  0  0
  -20.5661  -26.2284   23.3630 H   0  0  0  0  0  0
  -21.6639  -26.7440   22.1208 H   0  0  0  0  0  0
  -19.6893  -25.6305   21.1246 H   0  0  0  0  0  0
  -19.6660  -27.3205   20.6769 H   0  0  0  0  0  0
  -17.4193  -26.6705   21.3999 H   0  0  0  0  0  0
  -18.0253  -26.0046   22.8983 H   0  0  0  0  0  0
  -19.7927  -30.7282   24.2224 H   0  0  0  0  0  0
  -17.4998  -31.6247   24.5172 H   0  0  0  0  0  0
  -15.5336  -30.2952   23.7660 H   0  0  0  0  0  0
  -15.8676  -28.0824   22.7022 H   0  0  0  0  0  0
  -24.5909  -30.6976   25.7821 H   0  0  0  0  0  0
  -24.8865  -32.2766   26.4970 H   0  0  0  0  0  0
  -25.8079  -30.8804   27.0206 H   0  0  0  0  0  0
  -26.2755  -29.6828   24.1108 H   0  0  0  0  0  0
  -27.3932  -29.7192   25.4555 H   0  0  0  0  0  0
  -27.8642  -30.4295   23.9262 H   0  0  0  0  0  0
  -27.2664  -33.3584   26.2069 H   0  0  0  0  0  0
  -28.3838  -32.6826   25.0314 H   0  0  0  0  0  0
  -28.0683  -31.8387   26.5397 H   0  0  0  0  0  0
  -28.2588  -38.0163   24.7540 H   0  0  0  0  0  0
  -28.1115  -36.2700   24.6184 H   0  0  0  0  0  0
  -27.2321  -37.1386   25.8850 H   0  0  0  0  0  0
  -20.9344  -29.8741   21.6936 H   0  0  0  0  0  0
  -26.0194  -38.2919   24.1429 H   0  0  0  0  0  0
  -28.3681  -21.1330   18.6790 H   0  0  0  0  0  0
  -29.3315  -23.0869   24.0518 H   0  0  0  0  0  0
  -30.8988  -23.5688   23.3746 H   0  0  0  0  0  0
  -30.6420  -21.9242   23.9081 H   0  0  0  0  0  0
  -29.1466  -15.5446   18.5121 H   0  0  0  0  0  0
  -30.6350  -16.4565   18.4531 H   0  0  0  0  0  0
  -29.0904  -17.2526   18.1985 H   0  0  0  0  0  0
  -29.7533  -16.4621   23.2968 H   0  0  0  0  0  0
  -29.9823  -14.7264   23.1812 H   0  0  0  0  0  0
  -28.5031  -15.4903   22.5732 H   0  0  0  0  0  0
  -31.3308  -19.7085   20.2333 H   0  0  0  0  0  0
  -30.6883  -18.9401   18.7873 H   0  0  0  0  0  0
  -31.8189  -18.0831   19.8397 H   0  0  0  0  0  0
  -30.1592  -25.0478   20.1079 H   0  0  0  0  0  0
  -30.2489  -25.0606   21.8384 H   0  0  0  0  0  0
  -28.0563  -18.9446   19.6796 H   0  0  0  0  0  0
  -27.9426  -18.8257   21.4117 H   0  0  0  0  0  0
  -28.0525  -25.8561   22.0665 H   0  0  0  0  0  0
  -27.4528  -24.9364   20.7075 H   0  0  0  0  0  0
  -28.4304  -16.6394   20.5472 H   0  0  0  0  0  0
  -30.1454  -18.2238   21.5731 H   0  0  0  0  0  0
  1 25  1  0  0  0
  1 30  2  0  0  0
  1 83  1  0  0  0
  2  3  1  0  0  0
  2 25  1  0  0  0
  2 88  1  0  0  0
  2 89  1  0  0  0
  3  4  1  0  0  0
  3 90  1  0  0  0
  3 91  1  0  0  0
  4  5  1  0  0  0
  4 92  1  0  0  0
  4 93  1  0  0  0
  5  6  1  0  0  0
  5 26  1  0  0  0
  5 94  1  0  0  0
  6 25  1  0  0  0
  6 95  1  0  0  0
  6 96  1  0  0  0
  7  8  2  0  0  0
  7 26  1  0  0  0
  7 29  1  0  0  0
  8  9  1  0  0  0
  8 22  1  0  0  0
  9 10  1  0  0  0
  9 27  2  0  0  0
 10 11  2  0  0  0
 10 15  1  0  0  0
 11 12  1  0  0  0
 11 97  1  0  0  0
 12 13  2  0  0  0
 12 98  1  0  0  0
 13 14  1  0  0  0
 13 31  1  0  0  0
 14 15  2  0  0  0
 14 99  1  0  0  0
 15100  1  0  0  0
 16 17  2  0  0  0
 16 21  1  0  0  0
 16 31  1  0  0  0
 17 18  1  0  0  0
 17101  1  0  0  0
 18 19  2  0  0  0
 18102  1  0  0  0
 19 20  1  0  0  0
 19 24  1  0  0  0
 20 21  2  0  0  0
 20103  1  0  0  0
 21 23  1  0  0  0
 22 28  1  0  0  0
 22 32  2  0  0  0
 26 27  1  0  0  0
 28104  1  0  0  0
 28105  1  0  0  0
 29106  1  0  0  0
 29107  1  0  0  0
 33 34  1  0  0  0
 33 66  1  0  0  0
 33 70  2  0  0  0
 34 36  1  0  0  0
 34 59  1  0  0  0
 34108  1  0  0  0
 35 44  2  0  0  0
 35 45  1  0  0  0
 35 68  1  0  0  0
 36 56  1  0  0  0
 36109  1  0  0  0
 37 39  1  0  0  0
 37 47  1  0  0  0
 37 66  1  0  0  0
 37110  1  0  0  0
 38 43  2  0  0  0
 38 46  1  0  0  0
 38 47  1  0  0  0
 39 64  1  0  0  0
 39 67  2  0  0  0
 40 52  1  0  0  0
 40 53  2  0  0  0
 40 58  1  0  0  0
 41111  1  0  0  0
 41112  1  0  0  0
 41113  1  0  0  0
 41 48  1  0  0  0
 42 43  1  0  0  0
 42 66  1  0  0  0
 42114  1  0  0  0
 42115  1  0  0  0
 43 44  1  0  0  0
 44116  1  0  0  0
 45 46  2  0  0  0
 45117  1  0  0  0
 46118  1  0  0  0
 47119  1  0  0  0
 47120  1  0  0  0
 48 56  1  0  0  0
 48 65  1  0  0  0
 48121  1  0  0  0
 49 50  1  0  0  0
 49 53  1  0  0  0
 49 64  1  0  0  0
 49122  1  0  0  0
 50 51  1  0  0  0
 50123  1  0  0  0
 50124  1  0  0  0
 51 52  1  0  0  0
 51125  1  0  0  0
 51126  1  0  0  0
 52127  1  0  0  0
 52128  1  0  0  0
 53 54  1  0  0  0
 54 55  2  0  0  0
 54129  1  0  0  0
 55 57  1  0  0  0
 55130  1  0  0  0
 56 69  2  0  0  0
 57 58  2  0  0  0
 57131  1  0  0  0
 58132  1  0  0  0
 59 60  1  0  0  0
 59 61  1  0  0  0
 59 62  1  0  0  0
 60133  1  0  0  0
 60134  1  0  0  0
 60135  1  0  0  0
 61136  1  0  0  0
 61137  1  0  0  0
 61138  1  0  0  0
 62139  1  0  0  0
 62140  1  0  0  0
 62141  1  0  0  0
 63 65  1  0  0  0
 63142  1  0  0  0
 63143  1  0  0  0
 63144  1  0  0  0
 64145  1  0  0  0
 65146  1  0  0  0
 68 81  1  0  0  0
 71 72  2  0  0  0
 71 84  1  0  0  0
 71147  1  0  0  0
 72 80  1  0  0  0
 72 85  1  0  0  0
 73 74  1  0  0  0
 73 75  1  0  0  0
 73 85  2  0  0  0
 74 79  1  0  0  0
 74 84  2  0  0  0
 75148  1  0  0  0
 75149  1  0  0  0
 75150  1  0  0  0
 76151  1  0  0  0
 76152  1  0  0  0
 76153  1  0  0  0
 76 82  1  0  0  0
 77154  1  0  0  0
 77155  1  0  0  0
 77156  1  0  0  0
 77 83  1  0  0  0
 78157  1  0  0  0
 78158  1  0  0  0
 78159  1  0  0  0
 78 86  1  0  0  0
 79 81  1  0  0  0
 79160  1  0  0  0
 79161  1  0  0  0
 80 86  1  0  0  0
 80162  1  0  0  0
 80163  1  0  0  0
 81164  1  0  0  0
 81165  1  0  0  0
 82 83  1  0  0  0
 82 86  1  0  0  0
 82166  1  0  0  0
 83 87  1  0  0  0
 86167  1  0  0  0
M  CHG  1  86   1
M  ISO  4   1 100  68 101  81 101  83 100
M  END
> <chiral flag>
0

> <version>
0

> <s_m_source_file>
/data/baiqing/PycharmProjects/Reinvent-master-3.2/result/LINK_invent/BTK/process_docking_weight1_custom_sum_contain_oxygen_bond_distance_aromatic_linkinvent_7_9_3/rearranged_h_0050.sdf

> <i_m_source_file_index>
24

> <r_mmod_Potential_Energy-OPLS-2005>
-47.7315635681152

> <r_mmod_Stretch_Energy-OPLS-2005>
49.357364654541

> <r_mmod_Bend_Energy-OPLS-2005>
124.777519226074

> <r_mmod_Torsional_Energy-OPLS-2005>
231.929565429688

> <r_mmod_Improper_Torsional_Energy-OPLS-2005>
2.89738130569458

> <r_mmod_Van_der_Waal_Energy-OPLS-2005>
170.219284057617

> <r_mmod_Electrostatic_Energy-OPLS-2005>
-214.591369628906

> <r_mmod_Solvation_Energy-OPLS-2005>
-427.537109375

> <b_mmod_Minimization_Converged-OPLS-2005>
0

> <r_mmod_RMS_Derivative-OPLS-2005>
5.66792964935303

$$$$
24
                    3D
 Structure written by MMmdl.
165173  0  0  1  0            999 V2000
  -30.6754  -14.6262   20.4719 C   0  0  0  0  0  0
  -30.4166  -12.3827   19.4490 C   0  0  0  0  0  0
  -29.4897  -12.4743   18.2189 C   0  0  0  0  0  0
  -28.0166  -12.3241   18.6425 C   0  0  0  0  0  0
  -27.6442  -13.2207   19.8537 C   0  0  2  0  0  0
  -28.6934  -13.1230   20.9823 C   0  0  0  0  0  0
  -25.2533  -13.8186   20.5708 C   0  0  0  0  0  0
  -24.1793  -13.0442   20.9202 C   0  0  0  0  0  0
  -24.6363  -11.6917   20.8743 C   0  0  0  0  0  0
  -23.9035  -10.4294   21.0393 C   0  0  0  0  0  0
  -24.3591   -9.4219   21.9173 C   0  0  0  0  0  0
  -23.6276   -8.2247   22.0747 C   0  0  0  0  0  0
  -22.4265   -8.0268   21.3533 C   0  0  0  0  0  0
  -21.9898   -9.0238   20.4635 C   0  0  0  0  0  0
  -22.7214  -10.2124   20.3046 C   0  0  0  0  0  0
  -21.6852   -6.0720   22.5264 C   0  0  0  0  0  0
  -21.4011   -6.5621   23.8196 C   0  0  0  0  0  0
  -21.3663   -5.6774   24.9154 C   0  0  0  0  0  0
  -21.6047   -4.3041   24.7210 C   0  0  0  0  0  0
  -21.8823   -3.8134   23.4334 C   0  0  0  0  0  0
  -21.9198   -4.6948   22.3390 C   0  0  0  0  0  0
  -22.7823  -13.5236   21.1864 C   0  0  0  0  0  0
  -22.1667   -4.2134   21.0971 F   0  0  0  0  0  0
  -21.5637   -3.4533   25.7730 F   0  0  0  0  0  0
  -29.9987  -13.4387   20.3937 N   0  0  0  0  0  0
  -26.2947  -12.9371   20.3333 N   0  0  0  0  0  0
  -25.9291  -11.6525   20.5784 N   0  0  0  0  0  0
  -22.0478  -12.8197   22.0405 N   0  0  0  0  0  0
  -25.4276  -15.1901   20.4151 N   0  0  0  0  0  0
  -31.8670  -14.6904   20.1606 O   0  0  0  0  0  0
  -21.6642   -6.8860   21.4223 O   0  0  0  0  0  0
  -22.3515  -14.5542   20.6721 O   0  0  0  0  0  0
  -24.6293  -31.8598   23.2060 C   0  0  0  0  0  0
  -25.9125  -32.4781   23.8378 C   0  0  1  0  0  0
  -27.1808  -27.2879   20.1265 C   0  0  0  0  0  0
  -25.5930  -33.8589   24.2292 N   0  0  0  0  0  0
  -23.4208  -30.4933   21.5483 C   0  0  2  0  0  0
  -24.8593  -28.9585   20.1018 C   0  0  0  0  0  0
  -22.7499  -29.4640   22.4908 C   0  0  0  0  0  0
  -18.0308  -28.1395   22.8474 C   0  0  0  0  0  0
  -24.1477  -36.7274   23.2644 C   0  0  0  0  0  0
  -25.9665  -30.7842   21.3815 C   0  0  0  0  0  0
  -26.0334  -29.4141   20.7150 C   0  0  0  0  0  0
  -27.2018  -28.5908   20.7192 C   0  0  0  0  0  0
  -25.9941  -26.9141   19.4541 C   0  0  0  0  0  0
  -24.8419  -27.7165   19.4579 C   0  0  0  0  0  0
  -23.6326  -29.8443   20.1584 C   0  0  0  0  0  0
  -25.4110  -36.3091   24.0344 C   0  0  1  0  0  0
  -20.5908  -28.3694   23.1270 C   0  0  2  0  0  0
  -20.6779  -26.9418   22.5399 C   0  0  0  0  0  0
  -19.5746  -26.6381   21.5210 C   0  0  0  0  0  0
  -18.1926  -26.7945   22.1622 C   0  0  0  0  0  0
  -19.1561  -28.8864   23.2865 C   0  0  0  0  0  0
  -18.9495  -30.1455   23.8881 C   0  0  0  0  0  0
  -17.6500  -30.6582   24.0573 C   0  0  0  0  0  0
  -25.9066  -34.9456   23.5123 C   0  0  0  0  0  0
  -16.5378  -29.9081   23.6357 C   0  0  0  0  0  0
  -16.7298  -28.6512   23.0349 C   0  0  0  0  0  0
  -26.4499  -31.6607   25.0755 C   0  0  0  0  0  0
  -25.3711  -31.3730   26.1467 C   0  0  0  0  0  0
  -27.0404  -30.3068   24.6201 C   0  0  0  0  0  0
  -27.6058  -32.4356   25.7512 C   0  0  0  0  0  0
  -27.5575  -37.1798   24.8477 C   0  0  0  0  0  0
  -21.4217  -29.3041   22.3660 N   0  0  0  0  0  0
  -26.4289  -37.3788   23.9426 N   0  0  0  0  0  0
  -24.6913  -31.0615   22.1007 N   0  0  0  0  0  0
  -23.4211  -28.8149   23.2980 O   0  0  0  0  0  0
  -28.2270  -26.3514   20.2358 O   0  0  0  0  0  0
  -26.5618  -34.8909   22.4675 O   0  0  0  0  0  0
  -23.5448  -32.1414   23.7371 O   0  0  0  0  0  0
  -30.5100  -19.7309   20.3392 C   0  0  0  0  0  0
  -27.8968  -19.7710   20.8385 C   0  0  0  0  0  0
  -29.8242  -18.5010   20.5699 C   0  0  0  0  0  0
  -28.5739  -21.0254   20.6129 C   0  0  0  0  0  0
  -25.8817  -22.1082   22.1274 C   0  0  0  0  0  0
  -29.7836  -25.1373   22.6145 C   0  0  0  0  0  0
  -29.5471  -22.6996   23.1230 C   0  0  0  0  0  0
  -30.6129  -17.1436   20.5600 C   0  0  0  0  0  0
  -26.4425  -22.2492   20.7020 C   0  0  0  0  0  0
  -27.7921  -24.9199   20.2720 C   0  0  0  0  0  0
  -28.8963  -23.8972   22.3995 C   0  0  0  0  0  0
  -28.6005  -23.6611   20.8807 C   0  0  1  0  0  0
  -28.4939  -18.5354   20.8227 N   0  0  0  0  0  0
  -29.9077  -20.9634   20.3566 N   0  0  0  0  0  0
  -29.9733  -15.7854   20.6724 N   0  0  0  0  0  0
  -27.9152  -22.3229   20.6365 N   0  0  0  0  0  0
  -31.4582  -12.4806   19.1390 H   0  0  0  0  0  0
  -30.3367  -11.4010   19.9173 H   0  0  0  0  0  0
  -29.7456  -11.6968   17.4971 H   0  0  0  0  0  0
  -29.6327  -13.4272   17.7068 H   0  0  0  0  0  0
  -27.8589  -11.2757   18.8995 H   0  0  0  0  0  0
  -27.3540  -12.5292   17.8012 H   0  0  0  0  0  0
  -27.6515  -14.2468   19.4860 H   0  0  0  0  0  0
  -28.7052  -12.1198   21.4119 H   0  0  0  0  0  0
  -28.4535  -13.8045   21.7995 H   0  0  0  0  0  0
  -25.2730   -9.5703   22.4755 H   0  0  0  0  0  0
  -23.9985   -7.4645   22.7470 H   0  0  0  0  0  0
  -21.0842   -8.8740   19.8938 H   0  0  0  0  0  0
  -22.3661  -10.9652   19.6159 H   0  0  0  0  0  0
  -21.1993   -7.6128   23.9687 H   0  0  0  0  0  0
  -21.1486   -6.0510   25.9055 H   0  0  0  0  0  0
  -22.0605   -2.7599   23.2835 H   0  0  0  0  0  0
  -22.4109  -11.9849   22.4746 H   0  0  0  0  0  0
  -21.1094  -13.1199   22.2633 H   0  0  0  0  0  0
  -24.6687  -15.8513   20.5395 H   0  0  0  0  0  0
  -26.2851  -15.6292   20.1029 H   0  0  0  0  0  0
  -26.7158  -32.5445   23.1097 H   0  0  0  0  0  0
  -25.0134  -33.9740   25.0474 H   0  0  0  0  0  0
  -22.7166  -31.3173   21.4130 H   0  0  0  0  0  0
  -23.3765  -35.9579   23.3327 H   0  0  0  0  0  0
  -24.3563  -36.8894   22.2055 H   0  0  0  0  0  0
  -23.7193  -37.6465   23.6652 H   0  0  0  0  0  0
  -26.1059  -31.5519   20.6183 H   0  0  0  0  0  0
  -26.8430  -30.8218   22.0167 H   0  0  0  0  0  0
  -28.0934  -28.9252   21.2293 H   0  0  0  0  0  0
  -25.9059  -25.9704   18.9372 H   0  0  0  0  0  0
  -23.9463  -27.3685   18.9618 H   0  0  0  0  0  0
  -23.7547  -30.6275   19.4103 H   0  0  0  0  0  0
  -22.7472  -29.2858   19.8516 H   0  0  0  0  0  0
  -25.1280  -36.1956   25.0839 H   0  0  0  0  0  0
  -21.0011  -28.3265   24.1393 H   0  0  0  0  0  0
  -20.5693  -26.2314   23.3603 H   0  0  0  0  0  0
  -21.6645  -26.7431   22.1186 H   0  0  0  0  0  0
  -19.6916  -25.6290   21.1240 H   0  0  0  0  0  0
  -19.6694  -27.3192   20.6740 H   0  0  0  0  0  0
  -17.4213  -26.6736   21.3996 H   0  0  0  0  0  0
  -18.0284  -26.0070   22.9000 H   0  0  0  0  0  0
  -19.7971  -30.7275   24.2219 H   0  0  0  0  0  0
  -17.5051  -31.6266   24.5167 H   0  0  0  0  0  0
  -15.5372  -30.2962   23.7693 H   0  0  0  0  0  0
  -15.8715  -28.0826   22.7039 H   0  0  0  0  0  0
  -24.5917  -30.7044   25.7790 H   0  0  0  0  0  0
  -24.8833  -32.2871   26.4863 H   0  0  0  0  0  0
  -25.8011  -30.8945   27.0273 H   0  0  0  0  0  0
  -26.3021  -29.6775   24.1216 H   0  0  0  0  0  0
  -27.4168  -29.7364   25.4700 H   0  0  0  0  0  0
  -27.8827  -30.4455   23.9424 H   0  0  0  0  0  0
  -27.2706  -33.3698   26.2023 H   0  0  0  0  0  0
  -28.3875  -32.6851   25.0326 H   0  0  0  0  0  0
  -28.0683  -31.8509   26.5473 H   0  0  0  0  0  0
  -28.2602  -38.0087   24.7533 H   0  0  0  0  0  0
  -28.1062  -36.2621   24.6295 H   0  0  0  0  0  0
  -27.2283  -37.1449   25.8878 H   0  0  0  0  0  0
  -20.9375  -29.8851   21.6958 H   0  0  0  0  0  0
  -26.0187  -38.2874   24.1430 H   0  0  0  0  0  0
  -31.5723  -19.7254   20.1360 H   0  0  0  0  0  0
  -26.8412  -19.7187   21.0520 H   0  0  0  0  0  0
  -25.9474  -23.0395   22.6876 H   0  0  0  0  0  0
  -26.3950  -21.3375   22.7024 H   0  0  0  0  0  0
  -24.8259  -21.8350   22.0913 H   0  0  0  0  0  0
  -30.1440  -25.2050   23.6411 H   0  0  0  0  0  0
  -29.2432  -26.0630   22.4231 H   0  0  0  0  0  0
  -30.6549  -25.1210   21.9584 H   0  0  0  0  0  0
  -29.7901  -22.9380   24.1588 H   0  0  0  0  0  0
  -30.4741  -22.3992   22.6364 H   0  0  0  0  0  0
  -28.8842  -21.8351   23.1581 H   0  0  0  0  0  0
  -31.3476  -17.2095   21.3612 H   0  0  0  0  0  0
  -31.1958  -17.1569   19.6371 H   0  0  0  0  0  0
  -25.9832  -23.1143   20.2280 H   0  0  0  0  0  0
  -26.0791  -21.4309   20.0794 H   0  0  0  0  0  0
  -26.8605  -24.9334   20.8401 H   0  0  0  0  0  0
  -27.5409  -24.6476   19.2472 H   0  0  0  0  0  0
  -27.9542  -24.0960   22.9109 H   0  0  0  0  0  0
  -29.5565  -23.6133   20.3591 H   0  0  0  0  0  0
  -28.9811  -15.7408   20.8445 H   0  0  0  0  0  0
  1 25  1  0  0  0
  1 30  2  0  0  0
  1 85  1  0  0  0
  2  3  1  0  0  0
  2 25  1  0  0  0
  2 87  1  0  0  0
  2 88  1  0  0  0
  3  4  1  0  0  0
  3 89  1  0  0  0
  3 90  1  0  0  0
  4  5  1  0  0  0
  4 91  1  0  0  0
  4 92  1  0  0  0
  5  6  1  0  0  0
  5 26  1  0  0  0
  5 93  1  0  0  0
  6 25  1  0  0  0
  6 94  1  0  0  0
  6 95  1  0  0  0
  7  8  2  0  0  0
  7 26  1  0  0  0
  7 29  1  0  0  0
  8  9  1  0  0  0
  8 22  1  0  0  0
  9 10  1  0  0  0
  9 27  2  0  0  0
 10 11  2  0  0  0
 10 15  1  0  0  0
 11 12  1  0  0  0
 11 96  1  0  0  0
 12 13  2  0  0  0
 12 97  1  0  0  0
 13 14  1  0  0  0
 13 31  1  0  0  0
 14 15  2  0  0  0
 14 98  1  0  0  0
 15 99  1  0  0  0
 16 17  2  0  0  0
 16 21  1  0  0  0
 16 31  1  0  0  0
 17 18  1  0  0  0
 17100  1  0  0  0
 18 19  2  0  0  0
 18101  1  0  0  0
 19 20  1  0  0  0
 19 24  1  0  0  0
 20 21  2  0  0  0
 20102  1  0  0  0
 21 23  1  0  0  0
 22 28  1  0  0  0
 22 32  2  0  0  0
 26 27  1  0  0  0
 28103  1  0  0  0
 28104  1  0  0  0
 29105  1  0  0  0
 29106  1  0  0  0
 33 34  1  0  0  0
 33 66  1  0  0  0
 33 70  2  0  0  0
 34 36  1  0  0  0
 34 59  1  0  0  0
 34107  1  0  0  0
 35 44  2  0  0  0
 35 45  1  0  0  0
 35 68  1  0  0  0
 36 56  1  0  0  0
 36108  1  0  0  0
 37 39  1  0  0  0
 37 47  1  0  0  0
 37 66  1  0  0  0
 37109  1  0  0  0
 38 43  2  0  0  0
 38 46  1  0  0  0
 38 47  1  0  0  0
 39 64  1  0  0  0
 39 67  2  0  0  0
 40 52  1  0  0  0
 40 53  2  0  0  0
 40 58  1  0  0  0
 41110  1  0  0  0
 41111  1  0  0  0
 41112  1  0  0  0
 41 48  1  0  0  0
 42 43  1  0  0  0
 42 66  1  0  0  0
 42113  1  0  0  0
 42114  1  0  0  0
 43 44  1  0  0  0
 44115  1  0  0  0
 45 46  2  0  0  0
 45116  1  0  0  0
 46117  1  0  0  0
 47118  1  0  0  0
 47119  1  0  0  0
 48 56  1  0  0  0
 48 65  1  0  0  0
 48120  1  0  0  0
 49 50  1  0  0  0
 49 53  1  0  0  0
 49 64  1  0  0  0
 49121  1  0  0  0
 50 51  1  0  0  0
 50122  1  0  0  0
 50123  1  0  0  0
 51 52  1  0  0  0
 51124  1  0  0  0
 51125  1  0  0  0
 52126  1  0  0  0
 52127  1  0  0  0
 53 54  1  0  0  0
 54 55  2  0  0  0
 54128  1  0  0  0
 55 57  1  0  0  0
 55129  1  0  0  0
 56 69  2  0  0  0
 57 58  2  0  0  0
 57130  1  0  0  0
 58131  1  0  0  0
 59 60  1  0  0  0
 59 61  1  0  0  0
 59 62  1  0  0  0
 60132  1  0  0  0
 60133  1  0  0  0
 60134  1  0  0  0
 61135  1  0  0  0
 61136  1  0  0  0
 61137  1  0  0  0
 62138  1  0  0  0
 62139  1  0  0  0
 62140  1  0  0  0
 63 65  1  0  0  0
 63141  1  0  0  0
 63142  1  0  0  0
 63143  1  0  0  0
 64144  1  0  0  0
 65145  1  0  0  0
 68 80  1  0  0  0
 71 73  2  0  0  0
 71 84  1  0  0  0
 71146  1  0  0  0
 72 74  1  0  0  0
 72 83  2  0  0  0
 72147  1  0  0  0
 73 78  1  0  0  0
 73 83  1  0  0  0
 74 84  2  0  0  0
 74 86  1  0  0  0
 75 79  1  0  0  0
 75148  1  0  0  0
 75149  1  0  0  0
 75150  1  0  0  0
 76151  1  0  0  0
 76152  1  0  0  0
 76153  1  0  0  0
 76 81  1  0  0  0
 77 81  1  0  0  0
 77154  1  0  0  0
 77155  1  0  0  0
 77156  1  0  0  0
 78 85  1  0  0  0
 78157  1  0  0  0
 78158  1  0  0  0
 79 86  1  0  0  0
 79159  1  0  0  0
 79160  1  0  0  0
 80161  1  0  0  0
 80162  1  0  0  0
 80 82  1  0  0  0
 81 82  1  0  0  0
 81163  1  0  0  0
 82 86  1  0  0  0
 82164  1  0  0  0
 85165  1  0  0  0
M  ISO  4   1 100  68 101  80 101  85 100
M  END
> <chiral flag>
0

> <version>
0

> <s_m_source_file>
/data/baiqing/PycharmProjects/Reinvent-master-3.2/result/LINK_invent/BTK/process_docking_weight1_custom_sum_contain_oxygen_bond_distance_aromatic_linkinvent_7_9_3/rearranged_h_0050.sdf

> <i_m_source_file_index>
25

> <r_mmod_Potential_Energy-OPLS-2005>
142.885330200195

> <r_mmod_Stretch_Energy-OPLS-2005>
98.4575042724609

> <r_mmod_Bend_Energy-OPLS-2005>
171.681533813477

> <r_mmod_Torsional_Energy-OPLS-2005>
224.102188110352

> <r_mmod_Improper_Torsional_Energy-OPLS-2005>
5.4439582824707

> <r_mmod_Van_der_Waal_Energy-OPLS-2005>
170.490447998047

> <r_mmod_Electrostatic_Energy-OPLS-2005>
-376.528442382812

> <r_mmod_Solvation_Energy-OPLS-2005>
-218.644195556641

> <b_mmod_Minimization_Converged-OPLS-2005>
0

> <r_mmod_RMS_Derivative-OPLS-2005>
3.08060002326965

$$$$
25
                    3D
 Structure written by MMmdl.
165173  0  0  1  0            999 V2000
  -30.6721  -14.6969   20.4846 C   0  0  0  0  0  0
  -30.4138  -12.4290   19.4789 C   0  0  0  0  0  0
  -29.5022  -12.5106   18.2378 C   0  0  0  0  0  0
  -28.0266  -12.3546   18.6481 C   0  0  0  0  0  0
  -27.6411  -13.2443   19.8621 C   0  0  2  0  0  0
  -28.6864  -13.1785   20.9976 C   0  0  0  0  0  0
  -25.2474  -13.8191   20.5742 C   0  0  0  0  0  0
  -24.1788  -13.0398   20.9184 C   0  0  0  0  0  0
  -24.6427  -11.6901   20.8732 C   0  0  0  0  0  0
  -23.9125  -10.4275   21.0401 C   0  0  0  0  0  0
  -24.3654   -9.4189   21.9193 C   0  0  0  0  0  0
  -23.6301   -8.2242   22.0761 C   0  0  0  0  0  0
  -22.4276   -8.0305   21.3564 C   0  0  0  0  0  0
  -21.9935   -9.0280   20.4657 C   0  0  0  0  0  0
  -22.7290  -10.2135   20.3063 C   0  0  0  0  0  0
  -21.6860   -6.0760   22.5301 C   0  0  0  0  0  0
  -21.4015   -6.5648   23.8242 C   0  0  0  0  0  0
  -21.3644   -5.6790   24.9197 C   0  0  0  0  0  0
  -21.6041   -4.3061   24.7245 C   0  0  0  0  0  0
  -21.8806   -3.8171   23.4364 C   0  0  0  0  0  0
  -21.9176   -4.6984   22.3418 C   0  0  0  0  0  0
  -22.7807  -13.5168   21.1845 C   0  0  0  0  0  0
  -22.1615   -4.2171   21.0988 F   0  0  0  0  0  0
  -21.5637   -3.4526   25.7751 F   0  0  0  0  0  0
  -29.9900  -13.5037   20.4090 N   0  0  0  0  0  0
  -26.2960  -12.9459   20.3393 N   0  0  0  0  0  0
  -25.9372  -11.6575   20.5799 N   0  0  0  0  0  0
  -22.0482  -12.8167   22.0423 N   0  0  0  0  0  0
  -25.4062  -15.1917   20.4278 N   0  0  0  0  0  0
  -31.8456  -14.7422   20.0999 O   0  0  0  0  0  0
  -21.6640   -6.8909   21.4269 O   0  0  0  0  0  0
  -22.3454  -14.5446   20.6680 O   0  0  0  0  0  0
  -24.6299  -31.8541   23.2005 C   0  0  0  0  0  0
  -25.9128  -32.4748   23.8355 C   0  0  1  0  0  0
  -27.2132  -27.2791   20.1346 C   0  0  0  0  0  0
  -25.5925  -33.8556   24.2273 N   0  0  0  0  0  0
  -23.4286  -30.4768   21.5438 C   0  0  2  0  0  0
  -24.8734  -28.9277   20.1103 C   0  0  0  0  0  0
  -22.7499  -29.4591   22.4931 C   0  0  0  0  0  0
  -18.0275  -28.1399   22.8455 C   0  0  0  0  0  0
  -24.1486  -36.7275   23.2648 C   0  0  0  0  0  0
  -25.9710  -30.7799   21.3704 C   0  0  0  0  0  0
  -26.0448  -29.4021   20.7147 C   0  0  0  0  0  0
  -27.2231  -28.5912   20.7116 C   0  0  0  0  0  0
  -26.0245  -26.8694   19.4974 C   0  0  0  0  0  0
  -24.8656  -27.6694   19.4888 C   0  0  0  0  0  0
  -23.6424  -29.8125   20.1593 C   0  0  0  0  0  0
  -25.4116  -36.3064   24.0328 C   0  0  1  0  0  0
  -20.5876  -28.3698   23.1255 C   0  0  2  0  0  0
  -20.6781  -26.9420   22.5404 C   0  0  0  0  0  0
  -19.5758  -26.6390   21.5203 C   0  0  0  0  0  0
  -18.1925  -26.7940   22.1599 C   0  0  0  0  0  0
  -19.1527  -28.8865   23.2856 C   0  0  0  0  0  0
  -18.9458  -30.1463   23.8881 C   0  0  0  0  0  0
  -17.6463  -30.6602   24.0549 C   0  0  0  0  0  0
  -25.9042  -34.9435   23.5103 C   0  0  0  0  0  0
  -16.5344  -29.9098   23.6339 C   0  0  0  0  0  0
  -16.7267  -28.6515   23.0358 C   0  0  0  0  0  0
  -26.4514  -31.6570   25.0734 C   0  0  0  0  0  0
  -25.3745  -31.3646   26.1441 C   0  0  0  0  0  0
  -27.0378  -30.3008   24.6179 C   0  0  0  0  0  0
  -27.6075  -32.4301   25.7486 C   0  0  0  0  0  0
  -27.5575  -37.1797   24.8471 C   0  0  0  0  0  0
  -21.4208  -29.3026   22.3659 N   0  0  0  0  0  0
  -26.4294  -37.3766   23.9409 N   0  0  0  0  0  0
  -24.6965  -31.0532   22.0959 N   0  0  0  0  0  0
  -23.4188  -28.8115   23.3040 O   0  0  0  0  0  0
  -28.2932  -26.3773   20.1683 O   0  0  0  0  0  0
  -26.5639  -34.8908   22.4684 O   0  0  0  0  0  0
  -23.5446  -32.1343   23.7288 O   0  0  0  0  0  0
  -29.4346  -17.5916   22.6609 C   0  0  0  0  0  0
  -29.5588  -18.9937   21.9686 C   0  0  0  0  0  0
  -29.2064  -18.2321   19.5824 C   0  0  0  0  0  0
  -30.2722  -16.3846   22.1378 C   0  0  0  0  0  0
  -30.2713  -17.0685   19.8457 C   0  0  0  0  0  0
  -28.6877  -19.2552   20.7008 C   0  0  2  0  0  0
  -26.7730  -22.1839   21.2088 C   0  0  0  0  0  0
  -28.7895  -20.8210   20.1701 C   0  0  0  0  0  0
  -28.5679  -23.6242   20.1333 C   0  0  0  0  0  0
  -28.0397  -25.0235   20.7651 C   0  0  0  0  0  0
  -28.2800  -22.2040   20.8881 C   0  0  1  0  0  0
  -27.1999  -18.8498   20.9903 C   0  0  0  0  0  0
  -30.0073  -15.8959   20.7653 N   0  0  0  0  0  0
  -26.8065  -19.2351   22.2037 F   0  0  0  0  0  0
  -26.3813  -19.3681   20.0745 F   0  0  0  0  0  0
  -27.0232  -17.5281   20.9512 F   0  0  0  0  0  0
  -31.4592  -12.5139   19.1795 H   0  0  0  0  0  0
  -30.3233  -11.4544   19.9599 H   0  0  0  0  0  0
  -29.7734  -11.7426   17.5130 H   0  0  0  0  0  0
  -29.6485  -13.4696   17.7377 H   0  0  0  0  0  0
  -27.8562  -11.3033   18.8835 H   0  0  0  0  0  0
  -27.3795  -12.5826   17.8013 H   0  0  0  0  0  0
  -27.6344  -14.2715   19.4957 H   0  0  0  0  0  0
  -28.7062  -12.1860   21.4512 H   0  0  0  0  0  0
  -28.4323  -13.8804   21.7941 H   0  0  0  0  0  0
  -25.2790   -9.5650   22.4781 H   0  0  0  0  0  0
  -23.9993   -7.4610   22.7454 H   0  0  0  0  0  0
  -21.0877   -8.8820   19.8939 H   0  0  0  0  0  0
  -22.3765  -10.9689   19.6180 H   0  0  0  0  0  0
  -21.2007   -7.6157   23.9752 H   0  0  0  0  0  0
  -21.1459   -6.0534   25.9096 H   0  0  0  0  0  0
  -22.0596   -2.7640   23.2883 H   0  0  0  0  0  0
  -22.4105  -11.9838   22.4825 H   0  0  0  0  0  0
  -21.1118  -13.1230   22.2615 H   0  0  0  0  0  0
  -24.6421  -15.8381   20.5883 H   0  0  0  0  0  0
  -26.2932  -15.6654   20.3039 H   0  0  0  0  0  0
  -26.7188  -32.5405   23.1093 H   0  0  0  0  0  0
  -25.0137  -33.9704   25.0458 H   0  0  0  0  0  0
  -22.7256  -31.2991   21.3959 H   0  0  0  0  0  0
  -23.3752  -35.9604   23.3307 H   0  0  0  0  0  0
  -24.3583  -36.8914   22.2065 H   0  0  0  0  0  0
  -23.7224  -37.6472   23.6672 H   0  0  0  0  0  0
  -26.1033  -31.5391   20.5985 H   0  0  0  0  0  0
  -26.8534  -30.8316   21.9979 H   0  0  0  0  0  0
  -28.1250  -28.9482   21.1878 H   0  0  0  0  0  0
  -25.9821  -25.9021   19.0182 H   0  0  0  0  0  0
  -23.9670  -27.2982   19.0173 H   0  0  0  0  0  0
  -23.7660  -30.5890   19.4032 H   0  0  0  0  0  0
  -22.7612  -29.2450   19.8549 H   0  0  0  0  0  0
  -25.1289  -36.1947   25.0823 H   0  0  0  0  0  0
  -20.9946  -28.3287   24.1387 H   0  0  0  0  0  0
  -20.5689  -26.2310   23.3624 H   0  0  0  0  0  0
  -21.6654  -26.7479   22.1185 H   0  0  0  0  0  0
  -19.6948  -25.6305   21.1250 H   0  0  0  0  0  0
  -19.6707  -27.3188   20.6726 H   0  0  0  0  0  0
  -17.4211  -26.6661   21.3997 H   0  0  0  0  0  0
  -18.0321  -26.0099   22.9005 H   0  0  0  0  0  0
  -19.7938  -30.7269   24.2246 H   0  0  0  0  0  0
  -17.5020  -31.6267   24.5174 H   0  0  0  0  0  0
  -15.5354  -30.2996   23.7687 H   0  0  0  0  0  0
  -15.8653  -28.0831   22.7105 H   0  0  0  0  0  0
  -24.5989  -30.6923   25.7746 H   0  0  0  0  0  0
  -24.8848  -32.2760   26.4861 H   0  0  0  0  0  0
  -25.8094  -30.8847   27.0217 H   0  0  0  0  0  0
  -26.2965  -29.6710   24.1246 H   0  0  0  0  0  0
  -27.4139  -29.7294   25.4674 H   0  0  0  0  0  0
  -27.8786  -30.4305   23.9368 H   0  0  0  0  0  0
  -27.2749  -33.3646   26.1999 H   0  0  0  0  0  0
  -28.3924  -32.6778   25.0331 H   0  0  0  0  0  0
  -28.0697  -31.8460   26.5451 H   0  0  0  0  0  0
  -28.2585  -38.0101   24.7548 H   0  0  0  0  0  0
  -28.1094  -36.2640   24.6287 H   0  0  0  0  0  0
  -27.2298  -37.1438   25.8877 H   0  0  0  0  0  0
  -20.9419  -29.8737   21.6831 H   0  0  0  0  0  0
  -26.0173  -38.2841   24.1425 H   0  0  0  0  0  0
  -28.3978  -17.2901   22.7948 H   0  0  0  0  0  0
  -29.7776  -17.7465   23.6854 H   0  0  0  0  0  0
  -30.6057  -19.2059   21.7541 H   0  0  0  0  0  0
  -29.2714  -19.7409   22.7086 H   0  0  0  0  0  0
  -28.3558  -17.8007   19.0512 H   0  0  0  0  0  0
  -29.6681  -18.8452   18.8074 H   0  0  0  0  0  0
  -30.1078  -15.5594   22.8350 H   0  0  0  0  0  0
  -31.3342  -16.6225   22.2366 H   0  0  0  0  0  0
  -31.2241  -17.5278   20.1174 H   0  0  0  0  0  0
  -30.4707  -16.6485   18.8563 H   0  0  0  0  0  0
  -26.4784  -21.3727   21.8542 H   0  0  0  0  0  0
  -26.1661  -22.1381   20.3048 H   0  0  0  0  0  0
  -26.4682  -23.0628   21.7711 H   0  0  0  0  0  0
  -28.3212  -20.8246   19.1853 H   0  0  0  0  0  0
  -29.8466  -20.9799   19.9584 H   0  0  0  0  0  0
  -29.6458  -23.7106   19.9941 H   0  0  0  0  0  0
  -28.1538  -23.5550   19.1280 H   0  0  0  0  0  0
  -28.4508  -25.0799   21.7726 H   0  0  0  0  0  0
  -26.9674  -24.9331   20.9223 H   0  0  0  0  0  0
  -28.8035  -22.2561   21.8447 H   0  0  0  0  0  0
  1 25  1  0  0  0
  1 30  2  0  0  0
  1 83  1  0  0  0
  2  3  1  0  0  0
  2 25  1  0  0  0
  2 87  1  0  0  0
  2 88  1  0  0  0
  3  4  1  0  0  0
  3 89  1  0  0  0
  3 90  1  0  0  0
  4  5  1  0  0  0
  4 91  1  0  0  0
  4 92  1  0  0  0
  5  6  1  0  0  0
  5 26  1  0  0  0
  5 93  1  0  0  0
  6 25  1  0  0  0
  6 94  1  0  0  0
  6 95  1  0  0  0
  7  8  2  0  0  0
  7 26  1  0  0  0
  7 29  1  0  0  0
  8  9  1  0  0  0
  8 22  1  0  0  0
  9 10  1  0  0  0
  9 27  2  0  0  0
 10 11  2  0  0  0
 10 15  1  0  0  0
 11 12  1  0  0  0
 11 96  1  0  0  0
 12 13  2  0  0  0
 12 97  1  0  0  0
 13 14  1  0  0  0
 13 31  1  0  0  0
 14 15  2  0  0  0
 14 98  1  0  0  0
 15 99  1  0  0  0
 16 17  2  0  0  0
 16 21  1  0  0  0
 16 31  1  0  0  0
 17 18  1  0  0  0
 17100  1  0  0  0
 18 19  2  0  0  0
 18101  1  0  0  0
 19 20  1  0  0  0
 19 24  1  0  0  0
 20 21  2  0  0  0
 20102  1  0  0  0
 21 23  1  0  0  0
 22 28  1  0  0  0
 22 32  2  0  0  0
 26 27  1  0  0  0
 28103  1  0  0  0
 28104  1  0  0  0
 29105  1  0  0  0
 29106  1  0  0  0
 33 34  1  0  0  0
 33 66  1  0  0  0
 33 70  2  0  0  0
 34 36  1  0  0  0
 34 59  1  0  0  0
 34107  1  0  0  0
 35 44  2  0  0  0
 35 45  1  0  0  0
 35 68  1  0  0  0
 36 56  1  0  0  0
 36108  1  0  0  0
 37 39  1  0  0  0
 37 47  1  0  0  0
 37 66  1  0  0  0
 37109  1  0  0  0
 38 43  2  0  0  0
 38 46  1  0  0  0
 38 47  1  0  0  0
 39 64  1  0  0  0
 39 67  2  0  0  0
 40 52  1  0  0  0
 40 53  2  0  0  0
 40 58  1  0  0  0
 41110  1  0  0  0
 41111  1  0  0  0
 41112  1  0  0  0
 41 48  1  0  0  0
 42 43  1  0  0  0
 42 66  1  0  0  0
 42113  1  0  0  0
 42114  1  0  0  0
 43 44  1  0  0  0
 44115  1  0  0  0
 45 46  2  0  0  0
 45116  1  0  0  0
 46117  1  0  0  0
 47118  1  0  0  0
 47119  1  0  0  0
 48 56  1  0  0  0
 48 65  1  0  0  0
 48120  1  0  0  0
 49 50  1  0  0  0
 49 53  1  0  0  0
 49 64  1  0  0  0
 49121  1  0  0  0
 50 51  1  0  0  0
 50122  1  0  0  0
 50123  1  0  0  0
 51 52  1  0  0  0
 51124  1  0  0  0
 51125  1  0  0  0
 52126  1  0  0  0
 52127  1  0  0  0
 53 54  1  0  0  0
 54 55  2  0  0  0
 54128  1  0  0  0
 55 57  1  0  0  0
 55129  1  0  0  0
 56 69  2  0  0  0
 57 58  2  0  0  0
 57130  1  0  0  0
 58131  1  0  0  0
 59 60  1  0  0  0
 59 61  1  0  0  0
 59 62  1  0  0  0
 60132  1  0  0  0
 60133  1  0  0  0
 60134  1  0  0  0
 61135  1  0  0  0
 61136  1  0  0  0
 61137  1  0  0  0
 62138  1  0  0  0
 62139  1  0  0  0
 62140  1  0  0  0
 63 65  1  0  0  0
 63141  1  0  0  0
 63142  1  0  0  0
 63143  1  0  0  0
 64144  1  0  0  0
 65145  1  0  0  0
 68 80  1  0  0  0
 71 72  1  0  0  0
 71 74  1  0  0  0
 71146  1  0  0  0
 71147  1  0  0  0
 72 76  1  0  0  0
 72148  1  0  0  0
 72149  1  0  0  0
 73 75  1  0  0  0
 73 76  1  0  0  0
 73150  1  0  0  0
 73151  1  0  0  0
 74 83  1  0  0  0
 74152  1  0  0  0
 74153  1  0  0  0
 75 83  1  0  0  0
 75154  1  0  0  0
 75155  1  0  0  0
 76 78  1  0  0  0
 76 82  1  0  0  0
 77156  1  0  0  0
 77157  1  0  0  0
 77158  1  0  0  0
 77 81  1  0  0  0
 78 81  1  0  0  0
 78159  1  0  0  0
 78160  1  0  0  0
 79 80  1  0  0  0
 79 81  1  0  0  0
 79161  1  0  0  0
 79162  1  0  0  0
 80163  1  0  0  0
 80164  1  0  0  0
 81165  1  0  0  0
 82 84  1  0  0  0
 82 85  1  0  0  0
 82 86  1  0  0  0
M  ISO  4   1 100  68 101  80 101  83 100
M  END
> <chiral flag>
0

> <version>
0

> <s_m_source_file>
/data/baiqing/PycharmProjects/Reinvent-master-3.2/result/LINK_invent/BTK/process_docking_weight1_custom_sum_contain_oxygen_bond_distance_aromatic_linkinvent_7_9_3/rearranged_h_0050.sdf

> <i_m_source_file_index>
26

> <r_mmod_Potential_Energy-OPLS-2005>
563.920104980469

> <r_mmod_Stretch_Energy-OPLS-2005>
138.942825317383

> <r_mmod_Bend_Energy-OPLS-2005>
237.358413696289

> <r_mmod_Torsional_Energy-OPLS-2005>
371.290313720703

> <r_mmod_Improper_Torsional_Energy-OPLS-2005>
10.7559585571289

> <r_mmod_Van_der_Waal_Energy-OPLS-2005>
143.955993652344

> <r_mmod_Electrostatic_Energy-OPLS-2005>
-237.204727172852

> <r_mmod_Solvation_Energy-OPLS-2005>
-172.999816894531

> <b_mmod_Minimization_Converged-OPLS-2005>
0

> <r_mmod_RMS_Derivative-OPLS-2005>
2.94994759559631

$$$$
26
                    3D
 Structure written by MMmdl.
177185  0  0  1  0            999 V2000
  -30.6808  -14.4987   20.5160 C   0  0  0  0  0  0
  -30.4218  -12.2941   19.4442 C   0  0  0  0  0  0
  -29.5101  -12.4778   18.2108 C   0  0  0  0  0  0
  -28.0227  -12.3482   18.6100 C   0  0  0  0  0  0
  -27.6567  -13.2010   19.8545 C   0  0  2  0  0  0
  -28.6956  -13.0252   20.9832 C   0  0  0  0  0  0
  -25.2622  -13.8153   20.5623 C   0  0  0  0  0  0
  -24.1862  -13.0473   20.9142 C   0  0  0  0  0  0
  -24.6382  -11.6920   20.8697 C   0  0  0  0  0  0
  -23.9039  -10.4333   21.0422 C   0  0  0  0  0  0
  -24.3596   -9.4270   21.9214 C   0  0  0  0  0  0
  -23.6316   -8.2269   22.0783 C   0  0  0  0  0  0
  -22.4311   -8.0272   21.3574 C   0  0  0  0  0  0
  -21.9935   -9.0240   20.4675 C   0  0  0  0  0  0
  -22.7207  -10.2148   20.3099 C   0  0  0  0  0  0
  -21.6866   -6.0727   22.5278 C   0  0  0  0  0  0
  -21.3990   -6.5634   23.8197 C   0  0  0  0  0  0
  -21.3650   -5.6798   24.9167 C   0  0  0  0  0  0
  -21.6060   -4.3066   24.7231 C   0  0  0  0  0  0
  -21.8850   -3.8151   23.4352 C   0  0  0  0  0  0
  -21.9221   -4.6959   22.3402 C   0  0  0  0  0  0
  -22.7883  -13.5277   21.1807 C   0  0  0  0  0  0
  -22.1710   -4.2150   21.0990 F   0  0  0  0  0  0
  -21.5649   -3.4552   25.7745 F   0  0  0  0  0  0
  -30.0244  -13.3086   20.4307 N   0  0  0  0  0  0
  -26.3013  -12.9295   20.3220 N   0  0  0  0  0  0
  -25.9312  -11.6477   20.5654 N   0  0  0  0  0  0
  -22.0499  -12.8267   22.0335 N   0  0  0  0  0  0
  -25.4504  -15.1859   20.4009 N   0  0  0  0  0  0
  -31.8547  -14.6039   20.1499 O   0  0  0  0  0  0
  -21.6712   -6.8855   21.4238 O   0  0  0  0  0  0
  -22.3575  -14.5616   20.6696 O   0  0  0  0  0  0
  -24.6060  -31.8748   23.2134 C   0  0  0  0  0  0
  -25.8950  -32.4874   23.8443 C   0  0  1  0  0  0
  -27.2386  -27.4699   20.0769 C   0  0  0  0  0  0
  -25.5893  -33.8681   24.2387 N   0  0  0  0  0  0
  -23.3973  -30.4896   21.5552 C   0  0  2  0  0  0
  -24.8485  -28.9692   20.1078 C   0  0  0  0  0  0
  -22.7377  -29.4654   22.5045 C   0  0  0  0  0  0
  -18.0231  -28.1416   22.8486 C   0  0  0  0  0  0
  -24.1504  -36.7266   23.2646 C   0  0  0  0  0  0
  -25.9221  -30.8464   21.3651 C   0  0  0  0  0  0
  -26.0065  -29.4857   20.7044 C   0  0  0  0  0  0
  -27.2073  -28.7433   20.6915 C   0  0  0  0  0  0
  -26.0650  -26.9552   19.4988 C   0  0  0  0  0  0
  -24.8712  -27.6998   19.5015 C   0  0  0  0  0  0
  -23.6005  -29.8183   20.1711 C   0  0  0  0  0  0
  -25.4143  -36.3143   24.0353 C   0  0  1  0  0  0
  -20.5808  -28.3694   23.1346 C   0  0  2  0  0  0
  -20.6760  -26.9431   22.5431 C   0  0  0  0  0  0
  -19.5715  -26.6406   21.5239 C   0  0  0  0  0  0
  -18.1884  -26.7973   22.1610 C   0  0  0  0  0  0
  -19.1483  -28.8870   23.2895 C   0  0  0  0  0  0
  -18.9423  -30.1504   23.8856 C   0  0  0  0  0  0
  -17.6438  -30.6626   24.0561 C   0  0  0  0  0  0
  -25.9051  -34.9512   23.5148 C   0  0  0  0  0  0
  -16.5315  -29.9115   23.6386 C   0  0  0  0  0  0
  -16.7231  -28.6546   23.0368 C   0  0  0  0  0  0
  -26.4401  -31.6650   25.0754 C   0  0  0  0  0  0
  -25.3699  -31.3761   26.1533 C   0  0  0  0  0  0
  -27.0254  -30.3127   24.6070 C   0  0  0  0  0  0
  -27.5947  -32.4441   25.7493 C   0  0  0  0  0  0
  -27.5615  -37.1808   24.8487 C   0  0  0  0  0  0
  -21.4124  -29.3019   22.3744 N   0  0  0  0  0  0
  -26.4360  -37.3813   23.9410 N   0  0  0  0  0  0
  -24.6590  -31.0864   22.1033 N   0  0  0  0  0  0
  -23.4155  -28.8208   23.3085 O   0  0  0  0  0  0
  -28.3516  -26.6676   20.0840 O   0  0  0  0  0  0
  -26.5586  -34.8963   22.4697 O   0  0  0  0  0  0
  -23.5247  -32.1478   23.7546 O   0  0  0  0  0  0
  -31.2742  -19.0255   21.0407 C   0  0  0  0  0  0
  -29.0964  -19.2955   20.0386 C   0  0  0  0  0  0
  -30.1761  -18.4417   20.3694 C   0  0  0  0  0  0
  -31.2641  -20.4035   21.3299 C   0  0  0  0  0  0
  -29.1762  -20.6725   20.3554 C   0  0  0  0  0  0
  -33.5794  -21.4070   20.9739 C   0  0  0  0  0  0
  -29.5653  -16.7845   18.5125 C   0  0  0  0  0  0
  -30.0824  -16.1529   22.3625 C   0  0  0  0  0  0
  -32.4606  -21.0856   21.9739 C   0  0  0  0  0  0
  -28.0776  -21.6613   19.9783 C   0  0  0  0  0  0
  -28.3800  -22.5273   18.7251 C   0  0  0  0  0  0
  -29.3878  -26.8730   17.8784 C   0  0  0  0  0  0
  -29.5910  -23.5002   18.8629 C   0  0  0  0  0  0
  -28.8891  -25.4700   17.4339 C   0  0  0  0  0  0
  -29.5020  -27.1354   19.3948 C   0  0  0  0  0  0
  -30.2731  -16.9829   19.8691 C   0  0  2  0  0  0
  -29.9207  -15.8165   20.8703 C   0  0  1  0  0  0
  -30.2365  -21.2089   20.9938 N   0  0  0  0  0  0
  -29.8327  -24.3491   17.6675 N   0  3  0  0  0  0
  -31.4721  -12.3733   19.1561 H   0  0  0  0  0  0
  -30.3022  -11.2945   19.8675 H   0  0  0  0  0  0
  -29.7569  -11.7438   17.4449 H   0  0  0  0  0  0
  -29.6937  -13.4535   17.7597 H   0  0  0  0  0  0
  -27.8233  -11.2944   18.8017 H   0  0  0  0  0  0
  -27.3874  -12.6227   17.7680 H   0  0  0  0  0  0
  -27.6816  -14.2379   19.5203 H   0  0  0  0  0  0
  -28.6769  -12.0069   21.3730 H   0  0  0  0  0  0
  -28.4631  -13.6658   21.8334 H   0  0  0  0  0  0
  -25.2735   -9.5769   22.4786 H   0  0  0  0  0  0
  -24.0078   -7.4668   22.7472 H   0  0  0  0  0  0
  -21.0896   -8.8704   19.8949 H   0  0  0  0  0  0
  -22.3638  -10.9684   19.6214 H   0  0  0  0  0  0
  -21.1954   -7.6143   23.9651 H   0  0  0  0  0  0
  -21.1450   -6.0559   25.9046 H   0  0  0  0  0  0
  -22.0654   -2.7620   23.2863 H   0  0  0  0  0  0
  -22.4090  -11.9931   22.4758 H   0  0  0  0  0  0
  -21.1089  -13.1266   22.2450 H   0  0  0  0  0  0
  -24.7070  -15.8659   20.5023 H   0  0  0  0  0  0
  -26.3243  -15.6018   20.1090 H   0  0  0  0  0  0
  -26.7006  -32.5605   23.1205 H   0  0  0  0  0  0
  -25.0161  -33.9891   25.0600 H   0  0  0  0  0  0
  -22.6780  -31.2985   21.4152 H   0  0  0  0  0  0
  -23.3859  -35.9509   23.3334 H   0  0  0  0  0  0
  -24.3551  -36.8853   22.2047 H   0  0  0  0  0  0
  -23.7181  -37.6454   23.6622 H   0  0  0  0  0  0
  -26.0346  -31.6217   20.6058 H   0  0  0  0  0  0
  -26.8081  -30.8902   21.9899 H   0  0  0  0  0  0
  -28.0945  -29.1338   21.1671 H   0  0  0  0  0  0
  -26.0691  -25.9707   19.0509 H   0  0  0  0  0  0
  -23.9772  -27.2910   19.0507 H   0  0  0  0  0  0
  -23.6722  -30.5883   19.3998 H   0  0  0  0  0  0
  -22.7371  -29.2101   19.9017 H   0  0  0  0  0  0
  -25.1326  -36.2014   25.0853 H   0  0  0  0  0  0
  -20.9837  -28.3275   24.1501 H   0  0  0  0  0  0
  -20.5744  -26.2281   23.3610 H   0  0  0  0  0  0
  -21.6636  -26.7555   22.1153 H   0  0  0  0  0  0
  -19.6893  -25.6324   21.1266 H   0  0  0  0  0  0
  -19.6699  -27.3236   20.6773 H   0  0  0  0  0  0
  -17.4183  -26.6745   21.3986 H   0  0  0  0  0  0
  -18.0241  -26.0132   22.8991 H   0  0  0  0  0  0
  -19.7889  -30.7362   24.2163 H   0  0  0  0  0  0
  -17.4980  -31.6304   24.5178 H   0  0  0  0  0  0
  -15.5312  -30.3000   23.7785 H   0  0  0  0  0  0
  -15.8607  -28.0890   22.7083 H   0  0  0  0  0  0
  -24.5824  -30.7148   25.7896 H   0  0  0  0  0  0
  -24.8939  -32.2939   26.5017 H   0  0  0  0  0  0
  -25.8084  -30.8915   27.0263 H   0  0  0  0  0  0
  -26.2809  -29.6932   24.1084 H   0  0  0  0  0  0
  -27.4044  -29.7289   25.4455 H   0  0  0  0  0  0
  -27.8594  -30.4522   23.9199 H   0  0  0  0  0  0
  -27.2511  -33.3748   26.2032 H   0  0  0  0  0  0
  -28.3738  -32.7060   25.0316 H   0  0  0  0  0  0
  -28.0638  -31.8652   26.5461 H   0  0  0  0  0  0
  -28.2656  -38.0087   24.7568 H   0  0  0  0  0  0
  -28.1097  -36.2630   24.6307 H   0  0  0  0  0  0
  -27.2294  -37.1438   25.8880 H   0  0  0  0  0  0
  -20.9312  -29.8696   21.6910 H   0  0  0  0  0  0
  -26.0258  -38.2901   24.1410 H   0  0  0  0  0  0
  -32.1435  -18.4305   21.2915 H   0  0  0  0  0  0
  -28.2354  -18.9109   19.5093 H   0  0  0  0  0  0
  -34.3742  -21.9695   21.4648 H   0  0  0  0  0  0
  -33.2146  -22.0041   20.1386 H   0  0  0  0  0  0
  -34.0184  -20.4948   20.5653 H   0  0  0  0  0  0
  -29.8967  -17.5331   17.7928 H   0  0  0  0  0  0
  -28.4808  -16.8579   18.6023 H   0  0  0  0  0  0
  -29.7892  -15.8089   18.0808 H   0  0  0  0  0  0
  -29.3772  -16.9305   22.6529 H   0  0  0  0  0  0
  -31.0838  -16.5058   22.6059 H   0  0  0  0  0  0
  -29.8703  -15.2776   22.9811 H   0  0  0  0  0  0
  -32.8472  -20.4470   22.7646 H   0  0  0  0  0  0
  -32.1330  -22.0072   22.4553 H   0  0  0  0  0  0
  -27.8859  -22.3120   20.8314 H   0  0  0  0  0  0
  -27.1496  -21.1077   19.8247 H   0  0  0  0  0  0
  -27.4759  -23.0922   18.4934 H   0  0  0  0  0  0
  -28.5318  -21.8586   17.8775 H   0  0  0  0  0  0
  -28.6895  -27.6040   17.4722 H   0  0  0  0  0  0
  -30.3449  -27.1053   17.4062 H   0  0  0  0  0  0
  -30.5055  -22.9210   19.0065 H   0  0  0  0  0  0
  -29.4918  -24.1328   19.7454 H   0  0  0  0  0  0
  -28.7349  -25.5096   16.3545 H   0  0  0  0  0  0
  -27.9082  -25.2473   17.8505 H   0  0  0  0  0  0
  -29.6799  -28.1926   19.5910 H   0  0  0  0  0  0
  -30.3668  -26.6054   19.7958 H   0  0  0  0  0  0
  -31.3341  -16.9063   19.6335 H   0  0  0  0  0  0
  -28.8541  -15.6544   20.7403 H   0  0  0  0  0  0
  -29.7946  -23.7472   16.8605 H   0  0  0  0  0  0
  -30.7705  -24.7156   17.6982 H   0  0  0  0  0  0
  1 25  1  0  0  0
  1 30  2  0  0  0
  1 87  1  0  0  0
  2  3  1  0  0  0
  2 25  1  0  0  0
  2 90  1  0  0  0
  2 91  1  0  0  0
  3  4  1  0  0  0
  3 92  1  0  0  0
  3 93  1  0  0  0
  4  5  1  0  0  0
  4 94  1  0  0  0
  4 95  1  0  0  0
  5  6  1  0  0  0
  5 26  1  0  0  0
  5 96  1  0  0  0
  6 25  1  0  0  0
  6 97  1  0  0  0
  6 98  1  0  0  0
  7  8  2  0  0  0
  7 26  1  0  0  0
  7 29  1  0  0  0
  8  9  1  0  0  0
  8 22  1  0  0  0
  9 10  1  0  0  0
  9 27  2  0  0  0
 10 11  2  0  0  0
 10 15  1  0  0  0
 11 12  1  0  0  0
 11 99  1  0  0  0
 12 13  2  0  0  0
 12100  1  0  0  0
 13 14  1  0  0  0
 13 31  1  0  0  0
 14 15  2  0  0  0
 14101  1  0  0  0
 15102  1  0  0  0
 16 17  2  0  0  0
 16 21  1  0  0  0
 16 31  1  0  0  0
 17 18  1  0  0  0
 17103  1  0  0  0
 18 19  2  0  0  0
 18104  1  0  0  0
 19 20  1  0  0  0
 19 24  1  0  0  0
 20 21  2  0  0  0
 20105  1  0  0  0
 21 23  1  0  0  0
 22 28  1  0  0  0
 22 32  2  0  0  0
 26 27  1  0  0  0
 28106  1  0  0  0
 28107  1  0  0  0
 29108  1  0  0  0
 29109  1  0  0  0
 33 34  1  0  0  0
 33 66  1  0  0  0
 33 70  2  0  0  0
 34 36  1  0  0  0
 34 59  1  0  0  0
 34110  1  0  0  0
 35 44  2  0  0  0
 35 45  1  0  0  0
 35 68  1  0  0  0
 36 56  1  0  0  0
 36111  1  0  0  0
 37 39  1  0  0  0
 37 47  1  0  0  0
 37 66  1  0  0  0
 37112  1  0  0  0
 38 43  2  0  0  0
 38 46  1  0  0  0
 38 47  1  0  0  0
 39 64  1  0  0  0
 39 67  2  0  0  0
 40 52  1  0  0  0
 40 53  2  0  0  0
 40 58  1  0  0  0
 41113  1  0  0  0
 41114  1  0  0  0
 41115  1  0  0  0
 41 48  1  0  0  0
 42 43  1  0  0  0
 42 66  1  0  0  0
 42116  1  0  0  0
 42117  1  0  0  0
 43 44  1  0  0  0
 44118  1  0  0  0
 45 46  2  0  0  0
 45119  1  0  0  0
 46120  1  0  0  0
 47121  1  0  0  0
 47122  1  0  0  0
 48 56  1  0  0  0
 48 65  1  0  0  0
 48123  1  0  0  0
 49 50  1  0  0  0
 49 53  1  0  0  0
 49 64  1  0  0  0
 49124  1  0  0  0
 50 51  1  0  0  0
 50125  1  0  0  0
 50126  1  0  0  0
 51 52  1  0  0  0
 51127  1  0  0  0
 51128  1  0  0  0
 52129  1  0  0  0
 52130  1  0  0  0
 53 54  1  0  0  0
 54 55  2  0  0  0
 54131  1  0  0  0
 55 57  1  0  0  0
 55132  1  0  0  0
 56 69  2  0  0  0
 57 58  2  0  0  0
 57133  1  0  0  0
 58134  1  0  0  0
 59 60  1  0  0  0
 59 61  1  0  0  0
 59 62  1  0  0  0
 60135  1  0  0  0
 60136  1  0  0  0
 60137  1  0  0  0
 61138  1  0  0  0
 61139  1  0  0  0
 61140  1  0  0  0
 62141  1  0  0  0
 62142  1  0  0  0
 62143  1  0  0  0
 63 65  1  0  0  0
 63144  1  0  0  0
 63145  1  0  0  0
 63146  1  0  0  0
 64147  1  0  0  0
 65148  1  0  0  0
 68 85  1  0  0  0
 71 73  2  0  0  0
 71 74  1  0  0  0
 71149  1  0  0  0
 72 73  1  0  0  0
 72 75  2  0  0  0
 72150  1  0  0  0
 73 86  1  0  0  0
 74 79  1  0  0  0
 74 88  2  0  0  0
 75 80  1  0  0  0
 75 88  1  0  0  0
 76 79  1  0  0  0
 76151  1  0  0  0
 76152  1  0  0  0
 76153  1  0  0  0
 77154  1  0  0  0
 77155  1  0  0  0
 77156  1  0  0  0
 77 86  1  0  0  0
 78157  1  0  0  0
 78158  1  0  0  0
 78159  1  0  0  0
 78 87  1  0  0  0
 79160  1  0  0  0
 79161  1  0  0  0
 80 81  1  0  0  0
 80162  1  0  0  0
 80163  1  0  0  0
 81 83  1  0  0  0
 81164  1  0  0  0
 81165  1  0  0  0
 82 84  1  0  0  0
 82 85  1  0  0  0
 82166  1  0  0  0
 82167  1  0  0  0
 83 89  1  0  0  0
 83168  1  0  0  0
 83169  1  0  0  0
 84 89  1  0  0  0
 84170  1  0  0  0
 84171  1  0  0  0
 85172  1  0  0  0
 85173  1  0  0  0
 86 87  1  0  0  0
 86174  1  0  0  0
 87175  1  0  0  0
 89176  1  0  0  0
 89177  1  0  0  0
M  CHG  1  89   1
M  ISO  4   1 100  68 101  85 101  87 100
M  END
> <chiral flag>
0

> <version>
0

> <s_m_source_file>
/data/baiqing/PycharmProjects/Reinvent-master-3.2/result/LINK_invent/BTK/process_docking_weight1_custom_sum_contain_oxygen_bond_distance_aromatic_linkinvent_7_9_3/rearranged_h_0050.sdf

> <i_m_source_file_index>
27

> <r_mmod_Potential_Energy-OPLS-2005>
-378.306762695312

> <r_mmod_Stretch_Energy-OPLS-2005>
40.5023422241211

> <r_mmod_Bend_Energy-OPLS-2005>
114.261444091797

> <r_mmod_Torsional_Energy-OPLS-2005>
211.07453918457

> <r_mmod_Improper_Torsional_Energy-OPLS-2005>
5.17194080352783

> <r_mmod_Van_der_Waal_Energy-OPLS-2005>
139.057052612305

> <r_mmod_Electrostatic_Energy-OPLS-2005>
-480.839019775391

> <r_mmod_Solvation_Energy-OPLS-2005>
-424.893432617188

> <b_mmod_Minimization_Converged-OPLS-2005>
0

> <r_mmod_RMS_Derivative-OPLS-2005>
5.74752140045166

$$$$
27
                    3D
 Structure written by MMmdl.
170178  0  0  1  0            999 V2000
  -30.6588  -14.4394   20.5733 C   0  0  0  0  0  0
  -30.4552  -12.2850   19.4093 C   0  0  0  0  0  0
  -29.5231  -12.5161   18.1996 C   0  0  0  0  0  0
  -28.0343  -12.3780   18.6015 C   0  0  0  0  0  0
  -27.6817  -13.1862   19.8826 C   0  0  2  0  0  0
  -28.7163  -12.9020   20.9951 C   0  0  0  0  0  0
  -25.2700  -13.8109   20.5621 C   0  0  0  0  0  0
  -24.1905  -13.0412   20.9097 C   0  0  0  0  0  0
  -24.6429  -11.6879   20.8669 C   0  0  0  0  0  0
  -23.9084  -10.4285   21.0347 C   0  0  0  0  0  0
  -24.3619   -9.4214   21.9140 C   0  0  0  0  0  0
  -23.6296   -8.2263   22.0748 C   0  0  0  0  0  0
  -22.4293   -8.0281   21.3533 C   0  0  0  0  0  0
  -21.9902   -9.0263   20.4645 C   0  0  0  0  0  0
  -22.7243  -10.2122   20.3034 C   0  0  0  0  0  0
  -21.6872   -6.0737   22.5270 C   0  0  0  0  0  0
  -21.4021   -6.5627   23.8193 C   0  0  0  0  0  0
  -21.3676   -5.6765   24.9138 C   0  0  0  0  0  0
  -21.6023   -4.3028   24.7209 C   0  0  0  0  0  0
  -21.8835   -3.8143   23.4331 C   0  0  0  0  0  0
  -21.9208   -4.6969   22.3383 C   0  0  0  0  0  0
  -22.7916  -13.5249   21.1745 C   0  0  0  0  0  0
  -22.1675   -4.2141   21.0978 F   0  0  0  0  0  0
  -21.5643   -3.4526   25.7737 F   0  0  0  0  0  0
  -30.0515  -13.2318   20.4573 N   0  0  0  0  0  0
  -26.3137  -12.9235   20.3299 N   0  0  0  0  0  0
  -25.9354  -11.6419   20.5674 N   0  0  0  0  0  0
  -22.0513  -12.8317   22.0302 N   0  0  0  0  0  0
  -25.4387  -15.1806   20.4050 N   0  0  0  0  0  0
  -31.7637  -14.7034   20.0920 O   0  0  0  0  0  0
  -21.6656   -6.8882   21.4229 O   0  0  0  0  0  0
  -22.3629  -14.5583   20.6592 O   0  0  0  0  0  0
  -24.6153  -31.8697   23.2084 C   0  0  0  0  0  0
  -25.9083  -32.4817   23.8352 C   0  0  1  0  0  0
  -27.2398  -27.4465   20.1031 C   0  0  0  0  0  0
  -25.5994  -33.8607   24.2384 N   0  0  0  0  0  0
  -23.4018  -30.4893   21.5493 C   0  0  2  0  0  0
  -24.8537  -28.9577   20.1119 C   0  0  0  0  0  0
  -22.7400  -29.4645   22.4981 C   0  0  0  0  0  0
  -18.0255  -28.1379   22.8487 C   0  0  0  0  0  0
  -24.1463  -36.7234   23.2596 C   0  0  0  0  0  0
  -25.9207  -30.8329   21.3661 C   0  0  0  0  0  0
  -26.0030  -29.4627   20.7262 C   0  0  0  0  0  0
  -27.1986  -28.7085   20.7351 C   0  0  0  0  0  0
  -26.0771  -26.9557   19.4722 C   0  0  0  0  0  0
  -24.8814  -27.6941   19.4882 C   0  0  0  0  0  0
  -23.6144  -29.8205   20.1605 C   0  0  0  0  0  0
  -25.4078  -36.3066   24.0334 C   0  0  1  0  0  0
  -20.5870  -28.3658   23.1331 C   0  0  2  0  0  0
  -20.6793  -26.9408   22.5425 C   0  0  0  0  0  0
  -19.5752  -26.6392   21.5229 C   0  0  0  0  0  0
  -18.1925  -26.7925   22.1632 C   0  0  0  0  0  0
  -19.1525  -28.8847   23.2910 C   0  0  0  0  0  0
  -18.9438  -30.1472   23.8906 C   0  0  0  0  0  0
  -17.6460  -30.6603   24.0562 C   0  0  0  0  0  0
  -25.9010  -34.9455   23.5114 C   0  0  0  0  0  0
  -16.5340  -29.9109   23.6322 C   0  0  0  0  0  0
  -16.7262  -28.6514   23.0340 C   0  0  0  0  0  0
  -26.4566  -31.6540   25.0615 C   0  0  0  0  0  0
  -25.3846  -31.3699   26.1398 C   0  0  0  0  0  0
  -27.0377  -30.2987   24.5909 C   0  0  0  0  0  0
  -27.6197  -32.4205   25.7408 C   0  0  0  0  0  0
  -27.5579  -37.1770   24.8450 C   0  0  0  0  0  0
  -21.4145  -29.3015   22.3719 N   0  0  0  0  0  0
  -26.4247  -37.3777   23.9439 N   0  0  0  0  0  0
  -24.6627  -31.0768   22.1016 N   0  0  0  0  0  0
  -23.4166  -28.8215   23.3076 O   0  0  0  0  0  0
  -28.3963  -26.7118   20.0438 O   0  0  0  0  0  0
  -26.5478  -34.8915   22.4627 O   0  0  0  0  0  0
  -23.5356  -32.1531   23.7443 O   0  0  0  0  0  0
  -26.7454  -24.1493   21.2661 C   0  0  0  0  0  0
  -28.9349  -23.3605   20.6104 C   0  0  0  0  0  0
  -28.0962  -24.4344   20.9942 C   0  0  0  0  0  0
  -26.2900  -22.8250   21.1642 C   0  0  0  0  0  0
  -28.3975  -22.0535   20.5493 C   0  0  0  0  0  0
  -24.8524  -22.4612   21.4703 C   0  0  0  0  0  0
  -30.5476  -19.2079   17.0282 C   0  0  0  0  0  0
  -27.8887  -20.5186   18.1123 C   0  0  0  0  0  0
  -28.6390  -25.8574   21.1624 C   0  0  0  0  0  0
  -29.2512  -20.8269   20.2080 C   0  0  0  0  0  0
  -28.7649  -17.3290   19.9930 C   0  0  0  0  0  0
  -29.1878  -17.8238   18.5957 C   0  0  0  0  0  0
  -29.9373  -16.8357   20.8799 C   0  0  0  0  0  0
  -29.9790  -19.1607   18.4626 C   0  0  2  0  0  0
  -27.0967  -21.8009   20.8203 N   0  0  0  0  0  0
  -29.8598  -15.3885   21.0902 N   0  0  0  0  0  0
  -29.2167  -20.4173   18.7689 N   0  3  1  0  0  0
  -31.5019  -12.4049   19.1176 H   0  0  0  0  0  0
  -30.3696  -11.2622   19.7817 H   0  0  0  0  0  0
  -29.7762  -11.8212   17.3973 H   0  0  0  0  0  0
  -29.7032  -13.5123   17.7910 H   0  0  0  0  0  0
  -27.8190  -11.3215   18.7606 H   0  0  0  0  0  0
  -27.3986  -12.6834   17.7686 H   0  0  0  0  0  0
  -27.7521  -14.2393   19.6196 H   0  0  0  0  0  0
  -28.6806  -11.8468   21.2651 H   0  0  0  0  0  0
  -28.4772  -13.4369   21.9149 H   0  0  0  0  0  0
  -25.2756   -9.5717   22.4696 H   0  0  0  0  0  0
  -23.9991   -7.4696   22.7518 H   0  0  0  0  0  0
  -21.0797   -8.8815   19.9000 H   0  0  0  0  0  0
  -22.3695  -10.9658   19.6162 H   0  0  0  0  0  0
  -21.2005   -7.6136   23.9690 H   0  0  0  0  0  0
  -21.1478   -6.0487   25.9032 H   0  0  0  0  0  0
  -22.0614   -2.7622   23.2821 H   0  0  0  0  0  0
  -22.4117  -12.0008   22.4760 H   0  0  0  0  0  0
  -21.1132  -13.1372   22.2520 H   0  0  0  0  0  0
  -24.6624  -15.8226   20.5238 H   0  0  0  0  0  0
  -26.2698  -15.6274   20.0434 H   0  0  0  0  0  0
  -26.7151  -32.5602   23.1100 H   0  0  0  0  0  0
  -25.0382  -33.9759   25.0701 H   0  0  0  0  0  0
  -22.6881  -31.3037   21.4092 H   0  0  0  0  0  0
  -23.3731  -35.9559   23.3230 H   0  0  0  0  0  0
  -24.3497  -36.8814   22.1998 H   0  0  0  0  0  0
  -23.7266  -37.6452   23.6611 H   0  0  0  0  0  0
  -26.0184  -31.5935   20.5933 H   0  0  0  0  0  0
  -26.8138  -30.9034   21.9764 H   0  0  0  0  0  0
  -28.0855  -29.0966   21.2257 H   0  0  0  0  0  0
  -26.1115  -26.0044   18.9640 H   0  0  0  0  0  0
  -24.0018  -27.2939   19.0024 H   0  0  0  0  0  0
  -23.7248  -30.5977   19.4013 H   0  0  0  0  0  0
  -22.7381  -29.2373   19.8659 H   0  0  0  0  0  0
  -25.1280  -36.1860   25.0829 H   0  0  0  0  0  0
  -21.0000  -28.3246   24.1439 H   0  0  0  0  0  0
  -20.5710  -26.2238   23.3586 H   0  0  0  0  0  0
  -21.6660  -26.7447   22.1222 H   0  0  0  0  0  0
  -19.6885  -25.6304   21.1234 H   0  0  0  0  0  0
  -19.6758  -27.3203   20.6777 H   0  0  0  0  0  0
  -17.4248  -26.6675   21.4006 H   0  0  0  0  0  0
  -18.0290  -26.0083   22.9048 H   0  0  0  0  0  0
  -19.7917  -30.7279   24.2284 H   0  0  0  0  0  0
  -17.5003  -31.6269   24.5171 H   0  0  0  0  0  0
  -15.5344  -30.3015   23.7644 H   0  0  0  0  0  0
  -15.8631  -28.0837   22.7064 H   0  0  0  0  0  0
  -24.6032  -30.6999   25.7791 H   0  0  0  0  0  0
  -24.9025  -32.2857   26.4795 H   0  0  0  0  0  0
  -25.8201  -30.8966   27.0193 H   0  0  0  0  0  0
  -26.2892  -29.6776   24.0965 H   0  0  0  0  0  0
  -27.4179  -29.7209   25.4335 H   0  0  0  0  0  0
  -27.8725  -30.4267   23.9029 H   0  0  0  0  0  0
  -27.2868  -33.3480   26.2067 H   0  0  0  0  0  0
  -28.4039  -32.6742   25.0262 H   0  0  0  0  0  0
  -28.0836  -31.8231   26.5262 H   0  0  0  0  0  0
  -28.2616  -38.0059   24.7545 H   0  0  0  0  0  0
  -28.1093  -36.2605   24.6272 H   0  0  0  0  0  0
  -27.2250  -37.1411   25.8830 H   0  0  0  0  0  0
  -20.9289  -29.8756   21.6967 H   0  0  0  0  0  0
  -26.0097  -38.2828   24.1520 H   0  0  0  0  0  0
  -26.0743  -24.9387   21.5727 H   0  0  0  0  0  0
  -29.9821  -23.5313   20.4063 H   0  0  0  0  0  0
  -24.3600  -23.2503   22.0393 H   0  0  0  0  0  0
  -24.8256  -21.5472   22.0647 H   0  0  0  0  0  0
  -24.2850  -22.2984   20.5533 H   0  0  0  0  0  0
  -31.2838  -18.4145   16.8755 H   0  0  0  0  0  0
  -31.0454  -20.1501   16.7992 H   0  0  0  0  0  0
  -29.7667  -19.0541   16.2818 H   0  0  0  0  0  0
  -27.5737  -21.5614   18.0604 H   0  0  0  0  0  0
  -27.1214  -19.9609   18.6515 H   0  0  0  0  0  0
  -27.9156  -20.1533   17.0850 H   0  0  0  0  0  0
  -29.7188  -25.8103   21.3170 H   0  0  0  0  0  0
  -28.2280  -26.2998   22.0740 H   0  0  0  0  0  0
  -28.9370  -20.0085   20.8495 H   0  0  0  0  0  0
  -30.2805  -21.0197   20.5071 H   0  0  0  0  0  0
  -28.0659  -16.5093   19.8352 H   0  0  0  0  0  0
  -28.1499  -18.0636   20.5087 H   0  0  0  0  0  0
  -28.3239  -17.8364   17.9334 H   0  0  0  0  0  0
  -29.8158  -17.0326   18.1856 H   0  0  0  0  0  0
  -29.8882  -17.3276   21.8521 H   0  0  0  0  0  0
  -30.8939  -17.1190   20.4393 H   0  0  0  0  0  0
  -30.8390  -19.1364   19.1300 H   0  0  0  0  0  0
  -28.9935  -15.0434   21.4793 H   0  0  0  0  0  0
  -29.7567  -21.1510   18.3289 H   0  0  0  0  0  0
  1 25  1  0  0  0
  1 30  2  0  0  0
  1 86  1  0  0  0
  2  3  1  0  0  0
  2 25  1  0  0  0
  2 88  1  0  0  0
  2 89  1  0  0  0
  3  4  1  0  0  0
  3 90  1  0  0  0
  3 91  1  0  0  0
  4  5  1  0  0  0
  4 92  1  0  0  0
  4 93  1  0  0  0
  5  6  1  0  0  0
  5 26  1  0  0  0
  5 94  1  0  0  0
  6 25  1  0  0  0
  6 95  1  0  0  0
  6 96  1  0  0  0
  7  8  2  0  0  0
  7 26  1  0  0  0
  7 29  1  0  0  0
  8  9  1  0  0  0
  8 22  1  0  0  0
  9 10  1  0  0  0
  9 27  2  0  0  0
 10 11  2  0  0  0
 10 15  1  0  0  0
 11 12  1  0  0  0
 11 97  1  0  0  0
 12 13  2  0  0  0
 12 98  1  0  0  0
 13 14  1  0  0  0
 13 31  1  0  0  0
 14 15  2  0  0  0
 14 99  1  0  0  0
 15100  1  0  0  0
 16 17  2  0  0  0
 16 21  1  0  0  0
 16 31  1  0  0  0
 17 18  1  0  0  0
 17101  1  0  0  0
 18 19  2  0  0  0
 18102  1  0  0  0
 19 20  1  0  0  0
 19 24  1  0  0  0
 20 21  2  0  0  0
 20103  1  0  0  0
 21 23  1  0  0  0
 22 28  1  0  0  0
 22 32  2  0  0  0
 26 27  1  0  0  0
 28104  1  0  0  0
 28105  1  0  0  0
 29106  1  0  0  0
 29107  1  0  0  0
 33 34  1  0  0  0
 33 66  1  0  0  0
 33 70  2  0  0  0
 34 36  1  0  0  0
 34 59  1  0  0  0
 34108  1  0  0  0
 35 44  2  0  0  0
 35 45  1  0  0  0
 35 68  1  0  0  0
 36 56  1  0  0  0
 36109  1  0  0  0
 37 39  1  0  0  0
 37 47  1  0  0  0
 37 66  1  0  0  0
 37110  1  0  0  0
 38 43  2  0  0  0
 38 46  1  0  0  0
 38 47  1  0  0  0
 39 64  1  0  0  0
 39 67  2  0  0  0
 40 52  1  0  0  0
 40 53  2  0  0  0
 40 58  1  0  0  0
 41111  1  0  0  0
 41112  1  0  0  0
 41113  1  0  0  0
 41 48  1  0  0  0
 42 43  1  0  0  0
 42 66  1  0  0  0
 42114  1  0  0  0
 42115  1  0  0  0
 43 44  1  0  0  0
 44116  1  0  0  0
 45 46  2  0  0  0
 45117  1  0  0  0
 46118  1  0  0  0
 47119  1  0  0  0
 47120  1  0  0  0
 48 56  1  0  0  0
 48 65  1  0  0  0
 48121  1  0  0  0
 49 50  1  0  0  0
 49 53  1  0  0  0
 49 64  1  0  0  0
 49122  1  0  0  0
 50 51  1  0  0  0
 50123  1  0  0  0
 50124  1  0  0  0
 51 52  1  0  0  0
 51125  1  0  0  0
 51126  1  0  0  0
 52127  1  0  0  0
 52128  1  0  0  0
 53 54  1  0  0  0
 54 55  2  0  0  0
 54129  1  0  0  0
 55 57  1  0  0  0
 55130  1  0  0  0
 56 69  2  0  0  0
 57 58  2  0  0  0
 57131  1  0  0  0
 58132  1  0  0  0
 59 60  1  0  0  0
 59 61  1  0  0  0
 59 62  1  0  0  0
 60133  1  0  0  0
 60134  1  0  0  0
 60135  1  0  0  0
 61136  1  0  0  0
 61137  1  0  0  0
 61138  1  0  0  0
 62139  1  0  0  0
 62140  1  0  0  0
 62141  1  0  0  0
 63 65  1  0  0  0
 63142  1  0  0  0
 63143  1  0  0  0
 63144  1  0  0  0
 64145  1  0  0  0
 65146  1  0  0  0
 68 79  1  0  0  0
 71 73  2  0  0  0
 71 74  1  0  0  0
 71147  1  0  0  0
 72 73  1  0  0  0
 72 75  2  0  0  0
 72148  1  0  0  0
 73 79  1  0  0  0
 74 76  1  0  0  0
 74 85  2  0  0  0
 75 80  1  0  0  0
 75 85  1  0  0  0
 76149  1  0  0  0
 76150  1  0  0  0
 76151  1  0  0  0
 77152  1  0  0  0
 77153  1  0  0  0
 77154  1  0  0  0
 77 84  1  0  0  0
 78155  1  0  0  0
 78156  1  0  0  0
 78157  1  0  0  0
 78 87  1  0  0  0
 79158  1  0  0  0
 79159  1  0  0  0
 80 87  1  0  0  0
 80160  1  0  0  0
 80161  1  0  0  0
 81 82  1  0  0  0
 81 83  1  0  0  0
 81162  1  0  0  0
 81163  1  0  0  0
 82 84  1  0  0  0
 82164  1  0  0  0
 82165  1  0  0  0
 83 86  1  0  0  0
 83166  1  0  0  0
 83167  1  0  0  0
 84 87  1  0  0  0
 84168  1  0  0  0
 86169  1  0  0  0
 87170  1  0  0  0
M  CHG  1  87   1
M  ISO  4   1 100  68 101  79 101  86 100
M  END
> <chiral flag>
0

> <version>
0

> <s_m_source_file>
/data/baiqing/PycharmProjects/Reinvent-master-3.2/result/LINK_invent/BTK/process_docking_weight1_custom_sum_contain_oxygen_bond_distance_aromatic_linkinvent_7_9_3/rearranged_h_0050.sdf

> <i_m_source_file_index>
28

> <r_mmod_Potential_Energy-OPLS-2005>
-340.46044921875

> <r_mmod_Stretch_Energy-OPLS-2005>
37.8670921325684

> <r_mmod_Bend_Energy-OPLS-2005>
109.620109558105

> <r_mmod_Torsional_Energy-OPLS-2005>
269.751647949219

> <r_mmod_Improper_Torsional_Energy-OPLS-2005>
5.43751811981201

> <r_mmod_Van_der_Waal_Energy-OPLS-2005>
148.289093017578

> <r_mmod_Electrostatic_Energy-OPLS-2005>
-491.055236816406

> <r_mmod_Solvation_Energy-OPLS-2005>
-431.50048828125

> <b_mmod_Minimization_Converged-OPLS-2005>
0

> <r_mmod_RMS_Derivative-OPLS-2005>
7.44472312927246

$$$$
28
                    3D
 Structure written by MMmdl.
151159  0  0  1  0            999 V2000
  -30.4671  -14.9734   20.4015 C   0  0  0  0  0  0
  -30.4295  -12.6032   19.4862 C   0  0  0  0  0  0
  -29.5114  -12.5781   18.2369 C   0  0  0  0  0  0
  -28.0322  -12.3736   18.6252 C   0  0  0  0  0  0
  -27.6157  -13.2585   19.8271 C   0  0  2  0  0  0
  -28.6550  -13.2602   20.9632 C   0  0  0  0  0  0
  -25.2377  -13.8196   20.5693 C   0  0  0  0  0  0
  -24.1715  -13.0412   20.9180 C   0  0  0  0  0  0
  -24.6372  -11.6898   20.8721 C   0  0  0  0  0  0
  -23.9063  -10.4272   21.0413 C   0  0  0  0  0  0
  -24.3636   -9.4191   21.9177 C   0  0  0  0  0  0
  -23.6308   -8.2227   22.0729 C   0  0  0  0  0  0
  -22.4287   -8.0253   21.3524 C   0  0  0  0  0  0
  -21.9924   -9.0225   20.4628 C   0  0  0  0  0  0
  -22.7249  -10.2101   20.3035 C   0  0  0  0  0  0
  -21.6842   -6.0721   22.5252 C   0  0  0  0  0  0
  -21.4041   -6.5626   23.8192 C   0  0  0  0  0  0
  -21.3674   -5.6777   24.9158 C   0  0  0  0  0  0
  -21.6071   -4.3051   24.7218 C   0  0  0  0  0  0
  -21.8816   -3.8129   23.4332 C   0  0  0  0  0  0
  -21.9200   -4.6936   22.3397 C   0  0  0  0  0  0
  -22.7750  -13.5161   21.1891 C   0  0  0  0  0  0
  -22.1667   -4.2125   21.0980 F   0  0  0  0  0  0
  -21.5643   -3.4545   25.7745 F   0  0  0  0  0  0
  -29.9393  -13.6823   20.3895 N   0  0  0  0  0  0
  -26.2814  -12.9444   20.3164 N   0  0  0  0  0  0
  -25.9311  -11.6569   20.5648 N   0  0  0  0  0  0
  -22.0501  -12.8139   22.0525 N   0  0  0  0  0  0
  -25.4048  -15.1921   20.4221 N   0  0  0  0  0  0
  -31.6670  -15.0798   20.1162 O   0  0  0  0  0  0
  -21.6646   -6.8859   21.4211 O   0  0  0  0  0  0
  -22.3436  -14.5466   20.6741 O   0  0  0  0  0  0
  -24.6450  -31.8428   23.1959 C   0  0  0  0  0  0
  -25.9210  -32.4695   23.8382 C   0  0  1  0  0  0
  -27.2502  -27.1386   20.1752 C   0  0  0  0  0  0
  -25.5968  -33.8528   24.2291 N   0  0  0  0  0  0
  -23.4511  -30.4640   21.5312 C   0  0  2  0  0  0
  -24.9135  -28.8884   20.1104 C   0  0  0  0  0  0
  -22.7556  -29.4572   22.4800 C   0  0  0  0  0  0
  -18.0320  -28.1422   22.8466 C   0  0  0  0  0  0
  -24.1487  -36.7271   23.2624 C   0  0  0  0  0  0
  -26.0090  -30.7145   21.4044 C   0  0  0  0  0  0
  -26.0820  -29.3254   20.7484 C   0  0  0  0  0  0
  -27.2408  -28.4626   20.7739 C   0  0  0  0  0  0
  -26.0608  -26.8098   19.4796 C   0  0  0  0  0  0
  -24.9180  -27.6425   19.4634 C   0  0  0  0  0  0
  -23.6866  -29.7900   20.1518 C   0  0  0  0  0  0
  -25.4110  -36.3048   24.0322 C   0  0  1  0  0  0
  -20.5934  -28.3789   23.1212 C   0  0  2  0  0  0
  -20.6824  -26.9482   22.5409 C   0  0  0  0  0  0
  -19.5792  -26.6395   21.5215 C   0  0  0  0  0  0
  -18.1963  -26.7951   22.1622 C   0  0  0  0  0  0
  -19.1571  -28.8898   23.2845 C   0  0  0  0  0  0
  -18.9466  -30.1498   23.8894 C   0  0  0  0  0  0
  -17.6458  -30.6610   24.0566 C   0  0  0  0  0  0
  -25.9061  -34.9412   23.5097 C   0  0  0  0  0  0
  -16.5361  -29.9094   23.6340 C   0  0  0  0  0  0
  -16.7300  -28.6505   23.0358 C   0  0  0  0  0  0
  -26.4539  -31.6564   25.0842 C   0  0  0  0  0  0
  -25.3729  -31.3779   26.1532 C   0  0  0  0  0  0
  -27.0401  -30.2937   24.6475 C   0  0  0  0  0  0
  -27.6050  -32.4342   25.7630 C   0  0  0  0  0  0
  -27.5582  -37.1804   24.8460 C   0  0  0  0  0  0
  -21.4243  -29.3092   22.3532 N   0  0  0  0  0  0
  -26.4290  -37.3742   23.9399 N   0  0  0  0  0  0
  -24.7183  -31.0283   22.0986 N   0  0  0  0  0  0
  -23.4157  -28.8140   23.2970 O   0  0  0  0  0  0
  -28.3188  -26.1688   20.2904 O   0  0  0  0  0  0
  -26.5596  -34.8885   22.4665 O   0  0  0  0  0  0
  -23.5556  -32.1304   23.7196 O   0  0  0  0  0  0
  -28.8777  -19.0153   20.3912 C   0  0  0  0  0  0
  -30.9254  -18.5513   20.0349 C   0  0  0  0  0  0
  -29.4677  -20.2829   20.0933 C   0  0  0  0  0  0
  -29.2341  -22.0197   18.2220 C   0  0  0  0  0  0
  -29.5269  -16.3342   20.6444 C   0  0  0  0  0  0
  -29.0303  -23.2868   20.4418 C   0  0  0  0  0  0
  -28.1544  -24.6599   19.9396 C   0  0  0  0  0  0
  -28.8569  -21.7798   19.6986 C   0  0  2  0  0  0
  -30.8096  -19.9022   19.8792 N   0  0  0  0  0  0
  -29.8018  -17.8800   20.3556 N   0  0  0  0  0  0
  -31.4706  -12.7617   19.1950 H   0  0  0  0  0  0
  -30.4002  -11.6473   20.0073 H   0  0  0  0  0  0
  -29.8297  -11.7994   17.5421 H   0  0  0  0  0  0
  -29.6032  -13.5205   17.6918 H   0  0  0  0  0  0
  -27.8784  -11.3162   18.8473 H   0  0  0  0  0  0
  -27.3878  -12.5985   17.7710 H   0  0  0  0  0  0
  -27.5655  -14.2666   19.4184 H   0  0  0  0  0  0
  -28.7383  -12.2754   21.4199 H   0  0  0  0  0  0
  -28.3368  -13.9392   21.7574 H   0  0  0  0  0  0
  -25.2791   -9.5664   22.4729 H   0  0  0  0  0  0
  -24.0025   -7.4632   22.7441 H   0  0  0  0  0  0
  -21.0856   -8.8742   19.8951 H   0  0  0  0  0  0
  -22.3708  -10.9638   19.6133 H   0  0  0  0  0  0
  -21.2016   -7.6134   23.9669 H   0  0  0  0  0  0
  -21.1527   -6.0536   25.9062 H   0  0  0  0  0  0
  -22.0579   -2.7589   23.2836 H   0  0  0  0  0  0
  -22.4219  -11.9809   22.4862 H   0  0  0  0  0  0
  -21.1102  -13.1052   22.2783 H   0  0  0  0  0  0
  -24.6333  -15.8424   20.5214 H   0  0  0  0  0  0
  -26.2594  -15.6423   20.1293 H   0  0  0  0  0  0
  -26.7294  -32.5284   23.1112 H   0  0  0  0  0  0
  -25.0181  -33.9706   25.0474 H   0  0  0  0  0  0
  -22.7550  -31.2912   21.3750 H   0  0  0  0  0  0
  -23.3758  -35.9602   23.3284 H   0  0  0  0  0  0
  -24.3554  -36.8912   22.2041 H   0  0  0  0  0  0
  -23.7284  -37.6484   23.6661 H   0  0  0  0  0  0
  -26.1708  -31.4708   20.6343 H   0  0  0  0  0  0
  -26.8738  -30.7654   22.0559 H   0  0  0  0  0  0
  -28.1140  -28.7796   21.3267 H   0  0  0  0  0  0
  -25.9821  -25.8669   18.9604 H   0  0  0  0  0  0
  -24.0305  -27.2989   18.9493 H   0  0  0  0  0  0
  -23.8302  -30.5678   19.4022 H   0  0  0  0  0  0
  -22.8001  -29.2359   19.8360 H   0  0  0  0  0  0
  -25.1313  -36.1878   25.0823 H   0  0  0  0  0  0
  -21.0076  -28.3404   24.1306 H   0  0  0  0  0  0
  -20.5754  -26.2369   23.3632 H   0  0  0  0  0  0
  -21.6674  -26.7494   22.1185 H   0  0  0  0  0  0
  -19.6982  -25.6280   21.1295 H   0  0  0  0  0  0
  -19.6769  -27.3152   20.6709 H   0  0  0  0  0  0
  -17.4258  -26.6704   21.4026 H   0  0  0  0  0  0
  -18.0399  -26.0099   22.9029 H   0  0  0  0  0  0
  -19.7934  -30.7334   24.2264 H   0  0  0  0  0  0
  -17.5004  -31.6294   24.5177 H   0  0  0  0  0  0
  -15.5364  -30.3006   23.7667 H   0  0  0  0  0  0
  -15.8697  -28.0842   22.7093 H   0  0  0  0  0  0
  -24.5885  -30.7128   25.7888 H   0  0  0  0  0  0
  -24.8927  -32.2968   26.4890 H   0  0  0  0  0  0
  -25.8007  -30.9011   27.0363 H   0  0  0  0  0  0
  -26.3066  -29.6670   24.1370 H   0  0  0  0  0  0
  -27.3837  -29.7223   25.5117 H   0  0  0  0  0  0
  -27.9039  -30.4122   23.9938 H   0  0  0  0  0  0
  -27.2592  -33.3607   26.2210 H   0  0  0  0  0  0
  -28.3854  -32.6949   25.0486 H   0  0  0  0  0  0
  -28.0711  -31.8486   26.5549 H   0  0  0  0  0  0
  -28.2591  -38.0096   24.7456 H   0  0  0  0  0  0
  -28.1120  -36.2642   24.6359 H   0  0  0  0  0  0
  -27.2300  -37.1507   25.8860 H   0  0  0  0  0  0
  -20.9437  -29.8723   21.6660 H   0  0  0  0  0  0
  -26.0177  -38.2842   24.1343 H   0  0  0  0  0  0
  -27.8294  -18.8306   20.5913 H   0  0  0  0  0  0
  -31.8656  -18.0345   19.8864 H   0  0  0  0  0  0
  -30.3150  -22.1353   18.1148 H   0  0  0  0  0  0
  -28.7723  -22.9087   17.7960 H   0  0  0  0  0  0
  -28.9272  -21.1877   17.5921 H   0  0  0  0  0  0
  -29.2314  -16.2781   21.6901 H   0  0  0  0  0  0
  -28.6077  -16.1268   20.0976 H   0  0  0  0  0  0
  -30.0925  -23.5409   20.4121 H   0  0  0  0  0  0
  -28.8273  -23.1382   21.5047 H   0  0  0  0  0  0
  -27.1164  -24.4035   20.1510 H   0  0  0  0  0  0
  -28.2177  -24.6883   18.8533 H   0  0  0  0  0  0
  -27.7741  -21.6504   19.7148 H   0  0  0  0  0  0
  1 25  1  0  0  0
  1 30  2  0  0  0
  1 75  1  0  0  0
  2  3  1  0  0  0
  2 25  1  0  0  0
  2 81  1  0  0  0
  2 82  1  0  0  0
  3  4  1  0  0  0
  3 83  1  0  0  0
  3 84  1  0  0  0
  4  5  1  0  0  0
  4 85  1  0  0  0
  4 86  1  0  0  0
  5  6  1  0  0  0
  5 26  1  0  0  0
  5 87  1  0  0  0
  6 25  1  0  0  0
  6 88  1  0  0  0
  6 89  1  0  0  0
  7  8  2  0  0  0
  7 26  1  0  0  0
  7 29  1  0  0  0
  8  9  1  0  0  0
  8 22  1  0  0  0
  9 10  1  0  0  0
  9 27  2  0  0  0
 10 11  2  0  0  0
 10 15  1  0  0  0
 11 12  1  0  0  0
 11 90  1  0  0  0
 12 13  2  0  0  0
 12 91  1  0  0  0
 13 14  1  0  0  0
 13 31  1  0  0  0
 14 15  2  0  0  0
 14 92  1  0  0  0
 15 93  1  0  0  0
 16 17  2  0  0  0
 16 21  1  0  0  0
 16 31  1  0  0  0
 17 18  1  0  0  0
 17 94  1  0  0  0
 18 19  2  0  0  0
 18 95  1  0  0  0
 19 20  1  0  0  0
 19 24  1  0  0  0
 20 21  2  0  0  0
 20 96  1  0  0  0
 21 23  1  0  0  0
 22 28  1  0  0  0
 22 32  2  0  0  0
 26 27  1  0  0  0
 28 97  1  0  0  0
 28 98  1  0  0  0
 29 99  1  0  0  0
 29100  1  0  0  0
 33 34  1  0  0  0
 33 66  1  0  0  0
 33 70  2  0  0  0
 34 36  1  0  0  0
 34 59  1  0  0  0
 34101  1  0  0  0
 35 44  2  0  0  0
 35 45  1  0  0  0
 35 68  1  0  0  0
 36 56  1  0  0  0
 36102  1  0  0  0
 37 39  1  0  0  0
 37 47  1  0  0  0
 37 66  1  0  0  0
 37103  1  0  0  0
 38 43  2  0  0  0
 38 46  1  0  0  0
 38 47  1  0  0  0
 39 64  1  0  0  0
 39 67  2  0  0  0
 40 52  1  0  0  0
 40 53  2  0  0  0
 40 58  1  0  0  0
 41104  1  0  0  0
 41105  1  0  0  0
 41106  1  0  0  0
 41 48  1  0  0  0
 42 43  1  0  0  0
 42 66  1  0  0  0
 42107  1  0  0  0
 42108  1  0  0  0
 43 44  1  0  0  0
 44109  1  0  0  0
 45 46  2  0  0  0
 45110  1  0  0  0
 46111  1  0  0  0
 47112  1  0  0  0
 47113  1  0  0  0
 48 56  1  0  0  0
 48 65  1  0  0  0
 48114  1  0  0  0
 49 50  1  0  0  0
 49 53  1  0  0  0
 49 64  1  0  0  0
 49115  1  0  0  0
 50 51  1  0  0  0
 50116  1  0  0  0
 50117  1  0  0  0
 51 52  1  0  0  0
 51118  1  0  0  0
 51119  1  0  0  0
 52120  1  0  0  0
 52121  1  0  0  0
 53 54  1  0  0  0
 54 55  2  0  0  0
 54122  1  0  0  0
 55 57  1  0  0  0
 55123  1  0  0  0
 56 69  2  0  0  0
 57 58  2  0  0  0
 57124  1  0  0  0
 58125  1  0  0  0
 59 60  1  0  0  0
 59 61  1  0  0  0
 59 62  1  0  0  0
 60126  1  0  0  0
 60127  1  0  0  0
 60128  1  0  0  0
 61129  1  0  0  0
 61130  1  0  0  0
 61131  1  0  0  0
 62132  1  0  0  0
 62133  1  0  0  0
 62134  1  0  0  0
 63 65  1  0  0  0
 63135  1  0  0  0
 63136  1  0  0  0
 63137  1  0  0  0
 64138  1  0  0  0
 65139  1  0  0  0
 68 77  1  0  0  0
 71 73  2  0  0  0
 71 80  1  0  0  0
 71140  1  0  0  0
 72 79  2  0  0  0
 72 80  1  0  0  0
 72141  1  0  0  0
 73 78  1  0  0  0
 73 79  1  0  0  0
 74142  1  0  0  0
 74143  1  0  0  0
 74144  1  0  0  0
 74 78  1  0  0  0
 75 80  1  0  0  0
 75145  1  0  0  0
 75146  1  0  0  0
 76 77  1  0  0  0
 76 78  1  0  0  0
 76147  1  0  0  0
 76148  1  0  0  0
 77149  1  0  0  0
 77150  1  0  0  0
 78151  1  0  0  0
M  ISO  4   1 100  68 101  75 100  77 101
M  END
> <chiral flag>
0

> <version>
0

> <s_m_source_file>
/data/baiqing/PycharmProjects/Reinvent-master-3.2/result/LINK_invent/BTK/process_docking_weight1_custom_sum_contain_oxygen_bond_distance_aromatic_linkinvent_7_9_3/rearranged_h_0050.sdf

> <i_m_source_file_index>
29

> <r_mmod_Potential_Energy-OPLS-2005>
508.632598876953

> <r_mmod_Stretch_Energy-OPLS-2005>
276.141571044922

> <r_mmod_Bend_Energy-OPLS-2005>
290.638305664062

> <r_mmod_Torsional_Energy-OPLS-2005>
184.883560180664

> <r_mmod_Improper_Torsional_Energy-OPLS-2005>
4.42577743530273

> <r_mmod_Van_der_Waal_Energy-OPLS-2005>
110.792823791504

> <r_mmod_Electrostatic_Energy-OPLS-2005>
-341.90771484375

> <r_mmod_Solvation_Energy-OPLS-2005>
-222.790939331055

> <b_mmod_Minimization_Converged-OPLS-2005>
0

> <r_mmod_RMS_Derivative-OPLS-2005>
6.61100625991821

$$$$
29
                    3D
 Structure written by MMmdl.
144151  0  0  1  0            999 V2000
  -30.1967  -15.8742   20.3115 C   0  0  0  0  0  0
  -30.4120  -13.2434   19.5733 C   0  0  0  0  0  0
  -29.5662  -12.7292   18.3634 C   0  0  0  0  0  0
  -28.1553  -12.3191   18.8033 C   0  0  0  0  0  0
  -27.5910  -13.3381   19.8139 C   0  0  2  0  0  0
  -28.5836  -13.7597   20.9288 C   0  0  0  0  0  0
  -25.2294  -13.8337   20.5825 C   0  0  0  0  0  0
  -24.1708  -13.0446   20.9285 C   0  0  0  0  0  0
  -24.6448  -11.6966   20.8745 C   0  0  0  0  0  0
  -23.9155  -10.4300   21.0380 C   0  0  0  0  0  0
  -24.3679   -9.4213   21.9171 C   0  0  0  0  0  0
  -23.6331   -8.2257   22.0751 C   0  0  0  0  0  0
  -22.4308   -8.0297   21.3544 C   0  0  0  0  0  0
  -21.9962   -9.0274   20.4639 C   0  0  0  0  0  0
  -22.7315  -10.2140   20.3038 C   0  0  0  0  0  0
  -21.6865   -6.0749   22.5280 C   0  0  0  0  0  0
  -21.4024   -6.5647   23.8215 C   0  0  0  0  0  0
  -21.3663   -5.6797   24.9175 C   0  0  0  0  0  0
  -21.6042   -4.3058   24.7223 C   0  0  0  0  0  0
  -21.8820   -3.8153   23.4343 C   0  0  0  0  0  0
  -21.9198   -4.6974   22.3401 C   0  0  0  0  0  0
  -22.7712  -13.5147   21.1924 C   0  0  0  0  0  0
  -22.1664   -4.2159   21.0978 F   0  0  0  0  0  0
  -21.5627   -3.4540   25.7735 F   0  0  0  0  0  0
  -29.7435  -14.4471   20.2929 N   0  0  0  0  0  0
  -26.2771  -12.9725   20.3252 N   0  0  0  0  0  0
  -25.9405  -11.6761   20.5668 N   0  0  0  0  0  0
  -22.0394  -12.8107   22.0475 N   0  0  0  0  0  0
  -25.3874  -15.2088   20.4310 N   0  0  0  0  0  0
  -31.4186  -15.7727   20.0593 O   0  0  0  0  0  0
  -21.6657   -6.8900   21.4245 O   0  0  0  0  0  0
  -22.3372  -14.5444   20.6769 O   0  0  0  0  0  0
  -24.6992  -31.7801   23.1363 C   0  0  0  0  0  0
  -25.9493  -32.4370   23.7976 C   0  0  1  0  0  0
  -27.2378  -26.5329   20.2315 C   0  0  0  0  0  0
  -25.6002  -33.8204   24.1851 N   0  0  0  0  0  0
  -23.5343  -30.3735   21.4932 C   0  0  2  0  0  0
  -24.9956  -28.6788   20.1183 C   0  0  0  0  0  0
  -22.7839  -29.4211   22.4649 C   0  0  0  0  0  0
  -18.0353  -28.1434   22.8454 C   0  0  0  0  0  0
  -24.1496  -36.7107   23.2657 C   0  0  0  0  0  0
  -26.1206  -30.4565   21.4275 C   0  0  0  0  0  0
  -26.1845  -29.0023   20.7810 C   0  0  0  0  0  0
  -27.2782  -27.9609   20.8042 C   0  0  0  0  0  0
  -26.0182  -26.4647   19.4981 C   0  0  0  0  0  0
  -24.9621  -27.4386   19.4521 C   0  0  0  0  0  0
  -23.7980  -29.6534   20.1357 C   0  0  0  0  0  0
  -25.4154  -36.2839   24.0272 C   0  0  1  0  0  0
  -20.5996  -28.3805   23.1108 C   0  0  2  0  0  0
  -20.6811  -26.9446   22.5410 C   0  0  0  0  0  0
  -19.5789  -26.6369   21.5224 C   0  0  0  0  0  0
  -18.1970  -26.7961   22.1619 C   0  0  0  0  0  0
  -19.1623  -28.8947   23.2759 C   0  0  0  0  0  0
  -18.9524  -30.1523   23.8817 C   0  0  0  0  0  0
  -17.6511  -30.6613   24.0550 C   0  0  0  0  0  0
  -25.9144  -34.9234   23.4913 C   0  0  0  0  0  0
  -16.5400  -29.9093   23.6354 C   0  0  0  0  0  0
  -16.7331  -28.6513   23.0378 C   0  0  0  0  0  0
  -26.4622  -31.6477   25.0667 C   0  0  0  0  0  0
  -25.3641  -31.3835   26.1248 C   0  0  0  0  0  0
  -27.0580  -30.2797   24.6688 C   0  0  0  0  0  0
  -27.6045  -32.4375   25.7488 C   0  0  0  0  0  0
  -27.5560  -37.1709   24.8466 C   0  0  0  0  0  0
  -21.4469  -29.3014   22.3398 N   0  0  0  0  0  0
  -26.4265  -37.3619   23.9408 N   0  0  0  0  0  0
  -24.8100  -30.9077   22.0710 N   0  0  0  0  0  0
  -23.4202  -28.7841   23.3076 O   0  0  0  0  0  0
  -28.1774  -25.2394   20.3579 O   0  0  0  0  0  0
  -26.5809  -34.8846   22.4547 O   0  0  0  0  0  0
  -23.5974  -32.0952   23.6209 O   0  0  0  0  0  0
  -29.9562  -17.9236   22.0842 C   0  0  0  0  0  0
  -28.8119  -21.5428   20.5782 C   0  0  0  0  0  0
  -29.2174  -19.6042   20.0252 C   0  0  0  0  0  0
  -28.1951  -23.4200   20.0106 C   0  0  0  0  0  0
  -29.4477  -17.6665   20.6580 C   0  0  1  0  0  0
  -31.3968  -13.5195   19.1965 H   0  0  0  0  0  0
  -30.6077  -12.4299   20.2743 H   0  0  0  0  0  0
  -30.0660  -11.8934   17.8716 H   0  0  0  0  0  0
  -29.4950  -13.5254   17.6209 H   0  0  0  0  0  0
  -28.2195  -11.3374   19.2743 H   0  0  0  0  0  0
  -27.4944  -12.2109   17.9424 H   0  0  0  0  0  0
  -27.4278  -14.2330   19.2114 H   0  0  0  0  0  0
  -28.8792  -12.9128   21.5500 H   0  0  0  0  0  0
  -28.1010  -14.4699   21.6017 H   0  0  0  0  0  0
  -25.2820   -9.5684   22.4757 H   0  0  0  0  0  0
  -24.0031   -7.4651   22.7478 H   0  0  0  0  0  0
  -21.0893   -8.8806   19.8943 H   0  0  0  0  0  0
  -22.3780  -10.9681   19.6146 H   0  0  0  0  0  0
  -21.2018   -7.6156   23.9721 H   0  0  0  0  0  0
  -21.1481   -6.0525   25.9080 H   0  0  0  0  0  0
  -22.0594   -2.7615   23.2840 H   0  0  0  0  0  0
  -22.4057  -11.9786   22.4858 H   0  0  0  0  0  0
  -21.0995  -13.1080   22.2680 H   0  0  0  0  0  0
  -24.6189  -15.8592   20.5536 H   0  0  0  0  0  0
  -26.2392  -15.6569   20.1184 H   0  0  0  0  0  0
  -26.7590  -32.4803   23.0694 H   0  0  0  0  0  0
  -25.0037  -33.9214   24.9931 H   0  0  0  0  0  0
  -22.8701  -31.2156   21.2877 H   0  0  0  0  0  0
  -23.3788  -35.9404   23.3250 H   0  0  0  0  0  0
  -24.3559  -36.8848   22.2085 H   0  0  0  0  0  0
  -23.7228  -37.6249   23.6793 H   0  0  0  0  0  0
  -26.3410  -31.1697   20.6321 H   0  0  0  0  0  0
  -26.9656  -30.5319   22.0991 H   0  0  0  0  0  0
  -28.1638  -28.2178   21.3682 H   0  0  0  0  0  0
  -25.8259  -25.5354   18.9805 H   0  0  0  0  0  0
  -24.0705  -27.1799   18.8980 H   0  0  0  0  0  0
  -23.9834  -30.4059   19.3686 H   0  0  0  0  0  0
  -22.9001  -29.1260   19.8095 H   0  0  0  0  0  0
  -25.1371  -36.1578   25.0761 H   0  0  0  0  0  0
  -21.0084  -28.3453   24.1233 H   0  0  0  0  0  0
  -20.5667  -26.2432   23.3689 H   0  0  0  0  0  0
  -21.6668  -26.7364   22.1232 H   0  0  0  0  0  0
  -19.6941  -25.6257   21.1311 H   0  0  0  0  0  0
  -19.6740  -27.3131   20.6717 H   0  0  0  0  0  0
  -17.4243  -26.6716   21.4017 H   0  0  0  0  0  0
  -18.0344  -26.0121   22.9029 H   0  0  0  0  0  0
  -19.7998  -30.7360   24.2155 H   0  0  0  0  0  0
  -17.5061  -31.6286   24.5166 H   0  0  0  0  0  0
  -15.5397  -30.2971   23.7722 H   0  0  0  0  0  0
  -15.8732  -28.0800   22.7148 H   0  0  0  0  0  0
  -24.5874  -30.7142   25.7530 H   0  0  0  0  0  0
  -24.8779  -32.3064   26.4415 H   0  0  0  0  0  0
  -25.7777  -30.9161   27.0193 H   0  0  0  0  0  0
  -26.3324  -29.6363   24.1704 H   0  0  0  0  0  0
  -27.3963  -29.7313   25.5490 H   0  0  0  0  0  0
  -27.9323  -30.3886   24.0271 H   0  0  0  0  0  0
  -27.2582  -33.3781   26.1783 H   0  0  0  0  0  0
  -28.3992  -32.6767   25.0409 H   0  0  0  0  0  0
  -28.0562  -31.8693   26.5629 H   0  0  0  0  0  0
  -28.2531  -38.0047   24.7522 H   0  0  0  0  0  0
  -28.1104  -36.2567   24.6287 H   0  0  0  0  0  0
  -27.2273  -37.1330   25.8867 H   0  0  0  0  0  0
  -20.9810  -29.8631   21.6405 H   0  0  0  0  0  0
  -26.0079  -38.2657   24.1432 H   0  0  0  0  0  0
  -29.2900  -18.5997   22.6207 H   0  0  0  0  0  0
  -30.9464  -18.3792   22.0638 H   0  0  0  0  0  0
  -30.0250  -17.0060   22.6700 H   0  0  0  0  0  0
  -29.7540  -21.7951   21.0657 H   0  0  0  0  0  0
  -28.1432  -21.3711   21.4218 H   0  0  0  0  0  0
  -30.1294  -19.7416   19.4437 H   0  0  0  0  0  0
  -28.4631  -19.4607   19.2512 H   0  0  0  0  0  0
  -27.1339  -23.2532   19.8249 H   0  0  0  0  0  0
  -28.6165  -23.4625   19.0064 H   0  0  0  0  0  0
  -28.4049  -17.3683   20.7710 H   0  0  0  0  0  0
  1 25  1  0  0  0
  1 30  2  0  0  0
  1 75  1  0  0  0
  2  3  1  0  0  0
  2 25  1  0  0  0
  2 76  1  0  0  0
  2 77  1  0  0  0
  3  4  1  0  0  0
  3 78  1  0  0  0
  3 79  1  0  0  0
  4  5  1  0  0  0
  4 80  1  0  0  0
  4 81  1  0  0  0
  5  6  1  0  0  0
  5 26  1  0  0  0
  5 82  1  0  0  0
  6 25  1  0  0  0
  6 83  1  0  0  0
  6 84  1  0  0  0
  7  8  2  0  0  0
  7 26  1  0  0  0
  7 29  1  0  0  0
  8  9  1  0  0  0
  8 22  1  0  0  0
  9 10  1  0  0  0
  9 27  2  0  0  0
 10 11  2  0  0  0
 10 15  1  0  0  0
 11 12  1  0  0  0
 11 85  1  0  0  0
 12 13  2  0  0  0
 12 86  1  0  0  0
 13 14  1  0  0  0
 13 31  1  0  0  0
 14 15  2  0  0  0
 14 87  1  0  0  0
 15 88  1  0  0  0
 16 17  2  0  0  0
 16 21  1  0  0  0
 16 31  1  0  0  0
 17 18  1  0  0  0
 17 89  1  0  0  0
 18 19  2  0  0  0
 18 90  1  0  0  0
 19 20  1  0  0  0
 19 24  1  0  0  0
 20 21  2  0  0  0
 20 91  1  0  0  0
 21 23  1  0  0  0
 22 28  1  0  0  0
 22 32  2  0  0  0
 26 27  1  0  0  0
 28 92  1  0  0  0
 28 93  1  0  0  0
 29 94  1  0  0  0
 29 95  1  0  0  0
 33 34  1  0  0  0
 33 66  1  0  0  0
 33 70  2  0  0  0
 34 36  1  0  0  0
 34 59  1  0  0  0
 34 96  1  0  0  0
 35 44  2  0  0  0
 35 45  1  0  0  0
 35 68  1  0  0  0
 36 56  1  0  0  0
 36 97  1  0  0  0
 37 39  1  0  0  0
 37 47  1  0  0  0
 37 66  1  0  0  0
 37 98  1  0  0  0
 38 43  2  0  0  0
 38 46  1  0  0  0
 38 47  1  0  0  0
 39 64  1  0  0  0
 39 67  2  0  0  0
 40 52  1  0  0  0
 40 53  2  0  0  0
 40 58  1  0  0  0
 41 99  1  0  0  0
 41100  1  0  0  0
 41101  1  0  0  0
 41 48  1  0  0  0
 42 43  1  0  0  0
 42 66  1  0  0  0
 42102  1  0  0  0
 42103  1  0  0  0
 43 44  1  0  0  0
 44104  1  0  0  0
 45 46  2  0  0  0
 45105  1  0  0  0
 46106  1  0  0  0
 47107  1  0  0  0
 47108  1  0  0  0
 48 56  1  0  0  0
 48 65  1  0  0  0
 48109  1  0  0  0
 49 50  1  0  0  0
 49 53  1  0  0  0
 49 64  1  0  0  0
 49110  1  0  0  0
 50 51  1  0  0  0
 50111  1  0  0  0
 50112  1  0  0  0
 51 52  1  0  0  0
 51113  1  0  0  0
 51114  1  0  0  0
 52115  1  0  0  0
 52116  1  0  0  0
 53 54  1  0  0  0
 54 55  2  0  0  0
 54117  1  0  0  0
 55 57  1  0  0  0
 55118  1  0  0  0
 56 69  2  0  0  0
 57 58  2  0  0  0
 57119  1  0  0  0
 58120  1  0  0  0
 59 60  1  0  0  0
 59 61  1  0  0  0
 59 62  1  0  0  0
 60121  1  0  0  0
 60122  1  0  0  0
 60123  1  0  0  0
 61124  1  0  0  0
 61125  1  0  0  0
 61126  1  0  0  0
 62127  1  0  0  0
 62128  1  0  0  0
 62129  1  0  0  0
 63 65  1  0  0  0
 63130  1  0  0  0
 63131  1  0  0  0
 63132  1  0  0  0
 64133  1  0  0  0
 65134  1  0  0  0
 68 74  1  0  0  0
 71135  1  0  0  0
 71136  1  0  0  0
 71137  1  0  0  0
 71 75  1  0  0  0
 72 73  1  0  0  0
 72 74  1  0  0  0
 72138  1  0  0  0
 72139  1  0  0  0
 73 75  1  0  0  0
 73140  1  0  0  0
 73141  1  0  0  0
 74142  1  0  0  0
 74143  1  0  0  0
 75144  1  0  0  0
M  ISO  4   1 100  68 101  74 101  75 100
M  END
> <chiral flag>
0

> <version>
0

> <s_m_source_file>
/data/baiqing/PycharmProjects/Reinvent-master-3.2/result/LINK_invent/BTK/process_docking_weight1_custom_sum_contain_oxygen_bond_distance_aromatic_linkinvent_7_9_3/rearranged_h_0050.sdf

> <i_m_source_file_index>
30

> <r_mmod_Potential_Energy-OPLS-2005>
3700.26782226562

> <r_mmod_Stretch_Energy-OPLS-2005>
1758.169921875

> <r_mmod_Bend_Energy-OPLS-2005>
829.234680175781

> <r_mmod_Torsional_Energy-OPLS-2005>
197.008804321289

> <r_mmod_Improper_Torsional_Energy-OPLS-2005>
1.71119201183319

> <r_mmod_Van_der_Waal_Energy-OPLS-2005>
111.652793884277

> <r_mmod_Electrostatic_Energy-OPLS-2005>
-296.520263671875

> <r_mmod_Solvation_Energy-OPLS-2005>
-191.404418945312

> <b_mmod_Minimization_Converged-OPLS-2005>
0

> <r_mmod_RMS_Derivative-OPLS-2005>
0.527593433856964

$$$$
30
                    3D
 Structure written by MMmdl.
170178  0  0  1  0            999 V2000
  -30.6566  -14.5458   20.4425 C   0  0  0  0  0  0
  -30.4453  -12.3156   19.4506 C   0  0  0  0  0  0
  -29.5081  -12.4268   18.2284 C   0  0  0  0  0  0
  -28.0171  -12.3334   18.6306 C   0  0  0  0  0  0
  -27.6441  -13.1819   19.8781 C   0  0  2  0  0  0
  -28.7058  -13.0349   20.9931 C   0  0  0  0  0  0
  -25.2534  -13.8040   20.5837 C   0  0  0  0  0  0
  -24.1761  -13.0360   20.9320 C   0  0  0  0  0  0
  -24.6272  -11.6810   20.8826 C   0  0  0  0  0  0
  -23.8944  -10.4213   21.0439 C   0  0  0  0  0  0
  -24.3500   -9.4144   21.9217 C   0  0  0  0  0  0
  -23.6218   -8.2170   22.0757 C   0  0  0  0  0  0
  -22.4219   -8.0191   21.3526 C   0  0  0  0  0  0
  -21.9844   -9.0162   20.4655 C   0  0  0  0  0  0
  -22.7137  -10.2061   20.3089 C   0  0  0  0  0  0
  -21.6836   -6.0681   22.5282 C   0  0  0  0  0  0
  -21.3974   -6.5578   23.8203 C   0  0  0  0  0  0
  -21.3704   -5.6749   24.9186 C   0  0  0  0  0  0
  -21.6086   -4.3017   24.7256 C   0  0  0  0  0  0
  -21.8794   -3.8100   23.4349 C   0  0  0  0  0  0
  -21.9188   -4.6914   22.3419 C   0  0  0  0  0  0
  -22.7787  -13.5210   21.1914 C   0  0  0  0  0  0
  -22.1624   -4.2093   21.0998 F   0  0  0  0  0  0
  -21.5711   -3.4509   25.7775 F   0  0  0  0  0  0
  -30.0207  -13.3429   20.4064 N   0  0  0  0  0  0
  -26.2918  -12.9130   20.3543 N   0  0  0  0  0  0
  -25.9205  -11.6321   20.5940 N   0  0  0  0  0  0
  -22.0275  -12.8310   22.0422 N   0  0  0  0  0  0
  -25.4292  -15.1758   20.4208 N   0  0  0  0  0  0
  -31.8574  -14.6759   20.1940 O   0  0  0  0  0  0
  -21.6585   -6.8794   21.4221 O   0  0  0  0  0  0
  -22.3599  -14.5543   20.6711 O   0  0  0  0  0  0
  -24.6120  -31.8670   23.2130 C   0  0  0  0  0  0
  -25.9023  -32.4822   23.8403 C   0  0  1  0  0  0
  -27.2564  -27.4869   20.0993 C   0  0  0  0  0  0
  -25.5888  -33.8620   24.2330 N   0  0  0  0  0  0
  -23.3960  -30.4921   21.5521 C   0  0  2  0  0  0
  -24.8463  -28.9668   20.1114 C   0  0  0  0  0  0
  -22.7386  -29.4633   22.4989 C   0  0  0  0  0  0
  -18.0265  -28.1388   22.8503 C   0  0  0  0  0  0
  -24.1480  -36.7312   23.2632 C   0  0  0  0  0  0
  -25.9168  -30.8603   21.3509 C   0  0  0  0  0  0
  -25.9996  -29.4971   20.7019 C   0  0  0  0  0  0
  -27.2054  -28.7694   20.6935 C   0  0  0  0  0  0
  -26.0773  -26.9500   19.5403 C   0  0  0  0  0  0
  -24.8806  -27.6881   19.5221 C   0  0  0  0  0  0
  -23.6022  -29.8247   20.1635 C   0  0  0  0  0  0
  -25.4095  -36.3105   24.0335 C   0  0  1  0  0  0
  -20.5844  -28.3650   23.1356 C   0  0  2  0  0  0
  -20.6754  -26.9391   22.5445 C   0  0  0  0  0  0
  -19.5754  -26.6393   21.5227 C   0  0  0  0  0  0
  -18.1915  -26.7943   22.1619 C   0  0  0  0  0  0
  -19.1499  -28.8839   23.2928 C   0  0  0  0  0  0
  -18.9437  -30.1461   23.8940 C   0  0  0  0  0  0
  -17.6425  -30.6586   24.0580 C   0  0  0  0  0  0
  -25.9021  -34.9483   23.5113 C   0  0  0  0  0  0
  -16.5318  -29.9102   23.6332 C   0  0  0  0  0  0
  -16.7252  -28.6515   23.0339 C   0  0  0  0  0  0
  -26.4515  -31.6596   25.0700 C   0  0  0  0  0  0
  -25.3824  -31.3661   26.1468 C   0  0  0  0  0  0
  -27.0337  -30.3054   24.5992 C   0  0  0  0  0  0
  -27.6096  -32.4315   25.7469 C   0  0  0  0  0  0
  -27.5571  -37.1793   24.8448 C   0  0  0  0  0  0
  -21.4101  -29.3015   22.3760 N   0  0  0  0  0  0
  -26.4283  -37.3791   23.9412 N   0  0  0  0  0  0
  -24.6600  -31.0853   22.0988 N   0  0  0  0  0  0
  -23.4168  -28.8153   23.3006 O   0  0  0  0  0  0
  -28.3940  -26.7186   20.0570 O   0  0  0  0  0  0
  -26.5562  -34.8921   22.4670 O   0  0  0  0  0  0
  -23.5354  -32.1366   23.7596 O   0  0  0  0  0  0
  -29.8646  -24.9140   18.0463 C   0  0  0  0  0  0
  -31.6046  -24.0737   19.4864 C   0  0  0  0  0  0
  -29.8777  -23.6683   17.3953 C   0  0  0  0  0  0
  -30.7426  -25.1278   19.1291 C   0  0  0  0  0  0
  -31.5484  -22.8545   18.7874 C   0  0  0  0  0  0
  -29.3166  -16.1076   19.1670 C   0  0  0  0  0  0
  -31.9204  -21.4334   22.0348 C   0  0  0  0  0  0
  -30.8255  -26.4312   19.9157 C   0  0  0  0  0  0
  -32.5222  -21.7345   19.1213 C   0  0  0  0  0  0
  -30.5378  -18.0850   20.7590 C   0  0  0  0  0  0
  -30.0746  -16.7505   21.4209 C   0  0  0  0  0  0
  -31.9077  -20.4423   19.7164 C   0  0  0  0  0  0
  -31.0688  -19.1745   21.7118 C   0  0  0  0  0  0
  -29.6308  -27.3973   19.8388 C   0  0  0  0  0  0
  -30.6958  -22.6535   17.7572 N   0  0  0  0  0  0
  -29.8440  -15.6392   20.4640 N   0  0  0  0  0  0
  -31.2683  -20.5134   21.0722 N   0  3  1  0  0  0
  -31.4853  -12.4402   19.1424 H   0  0  0  0  0  0
  -30.3983  -11.3265   19.9081 H   0  0  0  0  0  0
  -29.7373  -11.6244   17.5241 H   0  0  0  0  0  0
  -29.7112  -13.3581   17.6990 H   0  0  0  0  0  0
  -27.8005  -11.2838   18.8386 H   0  0  0  0  0  0
  -27.3917  -12.6057   17.7785 H   0  0  0  0  0  0
  -27.6239  -14.2147   19.5642 H   0  0  0  0  0  0
  -28.7079  -12.0155   21.3867 H   0  0  0  0  0  0
  -28.4869  -13.6934   21.8349 H   0  0  0  0  0  0
  -25.2598   -9.5677   22.4844 H   0  0  0  0  0  0
  -23.9949   -7.4551   22.7452 H   0  0  0  0  0  0
  -21.0790   -8.8622   19.8943 H   0  0  0  0  0  0
  -22.3530  -10.9586   19.6219 H   0  0  0  0  0  0
  -21.1834   -7.6058   23.9706 H   0  0  0  0  0  0
  -21.1633   -6.0469   25.9108 H   0  0  0  0  0  0
  -22.0544   -2.7563   23.2870 H   0  0  0  0  0  0
  -22.3719  -12.0041   22.5056 H   0  0  0  0  0  0
  -21.0877  -13.1428   22.2419 H   0  0  0  0  0  0
  -24.6745  -15.8398   20.5633 H   0  0  0  0  0  0
  -26.2985  -15.6119   20.1345 H   0  0  0  0  0  0
  -26.7103  -32.5544   23.1201 H   0  0  0  0  0  0
  -25.0191  -33.9806   25.0572 H   0  0  0  0  0  0
  -22.6824  -31.3073   21.4181 H   0  0  0  0  0  0
  -23.3740  -35.9636   23.3295 H   0  0  0  0  0  0
  -24.3608  -36.8919   22.2045 H   0  0  0  0  0  0
  -23.7220  -37.6512   23.6659 H   0  0  0  0  0  0
  -26.0013  -31.6289   20.5802 H   0  0  0  0  0  0
  -26.8138  -30.9283   21.9554 H   0  0  0  0  0  0
  -28.0792  -29.1986   21.1602 H   0  0  0  0  0  0
  -26.0962  -25.9587   19.1104 H   0  0  0  0  0  0
  -23.9930  -27.2661   19.0690 H   0  0  0  0  0  0
  -23.6999  -30.6037   19.4066 H   0  0  0  0  0  0
  -22.7295  -29.2384   19.8693 H   0  0  0  0  0  0
  -25.1278  -36.1976   25.0826 H   0  0  0  0  0  0
  -20.9955  -28.3222   24.1463 H   0  0  0  0  0  0
  -20.5683  -26.2238   23.3617 H   0  0  0  0  0  0
  -21.6622  -26.7482   22.1208 H   0  0  0  0  0  0
  -19.6898  -25.6308   21.1254 H   0  0  0  0  0  0
  -19.6720  -27.3217   20.6772 H   0  0  0  0  0  0
  -17.4204  -26.6731   21.3993 H   0  0  0  0  0  0
  -18.0285  -26.0073   22.9005 H   0  0  0  0  0  0
  -19.7905  -30.7267   24.2305 H   0  0  0  0  0  0
  -17.4983  -31.6263   24.5193 H   0  0  0  0  0  0
  -15.5324  -30.3008   23.7639 H   0  0  0  0  0  0
  -15.8644  -28.0862   22.7020 H   0  0  0  0  0  0
  -24.6009  -30.6992   25.7813 H   0  0  0  0  0  0
  -24.9036  -32.2819   26.4949 H   0  0  0  0  0  0
  -25.8243  -30.8823   27.0190 H   0  0  0  0  0  0
  -26.2822  -29.6776   24.1189 H   0  0  0  0  0  0
  -27.4298  -29.7317   25.4382 H   0  0  0  0  0  0
  -27.8582  -30.4386   23.8975 H   0  0  0  0  0  0
  -27.2707  -33.3617   26.2050 H   0  0  0  0  0  0
  -28.3941  -32.6858   25.0324 H   0  0  0  0  0  0
  -28.0728  -31.8423   26.5393 H   0  0  0  0  0  0
  -28.2574  -38.0110   24.7555 H   0  0  0  0  0  0
  -28.1099  -36.2651   24.6233 H   0  0  0  0  0  0
  -27.2309  -37.1378   25.8854 H   0  0  0  0  0  0
  -20.9225  -29.8741   21.6997 H   0  0  0  0  0  0
  -26.0169  -38.2852   24.1471 H   0  0  0  0  0  0
  -29.1852  -25.6848   17.7107 H   0  0  0  0  0  0
  -32.3202  -24.2102   20.2863 H   0  0  0  0  0  0
  -29.2199  -23.4869   16.5583 H   0  0  0  0  0  0
  -30.0545  -16.6799   18.6103 H   0  0  0  0  0  0
  -28.4370  -16.7372   19.3054 H   0  0  0  0  0  0
  -29.0356  -15.3031   18.4940 H   0  0  0  0  0  0
  -31.8886  -22.4707   21.7103 H   0  0  0  0  0  0
  -32.9593  -21.1511   22.2049 H   0  0  0  0  0  0
  -31.4096  -21.3882   22.9994 H   0  0  0  0  0  0
  -31.7283  -26.9598   19.6049 H   0  0  0  0  0  0
  -30.9801  -26.1693   20.9626 H   0  0  0  0  0  0
  -33.3083  -22.1127   19.7731 H   0  0  0  0  0  0
  -33.0379  -21.4664   18.1962 H   0  0  0  0  0  0
  -29.7137  -18.5264   20.1979 H   0  0  0  0  0  0
  -31.3296  -17.8459   20.0479 H   0  0  0  0  0  0
  -29.1437  -16.9192   21.9642 H   0  0  0  0  0  0
  -30.8024  -16.4429   22.1732 H   0  0  0  0  0  0
  -32.7065  -19.7011   19.7414 H   0  0  0  0  0  0
  -31.1645  -20.0731   19.0075 H   0  0  0  0  0  0
  -32.0132  -18.8297   22.1406 H   0  0  0  0  0  0
  -30.3828  -19.2931   22.5512 H   0  0  0  0  0  0
  -29.6028  -27.8999   18.8727 H   0  0  0  0  0  0
  -29.8046  -28.1607   20.5942 H   0  0  0  0  0  0
  -30.3436  -20.8957   20.9232 H   0  0  0  0  0  0
  1 25  1  0  0  0
  1 30  2  0  0  0
  1 86  1  0  0  0
  2  3  1  0  0  0
  2 25  1  0  0  0
  2 88  1  0  0  0
  2 89  1  0  0  0
  3  4  1  0  0  0
  3 90  1  0  0  0
  3 91  1  0  0  0
  4  5  1  0  0  0
  4 92  1  0  0  0
  4 93  1  0  0  0
  5  6  1  0  0  0
  5 26  1  0  0  0
  5 94  1  0  0  0
  6 25  1  0  0  0
  6 95  1  0  0  0
  6 96  1  0  0  0
  7  8  2  0  0  0
  7 26  1  0  0  0
  7 29  1  0  0  0
  8  9  1  0  0  0
  8 22  1  0  0  0
  9 10  1  0  0  0
  9 27  2  0  0  0
 10 11  2  0  0  0
 10 15  1  0  0  0
 11 12  1  0  0  0
 11 97  1  0  0  0
 12 13  2  0  0  0
 12 98  1  0  0  0
 13 14  1  0  0  0
 13 31  1  0  0  0
 14 15  2  0  0  0
 14 99  1  0  0  0
 15100  1  0  0  0
 16 17  2  0  0  0
 16 21  1  0  0  0
 16 31  1  0  0  0
 17 18  1  0  0  0
 17101  1  0  0  0
 18 19  2  0  0  0
 18102  1  0  0  0
 19 20  1  0  0  0
 19 24  1  0  0  0
 20 21  2  0  0  0
 20103  1  0  0  0
 21 23  1  0  0  0
 22 28  1  0  0  0
 22 32  2  0  0  0
 26 27  1  0  0  0
 28104  1  0  0  0
 28105  1  0  0  0
 29106  1  0  0  0
 29107  1  0  0  0
 33 34  1  0  0  0
 33 66  1  0  0  0
 33 70  2  0  0  0
 34 36  1  0  0  0
 34 59  1  0  0  0
 34108  1  0  0  0
 35 44  2  0  0  0
 35 45  1  0  0  0
 35 68  1  0  0  0
 36 56  1  0  0  0
 36109  1  0  0  0
 37 39  1  0  0  0
 37 47  1  0  0  0
 37 66  1  0  0  0
 37110  1  0  0  0
 38 43  2  0  0  0
 38 46  1  0  0  0
 38 47  1  0  0  0
 39 64  1  0  0  0
 39 67  2  0  0  0
 40 52  1  0  0  0
 40 53  2  0  0  0
 40 58  1  0  0  0
 41111  1  0  0  0
 41112  1  0  0  0
 41113  1  0  0  0
 41 48  1  0  0  0
 42 43  1  0  0  0
 42 66  1  0  0  0
 42114  1  0  0  0
 42115  1  0  0  0
 43 44  1  0  0  0
 44116  1  0  0  0
 45 46  2  0  0  0
 45117  1  0  0  0
 46118  1  0  0  0
 47119  1  0  0  0
 47120  1  0  0  0
 48 56  1  0  0  0
 48 65  1  0  0  0
 48121  1  0  0  0
 49 50  1  0  0  0
 49 53  1  0  0  0
 49 64  1  0  0  0
 49122  1  0  0  0
 50 51  1  0  0  0
 50123  1  0  0  0
 50124  1  0  0  0
 51 52  1  0  0  0
 51125  1  0  0  0
 51126  1  0  0  0
 52127  1  0  0  0
 52128  1  0  0  0
 53 54  1  0  0  0
 54 55  2  0  0  0
 54129  1  0  0  0
 55 57  1  0  0  0
 55130  1  0  0  0
 56 69  2  0  0  0
 57 58  2  0  0  0
 57131  1  0  0  0
 58132  1  0  0  0
 59 60  1  0  0  0
 59 61  1  0  0  0
 59 62  1  0  0  0
 60133  1  0  0  0
 60134  1  0  0  0
 60135  1  0  0  0
 61136  1  0  0  0
 61137  1  0  0  0
 61138  1  0  0  0
 62139  1  0  0  0
 62140  1  0  0  0
 62141  1  0  0  0
 63 65  1  0  0  0
 63142  1  0  0  0
 63143  1  0  0  0
 63144  1  0  0  0
 64145  1  0  0  0
 65146  1  0  0  0
 68 84  1  0  0  0
 71 73  2  0  0  0
 71 74  1  0  0  0
 71147  1  0  0  0
 72 74  2  0  0  0
 72 75  1  0  0  0
 72148  1  0  0  0
 73 85  1  0  0  0
 73149  1  0  0  0
 74 78  1  0  0  0
 75 79  1  0  0  0
 75 85  2  0  0  0
 76 86  1  0  0  0
 76150  1  0  0  0
 76151  1  0  0  0
 76152  1  0  0  0
 77153  1  0  0  0
 77154  1  0  0  0
 77155  1  0  0  0
 77 87  1  0  0  0
 78 84  1  0  0  0
 78156  1  0  0  0
 78157  1  0  0  0
 79 82  1  0  0  0
 79158  1  0  0  0
 79159  1  0  0  0
 80 81  1  0  0  0
 80 83  1  0  0  0
 80160  1  0  0  0
 80161  1  0  0  0
 81 86  1  0  0  0
 81162  1  0  0  0
 81163  1  0  0  0
 82 87  1  0  0  0
 82164  1  0  0  0
 82165  1  0  0  0
 83 87  1  0  0  0
 83166  1  0  0  0
 83167  1  0  0  0
 84168  1  0  0  0
 84169  1  0  0  0
 87170  1  0  0  0
M  CHG  1  87   1
M  ISO  4   1 100  68 101  84 101  86 100
M  END
> <chiral flag>
0

> <version>
0

> <s_m_source_file>
/data/baiqing/PycharmProjects/Reinvent-master-3.2/result/LINK_invent/BTK/process_docking_weight1_custom_sum_contain_oxygen_bond_distance_aromatic_linkinvent_7_9_3/rearranged_h_0050.sdf

> <i_m_source_file_index>
31

> <r_mmod_Potential_Energy-OPLS-2005>
-71.3064117431641

> <r_mmod_Stretch_Energy-OPLS-2005>
39.4289779663086

> <r_mmod_Bend_Energy-OPLS-2005>
116.705680847168

> <r_mmod_Torsional_Energy-OPLS-2005>
317.074188232422

> <r_mmod_Improper_Torsional_Energy-OPLS-2005>
10.1117515563965

> <r_mmod_Van_der_Waal_Energy-OPLS-2005>
169.838882446289

> <r_mmod_Electrostatic_Energy-OPLS-2005>
-313.707977294922

> <r_mmod_Solvation_Energy-OPLS-2005>
-434.523834228516

> <b_mmod_Minimization_Converged-OPLS-2005>
0

> <r_mmod_RMS_Derivative-OPLS-2005>
5.71084022521973

$$$$
31
                    3D
 Structure written by MMmdl.
153161  0  0  1  0            999 V2000
  -30.5418  -15.0016   20.4819 C   0  0  0  0  0  0
  -30.4396  -12.6334   19.5179 C   0  0  0  0  0  0
  -29.5309  -12.5421   18.2686 C   0  0  0  0  0  0
  -28.0647  -12.3064   18.6732 C   0  0  0  0  0  0
  -27.6242  -13.2427   19.8249 C   0  0  2  0  0  0
  -28.6521  -13.2646   20.9685 C   0  0  0  0  0  0
  -25.2448  -13.8198   20.5655 C   0  0  0  0  0  0
  -24.1756  -13.0428   20.9155 C   0  0  0  0  0  0
  -24.6346  -11.6902   20.8674 C   0  0  0  0  0  0
  -23.9018  -10.4286   21.0350 C   0  0  0  0  0  0
  -24.3576   -9.4226   21.9143 C   0  0  0  0  0  0
  -23.6261   -8.2259   22.0746 C   0  0  0  0  0  0
  -22.4247   -8.0267   21.3533 C   0  0  0  0  0  0
  -21.9859   -9.0226   20.4633 C   0  0  0  0  0  0
  -22.7173  -10.2115   20.3028 C   0  0  0  0  0  0
  -21.6843   -6.0701   22.5256 C   0  0  0  0  0  0
  -21.4004   -6.5610   23.8182 C   0  0  0  0  0  0
  -21.3677   -5.6777   24.9152 C   0  0  0  0  0  0
  -21.6043   -4.3037   24.7202 C   0  0  0  0  0  0
  -21.8828   -3.8117   23.4333 C   0  0  0  0  0  0
  -21.9194   -4.6930   22.3389 C   0  0  0  0  0  0
  -22.7790  -13.5207   21.1841 C   0  0  0  0  0  0
  -22.1658   -4.2121   21.0965 F   0  0  0  0  0  0
  -21.5649   -3.4526   25.7718 F   0  0  0  0  0  0
  -29.9350  -13.7324   20.4090 N   0  0  0  0  0  0
  -26.2818  -12.9398   20.3086 N   0  0  0  0  0  0
  -25.9264  -11.6529   20.5599 N   0  0  0  0  0  0
  -22.0449  -12.8212   22.0430 N   0  0  0  0  0  0
  -25.4177  -15.1928   20.4168 N   0  0  0  0  0  0
  -31.6964  -15.0614   20.0404 O   0  0  0  0  0  0
  -21.6637   -6.8847   21.4220 O   0  0  0  0  0  0
  -22.3473  -14.5513   20.6698 O   0  0  0  0  0  0
  -24.6499  -31.8370   23.1859 C   0  0  0  0  0  0
  -25.9239  -32.4650   23.8252 C   0  0  1  0  0  0
  -27.1944  -27.0665   20.1445 C   0  0  0  0  0  0
  -25.5950  -33.8474   24.2162 N   0  0  0  0  0  0
  -23.4536  -30.4627   21.5337 C   0  0  2  0  0  0
  -24.8987  -28.8862   20.1062 C   0  0  0  0  0  0
  -22.7588  -29.4527   22.4837 C   0  0  0  0  0  0
  -18.0318  -28.1390   22.8431 C   0  0  0  0  0  0
  -24.1502  -36.7267   23.2649 C   0  0  0  0  0  0
  -26.0184  -30.6897   21.3956 C   0  0  0  0  0  0
  -26.0820  -29.2985   20.7311 C   0  0  0  0  0  0
  -27.2303  -28.4035   20.7347 C   0  0  0  0  0  0
  -25.9871  -26.7910   19.4600 C   0  0  0  0  0  0
  -24.8692  -27.6494   19.4518 C   0  0  0  0  0  0
  -23.6811  -29.7993   20.1526 C   0  0  0  0  0  0
  -25.4122  -36.3029   24.0314 C   0  0  1  0  0  0
  -20.5926  -28.3721   23.1214 C   0  0  2  0  0  0
  -20.6816  -26.9424   22.5390 C   0  0  0  0  0  0
  -19.5787  -26.6370   21.5206 C   0  0  0  0  0  0
  -18.1959  -26.7918   22.1598 C   0  0  0  0  0  0
  -19.1573  -28.8870   23.2809 C   0  0  0  0  0  0
  -18.9497  -30.1457   23.8841 C   0  0  0  0  0  0
  -17.6498  -30.6579   24.0542 C   0  0  0  0  0  0
  -25.9090  -34.9406   23.5063 C   0  0  0  0  0  0
  -16.5391  -29.9055   23.6354 C   0  0  0  0  0  0
  -16.7301  -28.6492   23.0339 C   0  0  0  0  0  0
  -26.4531  -31.6556   25.0737 C   0  0  0  0  0  0
  -25.3678  -31.3752   26.1400 C   0  0  0  0  0  0
  -27.0407  -30.2947   24.6378 C   0  0  0  0  0  0
  -27.6071  -32.4348   25.7495 C   0  0  0  0  0  0
  -27.5566  -37.1781   24.8454 C   0  0  0  0  0  0
  -21.4279  -29.3050   22.3585 N   0  0  0  0  0  0
  -26.4284  -37.3749   23.9417 N   0  0  0  0  0  0
  -24.7290  -31.0161   22.0935 N   0  0  0  0  0  0
  -23.4217  -28.8087   23.3002 O   0  0  0  0  0  0
  -28.2000  -26.0081   20.2204 O   0  0  0  0  0  0
  -26.5690  -34.8891   22.4640 O   0  0  0  0  0  0
  -23.5599  -32.1294   23.7050 O   0  0  0  0  0  0
  -29.9857  -22.6577   20.0993 C   0  0  0  0  0  0
  -28.1354  -21.7088   20.5156 C   0  0  0  0  0  0
  -28.6070  -23.0369   20.2886 C   0  0  0  0  0  0
  -30.7002  -16.8434   23.1423 C   0  0  0  0  0  0
  -27.7562  -24.4893   20.1856 C   0  0  0  0  0  0
  -29.0292  -19.0673   20.8123 C   0  0  0  0  0  0
  -29.5244  -16.3109   22.2949 C   0  0  0  0  0  0
  -29.9499  -17.7219   20.2772 C   0  0  0  0  0  0
  -30.2678  -21.3210   20.2030 N   0  0  0  0  0  0
  -29.1121  -20.6348   20.4464 N   0  0  0  0  0  0
  -29.8516  -16.2190   20.8592 N   0  0  0  0  0  0
  -31.4715  -12.7947   19.2031 H   0  0  0  0  0  0
  -30.4504  -11.6826   20.0529 H   0  0  0  0  0  0
  -29.8712  -11.7409   17.6119 H   0  0  0  0  0  0
  -29.6087  -13.4645   17.6915 H   0  0  0  0  0  0
  -27.9745  -11.2670   18.9925 H   0  0  0  0  0  0
  -27.4066  -12.4186   17.8102 H   0  0  0  0  0  0
  -27.5892  -14.2454   19.3980 H   0  0  0  0  0  0
  -28.7541  -12.2736   21.4147 H   0  0  0  0  0  0
  -28.2623  -13.9036   21.7526 H   0  0  0  0  0  0
  -25.2719   -9.5723   22.4699 H   0  0  0  0  0  0
  -23.9966   -7.4667   22.7486 H   0  0  0  0  0  0
  -21.0787   -8.8717   19.8947 H   0  0  0  0  0  0
  -22.3589  -10.9636   19.6137 H   0  0  0  0  0  0
  -21.1980   -7.6109   23.9670 H   0  0  0  0  0  0
  -21.1499   -6.0502   25.9055 H   0  0  0  0  0  0
  -22.0594   -2.7575   23.2828 H   0  0  0  0  0  0
  -22.4089  -11.9881   22.4827 H   0  0  0  0  0  0
  -21.1067  -13.1260   22.2649 H   0  0  0  0  0  0
  -24.6574  -15.8522   20.5414 H   0  0  0  0  0  0
  -26.2770  -15.6311   20.1108 H   0  0  0  0  0  0
  -26.7248  -32.5225   23.0929 H   0  0  0  0  0  0
  -25.0065  -33.9574   25.0276 H   0  0  0  0  0  0
  -22.7605  -31.2938   21.3797 H   0  0  0  0  0  0
  -23.3774  -35.9590   23.3285 H   0  0  0  0  0  0
  -24.3588  -36.8951   22.2072 H   0  0  0  0  0  0
  -23.7254  -37.6450   23.6714 H   0  0  0  0  0  0
  -26.1873  -31.4428   20.6263 H   0  0  0  0  0  0
  -26.8832  -30.7283   22.0452 H   0  0  0  0  0  0
  -28.1238  -28.7122   21.2550 H   0  0  0  0  0  0
  -25.8472  -25.8714   18.9214 H   0  0  0  0  0  0
  -23.9725  -27.3369   18.9342 H   0  0  0  0  0  0
  -23.8310  -30.5770   19.4044 H   0  0  0  0  0  0
  -22.7905  -29.2565   19.8317 H   0  0  0  0  0  0
  -25.1315  -36.1845   25.0802 H   0  0  0  0  0  0
  -20.9993  -28.3293   24.1351 H   0  0  0  0  0  0
  -20.5716  -26.2311   23.3599 H   0  0  0  0  0  0
  -21.6659  -26.7438   22.1166 H   0  0  0  0  0  0
  -19.6973  -25.6283   21.1245 H   0  0  0  0  0  0
  -19.6745  -27.3149   20.6724 H   0  0  0  0  0  0
  -17.4229  -26.6662   21.3997 H   0  0  0  0  0  0
  -18.0348  -26.0082   22.9016 H   0  0  0  0  0  0
  -19.7994  -30.7276   24.2175 H   0  0  0  0  0  0
  -17.5066  -31.6248   24.5153 H   0  0  0  0  0  0
  -15.5386  -30.2933   23.7711 H   0  0  0  0  0  0
  -15.8712  -28.0788   22.7070 H   0  0  0  0  0  0
  -24.5882  -30.7082   25.7689 H   0  0  0  0  0  0
  -24.8810  -32.2922   26.4774 H   0  0  0  0  0  0
  -25.7914  -30.8955   27.0230 H   0  0  0  0  0  0
  -26.3039  -29.6644   24.1392 H   0  0  0  0  0  0
  -27.4008  -29.7299   25.4989 H   0  0  0  0  0  0
  -27.8946  -30.4205   23.9730 H   0  0  0  0  0  0
  -27.2704  -33.3728   26.1933 H   0  0  0  0  0  0
  -28.3917  -32.6781   25.0320 H   0  0  0  0  0  0
  -28.0659  -31.8535   26.5514 H   0  0  0  0  0  0
  -28.2561  -38.0102   24.7523 H   0  0  0  0  0  0
  -28.1091  -36.2632   24.6251 H   0  0  0  0  0  0
  -27.2275  -37.1371   25.8853 H   0  0  0  0  0  0
  -20.9489  -29.8791   21.6790 H   0  0  0  0  0  0
  -26.0155  -38.2817   24.1435 H   0  0  0  0  0  0
  -30.8147  -23.3204   19.8849 H   0  0  0  0  0  0
  -27.1142  -21.4272   20.7403 H   0  0  0  0  0  0
  -30.3800  -17.0147   24.1711 H   0  0  0  0  0  0
  -31.0993  -17.7871   22.7679 H   0  0  0  0  0  0
  -31.5247  -16.1306   23.1774 H   0  0  0  0  0  0
  -26.9858  -24.4435   20.9583 H   0  0  0  0  0  0
  -27.2038  -24.3816   19.2532 H   0  0  0  0  0  0
  -29.1059  -19.0616   21.8979 H   0  0  0  0  0  0
  -27.9886  -18.7941   20.6260 H   0  0  0  0  0  0
  -28.6279  -16.9148   22.4384 H   0  0  0  0  0  0
  -29.2816  -15.3485   22.7346 H   0  0  0  0  0  0
  -30.9983  -18.0061   20.3592 H   0  0  0  0  0  0
  -29.7792  -17.6266   19.2047 H   0  0  0  0  0  0
  1 25  1  0  0  0
  1 30  2  0  0  0
  1 81  1  0  0  0
  2  3  1  0  0  0
  2 25  1  0  0  0
  2 82  1  0  0  0
  2 83  1  0  0  0
  3  4  1  0  0  0
  3 84  1  0  0  0
  3 85  1  0  0  0
  4  5  1  0  0  0
  4 86  1  0  0  0
  4 87  1  0  0  0
  5  6  1  0  0  0
  5 26  1  0  0  0
  5 88  1  0  0  0
  6 25  1  0  0  0
  6 89  1  0  0  0
  6 90  1  0  0  0
  7  8  2  0  0  0
  7 26  1  0  0  0
  7 29  1  0  0  0
  8  9  1  0  0  0
  8 22  1  0  0  0
  9 10  1  0  0  0
  9 27  2  0  0  0
 10 11  2  0  0  0
 10 15  1  0  0  0
 11 12  1  0  0  0
 11 91  1  0  0  0
 12 13  2  0  0  0
 12 92  1  0  0  0
 13 14  1  0  0  0
 13 31  1  0  0  0
 14 15  2  0  0  0
 14 93  1  0  0  0
 15 94  1  0  0  0
 16 17  2  0  0  0
 16 21  1  0  0  0
 16 31  1  0  0  0
 17 18  1  0  0  0
 17 95  1  0  0  0
 18 19  2  0  0  0
 18 96  1  0  0  0
 19 20  1  0  0  0
 19 24  1  0  0  0
 20 21  2  0  0  0
 20 97  1  0  0  0
 21 23  1  0  0  0
 22 28  1  0  0  0
 22 32  2  0  0  0
 26 27  1  0  0  0
 28 98  1  0  0  0
 28 99  1  0  0  0
 29100  1  0  0  0
 29101  1  0  0  0
 33 34  1  0  0  0
 33 66  1  0  0  0
 33 70  2  0  0  0
 34 36  1  0  0  0
 34 59  1  0  0  0
 34102  1  0  0  0
 35 44  2  0  0  0
 35 45  1  0  0  0
 35 68  1  0  0  0
 36 56  1  0  0  0
 36103  1  0  0  0
 37 39  1  0  0  0
 37 47  1  0  0  0
 37 66  1  0  0  0
 37104  1  0  0  0
 38 43  2  0  0  0
 38 46  1  0  0  0
 38 47  1  0  0  0
 39 64  1  0  0  0
 39 67  2  0  0  0
 40 52  1  0  0  0
 40 53  2  0  0  0
 40 58  1  0  0  0
 41105  1  0  0  0
 41106  1  0  0  0
 41107  1  0  0  0
 41 48  1  0  0  0
 42 43  1  0  0  0
 42 66  1  0  0  0
 42108  1  0  0  0
 42109  1  0  0  0
 43 44  1  0  0  0
 44110  1  0  0  0
 45 46  2  0  0  0
 45111  1  0  0  0
 46112  1  0  0  0
 47113  1  0  0  0
 47114  1  0  0  0
 48 56  1  0  0  0
 48 65  1  0  0  0
 48115  1  0  0  0
 49 50  1  0  0  0
 49 53  1  0  0  0
 49 64  1  0  0  0
 49116  1  0  0  0
 50 51  1  0  0  0
 50117  1  0  0  0
 50118  1  0  0  0
 51 52  1  0  0  0
 51119  1  0  0  0
 51120  1  0  0  0
 52121  1  0  0  0
 52122  1  0  0  0
 53 54  1  0  0  0
 54 55  2  0  0  0
 54123  1  0  0  0
 55 57  1  0  0  0
 55124  1  0  0  0
 56 69  2  0  0  0
 57 58  2  0  0  0
 57125  1  0  0  0
 58126  1  0  0  0
 59 60  1  0  0  0
 59 61  1  0  0  0
 59 62  1  0  0  0
 60127  1  0  0  0
 60128  1  0  0  0
 60129  1  0  0  0
 61130  1  0  0  0
 61131  1  0  0  0
 61132  1  0  0  0
 62133  1  0  0  0
 62134  1  0  0  0
 62135  1  0  0  0
 63 65  1  0  0  0
 63136  1  0  0  0
 63137  1  0  0  0
 63138  1  0  0  0
 64139  1  0  0  0
 65140  1  0  0  0
 68 75  1  0  0  0
 71 73  1  0  0  0
 71 79  2  0  0  0
 71141  1  0  0  0
 72 73  2  0  0  0
 72 80  1  0  0  0
 72142  1  0  0  0
 73 75  1  0  0  0
 74 77  1  0  0  0
 74143  1  0  0  0
 74144  1  0  0  0
 74145  1  0  0  0
 75146  1  0  0  0
 75147  1  0  0  0
 76 78  1  0  0  0
 76 80  1  0  0  0
 76148  1  0  0  0
 76149  1  0  0  0
 77 81  1  0  0  0
 77150  1  0  0  0
 77151  1  0  0  0
 78 81  1  0  0  0
 78152  1  0  0  0
 78153  1  0  0  0
 79 80  1  0  0  0
M  ISO  4   1 100  68 101  75 101  81 100
M  END
> <chiral flag>
0

> <version>
0

> <s_m_source_file>
/data/baiqing/PycharmProjects/Reinvent-master-3.2/result/LINK_invent/BTK/process_docking_weight1_custom_sum_contain_oxygen_bond_distance_aromatic_linkinvent_7_9_3/rearranged_h_0050.sdf

> <i_m_source_file_index>
32

> <r_mmod_Potential_Energy-OPLS-2005>
835.157104492188

> <r_mmod_Stretch_Energy-OPLS-2005>
327.569305419922

> <r_mmod_Bend_Energy-OPLS-2005>
318.544830322266

> <r_mmod_Torsional_Energy-OPLS-2005>
303.324462890625

> <r_mmod_Improper_Torsional_Energy-OPLS-2005>
7.2188081741333

> <r_mmod_Van_der_Waal_Energy-OPLS-2005>
120.41682434082

> <r_mmod_Electrostatic_Energy-OPLS-2005>
-268.517761230469

> <r_mmod_Solvation_Energy-OPLS-2005>
-217.891586303711

> <b_mmod_Minimization_Converged-OPLS-2005>
0

> <r_mmod_RMS_Derivative-OPLS-2005>
4.23900604248047

$$$$
32
                    3D
 Structure written by MMmdl.
157165  0  0  1  0            999 V2000
  -30.6973  -14.5063   20.5561 C   0  0  0  0  0  0
  -30.4276  -12.3237   19.4279 C   0  0  0  0  0  0
  -29.4955  -12.4973   18.2099 C   0  0  0  0  0  0
  -28.0188  -12.3562   18.6259 C   0  0  0  0  0  0
  -27.6621  -13.2091   19.8730 C   0  0  2  0  0  0
  -28.7076  -13.0146   20.9963 C   0  0  0  0  0  0
  -25.2596  -13.8160   20.5688 C   0  0  0  0  0  0
  -24.1848  -13.0432   20.9182 C   0  0  0  0  0  0
  -24.6410  -11.6908   20.8743 C   0  0  0  0  0  0
  -23.9070  -10.4289   21.0404 C   0  0  0  0  0  0
  -24.3618   -9.4209   21.9193 C   0  0  0  0  0  0
  -23.6291   -8.2243   22.0758 C   0  0  0  0  0  0
  -22.4272   -8.0280   21.3549 C   0  0  0  0  0  0
  -21.9918   -9.0252   20.4646 C   0  0  0  0  0  0
  -22.7245  -10.2129   20.3054 C   0  0  0  0  0  0
  -21.6862   -6.0742   22.5283 C   0  0  0  0  0  0
  -21.4009   -6.5641   23.8215 C   0  0  0  0  0  0
  -21.3656   -5.6793   24.9170 C   0  0  0  0  0  0
  -21.6043   -4.3058   24.7226 C   0  0  0  0  0  0
  -21.8823   -3.8149   23.4349 C   0  0  0  0  0  0
  -21.9189   -4.6967   22.3403 C   0  0  0  0  0  0
  -22.7872  -13.5232   21.1840 C   0  0  0  0  0  0
  -22.1664   -4.2149   21.0988 F   0  0  0  0  0  0
  -21.5625   -3.4545   25.7739 F   0  0  0  0  0  0
  -30.0355  -13.3212   20.4387 N   0  0  0  0  0  0
  -26.3044  -12.9340   20.3374 N   0  0  0  0  0  0
  -25.9338  -11.6500   20.5788 N   0  0  0  0  0  0
  -22.0504  -12.8210   22.0376 N   0  0  0  0  0  0
  -25.4318  -15.1876   20.4069 N   0  0  0  0  0  0
  -31.8290  -14.6865   20.1004 O   0  0  0  0  0  0
  -21.6645   -6.8878   21.4242 O   0  0  0  0  0  0
  -22.3566  -14.5553   20.6706 O   0  0  0  0  0  0
  -24.6197  -31.8650   23.2066 C   0  0  0  0  0  0
  -25.9068  -32.4813   23.8375 C   0  0  1  0  0  0
  -27.2445  -27.4030   20.0787 C   0  0  0  0  0  0
  -25.5915  -33.8605   24.2307 N   0  0  0  0  0  0
  -23.4094  -30.4853   21.5515 C   0  0  2  0  0  0
  -24.8559  -28.9498   20.1138 C   0  0  0  0  0  0
  -22.7428  -29.4628   22.5010 C   0  0  0  0  0  0
  -18.0265  -28.1382   22.8488 C   0  0  0  0  0  0
  -24.1477  -36.7285   23.2649 C   0  0  0  0  0  0
  -25.9411  -30.8204   21.3621 C   0  0  0  0  0  0
  -26.0197  -29.4517   20.7082 C   0  0  0  0  0  0
  -27.2147  -28.6870   20.6853 C   0  0  0  0  0  0
  -26.0535  -26.9299   19.4756 C   0  0  0  0  0  0
  -24.8699  -27.6906   19.4949 C   0  0  0  0  0  0
  -23.6162  -29.8159   20.1675 C   0  0  0  0  0  0
  -25.4107  -36.3103   24.0341 C   0  0  1  0  0  0
  -20.5852  -28.3663   23.1318 C   0  0  2  0  0  0
  -20.6762  -26.9401   22.5415 C   0  0  0  0  0  0
  -19.5743  -26.6385   21.5211 C   0  0  0  0  0  0
  -18.1918  -26.7927   22.1616 C   0  0  0  0  0  0
  -19.1510  -28.8845   23.2903 C   0  0  0  0  0  0
  -18.9443  -30.1451   23.8913 C   0  0  0  0  0  0
  -17.6451  -30.6600   24.0554 C   0  0  0  0  0  0
  -25.9044  -34.9468   23.5125 C   0  0  0  0  0  0
  -16.5339  -29.9091   23.6340 C   0  0  0  0  0  0
  -16.7251  -28.6503   23.0362 C   0  0  0  0  0  0
  -26.4485  -31.6599   25.0710 C   0  0  0  0  0  0
  -25.3738  -31.3643   26.1445 C   0  0  0  0  0  0
  -27.0339  -30.3065   24.6062 C   0  0  0  0  0  0
  -27.6048  -32.4318   25.7487 C   0  0  0  0  0  0
  -27.5561  -37.1816   24.8476 C   0  0  0  0  0  0
  -21.4148  -29.3031   22.3742 N   0  0  0  0  0  0
  -26.4281  -37.3795   23.9416 N   0  0  0  0  0  0
  -24.6759  -31.0701   22.0995 N   0  0  0  0  0  0
  -23.4174  -28.8173   23.3078 O   0  0  0  0  0  0
  -28.4151  -26.6494   20.0901 O   0  0  0  0  0  0
  -26.5599  -34.8922   22.4682 O   0  0  0  0  0  0
  -23.5377  -32.1413   23.7442 O   0  0  0  0  0  0
  -29.4451  -21.1403   22.6252 C   0  0  0  0  0  0
  -29.4629  -20.4215   20.0429 C   0  0  0  0  0  0
  -29.5211  -21.7904   20.4341 C   0  0  0  0  0  0
  -29.3667  -19.4459   21.0779 C   0  0  0  0  0  0
  -29.5004  -20.0445   18.5643 C   0  0  0  0  0  0
  -29.6104  -22.9579   19.4236 C   0  0  0  0  0  0
  -29.1299  -17.9268   20.8790 C   0  0  0  0  0  0
  -29.6318  -24.4382   19.9602 C   0  0  0  0  0  0
  -30.3533  -16.9746   21.0614 C   0  0  0  0  0  0
  -28.3439  -25.2603   19.6803 C   0  0  0  0  0  0
  -29.5121  -22.1198   21.7357 N   0  0  0  0  0  0
  -29.3695  -19.8406   22.3652 N   0  0  0  0  0  0
  -29.9787  -15.5352   21.0543 N   0  0  0  0  0  0
  -31.4717  -12.4253   19.1239 H   0  0  0  0  0  0
  -30.3373  -11.3177   19.8410 H   0  0  0  0  0  0
  -29.7364  -11.7595   17.4438 H   0  0  0  0  0  0
  -29.6591  -13.4768   17.7558 H   0  0  0  0  0  0
  -27.8352  -11.3011   18.8365 H   0  0  0  0  0  0
  -27.3651  -12.6146   17.7923 H   0  0  0  0  0  0
  -27.6984  -14.2529   19.5595 H   0  0  0  0  0  0
  -28.6921  -11.9844   21.3547 H   0  0  0  0  0  0
  -28.4688  -13.6291   21.8652 H   0  0  0  0  0  0
  -25.2760   -9.5688   22.4774 H   0  0  0  0  0  0
  -24.0003   -7.4641   22.7482 H   0  0  0  0  0  0
  -21.0856   -8.8769   19.8952 H   0  0  0  0  0  0
  -22.3712  -10.9668   19.6159 H   0  0  0  0  0  0
  -21.2001   -7.6150   23.9716 H   0  0  0  0  0  0
  -21.1475   -6.0526   25.9073 H   0  0  0  0  0  0
  -22.0601   -2.7612   23.2856 H   0  0  0  0  0  0
  -22.4113  -11.9845   22.4734 H   0  0  0  0  0  0
  -21.1116  -13.1227   22.2564 H   0  0  0  0  0  0
  -24.6614  -15.8407   20.5026 H   0  0  0  0  0  0
  -26.2770  -15.6213   20.0585 H   0  0  0  0  0  0
  -26.7134  -32.5517   23.1125 H   0  0  0  0  0  0
  -25.0115  -33.9771   25.0490 H   0  0  0  0  0  0
  -22.7009  -31.3047   21.4102 H   0  0  0  0  0  0
  -23.3756  -35.9606   23.3337 H   0  0  0  0  0  0
  -24.3556  -36.8880   22.2058 H   0  0  0  0  0  0
  -23.7205  -37.6488   23.6647 H   0  0  0  0  0  0
  -26.0494  -31.5843   20.5907 H   0  0  0  0  0  0
  -26.8315  -30.8792   21.9773 H   0  0  0  0  0  0
  -28.1148  -29.0732   21.1420 H   0  0  0  0  0  0
  -26.0125  -25.9721   18.9790 H   0  0  0  0  0  0
  -23.9779  -27.2993   19.0259 H   0  0  0  0  0  0
  -23.7149  -30.5906   19.4064 H   0  0  0  0  0  0
  -22.7413  -29.2321   19.8761 H   0  0  0  0  0  0
  -25.1274  -36.1971   25.0830 H   0  0  0  0  0  0
  -20.9918  -28.3222   24.1448 H   0  0  0  0  0  0
  -20.5696  -26.2259   23.3600 H   0  0  0  0  0  0
  -21.6632  -26.7472   22.1189 H   0  0  0  0  0  0
  -19.6927  -25.6302   21.1234 H   0  0  0  0  0  0
  -19.6698  -27.3205   20.6751 H   0  0  0  0  0  0
  -17.4190  -26.6678   21.4015 H   0  0  0  0  0  0
  -18.0323  -26.0051   22.8993 H   0  0  0  0  0  0
  -19.7923  -30.7253   24.2295 H   0  0  0  0  0  0
  -17.5005  -31.6282   24.5148 H   0  0  0  0  0  0
  -15.5345  -30.2999   23.7673 H   0  0  0  0  0  0
  -15.8635  -28.0829   22.7096 H   0  0  0  0  0  0
  -24.5968  -30.6930   25.7755 H   0  0  0  0  0  0
  -24.8856  -32.2762   26.4894 H   0  0  0  0  0  0
  -25.8098  -30.8822   27.0203 H   0  0  0  0  0  0
  -26.2892  -29.6823   24.1108 H   0  0  0  0  0  0
  -27.4151  -29.7282   25.4491 H   0  0  0  0  0  0
  -27.8683  -30.4429   23.9172 H   0  0  0  0  0  0
  -27.2693  -33.3659   26.1994 H   0  0  0  0  0  0
  -28.3893  -32.6819   25.0329 H   0  0  0  0  0  0
  -28.0658  -31.8475   26.5458 H   0  0  0  0  0  0
  -28.2597  -38.0103   24.7521 H   0  0  0  0  0  0
  -28.1039  -36.2633   24.6306 H   0  0  0  0  0  0
  -27.2266  -37.1439   25.8878 H   0  0  0  0  0  0
  -20.9340  -29.8721   21.6917 H   0  0  0  0  0  0
  -26.0168  -38.2874   24.1427 H   0  0  0  0  0  0
  -29.4296  -21.4326   23.6651 H   0  0  0  0  0  0
  -30.4391  -20.3747   18.1171 H   0  0  0  0  0  0
  -28.6848  -20.5248   18.0213 H   0  0  0  0  0  0
  -29.4283  -18.9741   18.3805 H   0  0  0  0  0  0
  -28.8006  -22.8500   18.7025 H   0  0  0  0  0  0
  -30.5218  -22.7956   18.8463 H   0  0  0  0  0  0
  -28.6526  -17.7361   19.9215 H   0  0  0  0  0  0
  -28.3736  -17.6383   21.6106 H   0  0  0  0  0  0
  -30.4515  -24.9531   19.4589 H   0  0  0  0  0  0
  -29.8912  -24.4883   21.0168 H   0  0  0  0  0  0
  -30.8499  -17.1930   22.0080 H   0  0  0  0  0  0
  -31.0808  -17.1857   20.2762 H   0  0  0  0  0  0
  -27.5156  -24.7636   20.1859 H   0  0  0  0  0  0
  -28.1399  -25.2290   18.6089 H   0  0  0  0  0  0
  -29.0670  -15.2958   21.4153 H   0  0  0  0  0  0
  1 25  1  0  0  0
  1 30  2  0  0  0
  1 83  1  0  0  0
  2  3  1  0  0  0
  2 25  1  0  0  0
  2 84  1  0  0  0
  2 85  1  0  0  0
  3  4  1  0  0  0
  3 86  1  0  0  0
  3 87  1  0  0  0
  4  5  1  0  0  0
  4 88  1  0  0  0
  4 89  1  0  0  0
  5  6  1  0  0  0
  5 26  1  0  0  0
  5 90  1  0  0  0
  6 25  1  0  0  0
  6 91  1  0  0  0
  6 92  1  0  0  0
  7  8  2  0  0  0
  7 26  1  0  0  0
  7 29  1  0  0  0
  8  9  1  0  0  0
  8 22  1  0  0  0
  9 10  1  0  0  0
  9 27  2  0  0  0
 10 11  2  0  0  0
 10 15  1  0  0  0
 11 12  1  0  0  0
 11 93  1  0  0  0
 12 13  2  0  0  0
 12 94  1  0  0  0
 13 14  1  0  0  0
 13 31  1  0  0  0
 14 15  2  0  0  0
 14 95  1  0  0  0
 15 96  1  0  0  0
 16 17  2  0  0  0
 16 21  1  0  0  0
 16 31  1  0  0  0
 17 18  1  0  0  0
 17 97  1  0  0  0
 18 19  2  0  0  0
 18 98  1  0  0  0
 19 20  1  0  0  0
 19 24  1  0  0  0
 20 21  2  0  0  0
 20 99  1  0  0  0
 21 23  1  0  0  0
 22 28  1  0  0  0
 22 32  2  0  0  0
 26 27  1  0  0  0
 28100  1  0  0  0
 28101  1  0  0  0
 29102  1  0  0  0
 29103  1  0  0  0
 33 34  1  0  0  0
 33 66  1  0  0  0
 33 70  2  0  0  0
 34 36  1  0  0  0
 34 59  1  0  0  0
 34104  1  0  0  0
 35 44  2  0  0  0
 35 45  1  0  0  0
 35 68  1  0  0  0
 36 56  1  0  0  0
 36105  1  0  0  0
 37 39  1  0  0  0
 37 47  1  0  0  0
 37 66  1  0  0  0
 37106  1  0  0  0
 38 43  2  0  0  0
 38 46  1  0  0  0
 38 47  1  0  0  0
 39 64  1  0  0  0
 39 67  2  0  0  0
 40 52  1  0  0  0
 40 53  2  0  0  0
 40 58  1  0  0  0
 41107  1  0  0  0
 41108  1  0  0  0
 41109  1  0  0  0
 41 48  1  0  0  0
 42 43  1  0  0  0
 42 66  1  0  0  0
 42110  1  0  0  0
 42111  1  0  0  0
 43 44  1  0  0  0
 44112  1  0  0  0
 45 46  2  0  0  0
 45113  1  0  0  0
 46114  1  0  0  0
 47115  1  0  0  0
 47116  1  0  0  0
 48 56  1  0  0  0
 48 65  1  0  0  0
 48117  1  0  0  0
 49 50  1  0  0  0
 49 53  1  0  0  0
 49 64  1  0  0  0
 49118  1  0  0  0
 50 51  1  0  0  0
 50119  1  0  0  0
 50120  1  0  0  0
 51 52  1  0  0  0
 51121  1  0  0  0
 51122  1  0  0  0
 52123  1  0  0  0
 52124  1  0  0  0
 53 54  1  0  0  0
 54 55  2  0  0  0
 54125  1  0  0  0
 55 57  1  0  0  0
 55126  1  0  0  0
 56 69  2  0  0  0
 57 58  2  0  0  0
 57127  1  0  0  0
 58128  1  0  0  0
 59 60  1  0  0  0
 59 61  1  0  0  0
 59 62  1  0  0  0
 60129  1  0  0  0
 60130  1  0  0  0
 60131  1  0  0  0
 61132  1  0  0  0
 61133  1  0  0  0
 61134  1  0  0  0
 62135  1  0  0  0
 62136  1  0  0  0
 62137  1  0  0  0
 63 65  1  0  0  0
 63138  1  0  0  0
 63139  1  0  0  0
 63140  1  0  0  0
 64141  1  0  0  0
 65142  1  0  0  0
 68 80  1  0  0  0
 71 81  2  0  0  0
 71 82  1  0  0  0
 71143  1  0  0  0
 72 73  2  0  0  0
 72 74  1  0  0  0
 72 75  1  0  0  0
 73 76  1  0  0  0
 73 81  1  0  0  0
 74 77  1  0  0  0
 74 82  2  0  0  0
 75144  1  0  0  0
 75145  1  0  0  0
 75146  1  0  0  0
 76 78  1  0  0  0
 76147  1  0  0  0
 76148  1  0  0  0
 77 79  1  0  0  0
 77149  1  0  0  0
 77150  1  0  0  0
 78 80  1  0  0  0
 78151  1  0  0  0
 78152  1  0  0  0
 79 83  1  0  0  0
 79153  1  0  0  0
 79154  1  0  0  0
 80155  1  0  0  0
 80156  1  0  0  0
 83157  1  0  0  0
M  ISO  4   1 100  68 101  80 101  83 100
M  END
> <chiral flag>
0

> <version>
0

> <s_m_source_file>
/data/baiqing/PycharmProjects/Reinvent-master-3.2/result/LINK_invent/BTK/process_docking_weight1_custom_sum_contain_oxygen_bond_distance_aromatic_linkinvent_7_9_3/rearranged_h_0050.sdf

> <i_m_source_file_index>
33

> <r_mmod_Potential_Energy-OPLS-2005>
-443.379638671875

> <r_mmod_Stretch_Energy-OPLS-2005>
48.0742301940918

> <r_mmod_Bend_Energy-OPLS-2005>
111.474143981934

> <r_mmod_Torsional_Energy-OPLS-2005>
201.913452148438

> <r_mmod_Improper_Torsional_Energy-OPLS-2005>
3.94551873207092

> <r_mmod_Van_der_Waal_Energy-OPLS-2005>
164.899337768555

> <r_mmod_Electrostatic_Energy-OPLS-2005>
-752.529907226562

> <r_mmod_Solvation_Energy-OPLS-2005>
-238.308944702148

> <b_mmod_Minimization_Converged-OPLS-2005>
0

> <r_mmod_RMS_Derivative-OPLS-2005>
2.13435220718384

$$$$
33
                    3D
 Structure written by MMmdl.
176184  0  0  1  0            999 V2000
  -30.7815  -14.2355   20.7785 C   0  0  0  0  0  0
  -30.4314  -12.2737   19.3276 C   0  0  0  0  0  0
  -29.4661  -12.5478   18.1592 C   0  0  0  0  0  0
  -27.9955  -12.3923   18.5896 C   0  0  0  0  0  0
  -27.6780  -13.1744   19.8879 C   0  0  2  0  0  0
  -28.7179  -12.8268   20.9750 C   0  0  0  0  0  0
  -25.2710  -13.8105   20.5672 C   0  0  0  0  0  0
  -24.1930  -13.0448   20.9218 C   0  0  0  0  0  0
  -24.6384  -11.6869   20.8734 C   0  0  0  0  0  0
  -23.8999  -10.4282   21.0395 C   0  0  0  0  0  0
  -24.3567   -9.4183   21.9170 C   0  0  0  0  0  0
  -23.6263   -8.2218   22.0731 C   0  0  0  0  0  0
  -22.4235   -8.0255   21.3520 C   0  0  0  0  0  0
  -21.9854   -9.0221   20.4633 C   0  0  0  0  0  0
  -22.7177  -10.2110   20.3038 C   0  0  0  0  0  0
  -21.6837   -6.0706   22.5272 C   0  0  0  0  0  0
  -21.4012   -6.5627   23.8201 C   0  0  0  0  0  0
  -21.3670   -5.6798   24.9176 C   0  0  0  0  0  0
  -21.6047   -4.3055   24.7244 C   0  0  0  0  0  0
  -21.8825   -3.8130   23.4379 C   0  0  0  0  0  0
  -21.9180   -4.6930   22.3416 C   0  0  0  0  0  0
  -22.7957  -13.5240   21.1906 C   0  0  0  0  0  0
  -22.1628   -4.2089   21.1003 F   0  0  0  0  0  0
  -21.5645   -3.4560   25.7773 F   0  0  0  0  0  0
  -30.0737  -13.1291   20.4608 N   0  0  0  0  0  0
  -26.3114  -12.9195   20.3428 N   0  0  0  0  0  0
  -25.9292  -11.6383   20.5766 N   0  0  0  0  0  0
  -22.0593  -12.8216   22.0443 N   0  0  0  0  0  0
  -25.4521  -15.1823   20.3831 N   0  0  0  0  0  0
  -31.6697  -14.7332   20.0737 O   0  0  0  0  0  0
  -21.6613   -6.8849   21.4228 O   0  0  0  0  0  0
  -22.3672  -14.5576   20.6775 O   0  0  0  0  0  0
  -24.6097  -31.8686   23.2185 C   0  0  0  0  0  0
  -25.9019  -32.4814   23.8447 C   0  0  1  0  0  0
  -27.2187  -27.4760   20.0587 C   0  0  0  0  0  0
  -25.5911  -33.8620   24.2372 N   0  0  0  0  0  0
  -23.3920  -30.4954   21.5592 C   0  0  2  0  0  0
  -24.8325  -28.9841   20.1085 C   0  0  0  0  0  0
  -22.7379  -29.4597   22.5012 C   0  0  0  0  0  0
  -18.0256  -28.1317   22.8523 C   0  0  0  0  0  0
  -24.1488  -36.7310   23.2628 C   0  0  0  0  0  0
  -25.9204  -30.8472   21.3673 C   0  0  0  0  0  0
  -25.9954  -29.4914   20.6996 C   0  0  0  0  0  0
  -27.1926  -28.7463   20.6710 C   0  0  0  0  0  0
  -26.0295  -26.9809   19.4632 C   0  0  0  0  0  0
  -24.8412  -27.7270   19.4878 C   0  0  0  0  0  0
  -23.5955  -29.8427   20.1678 C   0  0  0  0  0  0
  -25.4101  -36.3106   24.0338 C   0  0  1  0  0  0
  -20.5856  -28.3560   23.1370 C   0  0  2  0  0  0
  -20.6765  -26.9307   22.5423 C   0  0  0  0  0  0
  -19.5754  -26.6342   21.5194 C   0  0  0  0  0  0
  -18.1926  -26.7870   22.1616 C   0  0  0  0  0  0
  -19.1518  -28.8759   23.2941 C   0  0  0  0  0  0
  -18.9463  -30.1382   23.8927 C   0  0  0  0  0  0
  -17.6484  -30.6564   24.0537 C   0  0  0  0  0  0
  -25.9014  -34.9464   23.5128 C   0  0  0  0  0  0
  -16.5358  -29.9067   23.6343 C   0  0  0  0  0  0
  -16.7245  -28.6454   23.0401 C   0  0  0  0  0  0
  -26.4484  -31.6583   25.0746 C   0  0  0  0  0  0
  -25.3814  -31.3693   26.1549 C   0  0  0  0  0  0
  -27.0306  -30.3034   24.6082 C   0  0  0  0  0  0
  -27.6058  -32.4284   25.7519 C   0  0  0  0  0  0
  -27.5570  -37.1817   24.8464 C   0  0  0  0  0  0
  -21.4103  -29.2970   22.3810 N   0  0  0  0  0  0
  -26.4291  -37.3783   23.9393 N   0  0  0  0  0  0
  -24.6589  -31.0816   22.1073 N   0  0  0  0  0  0
  -23.4200  -28.8079   23.2958 O   0  0  0  0  0  0
  -28.3877  -26.7448   20.1042 O   0  0  0  0  0  0
  -26.5532  -34.8895   22.4664 O   0  0  0  0  0  0
  -23.5305  -32.1403   23.7615 O   0  0  0  0  0  0
  -26.3712  -22.9327   19.8024 C   0  0  0  0  0  0
  -25.6097  -21.7538   19.7371 C   0  0  0  0  0  0
  -26.5147  -23.5913   21.0461 C   0  0  0  0  0  0
  -25.0454  -21.2498   20.9209 C   0  0  0  0  0  0
  -25.7683  -23.0911   22.1418 C   0  0  0  0  0  0
  -26.9709  -23.1302   24.3702 C   0  0  0  0  0  0
  -29.0919  -18.7031   21.0952 C   0  0  0  0  0  0
  -25.8811  -17.3794   22.8320 C   0  0  0  0  0  0
  -27.4413  -24.7938   21.2471 C   0  0  0  0  0  0
  -24.9104  -19.7492   21.1104 C   0  0  0  0  0  0
  -25.8162  -23.7056   23.5352 C   0  0  0  0  0  0
  -28.6938  -16.3414   21.8811 C   0  0  0  0  0  0
  -30.1681  -16.0784   22.2857 C   0  0  0  0  0  0
  -26.3722  -19.3075   21.3468 C   0  0  0  0  0  0
  -28.2570  -25.3229   20.0321 C   0  0  0  0  0  0
  -28.2049  -17.7994   22.0064 C   0  0  2  0  0  0
  -25.0583  -21.9479   22.0722 N   0  0  0  0  0  0
  -30.4779  -14.6905   21.9965 N   0  0  0  0  0  0
  -26.7225  -17.9136   21.7244 N   0  3  1  0  0  0
  -31.4633  -12.4286   19.0070 H   0  0  0  0  0  0
  -30.3750  -11.2286   19.6338 H   0  0  0  0  0  0
  -29.6797  -11.8719   17.3302 H   0  0  0  0  0  0
  -29.6275  -13.5586   17.7797 H   0  0  0  0  0  0
  -27.7974  -11.3311   18.7378 H   0  0  0  0  0  0
  -27.3282  -12.7092   17.7876 H   0  0  0  0  0  0
  -27.7636  -14.2353   19.6537 H   0  0  0  0  0  0
  -28.6745  -11.7589   21.1991 H   0  0  0  0  0  0
  -28.4593  -13.3189   21.9116 H   0  0  0  0  0  0
  -25.2715   -9.5675   22.4731 H   0  0  0  0  0  0
  -23.9976   -7.4597   22.7443 H   0  0  0  0  0  0
  -21.0778   -8.8717   19.8948 H   0  0  0  0  0  0
  -22.3615  -10.9627   19.6136 H   0  0  0  0  0  0
  -21.1998   -7.6135   23.9679 H   0  0  0  0  0  0
  -21.1494   -6.0544   25.9074 H   0  0  0  0  0  0
  -22.0599   -2.7580   23.2902 H   0  0  0  0  0  0
  -22.4191  -11.9847   22.4792 H   0  0  0  0  0  0
  -21.1210  -13.1189   22.2708 H   0  0  0  0  0  0
  -24.5671  -15.6575   20.2408 H   0  0  0  0  0  0
  -26.0933  -15.3712   19.6235 H   0  0  0  0  0  0
  -26.7055  -32.5494   23.1186 H   0  0  0  0  0  0
  -25.0173  -33.9829   25.0592 H   0  0  0  0  0  0
  -22.6731  -31.3067   21.4315 H   0  0  0  0  0  0
  -23.3735  -35.9662   23.3326 H   0  0  0  0  0  0
  -24.3586  -36.8879   22.2037 H   0  0  0  0  0  0
  -23.7272  -37.6538   23.6614 H   0  0  0  0  0  0
  -26.0283  -31.6312   20.6170 H   0  0  0  0  0  0
  -26.8111  -30.8856   21.9841 H   0  0  0  0  0  0
  -28.0918  -29.1344   21.1298 H   0  0  0  0  0  0
  -25.9837  -26.0154   18.9834 H   0  0  0  0  0  0
  -23.9435  -27.3340   19.0270 H   0  0  0  0  0  0
  -23.6988  -30.6226   19.4129 H   0  0  0  0  0  0
  -22.7224  -29.2618   19.8659 H   0  0  0  0  0  0
  -25.1290  -36.1961   25.0837 H   0  0  0  0  0  0
  -20.9933  -28.3071   24.1487 H   0  0  0  0  0  0
  -20.5607  -26.2131   23.3572 H   0  0  0  0  0  0
  -21.6640  -26.7334   22.1247 H   0  0  0  0  0  0
  -19.6888  -25.6264   21.1183 H   0  0  0  0  0  0
  -19.6733  -27.3182   20.6750 H   0  0  0  0  0  0
  -17.4200  -26.6612   21.4007 H   0  0  0  0  0  0
  -18.0332  -25.9993   22.8985 H   0  0  0  0  0  0
  -19.7945  -30.7176   24.2313 H   0  0  0  0  0  0
  -17.5063  -31.6276   24.5093 H   0  0  0  0  0  0
  -15.5369  -30.2997   23.7692 H   0  0  0  0  0  0
  -15.8622  -28.0775   22.7182 H   0  0  0  0  0  0
  -24.5983  -30.6996   25.7960 H   0  0  0  0  0  0
  -24.9033  -32.2868   26.4989 H   0  0  0  0  0  0
  -25.8271  -30.8918   27.0290 H   0  0  0  0  0  0
  -26.2839  -29.6792   24.1157 H   0  0  0  0  0  0
  -27.4115  -29.7249   25.4501 H   0  0  0  0  0  0
  -27.8652  -30.4353   23.9194 H   0  0  0  0  0  0
  -27.2660  -33.3553   26.2153 H   0  0  0  0  0  0
  -28.3895  -32.6875   25.0387 H   0  0  0  0  0  0
  -28.0699  -31.8363   26.5422 H   0  0  0  0  0  0
  -28.2615  -38.0083   24.7481 H   0  0  0  0  0  0
  -28.1055  -36.2624   24.6355 H   0  0  0  0  0  0
  -27.2296  -37.1548   25.8871 H   0  0  0  0  0  0
  -20.9172  -29.8840   21.7231 H   0  0  0  0  0  0
  -26.0172  -38.2844   24.1436 H   0  0  0  0  0  0
  -26.8938  -23.2429   18.9114 H   0  0  0  0  0  0
  -25.6204  -21.1625   18.8317 H   0  0  0  0  0  0
  -26.9906  -23.5533   25.3735 H   0  0  0  0  0  0
  -27.9293  -23.3453   23.9023 H   0  0  0  0  0  0
  -26.8951  -22.0456   24.4694 H   0  0  0  0  0  0
  -30.1527  -18.5924   21.2982 H   0  0  0  0  0  0
  -28.9148  -19.7705   21.2375 H   0  0  0  0  0  0
  -28.9409  -18.4633   20.0410 H   0  0  0  0  0  0
  -24.8216  -17.3863   22.5763 H   0  0  0  0  0  0
  -26.0128  -17.9463   23.7545 H   0  0  0  0  0  0
  -26.1111  -16.3369   23.0498 H   0  0  0  0  0  0
  -28.1522  -24.5655   22.0402 H   0  0  0  0  0  0
  -26.8114  -25.5834   21.6523 H   0  0  0  0  0  0
  -24.4699  -19.2766   20.2303 H   0  0  0  0  0  0
  -24.2649  -19.5488   21.9666 H   0  0  0  0  0  0
  -24.8708  -23.4970   24.0384 H   0  0  0  0  0  0
  -25.8758  -24.7925   23.4846 H   0  0  0  0  0  0
  -28.0749  -15.6862   22.4926 H   0  0  0  0  0  0
  -28.5326  -16.0215   20.8535 H   0  0  0  0  0  0
  -30.2972  -16.2614   23.3531 H   0  0  0  0  0  0
  -30.8935  -16.7028   21.7654 H   0  0  0  0  0  0
  -26.8092  -19.9529   22.1105 H   0  0  0  0  0  0
  -26.8775  -19.5243   20.4066 H   0  0  0  0  0  0
  -27.8484  -25.0763   19.0567 H   0  0  0  0  0  0
  -29.2482  -24.8704   20.0359 H   0  0  0  0  0  0
  -28.3720  -18.1256   23.0343 H   0  0  0  0  0  0
  -29.9819  -14.0152   22.5605 H   0  0  0  0  0  0
  -26.5096  -17.3381   20.9204 H   0  0  0  0  0  0
  1 25  1  0  0  0
  1 30  2  0  0  0
  1 88  1  0  0  0
  2  3  1  0  0  0
  2 25  1  0  0  0
  2 90  1  0  0  0
  2 91  1  0  0  0
  3  4  1  0  0  0
  3 92  1  0  0  0
  3 93  1  0  0  0
  4  5  1  0  0  0
  4 94  1  0  0  0
  4 95  1  0  0  0
  5  6  1  0  0  0
  5 26  1  0  0  0
  5 96  1  0  0  0
  6 25  1  0  0  0
  6 97  1  0  0  0
  6 98  1  0  0  0
  7  8  2  0  0  0
  7 26  1  0  0  0
  7 29  1  0  0  0
  8  9  1  0  0  0
  8 22  1  0  0  0
  9 10  1  0  0  0
  9 27  2  0  0  0
 10 11  2  0  0  0
 10 15  1  0  0  0
 11 12  1  0  0  0
 11 99  1  0  0  0
 12 13  2  0  0  0
 12100  1  0  0  0
 13 14  1  0  0  0
 13 31  1  0  0  0
 14 15  2  0  0  0
 14101  1  0  0  0
 15102  1  0  0  0
 16 17  2  0  0  0
 16 21  1  0  0  0
 16 31  1  0  0  0
 17 18  1  0  0  0
 17103  1  0  0  0
 18 19  2  0  0  0
 18104  1  0  0  0
 19 20  1  0  0  0
 19 24  1  0  0  0
 20 21  2  0  0  0
 20105  1  0  0  0
 21 23  1  0  0  0
 22 28  1  0  0  0
 22 32  2  0  0  0
 26 27  1  0  0  0
 28106  1  0  0  0
 28107  1  0  0  0
 29108  1  0  0  0
 29109  1  0  0  0
 33 34  1  0  0  0
 33 66  1  0  0  0
 33 70  2  0  0  0
 34 36  1  0  0  0
 34 59  1  0  0  0
 34110  1  0  0  0
 35 44  2  0  0  0
 35 45  1  0  0  0
 35 68  1  0  0  0
 36 56  1  0  0  0
 36111  1  0  0  0
 37 39  1  0  0  0
 37 47  1  0  0  0
 37 66  1  0  0  0
 37112  1  0  0  0
 38 43  2  0  0  0
 38 46  1  0  0  0
 38 47  1  0  0  0
 39 64  1  0  0  0
 39 67  2  0  0  0
 40 52  1  0  0  0
 40 53  2  0  0  0
 40 58  1  0  0  0
 41113  1  0  0  0
 41114  1  0  0  0
 41115  1  0  0  0
 41 48  1  0  0  0
 42 43  1  0  0  0
 42 66  1  0  0  0
 42116  1  0  0  0
 42117  1  0  0  0
 43 44  1  0  0  0
 44118  1  0  0  0
 45 46  2  0  0  0
 45119  1  0  0  0
 46120  1  0  0  0
 47121  1  0  0  0
 47122  1  0  0  0
 48 56  1  0  0  0
 48 65  1  0  0  0
 48123  1  0  0  0
 49 50  1  0  0  0
 49 53  1  0  0  0
 49 64  1  0  0  0
 49124  1  0  0  0
 50 51  1  0  0  0
 50125  1  0  0  0
 50126  1  0  0  0
 51 52  1  0  0  0
 51127  1  0  0  0
 51128  1  0  0  0
 52129  1  0  0  0
 52130  1  0  0  0
 53 54  1  0  0  0
 54 55  2  0  0  0
 54131  1  0  0  0
 55 57  1  0  0  0
 55132  1  0  0  0
 56 69  2  0  0  0
 57 58  2  0  0  0
 57133  1  0  0  0
 58134  1  0  0  0
 59 60  1  0  0  0
 59 61  1  0  0  0
 59 62  1  0  0  0
 60135  1  0  0  0
 60136  1  0  0  0
 60137  1  0  0  0
 61138  1  0  0  0
 61139  1  0  0  0
 61140  1  0  0  0
 62141  1  0  0  0
 62142  1  0  0  0
 62143  1  0  0  0
 63 65  1  0  0  0
 63144  1  0  0  0
 63145  1  0  0  0
 63146  1  0  0  0
 64147  1  0  0  0
 65148  1  0  0  0
 68 85  1  0  0  0
 71 72  2  0  0  0
 71 73  1  0  0  0
 71149  1  0  0  0
 72 74  1  0  0  0
 72150  1  0  0  0
 73 75  2  0  0  0
 73 79  1  0  0  0
 74 80  1  0  0  0
 74 87  2  0  0  0
 75 81  1  0  0  0
 75 87  1  0  0  0
 76 81  1  0  0  0
 76151  1  0  0  0
 76152  1  0  0  0
 76153  1  0  0  0
 77154  1  0  0  0
 77155  1  0  0  0
 77156  1  0  0  0
 77 86  1  0  0  0
 78157  1  0  0  0
 78158  1  0  0  0
 78159  1  0  0  0
 78 89  1  0  0  0
 79 85  1  0  0  0
 79160  1  0  0  0
 79161  1  0  0  0
 80 84  1  0  0  0
 80162  1  0  0  0
 80163  1  0  0  0
 81164  1  0  0  0
 81165  1  0  0  0
 82 83  1  0  0  0
 82 86  1  0  0  0
 82166  1  0  0  0
 82167  1  0  0  0
 83 88  1  0  0  0
 83168  1  0  0  0
 83169  1  0  0  0
 84 89  1  0  0  0
 84170  1  0  0  0
 84171  1  0  0  0
 85172  1  0  0  0
 85173  1  0  0  0
 86 89  1  0  0  0
 86174  1  0  0  0
 88175  1  0  0  0
 89176  1  0  0  0
M  CHG  1  89   1
M  ISO  4   1 100  68 101  85 101  88 100
M  END
> <chiral flag>
0

> <version>
0

> <s_m_source_file>
/data/baiqing/PycharmProjects/Reinvent-master-3.2/result/LINK_invent/BTK/process_docking_weight1_custom_sum_contain_oxygen_bond_distance_aromatic_linkinvent_7_9_3/rearranged_h_0050.sdf

> <i_m_source_file_index>
34

> <r_mmod_Potential_Energy-OPLS-2005>
-259.941284179688

> <r_mmod_Stretch_Energy-OPLS-2005>
38.4664268493652

> <r_mmod_Bend_Energy-OPLS-2005>
122.425201416016

> <r_mmod_Torsional_Energy-OPLS-2005>
264.334136962891

> <r_mmod_Improper_Torsional_Energy-OPLS-2005>
16.4673976898193

> <r_mmod_Van_der_Waal_Energy-OPLS-2005>
183.597137451172

> <r_mmod_Electrostatic_Energy-OPLS-2005>
-465.826507568359

> <r_mmod_Solvation_Energy-OPLS-2005>
-436.042724609375

> <b_mmod_Minimization_Converged-OPLS-2005>
0

> <r_mmod_RMS_Derivative-OPLS-2005>
4.23592376708984

$$$$
34
                    3D
 Structure written by MMmdl.
163171  0  0  1  0            999 V2000
  -30.7225  -14.3950   20.6316 C   0  0  0  0  0  0
  -30.4094  -12.2841   19.3969 C   0  0  0  0  0  0
  -29.4797  -12.5280   18.1916 C   0  0  0  0  0  0
  -28.0046  -12.3829   18.6125 C   0  0  0  0  0  0
  -27.6614  -13.2068   19.8831 C   0  0  2  0  0  0
  -28.7005  -12.9398   20.9956 C   0  0  0  0  0  0
  -25.2529  -13.8149   20.5727 C   0  0  0  0  0  0
  -24.1809  -13.0408   20.9212 C   0  0  0  0  0  0
  -24.6376  -11.6884   20.8786 C   0  0  0  0  0  0
  -23.9058  -10.4255   21.0451 C   0  0  0  0  0  0
  -24.3616   -9.4144   21.9215 C   0  0  0  0  0  0
  -23.6298   -8.2180   22.0797 C   0  0  0  0  0  0
  -22.4282   -8.0222   21.3579 C   0  0  0  0  0  0
  -21.9923   -9.0188   20.4670 C   0  0  0  0  0  0
  -22.7241  -10.2075   20.3093 C   0  0  0  0  0  0
  -21.6819   -6.0713   22.5318 C   0  0  0  0  0  0
  -21.3985   -6.5643   23.8240 C   0  0  0  0  0  0
  -21.3656   -5.6817   24.9214 C   0  0  0  0  0  0
  -21.6023   -4.3076   24.7287 C   0  0  0  0  0  0
  -21.8785   -3.8145   23.4423 C   0  0  0  0  0  0
  -21.9181   -4.6946   22.3458 C   0  0  0  0  0  0
  -22.7812  -13.5165   21.1856 C   0  0  0  0  0  0
  -22.1675   -4.2118   21.1051 F   0  0  0  0  0  0
  -21.5618   -3.4572   25.7815 F   0  0  0  0  0  0
  -30.0356  -13.2377   20.4547 N   0  0  0  0  0  0
  -26.3002  -12.9353   20.3419 N   0  0  0  0  0  0
  -25.9308  -11.6520   20.5830 N   0  0  0  0  0  0
  -22.0478  -12.8165   22.0422 N   0  0  0  0  0  0
  -25.4198  -15.1894   20.4194 N   0  0  0  0  0  0
  -31.8003  -14.6270   20.0787 O   0  0  0  0  0  0
  -21.6609   -6.8847   21.4284 O   0  0  0  0  0  0
  -22.3481  -14.5482   20.6712 O   0  0  0  0  0  0
  -24.6085  -31.8694   23.2117 C   0  0  0  0  0  0
  -25.8982  -32.4840   23.8410 C   0  0  1  0  0  0
  -27.2666  -27.4730   20.1033 C   0  0  0  0  0  0
  -25.5869  -33.8637   24.2348 N   0  0  0  0  0  0
  -23.3983  -30.4893   21.5483 C   0  0  2  0  0  0
  -24.8542  -28.9548   20.1184 C   0  0  0  0  0  0
  -22.7383  -29.4653   22.4980 C   0  0  0  0  0  0
  -18.0261  -28.1374   22.8512 C   0  0  0  0  0  0
  -24.1488  -36.7320   23.2642 C   0  0  0  0  0  0
  -25.9203  -30.8447   21.3608 C   0  0  0  0  0  0
  -26.0038  -29.4772   20.7212 C   0  0  0  0  0  0
  -27.2079  -28.7448   20.7236 C   0  0  0  0  0  0
  -26.0985  -26.9582   19.5017 C   0  0  0  0  0  0
  -24.8932  -27.6887   19.5082 C   0  0  0  0  0  0
  -23.6094  -29.8137   20.1646 C   0  0  0  0  0  0
  -25.4106  -36.3114   24.0342 C   0  0  1  0  0  0
  -20.5860  -28.3645   23.1325 C   0  0  2  0  0  0
  -20.6762  -26.9388   22.5424 C   0  0  0  0  0  0
  -19.5745  -26.6379   21.5218 C   0  0  0  0  0  0
  -18.1914  -26.7923   22.1620 C   0  0  0  0  0  0
  -19.1518  -28.8821   23.2920 C   0  0  0  0  0  0
  -18.9454  -30.1433   23.8919 C   0  0  0  0  0  0
  -17.6441  -30.6580   24.0566 C   0  0  0  0  0  0
  -25.9020  -34.9484   23.5139 C   0  0  0  0  0  0
  -16.5327  -29.9086   23.6323 C   0  0  0  0  0  0
  -16.7253  -28.6501   23.0357 C   0  0  0  0  0  0
  -26.4448  -31.6600   25.0711 C   0  0  0  0  0  0
  -25.3742  -31.3680   26.1482 C   0  0  0  0  0  0
  -27.0277  -30.3053   24.6053 C   0  0  0  0  0  0
  -27.6030  -32.4327   25.7473 C   0  0  0  0  0  0
  -27.5595  -37.1808   24.8466 C   0  0  0  0  0  0
  -21.4111  -29.3023   22.3727 N   0  0  0  0  0  0
  -26.4295  -37.3797   23.9417 N   0  0  0  0  0  0
  -24.6596  -31.0831   22.0990 N   0  0  0  0  0  0
  -23.4165  -28.8195   23.3015 O   0  0  0  0  0  0
  -28.4047  -26.6975   20.0295 O   0  0  0  0  0  0
  -26.5587  -34.8920   22.4702 O   0  0  0  0  0  0
  -23.5286  -32.1428   23.7515 O   0  0  0  0  0  0
  -29.5999  -24.1476   21.9729 C   0  0  0  0  0  0
  -30.6458  -22.3916   20.1972 C   0  0  0  0  0  0
  -30.3646  -24.5860   20.8646 C   0  0  0  0  0  0
  -29.8669  -21.9535   21.2966 C   0  0  0  0  0  0
  -27.4498  -20.4414   20.3204 C   0  0  0  0  0  0
  -30.6869  -26.0579   20.6452 C   0  0  0  0  0  0
  -29.6022  -20.4719   21.5521 C   0  0  0  0  0  0
  -29.9978  -17.5938   20.3105 C   0  0  0  0  0  0
  -30.5546  -16.7245   21.4604 C   0  0  0  0  0  0
  -28.6864  -18.3382   20.6621 C   0  0  0  0  0  0
  -29.5103  -27.0278   20.8698 C   0  0  0  0  0  0
  -30.8883  -23.7066   19.9713 N   0  0  0  0  0  0
  -29.3404  -22.8347   22.1855 N   0  0  0  0  0  0
  -30.1065  -15.3335   21.3671 N   0  0  0  0  0  0
  -28.7842  -19.8156   20.4935 N   0  3  1  0  0  0
  -31.4573  -12.3762   19.1001 H   0  0  0  0  0  0
  -30.2869  -11.2607   19.7547 H   0  0  0  0  0  0
  -29.7126  -11.8297   17.3834 H   0  0  0  0  0  0
  -29.6466  -13.5316   17.7953 H   0  0  0  0  0  0
  -27.8071  -11.3283   18.7979 H   0  0  0  0  0  0
  -27.3473  -12.6732   17.7921 H   0  0  0  0  0  0
  -27.7183  -14.2610   19.6131 H   0  0  0  0  0  0
  -28.6676  -11.8876   21.2823 H   0  0  0  0  0  0
  -28.4674  -13.4910   21.9059 H   0  0  0  0  0  0
  -25.2792   -9.5588   22.4738 H   0  0  0  0  0  0
  -24.0005   -7.4555   22.7517 H   0  0  0  0  0  0
  -21.0860   -8.8659   19.8955 H   0  0  0  0  0  0
  -22.3704  -10.9599   19.6189 H   0  0  0  0  0  0
  -21.1930   -7.6152   23.9724 H   0  0  0  0  0  0
  -21.1557   -6.0592   25.9115 H   0  0  0  0  0  0
  -22.0557   -2.7608   23.2967 H   0  0  0  0  0  0
  -22.4202  -11.9883   22.4861 H   0  0  0  0  0  0
  -21.1044  -13.1080   22.2565 H   0  0  0  0  0  0
  -24.6423  -15.8346   20.5162 H   0  0  0  0  0  0
  -26.2656  -15.6338   20.0880 H   0  0  0  0  0  0
  -26.7065  -32.5574   23.1199 H   0  0  0  0  0  0
  -25.0031  -33.9808   25.0506 H   0  0  0  0  0  0
  -22.6868  -31.3050   21.4061 H   0  0  0  0  0  0
  -23.3742  -35.9661   23.3285 H   0  0  0  0  0  0
  -24.3589  -36.8943   22.2062 H   0  0  0  0  0  0
  -23.7233  -37.6522   23.6654 H   0  0  0  0  0  0
  -26.0274  -31.6025   20.5829 H   0  0  0  0  0  0
  -26.8083  -30.9064   21.9753 H   0  0  0  0  0  0
  -28.0769  -29.1792   21.1938 H   0  0  0  0  0  0
  -26.1232  -25.9868   19.0272 H   0  0  0  0  0  0
  -24.0108  -27.2776   19.0394 H   0  0  0  0  0  0
  -23.7119  -30.5844   19.3999 H   0  0  0  0  0  0
  -22.7361  -29.2246   19.8761 H   0  0  0  0  0  0
  -25.1271  -36.1997   25.0836 H   0  0  0  0  0  0
  -20.9972  -28.3232   24.1439 H   0  0  0  0  0  0
  -20.5677  -26.2254   23.3608 H   0  0  0  0  0  0
  -21.6628  -26.7439   22.1210 H   0  0  0  0  0  0
  -19.6894  -25.6305   21.1222 H   0  0  0  0  0  0
  -19.6675  -27.3202   20.6769 H   0  0  0  0  0  0
  -17.4193  -26.6689   21.4015 H   0  0  0  0  0  0
  -18.0291  -26.0058   22.9011 H   0  0  0  0  0  0
  -19.7928  -30.7261   24.2298 H   0  0  0  0  0  0
  -17.4999  -31.6270   24.5160 H   0  0  0  0  0  0
  -15.5349  -30.2990   23.7628 H   0  0  0  0  0  0
  -15.8656  -28.0821   22.7051 H   0  0  0  0  0  0
  -24.5935  -30.6999   25.7827 H   0  0  0  0  0  0
  -24.8909  -32.2818   26.4952 H   0  0  0  0  0  0
  -25.8140  -30.8860   27.0219 H   0  0  0  0  0  0
  -26.2795  -29.6827   24.1135 H   0  0  0  0  0  0
  -27.4085  -29.7288   25.4487 H   0  0  0  0  0  0
  -27.8614  -30.4383   23.9155 H   0  0  0  0  0  0
  -27.2653  -33.3631   26.2065 H   0  0  0  0  0  0
  -28.3839  -32.6891   25.0296 H   0  0  0  0  0  0
  -28.0696  -31.8438   26.5385 H   0  0  0  0  0  0
  -28.2594  -38.0131   24.7544 H   0  0  0  0  0  0
  -28.1111  -36.2654   24.6243 H   0  0  0  0  0  0
  -27.2313  -37.1408   25.8871 H   0  0  0  0  0  0
  -20.9256  -29.8745   21.6955 H   0  0  0  0  0  0
  -26.0182  -38.2873   24.1433 H   0  0  0  0  0  0
  -29.2157  -24.8423   22.7067 H   0  0  0  0  0  0
  -31.0680  -21.6882   19.4934 H   0  0  0  0  0  0
  -27.5123  -21.5195   20.1809 H   0  0  0  0  0  0
  -26.8136  -20.2517   21.1844 H   0  0  0  0  0  0
  -26.9541  -20.0470   19.4330 H   0  0  0  0  0  0
  -31.0754  -26.2014   19.6365 H   0  0  0  0  0  0
  -31.5014  -26.3203   21.3191 H   0  0  0  0  0  0
  -29.1045  -20.3553   22.5170 H   0  0  0  0  0  0
  -30.5705  -19.9764   21.6498 H   0  0  0  0  0  0
  -29.8196  -16.9780   19.4222 H   0  0  0  0  0  0
  -30.7720  -18.2978   20.0008 H   0  0  0  0  0  0
  -30.2831  -17.1345   22.4340 H   0  0  0  0  0  0
  -31.6465  -16.7607   21.4311 H   0  0  0  0  0  0
  -28.3482  -18.1005   21.6726 H   0  0  0  0  0  0
  -27.9097  -17.9468   20.0050 H   0  0  0  0  0  0
  -29.8674  -28.0369   20.6626 H   0  0  0  0  0  0
  -29.2007  -27.0014   21.9161 H   0  0  0  0  0  0
  -29.2330  -15.0837   21.8106 H   0  0  0  0  0  0
  -29.2652  -19.9689   19.6215 H   0  0  0  0  0  0
  1 25  1  0  0  0
  1 30  2  0  0  0
  1 84  1  0  0  0
  2  3  1  0  0  0
  2 25  1  0  0  0
  2 86  1  0  0  0
  2 87  1  0  0  0
  3  4  1  0  0  0
  3 88  1  0  0  0
  3 89  1  0  0  0
  4  5  1  0  0  0
  4 90  1  0  0  0
  4 91  1  0  0  0
  5  6  1  0  0  0
  5 26  1  0  0  0
  5 92  1  0  0  0
  6 25  1  0  0  0
  6 93  1  0  0  0
  6 94  1  0  0  0
  7  8  2  0  0  0
  7 26  1  0  0  0
  7 29  1  0  0  0
  8  9  1  0  0  0
  8 22  1  0  0  0
  9 10  1  0  0  0
  9 27  2  0  0  0
 10 11  2  0  0  0
 10 15  1  0  0  0
 11 12  1  0  0  0
 11 95  1  0  0  0
 12 13  2  0  0  0
 12 96  1  0  0  0
 13 14  1  0  0  0
 13 31  1  0  0  0
 14 15  2  0  0  0
 14 97  1  0  0  0
 15 98  1  0  0  0
 16 17  2  0  0  0
 16 21  1  0  0  0
 16 31  1  0  0  0
 17 18  1  0  0  0
 17 99  1  0  0  0
 18 19  2  0  0  0
 18100  1  0  0  0
 19 20  1  0  0  0
 19 24  1  0  0  0
 20 21  2  0  0  0
 20101  1  0  0  0
 21 23  1  0  0  0
 22 28  1  0  0  0
 22 32  2  0  0  0
 26 27  1  0  0  0
 28102  1  0  0  0
 28103  1  0  0  0
 29104  1  0  0  0
 29105  1  0  0  0
 33 34  1  0  0  0
 33 66  1  0  0  0
 33 70  2  0  0  0
 34 36  1  0  0  0
 34 59  1  0  0  0
 34106  1  0  0  0
 35 44  2  0  0  0
 35 45  1  0  0  0
 35 68  1  0  0  0
 36 56  1  0  0  0
 36107  1  0  0  0
 37 39  1  0  0  0
 37 47  1  0  0  0
 37 66  1  0  0  0
 37108  1  0  0  0
 38 43  2  0  0  0
 38 46  1  0  0  0
 38 47  1  0  0  0
 39 64  1  0  0  0
 39 67  2  0  0  0
 40 52  1  0  0  0
 40 53  2  0  0  0
 40 58  1  0  0  0
 41109  1  0  0  0
 41110  1  0  0  0
 41111  1  0  0  0
 41 48  1  0  0  0
 42 43  1  0  0  0
 42 66  1  0  0  0
 42112  1  0  0  0
 42113  1  0  0  0
 43 44  1  0  0  0
 44114  1  0  0  0
 45 46  2  0  0  0
 45115  1  0  0  0
 46116  1  0  0  0
 47117  1  0  0  0
 47118  1  0  0  0
 48 56  1  0  0  0
 48 65  1  0  0  0
 48119  1  0  0  0
 49 50  1  0  0  0
 49 53  1  0  0  0
 49 64  1  0  0  0
 49120  1  0  0  0
 50 51  1  0  0  0
 50121  1  0  0  0
 50122  1  0  0  0
 51 52  1  0  0  0
 51123  1  0  0  0
 51124  1  0  0  0
 52125  1  0  0  0
 52126  1  0  0  0
 53 54  1  0  0  0
 54 55  2  0  0  0
 54127  1  0  0  0
 55 57  1  0  0  0
 55128  1  0  0  0
 56 69  2  0  0  0
 57 58  2  0  0  0
 57129  1  0  0  0
 58130  1  0  0  0
 59 60  1  0  0  0
 59 61  1  0  0  0
 59 62  1  0  0  0
 60131  1  0  0  0
 60132  1  0  0  0
 60133  1  0  0  0
 61134  1  0  0  0
 61135  1  0  0  0
 61136  1  0  0  0
 62137  1  0  0  0
 62138  1  0  0  0
 62139  1  0  0  0
 63 65  1  0  0  0
 63140  1  0  0  0
 63141  1  0  0  0
 63142  1  0  0  0
 64143  1  0  0  0
 65144  1  0  0  0
 68 81  1  0  0  0
 71 73  2  0  0  0
 71 83  1  0  0  0
 71145  1  0  0  0
 72 74  1  0  0  0
 72 82  2  0  0  0
 72146  1  0  0  0
 73 76  1  0  0  0
 73 82  1  0  0  0
 74 77  1  0  0  0
 74 83  2  0  0  0
 75147  1  0  0  0
 75148  1  0  0  0
 75149  1  0  0  0
 75 85  1  0  0  0
 76 81  1  0  0  0
 76150  1  0  0  0
 76151  1  0  0  0
 77 85  1  0  0  0
 77152  1  0  0  0
 77153  1  0  0  0
 78 79  1  0  0  0
 78 80  1  0  0  0
 78154  1  0  0  0
 78155  1  0  0  0
 79 84  1  0  0  0
 79156  1  0  0  0
 79157  1  0  0  0
 80 85  1  0  0  0
 80158  1  0  0  0
 80159  1  0  0  0
 81160  1  0  0  0
 81161  1  0  0  0
 84162  1  0  0  0
 85163  1  0  0  0
M  CHG  1  85   1
M  ISO  4   1 100  68 101  81 101  84 100
M  END
> <chiral flag>
0

> <version>
0

> <s_m_source_file>
/data/baiqing/PycharmProjects/Reinvent-master-3.2/result/LINK_invent/BTK/process_docking_weight1_custom_sum_contain_oxygen_bond_distance_aromatic_linkinvent_7_9_3/rearranged_h_0050.sdf

> <i_m_source_file_index>
35

> <r_mmod_Potential_Energy-OPLS-2005>
-169.702774047852

> <r_mmod_Stretch_Energy-OPLS-2005>
36.4913597106934

> <r_mmod_Bend_Energy-OPLS-2005>
96.8229217529297

> <r_mmod_Torsional_Energy-OPLS-2005>
208.844833374023

> <r_mmod_Improper_Torsional_Energy-OPLS-2005>
2.85585236549377

> <r_mmod_Van_der_Waal_Energy-OPLS-2005>
162.685775756836

> <r_mmod_Electrostatic_Energy-OPLS-2005>
-206.306594848633

> <r_mmod_Solvation_Energy-OPLS-2005>
-477.590026855469

> <b_mmod_Minimization_Converged-OPLS-2005>
0

> <r_mmod_RMS_Derivative-OPLS-2005>
4.31640577316284

$$$$
36
                    3D
 Structure written by MMmdl.
162171  0  0  1  0            999 V2000
  -29.7518  -17.0105   20.3224 C   0  0  0  0  0  0
  -30.1969  -14.1755   19.5429 C   0  0  0  0  0  0
  -29.5584  -13.1657   18.4937 C   0  0  0  0  0  0
  -28.2972  -12.4706   19.0033 C   0  0  0  0  0  0
  -27.5623  -13.5013   19.8609 C   0  0  2  0  0  0
  -28.4184  -14.3642   20.8838 C   0  0  0  0  0  0
  -25.1958  -13.8640   20.6013 C   0  0  0  0  0  0
  -24.1559  -13.0536   20.9348 C   0  0  0  0  0  0
  -24.6596  -11.7153   20.8842 C   0  0  0  0  0  0
  -23.9367  -10.4373   21.0355 C   0  0  0  0  0  0
  -24.3843   -9.4276   21.9144 C   0  0  0  0  0  0
  -23.6460   -8.2343   22.0730 C   0  0  0  0  0  0
  -22.4419   -8.0389   21.3568 C   0  0  0  0  0  0
  -22.0135   -9.0349   20.4621 C   0  0  0  0  0  0
  -22.7519  -10.2207   20.3006 C   0  0  0  0  0  0
  -21.6916   -6.0856   22.5296 C   0  0  0  0  0  0
  -21.4041   -6.5714   23.8236 C   0  0  0  0  0  0
  -21.3682   -5.6834   24.9179 C   0  0  0  0  0  0
  -21.6054   -4.3096   24.7194 C   0  0  0  0  0  0
  -21.8815   -3.8227   23.4293 C   0  0  0  0  0  0
  -21.9210   -4.7081   22.3380 C   0  0  0  0  0  0
  -22.7533  -13.5068   21.1975 C   0  0  0  0  0  0
  -22.1692   -4.2271   21.0955 F   0  0  0  0  0  0
  -21.5626   -3.4555   25.7688 F   0  0  0  0  0  0
  -29.3219  -15.4249   20.1525 N   0  0  0  0  0  0
  -26.2753  -13.0397   20.3730 N   0  0  0  0  0  0
  -25.9630  -11.7239   20.5858 N   0  0  0  0  0  0
  -22.0325  -12.7913   22.0506 N   0  0  0  0  0  0
  -25.3113  -15.2379   20.4326 N   0  0  0  0  0  0
  -30.9736  -16.5937   20.3270 O   0  0  0  0  0  0
  -21.6729   -6.9023   21.4284 O   0  0  0  0  0  0
  -22.3125  -14.5350   20.6855 O   0  0  0  0  0  0
  -24.7717  -31.7388   23.1671 C   0  0  0  0  0  0
  -25.9936  -32.4196   23.8125 C   0  0  1  0  0  0
  -27.6570  -25.8608   20.6189 C   0  0  0  0  0  0
  -25.6165  -33.8072   24.1730 N   0  0  0  0  0  0
  -23.7102  -30.2263   21.5736 C   0  0  2  0  0  0
  -25.3057  -28.1595   20.2897 C   0  0  0  0  0  0
  -22.8303  -29.4169   22.5645 C   0  0  0  0  0  0
  -18.0297  -28.1487   22.8341 C   0  0  0  0  0  0
  -24.1499  -36.7072   23.2601 C   0  0  0  0  0  0
  -26.2311  -30.0891   21.7524 C   0  0  0  0  0  0
  -26.2465  -28.4720   21.3757 C   0  0  0  0  0  0
  -27.3585  -27.3214   21.6031 C   0  0  0  0  0  0
  -26.8983  -25.4111   18.9029 C   0  0  0  0  0  0
  -25.8099  -26.2980   18.4654 C   0  0  0  0  0  0
  -24.1493  -29.2395   20.3567 C   0  0  0  0  0  0
  -25.4183  -36.2810   24.0213 C   0  0  1  0  0  0
  -20.5983  -28.3999   23.1061 C   0  0  2  0  0  0
  -20.6822  -26.9655   22.5279 C   0  0  0  0  0  0
  -19.5809  -26.6419   21.5118 C   0  0  0  0  0  0
  -18.1972  -26.7971   22.1563 C   0  0  0  0  0  0
  -19.1565  -28.9080   23.2573 C   0  0  0  0  0  0
  -18.9450  -30.1586   23.8709 C   0  0  0  0  0  0
  -17.6442  -30.6660   24.0511 C   0  0  0  0  0  0
  -25.9230  -34.9168   23.4834 C   0  0  0  0  0  0
  -16.5322  -29.9101   23.6302 C   0  0  0  0  0  0
  -16.7251  -28.6491   23.0343 C   0  0  0  0  0  0
  -26.4734  -31.6603   25.1086 C   0  0  0  0  0  0
  -25.3380  -31.4238   26.1331 C   0  0  0  0  0  0
  -27.0652  -30.2722   24.7936 C   0  0  0  0  0  0
  -27.6044  -32.4668   25.7699 C   0  0  0  0  0  0
  -27.5588  -37.1694   24.8468 C   0  0  0  0  0  0
  -21.4908  -29.3194   22.3737 N   0  0  0  0  0  0
  -26.4330  -37.3622   23.9360 N   0  0  0  0  0  0
  -24.9354  -30.7571   22.2165 N   0  0  0  0  0  0
  -23.3972  -28.7937   23.4614 O   0  0  0  0  0  0
  -26.8774  -24.8203   19.3328 O   0  0  0  0  0  0
  -26.5941  -34.8697   22.4491 O   0  0  0  0  0  0
  -23.6460  -32.0962   23.5694 O   0  0  0  0  0  0
  -25.5286  -28.4168   18.0880 C   0  0  0  0  0  0
  -23.8836  -27.3360   18.5557 C   0  0  0  0  0  0
  -25.5065  -25.9769   20.6591 C   0  0  0  0  0  0
  -26.3481  -24.1063   21.2571 C   0  0  0  0  0  0
  -28.9383  -26.4754   18.8945 C   0  0  0  0  0  0
  -28.0579  -23.3494   20.4664 C   0  0  0  0  0  0
  -23.5012  -25.5448   16.5949 C   0  0  0  0  0  0
  -22.2201  -24.9189   18.4783 C   0  0  0  0  0  0
  -30.4559  -19.3380   21.2025 C   0  0  0  0  0  0
  -28.4439  -20.9785   20.3538 C   0  0  0  0  0  0
  -24.9719  -24.1858   18.8580 C   0  0  0  0  0  0
  -23.6152  -25.5193   18.1648 C   0  0  0  0  0  0
  -29.1816  -24.7294   19.3990 N   0  0  0  0  0  0
  -27.1955  -27.6093   19.3069 N   0  0  0  0  0  0
  -24.0216  -26.2781   20.0376 N   0  3  0  0  0  0
  -29.3062  -18.8632   20.4465 N   0  0  0  0  0  0
  -30.9909  -14.6488   18.9602 H   0  0  0  0  0  0
  -30.7146  -13.6526   20.3469 H   0  0  0  0  0  0
  -30.3053  -12.4352   18.1725 H   0  0  0  0  0  0
  -29.2786  -13.7554   17.6140 H   0  0  0  0  0  0
  -28.5723  -11.6124   19.6123 H   0  0  0  0  0  0
  -27.6744  -12.1110   18.1816 H   0  0  0  0  0  0
  -27.2602  -14.2347   19.1117 H   0  0  0  0  0  0
  -28.9400  -13.7484   21.6131 H   0  0  0  0  0  0
  -27.7383  -14.9379   21.5142 H   0  0  0  0  0  0
  -25.3012   -9.5766   22.4686 H   0  0  0  0  0  0
  -24.0195   -7.4760   22.7461 H   0  0  0  0  0  0
  -21.1077   -8.8918   19.8871 H   0  0  0  0  0  0
  -22.4031  -10.9750   19.6065 H   0  0  0  0  0  0
  -21.2031   -7.6214   23.9785 H   0  0  0  0  0  0
  -21.1502   -6.0540   25.9095 H   0  0  0  0  0  0
  -22.0551   -2.7686   23.2738 H   0  0  0  0  0  0
  -22.4162  -11.9636   22.4808 H   0  0  0  0  0  0
  -21.0898  -13.0720   22.2793 H   0  0  0  0  0  0
  -24.5178  -15.8609   20.5403 H   0  0  0  0  0  0
  -26.1476  -15.7110   20.1200 H   0  0  0  0  0  0
  -26.7962  -32.4084   23.0675 H   0  0  0  0  0  0
  -24.9857  -33.8999   24.9552 H   0  0  0  0  0  0
  -23.0713  -31.0495   21.2047 H   0  0  0  0  0  0
  -23.3839  -35.9363   23.3314 H   0  0  0  0  0  0
  -24.3515  -36.8769   22.2028 H   0  0  0  0  0  0
  -23.7194  -37.6176   23.6699 H   0  0  0  0  0  0
  -26.4819  -30.6000   20.8192 H   0  0  0  0  0  0
  -27.1117  -30.2941   22.3425 H   0  0  0  0  0  0
  -28.0586  -27.6210   22.3676 H   0  0  0  0  0  0
  -27.3701  -25.4276   17.7443 H   0  0  0  0  0  0
  -25.7266  -26.3095   17.3745 H   0  0  0  0  0  0
  -24.3545  -29.8456   19.4619 H   0  0  0  0  0  0
  -23.2709  -28.5627   20.3099 H   0  0  0  0  0  0
  -25.1423  -36.1581   25.0751 H   0  0  0  0  0  0
  -20.9353  -28.3340   24.1491 H   0  0  0  0  0  0
  -20.5717  -26.2572   23.3525 H   0  0  0  0  0  0
  -21.6645  -26.7716   22.1080 H   0  0  0  0  0  0
  -19.7066  -25.6256   21.1302 H   0  0  0  0  0  0
  -19.6670  -27.3003   20.6464 H   0  0  0  0  0  0
  -17.4187  -26.6480   21.4045 H   0  0  0  0  0  0
  -18.0636  -26.0171   22.9055 H   0  0  0  0  0  0
  -19.7897  -30.7381   24.2081 H   0  0  0  0  0  0
  -17.4997  -31.6296   24.5233 H   0  0  0  0  0  0
  -15.5301  -30.3002   23.7757 H   0  0  0  0  0  0
  -15.8636  -28.0728   22.7298 H   0  0  0  0  0  0
  -24.5754  -30.7421   25.7525 H   0  0  0  0  0  0
  -24.8293  -32.3512   26.3940 H   0  0  0  0  0  0
  -25.7117  -30.9880   27.0603 H   0  0  0  0  0  0
  -26.3519  -29.5909   24.3231 H   0  0  0  0  0  0
  -27.3670  -29.7809   25.7208 H   0  0  0  0  0  0
  -27.9689  -30.3426   24.1857 H   0  0  0  0  0  0
  -27.2617  -33.4286   26.1482 H   0  0  0  0  0  0
  -28.3994  -32.6722   25.0525 H   0  0  0  0  0  0
  -28.0446  -31.9341   26.6116 H   0  0  0  0  0  0
  -28.2634  -37.9969   24.7544 H   0  0  0  0  0  0
  -28.1068  -36.2500   24.6358 H   0  0  0  0  0  0
  -27.2235  -37.1365   25.8841 H   0  0  0  0  0  0
  -21.0684  -29.8534   21.6220 H   0  0  0  0  0  0
  -26.0190  -38.2714   24.1237 H   0  0  0  0  0  0
  -25.6727  -28.9369   17.1637 H   0  0  0  0  0  0
  -25.6915  -23.3766   21.7254 H   0  0  0  0  0  0
  -29.4645  -26.9117   18.0381 H   0  0  0  0  0  0
  -22.9668  -26.4501   16.2062 H   0  0  0  0  0  0
  -22.9903  -24.6775   16.2107 H   0  0  0  0  0  0
  -24.4739  -25.4937   16.0875 H   0  0  0  0  0  0
  -21.4730  -25.5530   18.0070 H   0  0  0  0  0  0
  -21.9393  -24.5901   19.4756 H   0  0  0  0  0  0
  -22.1892  -23.9568   17.9348 H   0  0  0  0  0  0
  -30.7663  -20.3250   20.8761 H   0  0  0  0  0  0
  -31.3493  -18.7180   21.1376 H   0  0  0  0  0  0
  -30.1444  -19.4037   22.2438 H   0  0  0  0  0  0
  -29.2749  -21.2477   19.7019 H   0  0  0  0  0  0
  -28.6525  -21.0512   21.4159 H   0  0  0  0  0  0
  -25.0869  -23.4676   18.0573 H   0  0  0  0  0  0
  -24.4944  -23.6646   19.6702 H   0  0  0  0  0  0
  -23.2453  -25.6872   20.3502 H   0  0  0  0  0  0
  1 25  1  0  0  0
  1 30  2  0  0  0
  1 86  1  0  0  0
  2  3  1  0  0  0
  2 25  1  0  0  0
  2 87  1  0  0  0
  2 88  1  0  0  0
  3  4  1  0  0  0
  3 89  1  0  0  0
  3 90  1  0  0  0
  4  5  1  0  0  0
  4 91  1  0  0  0
  4 92  1  0  0  0
  5  6  1  0  0  0
  5 26  1  0  0  0
  5 93  1  0  0  0
  6 25  1  0  0  0
  6 94  1  0  0  0
  6 95  1  0  0  0
  7  8  2  0  0  0
  7 26  1  0  0  0
  7 29  1  0  0  0
  8  9  1  0  0  0
  8 22  1  0  0  0
  9 10  1  0  0  0
  9 27  2  0  0  0
 10 11  2  0  0  0
 10 15  1  0  0  0
 11 12  1  0  0  0
 11 96  1  0  0  0
 12 13  2  0  0  0
 12 97  1  0  0  0
 13 14  1  0  0  0
 13 31  1  0  0  0
 14 15  2  0  0  0
 14 98  1  0  0  0
 15 99  1  0  0  0
 16 17  2  0  0  0
 16 21  1  0  0  0
 16 31  1  0  0  0
 17 18  1  0  0  0
 17100  1  0  0  0
 18 19  2  0  0  0
 18101  1  0  0  0
 19 20  1  0  0  0
 19 24  1  0  0  0
 20 21  2  0  0  0
 20102  1  0  0  0
 21 23  1  0  0  0
 22 28  1  0  0  0
 22 32  2  0  0  0
 26 27  1  0  0  0
 28103  1  0  0  0
 28104  1  0  0  0
 29105  1  0  0  0
 29106  1  0  0  0
 33 34  1  0  0  0
 33 66  1  0  0  0
 33 70  2  0  0  0
 34 36  1  0  0  0
 34 59  1  0  0  0
 34107  1  0  0  0
 35 44  2  0  0  0
 35 45  1  0  0  0
 35 68  1  0  0  0
 36 56  1  0  0  0
 36108  1  0  0  0
 37 39  1  0  0  0
 37 47  1  0  0  0
 37 66  1  0  0  0
 37109  1  0  0  0
 38 43  2  0  0  0
 38 46  1  0  0  0
 38 47  1  0  0  0
 39 64  1  0  0  0
 39 67  2  0  0  0
 40 52  1  0  0  0
 40 53  2  0  0  0
 40 58  1  0  0  0
 41110  1  0  0  0
 41111  1  0  0  0
 41112  1  0  0  0
 41 48  1  0  0  0
 42 43  1  0  0  0
 42 66  1  0  0  0
 42113  1  0  0  0
 42114  1  0  0  0
 43 44  1  0  0  0
 44115  1  0  0  0
 45 46  2  0  0  0
 45116  1  0  0  0
 46117  1  0  0  0
 47118  1  0  0  0
 47119  1  0  0  0
 48 56  1  0  0  0
 48 65  1  0  0  0
 48120  1  0  0  0
 49 50  1  0  0  0
 49 53  1  0  0  0
 49 64  1  0  0  0
 49121  1  0  0  0
 50 51  1  0  0  0
 50122  1  0  0  0
 50123  1  0  0  0
 51 52  1  0  0  0
 51124  1  0  0  0
 51125  1  0  0  0
 52126  1  0  0  0
 52127  1  0  0  0
 53 54  1  0  0  0
 54 55  2  0  0  0
 54128  1  0  0  0
 55 57  1  0  0  0
 55129  1  0  0  0
 56 69  2  0  0  0
 57 58  2  0  0  0
 57130  1  0  0  0
 58131  1  0  0  0
 59 60  1  0  0  0
 59 61  1  0  0  0
 59 62  1  0  0  0
 60132  1  0  0  0
 60133  1  0  0  0
 60134  1  0  0  0
 61135  1  0  0  0
 61136  1  0  0  0
 61137  1  0  0  0
 62138  1  0  0  0
 62139  1  0  0  0
 62140  1  0  0  0
 63 65  1  0  0  0
 63141  1  0  0  0
 63142  1  0  0  0
 63143  1  0  0  0
 64144  1  0  0  0
 65145  1  0  0  0
 68 81  1  0  0  0
 71 72  2  0  0  0
 71 84  1  0  0  0
 71146  1  0  0  0
 72 82  1  0  0  0
 72 85  1  0  0  0
 73 74  1  0  0  0
 73 84  1  0  0  0
 73 85  2  0  0  0
 74 76  2  0  0  0
 74147  1  0  0  0
 75 83  2  0  0  0
 75 84  1  0  0  0
 75148  1  0  0  0
 76 80  1  0  0  0
 76 83  1  0  0  0
 77149  1  0  0  0
 77150  1  0  0  0
 77151  1  0  0  0
 77 82  1  0  0  0
 78 82  1  0  0  0
 78152  1  0  0  0
 78153  1  0  0  0
 78154  1  0  0  0
 79 86  1  0  0  0
 79155  1  0  0  0
 79156  1  0  0  0
 79157  1  0  0  0
 80 86  1  0  0  0
 80158  1  0  0  0
 80159  1  0  0  0
 81 82  1  0  0  0
 81160  1  0  0  0
 81161  1  0  0  0
 85162  1  0  0  0
M  CHG  1  85   1
M  ISO  4   1 100  68 101  81 101  86 100
M  END
> <chiral flag>
0

> <version>
0

> <s_m_source_file>
/data/baiqing/PycharmProjects/Reinvent-master-3.2/result/LINK_invent/BTK/process_docking_weight1_custom_sum_contain_oxygen_bond_distance_aromatic_linkinvent_7_9_3/rearranged_h_0050.sdf

> <i_m_source_file_index>
36

> <r_mmod_Potential_Energy-OPLS-2005>
35428.7421875

> <r_mmod_Stretch_Energy-OPLS-2005>
20573.216796875

> <r_mmod_Bend_Energy-OPLS-2005>
2797.18701171875

> <r_mmod_Torsional_Energy-OPLS-2005>
758.215454101562

> <r_mmod_Improper_Torsional_Energy-OPLS-2005>
120.91015625

> <r_mmod_Van_der_Waal_Energy-OPLS-2005>
7156.55712890625

> <r_mmod_Electrostatic_Energy-OPLS-2005>
-488.503753662109

> <r_mmod_Solvation_Energy-OPLS-2005>
-425.033355712891

> <b_mmod_Minimization_Converged-OPLS-2005>
0

> <r_mmod_RMS_Derivative-OPLS-2005>
72.7488861083984

$$$$
37
                    3D
 Structure written by MMmdl.
165173  0  0  1  0            999 V2000
  -30.7721  -14.3649   20.7093 C   0  0  0  0  0  0
  -30.4161  -12.3010   19.3900 C   0  0  0  0  0  0
  -29.4802  -12.5318   18.1921 C   0  0  0  0  0  0
  -28.0066  -12.3822   18.6147 C   0  0  0  0  0  0
  -27.6686  -13.2013   19.8872 C   0  0  2  0  0  0
  -28.7125  -12.9377   20.9976 C   0  0  0  0  0  0
  -25.2542  -13.8125   20.5562 C   0  0  0  0  0  0
  -24.1828  -13.0403   20.9169 C   0  0  0  0  0  0
  -24.6404  -11.6881   20.8753 C   0  0  0  0  0  0
  -23.9077  -10.4269   21.0417 C   0  0  0  0  0  0
  -24.3631   -9.4186   21.9192 C   0  0  0  0  0  0
  -23.6301   -8.2225   22.0755 C   0  0  0  0  0  0
  -22.4280   -8.0284   21.3556 C   0  0  0  0  0  0
  -21.9910   -9.0263   20.4663 C   0  0  0  0  0  0
  -22.7247  -10.2139   20.3071 C   0  0  0  0  0  0
  -21.6862   -6.0738   22.5288 C   0  0  0  0  0  0
  -21.4016   -6.5638   23.8219 C   0  0  0  0  0  0
  -21.3663   -5.6799   24.9186 C   0  0  0  0  0  0
  -21.6054   -4.3057   24.7233 C   0  0  0  0  0  0
  -21.8828   -3.8145   23.4357 C   0  0  0  0  0  0
  -21.9196   -4.6958   22.3412 C   0  0  0  0  0  0
  -22.7845  -13.5193   21.1822 C   0  0  0  0  0  0
  -22.1662   -4.2141   21.0990 F   0  0  0  0  0  0
  -21.5622   -3.4534   25.7743 F   0  0  0  0  0  0
  -30.0465  -13.2420   20.4594 N   0  0  0  0  0  0
  -26.3049  -12.9323   20.3419 N   0  0  0  0  0  0
  -25.9337  -11.6478   20.5825 N   0  0  0  0  0  0
  -22.0489  -12.8235   22.0434 N   0  0  0  0  0  0
  -25.4066  -15.1819   20.3703 N   0  0  0  0  0  0
  -31.7687  -14.6536   20.0361 O   0  0  0  0  0  0
  -21.6640   -6.8884   21.4261 O   0  0  0  0  0  0
  -22.3526  -14.5464   20.6606 O   0  0  0  0  0  0
  -24.6119  -31.8697   23.2128 C   0  0  0  0  0  0
  -25.9030  -32.4830   23.8416 C   0  0  1  0  0  0
  -27.2382  -27.4645   20.0705 C   0  0  0  0  0  0
  -25.5906  -33.8632   24.2346 N   0  0  0  0  0  0
  -23.3958  -30.4933   21.5542 C   0  0  2  0  0  0
  -24.8387  -28.9585   20.1188 C   0  0  0  0  0  0
  -22.7387  -29.4665   22.5027 C   0  0  0  0  0  0
  -18.0267  -28.1372   22.8492 C   0  0  0  0  0  0
  -24.1482  -36.7315   23.2637 C   0  0  0  0  0  0
  -25.9223  -30.8402   21.3623 C   0  0  0  0  0  0
  -25.9968  -29.4763   20.7100 C   0  0  0  0  0  0
  -27.1949  -28.7336   20.6865 C   0  0  0  0  0  0
  -26.0569  -26.9481   19.4881 C   0  0  0  0  0  0
  -24.8611  -27.6906   19.5126 C   0  0  0  0  0  0
  -23.6005  -29.8227   20.1696 C   0  0  0  0  0  0
  -25.4105  -36.3117   24.0338 C   0  0  1  0  0  0
  -20.5854  -28.3644   23.1335 C   0  0  2  0  0  0
  -20.6758  -26.9389   22.5419 C   0  0  0  0  0  0
  -19.5736  -26.6379   21.5212 C   0  0  0  0  0  0
  -18.1913  -26.7921   22.1618 C   0  0  0  0  0  0
  -19.1517  -28.8827   23.2911 C   0  0  0  0  0  0
  -18.9447  -30.1441   23.8906 C   0  0  0  0  0  0
  -17.6448  -30.6580   24.0564 C   0  0  0  0  0  0
  -25.9028  -34.9479   23.5129 C   0  0  0  0  0  0
  -16.5341  -29.9077   23.6333 C   0  0  0  0  0  0
  -16.7259  -28.6498   23.0345 C   0  0  0  0  0  0
  -26.4473  -31.6615   25.0743 C   0  0  0  0  0  0
  -25.3757  -31.3708   26.1507 C   0  0  0  0  0  0
  -27.0312  -30.3068   24.6109 C   0  0  0  0  0  0
  -27.6055  -32.4335   25.7497 C   0  0  0  0  0  0
  -27.5576  -37.1814   24.8466 C   0  0  0  0  0  0
  -21.4123  -29.3023   22.3760 N   0  0  0  0  0  0
  -26.4291  -37.3803   23.9408 N   0  0  0  0  0  0
  -24.6613  -31.0817   22.1017 N   0  0  0  0  0  0
  -23.4179  -28.8213   23.3054 O   0  0  0  0  0  0
  -28.4513  -26.8110   20.0535 O   0  0  0  0  0  0
  -26.5579  -34.8923   22.4684 O   0  0  0  0  0  0
  -23.5322  -32.1446   23.7542 O   0  0  0  0  0  0
  -30.8030  -20.1410   22.6149 C   0  0  0  0  0  0
  -28.7876  -19.6893   21.8877 C   0  0  0  0  0  0
  -29.9191  -19.0546   22.3360 C   0  0  0  0  0  0
  -28.1440  -16.3285   22.1528 C   0  0  0  0  0  0
  -29.5954  -17.0263   20.2212 C   0  0  0  0  0  0
  -30.3729  -17.4355   23.9916 C   0  0  0  0  0  0
  -30.4523  -15.2780   21.9188 C   0  0  0  0  0  0
  -28.6019  -23.0789   20.5271 C   0  0  0  0  0  0
  -28.0179  -24.4939   20.6610 C   0  0  0  0  0  0
  -28.1080  -22.1415   21.6471 C   0  0  0  0  0  0
  -28.5447  -25.4666   19.5931 C   0  0  0  0  0  0
  -29.5977  -16.5909   21.7116 C   0  0  0  0  0  0
  -30.2664  -21.3268   22.3770 N   0  0  0  0  0  0
  -29.0249  -21.0486   21.9245 N   0  0  0  0  0  0
  -30.1680  -17.6631   22.5590 N   0  0  0  0  0  0
  -31.4569  -12.4037   19.0788 H   0  0  0  0  0  0
  -30.3221  -11.2763   19.7518 H   0  0  0  0  0  0
  -29.7136  -11.8259   17.3935 H   0  0  0  0  0  0
  -29.6492  -13.5289   17.7837 H   0  0  0  0  0  0
  -27.8176  -11.3236   18.7958 H   0  0  0  0  0  0
  -27.3499  -12.6736   17.7945 H   0  0  0  0  0  0
  -27.7279  -14.2545   19.6112 H   0  0  0  0  0  0
  -28.6809  -11.8882   21.2937 H   0  0  0  0  0  0
  -28.4677  -13.4914   21.9006 H   0  0  0  0  0  0
  -25.2787   -9.5647   22.4756 H   0  0  0  0  0  0
  -24.0008   -7.4613   22.7467 H   0  0  0  0  0  0
  -21.0825   -8.8811   19.8990 H   0  0  0  0  0  0
  -22.3716  -10.9690   19.6179 H   0  0  0  0  0  0
  -21.1999   -7.6140   23.9714 H   0  0  0  0  0  0
  -21.1478   -6.0528   25.9093 H   0  0  0  0  0  0
  -22.0594   -2.7598   23.2860 H   0  0  0  0  0  0
  -22.4133  -12.0025   22.5028 H   0  0  0  0  0  0
  -21.1055  -13.1203   22.2502 H   0  0  0  0  0  0
  -24.6228  -15.8212   20.4447 H   0  0  0  0  0  0
  -26.2454  -15.6253   20.0204 H   0  0  0  0  0  0
  -26.7096  -32.5538   23.1176 H   0  0  0  0  0  0
  -25.0105  -33.9810   25.0524 H   0  0  0  0  0  0
  -22.6839  -31.3094   21.4163 H   0  0  0  0  0  0
  -23.3740  -35.9653   23.3318 H   0  0  0  0  0  0
  -24.3570  -36.8912   22.2047 H   0  0  0  0  0  0
  -23.7234  -37.6528   23.6636 H   0  0  0  0  0  0
  -26.0328  -31.6073   20.5944 H   0  0  0  0  0  0
  -26.8110  -30.8919   21.9790 H   0  0  0  0  0  0
  -28.0935  -29.1367   21.1328 H   0  0  0  0  0  0
  -26.0364  -25.9847   19.0011 H   0  0  0  0  0  0
  -23.9676  -27.2843   19.0594 H   0  0  0  0  0  0
  -23.7028  -30.5945   19.4062 H   0  0  0  0  0  0
  -22.7243  -29.2391   19.8786 H   0  0  0  0  0  0
  -25.1279  -36.1986   25.0831 H   0  0  0  0  0  0
  -20.9941  -28.3189   24.1457 H   0  0  0  0  0  0
  -20.5655  -26.2246   23.3595 H   0  0  0  0  0  0
  -21.6628  -26.7430   22.1211 H   0  0  0  0  0  0
  -19.6893  -25.6293   21.1226 H   0  0  0  0  0  0
  -19.6681  -27.3199   20.6745 H   0  0  0  0  0  0
  -17.4189  -26.6680   21.4015 H   0  0  0  0  0  0
  -18.0309  -26.0062   22.9009 H   0  0  0  0  0  0
  -19.7927  -30.7261   24.2268 H   0  0  0  0  0  0
  -17.5004  -31.6259   24.5164 H   0  0  0  0  0  0
  -15.5340  -30.2975   23.7663 H   0  0  0  0  0  0
  -15.8660  -28.0823   22.7048 H   0  0  0  0  0  0
  -24.5915  -30.7068   25.7850 H   0  0  0  0  0  0
  -24.8969  -32.2861   26.5002 H   0  0  0  0  0  0
  -25.8136  -30.8849   27.0237 H   0  0  0  0  0  0
  -26.2854  -29.6823   24.1177 H   0  0  0  0  0  0
  -27.4109  -29.7315   25.4563 H   0  0  0  0  0  0
  -27.8675  -30.4408   23.9243 H   0  0  0  0  0  0
  -27.2680  -33.3615   26.2127 H   0  0  0  0  0  0
  -28.3842  -32.6933   25.0312 H   0  0  0  0  0  0
  -28.0758  -31.8435   26.5377 H   0  0  0  0  0  0
  -28.2610  -38.0097   24.7509 H   0  0  0  0  0  0
  -28.1057  -36.2631   24.6299 H   0  0  0  0  0  0
  -27.2294  -37.1475   25.8871 H   0  0  0  0  0  0
  -20.9275  -29.8757   21.6998 H   0  0  0  0  0  0
  -26.0180  -38.2880   24.1420 H   0  0  0  0  0  0
  -31.8098  -20.0959   23.0050 H   0  0  0  0  0  0
  -27.8267  -19.3095   21.5739 H   0  0  0  0  0  0
  -27.7002  -15.5189   21.5847 H   0  0  0  0  0  0
  -27.4952  -17.1899   22.0080 H   0  0  0  0  0  0
  -28.0774  -16.0491   23.2049 H   0  0  0  0  0  0
  -29.1772  -16.2536   19.5753 H   0  0  0  0  0  0
  -30.6024  -17.2418   19.8616 H   0  0  0  0  0  0
  -28.9883  -17.9072   20.0255 H   0  0  0  0  0  0
  -31.3603  -17.7834   24.2962 H   0  0  0  0  0  0
  -30.2980  -16.3849   24.2706 H   0  0  0  0  0  0
  -29.6312  -17.9740   24.5832 H   0  0  0  0  0  0
  -30.0729  -14.6816   22.7481 H   0  0  0  0  0  0
  -31.4450  -15.5703   22.2659 H   0  0  0  0  0  0
  -29.6890  -23.1571   20.5575 H   0  0  0  0  0  0
  -28.3572  -22.6522   19.5530 H   0  0  0  0  0  0
  -28.2895  -24.8818   21.6447 H   0  0  0  0  0  0
  -26.9292  -24.4576   20.6376 H   0  0  0  0  0  0
  -27.1265  -21.7363   21.3961 H   0  0  0  0  0  0
  -27.9798  -22.6952   22.5783 H   0  0  0  0  0  0
  -28.0741  -25.3143   18.6206 H   0  0  0  0  0  0
  -29.6073  -25.2812   19.4319 H   0  0  0  0  0  0
  1 25  1  0  0  0
  1 30  2  0  0  0
  1 77  1  0  0  0
  2  3  1  0  0  0
  2 25  1  0  0  0
  2 86  1  0  0  0
  2 87  1  0  0  0
  3  4  1  0  0  0
  3 88  1  0  0  0
  3 89  1  0  0  0
  4  5  1  0  0  0
  4 90  1  0  0  0
  4 91  1  0  0  0
  5  6  1  0  0  0
  5 26  1  0  0  0
  5 92  1  0  0  0
  6 25  1  0  0  0
  6 93  1  0  0  0
  6 94  1  0  0  0
  7  8  2  0  0  0
  7 26  1  0  0  0
  7 29  1  0  0  0
  8  9  1  0  0  0
  8 22  1  0  0  0
  9 10  1  0  0  0
  9 27  2  0  0  0
 10 11  2  0  0  0
 10 15  1  0  0  0
 11 12  1  0  0  0
 11 95  1  0  0  0
 12 13  2  0  0  0
 12 96  1  0  0  0
 13 14  1  0  0  0
 13 31  1  0  0  0
 14 15  2  0  0  0
 14 97  1  0  0  0
 15 98  1  0  0  0
 16 17  2  0  0  0
 16 21  1  0  0  0
 16 31  1  0  0  0
 17 18  1  0  0  0
 17 99  1  0  0  0
 18 19  2  0  0  0
 18100  1  0  0  0
 19 20  1  0  0  0
 19 24  1  0  0  0
 20 21  2  0  0  0
 20101  1  0  0  0
 21 23  1  0  0  0
 22 28  1  0  0  0
 22 32  2  0  0  0
 26 27  1  0  0  0
 28102  1  0  0  0
 28103  1  0  0  0
 29104  1  0  0  0
 29105  1  0  0  0
 33 34  1  0  0  0
 33 66  1  0  0  0
 33 70  2  0  0  0
 34 36  1  0  0  0
 34 59  1  0  0  0
 34106  1  0  0  0
 35 44  2  0  0  0
 35 45  1  0  0  0
 35 68  1  0  0  0
 36 56  1  0  0  0
 36107  1  0  0  0
 37 39  1  0  0  0
 37 47  1  0  0  0
 37 66  1  0  0  0
 37108  1  0  0  0
 38 43  2  0  0  0
 38 46  1  0  0  0
 38 47  1  0  0  0
 39 64  1  0  0  0
 39 67  2  0  0  0
 40 52  1  0  0  0
 40 53  2  0  0  0
 40 58  1  0  0  0
 41109  1  0  0  0
 41110  1  0  0  0
 41111  1  0  0  0
 41 48  1  0  0  0
 42 43  1  0  0  0
 42 66  1  0  0  0
 42112  1  0  0  0
 42113  1  0  0  0
 43 44  1  0  0  0
 44114  1  0  0  0
 45 46  2  0  0  0
 45115  1  0  0  0
 46116  1  0  0  0
 47117  1  0  0  0
 47118  1  0  0  0
 48 56  1  0  0  0
 48 65  1  0  0  0
 48119  1  0  0  0
 49 50  1  0  0  0
 49 53  1  0  0  0
 49 64  1  0  0  0
 49120  1  0  0  0
 50 51  1  0  0  0
 50121  1  0  0  0
 50122  1  0  0  0
 51 52  1  0  0  0
 51123  1  0  0  0
 51124  1  0  0  0
 52125  1  0  0  0
 52126  1  0  0  0
 53 54  1  0  0  0
 54 55  2  0  0  0
 54127  1  0  0  0
 55 57  1  0  0  0
 55128  1  0  0  0
 56 69  2  0  0  0
 57 58  2  0  0  0
 57129  1  0  0  0
 58130  1  0  0  0
 59 60  1  0  0  0
 59 61  1  0  0  0
 59 62  1  0  0  0
 60131  1  0  0  0
 60132  1  0  0  0
 60133  1  0  0  0
 61134  1  0  0  0
 61135  1  0  0  0
 61136  1  0  0  0
 62137  1  0  0  0
 62138  1  0  0  0
 62139  1  0  0  0
 63 65  1  0  0  0
 63140  1  0  0  0
 63141  1  0  0  0
 63142  1  0  0  0
 64143  1  0  0  0
 65144  1  0  0  0
 68 81  1  0  0  0
 71 73  1  0  0  0
 71 83  2  0  0  0
 71145  1  0  0  0
 72 73  2  0  0  0
 72 84  1  0  0  0
 72146  1  0  0  0
 73 85  1  0  0  0
 74147  1  0  0  0
 74148  1  0  0  0
 74149  1  0  0  0
 74 82  1  0  0  0
 75 82  1  0  0  0
 75150  1  0  0  0
 75151  1  0  0  0
 75152  1  0  0  0
 76 85  1  0  0  0
 76153  1  0  0  0
 76154  1  0  0  0
 76155  1  0  0  0
 77 82  1  0  0  0
 77156  1  0  0  0
 77157  1  0  0  0
 78 79  1  0  0  0
 78 80  1  0  0  0
 78158  1  0  0  0
 78159  1  0  0  0
 79 81  1  0  0  0
 79160  1  0  0  0
 79161  1  0  0  0
 80 84  1  0  0  0
 80162  1  0  0  0
 80163  1  0  0  0
 81164  1  0  0  0
 81165  1  0  0  0
 82 85  1  0  0  0
 83 84  1  0  0  0
M  ISO  4   1 100  68 101  77 100  81 101
M  END
> <chiral flag>
0

> <version>
0

> <s_m_source_file>
/data/baiqing/PycharmProjects/Reinvent-master-3.2/result/LINK_invent/BTK/process_docking_weight1_custom_sum_contain_oxygen_bond_distance_aromatic_linkinvent_7_9_3/rearranged_h_0050.sdf

> <i_m_source_file_index>
37

> <r_mmod_Potential_Energy-OPLS-2005>
18.8585014343262

> <r_mmod_Stretch_Energy-OPLS-2005>
37.5592765808105

> <r_mmod_Bend_Energy-OPLS-2005>
123.936126708984

> <r_mmod_Torsional_Energy-OPLS-2005>
196.978469848633

> <r_mmod_Improper_Torsional_Energy-OPLS-2005>
4.93957901000977

> <r_mmod_Van_der_Waal_Energy-OPLS-2005>
142.340637207031

> <r_mmod_Electrostatic_Energy-OPLS-2005>
-280.518524169922

> <r_mmod_Solvation_Energy-OPLS-2005>
-214.865097045898

> <b_mmod_Minimization_Converged-OPLS-2005>
0

> <r_mmod_RMS_Derivative-OPLS-2005>
1.7806704044342

$$$$
38
                    3D
 Structure written by MMmdl.
154162  0  0  1  0            999 V2000
  -30.6085  -14.6880   20.5321 C   0  0  0  0  0  0
  -30.4440  -12.4354   19.4401 C   0  0  0  0  0  0
  -29.5050  -12.5245   18.2155 C   0  0  0  0  0  0
  -28.0286  -12.3576   18.6297 C   0  0  0  0  0  0
  -27.6538  -13.2226   19.8620 C   0  0  2  0  0  0
  -28.7042  -13.0668   20.9825 C   0  0  0  0  0  0
  -25.2563  -13.8178   20.5702 C   0  0  0  0  0  0
  -24.1822  -13.0436   20.9205 C   0  0  0  0  0  0
  -24.6404  -11.6911   20.8747 C   0  0  0  0  0  0
  -23.9070  -10.4295   21.0408 C   0  0  0  0  0  0
  -24.3629   -9.4210   21.9186 C   0  0  0  0  0  0
  -23.6305   -8.2243   22.0749 C   0  0  0  0  0  0
  -22.4287   -8.0286   21.3543 C   0  0  0  0  0  0
  -21.9926   -9.0254   20.4649 C   0  0  0  0  0  0
  -22.7243  -10.2136   20.3051 C   0  0  0  0  0  0
  -21.6853   -6.0749   22.5288 C   0  0  0  0  0  0
  -21.4009   -6.5648   23.8222 C   0  0  0  0  0  0
  -21.3647   -5.6799   24.9181 C   0  0  0  0  0  0
  -21.6044   -4.3061   24.7231 C   0  0  0  0  0  0
  -21.8811   -3.8154   23.4348 C   0  0  0  0  0  0
  -21.9190   -4.6979   22.3407 C   0  0  0  0  0  0
  -22.7841  -13.5228   21.1859 C   0  0  0  0  0  0
  -22.1660   -4.2164   21.0987 F   0  0  0  0  0  0
  -21.5628   -3.4543   25.7741 F   0  0  0  0  0  0
  -30.0065  -13.4520   20.4198 N   0  0  0  0  0  0
  -26.2998  -12.9373   20.3319 N   0  0  0  0  0  0
  -25.9336  -11.6522   20.5741 N   0  0  0  0  0  0
  -22.0477  -12.8219   22.0418 N   0  0  0  0  0  0
  -25.4285  -15.1898   20.4123 N   0  0  0  0  0  0
  -31.7454  -14.8469   20.0726 O   0  0  0  0  0  0
  -21.6638   -6.8888   21.4246 O   0  0  0  0  0  0
  -22.3526  -14.5528   20.6705 O   0  0  0  0  0  0
  -24.6293  -31.8569   23.1981 C   0  0  0  0  0  0
  -25.9133  -32.4757   23.8319 C   0  0  1  0  0  0
  -27.2318  -27.2926   20.1155 C   0  0  0  0  0  0
  -25.5945  -33.8559   24.2248 N   0  0  0  0  0  0
  -23.4256  -30.4801   21.5400 C   0  0  2  0  0  0
  -24.8733  -28.9313   20.1090 C   0  0  0  0  0  0
  -22.7487  -29.4623   22.4896 C   0  0  0  0  0  0
  -18.0297  -28.1402   22.8496 C   0  0  0  0  0  0
  -24.1491  -36.7281   23.2632 C   0  0  0  0  0  0
  -25.9689  -30.7795   21.3723 C   0  0  0  0  0  0
  -26.0434  -29.4037   20.7158 C   0  0  0  0  0  0
  -27.2240  -28.5974   20.7093 C   0  0  0  0  0  0
  -26.0336  -26.8813   19.4842 C   0  0  0  0  0  0
  -24.8711  -27.6751   19.4851 C   0  0  0  0  0  0
  -23.6427  -29.8147   20.1557 C   0  0  0  0  0  0
  -25.4115  -36.3071   24.0322 C   0  0  1  0  0  0
  -20.5895  -28.3716   23.1271 C   0  0  2  0  0  0
  -20.6788  -26.9429   22.5423 C   0  0  0  0  0  0
  -19.5765  -26.6392   21.5227 C   0  0  0  0  0  0
  -18.1939  -26.7949   22.1623 C   0  0  0  0  0  0
  -19.1545  -28.8872   23.2884 C   0  0  0  0  0  0
  -18.9468  -30.1470   23.8901 C   0  0  0  0  0  0
  -17.6467  -30.6601   24.0577 C   0  0  0  0  0  0
  -25.9058  -34.9443   23.5090 C   0  0  0  0  0  0
  -16.5360  -29.9108   23.6336 C   0  0  0  0  0  0
  -16.7283  -28.6527   23.0358 C   0  0  0  0  0  0
  -26.4506  -31.6574   25.0703 C   0  0  0  0  0  0
  -25.3738  -31.3750   26.1435 C   0  0  0  0  0  0
  -27.0327  -30.2983   24.6184 C   0  0  0  0  0  0
  -27.6061  -32.4301   25.7491 C   0  0  0  0  0  0
  -27.5574  -37.1796   24.8462 C   0  0  0  0  0  0
  -21.4194  -29.3056   22.3636 N   0  0  0  0  0  0
  -26.4281  -37.3773   23.9410 N   0  0  0  0  0  0
  -24.6935  -31.0565   22.0931 N   0  0  0  0  0  0
  -23.4194  -28.8158   23.2990 O   0  0  0  0  0  0
  -28.3455  -26.4239   20.1703 O   0  0  0  0  0  0
  -26.5622  -34.8931   22.4649 O   0  0  0  0  0  0
  -23.5456  -32.1354   23.7309 O   0  0  0  0  0  0
  -29.1856  -18.9337   19.3028 C   0  0  0  0  0  0
  -30.2107  -18.5908   21.1700 C   0  0  0  0  0  0
  -29.7891  -19.6555   20.3783 C   0  0  0  0  0  0
  -30.3792  -16.0069   22.6864 C   0  0  0  0  0  0
  -29.9910  -21.2110   20.5979 C   0  0  0  0  0  0
  -28.9433  -22.3021   20.0661 C   0  0  0  0  0  0
  -29.2273  -23.8648   20.3634 C   0  0  0  0  0  0
  -28.1457  -24.9639   19.9154 C   0  0  0  0  0  0
  -29.8809  -15.9355   21.2300 C   0  0  1  0  0  0
  -29.2229  -17.5965   19.4457 N   0  0  0  0  0  0
  -29.8707  -17.3365   20.6136 N   0  0  0  0  0  0
  -31.4793  -12.5794   19.1304 H   0  0  0  0  0  0
  -30.4044  -11.4395   19.8838 H   0  0  0  0  0  0
  -29.7744  -11.7675   17.4773 H   0  0  0  0  0  0
  -29.6377  -13.4889   17.7221 H   0  0  0  0  0  0
  -27.8649  -11.3031   18.8547 H   0  0  0  0  0  0
  -27.3741  -12.5919   17.7892 H   0  0  0  0  0  0
  -27.6728  -14.2612   19.5291 H   0  0  0  0  0  0
  -28.7370  -12.0305   21.3242 H   0  0  0  0  0  0
  -28.4422  -13.6518   21.8633 H   0  0  0  0  0  0
  -25.2771   -9.5681   22.4767 H   0  0  0  0  0  0
  -24.0016   -7.4625   22.7458 H   0  0  0  0  0  0
  -21.0858   -8.8767   19.8959 H   0  0  0  0  0  0
  -22.3697  -10.9678   19.6163 H   0  0  0  0  0  0
  -21.1998   -7.6160   23.9728 H   0  0  0  0  0  0
  -21.1475   -6.0533   25.9085 H   0  0  0  0  0  0
  -22.0601   -2.7624   23.2847 H   0  0  0  0  0  0
  -22.4085  -11.9888   22.4825 H   0  0  0  0  0  0
  -21.1089  -13.1228   22.2597 H   0  0  0  0  0  0
  -24.6669  -15.8504   20.5234 H   0  0  0  0  0  0
  -26.2863  -15.6263   20.0953 H   0  0  0  0  0  0
  -26.7207  -32.5433   23.1069 H   0  0  0  0  0  0
  -25.0131  -33.9690   25.0424 H   0  0  0  0  0  0
  -22.7229  -31.3022   21.3940 H   0  0  0  0  0  0
  -23.3748  -35.9622   23.3313 H   0  0  0  0  0  0
  -24.3592  -36.8875   22.2044 H   0  0  0  0  0  0
  -23.7255  -37.6489   23.6649 H   0  0  0  0  0  0
  -26.1024  -31.5401   20.6012 H   0  0  0  0  0  0
  -26.8494  -30.8303   22.0012 H   0  0  0  0  0  0
  -28.1199  -28.9591   21.1944 H   0  0  0  0  0  0
  -25.9655  -25.9249   18.9890 H   0  0  0  0  0  0
  -23.9752  -27.3068   19.0057 H   0  0  0  0  0  0
  -23.7635  -30.5909   19.3990 H   0  0  0  0  0  0
  -22.7633  -29.2447   19.8511 H   0  0  0  0  0  0
  -25.1295  -36.1905   25.0813 H   0  0  0  0  0  0
  -21.0005  -28.3311   24.1384 H   0  0  0  0  0  0
  -20.5690  -26.2329   23.3639 H   0  0  0  0  0  0
  -21.6663  -26.7450   22.1215 H   0  0  0  0  0  0
  -19.6932  -25.6299   21.1266 H   0  0  0  0  0  0
  -19.6718  -27.3207   20.6763 H   0  0  0  0  0  0
  -17.4221  -26.6717   21.4015 H   0  0  0  0  0  0
  -18.0319  -26.0090   22.9011 H   0  0  0  0  0  0
  -19.7938  -30.7299   24.2266 H   0  0  0  0  0  0
  -17.5022  -31.6282   24.5184 H   0  0  0  0  0  0
  -15.5364  -30.3022   23.7646 H   0  0  0  0  0  0
  -15.8681  -28.0852   22.7060 H   0  0  0  0  0  0
  -24.5973  -30.6998   25.7822 H   0  0  0  0  0  0
  -24.8856  -32.2925   26.4728 H   0  0  0  0  0  0
  -25.8074  -30.9072   27.0284 H   0  0  0  0  0  0
  -26.2893  -29.6763   24.1182 H   0  0  0  0  0  0
  -27.3964  -29.7218   25.4694 H   0  0  0  0  0  0
  -27.8810  -30.4235   23.9453 H   0  0  0  0  0  0
  -27.2665  -33.3622   26.2018 H   0  0  0  0  0  0
  -28.3915  -32.6801   25.0350 H   0  0  0  0  0  0
  -28.0686  -31.8448   26.5445 H   0  0  0  0  0  0
  -28.2588  -38.0093   24.7495 H   0  0  0  0  0  0
  -28.1060  -36.2617   24.6289 H   0  0  0  0  0  0
  -27.2300  -37.1457   25.8867 H   0  0  0  0  0  0
  -20.9363  -29.8747   21.6820 H   0  0  0  0  0  0
  -26.0149  -38.2840   24.1424 H   0  0  0  0  0  0
  -28.7137  -19.3429   18.4195 H   0  0  0  0  0  0
  -30.7157  -18.6346   22.1247 H   0  0  0  0  0  0
  -30.3661  -15.0265   23.1617 H   0  0  0  0  0  0
  -29.7472  -16.6607   23.2885 H   0  0  0  0  0  0
  -31.4020  -16.3813   22.7378 H   0  0  0  0  0  0
  -30.9597  -21.4896   20.1793 H   0  0  0  0  0  0
  -30.1105  -21.3946   21.6663 H   0  0  0  0  0  0
  -27.9664  -22.0517   20.4793 H   0  0  0  0  0  0
  -28.8465  -22.1777   18.9868 H   0  0  0  0  0  0
  -30.1838  -24.1264   19.9088 H   0  0  0  0  0  0
  -29.3837  -23.9784   21.4361 H   0  0  0  0  0  0
  -27.2108  -24.6651   20.3915 H   0  0  0  0  0  0
  -27.9911  -24.8465   18.8415 H   0  0  0  0  0  0
  -28.8242  -15.6835   21.2796 H   0  0  0  0  0  0
  1 25  1  0  0  0
  1 30  2  0  0  0
  1 79  1  0  0  0
  2  3  1  0  0  0
  2 25  1  0  0  0
  2 82  1  0  0  0
  2 83  1  0  0  0
  3  4  1  0  0  0
  3 84  1  0  0  0
  3 85  1  0  0  0
  4  5  1  0  0  0
  4 86  1  0  0  0
  4 87  1  0  0  0
  5  6  1  0  0  0
  5 26  1  0  0  0
  5 88  1  0  0  0
  6 25  1  0  0  0
  6 89  1  0  0  0
  6 90  1  0  0  0
  7  8  2  0  0  0
  7 26  1  0  0  0
  7 29  1  0  0  0
  8  9  1  0  0  0
  8 22  1  0  0  0
  9 10  1  0  0  0
  9 27  2  0  0  0
 10 11  2  0  0  0
 10 15  1  0  0  0
 11 12  1  0  0  0
 11 91  1  0  0  0
 12 13  2  0  0  0
 12 92  1  0  0  0
 13 14  1  0  0  0
 13 31  1  0  0  0
 14 15  2  0  0  0
 14 93  1  0  0  0
 15 94  1  0  0  0
 16 17  2  0  0  0
 16 21  1  0  0  0
 16 31  1  0  0  0
 17 18  1  0  0  0
 17 95  1  0  0  0
 18 19  2  0  0  0
 18 96  1  0  0  0
 19 20  1  0  0  0
 19 24  1  0  0  0
 20 21  2  0  0  0
 20 97  1  0  0  0
 21 23  1  0  0  0
 22 28  1  0  0  0
 22 32  2  0  0  0
 26 27  1  0  0  0
 28 98  1  0  0  0
 28 99  1  0  0  0
 29100  1  0  0  0
 29101  1  0  0  0
 33 34  1  0  0  0
 33 66  1  0  0  0
 33 70  2  0  0  0
 34 36  1  0  0  0
 34 59  1  0  0  0
 34102  1  0  0  0
 35 44  2  0  0  0
 35 45  1  0  0  0
 35 68  1  0  0  0
 36 56  1  0  0  0
 36103  1  0  0  0
 37 39  1  0  0  0
 37 47  1  0  0  0
 37 66  1  0  0  0
 37104  1  0  0  0
 38 43  2  0  0  0
 38 46  1  0  0  0
 38 47  1  0  0  0
 39 64  1  0  0  0
 39 67  2  0  0  0
 40 52  1  0  0  0
 40 53  2  0  0  0
 40 58  1  0  0  0
 41105  1  0  0  0
 41106  1  0  0  0
 41107  1  0  0  0
 41 48  1  0  0  0
 42 43  1  0  0  0
 42 66  1  0  0  0
 42108  1  0  0  0
 42109  1  0  0  0
 43 44  1  0  0  0
 44110  1  0  0  0
 45 46  2  0  0  0
 45111  1  0  0  0
 46112  1  0  0  0
 47113  1  0  0  0
 47114  1  0  0  0
 48 56  1  0  0  0
 48 65  1  0  0  0
 48115  1  0  0  0
 49 50  1  0  0  0
 49 53  1  0  0  0
 49 64  1  0  0  0
 49116  1  0  0  0
 50 51  1  0  0  0
 50117  1  0  0  0
 50118  1  0  0  0
 51 52  1  0  0  0
 51119  1  0  0  0
 51120  1  0  0  0
 52121  1  0  0  0
 52122  1  0  0  0
 53 54  1  0  0  0
 54 55  2  0  0  0
 54123  1  0  0  0
 55 57  1  0  0  0
 55124  1  0  0  0
 56 69  2  0  0  0
 57 58  2  0  0  0
 57125  1  0  0  0
 58126  1  0  0  0
 59 60  1  0  0  0
 59 61  1  0  0  0
 59 62  1  0  0  0
 60127  1  0  0  0
 60128  1  0  0  0
 60129  1  0  0  0
 61130  1  0  0  0
 61131  1  0  0  0
 61132  1  0  0  0
 62133  1  0  0  0
 62134  1  0  0  0
 62135  1  0  0  0
 63 65  1  0  0  0
 63136  1  0  0  0
 63137  1  0  0  0
 63138  1  0  0  0
 64139  1  0  0  0
 65140  1  0  0  0
 68 78  1  0  0  0
 71 73  1  0  0  0
 71 80  2  0  0  0
 71141  1  0  0  0
 72 73  2  0  0  0
 72 81  1  0  0  0
 72142  1  0  0  0
 73 75  1  0  0  0
 74143  1  0  0  0
 74144  1  0  0  0
 74145  1  0  0  0
 74 79  1  0  0  0
 75 76  1  0  0  0
 75146  1  0  0  0
 75147  1  0  0  0
 76 77  1  0  0  0
 76148  1  0  0  0
 76149  1  0  0  0
 77 78  1  0  0  0
 77150  1  0  0  0
 77151  1  0  0  0
 78152  1  0  0  0
 78153  1  0  0  0
 79 81  1  0  0  0
 79154  1  0  0  0
 80 81  1  0  0  0
M  ISO  4   1 100  68 101  78 101  79 100
M  END
> <chiral flag>
0

> <version>
0

> <s_m_source_file>
/data/baiqing/PycharmProjects/Reinvent-master-3.2/result/LINK_invent/BTK/process_docking_weight1_custom_sum_contain_oxygen_bond_distance_aromatic_linkinvent_7_9_3/rearranged_h_0050.sdf

> <i_m_source_file_index>
38

> <r_mmod_Potential_Energy-OPLS-2005>
169.416915893555

> <r_mmod_Stretch_Energy-OPLS-2005>
105.547332763672

> <r_mmod_Bend_Energy-OPLS-2005>
156.677764892578

> <r_mmod_Torsional_Energy-OPLS-2005>
196.255935668945

> <r_mmod_Improper_Torsional_Energy-OPLS-2005>
3.2671799659729

> <r_mmod_Van_der_Waal_Energy-OPLS-2005>
118.252578735352

> <r_mmod_Electrostatic_Energy-OPLS-2005>
-267.244232177734

> <r_mmod_Solvation_Energy-OPLS-2005>
-204.292846679688

> <b_mmod_Minimization_Converged-OPLS-2005>
0

> <r_mmod_RMS_Derivative-OPLS-2005>
2.06633567810059

$$$$
40
                    3D
 Structure written by MMmdl.
156164  0  0  1  0            999 V2000
  -30.6144  -14.7854   20.4613 C   0  0  0  0  0  0
  -30.4314  -12.4824   19.4824 C   0  0  0  0  0  0
  -29.5085  -12.5169   18.2432 C   0  0  0  0  0  0
  -28.0391  -12.3232   18.6604 C   0  0  0  0  0  0
  -27.6416  -13.2334   19.8514 C   0  0  2  0  0  0
  -28.6868  -13.1894   20.9868 C   0  0  0  0  0  0
  -25.2531  -13.8201   20.5732 C   0  0  0  0  0  0
  -24.1803  -13.0431   20.9204 C   0  0  0  0  0  0
  -24.6398  -11.6920   20.8756 C   0  0  0  0  0  0
  -23.9072  -10.4297   21.0408 C   0  0  0  0  0  0
  -24.3620   -9.4220   21.9184 C   0  0  0  0  0  0
  -23.6301   -8.2250   22.0755 C   0  0  0  0  0  0
  -22.4287   -8.0286   21.3534 C   0  0  0  0  0  0
  -21.9930   -9.0255   20.4643 C   0  0  0  0  0  0
  -22.7243  -10.2141   20.3060 C   0  0  0  0  0  0
  -21.6847   -6.0759   22.5277 C   0  0  0  0  0  0
  -21.4009   -6.5652   23.8216 C   0  0  0  0  0  0
  -21.3664   -5.6799   24.9174 C   0  0  0  0  0  0
  -21.6046   -4.3061   24.7212 C   0  0  0  0  0  0
  -21.8813   -3.8168   23.4324 C   0  0  0  0  0  0
  -21.9192   -4.6994   22.3389 C   0  0  0  0  0  0
  -22.7837  -13.5233   21.1846 C   0  0  0  0  0  0
  -22.1664   -4.2193   21.0963 F   0  0  0  0  0  0
  -21.5633   -3.4540   25.7720 F   0  0  0  0  0  0
  -29.9837  -13.5559   20.4045 N   0  0  0  0  0  0
  -26.2951  -12.9403   20.3316 N   0  0  0  0  0  0
  -25.9331  -11.6541   20.5770 N   0  0  0  0  0  0
  -22.0482  -12.8229   22.0402 N   0  0  0  0  0  0
  -25.4233  -15.1919   20.4210 N   0  0  0  0  0  0
  -31.7769  -14.8757   20.0513 O   0  0  0  0  0  0
  -21.6624   -6.8903   21.4243 O   0  0  0  0  0  0
  -22.3538  -14.5538   20.6692 O   0  0  0  0  0  0
  -24.6339  -31.8501   23.1943 C   0  0  0  0  0  0
  -25.9145  -32.4706   23.8323 C   0  0  1  0  0  0
  -27.2295  -27.2456   20.1224 C   0  0  0  0  0  0
  -25.5901  -33.8511   24.2246 N   0  0  0  0  0  0
  -23.4328  -30.4730   21.5333 C   0  0  2  0  0  0
  -24.8841  -28.9132   20.1033 C   0  0  0  0  0  0
  -22.7515  -29.4586   22.4844 C   0  0  0  0  0  0
  -18.0304  -28.1374   22.8463 C   0  0  0  0  0  0
  -24.1495  -36.7298   23.2643 C   0  0  0  0  0  0
  -25.9800  -30.7598   21.3769 C   0  0  0  0  0  0
  -26.0523  -29.3809   20.7168 C   0  0  0  0  0  0
  -27.2209  -28.5543   20.7208 C   0  0  0  0  0  0
  -26.0368  -26.8416   19.4866 C   0  0  0  0  0  0
  -24.8814  -27.6535   19.4806 C   0  0  0  0  0  0
  -23.6574  -29.8048   20.1504 C   0  0  0  0  0  0
  -25.4099  -36.3026   24.0330 C   0  0  1  0  0  0
  -20.5911  -28.3701   23.1252 C   0  0  2  0  0  0
  -20.6779  -26.9406   22.5410 C   0  0  0  0  0  0
  -19.5759  -26.6367   21.5203 C   0  0  0  0  0  0
  -18.1935  -26.7918   22.1602 C   0  0  0  0  0  0
  -19.1563  -28.8853   23.2851 C   0  0  0  0  0  0
  -18.9483  -30.1433   23.8892 C   0  0  0  0  0  0
  -17.6483  -30.6555   24.0562 C   0  0  0  0  0  0
  -25.9036  -34.9398   23.5093 C   0  0  0  0  0  0
  -16.5380  -29.9065   23.6320 C   0  0  0  0  0  0
  -16.7302  -28.6483   23.0344 C   0  0  0  0  0  0
  -26.4516  -31.6540   25.0722 C   0  0  0  0  0  0
  -25.3747  -31.3694   26.1460 C   0  0  0  0  0  0
  -27.0383  -30.2936   24.6250 C   0  0  0  0  0  0
  -27.6049  -32.4327   25.7490 C   0  0  0  0  0  0
  -27.5573  -37.1787   24.8448 C   0  0  0  0  0  0
  -21.4218  -29.3048   22.3614 N   0  0  0  0  0  0
  -26.4268  -37.3726   23.9412 N   0  0  0  0  0  0
  -24.7008  -31.0479   22.0904 N   0  0  0  0  0  0
  -23.4207  -28.8109   23.2937 O   0  0  0  0  0  0
  -28.3282  -26.3600   20.2399 O   0  0  0  0  0  0
  -26.5640  -34.8882   22.4680 O   0  0  0  0  0  0
  -23.5477  -32.1349   23.7210 O   0  0  0  0  0  0
  -29.2304  -22.6015   20.4400 C   0  0  0  0  0  0
  -28.3844  -23.6071   19.7858 C   0  0  0  0  0  0
  -28.6943  -21.3155   20.2370 C   0  0  0  0  0  0
  -26.6098  -20.6612   18.9199 C   0  0  0  0  0  0
  -29.8267  -16.3386   22.1820 C   0  0  0  0  0  0
  -28.5579  -25.1544   19.3723 C   0  0  0  0  0  0
  -28.9787  -19.8284   20.7638 C   0  0  0  0  0  0
  -29.8776  -18.7024   20.0118 C   0  0  0  0  0  0
  -29.5039  -17.1080   19.8395 C   0  0  0  0  0  0
  -27.3931  -22.9301   19.2105 N   0  0  0  0  0  0
  -27.5748  -21.5992   19.4647 N   0  0  0  0  0  0
  -29.8879  -15.9460   20.7767 N   0  0  0  0  0  0
  -31.4719  -12.6042   19.1770 H   0  0  0  0  0  0
  -30.3809  -11.5114   19.9788 H   0  0  0  0  0  0
  -29.8008  -11.7449   17.5309 H   0  0  0  0  0  0
  -29.6176  -13.4707   17.7245 H   0  0  0  0  0  0
  -27.9140  -11.2764   18.9408 H   0  0  0  0  0  0
  -27.3748  -12.4941   17.8120 H   0  0  0  0  0  0
  -27.6323  -14.2510   19.4597 H   0  0  0  0  0  0
  -28.7356  -12.1983   21.4387 H   0  0  0  0  0  0
  -28.4073  -13.8748   21.7863 H   0  0  0  0  0  0
  -25.2761   -9.5710   22.4760 H   0  0  0  0  0  0
  -24.0023   -7.4656   22.7477 H   0  0  0  0  0  0
  -21.0868   -8.8760   19.8949 H   0  0  0  0  0  0
  -22.3685  -10.9681   19.6186 H   0  0  0  0  0  0
  -21.1986   -7.6156   23.9732 H   0  0  0  0  0  0
  -21.1497   -6.0522   25.9081 H   0  0  0  0  0  0
  -22.0588   -2.7639   23.2789 H   0  0  0  0  0  0
  -22.4124  -11.9910   22.4800 H   0  0  0  0  0  0
  -21.1082  -13.1234   22.2561 H   0  0  0  0  0  0
  -24.6592  -15.8474   20.5438 H   0  0  0  0  0  0
  -26.2877  -15.6381   20.1408 H   0  0  0  0  0  0
  -26.7224  -32.5362   23.1077 H   0  0  0  0  0  0
  -24.9982  -33.9650   25.0349 H   0  0  0  0  0  0
  -22.7261  -31.2910   21.3767 H   0  0  0  0  0  0
  -23.3723  -35.9655   23.3241 H   0  0  0  0  0  0
  -24.3603  -36.8996   22.2065 H   0  0  0  0  0  0
  -23.7301  -37.6494   23.6745 H   0  0  0  0  0  0
  -26.1241  -31.5197   20.6077 H   0  0  0  0  0  0
  -26.8551  -30.8086   22.0136 H   0  0  0  0  0  0
  -28.1128  -28.8989   21.2236 H   0  0  0  0  0  0
  -25.9643  -25.8613   19.0372 H   0  0  0  0  0  0
  -23.9801  -27.2899   19.0075 H   0  0  0  0  0  0
  -23.7925  -30.5814   19.3969 H   0  0  0  0  0  0
  -22.7753  -29.2441   19.8363 H   0  0  0  0  0  0
  -25.1274  -36.1836   25.0819 H   0  0  0  0  0  0
  -21.0021  -28.3310   24.1369 H   0  0  0  0  0  0
  -20.5673  -26.2307   23.3623 H   0  0  0  0  0  0
  -21.6643  -26.7403   22.1210 H   0  0  0  0  0  0
  -19.6937  -25.6277   21.1232 H   0  0  0  0  0  0
  -19.6694  -27.3167   20.6723 H   0  0  0  0  0  0
  -17.4196  -26.6676   21.4009 H   0  0  0  0  0  0
  -18.0325  -26.0063   22.8997 H   0  0  0  0  0  0
  -19.7944  -30.7247   24.2293 H   0  0  0  0  0  0
  -17.5032  -31.6242   24.5133 H   0  0  0  0  0  0
  -15.5397  -30.2976   23.7625 H   0  0  0  0  0  0
  -15.8687  -28.0818   22.7079 H   0  0  0  0  0  0
  -24.5943  -30.6996   25.7836 H   0  0  0  0  0  0
  -24.8920  -32.2853   26.4881 H   0  0  0  0  0  0
  -25.8106  -30.8915   27.0245 H   0  0  0  0  0  0
  -26.2998  -29.6625   24.1300 H   0  0  0  0  0  0
  -27.4045  -29.7243   25.4805 H   0  0  0  0  0  0
  -27.8864  -30.4127   23.9505 H   0  0  0  0  0  0
  -27.2637  -33.3658   26.1984 H   0  0  0  0  0  0
  -28.3907  -32.6857   25.0361 H   0  0  0  0  0  0
  -28.0669  -31.8517   26.5478 H   0  0  0  0  0  0
  -28.2526  -38.0137   24.7504 H   0  0  0  0  0  0
  -28.1145  -36.2669   24.6247 H   0  0  0  0  0  0
  -27.2316  -37.1381   25.8856 H   0  0  0  0  0  0
  -20.9403  -29.8793   21.6842 H   0  0  0  0  0  0
  -26.0129  -38.2792   24.1414 H   0  0  0  0  0  0
  -30.1452  -22.8112   20.9768 H   0  0  0  0  0  0
  -26.1000  -20.1391   19.7305 H   0  0  0  0  0  0
  -27.1203  -19.9303   18.2911 H   0  0  0  0  0  0
  -25.8678  -21.1791   18.3100 H   0  0  0  0  0  0
  -28.9192  -16.9074   22.3899 H   0  0  0  0  0  0
  -30.6842  -16.9649   22.4315 H   0  0  0  0  0  0
  -29.8393  -15.4774   22.8527 H   0  0  0  0  0  0
  -29.5989  -25.2659   19.0716 H   0  0  0  0  0  0
  -28.0351  -25.3198   18.4312 H   0  0  0  0  0  0
  -28.0112  -19.3608   20.9447 H   0  0  0  0  0  0
  -29.3991  -19.9294   21.7649 H   0  0  0  0  0  0
  -30.9135  -18.8011   20.3326 H   0  0  0  0  0  0
  -29.8972  -19.0645   18.9827 H   0  0  0  0  0  0
  -29.9431  -16.8272   18.8786 H   0  0  0  0  0  0
  -28.4289  -17.0381   19.6714 H   0  0  0  0  0  0
  1 25  1  0  0  0
  1 30  2  0  0  0
  1 82  1  0  0  0
  2  3  1  0  0  0
  2 25  1  0  0  0
  2 83  1  0  0  0
  2 84  1  0  0  0
  3  4  1  0  0  0
  3 85  1  0  0  0
  3 86  1  0  0  0
  4  5  1  0  0  0
  4 87  1  0  0  0
  4 88  1  0  0  0
  5  6  1  0  0  0
  5 26  1  0  0  0
  5 89  1  0  0  0
  6 25  1  0  0  0
  6 90  1  0  0  0
  6 91  1  0  0  0
  7  8  2  0  0  0
  7 26  1  0  0  0
  7 29  1  0  0  0
  8  9  1  0  0  0
  8 22  1  0  0  0
  9 10  1  0  0  0
  9 27  2  0  0  0
 10 11  2  0  0  0
 10 15  1  0  0  0
 11 12  1  0  0  0
 11 92  1  0  0  0
 12 13  2  0  0  0
 12 93  1  0  0  0
 13 14  1  0  0  0
 13 31  1  0  0  0
 14 15  2  0  0  0
 14 94  1  0  0  0
 15 95  1  0  0  0
 16 17  2  0  0  0
 16 21  1  0  0  0
 16 31  1  0  0  0
 17 18  1  0  0  0
 17 96  1  0  0  0
 18 19  2  0  0  0
 18 97  1  0  0  0
 19 20  1  0  0  0
 19 24  1  0  0  0
 20 21  2  0  0  0
 20 98  1  0  0  0
 21 23  1  0  0  0
 22 28  1  0  0  0
 22 32  2  0  0  0
 26 27  1  0  0  0
 28 99  1  0  0  0
 28100  1  0  0  0
 29101  1  0  0  0
 29102  1  0  0  0
 33 34  1  0  0  0
 33 66  1  0  0  0
 33 70  2  0  0  0
 34 36  1  0  0  0
 34 59  1  0  0  0
 34103  1  0  0  0
 35 44  2  0  0  0
 35 45  1  0  0  0
 35 68  1  0  0  0
 36 56  1  0  0  0
 36104  1  0  0  0
 37 39  1  0  0  0
 37 47  1  0  0  0
 37 66  1  0  0  0
 37105  1  0  0  0
 38 43  2  0  0  0
 38 46  1  0  0  0
 38 47  1  0  0  0
 39 64  1  0  0  0
 39 67  2  0  0  0
 40 52  1  0  0  0
 40 53  2  0  0  0
 40 58  1  0  0  0
 41106  1  0  0  0
 41107  1  0  0  0
 41108  1  0  0  0
 41 48  1  0  0  0
 42 43  1  0  0  0
 42 66  1  0  0  0
 42109  1  0  0  0
 42110  1  0  0  0
 43 44  1  0  0  0
 44111  1  0  0  0
 45 46  2  0  0  0
 45112  1  0  0  0
 46113  1  0  0  0
 47114  1  0  0  0
 47115  1  0  0  0
 48 56  1  0  0  0
 48 65  1  0  0  0
 48116  1  0  0  0
 49 50  1  0  0  0
 49 53  1  0  0  0
 49 64  1  0  0  0
 49117  1  0  0  0
 50 51  1  0  0  0
 50118  1  0  0  0
 50119  1  0  0  0
 51 52  1  0  0  0
 51120  1  0  0  0
 51121  1  0  0  0
 52122  1  0  0  0
 52123  1  0  0  0
 53 54  1  0  0  0
 54 55  2  0  0  0
 54124  1  0  0  0
 55 57  1  0  0  0
 55125  1  0  0  0
 56 69  2  0  0  0
 57 58  2  0  0  0
 57126  1  0  0  0
 58127  1  0  0  0
 59 60  1  0  0  0
 59 61  1  0  0  0
 59 62  1  0  0  0
 60128  1  0  0  0
 60129  1  0  0  0
 60130  1  0  0  0
 61131  1  0  0  0
 61132  1  0  0  0
 61133  1  0  0  0
 62134  1  0  0  0
 62135  1  0  0  0
 62136  1  0  0  0
 63 65  1  0  0  0
 63137  1  0  0  0
 63138  1  0  0  0
 63139  1  0  0  0
 64140  1  0  0  0
 65141  1  0  0  0
 68 76  1  0  0  0
 71 72  1  0  0  0
 71 73  2  0  0  0
 71142  1  0  0  0
 72 76  1  0  0  0
 72 80  2  0  0  0
 73 77  1  0  0  0
 73 81  1  0  0  0
 74 81  1  0  0  0
 74143  1  0  0  0
 74144  1  0  0  0
 74145  1  0  0  0
 75 82  1  0  0  0
 75146  1  0  0  0
 75147  1  0  0  0
 75148  1  0  0  0
 76149  1  0  0  0
 76150  1  0  0  0
 77 78  1  0  0  0
 77151  1  0  0  0
 77152  1  0  0  0
 78 79  1  0  0  0
 78153  1  0  0  0
 78154  1  0  0  0
 79 82  1  0  0  0
 79155  1  0  0  0
 79156  1  0  0  0
 80 81  1  0  0  0
M  ISO  4   1 100  68 101  76 101  82 100
M  END
> <chiral flag>
0

> <version>
0

> <s_m_source_file>
/data/baiqing/PycharmProjects/Reinvent-master-3.2/result/LINK_invent/BTK/process_docking_weight1_custom_sum_contain_oxygen_bond_distance_aromatic_linkinvent_7_9_3/rearranged_h_0050.sdf

> <i_m_source_file_index>
39

> <r_mmod_Potential_Energy-OPLS-2005>
434.091644287109

> <r_mmod_Stretch_Energy-OPLS-2005>
145.921752929688

> <r_mmod_Bend_Energy-OPLS-2005>
238.548828125

> <r_mmod_Torsional_Energy-OPLS-2005>
326.458465576172

> <r_mmod_Improper_Torsional_Energy-OPLS-2005>
7.44451761245728

> <r_mmod_Van_der_Waal_Energy-OPLS-2005>
108.101608276367

> <r_mmod_Electrostatic_Energy-OPLS-2005>
-283.459381103516

> <r_mmod_Solvation_Energy-OPLS-2005>
-208.90348815918

> <b_mmod_Minimization_Converged-OPLS-2005>
0

> <r_mmod_RMS_Derivative-OPLS-2005>
2.87508535385132

$$$$
41
                    3D
 Structure written by MMmdl.
147155  0  0  1  0            999 V2000
  -30.5347  -15.0080   20.4041 C   0  0  0  0  0  0
  -30.4368  -12.6270   19.5078 C   0  0  0  0  0  0
  -29.5251  -12.5308   18.2629 C   0  0  0  0  0  0
  -28.0590  -12.3100   18.6796 C   0  0  0  0  0  0
  -27.6240  -13.2547   19.8307 C   0  0  2  0  0  0
  -28.6641  -13.3207   20.9686 C   0  0  0  0  0  0
  -25.2434  -13.8214   20.5701 C   0  0  0  0  0  0
  -24.1760  -13.0432   20.9225 C   0  0  0  0  0  0
  -24.6384  -11.6919   20.8743 C   0  0  0  0  0  0
  -23.9068  -10.4292   21.0396 C   0  0  0  0  0  0
  -24.3620   -9.4207   21.9171 C   0  0  0  0  0  0
  -23.6297   -8.2243   22.0749 C   0  0  0  0  0  0
  -22.4282   -8.0275   21.3543 C   0  0  0  0  0  0
  -21.9912   -9.0244   20.4643 C   0  0  0  0  0  0
  -22.7238  -10.2127   20.3048 C   0  0  0  0  0  0
  -21.6853   -6.0725   22.5277 C   0  0  0  0  0  0
  -21.4012   -6.5631   23.8208 C   0  0  0  0  0  0
  -21.3663   -5.6789   24.9170 C   0  0  0  0  0  0
  -21.6047   -4.3052   24.7228 C   0  0  0  0  0  0
  -21.8817   -3.8138   23.4349 C   0  0  0  0  0  0
  -21.9194   -4.6951   22.3402 C   0  0  0  0  0  0
  -22.7782  -13.5199   21.1876 C   0  0  0  0  0  0
  -22.1661   -4.2135   21.0981 F   0  0  0  0  0  0
  -21.5633   -3.4538   25.7741 F   0  0  0  0  0  0
  -29.9319  -13.7450   20.3628 N   0  0  0  0  0  0
  -26.2858  -12.9460   20.3209 N   0  0  0  0  0  0
  -25.9317  -11.6584   20.5711 N   0  0  0  0  0  0
  -22.0428  -12.8198   22.0436 N   0  0  0  0  0  0
  -25.4081  -15.1938   20.4132 N   0  0  0  0  0  0
  -31.7437  -15.0388   20.1516 O   0  0  0  0  0  0
  -21.6646   -6.8871   21.4243 O   0  0  0  0  0  0
  -22.3457  -14.5495   20.6705 O   0  0  0  0  0  0
  -24.6476  -31.8396   23.1822 C   0  0  0  0  0  0
  -25.9231  -32.4673   23.8232 C   0  0  1  0  0  0
  -27.2185  -27.0918   20.1614 C   0  0  0  0  0  0
  -25.5964  -33.8480   24.2159 N   0  0  0  0  0  0
  -23.4541  -30.4564   21.5281 C   0  0  2  0  0  0
  -24.9047  -28.8729   20.1100 C   0  0  0  0  0  0
  -22.7586  -29.4531   22.4834 C   0  0  0  0  0  0
  -18.0313  -28.1404   22.8483 C   0  0  0  0  0  0
  -24.1489  -36.7239   23.2645 C   0  0  0  0  0  0
  -26.0122  -30.7000   21.3862 C   0  0  0  0  0  0
  -26.0829  -29.3058   20.7310 C   0  0  0  0  0  0
  -27.2402  -28.4330   20.7355 C   0  0  0  0  0  0
  -26.0134  -26.7691   19.5010 C   0  0  0  0  0  0
  -24.8853  -27.6209   19.4772 C   0  0  0  0  0  0
  -23.6830  -29.7799   20.1498 C   0  0  0  0  0  0
  -25.4126  -36.3015   24.0312 C   0  0  1  0  0  0
  -20.5927  -28.3736   23.1220 C   0  0  2  0  0  0
  -20.6790  -26.9432   22.5400 C   0  0  0  0  0  0
  -19.5764  -26.6386   21.5209 C   0  0  0  0  0  0
  -18.1947  -26.7944   22.1626 C   0  0  0  0  0  0
  -19.1572  -28.8889   23.2843 C   0  0  0  0  0  0
  -18.9489  -30.1482   23.8872 C   0  0  0  0  0  0
  -17.6484  -30.6598   24.0563 C   0  0  0  0  0  0
  -25.9078  -34.9398   23.5048 C   0  0  0  0  0  0
  -16.5372  -29.9089   23.6341 C   0  0  0  0  0  0
  -16.7296  -28.6509   23.0361 C   0  0  0  0  0  0
  -26.4539  -31.6557   25.0694 C   0  0  0  0  0  0
  -25.3722  -31.3754   26.1386 C   0  0  0  0  0  0
  -27.0419  -30.2953   24.6296 C   0  0  0  0  0  0
  -27.6053  -32.4333   25.7494 C   0  0  0  0  0  0
  -27.5565  -37.1780   24.8473 C   0  0  0  0  0  0
  -21.4274  -29.3054   22.3579 N   0  0  0  0  0  0
  -26.4283  -37.3732   23.9404 N   0  0  0  0  0  0
  -24.7248  -31.0217   22.0869 N   0  0  0  0  0  0
  -23.4211  -28.8085   23.3003 O   0  0  0  0  0  0
  -28.2667  -26.0875   20.2287 O   0  0  0  0  0  0
  -26.5658  -34.8905   22.4620 O   0  0  0  0  0  0
  -23.5585  -32.1286   23.7026 O   0  0  0  0  0  0
  -29.9438  -20.5806   20.2764 C   0  0  0  0  0  0
  -29.4504  -19.2453   20.3959 C   0  0  0  0  0  0
  -28.0820  -19.6617   20.5601 C   0  0  0  0  0  0
  -30.2566  -17.7568   20.3540 C   0  0  0  0  0  0
  -29.1466  -23.2717   20.3664 C   0  0  0  0  0  0
  -28.0093  -24.5279   20.1511 C   0  0  0  0  0  0
  -27.8042  -20.9995   20.5478 N   0  0  0  0  0  0
  -28.9760  -21.6682   20.3473 N   0  0  0  0  0  0
  -29.7899  -16.2334   20.5125 N   0  0  0  0  0  0
  -26.7976  -18.5363   20.7905 Cl  0  0  0  0  0  0
  -31.4695  -12.7858   19.1938 H   0  0  0  0  0  0
  -30.4384  -11.6878   20.0623 H   0  0  0  0  0  0
  -29.8578  -11.7215   17.6114 H   0  0  0  0  0  0
  -29.6064  -13.4493   17.6797 H   0  0  0  0  0  0
  -27.9631  -11.2721   19.0009 H   0  0  0  0  0  0
  -27.3982  -12.4249   17.8193 H   0  0  0  0  0  0
  -27.5764  -14.2487   19.3843 H   0  0  0  0  0  0
  -28.7650  -12.3560   21.4681 H   0  0  0  0  0  0
  -28.3520  -14.0361   21.7307 H   0  0  0  0  0  0
  -25.2760   -9.5688   22.4747 H   0  0  0  0  0  0
  -23.9996   -7.4640   22.7483 H   0  0  0  0  0  0
  -21.0828   -8.8764   19.8964 H   0  0  0  0  0  0
  -22.3677  -10.9662   19.6161 H   0  0  0  0  0  0
  -21.2001   -7.6139   23.9705 H   0  0  0  0  0  0
  -21.1489   -6.0520   25.9074 H   0  0  0  0  0  0
  -22.0594   -2.7600   23.2856 H   0  0  0  0  0  0
  -22.4059  -11.9885   22.4862 H   0  0  0  0  0  0
  -21.1035  -13.1214   22.2616 H   0  0  0  0  0  0
  -24.6424  -15.8453   20.5456 H   0  0  0  0  0  0
  -26.2494  -15.6426   20.0775 H   0  0  0  0  0  0
  -26.7298  -32.5268   23.0959 H   0  0  0  0  0  0
  -25.0113  -33.9580   25.0312 H   0  0  0  0  0  0
  -22.7595  -31.2837   21.3677 H   0  0  0  0  0  0
  -23.3743  -35.9581   23.3329 H   0  0  0  0  0  0
  -24.3563  -36.8850   22.2053 H   0  0  0  0  0  0
  -23.7268  -37.6451   23.6672 H   0  0  0  0  0  0
  -26.1700  -31.4506   20.6102 H   0  0  0  0  0  0
  -26.8820  -30.7542   22.0289 H   0  0  0  0  0  0
  -28.1374  -28.7615   21.2410 H   0  0  0  0  0  0
  -25.9119  -25.8116   19.0132 H   0  0  0  0  0  0
  -23.9879  -27.2858   18.9763 H   0  0  0  0  0  0
  -23.8204  -30.5500   19.3902 H   0  0  0  0  0  0
  -22.7978  -29.2213   19.8404 H   0  0  0  0  0  0
  -25.1322  -36.1829   25.0804 H   0  0  0  0  0  0
  -21.0029  -28.3330   24.1334 H   0  0  0  0  0  0
  -20.5674  -26.2351   23.3627 H   0  0  0  0  0  0
  -21.6655  -26.7421   22.1201 H   0  0  0  0  0  0
  -19.6918  -25.6291   21.1254 H   0  0  0  0  0  0
  -19.6695  -27.3187   20.6730 H   0  0  0  0  0  0
  -17.4210  -26.6693   21.4030 H   0  0  0  0  0  0
  -18.0343  -26.0092   22.9030 H   0  0  0  0  0  0
  -19.7959  -30.7307   24.2222 H   0  0  0  0  0  0
  -17.5035  -31.6272   24.5170 H   0  0  0  0  0  0
  -15.5371  -30.2982   23.7681 H   0  0  0  0  0  0
  -15.8698  -28.0816   22.7089 H   0  0  0  0  0  0
  -24.5920  -30.7076   25.7710 H   0  0  0  0  0  0
  -24.8887  -32.2941   26.4719 H   0  0  0  0  0  0
  -25.8011  -30.8994   27.0216 H   0  0  0  0  0  0
  -26.3053  -29.6663   24.1287 H   0  0  0  0  0  0
  -27.4019  -29.7261   25.4877 H   0  0  0  0  0  0
  -27.8964  -30.4186   23.9641 H   0  0  0  0  0  0
  -27.2630  -33.3654   26.2002 H   0  0  0  0  0  0
  -28.3912  -32.6863   25.0364 H   0  0  0  0  0  0
  -28.0677  -31.8507   26.5471 H   0  0  0  0  0  0
  -28.2596  -38.0057   24.7473 H   0  0  0  0  0  0
  -28.1042  -36.2583   24.6362 H   0  0  0  0  0  0
  -27.2270  -37.1504   25.8873 H   0  0  0  0  0  0
  -20.9489  -29.8758   21.6749 H   0  0  0  0  0  0
  -26.0142  -38.2801   24.1387 H   0  0  0  0  0  0
  -30.9802  -20.8629   20.1508 H   0  0  0  0  0  0
  -31.0675  -17.8310   21.0802 H   0  0  0  0  0  0
  -30.7906  -17.7360   19.4033 H   0  0  0  0  0  0
  -29.6277  -23.4852   21.3205 H   0  0  0  0  0  0
  -29.9282  -23.4723   19.6335 H   0  0  0  0  0  0
  -27.2062  -24.3339   20.8635 H   0  0  0  0  0  0
  -27.5660  -24.3469   19.1722 H   0  0  0  0  0  0
  -28.8034  -16.1022   20.6746 H   0  0  0  0  0  0
  1 25  1  0  0  0
  1 30  2  0  0  0
  1 79  1  0  0  0
  2  3  1  0  0  0
  2 25  1  0  0  0
  2 81  1  0  0  0
  2 82  1  0  0  0
  3  4  1  0  0  0
  3 83  1  0  0  0
  3 84  1  0  0  0
  4  5  1  0  0  0
  4 85  1  0  0  0
  4 86  1  0  0  0
  5  6  1  0  0  0
  5 26  1  0  0  0
  5 87  1  0  0  0
  6 25  1  0  0  0
  6 88  1  0  0  0
  6 89  1  0  0  0
  7  8  2  0  0  0
  7 26  1  0  0  0
  7 29  1  0  0  0
  8  9  1  0  0  0
  8 22  1  0  0  0
  9 10  1  0  0  0
  9 27  2  0  0  0
 10 11  2  0  0  0
 10 15  1  0  0  0
 11 12  1  0  0  0
 11 90  1  0  0  0
 12 13  2  0  0  0
 12 91  1  0  0  0
 13 14  1  0  0  0
 13 31  1  0  0  0
 14 15  2  0  0  0
 14 92  1  0  0  0
 15 93  1  0  0  0
 16 17  2  0  0  0
 16 21  1  0  0  0
 16 31  1  0  0  0
 17 18  1  0  0  0
 17 94  1  0  0  0
 18 19  2  0  0  0
 18 95  1  0  0  0
 19 20  1  0  0  0
 19 24  1  0  0  0
 20 21  2  0  0  0
 20 96  1  0  0  0
 21 23  1  0  0  0
 22 28  1  0  0  0
 22 32  2  0  0  0
 26 27  1  0  0  0
 28 97  1  0  0  0
 28 98  1  0  0  0
 29 99  1  0  0  0
 29100  1  0  0  0
 33 34  1  0  0  0
 33 66  1  0  0  0
 33 70  2  0  0  0
 34 36  1  0  0  0
 34 59  1  0  0  0
 34101  1  0  0  0
 35 44  2  0  0  0
 35 45  1  0  0  0
 35 68  1  0  0  0
 36 56  1  0  0  0
 36102  1  0  0  0
 37 39  1  0  0  0
 37 47  1  0  0  0
 37 66  1  0  0  0
 37103  1  0  0  0
 38 43  2  0  0  0
 38 46  1  0  0  0
 38 47  1  0  0  0
 39 64  1  0  0  0
 39 67  2  0  0  0
 40 52  1  0  0  0
 40 53  2  0  0  0
 40 58  1  0  0  0
 41104  1  0  0  0
 41105  1  0  0  0
 41106  1  0  0  0
 41 48  1  0  0  0
 42 43  1  0  0  0
 42 66  1  0  0  0
 42107  1  0  0  0
 42108  1  0  0  0
 43 44  1  0  0  0
 44109  1  0  0  0
 45 46  2  0  0  0
 45110  1  0  0  0
 46111  1  0  0  0
 47112  1  0  0  0
 47113  1  0  0  0
 48 56  1  0  0  0
 48 65  1  0  0  0
 48114  1  0  0  0
 49 50  1  0  0  0
 49 53  1  0  0  0
 49 64  1  0  0  0
 49115  1  0  0  0
 50 51  1  0  0  0
 50116  1  0  0  0
 50117  1  0  0  0
 51 52  1  0  0  0
 51118  1  0  0  0
 51119  1  0  0  0
 52120  1  0  0  0
 52121  1  0  0  0
 53 54  1  0  0  0
 54 55  2  0  0  0
 54122  1  0  0  0
 55 57  1  0  0  0
 55123  1  0  0  0
 56 69  2  0  0  0
 57 58  2  0  0  0
 57124  1  0  0  0
 58125  1  0  0  0
 59 60  1  0  0  0
 59 61  1  0  0  0
 59 62  1  0  0  0
 60126  1  0  0  0
 60127  1  0  0  0
 60128  1  0  0  0
 61129  1  0  0  0
 61130  1  0  0  0
 61131  1  0  0  0
 62132  1  0  0  0
 62133  1  0  0  0
 62134  1  0  0  0
 63 65  1  0  0  0
 63135  1  0  0  0
 63136  1  0  0  0
 63137  1  0  0  0
 64138  1  0  0  0
 65139  1  0  0  0
 68 76  1  0  0  0
 71 72  2  0  0  0
 71 78  1  0  0  0
 71140  1  0  0  0
 72 73  1  0  0  0
 72 74  1  0  0  0
 73 77  2  0  0  0
 73 80  1  0  0  0
 74 79  1  0  0  0
 74141  1  0  0  0
 74142  1  0  0  0
 75 76  1  0  0  0
 75 78  1  0  0  0
 75143  1  0  0  0
 75144  1  0  0  0
 76145  1  0  0  0
 76146  1  0  0  0
 77 78  1  0  0  0
 79147  1  0  0  0
M  ISO  4   1 100  68 101  76 101  79 100
M  END
> <chiral flag>
0

> <version>
0

> <s_m_source_file>
/data/baiqing/PycharmProjects/Reinvent-master-3.2/result/LINK_invent/BTK/process_docking_weight1_custom_sum_contain_oxygen_bond_distance_aromatic_linkinvent_7_9_3/rearranged_h_0050.sdf

> <i_m_source_file_index>
40

> <r_mmod_Potential_Energy-OPLS-2005>
586.789794921875

> <r_mmod_Stretch_Energy-OPLS-2005>
307.028167724609

> <r_mmod_Bend_Energy-OPLS-2005>
304.799468994141

> <r_mmod_Torsional_Energy-OPLS-2005>
208.41877746582

> <r_mmod_Improper_Torsional_Energy-OPLS-2005>
4.64248085021973

> <r_mmod_Van_der_Waal_Energy-OPLS-2005>
105.106796264648

> <r_mmod_Electrostatic_Energy-OPLS-2005>
-357.36572265625

> <r_mmod_Solvation_Energy-OPLS-2005>
-220.51741027832

> <b_mmod_Minimization_Converged-OPLS-2005>
0

> <r_mmod_RMS_Derivative-OPLS-2005>
1.14013993740082

$$$$
43
                    3D
 Structure written by MMmdl.
166174  0  0  1  0            999 V2000
  -30.6842  -14.5363   20.6018 C   0  0  0  0  0  0
  -30.4329  -12.3514   19.4467 C   0  0  0  0  0  0
  -29.5076  -12.5133   18.2215 C   0  0  0  0  0  0
  -28.0280  -12.3618   18.6297 C   0  0  0  0  0  0
  -27.6628  -13.2103   19.8768 C   0  0  2  0  0  0
  -28.7019  -13.0053   21.0008 C   0  0  0  0  0  0
  -25.2580  -13.8149   20.5653 C   0  0  0  0  0  0
  -24.1845  -13.0439   20.9166 C   0  0  0  0  0  0
  -24.6410  -11.6900   20.8751 C   0  0  0  0  0  0
  -23.9094  -10.4291   21.0426 C   0  0  0  0  0  0
  -24.3634   -9.4195   21.9204 C   0  0  0  0  0  0
  -23.6292   -8.2242   22.0775 C   0  0  0  0  0  0
  -22.4272   -8.0299   21.3560 C   0  0  0  0  0  0
  -21.9918   -9.0283   20.4664 C   0  0  0  0  0  0
  -22.7267  -10.2149   20.3067 C   0  0  0  0  0  0
  -21.6861   -6.0740   22.5284 C   0  0  0  0  0  0
  -21.4029   -6.5644   23.8215 C   0  0  0  0  0  0
  -21.3636   -5.6795   24.9172 C   0  0  0  0  0  0
  -21.6037   -4.3059   24.7235 C   0  0  0  0  0  0
  -21.8809   -3.8153   23.4356 C   0  0  0  0  0  0
  -21.9193   -4.6967   22.3409 C   0  0  0  0  0  0
  -22.7862  -13.5247   21.1840 C   0  0  0  0  0  0
  -22.1658   -4.2155   21.0984 F   0  0  0  0  0  0
  -21.5617   -3.4537   25.7743 F   0  0  0  0  0  0
  -30.0277  -13.3443   20.4596 N   0  0  0  0  0  0
  -26.3028  -12.9332   20.3341 N   0  0  0  0  0  0
  -25.9339  -11.6494   20.5770 N   0  0  0  0  0  0
  -22.0499  -12.8251   22.0383 N   0  0  0  0  0  0
  -25.4290  -15.1872   20.4037 N   0  0  0  0  0  0
  -31.7745  -14.7272   20.0549 O   0  0  0  0  0  0
  -21.6630   -6.8897   21.4253 O   0  0  0  0  0  0
  -22.3544  -14.5548   20.6680 O   0  0  0  0  0  0
  -24.6179  -31.8641   23.2065 C   0  0  0  0  0  0
  -25.9056  -32.4799   23.8370 C   0  0  1  0  0  0
  -27.2380  -27.3732   20.1023 C   0  0  0  0  0  0
  -25.5901  -33.8593   24.2312 N   0  0  0  0  0  0
  -23.4089  -30.4879   21.5465 C   0  0  2  0  0  0
  -24.8572  -28.9421   20.1163 C   0  0  0  0  0  0
  -22.7417  -29.4661   22.4967 C   0  0  0  0  0  0
  -18.0282  -28.1371   22.8495 C   0  0  0  0  0  0
  -24.1487  -36.7284   23.2639 C   0  0  0  0  0  0
  -25.9423  -30.8133   21.3656 C   0  0  0  0  0  0
  -26.0210  -29.4410   20.7124 C   0  0  0  0  0  0
  -27.2106  -28.6659   20.6979 C   0  0  0  0  0  0
  -26.0431  -26.9010   19.5084 C   0  0  0  0  0  0
  -24.8664  -27.6756   19.5111 C   0  0  0  0  0  0
  -23.6213  -29.8155   20.1648 C   0  0  0  0  0  0
  -25.4111  -36.3097   24.0360 C   0  0  1  0  0  0
  -20.5868  -28.3675   23.1300 C   0  0  2  0  0  0
  -20.6759  -26.9411   22.5408 C   0  0  0  0  0  0
  -19.5753  -26.6399   21.5191 C   0  0  0  0  0  0
  -18.1938  -26.7923   22.1614 C   0  0  0  0  0  0
  -19.1531  -28.8841   23.2895 C   0  0  0  0  0  0
  -18.9462  -30.1441   23.8921 C   0  0  0  0  0  0
  -17.6466  -30.6588   24.0559 C   0  0  0  0  0  0
  -25.9040  -34.9463   23.5141 C   0  0  0  0  0  0
  -16.5357  -29.9088   23.6314 C   0  0  0  0  0  0
  -16.7267  -28.6484   23.0367 C   0  0  0  0  0  0
  -26.4496  -31.6566   25.0690 C   0  0  0  0  0  0
  -25.3763  -31.3665   26.1438 C   0  0  0  0  0  0
  -27.0330  -30.3009   24.6053 C   0  0  0  0  0  0
  -27.6081  -32.4268   25.7437 C   0  0  0  0  0  0
  -27.5592  -37.1796   24.8476 C   0  0  0  0  0  0
  -21.4138  -29.3054   22.3696 N   0  0  0  0  0  0
  -26.4292  -37.3791   23.9424 N   0  0  0  0  0  0
  -24.6745  -31.0701   22.0984 N   0  0  0  0  0  0
  -23.4179  -28.8206   23.3024 O   0  0  0  0  0  0
  -28.4236  -26.6393   20.1270 O   0  0  0  0  0  0
  -26.5599  -34.8934   22.4701 O   0  0  0  0  0  0
  -23.5359  -32.1412   23.7445 O   0  0  0  0  0  0
  -28.2811  -20.7114   19.6748 C   0  0  0  0  0  0
  -27.9804  -22.0461   19.5441 C   0  0  0  0  0  0
  -29.2228  -20.6355   20.7439 C   0  0  0  0  0  0
  -32.2409  -20.7412   19.2788 C   0  0  0  0  0  0
  -29.0504  -18.9999   22.6883 C   0  0  0  0  0  0
  -30.1064  -15.7329   21.4263 C   0  0  0  0  0  0
  -32.2644  -19.2083   19.2498 C   0  0  0  0  0  0
  -28.5999  -24.1951   20.8654 C   0  0  0  0  0  0
  -29.5018  -16.9436   20.6156 C   0  0  0  0  0  0
  -30.8768  -18.5286   19.2532 C   0  0  0  0  0  0
  -28.5202  -25.2435   19.7015 C   0  0  0  0  0  0
  -29.8653  -19.4014   21.4387 C   0  0  1  0  0  0
  -29.4458  -21.8747   21.2240 N   0  0  0  0  0  0
  -28.6989  -22.7554   20.4875 N   0  0  0  0  0  0
  -30.3332  -18.2125   20.6073 N   0  3  1  0  0  0
  -31.4788  -12.4523   19.1534 H   0  0  0  0  0  0
  -30.3466  -11.3448   19.8598 H   0  0  0  0  0  0
  -29.7645  -11.7749   17.4601 H   0  0  0  0  0  0
  -29.6652  -13.4918   17.7664 H   0  0  0  0  0  0
  -27.8529  -11.3057   18.8393 H   0  0  0  0  0  0
  -27.3767  -12.6163   17.7934 H   0  0  0  0  0  0
  -27.7054  -14.2559   19.5727 H   0  0  0  0  0  0
  -28.6969  -11.9622   21.3216 H   0  0  0  0  0  0
  -28.4322  -13.5648   21.8928 H   0  0  0  0  0  0
  -25.2793   -9.5647   22.4766 H   0  0  0  0  0  0
  -23.9992   -7.4623   22.7487 H   0  0  0  0  0  0
  -21.0845   -8.8819   19.8974 H   0  0  0  0  0  0
  -22.3758  -10.9688   19.6157 H   0  0  0  0  0  0
  -21.2036   -7.6155   23.9728 H   0  0  0  0  0  0
  -21.1460   -6.0522   25.9072 H   0  0  0  0  0  0
  -22.0610   -2.7624   23.2855 H   0  0  0  0  0  0
  -22.4109  -11.9909   22.4767 H   0  0  0  0  0  0
  -21.1124  -13.1292   22.2602 H   0  0  0  0  0  0
  -24.6576  -15.8377   20.5070 H   0  0  0  0  0  0
  -26.2661  -15.6239   20.0439 H   0  0  0  0  0  0
  -26.7112  -32.5523   23.1118 H   0  0  0  0  0  0
  -25.0071  -33.9738   25.0464 H   0  0  0  0  0  0
  -22.6987  -31.3058   21.4042 H   0  0  0  0  0  0
  -23.3759  -35.9603   23.3293 H   0  0  0  0  0  0
  -24.3570  -36.8907   22.2053 H   0  0  0  0  0  0
  -23.7231  -37.6485   23.6644 H   0  0  0  0  0  0
  -26.0634  -31.5787   20.5977 H   0  0  0  0  0  0
  -26.8255  -30.8698   21.9890 H   0  0  0  0  0  0
  -28.1092  -29.0474   21.1609 H   0  0  0  0  0  0
  -25.9738  -25.9338   19.0389 H   0  0  0  0  0  0
  -23.9683  -27.2860   19.0499 H   0  0  0  0  0  0
  -23.7312  -30.5851   19.4011 H   0  0  0  0  0  0
  -22.7415  -29.2395   19.8711 H   0  0  0  0  0  0
  -25.1282  -36.1963   25.0857 H   0  0  0  0  0  0
  -20.9980  -28.3255   24.1408 H   0  0  0  0  0  0
  -20.5632  -26.2287   23.3599 H   0  0  0  0  0  0
  -21.6635  -26.7431   22.1232 H   0  0  0  0  0  0
  -19.6907  -25.6314   21.1221 H   0  0  0  0  0  0
  -19.6690  -27.3198   20.6719 H   0  0  0  0  0  0
  -17.4200  -26.6674   21.4027 H   0  0  0  0  0  0
  -18.0350  -26.0046   22.8995 H   0  0  0  0  0  0
  -19.7945  -30.7241   24.2313 H   0  0  0  0  0  0
  -17.5031  -31.6274   24.5159 H   0  0  0  0  0  0
  -15.5363  -30.3013   23.7622 H   0  0  0  0  0  0
  -15.8657  -28.0806   22.7100 H   0  0  0  0  0  0
  -24.5946  -30.7003   25.7760 H   0  0  0  0  0  0
  -24.8951  -32.2822   26.4885 H   0  0  0  0  0  0
  -25.8140  -30.8823   27.0177 H   0  0  0  0  0  0
  -26.2879  -29.6757   24.1118 H   0  0  0  0  0  0
  -27.4124  -29.7261   25.4506 H   0  0  0  0  0  0
  -27.8694  -30.4316   23.9180 H   0  0  0  0  0  0
  -27.2723  -33.3571   26.2015 H   0  0  0  0  0  0
  -28.3882  -32.6826   25.0251 H   0  0  0  0  0  0
  -28.0731  -31.8369   26.5346 H   0  0  0  0  0  0
  -28.2617  -38.0090   24.7544 H   0  0  0  0  0  0
  -28.1103  -36.2636   24.6277 H   0  0  0  0  0  0
  -27.2307  -37.1409   25.8878 H   0  0  0  0  0  0
  -20.9291  -29.8743   21.6890 H   0  0  0  0  0  0
  -26.0189  -38.2870   24.1419 H   0  0  0  0  0  0
  -27.8575  -19.9017   19.0973 H   0  0  0  0  0  0
  -27.2842  -22.5415   18.8810 H   0  0  0  0  0  0
  -33.2342  -21.1421   19.0764 H   0  0  0  0  0  0
  -31.9334  -21.1299   20.2470 H   0  0  0  0  0  0
  -31.5647  -21.1444   18.5234 H   0  0  0  0  0  0
  -28.0184  -18.7564   22.4343 H   0  0  0  0  0  0
  -29.0189  -19.8205   23.4062 H   0  0  0  0  0  0
  -29.4902  -18.1449   23.2026 H   0  0  0  0  0  0
  -29.3723  -15.3875   22.1483 H   0  0  0  0  0  0
  -30.9214  -16.0941   22.0551 H   0  0  0  0  0  0
  -32.8983  -18.8195   20.0469 H   0  0  0  0  0  0
  -32.7624  -18.9181   18.3223 H   0  0  0  0  0  0
  -27.7149  -24.3068   21.4924 H   0  0  0  0  0  0
  -29.4549  -24.4478   21.4956 H   0  0  0  0  0  0
  -28.5031  -17.1443   20.9946 H   0  0  0  0  0  0
  -29.2970  -16.6198   19.5930 H   0  0  0  0  0  0
  -31.0243  -17.5831   18.7285 H   0  0  0  0  0  0
  -30.1614  -19.0750   18.6402 H   0  0  0  0  0  0
  -29.4561  -25.1762   19.1467 H   0  0  0  0  0  0
  -27.7621  -24.9544   18.9787 H   0  0  0  0  0  0
  -30.8124  -19.7560   21.8465 H   0  0  0  0  0  0
  -31.1570  -17.9238   21.1122 H   0  0  0  0  0  0
  1 25  1  0  0  0
  1 30  2  0  0  0
  1 76  1  0  0  0
  2  3  1  0  0  0
  2 25  1  0  0  0
  2 86  1  0  0  0
  2 87  1  0  0  0
  3  4  1  0  0  0
  3 88  1  0  0  0
  3 89  1  0  0  0
  4  5  1  0  0  0
  4 90  1  0  0  0
  4 91  1  0  0  0
  5  6  1  0  0  0
  5 26  1  0  0  0
  5 92  1  0  0  0
  6 25  1  0  0  0
  6 93  1  0  0  0
  6 94  1  0  0  0
  7  8  2  0  0  0
  7 26  1  0  0  0
  7 29  1  0  0  0
  8  9  1  0  0  0
  8 22  1  0  0  0
  9 10  1  0  0  0
  9 27  2  0  0  0
 10 11  2  0  0  0
 10 15  1  0  0  0
 11 12  1  0  0  0
 11 95  1  0  0  0
 12 13  2  0  0  0
 12 96  1  0  0  0
 13 14  1  0  0  0
 13 31  1  0  0  0
 14 15  2  0  0  0
 14 97  1  0  0  0
 15 98  1  0  0  0
 16 17  2  0  0  0
 16 21  1  0  0  0
 16 31  1  0  0  0
 17 18  1  0  0  0
 17 99  1  0  0  0
 18 19  2  0  0  0
 18100  1  0  0  0
 19 20  1  0  0  0
 19 24  1  0  0  0
 20 21  2  0  0  0
 20101  1  0  0  0
 21 23  1  0  0  0
 22 28  1  0  0  0
 22 32  2  0  0  0
 26 27  1  0  0  0
 28102  1  0  0  0
 28103  1  0  0  0
 29104  1  0  0  0
 29105  1  0  0  0
 33 34  1  0  0  0
 33 66  1  0  0  0
 33 70  2  0  0  0
 34 36  1  0  0  0
 34 59  1  0  0  0
 34106  1  0  0  0
 35 44  2  0  0  0
 35 45  1  0  0  0
 35 68  1  0  0  0
 36 56  1  0  0  0
 36107  1  0  0  0
 37 39  1  0  0  0
 37 47  1  0  0  0
 37 66  1  0  0  0
 37108  1  0  0  0
 38 43  2  0  0  0
 38 46  1  0  0  0
 38 47  1  0  0  0
 39 64  1  0  0  0
 39 67  2  0  0  0
 40 52  1  0  0  0
 40 53  2  0  0  0
 40 58  1  0  0  0
 41109  1  0  0  0
 41110  1  0  0  0
 41111  1  0  0  0
 41 48  1  0  0  0
 42 43  1  0  0  0
 42 66  1  0  0  0
 42112  1  0  0  0
 42113  1  0  0  0
 43 44  1  0  0  0
 44114  1  0  0  0
 45 46  2  0  0  0
 45115  1  0  0  0
 46116  1  0  0  0
 47117  1  0  0  0
 47118  1  0  0  0
 48 56  1  0  0  0
 48 65  1  0  0  0
 48119  1  0  0  0
 49 50  1  0  0  0
 49 53  1  0  0  0
 49 64  1  0  0  0
 49120  1  0  0  0
 50 51  1  0  0  0
 50121  1  0  0  0
 50122  1  0  0  0
 51 52  1  0  0  0
 51123  1  0  0  0
 51124  1  0  0  0
 52125  1  0  0  0
 52126  1  0  0  0
 53 54  1  0  0  0
 54 55  2  0  0  0
 54127  1  0  0  0
 55 57  1  0  0  0
 55128  1  0  0  0
 56 69  2  0  0  0
 57 58  2  0  0  0
 57129  1  0  0  0
 58130  1  0  0  0
 59 60  1  0  0  0
 59 61  1  0  0  0
 59 62  1  0  0  0
 60131  1  0  0  0
 60132  1  0  0  0
 60133  1  0  0  0
 61134  1  0  0  0
 61135  1  0  0  0
 61136  1  0  0  0
 62137  1  0  0  0
 62138  1  0  0  0
 62139  1  0  0  0
 63 65  1  0  0  0
 63140  1  0  0  0
 63141  1  0  0  0
 63142  1  0  0  0
 64143  1  0  0  0
 65144  1  0  0  0
 68 81  1  0  0  0
 71 72  2  0  0  0
 71 73  1  0  0  0
 71145  1  0  0  0
 72 84  1  0  0  0
 72146  1  0  0  0
 73 82  1  0  0  0
 73 83  2  0  0  0
 74 77  1  0  0  0
 74147  1  0  0  0
 74148  1  0  0  0
 74149  1  0  0  0
 75150  1  0  0  0
 75151  1  0  0  0
 75152  1  0  0  0
 75 82  1  0  0  0
 76 79  1  0  0  0
 76153  1  0  0  0
 76154  1  0  0  0
 77 80  1  0  0  0
 77155  1  0  0  0
 77156  1  0  0  0
 78 81  1  0  0  0
 78 84  1  0  0  0
 78157  1  0  0  0
 78158  1  0  0  0
 79159  1  0  0  0
 79160  1  0  0  0
 79 85  1  0  0  0
 80 85  1  0  0  0
 80161  1  0  0  0
 80162  1  0  0  0
 81163  1  0  0  0
 81164  1  0  0  0
 82 85  1  0  0  0
 82165  1  0  0  0
 83 84  1  0  0  0
 85166  1  0  0  0
M  CHG  1  85   1
M  ISO  4   1 100  68 101  76 100  81 101
M  END
> <chiral flag>
0

> <version>
0

> <s_m_source_file>
/data/baiqing/PycharmProjects/Reinvent-master-3.2/result/LINK_invent/BTK/process_docking_weight1_custom_sum_contain_oxygen_bond_distance_aromatic_linkinvent_7_9_3/rearranged_h_0050.sdf

> <i_m_source_file_index>
41

> <r_mmod_Potential_Energy-OPLS-2005>
-127.679809570312

> <r_mmod_Stretch_Energy-OPLS-2005>
63.0445404052734

> <r_mmod_Bend_Energy-OPLS-2005>
156.663513183594

> <r_mmod_Torsional_Energy-OPLS-2005>
200.105316162109

> <r_mmod_Improper_Torsional_Energy-OPLS-2005>
2.89158463478088

> <r_mmod_Van_der_Waal_Energy-OPLS-2005>
119.847381591797

> <r_mmod_Electrostatic_Energy-OPLS-2005>
-265.136779785156

> <r_mmod_Solvation_Energy-OPLS-2005>
-426.191070556641

> <b_mmod_Minimization_Converged-OPLS-2005>
0

> <r_mmod_RMS_Derivative-OPLS-2005>
3.1202986240387

$$$$
44
                    3D
 Structure written by MMmdl.
168176  0  0  1  0            999 V2000
  -30.7210  -14.5007   20.4762 C   0  0  0  0  0  0
  -30.4147  -12.2947   19.4372 C   0  0  0  0  0  0
  -29.4908  -12.4414   18.2116 C   0  0  0  0  0  0
  -28.0094  -12.3289   18.6294 C   0  0  0  0  0  0
  -27.6450  -13.1968   19.8661 C   0  0  2  0  0  0
  -28.7030  -13.0704   20.9863 C   0  0  0  0  0  0
  -25.2557  -13.8108   20.5760 C   0  0  0  0  0  0
  -24.1797  -13.0393   20.9216 C   0  0  0  0  0  0
  -24.6344  -11.6863   20.8775 C   0  0  0  0  0  0
  -23.9013  -10.4264   21.0411 C   0  0  0  0  0  0
  -24.3583   -9.4189   21.9191 C   0  0  0  0  0  0
  -23.6273   -8.2215   22.0752 C   0  0  0  0  0  0
  -22.4256   -8.0257   21.3541 C   0  0  0  0  0  0
  -21.9884   -9.0227   20.4645 C   0  0  0  0  0  0
  -22.7192  -10.2115   20.3048 C   0  0  0  0  0  0
  -21.6841   -6.0718   22.5278 C   0  0  0  0  0  0
  -21.4001   -6.5627   23.8209 C   0  0  0  0  0  0
  -21.3658   -5.6782   24.9171 C   0  0  0  0  0  0
  -21.6046   -4.3046   24.7228 C   0  0  0  0  0  0
  -21.8820   -3.8127   23.4353 C   0  0  0  0  0  0
  -21.9192   -4.6945   22.3405 C   0  0  0  0  0  0
  -22.7832  -13.5222   21.1858 C   0  0  0  0  0  0
  -22.1670   -4.2134   21.0981 F   0  0  0  0  0  0
  -21.5630   -3.4541   25.7753 F   0  0  0  0  0  0
  -30.0240  -13.3345   20.3985 N   0  0  0  0  0  0
  -26.2955  -12.9234   20.3433 N   0  0  0  0  0  0
  -25.9273  -11.6414   20.5855 N   0  0  0  0  0  0
  -22.0457  -12.8225   22.0413 N   0  0  0  0  0  0
  -25.4292  -15.1831   20.4201 N   0  0  0  0  0  0
  -31.9234  -14.5777   20.2151 O   0  0  0  0  0  0
  -21.6613   -6.8861   21.4245 O   0  0  0  0  0  0
  -22.3534  -14.5532   20.6702 O   0  0  0  0  0  0
  -24.6114  -31.8696   23.2123 C   0  0  0  0  0  0
  -25.9008  -32.4839   23.8412 C   0  0  1  0  0  0
  -27.2456  -27.4542   20.1086 C   0  0  0  0  0  0
  -25.5877  -33.8639   24.2344 N   0  0  0  0  0  0
  -23.4018  -30.4900   21.5505 C   0  0  2  0  0  0
  -24.8565  -28.9592   20.1147 C   0  0  0  0  0  0
  -22.7400  -29.4643   22.4992 C   0  0  0  0  0  0
  -18.0265  -28.1379   22.8493 C   0  0  0  0  0  0
  -24.1485  -36.7316   23.2634 C   0  0  0  0  0  0
  -25.9272  -30.8409   21.3653 C   0  0  0  0  0  0
  -26.0103  -29.4736   20.7208 C   0  0  0  0  0  0
  -27.2083  -28.7261   20.7240 C   0  0  0  0  0  0
  -26.0840  -26.9556   19.4874 C   0  0  0  0  0  0
  -24.8864  -27.6969   19.4954 C   0  0  0  0  0  0
  -23.6136  -29.8200   20.1647 C   0  0  0  0  0  0
  -25.4106  -36.3123   24.0342 C   0  0  1  0  0  0
  -20.5857  -28.3646   23.1329 C   0  0  2  0  0  0
  -20.6758  -26.9387   22.5429 C   0  0  0  0  0  0
  -19.5743  -26.6382   21.5220 C   0  0  0  0  0  0
  -18.1914  -26.7930   22.1618 C   0  0  0  0  0  0
  -19.1517  -28.8831   23.2909 C   0  0  0  0  0  0
  -18.9442  -30.1440   23.8922 C   0  0  0  0  0  0
  -17.6443  -30.6584   24.0568 C   0  0  0  0  0  0
  -25.9026  -34.9487   23.5140 C   0  0  0  0  0  0
  -16.5336  -29.9087   23.6325 C   0  0  0  0  0  0
  -16.7255  -28.6506   23.0345 C   0  0  0  0  0  0
  -26.4462  -31.6606   25.0722 C   0  0  0  0  0  0
  -25.3747  -31.3722   26.1487 C   0  0  0  0  0  0
  -27.0267  -30.3041   24.6075 C   0  0  0  0  0  0
  -27.6055  -32.4319   25.7468 C   0  0  0  0  0  0
  -27.5596  -37.1797   24.8450 C   0  0  0  0  0  0
  -21.4127  -29.3021   22.3735 N   0  0  0  0  0  0
  -26.4285  -37.3815   23.9430 N   0  0  0  0  0  0
  -24.6644  -31.0805   22.1019 N   0  0  0  0  0  0
  -23.4181  -28.8183   23.3024 O   0  0  0  0  0  0
  -28.3736  -26.6682   20.0868 O   0  0  0  0  0  0
  -26.5591  -34.8931   22.4704 O   0  0  0  0  0  0
  -23.5306  -32.1431   23.7521 O   0  0  0  0  0  0
  -29.3641  -23.9821   22.4257 C   0  0  0  0  0  0
  -29.5543  -24.9906   21.4348 C   0  0  0  0  0  0
  -30.1623  -22.9337   22.0441 C   0  0  0  0  0  0
  -30.5468  -16.8676   18.3927 C   0  0  0  0  0  0
  -31.7558  -22.6444   20.0455 C   0  0  0  0  0  0
  -28.1354  -20.6230   22.4863 C   0  0  0  0  0  0
  -28.9368  -26.3764   21.3705 C   0  0  0  0  0  0
  -30.3972  -21.5914   22.7049 C   0  0  0  0  0  0
  -29.5863  -18.0306   21.4857 C   0  0  0  0  0  0
  -29.4761  -16.1716   19.2577 C   0  0  0  0  0  0
  -30.3390  -16.6642   21.5660 C   0  0  0  0  0  0
  -30.1142  -19.1242   22.4483 C   0  0  0  0  0  0
  -30.4125  -24.5894   20.5062 N   0  0  0  0  0  0
  -30.7925  -23.3440   20.8779 N   0  0  0  0  0  0
  -29.9831  -15.6422   20.5454 N   0  0  0  0  0  0
  -29.5726  -20.4850   22.1400 N   0  3  1  0  0  0
  -31.4599  -12.3749   19.1326 H   0  0  0  0  0  0
  -30.3068  -11.3064   19.8871 H   0  0  0  0  0  0
  -29.7251  -11.6698   17.4775 H   0  0  0  0  0  0
  -29.6744  -13.3915   17.7103 H   0  0  0  0  0  0
  -27.8169  -11.2796   18.8548 H   0  0  0  0  0  0
  -27.3607  -12.5810   17.7899 H   0  0  0  0  0  0
  -27.6290  -14.2258   19.5312 H   0  0  0  0  0  0
  -28.6857  -12.0712   21.4236 H   0  0  0  0  0  0
  -28.4879  -13.7665   21.7995 H   0  0  0  0  0  0
  -25.2723   -9.5675   22.4769 H   0  0  0  0  0  0
  -23.9987   -7.4592   22.7456 H   0  0  0  0  0  0
  -21.0816   -8.8718   19.8958 H   0  0  0  0  0  0
  -22.3627  -10.9649   19.6153 H   0  0  0  0  0  0
  -21.1982   -7.6131   23.9710 H   0  0  0  0  0  0
  -21.1487   -6.0509   25.9076 H   0  0  0  0  0  0
  -22.0608   -2.7589   23.2838 H   0  0  0  0  0  0
  -22.4050  -11.9882   22.4806 H   0  0  0  0  0  0
  -21.1076  -13.1268   22.2611 H   0  0  0  0  0  0
  -24.6681  -15.8438   20.5340 H   0  0  0  0  0  0
  -26.2965  -15.6236   20.1393 H   0  0  0  0  0  0
  -26.7084  -32.5575   23.1187 H   0  0  0  0  0  0
  -25.0030  -33.9817   25.0487 H   0  0  0  0  0  0
  -22.6885  -31.3049   21.4096 H   0  0  0  0  0  0
  -23.3763  -35.9623   23.3257 H   0  0  0  0  0  0
  -24.3596  -36.8974   22.2055 H   0  0  0  0  0  0
  -23.7194  -37.6495   23.6670 H   0  0  0  0  0  0
  -26.0322  -31.6041   20.5928 H   0  0  0  0  0  0
  -26.8171  -30.9026   21.9793 H   0  0  0  0  0  0
  -28.0973  -29.1253   21.1918 H   0  0  0  0  0  0
  -26.1050  -25.9844   19.0132 H   0  0  0  0  0  0
  -24.0027  -27.2954   19.0195 H   0  0  0  0  0  0
  -23.7168  -30.5949   19.4041 H   0  0  0  0  0  0
  -22.7408  -29.2338   19.8698 H   0  0  0  0  0  0
  -25.1274  -36.1988   25.0830 H   0  0  0  0  0  0
  -20.9950  -28.3217   24.1448 H   0  0  0  0  0  0
  -20.5648  -26.2260   23.3609 H   0  0  0  0  0  0
  -21.6626  -26.7435   22.1223 H   0  0  0  0  0  0
  -19.6901  -25.6297   21.1234 H   0  0  0  0  0  0
  -19.6696  -27.3205   20.6760 H   0  0  0  0  0  0
  -17.4191  -26.6683   21.4010 H   0  0  0  0  0  0
  -18.0307  -26.0068   22.9005 H   0  0  0  0  0  0
  -19.7921  -30.7252   24.2304 H   0  0  0  0  0  0
  -17.5001  -31.6272   24.5154 H   0  0  0  0  0  0
  -15.5340  -30.2998   23.7648 H   0  0  0  0  0  0
  -15.8650  -28.0842   22.7045 H   0  0  0  0  0  0
  -24.5885  -30.7112   25.7827 H   0  0  0  0  0  0
  -24.8989  -32.2888   26.4986 H   0  0  0  0  0  0
  -25.8100  -30.8839   27.0212 H   0  0  0  0  0  0
  -26.2784  -29.6821   24.1147 H   0  0  0  0  0  0
  -27.4050  -29.7266   25.4519 H   0  0  0  0  0  0
  -27.8626  -30.4354   23.9202 H   0  0  0  0  0  0
  -27.2688  -33.3615   26.2073 H   0  0  0  0  0  0
  -28.3846  -32.6885   25.0274 H   0  0  0  0  0  0
  -28.0742  -31.8427   26.5361 H   0  0  0  0  0  0
  -28.2570  -38.0140   24.7582 H   0  0  0  0  0  0
  -28.1144  -36.2686   24.6159 H   0  0  0  0  0  0
  -27.2340  -37.1297   25.8856 H   0  0  0  0  0  0
  -20.9275  -29.8750   21.6967 H   0  0  0  0  0  0
  -26.0177  -38.2880   24.1496 H   0  0  0  0  0  0
  -28.7315  -24.0327   23.3007 H   0  0  0  0  0  0
  -30.0958  -17.2753   17.4880 H   0  0  0  0  0  0
  -31.3204  -16.1667   18.0772 H   0  0  0  0  0  0
  -31.0406  -17.6905   18.9079 H   0  0  0  0  0  0
  -32.3431  -21.9400   20.6329 H   0  0  0  0  0  0
  -32.4451  -23.3559   19.5880 H   0  0  0  0  0  0
  -31.2354  -22.1027   19.2557 H   0  0  0  0  0  0
  -27.7543  -21.6126   22.2327 H   0  0  0  0  0  0
  -27.9706  -20.4669   23.5532 H   0  0  0  0  0  0
  -27.5187  -19.9063   21.9451 H   0  0  0  0  0  0
  -29.6938  -27.1288   21.5933 H   0  0  0  0  0  0
  -28.1813  -26.4651   22.1540 H   0  0  0  0  0  0
  -30.2037  -21.6689   23.7757 H   0  0  0  0  0  0
  -31.4553  -21.3438   22.6272 H   0  0  0  0  0  0
  -28.5244  -17.8603   21.6625 H   0  0  0  0  0  0
  -29.6684  -18.4505   20.4854 H   0  0  0  0  0  0
  -29.0998  -15.3645   18.6364 H   0  0  0  0  0  0
  -28.6097  -16.8139   19.4147 H   0  0  0  0  0  0
  -30.1724  -16.2278   22.5528 H   0  0  0  0  0  0
  -31.4132  -16.8511   21.5000 H   0  0  0  0  0  0
  -31.2017  -19.1469   22.3635 H   0  0  0  0  0  0
  -29.9016  -18.8572   23.4846 H   0  0  0  0  0  0
  -29.6411  -20.5992   21.1407 H   0  0  0  0  0  0
  1 25  1  0  0  0
  1 30  2  0  0  0
  1 85  1  0  0  0
  2  3  1  0  0  0
  2 25  1  0  0  0
  2 87  1  0  0  0
  2 88  1  0  0  0
  3  4  1  0  0  0
  3 89  1  0  0  0
  3 90  1  0  0  0
  4  5  1  0  0  0
  4 91  1  0  0  0
  4 92  1  0  0  0
  5  6  1  0  0  0
  5 26  1  0  0  0
  5 93  1  0  0  0
  6 25  1  0  0  0
  6 94  1  0  0  0
  6 95  1  0  0  0
  7  8  2  0  0  0
  7 26  1  0  0  0
  7 29  1  0  0  0
  8  9  1  0  0  0
  8 22  1  0  0  0
  9 10  1  0  0  0
  9 27  2  0  0  0
 10 11  2  0  0  0
 10 15  1  0  0  0
 11 12  1  0  0  0
 11 96  1  0  0  0
 12 13  2  0  0  0
 12 97  1  0  0  0
 13 14  1  0  0  0
 13 31  1  0  0  0
 14 15  2  0  0  0
 14 98  1  0  0  0
 15 99  1  0  0  0
 16 17  2  0  0  0
 16 21  1  0  0  0
 16 31  1  0  0  0
 17 18  1  0  0  0
 17100  1  0  0  0
 18 19  2  0  0  0
 18101  1  0  0  0
 19 20  1  0  0  0
 19 24  1  0  0  0
 20 21  2  0  0  0
 20102  1  0  0  0
 21 23  1  0  0  0
 22 28  1  0  0  0
 22 32  2  0  0  0
 26 27  1  0  0  0
 28103  1  0  0  0
 28104  1  0  0  0
 29105  1  0  0  0
 29106  1  0  0  0
 33 34  1  0  0  0
 33 66  1  0  0  0
 33 70  2  0  0  0
 34 36  1  0  0  0
 34 59  1  0  0  0
 34107  1  0  0  0
 35 44  2  0  0  0
 35 45  1  0  0  0
 35 68  1  0  0  0
 36 56  1  0  0  0
 36108  1  0  0  0
 37 39  1  0  0  0
 37 47  1  0  0  0
 37 66  1  0  0  0
 37109  1  0  0  0
 38 43  2  0  0  0
 38 46  1  0  0  0
 38 47  1  0  0  0
 39 64  1  0  0  0
 39 67  2  0  0  0
 40 52  1  0  0  0
 40 53  2  0  0  0
 40 58  1  0  0  0
 41110  1  0  0  0
 41111  1  0  0  0
 41112  1  0  0  0
 41 48  1  0  0  0
 42 43  1  0  0  0
 42 66  1  0  0  0
 42113  1  0  0  0
 42114  1  0  0  0
 43 44  1  0  0  0
 44115  1  0  0  0
 45 46  2  0  0  0
 45116  1  0  0  0
 46117  1  0  0  0
 47118  1  0  0  0
 47119  1  0  0  0
 48 56  1  0  0  0
 48 65  1  0  0  0
 48120  1  0  0  0
 49 50  1  0  0  0
 49 53  1  0  0  0
 49 64  1  0  0  0
 49121  1  0  0  0
 50 51  1  0  0  0
 50122  1  0  0  0
 50123  1  0  0  0
 51 52  1  0  0  0
 51124  1  0  0  0
 51125  1  0  0  0
 52126  1  0  0  0
 52127  1  0  0  0
 53 54  1  0  0  0
 54 55  2  0  0  0
 54128  1  0  0  0
 55 57  1  0  0  0
 55129  1  0  0  0
 56 69  2  0  0  0
 57 58  2  0  0  0
 57130  1  0  0  0
 58131  1  0  0  0
 59 60  1  0  0  0
 59 61  1  0  0  0
 59 62  1  0  0  0
 60132  1  0  0  0
 60133  1  0  0  0
 60134  1  0  0  0
 61135  1  0  0  0
 61136  1  0  0  0
 61137  1  0  0  0
 62138  1  0  0  0
 62139  1  0  0  0
 62140  1  0  0  0
 63 65  1  0  0  0
 63141  1  0  0  0
 63142  1  0  0  0
 63143  1  0  0  0
 64144  1  0  0  0
 65145  1  0  0  0
 68 77  1  0  0  0
 71 72  1  0  0  0
 71 73  2  0  0  0
 71146  1  0  0  0
 72 77  1  0  0  0
 72 83  2  0  0  0
 73 78  1  0  0  0
 73 84  1  0  0  0
 74 80  1  0  0  0
 74147  1  0  0  0
 74148  1  0  0  0
 74149  1  0  0  0
 75 84  1  0  0  0
 75150  1  0  0  0
 75151  1  0  0  0
 75152  1  0  0  0
 76153  1  0  0  0
 76154  1  0  0  0
 76155  1  0  0  0
 76 86  1  0  0  0
 77156  1  0  0  0
 77157  1  0  0  0
 78 86  1  0  0  0
 78158  1  0  0  0
 78159  1  0  0  0
 79 81  1  0  0  0
 79 82  1  0  0  0
 79160  1  0  0  0
 79161  1  0  0  0
 80 85  1  0  0  0
 80162  1  0  0  0
 80163  1  0  0  0
 81 85  1  0  0  0
 81164  1  0  0  0
 81165  1  0  0  0
 82 86  1  0  0  0
 82166  1  0  0  0
 82167  1  0  0  0
 83 84  1  0  0  0
 86168  1  0  0  0
M  CHG  1  86   1
M  ISO  4   1 100  68 101  77 101  85 100
M  END
> <chiral flag>
0

> <version>
0

> <s_m_source_file>
/data/baiqing/PycharmProjects/Reinvent-master-3.2/result/LINK_invent/BTK/process_docking_weight1_custom_sum_contain_oxygen_bond_distance_aromatic_linkinvent_7_9_3/rearranged_h_0050.sdf

> <i_m_source_file_index>
42

> <r_mmod_Potential_Energy-OPLS-2005>
17.7918090820312

> <r_mmod_Stretch_Energy-OPLS-2005>
39.8373985290527

> <r_mmod_Bend_Energy-OPLS-2005>
101.706642150879

> <r_mmod_Torsional_Energy-OPLS-2005>
333.068878173828

> <r_mmod_Improper_Torsional_Energy-OPLS-2005>
9.93970680236816

> <r_mmod_Van_der_Waal_Energy-OPLS-2005>
132.067016601562

> <r_mmod_Electrostatic_Energy-OPLS-2005>
-154.957458496094

> <r_mmod_Solvation_Energy-OPLS-2005>
-467.552062988281

> <b_mmod_Minimization_Converged-OPLS-2005>
0

> <r_mmod_RMS_Derivative-OPLS-2005>
1.69453036785126

$$$$
45
                    3D
 Structure written by MMmdl.
150158  0  0  1  0            999 V2000
  -30.5154  -14.9712   20.4777 C   0  0  0  0  0  0
  -30.4479  -12.6076   19.5093 C   0  0  0  0  0  0
  -29.5283  -12.5644   18.2646 C   0  0  0  0  0  0
  -28.0601  -12.3400   18.6707 C   0  0  0  0  0  0
  -27.6384  -13.2494   19.8535 C   0  0  2  0  0  0
  -28.6785  -13.2375   20.9935 C   0  0  0  0  0  0
  -25.2491  -13.8213   20.5699 C   0  0  0  0  0  0
  -24.1799  -13.0441   20.9188 C   0  0  0  0  0  0
  -24.6416  -11.6924   20.8734 C   0  0  0  0  0  0
  -23.9090  -10.4297   21.0409 C   0  0  0  0  0  0
  -24.3638   -9.4210   21.9183 C   0  0  0  0  0  0
  -23.6308   -8.2245   22.0758 C   0  0  0  0  0  0
  -22.4285   -8.0287   21.3549 C   0  0  0  0  0  0
  -21.9935   -9.0256   20.4631 C   0  0  0  0  0  0
  -22.7271  -10.2134   20.3044 C   0  0  0  0  0  0
  -21.6851   -6.0742   22.5279 C   0  0  0  0  0  0
  -21.4016   -6.5652   23.8214 C   0  0  0  0  0  0
  -21.3666   -5.6805   24.9177 C   0  0  0  0  0  0
  -21.6047   -4.3062   24.7221 C   0  0  0  0  0  0
  -21.8828   -3.8153   23.4344 C   0  0  0  0  0  0
  -21.9192   -4.6970   22.3406 C   0  0  0  0  0  0
  -22.7817  -13.5191   21.1863 C   0  0  0  0  0  0
  -22.1664   -4.2165   21.0981 F   0  0  0  0  0  0
  -21.5628   -3.4548   25.7731 F   0  0  0  0  0  0
  -29.9551  -13.6869   20.4201 N   0  0  0  0  0  0
  -26.2934  -12.9455   20.3275 N   0  0  0  0  0  0
  -25.9355  -11.6583   20.5725 N   0  0  0  0  0  0
  -22.0485  -12.8162   22.0414 N   0  0  0  0  0  0
  -25.4183  -15.1955   20.4168 N   0  0  0  0  0  0
  -31.6700  -15.0591   20.0391 O   0  0  0  0  0  0
  -21.6643   -6.8889   21.4245 O   0  0  0  0  0  0
  -22.3492  -14.5501   20.6721 O   0  0  0  0  0  0
  -24.6470  -31.8399   23.1836 C   0  0  0  0  0  0
  -25.9235  -32.4672   23.8243 C   0  0  1  0  0  0
  -27.2289  -27.1064   20.1499 C   0  0  0  0  0  0
  -25.5995  -33.8490   24.2181 N   0  0  0  0  0  0
  -23.4514  -30.4547   21.5292 C   0  0  2  0  0  0
  -24.9041  -28.8718   20.1074 C   0  0  0  0  0  0
  -22.7580  -29.4509   22.4840 C   0  0  0  0  0  0
  -18.0305  -28.1385   22.8445 C   0  0  0  0  0  0
  -24.1508  -36.7226   23.2636 C   0  0  0  0  0  0
  -26.0089  -30.7018   21.3886 C   0  0  0  0  0  0
  -26.0790  -29.3097   20.7293 C   0  0  0  0  0  0
  -27.2365  -28.4411   20.7346 C   0  0  0  0  0  0
  -26.0267  -26.7733   19.4877 C   0  0  0  0  0  0
  -24.8926  -27.6191   19.4726 C   0  0  0  0  0  0
  -23.6799  -29.7763   20.1505 C   0  0  0  0  0  0
  -25.4144  -36.3013   24.0308 C   0  0  1  0  0  0
  -20.5919  -28.3711   23.1222 C   0  0  2  0  0  0
  -20.6798  -26.9413   22.5396 C   0  0  0  0  0  0
  -19.5785  -26.6363   21.5196 C   0  0  0  0  0  0
  -18.1952  -26.7919   22.1590 C   0  0  0  0  0  0
  -19.1561  -28.8869   23.2814 C   0  0  0  0  0  0
  -18.9470  -30.1467   23.8837 C   0  0  0  0  0  0
  -17.6467  -30.6578   24.0549 C   0  0  0  0  0  0
  -25.9096  -34.9389   23.5044 C   0  0  0  0  0  0
  -16.5358  -29.9059   23.6347 C   0  0  0  0  0  0
  -16.7286  -28.6488   23.0344 C   0  0  0  0  0  0
  -26.4574  -31.6545   25.0689 C   0  0  0  0  0  0
  -25.3760  -31.3703   26.1370 C   0  0  0  0  0  0
  -27.0446  -30.2940   24.6296 C   0  0  0  0  0  0
  -27.6099  -32.4309   25.7485 C   0  0  0  0  0  0
  -27.5586  -37.1767   24.8465 C   0  0  0  0  0  0
  -21.4269  -29.3022   22.3580 N   0  0  0  0  0  0
  -26.4303  -37.3732   23.9399 N   0  0  0  0  0  0
  -24.7219  -31.0218   22.0879 N   0  0  0  0  0  0
  -23.4198  -28.8071   23.3025 O   0  0  0  0  0  0
  -28.2968  -26.1352   20.2757 O   0  0  0  0  0  0
  -26.5657  -34.8882   22.4613 O   0  0  0  0  0  0
  -23.5583  -32.1288   23.7046 O   0  0  0  0  0  0
  -29.1476  -20.1442   20.2433 C   0  0  0  0  0  0
  -30.0635  -19.1341   20.6720 C   0  0  0  0  0  0
  -31.4546  -19.3137   21.1826 C   0  0  0  0  0  0
  -29.2300  -21.7648   19.8596 C   0  0  0  0  0  0
  -29.8225  -16.3439   21.1384 C   0  0  0  0  0  0
  -28.4990  -23.1519   20.5211 C   0  0  0  0  0  0
  -28.3755  -24.6623   19.7326 C   0  0  0  0  0  0
  -28.0471  -19.3496   19.8732 N   0  0  0  0  0  0
  -28.2393  -18.0494   20.0729 N   0  0  0  0  0  0
  -29.4945  -17.7984   20.5522 N   0  0  0  0  0  0
  -31.4815  -12.7718   19.2003 H   0  0  0  0  0  0
  -30.4518  -11.6453   20.0233 H   0  0  0  0  0  0
  -29.8504  -11.7850   17.5750 H   0  0  0  0  0  0
  -29.6164  -13.5071   17.7217 H   0  0  0  0  0  0
  -27.9491  -11.2911   18.9485 H   0  0  0  0  0  0
  -27.4019  -12.5012   17.8162 H   0  0  0  0  0  0
  -27.6124  -14.2629   19.4520 H   0  0  0  0  0  0
  -28.7729  -12.2376   21.4211 H   0  0  0  0  0  0
  -28.3598  -13.8796   21.8142 H   0  0  0  0  0  0
  -25.2799   -9.5672   22.4736 H   0  0  0  0  0  0
  -24.0019   -7.4638   22.7489 H   0  0  0  0  0  0
  -21.0867   -8.8772   19.8926 H   0  0  0  0  0  0
  -22.3749  -10.9664   19.6130 H   0  0  0  0  0  0
  -21.2016   -7.6162   23.9719 H   0  0  0  0  0  0
  -21.1476   -6.0533   25.9081 H   0  0  0  0  0  0
  -22.0596   -2.7611   23.2834 H   0  0  0  0  0  0
  -22.4142  -11.9832   22.4779 H   0  0  0  0  0  0
  -21.1094  -13.1141   22.2637 H   0  0  0  0  0  0
  -24.6510  -15.8484   20.5304 H   0  0  0  0  0  0
  -26.2720  -15.6380   20.0999 H   0  0  0  0  0  0
  -26.7294  -32.5275   23.0957 H   0  0  0  0  0  0
  -25.0210  -33.9639   25.0376 H   0  0  0  0  0  0
  -22.7548  -31.2802   21.3702 H   0  0  0  0  0  0
  -23.3794  -35.9533   23.3284 H   0  0  0  0  0  0
  -24.3583  -36.8885   22.2053 H   0  0  0  0  0  0
  -23.7246  -37.6405   23.6693 H   0  0  0  0  0  0
  -26.1764  -31.4556   20.6176 H   0  0  0  0  0  0
  -26.8753  -30.7505   22.0366 H   0  0  0  0  0  0
  -28.1320  -28.7668   21.2456 H   0  0  0  0  0  0
  -25.9188  -25.8104   19.0131 H   0  0  0  0  0  0
  -23.9899  -27.2764   18.9849 H   0  0  0  0  0  0
  -23.8188  -30.5477   19.3924 H   0  0  0  0  0  0
  -22.7943  -29.2163   19.8412 H   0  0  0  0  0  0
  -25.1342  -36.1836   25.0803 H   0  0  0  0  0  0
  -21.0001  -28.3312   24.1351 H   0  0  0  0  0  0
  -20.5702  -26.2316   23.3610 H   0  0  0  0  0  0
  -21.6660  -26.7422   22.1198 H   0  0  0  0  0  0
  -19.6958  -25.6264   21.1251 H   0  0  0  0  0  0
  -19.6752  -27.3148   20.6709 H   0  0  0  0  0  0
  -17.4230  -26.6649   21.3985 H   0  0  0  0  0  0
  -18.0356  -26.0073   22.9001 H   0  0  0  0  0  0
  -19.7948  -30.7295   24.2172 H   0  0  0  0  0  0
  -17.5021  -31.6250   24.5149 H   0  0  0  0  0  0
  -15.5356  -30.2934   23.7720 H   0  0  0  0  0  0
  -15.8688  -28.0801   22.7080 H   0  0  0  0  0  0
  -24.5993  -30.7010   25.7660 H   0  0  0  0  0  0
  -24.8893  -32.2859   26.4726 H   0  0  0  0  0  0
  -25.8058  -30.8917   27.0178 H   0  0  0  0  0  0
  -26.3059  -29.6631   24.1343 H   0  0  0  0  0  0
  -27.4085  -29.7286   25.4883 H   0  0  0  0  0  0
  -27.8962  -30.4162   23.9604 H   0  0  0  0  0  0
  -27.2719  -33.3650   26.1977 H   0  0  0  0  0  0
  -28.3961  -32.6798   25.0347 H   0  0  0  0  0  0
  -28.0707  -31.8478   26.5466 H   0  0  0  0  0  0
  -28.2577  -38.0090   24.7536 H   0  0  0  0  0  0
  -28.1116  -36.2616   24.6286 H   0  0  0  0  0  0
  -27.2288  -37.1391   25.8863 H   0  0  0  0  0  0
  -20.9491  -29.8706   21.6729 H   0  0  0  0  0  0
  -26.0167  -38.2797   24.1410 H   0  0  0  0  0  0
  -31.8569  -20.2850   20.8965 H   0  0  0  0  0  0
  -32.1210  -18.5521   20.7765 H   0  0  0  0  0  0
  -31.4828  -19.2424   22.2696 H   0  0  0  0  0  0
  -28.9409  -21.8106   18.8091 H   0  0  0  0  0  0
  -30.2916  -22.0095   19.8302 H   0  0  0  0  0  0
  -28.8852  -16.0080   21.5761 H   0  0  0  0  0  0
  -30.4444  -16.5365   22.0124 H   0  0  0  0  0  0
  -28.9875  -23.3263   21.4791 H   0  0  0  0  0  0
  -27.4791  -22.8727   20.7814 H   0  0  0  0  0  0
  -27.6324  -24.5435   18.9471 H   0  0  0  0  0  0
  -29.3050  -24.7086   19.1645 H   0  0  0  0  0  0
  1 25  1  0  0  0
  1 30  2  0  0  0
  1 75  1  0  0  0
  2  3  1  0  0  0
  2 25  1  0  0  0
  2 81  1  0  0  0
  2 82  1  0  0  0
  3  4  1  0  0  0
  3 83  1  0  0  0
  3 84  1  0  0  0
  4  5  1  0  0  0
  4 85  1  0  0  0
  4 86  1  0  0  0
  5  6  1  0  0  0
  5 26  1  0  0  0
  5 87  1  0  0  0
  6 25  1  0  0  0
  6 88  1  0  0  0
  6 89  1  0  0  0
  7  8  2  0  0  0
  7 26  1  0  0  0
  7 29  1  0  0  0
  8  9  1  0  0  0
  8 22  1  0  0  0
  9 10  1  0  0  0
  9 27  2  0  0  0
 10 11  2  0  0  0
 10 15  1  0  0  0
 11 12  1  0  0  0
 11 90  1  0  0  0
 12 13  2  0  0  0
 12 91  1  0  0  0
 13 14  1  0  0  0
 13 31  1  0  0  0
 14 15  2  0  0  0
 14 92  1  0  0  0
 15 93  1  0  0  0
 16 17  2  0  0  0
 16 21  1  0  0  0
 16 31  1  0  0  0
 17 18  1  0  0  0
 17 94  1  0  0  0
 18 19  2  0  0  0
 18 95  1  0  0  0
 19 20  1  0  0  0
 19 24  1  0  0  0
 20 21  2  0  0  0
 20 96  1  0  0  0
 21 23  1  0  0  0
 22 28  1  0  0  0
 22 32  2  0  0  0
 26 27  1  0  0  0
 28 97  1  0  0  0
 28 98  1  0  0  0
 29 99  1  0  0  0
 29100  1  0  0  0
 33 34  1  0  0  0
 33 66  1  0  0  0
 33 70  2  0  0  0
 34 36  1  0  0  0
 34 59  1  0  0  0
 34101  1  0  0  0
 35 44  2  0  0  0
 35 45  1  0  0  0
 35 68  1  0  0  0
 36 56  1  0  0  0
 36102  1  0  0  0
 37 39  1  0  0  0
 37 47  1  0  0  0
 37 66  1  0  0  0
 37103  1  0  0  0
 38 43  2  0  0  0
 38 46  1  0  0  0
 38 47  1  0  0  0
 39 64  1  0  0  0
 39 67  2  0  0  0
 40 52  1  0  0  0
 40 53  2  0  0  0
 40 58  1  0  0  0
 41104  1  0  0  0
 41105  1  0  0  0
 41106  1  0  0  0
 41 48  1  0  0  0
 42 43  1  0  0  0
 42 66  1  0  0  0
 42107  1  0  0  0
 42108  1  0  0  0
 43 44  1  0  0  0
 44109  1  0  0  0
 45 46  2  0  0  0
 45110  1  0  0  0
 46111  1  0  0  0
 47112  1  0  0  0
 47113  1  0  0  0
 48 56  1  0  0  0
 48 65  1  0  0  0
 48114  1  0  0  0
 49 50  1  0  0  0
 49 53  1  0  0  0
 49 64  1  0  0  0
 49115  1  0  0  0
 50 51  1  0  0  0
 50116  1  0  0  0
 50117  1  0  0  0
 51 52  1  0  0  0
 51118  1  0  0  0
 51119  1  0  0  0
 52120  1  0  0  0
 52121  1  0  0  0
 53 54  1  0  0  0
 54 55  2  0  0  0
 54122  1  0  0  0
 55 57  1  0  0  0
 55123  1  0  0  0
 56 69  2  0  0  0
 57 58  2  0  0  0
 57124  1  0  0  0
 58125  1  0  0  0
 59 60  1  0  0  0
 59 61  1  0  0  0
 59 62  1  0  0  0
 60126  1  0  0  0
 60127  1  0  0  0
 60128  1  0  0  0
 61129  1  0  0  0
 61130  1  0  0  0
 61131  1  0  0  0
 62132  1  0  0  0
 62133  1  0  0  0
 62134  1  0  0  0
 63 65  1  0  0  0
 63135  1  0  0  0
 63136  1  0  0  0
 63137  1  0  0  0
 64138  1  0  0  0
 65139  1  0  0  0
 68 77  1  0  0  0
 71 72  2  0  0  0
 71 74  1  0  0  0
 71 78  1  0  0  0
 72 73  1  0  0  0
 72 80  1  0  0  0
 73140  1  0  0  0
 73141  1  0  0  0
 73142  1  0  0  0
 74 76  1  0  0  0
 74143  1  0  0  0
 74144  1  0  0  0
 75 80  1  0  0  0
 75145  1  0  0  0
 75146  1  0  0  0
 76 77  1  0  0  0
 76147  1  0  0  0
 76148  1  0  0  0
 77149  1  0  0  0
 77150  1  0  0  0
 78 79  2  0  0  0
 79 80  1  0  0  0
M  ISO  4   1 100  68 101  75 100  77 101
M  END
> <chiral flag>
0

> <version>
0

> <s_m_source_file>
/data/baiqing/PycharmProjects/Reinvent-master-3.2/result/LINK_invent/BTK/process_docking_weight1_custom_sum_contain_oxygen_bond_distance_aromatic_linkinvent_7_9_3/rearranged_h_0050.sdf

> <i_m_source_file_index>
43

> <r_mmod_Potential_Energy-OPLS-2005>
586.330078125

> <r_mmod_Stretch_Energy-OPLS-2005>
296.204162597656

> <r_mmod_Bend_Energy-OPLS-2005>
338.631774902344

> <r_mmod_Torsional_Energy-OPLS-2005>
184.607009887695

> <r_mmod_Improper_Torsional_Energy-OPLS-2005>
5.41455745697021

> <r_mmod_Van_der_Waal_Energy-OPLS-2005>
105.152084350586

> <r_mmod_Electrostatic_Energy-OPLS-2005>
-342.532348632812

> <r_mmod_Solvation_Energy-OPLS-2005>
-208.635009765625

> <b_mmod_Minimization_Converged-OPLS-2005>
0

> <r_mmod_RMS_Derivative-OPLS-2005>
2.08257150650024

$$$$
46
                    3D
 Structure written by MMmdl.
159167  0  0  1  0            999 V2000
  -30.6704  -14.5079   20.4932 C   0  0  0  0  0  0
  -30.4194  -12.3070   19.4177 C   0  0  0  0  0  0
  -29.4881  -12.4764   18.1992 C   0  0  0  0  0  0
  -28.0074  -12.3524   18.6166 C   0  0  0  0  0  0
  -27.6500  -13.1982   19.8690 C   0  0  2  0  0  0
  -28.7029  -13.0184   20.9865 C   0  0  0  0  0  0
  -25.2587  -13.8132   20.5738 C   0  0  0  0  0  0
  -24.1829  -13.0412   20.9201 C   0  0  0  0  0  0
  -24.6378  -11.6880   20.8764 C   0  0  0  0  0  0
  -23.9056  -10.4272   21.0423 C   0  0  0  0  0  0
  -24.3619   -9.4188   21.9193 C   0  0  0  0  0  0
  -23.6280   -8.2236   22.0759 C   0  0  0  0  0  0
  -22.4253   -8.0281   21.3556 C   0  0  0  0  0  0
  -21.9895   -9.0245   20.4646 C   0  0  0  0  0  0
  -22.7235  -10.2120   20.3057 C   0  0  0  0  0  0
  -21.6836   -6.0737   22.5283 C   0  0  0  0  0  0
  -21.3997   -6.5647   23.8214 C   0  0  0  0  0  0
  -21.3660   -5.6800   24.9179 C   0  0  0  0  0  0
  -21.6042   -4.3062   24.7232 C   0  0  0  0  0  0
  -21.8816   -3.8151   23.4354 C   0  0  0  0  0  0
  -21.9190   -4.6964   22.3409 C   0  0  0  0  0  0
  -22.7858  -13.5217   21.1837 C   0  0  0  0  0  0
  -22.1663   -4.2157   21.0983 F   0  0  0  0  0  0
  -21.5628   -3.4548   25.7751 F   0  0  0  0  0  0
  -30.0240  -13.3131   20.4124 N   0  0  0  0  0  0
  -26.2984  -12.9260   20.3396 N   0  0  0  0  0  0
  -25.9302  -11.6443   20.5807 N   0  0  0  0  0  0
  -22.0508  -12.8204   22.0398 N   0  0  0  0  0  0
  -25.4334  -15.1854   20.4195 N   0  0  0  0  0  0
  -31.8533  -14.6538   20.1694 O   0  0  0  0  0  0
  -21.6616   -6.8882   21.4249 O   0  0  0  0  0  0
  -22.3561  -14.5539   20.6697 O   0  0  0  0  0  0
  -24.6167  -31.8672   23.2086 C   0  0  0  0  0  0
  -25.9058  -32.4817   23.8382 C   0  0  1  0  0  0
  -27.2368  -27.4119   20.1127 C   0  0  0  0  0  0
  -25.5917  -33.8622   24.2317 N   0  0  0  0  0  0
  -23.4062  -30.4901   21.5495 C   0  0  2  0  0  0
  -24.8541  -28.9521   20.1191 C   0  0  0  0  0  0
  -22.7419  -29.4660   22.4985 C   0  0  0  0  0  0
  -18.0278  -28.1383   22.8494 C   0  0  0  0  0  0
  -24.1490  -36.7297   23.2632 C   0  0  0  0  0  0
  -25.9373  -30.8265   21.3655 C   0  0  0  0  0  0
  -26.0161  -29.4587   20.7145 C   0  0  0  0  0  0
  -27.2107  -28.6976   20.7055 C   0  0  0  0  0  0
  -26.0570  -26.9298   19.5001 C   0  0  0  0  0  0
  -24.8707  -27.6873   19.5082 C   0  0  0  0  0  0
  -23.6174  -29.8218   20.1647 C   0  0  0  0  0  0
  -25.4113  -36.3106   24.0337 C   0  0  1  0  0  0
  -20.5868  -28.3673   23.1308 C   0  0  2  0  0  0
  -20.6776  -26.9412   22.5416 C   0  0  0  0  0  0
  -19.5754  -26.6385   21.5214 C   0  0  0  0  0  0
  -18.1927  -26.7932   22.1618 C   0  0  0  0  0  0
  -19.1532  -28.8843   23.2900 C   0  0  0  0  0  0
  -18.9461  -30.1453   23.8903 C   0  0  0  0  0  0
  -17.6468  -30.6591   24.0571 C   0  0  0  0  0  0
  -25.9047  -34.9476   23.5117 C   0  0  0  0  0  0
  -16.5354  -29.9094   23.6340 C   0  0  0  0  0  0
  -16.7271  -28.6507   23.0362 C   0  0  0  0  0  0
  -26.4487  -31.6598   25.0713 C   0  0  0  0  0  0
  -25.3747  -31.3709   26.1456 C   0  0  0  0  0  0
  -27.0319  -30.3040   24.6092 C   0  0  0  0  0  0
  -27.6053  -32.4315   25.7486 C   0  0  0  0  0  0
  -27.5603  -37.1787   24.8449 C   0  0  0  0  0  0
  -21.4143  -29.3041   22.3708 N   0  0  0  0  0  0
  -26.4285  -37.3806   23.9440 N   0  0  0  0  0  0
  -24.6714  -31.0757   22.0991 N   0  0  0  0  0  0
  -23.4178  -28.8203   23.3035 O   0  0  0  0  0  0
  -28.3971  -26.6551   20.1206 O   0  0  0  0  0  0
  -26.5609  -34.8932   22.4676 O   0  0  0  0  0  0
  -23.5351  -32.1443   23.7458 O   0  0  0  0  0  0
  -28.9590  -18.8990   21.5568 C   0  0  0  0  0  0
  -31.4232  -19.7162   20.8579 C   0  0  0  0  0  0
  -30.0329  -17.9774   21.4670 C   0  0  0  0  0  0
  -30.3508  -20.6604   20.9406 C   0  0  0  0  0  0
  -31.9059  -22.5261   20.6866 C   0  0  0  0  0  0
  -29.4629  -16.2207   19.2984 C   0  0  0  0  0  0
  -29.8416  -16.4767   21.7454 C   0  0  0  0  0  0
  -29.5436  -24.4361   20.3997 C   0  0  0  0  0  0
  -29.4067  -22.9868   20.9672 C   0  0  0  0  0  0
  -28.2543  -25.2845   20.5625 C   0  0  0  0  0  0
  -31.2740  -18.3914   21.1199 N   0  0  0  0  0  0
  -29.1144  -20.2236   21.2968 N   0  0  0  0  0  0
  -30.5188  -22.0531   20.6731 N   0  0  0  0  0  0
  -29.8469  -15.5838   20.5674 N   0  0  0  0  0  0
  -31.4626  -12.4065   19.1112 H   0  0  0  0  0  0
  -30.3218  -11.3045   19.8391 H   0  0  0  0  0  0
  -29.7233  -11.7295   17.4396 H   0  0  0  0  0  0
  -29.6622  -13.4429   17.7242 H   0  0  0  0  0  0
  -27.8090  -11.2979   18.8157 H   0  0  0  0  0  0
  -27.3591  -12.6263   17.7827 H   0  0  0  0  0  0
  -27.6581  -14.2371   19.5549 H   0  0  0  0  0  0
  -28.6863  -11.9975   21.3719 H   0  0  0  0  0  0
  -28.4840  -13.6652   21.8375 H   0  0  0  0  0  0
  -25.2780   -9.5656   22.4756 H   0  0  0  0  0  0
  -23.9985   -7.4630   22.7472 H   0  0  0  0  0  0
  -21.0828   -8.8779   19.8944 H   0  0  0  0  0  0
  -22.3719  -10.9665   19.6161 H   0  0  0  0  0  0
  -21.1977   -7.6153   23.9731 H   0  0  0  0  0  0
  -21.1483   -6.0526   25.9085 H   0  0  0  0  0  0
  -22.0590   -2.7608   23.2860 H   0  0  0  0  0  0
  -22.4117  -11.9835   22.4717 H   0  0  0  0  0  0
  -21.1145  -13.1250   22.2657 H   0  0  0  0  0  0
  -24.6652  -15.8400   20.5226 H   0  0  0  0  0  0
  -26.2960  -15.6260   20.1258 H   0  0  0  0  0  0
  -26.7132  -32.5542   23.1140 H   0  0  0  0  0  0
  -25.0099  -33.9777   25.0485 H   0  0  0  0  0  0
  -22.6961  -31.3083   21.4070 H   0  0  0  0  0  0
  -23.3781  -35.9595   23.3239 H   0  0  0  0  0  0
  -24.3600  -36.8972   22.2058 H   0  0  0  0  0  0
  -23.7199  -37.6464   23.6685 H   0  0  0  0  0  0
  -26.0518  -31.5903   20.5949 H   0  0  0  0  0  0
  -26.8243  -30.8799   21.9857 H   0  0  0  0  0  0
  -28.1057  -29.0835   21.1736 H   0  0  0  0  0  0
  -26.0395  -25.9718   19.0025 H   0  0  0  0  0  0
  -23.9792  -27.2909   19.0418 H   0  0  0  0  0  0
  -23.7302  -30.5954   19.4051 H   0  0  0  0  0  0
  -22.7405  -29.2442   19.8664 H   0  0  0  0  0  0
  -25.1276  -36.1954   25.0829 H   0  0  0  0  0  0
  -20.9967  -28.3253   24.1426 H   0  0  0  0  0  0
  -20.5695  -26.2282   23.3603 H   0  0  0  0  0  0
  -21.6646  -26.7461   22.1208 H   0  0  0  0  0  0
  -19.6918  -25.6296   21.1242 H   0  0  0  0  0  0
  -19.6693  -27.3198   20.6747 H   0  0  0  0  0  0
  -17.4203  -26.6697   21.4009 H   0  0  0  0  0  0
  -18.0308  -26.0064   22.9000 H   0  0  0  0  0  0
  -19.7939  -30.7262   24.2274 H   0  0  0  0  0  0
  -17.5028  -31.6277   24.5161 H   0  0  0  0  0  0
  -15.5362  -30.2999   23.7655 H   0  0  0  0  0  0
  -15.8668  -28.0830   22.7076 H   0  0  0  0  0  0
  -24.5894  -30.7093   25.7783 H   0  0  0  0  0  0
  -24.8976  -32.2872   26.4931 H   0  0  0  0  0  0
  -25.8089  -30.8839   27.0191 H   0  0  0  0  0  0
  -26.2861  -29.6793   24.1157 H   0  0  0  0  0  0
  -27.4109  -29.7280   25.4545 H   0  0  0  0  0  0
  -27.8686  -30.4362   23.9229 H   0  0  0  0  0  0
  -27.2681  -33.3611   26.2074 H   0  0  0  0  0  0
  -28.3865  -32.6872   25.0318 H   0  0  0  0  0  0
  -28.0714  -31.8429   26.5399 H   0  0  0  0  0  0
  -28.2531  -38.0174   24.7641 H   0  0  0  0  0  0
  -28.1188  -36.2714   24.6082 H   0  0  0  0  0  0
  -27.2342  -37.1203   25.8849 H   0  0  0  0  0  0
  -20.9299  -29.8762   21.6929 H   0  0  0  0  0  0
  -26.0161  -38.2857   24.1536 H   0  0  0  0  0  0
  -27.9652  -18.5732   21.8269 H   0  0  0  0  0  0
  -32.4252  -20.0082   20.5830 H   0  0  0  0  0  0
  -32.4352  -22.1716   19.7996 H   0  0  0  0  0  0
  -32.4394  -22.1642   21.5682 H   0  0  0  0  0  0
  -31.9975  -23.6099   20.6925 H   0  0  0  0  0  0
  -28.6367  -16.9208   19.4289 H   0  0  0  0  0  0
  -29.1373  -15.4925   18.5577 H   0  0  0  0  0  0
  -30.3079  -16.7550   18.8619 H   0  0  0  0  0  0
  -28.8820  -16.3372   22.2469 H   0  0  0  0  0  0
  -30.5955  -16.1630   22.4704 H   0  0  0  0  0  0
  -29.8090  -24.3944   19.3428 H   0  0  0  0  0  0
  -30.3545  -24.9613   20.9041 H   0  0  0  0  0  0
  -28.4904  -22.5641   20.5518 H   0  0  0  0  0  0
  -29.2639  -23.0308   22.0476 H   0  0  0  0  0  0
  -27.9619  -25.2967   21.6147 H   0  0  0  0  0  0
  -27.4588  -24.7664   20.0279 H   0  0  0  0  0  0
  1 25  1  0  0  0
  1 30  2  0  0  0
  1 84  1  0  0  0
  2  3  1  0  0  0
  2 25  1  0  0  0
  2 85  1  0  0  0
  2 86  1  0  0  0
  3  4  1  0  0  0
  3 87  1  0  0  0
  3 88  1  0  0  0
  4  5  1  0  0  0
  4 89  1  0  0  0
  4 90  1  0  0  0
  5  6  1  0  0  0
  5 26  1  0  0  0
  5 91  1  0  0  0
  6 25  1  0  0  0
  6 92  1  0  0  0
  6 93  1  0  0  0
  7  8  2  0  0  0
  7 26  1  0  0  0
  7 29  1  0  0  0
  8  9  1  0  0  0
  8 22  1  0  0  0
  9 10  1  0  0  0
  9 27  2  0  0  0
 10 11  2  0  0  0
 10 15  1  0  0  0
 11 12  1  0  0  0
 11 94  1  0  0  0
 12 13  2  0  0  0
 12 95  1  0  0  0
 13 14  1  0  0  0
 13 31  1  0  0  0
 14 15  2  0  0  0
 14 96  1  0  0  0
 15 97  1  0  0  0
 16 17  2  0  0  0
 16 21  1  0  0  0
 16 31  1  0  0  0
 17 18  1  0  0  0
 17 98  1  0  0  0
 18 19  2  0  0  0
 18 99  1  0  0  0
 19 20  1  0  0  0
 19 24  1  0  0  0
 20 21  2  0  0  0
 20100  1  0  0  0
 21 23  1  0  0  0
 22 28  1  0  0  0
 22 32  2  0  0  0
 26 27  1  0  0  0
 28101  1  0  0  0
 28102  1  0  0  0
 29103  1  0  0  0
 29104  1  0  0  0
 33 34  1  0  0  0
 33 66  1  0  0  0
 33 70  2  0  0  0
 34 36  1  0  0  0
 34 59  1  0  0  0
 34105  1  0  0  0
 35 44  2  0  0  0
 35 45  1  0  0  0
 35 68  1  0  0  0
 36 56  1  0  0  0
 36106  1  0  0  0
 37 39  1  0  0  0
 37 47  1  0  0  0
 37 66  1  0  0  0
 37107  1  0  0  0
 38 43  2  0  0  0
 38 46  1  0  0  0
 38 47  1  0  0  0
 39 64  1  0  0  0
 39 67  2  0  0  0
 40 52  1  0  0  0
 40 53  2  0  0  0
 40 58  1  0  0  0
 41108  1  0  0  0
 41109  1  0  0  0
 41110  1  0  0  0
 41 48  1  0  0  0
 42 43  1  0  0  0
 42 66  1  0  0  0
 42111  1  0  0  0
 42112  1  0  0  0
 43 44  1  0  0  0
 44113  1  0  0  0
 45 46  2  0  0  0
 45114  1  0  0  0
 46115  1  0  0  0
 47116  1  0  0  0
 47117  1  0  0  0
 48 56  1  0  0  0
 48 65  1  0  0  0
 48118  1  0  0  0
 49 50  1  0  0  0
 49 53  1  0  0  0
 49 64  1  0  0  0
 49119  1  0  0  0
 50 51  1  0  0  0
 50120  1  0  0  0
 50121  1  0  0  0
 51 52  1  0  0  0
 51122  1  0  0  0
 51123  1  0  0  0
 52124  1  0  0  0
 52125  1  0  0  0
 53 54  1  0  0  0
 54 55  2  0  0  0
 54126  1  0  0  0
 55 57  1  0  0  0
 55127  1  0  0  0
 56 69  2  0  0  0
 57 58  2  0  0  0
 57128  1  0  0  0
 58129  1  0  0  0
 59 60  1  0  0  0
 59 61  1  0  0  0
 59 62  1  0  0  0
 60130  1  0  0  0
 60131  1  0  0  0
 60132  1  0  0  0
 61133  1  0  0  0
 61134  1  0  0  0
 61135  1  0  0  0
 62136  1  0  0  0
 62137  1  0  0  0
 62138  1  0  0  0
 63 65  1  0  0  0
 63139  1  0  0  0
 63140  1  0  0  0
 63141  1  0  0  0
 64142  1  0  0  0
 65143  1  0  0  0
 68 80  1  0  0  0
 71 73  2  0  0  0
 71 82  1  0  0  0
 71144  1  0  0  0
 72 74  1  0  0  0
 72 81  2  0  0  0
 72145  1  0  0  0
 73 77  1  0  0  0
 73 81  1  0  0  0
 74 82  2  0  0  0
 74 83  1  0  0  0
 75 83  1  0  0  0
 75146  1  0  0  0
 75147  1  0  0  0
 75148  1  0  0  0
 76 84  1  0  0  0
 76149  1  0  0  0
 76150  1  0  0  0
 76151  1  0  0  0
 77 84  1  0  0  0
 77152  1  0  0  0
 77153  1  0  0  0
 78 79  1  0  0  0
 78 80  1  0  0  0
 78154  1  0  0  0
 78155  1  0  0  0
 79 83  1  0  0  0
 79156  1  0  0  0
 79157  1  0  0  0
 80158  1  0  0  0
 80159  1  0  0  0
M  ISO  4   1 100  68 101  80 101  84 100
M  END
> <chiral flag>
0

> <version>
0

> <s_m_source_file>
/data/baiqing/PycharmProjects/Reinvent-master-3.2/result/LINK_invent/BTK/process_docking_weight1_custom_sum_contain_oxygen_bond_distance_aromatic_linkinvent_7_9_3/rearranged_h_0050.sdf

> <i_m_source_file_index>
44

> <r_mmod_Potential_Energy-OPLS-2005>
162.455261230469

> <r_mmod_Stretch_Energy-OPLS-2005>
47.8483123779297

> <r_mmod_Bend_Energy-OPLS-2005>
104.807647705078

> <r_mmod_Torsional_Energy-OPLS-2005>
286.764190673828

> <r_mmod_Improper_Torsional_Energy-OPLS-2005>
13.9300765991211

> <r_mmod_Van_der_Waal_Energy-OPLS-2005>
170.428619384766

> <r_mmod_Electrostatic_Energy-OPLS-2005>
-247.470901489258

> <r_mmod_Solvation_Energy-OPLS-2005>
-234.150817871094

> <b_mmod_Minimization_Converged-OPLS-2005>
0

> <r_mmod_RMS_Derivative-OPLS-2005>
2.28732347488403

$$$$
47
                    3D
 Structure written by MMmdl.
163171  0  0  1  0            999 V2000
  -30.7505  -14.4072   20.6487 C   0  0  0  0  0  0
  -30.4207  -12.3034   19.4007 C   0  0  0  0  0  0
  -29.4839  -12.5203   18.1964 C   0  0  0  0  0  0
  -28.0065  -12.3918   18.6131 C   0  0  0  0  0  0
  -27.6671  -13.2096   19.8871 C   0  0  2  0  0  0
  -28.7101  -12.9601   20.9992 C   0  0  0  0  0  0
  -25.2600  -13.8162   20.5698 C   0  0  0  0  0  0
  -24.1840  -13.0419   20.9174 C   0  0  0  0  0  0
  -24.6395  -11.6901   20.8733 C   0  0  0  0  0  0
  -23.9039  -10.4285   21.0403 C   0  0  0  0  0  0
  -24.3598   -9.4211   21.9178 C   0  0  0  0  0  0
  -23.6289   -8.2239   22.0736 C   0  0  0  0  0  0
  -22.4267   -8.0271   21.3541 C   0  0  0  0  0  0
  -21.9903   -9.0228   20.4635 C   0  0  0  0  0  0
  -22.7214  -10.2116   20.3050 C   0  0  0  0  0  0
  -21.6847   -6.0733   22.5273 C   0  0  0  0  0  0
  -21.4009   -6.5636   23.8211 C   0  0  0  0  0  0
  -21.3667   -5.6790   24.9175 C   0  0  0  0  0  0
  -21.6040   -4.3054   24.7226 C   0  0  0  0  0  0
  -21.8834   -3.8145   23.4353 C   0  0  0  0  0  0
  -21.9194   -4.6961   22.3402 C   0  0  0  0  0  0
  -22.7865  -13.5219   21.1835 C   0  0  0  0  0  0
  -22.1673   -4.2148   21.0988 F   0  0  0  0  0  0
  -21.5611   -3.4546   25.7749 F   0  0  0  0  0  0
  -30.0439  -13.2623   20.4506 N   0  0  0  0  0  0
  -26.3050  -12.9345   20.3446 N   0  0  0  0  0  0
  -25.9337  -11.6494   20.5819 N   0  0  0  0  0  0
  -22.0491  -12.8197   22.0383 N   0  0  0  0  0  0
  -25.4326  -15.1887   20.4109 N   0  0  0  0  0  0
  -31.8210  -14.6435   20.0812 O   0  0  0  0  0  0
  -21.6628   -6.8875   21.4243 O   0  0  0  0  0  0
  -22.3557  -14.5519   20.6693 O   0  0  0  0  0  0
  -24.6111  -31.8708   23.2156 C   0  0  0  0  0  0
  -25.9037  -32.4839   23.8417 C   0  0  1  0  0  0
  -27.2293  -27.4526   20.0736 C   0  0  0  0  0  0
  -25.5913  -33.8643   24.2328 N   0  0  0  0  0  0
  -23.3909  -30.4941   21.5635 C   0  0  2  0  0  0
  -24.8300  -28.9562   20.1241 C   0  0  0  0  0  0
  -22.7355  -29.4654   22.5110 C   0  0  0  0  0  0
  -18.0252  -28.1361   22.8519 C   0  0  0  0  0  0
  -24.1476  -36.7309   23.2632 C   0  0  0  0  0  0
  -25.9187  -30.8358   21.3644 C   0  0  0  0  0  0
  -25.9907  -29.4713   20.7112 C   0  0  0  0  0  0
  -27.1877  -28.7242   20.6875 C   0  0  0  0  0  0
  -26.0399  -26.9360   19.5018 C   0  0  0  0  0  0
  -24.8457  -27.6832   19.5277 C   0  0  0  0  0  0
  -23.5943  -29.8278   20.1767 C   0  0  0  0  0  0
  -25.4099  -36.3107   24.0326 C   0  0  1  0  0  0
  -20.5827  -28.3597   23.1388 C   0  0  2  0  0  0
  -20.6758  -26.9351   22.5435 C   0  0  0  0  0  0
  -19.5732  -26.6370   21.5235 C   0  0  0  0  0  0
  -18.1907  -26.7911   22.1638 C   0  0  0  0  0  0
  -19.1496  -28.8809   23.2944 C   0  0  0  0  0  0
  -18.9435  -30.1447   23.8900 C   0  0  0  0  0  0
  -17.6432  -30.6581   24.0560 C   0  0  0  0  0  0
  -25.9034  -34.9481   23.5107 C   0  0  0  0  0  0
  -16.5326  -29.9067   23.6348 C   0  0  0  0  0  0
  -16.7243  -28.6488   23.0361 C   0  0  0  0  0  0
  -26.4476  -31.6631   25.0748 C   0  0  0  0  0  0
  -25.3787  -31.3720   26.1537 C   0  0  0  0  0  0
  -27.0271  -30.3070   24.6111 C   0  0  0  0  0  0
  -27.6031  -32.4357   25.7530 C   0  0  0  0  0  0
  -27.5564  -37.1810   24.8463 C   0  0  0  0  0  0
  -21.4097  -29.2974   22.3832 N   0  0  0  0  0  0
  -26.4271  -37.3804   23.9412 N   0  0  0  0  0  0
  -24.6593  -31.0791   22.1072 N   0  0  0  0  0  0
  -23.4133  -28.8205   23.3149 O   0  0  0  0  0  0
  -28.4361  -26.7856   20.0788 O   0  0  0  0  0  0
  -26.5583  -34.8915   22.4660 O   0  0  0  0  0  0
  -23.5322  -32.1480   23.7580 O   0  0  0  0  0  0
  -27.9626  -22.2489   20.3286 C   0  0  0  0  0  0
  -29.1653  -22.4481   20.9666 C   0  0  0  0  0  0
  -28.6110  -24.3250   19.8570 C   0  0  0  0  0  0
  -30.6999  -24.4679   21.1904 C   0  0  0  0  0  0
  -28.5212  -20.3681   23.3095 C   0  0  0  0  0  0
  -30.0574  -21.5101   21.7505 C   0  0  0  0  0  0
  -28.6644  -25.6830   19.1962 C   0  0  0  0  0  0
  -29.7480  -17.7221   21.9466 C   0  0  0  0  0  0
  -30.7868  -16.5801   21.8896 C   0  0  0  0  0  0
  -30.3797  -19.0949   22.2896 C   0  0  0  0  0  0
  -29.5089  -23.7607   20.6920 N   0  0  0  0  0  0
  -27.6615  -23.4044   19.6619 N   0  3  0  0  0  0
  -30.1937  -15.3009   21.4811 N   0  0  0  0  0  0
  -29.4138  -20.2201   22.1332 N   0  3  1  0  0  0
  -31.4584  -12.4156   19.0826 H   0  0  0  0  0  0
  -30.3322  -11.2832   19.7775 H   0  0  0  0  0  0
  -29.7144  -11.7991   17.4099 H   0  0  0  0  0  0
  -29.6587  -13.5080   17.7654 H   0  0  0  0  0  0
  -27.7942  -11.3358   18.7789 H   0  0  0  0  0  0
  -27.3605  -12.7047   17.7917 H   0  0  0  0  0  0
  -27.7246  -14.2657   19.6191 H   0  0  0  0  0  0
  -28.6817  -11.9169   21.3176 H   0  0  0  0  0  0
  -28.4700  -13.5360   21.8928 H   0  0  0  0  0  0
  -25.2748   -9.5692   22.4757 H   0  0  0  0  0  0
  -24.0006   -7.4629   22.7451 H   0  0  0  0  0  0
  -21.0830   -8.8724   19.8949 H   0  0  0  0  0  0
  -22.3647  -10.9645   19.6164 H   0  0  0  0  0  0
  -21.2011   -7.6145   23.9725 H   0  0  0  0  0  0
  -21.1467   -6.0514   25.9075 H   0  0  0  0  0  0
  -22.0613   -2.7602   23.2843 H   0  0  0  0  0  0
  -22.4077  -11.9859   22.4810 H   0  0  0  0  0  0
  -21.1105  -13.1231   22.2563 H   0  0  0  0  0  0
  -24.6711  -15.8480   20.5293 H   0  0  0  0  0  0
  -26.2927  -15.6284   20.1049 H   0  0  0  0  0  0
  -26.7073  -32.5533   23.1151 H   0  0  0  0  0  0
  -25.0109  -33.9851   25.0505 H   0  0  0  0  0  0
  -22.6798  -31.3143   21.4338 H   0  0  0  0  0  0
  -23.3740  -35.9643   23.3319 H   0  0  0  0  0  0
  -24.3539  -36.8914   22.2036 H   0  0  0  0  0  0
  -23.7248  -37.6523   23.6644 H   0  0  0  0  0  0
  -26.0292  -31.6044   20.5972 H   0  0  0  0  0  0
  -26.8051  -30.8819   21.9842 H   0  0  0  0  0  0
  -28.0875  -29.1275   21.1306 H   0  0  0  0  0  0
  -26.0030  -25.9599   19.0428 H   0  0  0  0  0  0
  -23.9413  -27.2712   19.0966 H   0  0  0  0  0  0
  -23.7081  -30.6083   19.4238 H   0  0  0  0  0  0
  -22.7127  -29.2574   19.8800 H   0  0  0  0  0  0
  -25.1288  -36.1953   25.0825 H   0  0  0  0  0  0
  -20.9900  -28.3121   24.1516 H   0  0  0  0  0  0
  -20.5693  -26.2179   23.3587 H   0  0  0  0  0  0
  -21.6639  -26.7449   22.1207 H   0  0  0  0  0  0
  -19.6881  -25.6288   21.1249 H   0  0  0  0  0  0
  -19.6701  -27.3215   20.6793 H   0  0  0  0  0  0
  -17.4192  -26.6697   21.4025 H   0  0  0  0  0  0
  -18.0283  -26.0046   22.9019 H   0  0  0  0  0  0
  -19.7915  -30.7296   24.2232 H   0  0  0  0  0  0
  -17.4984  -31.6268   24.5156 H   0  0  0  0  0  0
  -15.5328  -30.2959   23.7687 H   0  0  0  0  0  0
  -15.8645  -28.0815   22.7051 H   0  0  0  0  0  0
  -24.5957  -30.7048   25.7932 H   0  0  0  0  0  0
  -24.9001  -32.2867   26.5041 H   0  0  0  0  0  0
  -25.8221  -30.8893   27.0265 H   0  0  0  0  0  0
  -26.2785  -29.6888   24.1146 H   0  0  0  0  0  0
  -27.4002  -29.7269   25.4565 H   0  0  0  0  0  0
  -27.8652  -30.4384   23.9262 H   0  0  0  0  0  0
  -27.2608  -33.3626   26.2147 H   0  0  0  0  0  0
  -28.3836  -32.6984   25.0381 H   0  0  0  0  0  0
  -28.0700  -31.8476   26.5439 H   0  0  0  0  0  0
  -28.2598  -38.0093   24.7506 H   0  0  0  0  0  0
  -28.1035  -36.2627   24.6294 H   0  0  0  0  0  0
  -27.2267  -37.1481   25.8863 H   0  0  0  0  0  0
  -20.9232  -29.8647   21.7046 H   0  0  0  0  0  0
  -26.0145  -38.2865   24.1473 H   0  0  0  0  0  0
  -27.3183  -21.3818   20.2657 H   0  0  0  0  0  0
  -30.7576  -24.3353   22.2707 H   0  0  0  0  0  0
  -30.6383  -25.5366   20.9902 H   0  0  0  0  0  0
  -31.5931  -24.0565   20.7185 H   0  0  0  0  0  0
  -27.7846  -21.1552   23.1491 H   0  0  0  0  0  0
  -29.0905  -20.6264   24.2023 H   0  0  0  0  0  0
  -27.9700  -19.4503   23.5141 H   0  0  0  0  0  0
  -30.4439  -22.0083   22.6402 H   0  0  0  0  0  0
  -30.9237  -21.3227   21.1153 H   0  0  0  0  0  0
  -28.0215  -25.6708   18.3162 H   0  0  0  0  0  0
  -29.6752  -25.7952   18.8051 H   0  0  0  0  0  0
  -28.9771  -17.4724   22.6770 H   0  0  0  0  0  0
  -29.2535  -17.7931   20.9773 H   0  0  0  0  0  0
  -31.2516  -16.4452   22.8673 H   0  0  0  0  0  0
  -31.5912  -16.8664   21.2116 H   0  0  0  0  0  0
  -31.2255  -19.2443   21.6190 H   0  0  0  0  0  0
  -30.8045  -19.0913   23.2951 H   0  0  0  0  0  0
  -26.8546  -23.5234   19.0642 H   0  0  0  0  0  0
  -29.3016  -15.0474   21.8787 H   0  0  0  0  0  0
  -28.8426  -19.9555   21.3470 H   0  0  0  0  0  0
  1 25  1  0  0  0
  1 30  2  0  0  0
  1 83  1  0  0  0
  2  3  1  0  0  0
  2 25  1  0  0  0
  2 85  1  0  0  0
  2 86  1  0  0  0
  3  4  1  0  0  0
  3 87  1  0  0  0
  3 88  1  0  0  0
  4  5  1  0  0  0
  4 89  1  0  0  0
  4 90  1  0  0  0
  5  6  1  0  0  0
  5 26  1  0  0  0
  5 91  1  0  0  0
  6 25  1  0  0  0
  6 92  1  0  0  0
  6 93  1  0  0  0
  7  8  2  0  0  0
  7 26  1  0  0  0
  7 29  1  0  0  0
  8  9  1  0  0  0
  8 22  1  0  0  0
  9 10  1  0  0  0
  9 27  2  0  0  0
 10 11  2  0  0  0
 10 15  1  0  0  0
 11 12  1  0  0  0
 11 94  1  0  0  0
 12 13  2  0  0  0
 12 95  1  0  0  0
 13 14  1  0  0  0
 13 31  1  0  0  0
 14 15  2  0  0  0
 14 96  1  0  0  0
 15 97  1  0  0  0
 16 17  2  0  0  0
 16 21  1  0  0  0
 16 31  1  0  0  0
 17 18  1  0  0  0
 17 98  1  0  0  0
 18 19  2  0  0  0
 18 99  1  0  0  0
 19 20  1  0  0  0
 19 24  1  0  0  0
 20 21  2  0  0  0
 20100  1  0  0  0
 21 23  1  0  0  0
 22 28  1  0  0  0
 22 32  2  0  0  0
 26 27  1  0  0  0
 28101  1  0  0  0
 28102  1  0  0  0
 29103  1  0  0  0
 29104  1  0  0  0
 33 34  1  0  0  0
 33 66  1  0  0  0
 33 70  2  0  0  0
 34 36  1  0  0  0
 34 59  1  0  0  0
 34105  1  0  0  0
 35 44  2  0  0  0
 35 45  1  0  0  0
 35 68  1  0  0  0
 36 56  1  0  0  0
 36106  1  0  0  0
 37 39  1  0  0  0
 37 47  1  0  0  0
 37 66  1  0  0  0
 37107  1  0  0  0
 38 43  2  0  0  0
 38 46  1  0  0  0
 38 47  1  0  0  0
 39 64  1  0  0  0
 39 67  2  0  0  0
 40 52  1  0  0  0
 40 53  2  0  0  0
 40 58  1  0  0  0
 41108  1  0  0  0
 41109  1  0  0  0
 41110  1  0  0  0
 41 48  1  0  0  0
 42 43  1  0  0  0
 42 66  1  0  0  0
 42111  1  0  0  0
 42112  1  0  0  0
 43 44  1  0  0  0
 44113  1  0  0  0
 45 46  2  0  0  0
 45114  1  0  0  0
 46115  1  0  0  0
 47116  1  0  0  0
 47117  1  0  0  0
 48 56  1  0  0  0
 48 65  1  0  0  0
 48118  1  0  0  0
 49 50  1  0  0  0
 49 53  1  0  0  0
 49 64  1  0  0  0
 49119  1  0  0  0
 50 51  1  0  0  0
 50120  1  0  0  0
 50121  1  0  0  0
 51 52  1  0  0  0
 51122  1  0  0  0
 51123  1  0  0  0
 52124  1  0  0  0
 52125  1  0  0  0
 53 54  1  0  0  0
 54 55  2  0  0  0
 54126  1  0  0  0
 55 57  1  0  0  0
 55127  1  0  0  0
 56 69  2  0  0  0
 57 58  2  0  0  0
 57128  1  0  0  0
 58129  1  0  0  0
 59 60  1  0  0  0
 59 61  1  0  0  0
 59 62  1  0  0  0
 60130  1  0  0  0
 60131  1  0  0  0
 60132  1  0  0  0
 61133  1  0  0  0
 61134  1  0  0  0
 61135  1  0  0  0
 62136  1  0  0  0
 62137  1  0  0  0
 62138  1  0  0  0
 63 65  1  0  0  0
 63139  1  0  0  0
 63140  1  0  0  0
 63141  1  0  0  0
 64142  1  0  0  0
 65143  1  0  0  0
 68 77  1  0  0  0
 71 72  2  0  0  0
 71 82  1  0  0  0
 71144  1  0  0  0
 72 76  1  0  0  0
 72 81  1  0  0  0
 73 77  1  0  0  0
 73 81  1  0  0  0
 73 82  2  0  0  0
 74 81  1  0  0  0
 74145  1  0  0  0
 74146  1  0  0  0
 74147  1  0  0  0
 75148  1  0  0  0
 75149  1  0  0  0
 75150  1  0  0  0
 75 84  1  0  0  0
 76 84  1  0  0  0
 76151  1  0  0  0
 76152  1  0  0  0
 77153  1  0  0  0
 77154  1  0  0  0
 78 79  1  0  0  0
 78 80  1  0  0  0
 78155  1  0  0  0
 78156  1  0  0  0
 79 83  1  0  0  0
 79157  1  0  0  0
 79158  1  0  0  0
 80 84  1  0  0  0
 80159  1  0  0  0
 80160  1  0  0  0
 82161  1  0  0  0
 83162  1  0  0  0
 84163  1  0  0  0
M  CHG  2  82   1  84   1
M  ISO  4   1 100  68 101  77 101  83 100
M  END
> <chiral flag>
0

> <version>
0

> <s_m_source_file>
/data/baiqing/PycharmProjects/Reinvent-master-3.2/result/LINK_invent/BTK/process_docking_weight1_custom_sum_contain_oxygen_bond_distance_aromatic_linkinvent_7_9_3/rearranged_h_0050.sdf

> <i_m_source_file_index>
45

> <r_mmod_Potential_Energy-OPLS-2005>
-355.58447265625

> <r_mmod_Stretch_Energy-OPLS-2005>
35.4010963439941

> <r_mmod_Bend_Energy-OPLS-2005>
102.248603820801

> <r_mmod_Torsional_Energy-OPLS-2005>
198.941528320312

> <r_mmod_Improper_Torsional_Energy-OPLS-2005>
1.95313572883606

> <r_mmod_Van_der_Waal_Energy-OPLS-2005>
133.733016967773

> <r_mmod_Electrostatic_Energy-OPLS-2005>
135.666717529297

> <r_mmod_Solvation_Energy-OPLS-2005>
-972.767883300781

> <b_mmod_Minimization_Converged-OPLS-2005>
0

> <r_mmod_RMS_Derivative-OPLS-2005>
3.48776769638062

$$$$
48
                    3D
 Structure written by MMmdl.
175183  0  0  1  0            999 V2000
  -30.7940  -14.3538   20.6505 C   0  0  0  0  0  0
  -30.4017  -12.2736   19.4019 C   0  0  0  0  0  0
  -29.4808  -12.5236   18.1944 C   0  0  0  0  0  0
  -28.0037  -12.3907   18.6092 C   0  0  0  0  0  0
  -27.6637  -13.2126   19.8818 C   0  0  2  0  0  0
  -28.7041  -12.9717   20.9994 C   0  0  0  0  0  0
  -25.2584  -13.8181   20.5689 C   0  0  0  0  0  0
  -24.1830  -13.0442   20.9164 C   0  0  0  0  0  0
  -24.6398  -11.6914   20.8721 C   0  0  0  0  0  0
  -23.9060  -10.4296   21.0393 C   0  0  0  0  0  0
  -24.3602   -9.4210   21.9174 C   0  0  0  0  0  0
  -23.6274   -8.2243   22.0749 C   0  0  0  0  0  0
  -22.4252   -8.0281   21.3539 C   0  0  0  0  0  0
  -21.9894   -9.0252   20.4632 C   0  0  0  0  0  0
  -22.7232  -10.2130   20.3042 C   0  0  0  0  0  0
  -21.6849   -6.0730   22.5275 C   0  0  0  0  0  0
  -21.4016   -6.5635   23.8206 C   0  0  0  0  0  0
  -21.3662   -5.6786   24.9165 C   0  0  0  0  0  0
  -21.6046   -4.3052   24.7215 C   0  0  0  0  0  0
  -21.8816   -3.8139   23.4339 C   0  0  0  0  0  0
  -21.9192   -4.6955   22.3399 C   0  0  0  0  0  0
  -22.7857  -13.5236   21.1835 C   0  0  0  0  0  0
  -22.1654   -4.2145   21.0975 F   0  0  0  0  0  0
  -21.5630   -3.4536   25.7726 F   0  0  0  0  0  0
  -30.0470  -13.2384   20.4514 N   0  0  0  0  0  0
  -26.3036  -12.9364   20.3408 N   0  0  0  0  0  0
  -25.9329  -11.6514   20.5767 N   0  0  0  0  0  0
  -22.0493  -12.8216   22.0379 N   0  0  0  0  0  0
  -25.4299  -15.1889   20.4093 N   0  0  0  0  0  0
  -31.8407  -14.5811   20.0392 O   0  0  0  0  0  0
  -21.6632   -6.8872   21.4235 O   0  0  0  0  0  0
  -22.3534  -14.5550   20.6707 O   0  0  0  0  0  0
  -24.6057  -31.8721   23.2150 C   0  0  0  0  0  0
  -25.8981  -32.4847   23.8424 C   0  0  1  0  0  0
  -27.2466  -27.4892   20.0977 C   0  0  0  0  0  0
  -25.5872  -33.8648   24.2365 N   0  0  0  0  0  0
  -23.3919  -30.4928   21.5536 C   0  0  2  0  0  0
  -24.8415  -28.9617   20.1197 C   0  0  0  0  0  0
  -22.7358  -29.4668   22.5031 C   0  0  0  0  0  0
  -18.0263  -28.1375   22.8504 C   0  0  0  0  0  0
  -24.1478  -36.7325   23.2641 C   0  0  0  0  0  0
  -25.9131  -30.8551   21.3588 C   0  0  0  0  0  0
  -25.9950  -29.4910   20.7124 C   0  0  0  0  0  0
  -27.2000  -28.7653   20.7011 C   0  0  0  0  0  0
  -26.0848  -26.9670   19.4949 C   0  0  0  0  0  0
  -24.8778  -27.6946   19.5103 C   0  0  0  0  0  0
  -23.5986  -29.8202   20.1697 C   0  0  0  0  0  0
  -25.4109  -36.3132   24.0341 C   0  0  1  0  0  0
  -20.5841  -28.3638   23.1344 C   0  0  2  0  0  0
  -20.6752  -26.9380   22.5424 C   0  0  0  0  0  0
  -19.5730  -26.6383   21.5214 C   0  0  0  0  0  0
  -18.1904  -26.7930   22.1613 C   0  0  0  0  0  0
  -19.1507  -28.8828   23.2919 C   0  0  0  0  0  0
  -18.9440  -30.1450   23.8912 C   0  0  0  0  0  0
  -17.6441  -30.6578   24.0575 C   0  0  0  0  0  0
  -25.9033  -34.9492   23.5150 C   0  0  0  0  0  0
  -16.5337  -29.9076   23.6328 C   0  0  0  0  0  0
  -16.7253  -28.6500   23.0342 C   0  0  0  0  0  0
  -26.4459  -31.6605   25.0722 C   0  0  0  0  0  0
  -25.3748  -31.3665   26.1482 C   0  0  0  0  0  0
  -27.0302  -30.3062   24.6069 C   0  0  0  0  0  0
  -27.6052  -32.4317   25.7480 C   0  0  0  0  0  0
  -27.5580  -37.1819   24.8461 C   0  0  0  0  0  0
  -21.4097  -29.3012   22.3765 N   0  0  0  0  0  0
  -26.4297  -37.3812   23.9408 N   0  0  0  0  0  0
  -24.6547  -31.0866   22.1022 N   0  0  0  0  0  0
  -23.4155  -28.8220   23.3067 O   0  0  0  0  0  0
  -28.3956  -26.7422   20.0305 O   0  0  0  0  0  0
  -26.5586  -34.8930   22.4712 O   0  0  0  0  0  0
  -23.5275  -32.1458   23.7576 O   0  0  0  0  0  0
  -30.2003  -23.8417   23.3171 C   0  0  0  0  0  0
  -29.7448  -22.7315   22.5871 C   0  0  0  0  0  0
  -29.0897  -23.0113   21.3705 C   0  0  0  0  0  0
  -29.3922  -25.2568   21.7153 C   0  0  0  0  0  0
  -27.1383  -21.4449   20.9139 C   0  0  0  0  0  0
  -29.1412  -18.0329   21.6064 C   0  0  0  0  0  0
  -30.6822  -17.5417   19.7169 C   0  0  0  0  0  0
  -32.6750  -18.8710   23.8164 C   0  0  0  0  0  0
  -29.9520  -21.3137   23.1040 C   0  0  0  0  0  0
  -28.5186  -21.9375   20.4545 C   0  0  0  0  0  0
  -29.1982  -26.6834   21.2163 C   0  0  0  0  0  0
  -31.0544  -16.4254   21.9883 C   0  0  0  0  0  0
  -31.4254  -20.8663   23.1055 C   0  0  0  0  0  0
  -31.5599  -18.9101   21.5984 C   0  0  0  0  0  0
  -30.6096  -17.7209   21.2534 C   0  0  0  0  0  0
  -30.0284  -25.0981   22.8727 N   0  0  0  0  0  0
  -28.9117  -24.2740   20.9582 N   0  0  0  0  0  0
  -30.3389  -15.2166   21.5656 N   0  0  0  0  0  0
  -31.5360  -19.3842   23.0168 N   0  3  1  0  0  0
  -31.4494  -12.3380   19.1008 H   0  0  0  0  0  0
  -30.2679  -11.2580   19.7772 H   0  0  0  0  0  0
  -29.7080  -11.8208   17.3917 H   0  0  0  0  0  0
  -29.6621  -13.5214   17.7911 H   0  0  0  0  0  0
  -27.8000  -11.3341   18.7839 H   0  0  0  0  0  0
  -27.3555  -12.6928   17.7863 H   0  0  0  0  0  0
  -27.7169  -14.2662   19.6059 H   0  0  0  0  0  0
  -28.6584  -11.9372   21.3434 H   0  0  0  0  0  0
  -28.4664  -13.5768   21.8746 H   0  0  0  0  0  0
  -25.2742   -9.5684   22.4752 H   0  0  0  0  0  0
  -23.9983   -7.4642   22.7482 H   0  0  0  0  0  0
  -21.0824   -8.8773   19.8938 H   0  0  0  0  0  0
  -22.3697  -10.9664   19.6142 H   0  0  0  0  0  0
  -21.2015   -7.6141   23.9707 H   0  0  0  0  0  0
  -21.1488   -6.0516   25.9068 H   0  0  0  0  0  0
  -22.0594   -2.7598   23.2841 H   0  0  0  0  0  0
  -22.4104  -11.9863   22.4744 H   0  0  0  0  0  0
  -21.1103  -13.1228   22.2581 H   0  0  0  0  0  0
  -24.6666  -15.8477   20.5164 H   0  0  0  0  0  0
  -26.2919  -15.6264   20.1067 H   0  0  0  0  0  0
  -26.7061  -32.5607   23.1215 H   0  0  0  0  0  0
  -25.0028  -33.9844   25.0504 H   0  0  0  0  0  0
  -22.6787  -31.3083   21.4156 H   0  0  0  0  0  0
  -23.3735  -35.9654   23.3309 H   0  0  0  0  0  0
  -24.3570  -36.8939   22.2055 H   0  0  0  0  0  0
  -23.7219  -37.6528   23.6651 H   0  0  0  0  0  0
  -26.0130  -31.6196   20.5865 H   0  0  0  0  0  0
  -26.8054  -30.9178   21.9699 H   0  0  0  0  0  0
  -28.0869  -29.2031   21.1367 H   0  0  0  0  0  0
  -26.1134  -25.9941   19.0221 H   0  0  0  0  0  0
  -23.9918  -27.2797   19.0509 H   0  0  0  0  0  0
  -23.6977  -30.5920   19.4063 H   0  0  0  0  0  0
  -22.7263  -29.2320   19.8783 H   0  0  0  0  0  0
  -25.1285  -36.2015   25.0830 H   0  0  0  0  0  0
  -20.9942  -28.3203   24.1459 H   0  0  0  0  0  0
  -20.5657  -26.2245   23.3609 H   0  0  0  0  0  0
  -21.6635  -26.7441   22.1216 H   0  0  0  0  0  0
  -19.6881  -25.6293   21.1239 H   0  0  0  0  0  0
  -19.6680  -27.3225   20.6770 H   0  0  0  0  0  0
  -17.4183  -26.6719   21.3999 H   0  0  0  0  0  0
  -18.0279  -26.0072   22.9009 H   0  0  0  0  0  0
  -19.7905  -30.7303   24.2255 H   0  0  0  0  0  0
  -17.4966  -31.6259   24.5167 H   0  0  0  0  0  0
  -15.5329  -30.2967   23.7645 H   0  0  0  0  0  0
  -15.8658  -28.0829   22.7019 H   0  0  0  0  0  0
  -24.5911  -30.7047   25.7783 H   0  0  0  0  0  0
  -24.8972  -32.2810   26.5002 H   0  0  0  0  0  0
  -25.8129  -30.8755   27.0183 H   0  0  0  0  0  0
  -26.2843  -29.6803   24.1172 H   0  0  0  0  0  0
  -27.4141  -29.7320   25.4511 H   0  0  0  0  0  0
  -27.8631  -30.4398   23.9164 H   0  0  0  0  0  0
  -27.2687  -33.3612   26.2081 H   0  0  0  0  0  0
  -28.3848  -32.6883   25.0289 H   0  0  0  0  0  0
  -28.0723  -31.8419   26.5380 H   0  0  0  0  0  0
  -28.2597  -38.0113   24.7525 H   0  0  0  0  0  0
  -28.1084  -36.2662   24.6274 H   0  0  0  0  0  0
  -27.2310  -37.1457   25.8863 H   0  0  0  0  0  0
  -20.9234  -29.8717   21.6992 H   0  0  0  0  0  0
  -26.0188  -38.2882   24.1428 H   0  0  0  0  0  0
  -30.7191  -23.7280   24.2570 H   0  0  0  0  0  0
  -26.7607  -20.6645   20.2531 H   0  0  0  0  0  0
  -26.4165  -22.2605   20.9149 H   0  0  0  0  0  0
  -27.1727  -21.0337   21.9225 H   0  0  0  0  0  0
  -28.4782  -17.2213   21.3072 H   0  0  0  0  0  0
  -28.7858  -18.9230   21.0888 H   0  0  0  0  0  0
  -28.9970  -18.1828   22.6764 H   0  0  0  0  0  0
  -29.9949  -16.7794   19.3516 H   0  0  0  0  0  0
  -31.6856  -17.2620   19.3925 H   0  0  0  0  0  0
  -30.4223  -18.4615   19.1898 H   0  0  0  0  0  0
  -32.5734  -19.1538   24.8645 H   0  0  0  0  0  0
  -33.6226  -19.2700   23.4529 H   0  0  0  0  0  0
  -32.7359  -17.7848   23.7867 H   0  0  0  0  0  0
  -29.3484  -20.6208   22.5295 H   0  0  0  0  0  0
  -29.5519  -21.2498   24.1174 H   0  0  0  0  0  0
  -29.2233  -21.1126   20.3705 H   0  0  0  0  0  0
  -28.4327  -22.3377   19.4434 H   0  0  0  0  0  0
  -30.1749  -27.1169   20.9980 H   0  0  0  0  0  0
  -28.7824  -27.2522   22.0490 H   0  0  0  0  0  0
  -30.8869  -16.5270   23.0600 H   0  0  0  0  0  0
  -32.1313  -16.2817   21.8757 H   0  0  0  0  0  0
  -31.8962  -21.2381   24.0184 H   0  0  0  0  0  0
  -31.9790  -21.3295   22.2867 H   0  0  0  0  0  0
  -31.2990  -19.7373   20.9363 H   0  0  0  0  0  0
  -32.5853  -18.6589   21.3174 H   0  0  0  0  0  0
  -29.4743  -14.9864   22.0334 H   0  0  0  0  0  0
  -30.7013  -19.0158   23.4482 H   0  0  0  0  0  0
  1 25  1  0  0  0
  1 30  2  0  0  0
  1 88  1  0  0  0
  2  3  1  0  0  0
  2 25  1  0  0  0
  2 90  1  0  0  0
  2 91  1  0  0  0
  3  4  1  0  0  0
  3 92  1  0  0  0
  3 93  1  0  0  0
  4  5  1  0  0  0
  4 94  1  0  0  0
  4 95  1  0  0  0
  5  6  1  0  0  0
  5 26  1  0  0  0
  5 96  1  0  0  0
  6 25  1  0  0  0
  6 97  1  0  0  0
  6 98  1  0  0  0
  7  8  2  0  0  0
  7 26  1  0  0  0
  7 29  1  0  0  0
  8  9  1  0  0  0
  8 22  1  0  0  0
  9 10  1  0  0  0
  9 27  2  0  0  0
 10 11  2  0  0  0
 10 15  1  0  0  0
 11 12  1  0  0  0
 11 99  1  0  0  0
 12 13  2  0  0  0
 12100  1  0  0  0
 13 14  1  0  0  0
 13 31  1  0  0  0
 14 15  2  0  0  0
 14101  1  0  0  0
 15102  1  0  0  0
 16 17  2  0  0  0
 16 21  1  0  0  0
 16 31  1  0  0  0
 17 18  1  0  0  0
 17103  1  0  0  0
 18 19  2  0  0  0
 18104  1  0  0  0
 19 20  1  0  0  0
 19 24  1  0  0  0
 20 21  2  0  0  0
 20105  1  0  0  0
 21 23  1  0  0  0
 22 28  1  0  0  0
 22 32  2  0  0  0
 26 27  1  0  0  0
 28106  1  0  0  0
 28107  1  0  0  0
 29108  1  0  0  0
 29109  1  0  0  0
 33 34  1  0  0  0
 33 66  1  0  0  0
 33 70  2  0  0  0
 34 36  1  0  0  0
 34 59  1  0  0  0
 34110  1  0  0  0
 35 44  2  0  0  0
 35 45  1  0  0  0
 35 68  1  0  0  0
 36 56  1  0  0  0
 36111  1  0  0  0
 37 39  1  0  0  0
 37 47  1  0  0  0
 37 66  1  0  0  0
 37112  1  0  0  0
 38 43  2  0  0  0
 38 46  1  0  0  0
 38 47  1  0  0  0
 39 64  1  0  0  0
 39 67  2  0  0  0
 40 52  1  0  0  0
 40 53  2  0  0  0
 40 58  1  0  0  0
 41113  1  0  0  0
 41114  1  0  0  0
 41115  1  0  0  0
 41 48  1  0  0  0
 42 43  1  0  0  0
 42 66  1  0  0  0
 42116  1  0  0  0
 42117  1  0  0  0
 43 44  1  0  0  0
 44118  1  0  0  0
 45 46  2  0  0  0
 45119  1  0  0  0
 46120  1  0  0  0
 47121  1  0  0  0
 47122  1  0  0  0
 48 56  1  0  0  0
 48 65  1  0  0  0
 48123  1  0  0  0
 49 50  1  0  0  0
 49 53  1  0  0  0
 49 64  1  0  0  0
 49124  1  0  0  0
 50 51  1  0  0  0
 50125  1  0  0  0
 50126  1  0  0  0
 51 52  1  0  0  0
 51127  1  0  0  0
 51128  1  0  0  0
 52129  1  0  0  0
 52130  1  0  0  0
 53 54  1  0  0  0
 54 55  2  0  0  0
 54131  1  0  0  0
 55 57  1  0  0  0
 55132  1  0  0  0
 56 69  2  0  0  0
 57 58  2  0  0  0
 57133  1  0  0  0
 58134  1  0  0  0
 59 60  1  0  0  0
 59 61  1  0  0  0
 59 62  1  0  0  0
 60135  1  0  0  0
 60136  1  0  0  0
 60137  1  0  0  0
 61138  1  0  0  0
 61139  1  0  0  0
 61140  1  0  0  0
 62141  1  0  0  0
 62142  1  0  0  0
 62143  1  0  0  0
 63 65  1  0  0  0
 63144  1  0  0  0
 63145  1  0  0  0
 63146  1  0  0  0
 64147  1  0  0  0
 65148  1  0  0  0
 68 81  1  0  0  0
 71 72  2  0  0  0
 71 86  1  0  0  0
 71149  1  0  0  0
 72 73  1  0  0  0
 72 79  1  0  0  0
 73 80  1  0  0  0
 73 87  2  0  0  0
 74 81  1  0  0  0
 74 86  2  0  0  0
 74 87  1  0  0  0
 75 80  1  0  0  0
 75150  1  0  0  0
 75151  1  0  0  0
 75152  1  0  0  0
 76153  1  0  0  0
 76154  1  0  0  0
 76155  1  0  0  0
 76 85  1  0  0  0
 77 85  1  0  0  0
 77156  1  0  0  0
 77157  1  0  0  0
 77158  1  0  0  0
 78159  1  0  0  0
 78160  1  0  0  0
 78161  1  0  0  0
 78 89  1  0  0  0
 79 83  1  0  0  0
 79162  1  0  0  0
 79163  1  0  0  0
 80164  1  0  0  0
 80165  1  0  0  0
 81166  1  0  0  0
 81167  1  0  0  0
 82 85  1  0  0  0
 82 88  1  0  0  0
 82168  1  0  0  0
 82169  1  0  0  0
 83 89  1  0  0  0
 83170  1  0  0  0
 83171  1  0  0  0
 84 85  1  0  0  0
 84 89  1  0  0  0
 84172  1  0  0  0
 84173  1  0  0  0
 88174  1  0  0  0
 89175  1  0  0  0
M  CHG  1  89   1
M  ISO  4   1 100  68 101  81 101  88 100
M  END
> <chiral flag>
0

> <version>
0

> <s_m_source_file>
/data/baiqing/PycharmProjects/Reinvent-master-3.2/result/LINK_invent/BTK/process_docking_weight1_custom_sum_contain_oxygen_bond_distance_aromatic_linkinvent_7_9_3/rearranged_h_0050.sdf

> <i_m_source_file_index>
46

> <r_mmod_Potential_Energy-OPLS-2005>
-545.758056640625

> <r_mmod_Stretch_Energy-OPLS-2005>
34.7656555175781

> <r_mmod_Bend_Energy-OPLS-2005>
106.410987854004

> <r_mmod_Torsional_Energy-OPLS-2005>
250.200836181641

> <r_mmod_Improper_Torsional_Energy-OPLS-2005>
1.71150517463684

> <r_mmod_Van_der_Waal_Energy-OPLS-2005>
167.960922241211

> <r_mmod_Electrostatic_Energy-OPLS-2005>
-642.691833496094

> <r_mmod_Solvation_Energy-OPLS-2005>
-470.788940429688

> <b_mmod_Minimization_Converged-OPLS-2005>
0

> <r_mmod_RMS_Derivative-OPLS-2005>
2.4025993347168

$$$$
49
                    3D
 Structure written by MMmdl.
164172  0  0  1  0            999 V2000
  -30.5607  -14.9160   20.4228 C   0  0  0  0  0  0
  -30.4416  -12.5643   19.4743 C   0  0  0  0  0  0
  -29.5168  -12.5093   18.2372 C   0  0  0  0  0  0
  -28.0529  -12.2886   18.6686 C   0  0  0  0  0  0
  -27.6331  -13.2262   19.8331 C   0  0  2  0  0  0
  -28.6826  -13.1905   20.9642 C   0  0  0  0  0  0
  -25.2424  -13.8139   20.5569 C   0  0  0  0  0  0
  -24.1759  -13.0386   20.9178 C   0  0  0  0  0  0
  -24.6367  -11.6872   20.8713 C   0  0  0  0  0  0
  -23.9027  -10.4270   21.0389 C   0  0  0  0  0  0
  -24.3586   -9.4201   21.9180 C   0  0  0  0  0  0
  -23.6263   -8.2229   22.0745 C   0  0  0  0  0  0
  -22.4241   -8.0264   21.3541 C   0  0  0  0  0  0
  -21.9878   -9.0225   20.4624 C   0  0  0  0  0  0
  -22.7201  -10.2101   20.3031 C   0  0  0  0  0  0
  -21.6831   -6.0733   22.5294 C   0  0  0  0  0  0
  -21.4001   -6.5639   23.8233 C   0  0  0  0  0  0
  -21.3645   -5.6785   24.9188 C   0  0  0  0  0  0
  -21.6026   -4.3048   24.7236 C   0  0  0  0  0  0
  -21.8816   -3.8151   23.4356 C   0  0  0  0  0  0
  -21.9189   -4.6963   22.3418 C   0  0  0  0  0  0
  -22.7794  -13.5169   21.1886 C   0  0  0  0  0  0
  -22.1650   -4.2150   21.0995 F   0  0  0  0  0  0
  -21.5618   -3.4539   25.7751 F   0  0  0  0  0  0
  -29.9486  -13.6570   20.3700 N   0  0  0  0  0  0
  -26.2881  -12.9351   20.3167 N   0  0  0  0  0  0
  -25.9295  -11.6499   20.5708 N   0  0  0  0  0  0
  -22.0432  -12.8155   22.0436 N   0  0  0  0  0  0
  -25.4022  -15.1834   20.3845 N   0  0  0  0  0  0
  -31.7573  -14.9403   20.1035 O   0  0  0  0  0  0
  -21.6606   -6.8872   21.4250 O   0  0  0  0  0  0
  -22.3481  -14.5499   20.6774 O   0  0  0  0  0  0
  -24.6392  -31.8468   23.1881 C   0  0  0  0  0  0
  -25.9154  -32.4700   23.8279 C   0  0  1  0  0  0
  -27.2098  -27.1945   20.1140 C   0  0  0  0  0  0
  -25.5944  -33.8502   24.2200 N   0  0  0  0  0  0
  -23.4366  -30.4696   21.5375 C   0  0  2  0  0  0
  -24.8774  -28.8970   20.1114 C   0  0  0  0  0  0
  -22.7513  -29.4573   22.4883 C   0  0  0  0  0  0
  -18.0292  -28.1370   22.8428 C   0  0  0  0  0  0
  -24.1480  -36.7247   23.2651 C   0  0  0  0  0  0
  -25.9901  -30.7363   21.3734 C   0  0  0  0  0  0
  -26.0567  -29.3534   20.7138 C   0  0  0  0  0  0
  -27.2301  -28.5202   20.6889 C   0  0  0  0  0  0
  -26.0039  -26.8154   19.4931 C   0  0  0  0  0  0
  -24.8591  -27.6379   19.4921 C   0  0  0  0  0  0
  -23.6520  -29.7963   20.1584 C   0  0  0  0  0  0
  -25.4104  -36.3032   24.0343 C   0  0  1  0  0  0
  -20.5887  -28.3681   23.1217 C   0  0  2  0  0  0
  -20.6778  -26.9397   22.5355 C   0  0  0  0  0  0
  -19.5764  -26.6355   21.5156 C   0  0  0  0  0  0
  -18.1933  -26.7898   22.1571 C   0  0  0  0  0  0
  -19.1540  -28.8842   23.2820 C   0  0  0  0  0  0
  -18.9481  -30.1447   23.8856 C   0  0  0  0  0  0
  -17.6480  -30.6573   24.0553 C   0  0  0  0  0  0
  -25.9044  -34.9411   23.5061 C   0  0  0  0  0  0
  -16.5377  -29.9046   23.6369 C   0  0  0  0  0  0
  -16.7276  -28.6500   23.0328 C   0  0  0  0  0  0
  -26.4522  -31.6563   25.0707 C   0  0  0  0  0  0
  -25.3715  -31.3681   26.1415 C   0  0  0  0  0  0
  -27.0433  -30.2995   24.6217 C   0  0  0  0  0  0
  -27.6074  -32.4340   25.7465 C   0  0  0  0  0  0
  -27.5554  -37.1766   24.8484 C   0  0  0  0  0  0
  -21.4211  -29.3051   22.3638 N   0  0  0  0  0  0
  -26.4257  -37.3745   23.9427 N   0  0  0  0  0  0
  -24.7093  -31.0352   22.0915 N   0  0  0  0  0  0
  -23.4178  -28.8095   23.2995 O   0  0  0  0  0  0
  -28.3005  -26.2772   20.0950 O   0  0  0  0  0  0
  -26.5624  -34.8938   22.4643 O   0  0  0  0  0  0
  -23.5514  -32.1320   23.7122 O   0  0  0  0  0  0
  -30.7640  -20.1728   19.9042 C   0  0  0  0  0  0
  -28.1707  -20.8886   20.0470 C   0  0  0  0  0  0
  -30.4115  -21.5672   19.7705 C   0  0  0  0  0  0
  -29.0474  -22.0146   19.8277 C   0  0  0  0  0  0
  -29.8273  -19.1042   20.0676 C   0  0  0  0  0  0
  -32.5160  -24.1395   17.6981 C   0  0  0  0  0  0
  -27.5926  -23.5137   18.2555 C   0  0  0  0  0  0
  -28.7448  -16.3200   21.4716 C   0  0  0  0  0  0
  -31.5381  -22.5613   19.4854 C   0  0  0  0  0  0
  -30.3477  -17.5339   19.9425 C   0  0  0  0  0  0
  -31.7341  -22.8448   17.9800 C   0  0  0  0  0  0
  -28.1420  -24.7851   20.4252 C   0  0  0  0  0  0
  -28.5959  -23.5570   19.4189 C   0  0  1  0  0  0
  -28.5215  -19.5321   20.1333 N   0  0  0  0  0  0
  -29.8427  -16.1563   20.5158 N   0  0  0  0  0  0
  -31.4748  -12.7107   19.1558 H   0  0  0  0  0  0
  -30.4367  -11.5994   19.9841 H   0  0  0  0  0  0
  -29.8302  -11.7070   17.5668 H   0  0  0  0  0  0
  -29.6064  -13.4364   17.6677 H   0  0  0  0  0  0
  -27.9738  -11.2523   19.0015 H   0  0  0  0  0  0
  -27.3761  -12.3798   17.8175 H   0  0  0  0  0  0
  -27.6151  -14.2338   19.4179 H   0  0  0  0  0  0
  -28.7737  -12.1696   21.3413 H   0  0  0  0  0  0
  -28.3892  -13.7813   21.8273 H   0  0  0  0  0  0
  -25.2717   -9.5685   22.4758 H   0  0  0  0  0  0
  -23.9962   -7.4626   22.7475 H   0  0  0  0  0  0
  -21.0807   -8.8724   19.8940 H   0  0  0  0  0  0
  -22.3652  -10.9627   19.6124 H   0  0  0  0  0  0
  -21.1989   -7.6148   23.9740 H   0  0  0  0  0  0
  -21.1451   -6.0517   25.9091 H   0  0  0  0  0  0
  -22.0608   -2.7614   23.2869 H   0  0  0  0  0  0
  -22.4003  -11.9774   22.4799 H   0  0  0  0  0  0
  -21.1050  -13.1205   22.2651 H   0  0  0  0  0  0
  -24.6248  -15.8296   20.4783 H   0  0  0  0  0  0
  -26.2419  -15.6239   20.0315 H   0  0  0  0  0  0
  -26.7212  -32.5317   23.0995 H   0  0  0  0  0  0
  -25.0152  -33.9643   25.0387 H   0  0  0  0  0  0
  -22.7415  -31.2987   21.3848 H   0  0  0  0  0  0
  -23.3779  -35.9553   23.3302 H   0  0  0  0  0  0
  -24.3536  -36.8837   22.2060 H   0  0  0  0  0  0
  -23.7208  -37.6440   23.6684 H   0  0  0  0  0  0
  -26.1255  -31.4881   20.5956 H   0  0  0  0  0  0
  -26.8727  -30.7893   22.0008 H   0  0  0  0  0  0
  -28.1435  -28.8731   21.1457 H   0  0  0  0  0  0
  -25.9338  -25.8591   18.9990 H   0  0  0  0  0  0
  -23.9527  -27.2841   19.0182 H   0  0  0  0  0  0
  -23.7766  -30.5738   19.4036 H   0  0  0  0  0  0
  -22.7692  -29.2329   19.8526 H   0  0  0  0  0  0
  -25.1261  -36.1869   25.0836 H   0  0  0  0  0  0
  -20.9985  -28.3242   24.1339 H   0  0  0  0  0  0
  -20.5612  -26.2311   23.3549 H   0  0  0  0  0  0
  -21.6641  -26.7331   22.1190 H   0  0  0  0  0  0
  -19.6925  -25.6254   21.1214 H   0  0  0  0  0  0
  -19.6715  -27.3178   20.6695 H   0  0  0  0  0  0
  -17.4184  -26.6615   21.4008 H   0  0  0  0  0  0
  -18.0368  -26.0027   22.8961 H   0  0  0  0  0  0
  -19.7971  -30.7287   24.2157 H   0  0  0  0  0  0
  -17.5052  -31.6244   24.5148 H   0  0  0  0  0  0
  -15.5396  -30.2961   23.7724 H   0  0  0  0  0  0
  -15.8654  -28.0859   22.7015 H   0  0  0  0  0  0
  -24.5947  -30.6965   25.7707 H   0  0  0  0  0  0
  -24.8869  -32.2847   26.4814 H   0  0  0  0  0  0
  -25.8010  -30.8871   27.0196 H   0  0  0  0  0  0
  -26.3041  -29.6685   24.1265 H   0  0  0  0  0  0
  -27.4184  -29.7304   25.4726 H   0  0  0  0  0  0
  -27.8864  -30.4333   23.9423 H   0  0  0  0  0  0
  -27.2698  -33.3694   26.1943 H   0  0  0  0  0  0
  -28.3917  -32.6765   25.0278 H   0  0  0  0  0  0
  -28.0729  -31.8519   26.5428 H   0  0  0  0  0  0
  -28.2558  -38.0069   24.7509 H   0  0  0  0  0  0
  -28.1034  -36.2584   24.6315 H   0  0  0  0  0  0
  -27.2263  -37.1406   25.8883 H   0  0  0  0  0  0
  -20.9404  -29.8809   21.6847 H   0  0  0  0  0  0
  -26.0127  -38.2799   24.1476 H   0  0  0  0  0  0
  -31.8102  -19.9071   19.8190 H   0  0  0  0  0  0
  -27.1061  -21.0707   20.1013 H   0  0  0  0  0  0
  -32.5671  -24.3294   16.6258 H   0  0  0  0  0  0
  -33.5376  -24.0870   18.0748 H   0  0  0  0  0  0
  -32.0394  -25.0068   18.1564 H   0  0  0  0  0  0
  -27.9398  -22.8672   17.4503 H   0  0  0  0  0  0
  -27.4577  -24.5077   17.8244 H   0  0  0  0  0  0
  -26.6143  -23.1563   18.5779 H   0  0  0  0  0  0
  -27.8383  -15.8437   21.1152 H   0  0  0  0  0  0
  -28.4879  -17.3613   21.6454 H   0  0  0  0  0  0
  -29.0062  -15.8997   22.4425 H   0  0  0  0  0  0
  -32.4738  -22.1858   19.9011 H   0  0  0  0  0  0
  -31.3446  -23.4902   20.0266 H   0  0  0  0  0  0
  -31.3844  -17.5871   20.2750 H   0  0  0  0  0  0
  -30.4318  -17.3659   18.8682 H   0  0  0  0  0  0
  -32.2307  -21.9984   17.5063 H   0  0  0  0  0  0
  -30.7652  -22.9212   17.4882 H   0  0  0  0  0  0
  -28.7299  -24.6609   21.3351 H   0  0  0  0  0  0
  -27.1145  -24.5980   20.7414 H   0  0  0  0  0  0
  -29.4744  -23.9877   18.9553 H   0  0  0  0  0  0
  1 25  1  0  0  0
  1 30  2  0  0  0
  1 85  1  0  0  0
  2  3  1  0  0  0
  2 25  1  0  0  0
  2 86  1  0  0  0
  2 87  1  0  0  0
  3  4  1  0  0  0
  3 88  1  0  0  0
  3 89  1  0  0  0
  4  5  1  0  0  0
  4 90  1  0  0  0
  4 91  1  0  0  0
  5  6  1  0  0  0
  5 26  1  0  0  0
  5 92  1  0  0  0
  6 25  1  0  0  0
  6 93  1  0  0  0
  6 94  1  0  0  0
  7  8  2  0  0  0
  7 26  1  0  0  0
  7 29  1  0  0  0
  8  9  1  0  0  0
  8 22  1  0  0  0
  9 10  1  0  0  0
  9 27  2  0  0  0
 10 11  2  0  0  0
 10 15  1  0  0  0
 11 12  1  0  0  0
 11 95  1  0  0  0
 12 13  2  0  0  0
 12 96  1  0  0  0
 13 14  1  0  0  0
 13 31  1  0  0  0
 14 15  2  0  0  0
 14 97  1  0  0  0
 15 98  1  0  0  0
 16 17  2  0  0  0
 16 21  1  0  0  0
 16 31  1  0  0  0
 17 18  1  0  0  0
 17 99  1  0  0  0
 18 19  2  0  0  0
 18100  1  0  0  0
 19 20  1  0  0  0
 19 24  1  0  0  0
 20 21  2  0  0  0
 20101  1  0  0  0
 21 23  1  0  0  0
 22 28  1  0  0  0
 22 32  2  0  0  0
 26 27  1  0  0  0
 28102  1  0  0  0
 28103  1  0  0  0
 29104  1  0  0  0
 29105  1  0  0  0
 33 34  1  0  0  0
 33 66  1  0  0  0
 33 70  2  0  0  0
 34 36  1  0  0  0
 34 59  1  0  0  0
 34106  1  0  0  0
 35 44  2  0  0  0
 35 45  1  0  0  0
 35 68  1  0  0  0
 36 56  1  0  0  0
 36107  1  0  0  0
 37 39  1  0  0  0
 37 47  1  0  0  0
 37 66  1  0  0  0
 37108  1  0  0  0
 38 43  2  0  0  0
 38 46  1  0  0  0
 38 47  1  0  0  0
 39 64  1  0  0  0
 39 67  2  0  0  0
 40 52  1  0  0  0
 40 53  2  0  0  0
 40 58  1  0  0  0
 41109  1  0  0  0
 41110  1  0  0  0
 41111  1  0  0  0
 41 48  1  0  0  0
 42 43  1  0  0  0
 42 66  1  0  0  0
 42112  1  0  0  0
 42113  1  0  0  0
 43 44  1  0  0  0
 44114  1  0  0  0
 45 46  2  0  0  0
 45115  1  0  0  0
 46116  1  0  0  0
 47117  1  0  0  0
 47118  1  0  0  0
 48 56  1  0  0  0
 48 65  1  0  0  0
 48119  1  0  0  0
 49 50  1  0  0  0
 49 53  1  0  0  0
 49 64  1  0  0  0
 49120  1  0  0  0
 50 51  1  0  0  0
 50121  1  0  0  0
 50122  1  0  0  0
 51 52  1  0  0  0
 51123  1  0  0  0
 51124  1  0  0  0
 52125  1  0  0  0
 52126  1  0  0  0
 53 54  1  0  0  0
 54 55  2  0  0  0
 54127  1  0  0  0
 55 57  1  0  0  0
 55128  1  0  0  0
 56 69  2  0  0  0
 57 58  2  0  0  0
 57129  1  0  0  0
 58130  1  0  0  0
 59 60  1  0  0  0
 59 61  1  0  0  0
 59 62  1  0  0  0
 60131  1  0  0  0
 60132  1  0  0  0
 60133  1  0  0  0
 61134  1  0  0  0
 61135  1  0  0  0
 61136  1  0  0  0
 62137  1  0  0  0
 62138  1  0  0  0
 62139  1  0  0  0
 63 65  1  0  0  0
 63140  1  0  0  0
 63141  1  0  0  0
 63142  1  0  0  0
 64143  1  0  0  0
 65144  1  0  0  0
 68 82  1  0  0  0
 71 73  2  0  0  0
 71 75  1  0  0  0
 71145  1  0  0  0
 72 74  2  0  0  0
 72 84  1  0  0  0
 72146  1  0  0  0
 73 74  1  0  0  0
 73 79  1  0  0  0
 74 83  1  0  0  0
 75 80  1  0  0  0
 75 84  2  0  0  0
 76 81  1  0  0  0
 76147  1  0  0  0
 76148  1  0  0  0
 76149  1  0  0  0
 77150  1  0  0  0
 77151  1  0  0  0
 77152  1  0  0  0
 77 83  1  0  0  0
 78 85  1  0  0  0
 78153  1  0  0  0
 78154  1  0  0  0
 78155  1  0  0  0
 79 81  1  0  0  0
 79156  1  0  0  0
 79157  1  0  0  0
 80 85  1  0  0  0
 80158  1  0  0  0
 80159  1  0  0  0
 81160  1  0  0  0
 81161  1  0  0  0
 82 83  1  0  0  0
 82162  1  0  0  0
 82163  1  0  0  0
 83164  1  0  0  0
M  ISO  4   1 100  68 101  82 101  85 100
M  END
> <chiral flag>
0

> <version>
0

> <s_m_source_file>
/data/baiqing/PycharmProjects/Reinvent-master-3.2/result/LINK_invent/BTK/process_docking_weight1_custom_sum_contain_oxygen_bond_distance_aromatic_linkinvent_7_9_3/rearranged_h_0050.sdf

> <i_m_source_file_index>
47

> <r_mmod_Potential_Energy-OPLS-2005>
374.441741943359

> <r_mmod_Stretch_Energy-OPLS-2005>
221.153579711914

> <r_mmod_Bend_Energy-OPLS-2005>
283.0322265625

> <r_mmod_Torsional_Energy-OPLS-2005>
271.990814208984

> <r_mmod_Improper_Torsional_Energy-OPLS-2005>
10.7294006347656

> <r_mmod_Van_der_Waal_Energy-OPLS-2005>
137.954132080078

> <r_mmod_Electrostatic_Energy-OPLS-2005>
-489.9169921875

> <r_mmod_Solvation_Energy-OPLS-2005>
-206.588165283203

> <b_mmod_Minimization_Converged-OPLS-2005>
0

> <r_mmod_RMS_Derivative-OPLS-2005>
4.70038461685181

$$$$
51
                    3D
 Structure written by MMmdl.
154162  0  0  1  0            999 V2000
  -30.6508  -14.6457   20.5156 C   0  0  0  0  0  0
  -30.4292  -12.4008   19.4539 C   0  0  0  0  0  0
  -29.5027  -12.5026   18.2221 C   0  0  0  0  0  0
  -28.0260  -12.3415   18.6330 C   0  0  0  0  0  0
  -27.6491  -13.2176   19.8565 C   0  0  2  0  0  0
  -28.6905  -13.0679   20.9837 C   0  0  0  0  0  0
  -25.2547  -13.8173   20.5674 C   0  0  0  0  0  0
  -24.1814  -13.0435   20.9169 C   0  0  0  0  0  0
  -24.6383  -11.6902   20.8731 C   0  0  0  0  0  0
  -23.9055  -10.4293   21.0411 C   0  0  0  0  0  0
  -24.3605   -9.4204   21.9186 C   0  0  0  0  0  0
  -23.6283   -8.2244   22.0753 C   0  0  0  0  0  0
  -22.4266   -8.0283   21.3547 C   0  0  0  0  0  0
  -21.9898   -9.0251   20.4645 C   0  0  0  0  0  0
  -22.7231  -10.2132   20.3053 C   0  0  0  0  0  0
  -21.6847   -6.0731   22.5285 C   0  0  0  0  0  0
  -21.4015   -6.5637   23.8215 C   0  0  0  0  0  0
  -21.3649   -5.6787   24.9178 C   0  0  0  0  0  0
  -21.6041   -4.3056   24.7230 C   0  0  0  0  0  0
  -21.8813   -3.8146   23.4353 C   0  0  0  0  0  0
  -21.9190   -4.6959   22.3412 C   0  0  0  0  0  0
  -22.7841  -13.5226   21.1859 C   0  0  0  0  0  0
  -22.1660   -4.2144   21.0988 F   0  0  0  0  0  0
  -21.5620   -3.4541   25.7743 F   0  0  0  0  0  0
  -30.0017  -13.4351   20.4248 N   0  0  0  0  0  0
  -26.2959  -12.9350   20.3275 N   0  0  0  0  0  0
  -25.9313  -11.6505   20.5741 N   0  0  0  0  0  0
  -22.0487  -12.8213   22.0418 N   0  0  0  0  0  0
  -25.4291  -15.1886   20.4092 N   0  0  0  0  0  0
  -31.7943  -14.7651   20.0634 O   0  0  0  0  0  0
  -21.6632   -6.8873   21.4249 O   0  0  0  0  0  0
  -22.3522  -14.5543   20.6730 O   0  0  0  0  0  0
  -24.6237  -31.8597   23.2036 C   0  0  0  0  0  0
  -25.9079  -32.4787   23.8343 C   0  0  1  0  0  0
  -27.2244  -27.3396   20.1155 C   0  0  0  0  0  0
  -25.5882  -33.8591   24.2271 N   0  0  0  0  0  0
  -23.4182  -30.4820   21.5442 C   0  0  2  0  0  0
  -24.8664  -28.9365   20.1119 C   0  0  0  0  0  0
  -22.7479  -29.4608   22.4926 C   0  0  0  0  0  0
  -18.0292  -28.1373   22.8471 C   0  0  0  0  0  0
  -24.1493  -36.7311   23.2641 C   0  0  0  0  0  0
  -25.9578  -30.7952   21.3725 C   0  0  0  0  0  0
  -26.0329  -29.4233   20.7175 C   0  0  0  0  0  0
  -27.2188  -28.6331   20.7121 C   0  0  0  0  0  0
  -26.0421  -26.8939   19.4919 C   0  0  0  0  0  0
  -24.8707  -27.6753   19.4924 C   0  0  0  0  0  0
  -23.6330  -29.8147   20.1600 C   0  0  0  0  0  0
  -25.4117  -36.3110   24.0340 C   0  0  1  0  0  0
  -20.5887  -28.3674   23.1293 C   0  0  2  0  0  0
  -20.6778  -26.9389   22.5426 C   0  0  0  0  0  0
  -19.5762  -26.6365   21.5227 C   0  0  0  0  0  0
  -18.1929  -26.7915   22.1612 C   0  0  0  0  0  0
  -19.1540  -28.8841   23.2874 C   0  0  0  0  0  0
  -18.9474  -30.1437   23.8899 C   0  0  0  0  0  0
  -17.6470  -30.6567   24.0552 C   0  0  0  0  0  0
  -25.9058  -34.9466   23.5122 C   0  0  0  0  0  0
  -16.5358  -29.9059   23.6330 C   0  0  0  0  0  0
  -16.7281  -28.6481   23.0346 C   0  0  0  0  0  0
  -26.4478  -31.6587   25.0708 C   0  0  0  0  0  0
  -25.3705  -31.3685   26.1435 C   0  0  0  0  0  0
  -27.0319  -30.3027   24.6108 C   0  0  0  0  0  0
  -27.6073  -32.4300   25.7437 C   0  0  0  0  0  0
  -27.5596  -37.1780   24.8455 C   0  0  0  0  0  0
  -21.4190  -29.3027   22.3685 N   0  0  0  0  0  0
  -26.4294  -37.3801   23.9429 N   0  0  0  0  0  0
  -24.6854  -31.0616   22.0979 N   0  0  0  0  0  0
  -23.4205  -28.8155   23.3012 O   0  0  0  0  0  0
  -28.3200  -26.4776   20.1317 O   0  0  0  0  0  0
  -26.5646  -34.8931   22.4698 O   0  0  0  0  0  0
  -23.5404  -32.1385   23.7380 O   0  0  0  0  0  0
  -29.7940  -22.2819   19.4293 C   0  0  0  0  0  0
  -27.8333  -22.7493   21.1921 C   0  0  0  0  0  0
  -29.1392  -21.1761   20.0590 C   0  0  0  0  0  0
  -28.4916  -23.8539   20.5701 C   0  0  0  0  0  0
  -29.4681  -15.9617   22.2152 C   0  0  0  0  0  0
  -29.4047  -19.6934   19.5999 C   0  0  0  0  0  0
  -28.1802  -25.3233   21.0344 C   0  0  0  0  0  0
  -29.5243  -18.4817   20.6284 C   0  0  0  0  0  0
  -29.9560  -17.0597   20.0104 C   0  0  0  0  0  0
  -28.1302  -21.4367   20.9332 N   0  0  0  0  0  0
  -29.4877  -23.5965   19.6762 N   0  0  0  0  0  0
  -29.9151  -15.7793   20.8323 N   0  0  0  0  0  0
  -31.4711  -12.5098   19.1474 H   0  0  0  0  0  0
  -30.3609  -11.4069   19.8989 H   0  0  0  0  0  0
  -29.7661  -11.7422   17.4848 H   0  0  0  0  0  0
  -29.6444  -13.4666   17.7309 H   0  0  0  0  0  0
  -27.8671  -11.2897   18.8735 H   0  0  0  0  0  0
  -27.3685  -12.5607   17.7911 H   0  0  0  0  0  0
  -27.6700  -14.2538   19.5188 H   0  0  0  0  0  0
  -28.7094  -12.0383   21.3452 H   0  0  0  0  0  0
  -28.4085  -13.6672   21.8444 H   0  0  0  0  0  0
  -25.2748   -9.5676   22.4766 H   0  0  0  0  0  0
  -23.9978   -7.4633   22.7479 H   0  0  0  0  0  0
  -21.0820   -8.8775   19.8959 H   0  0  0  0  0  0
  -22.3689  -10.9668   19.6164 H   0  0  0  0  0  0
  -21.2021   -7.6146   23.9719 H   0  0  0  0  0  0
  -21.1469   -6.0521   25.9071 H   0  0  0  0  0  0
  -22.0604   -2.7608   23.2860 H   0  0  0  0  0  0
  -22.4090  -11.9844   22.4765 H   0  0  0  0  0  0
  -21.1126  -13.1265   22.2669 H   0  0  0  0  0  0
  -24.6694  -15.8508   20.5182 H   0  0  0  0  0  0
  -26.2941  -15.6231   20.1129 H   0  0  0  0  0  0
  -26.7106  -32.5476   23.1058 H   0  0  0  0  0  0
  -24.9983  -33.9730   25.0374 H   0  0  0  0  0  0
  -22.7123  -31.3034   21.3977 H   0  0  0  0  0  0
  -23.3775  -35.9614   23.3281 H   0  0  0  0  0  0
  -24.3586  -36.8976   22.2060 H   0  0  0  0  0  0
  -23.7224  -37.6491   23.6689 H   0  0  0  0  0  0
  -26.0831  -31.5557   20.6009 H   0  0  0  0  0  0
  -26.8409  -30.8470   21.9976 H   0  0  0  0  0  0
  -28.1147  -28.9955   21.1965 H   0  0  0  0  0  0
  -26.0235  -25.9237   19.0154 H   0  0  0  0  0  0
  -23.9752  -27.2992   19.0170 H   0  0  0  0  0  0
  -23.7514  -30.5917   19.4041 H   0  0  0  0  0  0
  -22.7545  -29.2417   19.8580 H   0  0  0  0  0  0
  -25.1280  -36.1961   25.0828 H   0  0  0  0  0  0
  -20.9967  -28.3248   24.1419 H   0  0  0  0  0  0
  -20.5710  -26.2259   23.3621 H   0  0  0  0  0  0
  -21.6639  -26.7426   22.1191 H   0  0  0  0  0  0
  -19.6938  -25.6294   21.1227 H   0  0  0  0  0  0
  -19.6727  -27.3202   20.6777 H   0  0  0  0  0  0
  -17.4213  -26.6694   21.4000 H   0  0  0  0  0  0
  -18.0293  -26.0052   22.9007 H   0  0  0  0  0  0
  -19.7953  -30.7234   24.2272 H   0  0  0  0  0  0
  -17.5027  -31.6253   24.5145 H   0  0  0  0  0  0
  -15.5352  -30.2947   23.7671 H   0  0  0  0  0  0
  -15.8687  -28.0796   22.7060 H   0  0  0  0  0  0
  -24.5950  -30.6965   25.7748 H   0  0  0  0  0  0
  -24.8799  -32.2813   26.4820 H   0  0  0  0  0  0
  -25.8019  -30.8912   27.0240 H   0  0  0  0  0  0
  -26.2865  -29.6753   24.1216 H   0  0  0  0  0  0
  -27.4157  -29.7321   25.4569 H   0  0  0  0  0  0
  -27.8660  -30.4371   23.9223 H   0  0  0  0  0  0
  -27.2756  -33.3635   26.1993 H   0  0  0  0  0  0
  -28.3853  -32.6799   25.0211 H   0  0  0  0  0  0
  -28.0743  -31.8415   26.5350 H   0  0  0  0  0  0
  -28.2575  -38.0116   24.7561 H   0  0  0  0  0  0
  -28.1128  -36.2653   24.6180 H   0  0  0  0  0  0
  -27.2318  -37.1306   25.8855 H   0  0  0  0  0  0
  -20.9377  -29.8733   21.6878 H   0  0  0  0  0  0
  -26.0196  -38.2879   24.1442 H   0  0  0  0  0  0
  -30.5565  -22.1131   18.6826 H   0  0  0  0  0  0
  -27.0609  -22.9192   21.9298 H   0  0  0  0  0  0
  -28.3824  -16.0553   22.2503 H   0  0  0  0  0  0
  -29.9088  -16.8501   22.6658 H   0  0  0  0  0  0
  -29.7569  -15.1262   22.8559 H   0  0  0  0  0  0
  -30.3333  -19.7200   19.0280 H   0  0  0  0  0  0
  -28.6359  -19.4504   18.8671 H   0  0  0  0  0  0
  -28.8639  -25.5160   21.8612 H   0  0  0  0  0  0
  -27.1901  -25.3206   21.4981 H   0  0  0  0  0  0
  -28.5609  -18.3808   21.1281 H   0  0  0  0  0  0
  -30.2417  -18.7661   21.3975 H   0  0  0  0  0  0
  -30.9590  -17.1734   19.5972 H   0  0  0  0  0  0
  -29.3175  -16.8710   19.1457 H   0  0  0  0  0  0
  1 25  1  0  0  0
  1 30  2  0  0  0
  1 82  1  0  0  0
  2  3  1  0  0  0
  2 25  1  0  0  0
  2 83  1  0  0  0
  2 84  1  0  0  0
  3  4  1  0  0  0
  3 85  1  0  0  0
  3 86  1  0  0  0
  4  5  1  0  0  0
  4 87  1  0  0  0
  4 88  1  0  0  0
  5  6  1  0  0  0
  5 26  1  0  0  0
  5 89  1  0  0  0
  6 25  1  0  0  0
  6 90  1  0  0  0
  6 91  1  0  0  0
  7  8  2  0  0  0
  7 26  1  0  0  0
  7 29  1  0  0  0
  8  9  1  0  0  0
  8 22  1  0  0  0
  9 10  1  0  0  0
  9 27  2  0  0  0
 10 11  2  0  0  0
 10 15  1  0  0  0
 11 12  1  0  0  0
 11 92  1  0  0  0
 12 13  2  0  0  0
 12 93  1  0  0  0
 13 14  1  0  0  0
 13 31  1  0  0  0
 14 15  2  0  0  0
 14 94  1  0  0  0
 15 95  1  0  0  0
 16 17  2  0  0  0
 16 21  1  0  0  0
 16 31  1  0  0  0
 17 18  1  0  0  0
 17 96  1  0  0  0
 18 19  2  0  0  0
 18 97  1  0  0  0
 19 20  1  0  0  0
 19 24  1  0  0  0
 20 21  2  0  0  0
 20 98  1  0  0  0
 21 23  1  0  0  0
 22 28  1  0  0  0
 22 32  2  0  0  0
 26 27  1  0  0  0
 28 99  1  0  0  0
 28100  1  0  0  0
 29101  1  0  0  0
 29102  1  0  0  0
 33 34  1  0  0  0
 33 66  1  0  0  0
 33 70  2  0  0  0
 34 36  1  0  0  0
 34 59  1  0  0  0
 34103  1  0  0  0
 35 44  2  0  0  0
 35 45  1  0  0  0
 35 68  1  0  0  0
 36 56  1  0  0  0
 36104  1  0  0  0
 37 39  1  0  0  0
 37 47  1  0  0  0
 37 66  1  0  0  0
 37105  1  0  0  0
 38 43  2  0  0  0
 38 46  1  0  0  0
 38 47  1  0  0  0
 39 64  1  0  0  0
 39 67  2  0  0  0
 40 52  1  0  0  0
 40 53  2  0  0  0
 40 58  1  0  0  0
 41106  1  0  0  0
 41107  1  0  0  0
 41108  1  0  0  0
 41 48  1  0  0  0
 42 43  1  0  0  0
 42 66  1  0  0  0
 42109  1  0  0  0
 42110  1  0  0  0
 43 44  1  0  0  0
 44111  1  0  0  0
 45 46  2  0  0  0
 45112  1  0  0  0
 46113  1  0  0  0
 47114  1  0  0  0
 47115  1  0  0  0
 48 56  1  0  0  0
 48 65  1  0  0  0
 48116  1  0  0  0
 49 50  1  0  0  0
 49 53  1  0  0  0
 49 64  1  0  0  0
 49117  1  0  0  0
 50 51  1  0  0  0
 50118  1  0  0  0
 50119  1  0  0  0
 51 52  1  0  0  0
 51120  1  0  0  0
 51121  1  0  0  0
 52122  1  0  0  0
 52123  1  0  0  0
 53 54  1  0  0  0
 54 55  2  0  0  0
 54124  1  0  0  0
 55 57  1  0  0  0
 55125  1  0  0  0
 56 69  2  0  0  0
 57 58  2  0  0  0
 57126  1  0  0  0
 58127  1  0  0  0
 59 60  1  0  0  0
 59 61  1  0  0  0
 59 62  1  0  0  0
 60128  1  0  0  0
 60129  1  0  0  0
 60130  1  0  0  0
 61131  1  0  0  0
 61132  1  0  0  0
 61133  1  0  0  0
 62134  1  0  0  0
 62135  1  0  0  0
 62136  1  0  0  0
 63 65  1  0  0  0
 63137  1  0  0  0
 63138  1  0  0  0
 63139  1  0  0  0
 64140  1  0  0  0
 65141  1  0  0  0
 68 77  1  0  0  0
 71 73  2  0  0  0
 71 81  1  0  0  0
 71142  1  0  0  0
 72 74  1  0  0  0
 72 80  2  0  0  0
 72143  1  0  0  0
 73 76  1  0  0  0
 73 80  1  0  0  0
 74 77  1  0  0  0
 74 81  2  0  0  0
 75 82  1  0  0  0
 75144  1  0  0  0
 75145  1  0  0  0
 75146  1  0  0  0
 76 78  1  0  0  0
 76147  1  0  0  0
 76148  1  0  0  0
 77149  1  0  0  0
 77150  1  0  0  0
 78 79  1  0  0  0
 78151  1  0  0  0
 78152  1  0  0  0
 79 82  1  0  0  0
 79153  1  0  0  0
 79154  1  0  0  0
M  ISO  4   1 100  68 101  77 101  82 100
M  END
> <chiral flag>
0

> <version>
0

> <s_m_source_file>
/data/baiqing/PycharmProjects/Reinvent-master-3.2/result/LINK_invent/BTK/process_docking_weight1_custom_sum_contain_oxygen_bond_distance_aromatic_linkinvent_7_9_3/rearranged_h_0050.sdf

> <i_m_source_file_index>
48

> <r_mmod_Potential_Energy-OPLS-2005>
324.236328125

> <r_mmod_Stretch_Energy-OPLS-2005>
87.6570587158203

> <r_mmod_Bend_Energy-OPLS-2005>
142.699020385742

> <r_mmod_Torsional_Energy-OPLS-2005>
303.406066894531

> <r_mmod_Improper_Torsional_Energy-OPLS-2005>
9.74545001983643

> <r_mmod_Van_der_Waal_Energy-OPLS-2005>
147.951766967773

> <r_mmod_Electrostatic_Energy-OPLS-2005>
-198.662551879883

> <r_mmod_Solvation_Energy-OPLS-2005>
-213.770980834961

> <b_mmod_Minimization_Converged-OPLS-2005>
0

> <r_mmod_RMS_Derivative-OPLS-2005>
2.6900680065155

$$$$
52
                    3D
 Structure written by MMmdl.
147155  0  0  1  0            999 V2000
  -30.4271  -15.2870   20.3659 C   0  0  0  0  0  0
  -30.4384  -12.8238   19.5257 C   0  0  0  0  0  0
  -29.5366  -12.5806   18.2890 C   0  0  0  0  0  0
  -28.0862  -12.2991   18.7180 C   0  0  0  0  0  0
  -27.6103  -13.2763   19.8212 C   0  0  2  0  0  0
  -28.6431  -13.4608   20.9537 C   0  0  0  0  0  0
  -25.2382  -13.8243   20.5740 C   0  0  0  0  0  0
  -24.1742  -13.0433   20.9272 C   0  0  0  0  0  0
  -24.6399  -11.6931   20.8772 C   0  0  0  0  0  0
  -23.9092  -10.4291   21.0410 C   0  0  0  0  0  0
  -24.3636   -9.4202   21.9185 C   0  0  0  0  0  0
  -23.6306   -8.2240   22.0751 C   0  0  0  0  0  0
  -22.4287   -8.0281   21.3541 C   0  0  0  0  0  0
  -21.9927   -9.0257   20.4644 C   0  0  0  0  0  0
  -22.7263  -10.2134   20.3056 C   0  0  0  0  0  0
  -21.6857   -6.0737   22.5278 C   0  0  0  0  0  0
  -21.4018   -6.5640   23.8211 C   0  0  0  0  0  0
  -21.3660   -5.6792   24.9173 C   0  0  0  0  0  0
  -21.6044   -4.3055   24.7224 C   0  0  0  0  0  0
  -21.8819   -3.8146   23.4345 C   0  0  0  0  0  0
  -21.9194   -4.6964   22.3402 C   0  0  0  0  0  0
  -22.7760  -13.5187   21.1914 C   0  0  0  0  0  0
  -22.1662   -4.2148   21.0980 F   0  0  0  0  0  0
  -21.5627   -3.4538   25.7737 F   0  0  0  0  0  0
  -29.8716  -13.9737   20.3245 N   0  0  0  0  0  0
  -26.2809  -12.9519   20.3208 N   0  0  0  0  0  0
  -25.9335  -11.6625   20.5722 N   0  0  0  0  0  0
  -22.0421  -12.8168   22.0470 N   0  0  0  0  0  0
  -25.4014  -15.1971   20.4134 N   0  0  0  0  0  0
  -31.6500  -15.2883   20.1619 O   0  0  0  0  0  0
  -21.6644   -6.8882   21.4241 O   0  0  0  0  0  0
  -22.3438  -14.5484   20.6751 O   0  0  0  0  0  0
  -24.6642  -31.8219   23.1687 C   0  0  0  0  0  0
  -25.9316  -32.4580   23.8158 C   0  0  1  0  0  0
  -27.2216  -26.9159   20.1871 C   0  0  0  0  0  0
  -25.5977  -33.8394   24.2065 N   0  0  0  0  0  0
  -23.4795  -30.4325   21.5184 C   0  0  2  0  0  0
  -24.9335  -28.8153   20.1135 C   0  0  0  0  0  0
  -22.7673  -29.4432   22.4777 C   0  0  0  0  0  0
  -18.0321  -28.1412   22.8460 C   0  0  0  0  0  0
  -24.1494  -36.7205   23.2647 C   0  0  0  0  0  0
  -26.0492  -30.6252   21.3994 C   0  0  0  0  0  0
  -26.1181  -29.2131   20.7456 C   0  0  0  0  0  0
  -27.2569  -28.2861   20.7547 C   0  0  0  0  0  0
  -26.0061  -26.6716   19.5092 C   0  0  0  0  0  0
  -24.9036  -27.5653   19.4743 C   0  0  0  0  0  0
  -23.7204  -29.7452   20.1458 C   0  0  0  0  0  0
  -25.4134  -36.2961   24.0297 C   0  0  1  0  0  0
  -20.5947  -28.3758   23.1181 C   0  0  2  0  0  0
  -20.6799  -26.9437   22.5401 C   0  0  0  0  0  0
  -19.5773  -26.6378   21.5211 C   0  0  0  0  0  0
  -18.1955  -26.7944   22.1619 C   0  0  0  0  0  0
  -19.1583  -28.8906   23.2808 C   0  0  0  0  0  0
  -18.9494  -30.1495   23.8846 C   0  0  0  0  0  0
  -17.6488  -30.6601   24.0554 C   0  0  0  0  0  0
  -25.9099  -34.9345   23.5004 C   0  0  0  0  0  0
  -16.5377  -29.9088   23.6344 C   0  0  0  0  0  0
  -16.7303  -28.6510   23.0357 C   0  0  0  0  0  0
  -26.4564  -31.6529   25.0694 C   0  0  0  0  0  0
  -25.3688  -31.3782   26.1349 C   0  0  0  0  0  0
  -27.0466  -30.2896   24.6435 C   0  0  0  0  0  0
  -27.6051  -32.4343   25.7499 C   0  0  0  0  0  0
  -27.5569  -37.1757   24.8464 C   0  0  0  0  0  0
  -21.4341  -29.3044   22.3529 N   0  0  0  0  0  0
  -26.4277  -37.3700   23.9409 N   0  0  0  0  0  0
  -24.7525  -30.9871   22.0826 N   0  0  0  0  0  0
  -23.4213  -28.8004   23.3026 O   0  0  0  0  0  0
  -28.2271  -25.8093   20.2580 O   0  0  0  0  0  0
  -26.5713  -34.8886   22.4602 O   0  0  0  0  0  0
  -23.5710  -32.1192   23.6777 O   0  0  0  0  0  0
  -27.4697  -18.9241   20.0682 C   0  0  0  0  0  0
  -28.7072  -19.4867   20.2481 C   0  0  0  0  0  0
  -26.5539  -19.9821   19.9442 C   0  0  0  0  0  0
  -29.8879  -18.2235   20.3936 C   0  0  0  0  0  0
  -28.9401  -22.6371   20.3161 C   0  0  0  0  0  0
  -27.9680  -24.1722   20.1484 C   0  0  0  0  0  0
  -27.0706  -21.1800   20.0285 N   0  0  0  0  0  0
  -28.4075  -21.0539   20.2187 N   0  0  0  0  0  0
  -29.6512  -16.5556   20.4408 N   0  0  0  0  0  0
  -24.8625  -19.7640   19.6951 Cl  0  0  0  0  0  0
  -31.4554  -13.0333   19.1922 H   0  0  0  0  0  0
  -30.5111  -11.9228   20.1370 H   0  0  0  0  0  0
  -29.9208  -11.7518   17.6928 H   0  0  0  0  0  0
  -29.5622  -13.4608   17.6450 H   0  0  0  0  0  0
  -28.0475  -11.2767   19.0957 H   0  0  0  0  0  0
  -27.4172  -12.3332   17.8572 H   0  0  0  0  0  0
  -27.5223  -14.2402   19.3186 H   0  0  0  0  0  0
  -28.8167  -12.5303   21.4963 H   0  0  0  0  0  0
  -28.2780  -14.1837   21.6850 H   0  0  0  0  0  0
  -25.2778   -9.5677   22.4765 H   0  0  0  0  0  0
  -24.0010   -7.4629   22.7472 H   0  0  0  0  0  0
  -21.0855   -8.8784   19.8950 H   0  0  0  0  0  0
  -22.3721  -10.9676   19.6169 H   0  0  0  0  0  0
  -21.2013   -7.6148   23.9717 H   0  0  0  0  0  0
  -21.1481   -6.0521   25.9076 H   0  0  0  0  0  0
  -22.0599   -2.7608   23.2847 H   0  0  0  0  0  0
  -22.4057  -11.9838   22.4857 H   0  0  0  0  0  0
  -21.1031  -13.1170   22.2674 H   0  0  0  0  0  0
  -24.6240  -15.8417   20.5067 H   0  0  0  0  0  0
  -26.2227  -15.6219   20.0068 H   0  0  0  0  0  0
  -26.7386  -32.5115   23.0872 H   0  0  0  0  0  0
  -25.0071  -33.9467   25.0180 H   0  0  0  0  0  0
  -22.7936  -31.2644   21.3456 H   0  0  0  0  0  0
  -23.3769  -35.9521   23.3270 H   0  0  0  0  0  0
  -24.3573  -36.8893   22.2069 H   0  0  0  0  0  0
  -23.7239  -37.6377   23.6730 H   0  0  0  0  0  0
  -26.2285  -31.3648   20.6180 H   0  0  0  0  0  0
  -26.9096  -30.6849   22.0540 H   0  0  0  0  0  0
  -28.1543  -28.5915   21.2739 H   0  0  0  0  0  0
  -25.8744  -25.7165   19.0222 H   0  0  0  0  0  0
  -24.0039  -27.2540   18.9612 H   0  0  0  0  0  0
  -23.8775  -30.5123   19.3869 H   0  0  0  0  0  0
  -22.8298  -29.2006   19.8275 H   0  0  0  0  0  0
  -25.1333  -36.1752   25.0788 H   0  0  0  0  0  0
  -21.0031  -28.3367   24.1305 H   0  0  0  0  0  0
  -20.5676  -26.2375   23.3643 H   0  0  0  0  0  0
  -21.6663  -26.7412   22.1208 H   0  0  0  0  0  0
  -19.6934  -25.6276   21.1274 H   0  0  0  0  0  0
  -19.6714  -27.3161   20.6718 H   0  0  0  0  0  0
  -17.4222  -26.6676   21.4026 H   0  0  0  0  0  0
  -18.0356  -26.0103   22.9033 H   0  0  0  0  0  0
  -19.7971  -30.7323   24.2192 H   0  0  0  0  0  0
  -17.5041  -31.6274   24.5168 H   0  0  0  0  0  0
  -15.5377  -30.2974   23.7703 H   0  0  0  0  0  0
  -15.8702  -28.0817   22.7097 H   0  0  0  0  0  0
  -24.5880  -30.7124   25.7656 H   0  0  0  0  0  0
  -24.8869  -32.2985   26.4657 H   0  0  0  0  0  0
  -25.7918  -30.9022   27.0205 H   0  0  0  0  0  0
  -26.3137  -29.6564   24.1422 H   0  0  0  0  0  0
  -27.3975  -29.7268   25.5095 H   0  0  0  0  0  0
  -27.9086  -30.4077   23.9867 H   0  0  0  0  0  0
  -27.2613  -33.3686   26.1951 H   0  0  0  0  0  0
  -28.3928  -32.6836   25.0378 H   0  0  0  0  0  0
  -28.0645  -31.8555   26.5521 H   0  0  0  0  0  0
  -28.2562  -38.0075   24.7517 H   0  0  0  0  0  0
  -28.1090  -36.2602   24.6285 H   0  0  0  0  0  0
  -27.2287  -37.1388   25.8866 H   0  0  0  0  0  0
  -20.9601  -29.8729   21.6651 H   0  0  0  0  0  0
  -26.0123  -38.2755   24.1427 H   0  0  0  0  0  0
  -27.2364  -17.8722   20.0237 H   0  0  0  0  0  0
  -30.6024  -18.3756   19.5846 H   0  0  0  0  0  0
  -30.4657  -18.4447   21.2912 H   0  0  0  0  0  0
  -29.4428  -22.7068   21.2803 H   0  0  0  0  0  0
  -29.7485  -22.7111   19.5892 H   0  0  0  0  0  0
  -27.1385  -24.0258   20.8403 H   0  0  0  0  0  0
  -27.5072  -24.0696   19.1662 H   0  0  0  0  0  0
  -28.6738  -16.3433   20.5661 H   0  0  0  0  0  0
  1 25  1  0  0  0
  1 30  2  0  0  0
  1 79  1  0  0  0
  2  3  1  0  0  0
  2 25  1  0  0  0
  2 81  1  0  0  0
  2 82  1  0  0  0
  3  4  1  0  0  0
  3 83  1  0  0  0
  3 84  1  0  0  0
  4  5  1  0  0  0
  4 85  1  0  0  0
  4 86  1  0  0  0
  5  6  1  0  0  0
  5 26  1  0  0  0
  5 87  1  0  0  0
  6 25  1  0  0  0
  6 88  1  0  0  0
  6 89  1  0  0  0
  7  8  2  0  0  0
  7 26  1  0  0  0
  7 29  1  0  0  0
  8  9  1  0  0  0
  8 22  1  0  0  0
  9 10  1  0  0  0
  9 27  2  0  0  0
 10 11  2  0  0  0
 10 15  1  0  0  0
 11 12  1  0  0  0
 11 90  1  0  0  0
 12 13  2  0  0  0
 12 91  1  0  0  0
 13 14  1  0  0  0
 13 31  1  0  0  0
 14 15  2  0  0  0
 14 92  1  0  0  0
 15 93  1  0  0  0
 16 17  2  0  0  0
 16 21  1  0  0  0
 16 31  1  0  0  0
 17 18  1  0  0  0
 17 94  1  0  0  0
 18 19  2  0  0  0
 18 95  1  0  0  0
 19 20  1  0  0  0
 19 24  1  0  0  0
 20 21  2  0  0  0
 20 96  1  0  0  0
 21 23  1  0  0  0
 22 28  1  0  0  0
 22 32  2  0  0  0
 26 27  1  0  0  0
 28 97  1  0  0  0
 28 98  1  0  0  0
 29 99  1  0  0  0
 29100  1  0  0  0
 33 34  1  0  0  0
 33 66  1  0  0  0
 33 70  2  0  0  0
 34 36  1  0  0  0
 34 59  1  0  0  0
 34101  1  0  0  0
 35 44  2  0  0  0
 35 45  1  0  0  0
 35 68  1  0  0  0
 36 56  1  0  0  0
 36102  1  0  0  0
 37 39  1  0  0  0
 37 47  1  0  0  0
 37 66  1  0  0  0
 37103  1  0  0  0
 38 43  2  0  0  0
 38 46  1  0  0  0
 38 47  1  0  0  0
 39 64  1  0  0  0
 39 67  2  0  0  0
 40 52  1  0  0  0
 40 53  2  0  0  0
 40 58  1  0  0  0
 41104  1  0  0  0
 41105  1  0  0  0
 41106  1  0  0  0
 41 48  1  0  0  0
 42 43  1  0  0  0
 42 66  1  0  0  0
 42107  1  0  0  0
 42108  1  0  0  0
 43 44  1  0  0  0
 44109  1  0  0  0
 45 46  2  0  0  0
 45110  1  0  0  0
 46111  1  0  0  0
 47112  1  0  0  0
 47113  1  0  0  0
 48 56  1  0  0  0
 48 65  1  0  0  0
 48114  1  0  0  0
 49 50  1  0  0  0
 49 53  1  0  0  0
 49 64  1  0  0  0
 49115  1  0  0  0
 50 51  1  0  0  0
 50116  1  0  0  0
 50117  1  0  0  0
 51 52  1  0  0  0
 51118  1  0  0  0
 51119  1  0  0  0
 52120  1  0  0  0
 52121  1  0  0  0
 53 54  1  0  0  0
 54 55  2  0  0  0
 54122  1  0  0  0
 55 57  1  0  0  0
 55123  1  0  0  0
 56 69  2  0  0  0
 57 58  2  0  0  0
 57124  1  0  0  0
 58125  1  0  0  0
 59 60  1  0  0  0
 59 61  1  0  0  0
 59 62  1  0  0  0
 60126  1  0  0  0
 60127  1  0  0  0
 60128  1  0  0  0
 61129  1  0  0  0
 61130  1  0  0  0
 61131  1  0  0  0
 62132  1  0  0  0
 62133  1  0  0  0
 62134  1  0  0  0
 63 65  1  0  0  0
 63135  1  0  0  0
 63136  1  0  0  0
 63137  1  0  0  0
 64138  1  0  0  0
 65139  1  0  0  0
 68 76  1  0  0  0
 71 72  2  0  0  0
 71 73  1  0  0  0
 71140  1  0  0  0
 72 74  1  0  0  0
 72 78  1  0  0  0
 73 77  2  0  0  0
 73 80  1  0  0  0
 74 79  1  0  0  0
 74141  1  0  0  0
 74142  1  0  0  0
 75 76  1  0  0  0
 75 78  1  0  0  0
 75143  1  0  0  0
 75144  1  0  0  0
 76145  1  0  0  0
 76146  1  0  0  0
 77 78  1  0  0  0
 79147  1  0  0  0
M  ISO  4   1 100  68 101  76 101  79 100
M  END
> <chiral flag>
0

> <version>
0

> <s_m_source_file>
/data/baiqing/PycharmProjects/Reinvent-master-3.2/result/LINK_invent/BTK/process_docking_weight1_custom_sum_contain_oxygen_bond_distance_aromatic_linkinvent_7_9_3/rearranged_h_0050.sdf

> <i_m_source_file_index>
49

> <r_mmod_Potential_Energy-OPLS-2005>
1295.1455078125

> <r_mmod_Stretch_Energy-OPLS-2005>
654.452453613281

> <r_mmod_Bend_Energy-OPLS-2005>
493.894470214844

> <r_mmod_Torsional_Energy-OPLS-2005>
210.008804321289

> <r_mmod_Improper_Torsional_Energy-OPLS-2005>
4.06981706619263

> <r_mmod_Van_der_Waal_Energy-OPLS-2005>
102.500526428223

> <r_mmod_Electrostatic_Energy-OPLS-2005>
-420.572174072266

> <r_mmod_Solvation_Energy-OPLS-2005>
-227.858917236328

> <b_mmod_Minimization_Converged-OPLS-2005>
0

> <r_mmod_RMS_Derivative-OPLS-2005>
0.432623565196991

$$$$
53
                    3D
 Structure written by MMmdl.
174182  0  0  1  0            999 V2000
  -30.7290  -14.5573   20.5521 C   0  0  0  0  0  0
  -30.4083  -12.3631   19.4453 C   0  0  0  0  0  0
  -29.4909  -12.4988   18.2155 C   0  0  0  0  0  0
  -28.0162  -12.3433   18.6305 C   0  0  0  0  0  0
  -27.6457  -13.2178   19.8573 C   0  0  2  0  0  0
  -28.6923  -13.1059   20.9897 C   0  0  0  0  0  0
  -25.2546  -13.8179   20.5714 C   0  0  0  0  0  0
  -24.1811  -13.0438   20.9212 C   0  0  0  0  0  0
  -24.6383  -11.6914   20.8761 C   0  0  0  0  0  0
  -23.9055  -10.4291   21.0411 C   0  0  0  0  0  0
  -24.3612   -9.4208   21.9190 C   0  0  0  0  0  0
  -23.6287   -8.2241   22.0756 C   0  0  0  0  0  0
  -22.4271   -8.0278   21.3541 C   0  0  0  0  0  0
  -21.9900   -9.0259   20.4651 C   0  0  0  0  0  0
  -22.7228  -10.2139   20.3061 C   0  0  0  0  0  0
  -21.6853   -6.0732   22.5276 C   0  0  0  0  0  0
  -21.4019   -6.5638   23.8211 C   0  0  0  0  0  0
  -21.3658   -5.6792   24.9173 C   0  0  0  0  0  0
  -21.6041   -4.3056   24.7223 C   0  0  0  0  0  0
  -21.8826   -3.8145   23.4348 C   0  0  0  0  0  0
  -21.9197   -4.6959   22.3403 C   0  0  0  0  0  0
  -22.7840  -13.5238   21.1857 C   0  0  0  0  0  0
  -22.1664   -4.2141   21.0981 F   0  0  0  0  0  0
  -21.5624   -3.4541   25.7738 F   0  0  0  0  0  0
  -30.0115  -13.4012   20.4170 N   0  0  0  0  0  0
  -26.2958  -12.9354   20.3332 N   0  0  0  0  0  0
  -25.9309  -11.6512   20.5782 N   0  0  0  0  0  0
  -22.0464  -12.8243   22.0410 N   0  0  0  0  0  0
  -25.4274  -15.1897   20.4128 N   0  0  0  0  0  0
  -31.8769  -14.6508   20.1210 O   0  0  0  0  0  0
  -21.6646   -6.8872   21.4233 O   0  0  0  0  0  0
  -22.3528  -14.5536   20.6692 O   0  0  0  0  0  0
  -24.6218  -31.8657   23.2112 C   0  0  0  0  0  0
  -25.9096  -32.4802   23.8413 C   0  0  1  0  0  0
  -27.2004  -27.3426   20.1176 C   0  0  0  0  0  0
  -25.5941  -33.8604   24.2334 N   0  0  0  0  0  0
  -23.4126  -30.4941   21.5528 C   0  0  2  0  0  0
  -24.8561  -28.9611   20.1124 C   0  0  0  0  0  0
  -22.7447  -29.4651   22.4960 C   0  0  0  0  0  0
  -18.0280  -28.1381   22.8491 C   0  0  0  0  0  0
  -24.1487  -36.7302   23.2635 C   0  0  0  0  0  0
  -25.9527  -30.7978   21.3875 C   0  0  0  0  0  0
  -26.0206  -29.4254   20.7387 C   0  0  0  0  0  0
  -27.1948  -28.6184   20.7529 C   0  0  0  0  0  0
  -26.0511  -26.9826   19.3904 C   0  0  0  0  0  0
  -24.8703  -27.7393   19.4301 C   0  0  0  0  0  0
  -23.6249  -29.8390   20.1644 C   0  0  0  0  0  0
  -25.4109  -36.3099   24.0337 C   0  0  1  0  0  0
  -20.5877  -28.3672   23.1294 C   0  0  2  0  0  0
  -20.6769  -26.9402   22.5406 C   0  0  0  0  0  0
  -19.5741  -26.6382   21.5210 C   0  0  0  0  0  0
  -18.1921  -26.7927   22.1629 C   0  0  0  0  0  0
  -19.1533  -28.8846   23.2890 C   0  0  0  0  0  0
  -18.9459  -30.1448   23.8901 C   0  0  0  0  0  0
  -17.6459  -30.6587   24.0564 C   0  0  0  0  0  0
  -25.9046  -34.9464   23.5127 C   0  0  0  0  0  0
  -16.5351  -29.9084   23.6326 C   0  0  0  0  0  0
  -16.7268  -28.6503   23.0350 C   0  0  0  0  0  0
  -26.4495  -31.6581   25.0757 C   0  0  0  0  0  0
  -25.3737  -31.3703   26.1483 C   0  0  0  0  0  0
  -27.0325  -30.3005   24.6192 C   0  0  0  0  0  0
  -27.6066  -32.4298   25.7524 C   0  0  0  0  0  0
  -27.5578  -37.1806   24.8471 C   0  0  0  0  0  0
  -21.4165  -29.3041   22.3695 N   0  0  0  0  0  0
  -26.4293  -37.3787   23.9411 N   0  0  0  0  0  0
  -24.6806  -31.0688   22.1068 N   0  0  0  0  0  0
  -23.4191  -28.8181   23.3016 O   0  0  0  0  0  0
  -28.3059  -26.4917   20.1025 O   0  0  0  0  0  0
  -26.5595  -34.8918   22.4680 O   0  0  0  0  0  0
  -23.5387  -32.1455   23.7447 O   0  0  0  0  0  0
  -27.5196  -23.9727   20.2233 C   0  0  0  0  0  0
  -27.8215  -22.6160   19.9702 C   0  0  0  0  0  0
  -25.7624  -23.0570   19.3070 C   0  0  0  0  0  0
  -23.3679  -22.4006   19.7738 C   0  0  0  0  0  0
  -31.3367  -17.7304   19.5087 C   0  0  0  0  0  0
  -29.0923  -18.2353   18.6163 C   0  0  0  0  0  0
  -26.6145  -20.8494   18.5327 C   0  0  0  0  0  0
  -27.7656  -20.1611   21.8235 C   0  0  0  0  0  0
  -28.2704  -25.1948   20.8263 C   0  0  0  0  0  0
  -29.0205  -21.6990   20.3058 C   0  0  0  0  0  0
  -24.3748  -22.9316   18.7480 C   0  0  0  0  0  0
  -29.2617  -16.6483   20.5754 C   0  0  0  0  0  0
  -29.8586  -19.3067   20.8132 C   0  0  0  0  0  0
  -29.8696  -17.9770   19.9251 C   0  0  0  0  0  0
  -26.1654  -24.1269   19.9593 N   0  0  0  0  0  0
  -26.7249  -22.1246   19.2280 N   0  0  0  0  0  0
  -30.1772  -15.6320   21.1755 N   0  0  0  0  0  0
  -28.6879  -20.2573   20.6641 N   0  3  1  0  0  0
  -31.4532  -12.4412   19.1418 H   0  0  0  0  0  0
  -30.3062  -11.3736   19.8937 H   0  0  0  0  0  0
  -29.7477  -11.7447   17.4707 H   0  0  0  0  0  0
  -29.6442  -13.4689   17.7387 H   0  0  0  0  0  0
  -27.8457  -11.2914   18.8604 H   0  0  0  0  0  0
  -27.3616  -12.5790   17.7906 H   0  0  0  0  0  0
  -27.6492  -14.2437   19.4979 H   0  0  0  0  0  0
  -28.6919  -12.1045   21.4229 H   0  0  0  0  0  0
  -28.4500  -13.7897   21.8046 H   0  0  0  0  0  0
  -25.2750   -9.5694   22.4780 H   0  0  0  0  0  0
  -23.9996   -7.4637   22.7481 H   0  0  0  0  0  0
  -21.0830   -8.8786   19.8965 H   0  0  0  0  0  0
  -22.3678  -10.9690   19.6188 H   0  0  0  0  0  0
  -21.2017   -7.6144   23.9713 H   0  0  0  0  0  0
  -21.1467   -6.0520   25.9076 H   0  0  0  0  0  0
  -22.0608   -2.7603   23.2855 H   0  0  0  0  0  0
  -22.4051  -11.9894   22.4802 H   0  0  0  0  0  0
  -21.1088  -13.1296   22.2610 H   0  0  0  0  0  0
  -24.6645  -15.8480   20.5256 H   0  0  0  0  0  0
  -26.2852  -15.6223   20.0981 H   0  0  0  0  0  0
  -26.7162  -32.5493   23.1163 H   0  0  0  0  0  0
  -25.0123  -33.9766   25.0501 H   0  0  0  0  0  0
  -22.7042  -31.3143   21.4167 H   0  0  0  0  0  0
  -23.3750  -35.9634   23.3302 H   0  0  0  0  0  0
  -24.3585  -36.8908   22.2049 H   0  0  0  0  0  0
  -23.7237  -37.6511   23.6642 H   0  0  0  0  0  0
  -26.0841  -31.5578   20.6158 H   0  0  0  0  0  0
  -26.8349  -30.8476   22.0132 H   0  0  0  0  0  0
  -28.0858  -28.9625   21.2593 H   0  0  0  0  0  0
  -26.0598  -26.1204   18.7470 H   0  0  0  0  0  0
  -23.9965  -27.4017   18.8893 H   0  0  0  0  0  0
  -23.7439  -30.6213   19.4139 H   0  0  0  0  0  0
  -22.7449  -29.2704   19.8591 H   0  0  0  0  0  0
  -25.1276  -36.1963   25.0830 H   0  0  0  0  0  0
  -20.9974  -28.3247   24.1414 H   0  0  0  0  0  0
  -20.5677  -26.2283   23.3602 H   0  0  0  0  0  0
  -21.6637  -26.7439   22.1196 H   0  0  0  0  0  0
  -19.6908  -25.6295   21.1235 H   0  0  0  0  0  0
  -19.6681  -27.3199   20.6745 H   0  0  0  0  0  0
  -17.4190  -26.6675   21.4034 H   0  0  0  0  0  0
  -18.0326  -26.0063   22.9021 H   0  0  0  0  0  0
  -19.7935  -30.7264   24.2272 H   0  0  0  0  0  0
  -17.5015  -31.6268   24.5166 H   0  0  0  0  0  0
  -15.5352  -30.2992   23.7646 H   0  0  0  0  0  0
  -15.8666  -28.0826   22.7057 H   0  0  0  0  0  0
  -24.5936  -30.7021   25.7820 H   0  0  0  0  0  0
  -24.8902  -32.2857   26.4903 H   0  0  0  0  0  0
  -25.8076  -30.8902   27.0260 H   0  0  0  0  0  0
  -26.2895  -29.6777   24.1197 H   0  0  0  0  0  0
  -27.3998  -29.7237   25.4690 H   0  0  0  0  0  0
  -27.8781  -30.4289   23.9429 H   0  0  0  0  0  0
  -27.2695  -33.3597   26.2114 H   0  0  0  0  0  0
  -28.3879  -32.6847   25.0353 H   0  0  0  0  0  0
  -28.0730  -31.8408   26.5432 H   0  0  0  0  0  0
  -28.2598  -38.0098   24.7508 H   0  0  0  0  0  0
  -28.1063  -36.2629   24.6300 H   0  0  0  0  0  0
  -27.2293  -37.1460   25.8873 H   0  0  0  0  0  0
  -20.9324  -29.8782   21.6930 H   0  0  0  0  0  0
  -26.0178  -38.2864   24.1407 H   0  0  0  0  0  0
  -22.3717  -22.3295   19.3364 H   0  0  0  0  0  0
  -23.3074  -23.0622   20.6382 H   0  0  0  0  0  0
  -23.6502  -21.4090   20.1269 H   0  0  0  0  0  0
  -31.9825  -17.5690   20.3722 H   0  0  0  0  0  0
  -31.7483  -18.5756   18.9554 H   0  0  0  0  0  0
  -31.4310  -16.8661   18.8511 H   0  0  0  0  0  0
  -29.4408  -19.1323   18.1018 H   0  0  0  0  0  0
  -28.0208  -18.3252   18.7923 H   0  0  0  0  0  0
  -29.2193  -17.4102   17.9131 H   0  0  0  0  0  0
  -27.5883  -20.5458   18.1581 H   0  0  0  0  0  0
  -25.9742  -20.9344   17.6568 H   0  0  0  0  0  0
  -26.1964  -20.0892   19.1935 H   0  0  0  0  0  0
  -26.8640  -20.7575   21.6859 H   0  0  0  0  0  0
  -28.2530  -20.5076   22.7352 H   0  0  0  0  0  0
  -27.4453  -19.1307   21.9814 H   0  0  0  0  0  0
  -29.3111  -24.9145   20.9898 H   0  0  0  0  0  0
  -27.8752  -25.3928   21.8236 H   0  0  0  0  0  0
  -29.5883  -22.1372   21.1271 H   0  0  0  0  0  0
  -29.6965  -21.6946   19.4492 H   0  0  0  0  0  0
  -24.3672  -22.3122   17.8525 H   0  0  0  0  0  0
  -24.0547  -23.9188   18.4127 H   0  0  0  0  0  0
  -28.6916  -16.1207   19.8129 H   0  0  0  0  0  0
  -28.5232  -16.9190   21.3303 H   0  0  0  0  0  0
  -30.7469  -19.8888   20.5674 H   0  0  0  0  0  0
  -30.0111  -19.0447   21.8627 H   0  0  0  0  0  0
  -30.8898  -16.1017   21.7142 H   0  0  0  0  0  0
  -28.1780  -19.9107   19.8663 H   0  0  0  0  0  0
  1 25  1  0  0  0
  1 30  2  0  0  0
  1 87  1  0  0  0
  2  3  1  0  0  0
  2 25  1  0  0  0
  2 89  1  0  0  0
  2 90  1  0  0  0
  3  4  1  0  0  0
  3 91  1  0  0  0
  3 92  1  0  0  0
  4  5  1  0  0  0
  4 93  1  0  0  0
  4 94  1  0  0  0
  5  6  1  0  0  0
  5 26  1  0  0  0
  5 95  1  0  0  0
  6 25  1  0  0  0
  6 96  1  0  0  0
  6 97  1  0  0  0
  7  8  2  0  0  0
  7 26  1  0  0  0
  7 29  1  0  0  0
  8  9  1  0  0  0
  8 22  1  0  0  0
  9 10  1  0  0  0
  9 27  2  0  0  0
 10 11  2  0  0  0
 10 15  1  0  0  0
 11 12  1  0  0  0
 11 98  1  0  0  0
 12 13  2  0  0  0
 12 99  1  0  0  0
 13 14  1  0  0  0
 13 31  1  0  0  0
 14 15  2  0  0  0
 14100  1  0  0  0
 15101  1  0  0  0
 16 17  2  0  0  0
 16 21  1  0  0  0
 16 31  1  0  0  0
 17 18  1  0  0  0
 17102  1  0  0  0
 18 19  2  0  0  0
 18103  1  0  0  0
 19 20  1  0  0  0
 19 24  1  0  0  0
 20 21  2  0  0  0
 20104  1  0  0  0
 21 23  1  0  0  0
 22 28  1  0  0  0
 22 32  2  0  0  0
 26 27  1  0  0  0
 28105  1  0  0  0
 28106  1  0  0  0
 29107  1  0  0  0
 29108  1  0  0  0
 33 34  1  0  0  0
 33 66  1  0  0  0
 33 70  2  0  0  0
 34 36  1  0  0  0
 34 59  1  0  0  0
 34109  1  0  0  0
 35 44  2  0  0  0
 35 45  1  0  0  0
 35 68  1  0  0  0
 36 56  1  0  0  0
 36110  1  0  0  0
 37 39  1  0  0  0
 37 47  1  0  0  0
 37 66  1  0  0  0
 37111  1  0  0  0
 38 43  2  0  0  0
 38 46  1  0  0  0
 38 47  1  0  0  0
 39 64  1  0  0  0
 39 67  2  0  0  0
 40 52  1  0  0  0
 40 53  2  0  0  0
 40 58  1  0  0  0
 41112  1  0  0  0
 41113  1  0  0  0
 41114  1  0  0  0
 41 48  1  0  0  0
 42 43  1  0  0  0
 42 66  1  0  0  0
 42115  1  0  0  0
 42116  1  0  0  0
 43 44  1  0  0  0
 44117  1  0  0  0
 45 46  2  0  0  0
 45118  1  0  0  0
 46119  1  0  0  0
 47120  1  0  0  0
 47121  1  0  0  0
 48 56  1  0  0  0
 48 65  1  0  0  0
 48122  1  0  0  0
 49 50  1  0  0  0
 49 53  1  0  0  0
 49 64  1  0  0  0
 49123  1  0  0  0
 50 51  1  0  0  0
 50124  1  0  0  0
 50125  1  0  0  0
 51 52  1  0  0  0
 51126  1  0  0  0
 51127  1  0  0  0
 52128  1  0  0  0
 52129  1  0  0  0
 53 54  1  0  0  0
 54 55  2  0  0  0
 54130  1  0  0  0
 55 57  1  0  0  0
 55131  1  0  0  0
 56 69  2  0  0  0
 57 58  2  0  0  0
 57132  1  0  0  0
 58133  1  0  0  0
 59 60  1  0  0  0
 59 61  1  0  0  0
 59 62  1  0  0  0
 60134  1  0  0  0
 60135  1  0  0  0
 60136  1  0  0  0
 61137  1  0  0  0
 61138  1  0  0  0
 61139  1  0  0  0
 62140  1  0  0  0
 62141  1  0  0  0
 62142  1  0  0  0
 63 65  1  0  0  0
 63143  1  0  0  0
 63144  1  0  0  0
 63145  1  0  0  0
 64146  1  0  0  0
 65147  1  0  0  0
 68 79  1  0  0  0
 71 72  2  0  0  0
 71 79  1  0  0  0
 71 85  1  0  0  0
 72 80  1  0  0  0
 72 86  1  0  0  0
 73 81  1  0  0  0
 73 85  2  0  0  0
 73 86  1  0  0  0
 74 81  1  0  0  0
 74148  1  0  0  0
 74149  1  0  0  0
 74150  1  0  0  0
 75151  1  0  0  0
 75152  1  0  0  0
 75153  1  0  0  0
 75 84  1  0  0  0
 76 84  1  0  0  0
 76154  1  0  0  0
 76155  1  0  0  0
 76156  1  0  0  0
 77 86  1  0  0  0
 77157  1  0  0  0
 77158  1  0  0  0
 77159  1  0  0  0
 78160  1  0  0  0
 78161  1  0  0  0
 78162  1  0  0  0
 78 88  1  0  0  0
 79163  1  0  0  0
 79164  1  0  0  0
 80 88  1  0  0  0
 80165  1  0  0  0
 80166  1  0  0  0
 81167  1  0  0  0
 81168  1  0  0  0
 82 84  1  0  0  0
 82 87  1  0  0  0
 82169  1  0  0  0
 82170  1  0  0  0
 83 84  1  0  0  0
 83 88  1  0  0  0
 83171  1  0  0  0
 83172  1  0  0  0
 87173  1  0  0  0
 88174  1  0  0  0
M  CHG  1  88   1
M  ISO  4   1 100  68 101  79 101  87 100
M  END
> <chiral flag>
0

> <version>
0

> <s_m_source_file>
/data/baiqing/PycharmProjects/Reinvent-master-3.2/result/LINK_invent/BTK/process_docking_weight1_custom_sum_contain_oxygen_bond_distance_aromatic_linkinvent_7_9_3/rearranged_h_0050.sdf

> <i_m_source_file_index>
50

> <r_mmod_Potential_Energy-OPLS-2005>
20.0119438171387

> <r_mmod_Stretch_Energy-OPLS-2005>
79.6261901855469

> <r_mmod_Bend_Energy-OPLS-2005>
172.964477539062

> <r_mmod_Torsional_Energy-OPLS-2005>
345.360687255859

> <r_mmod_Improper_Torsional_Energy-OPLS-2005>
6.43930721282959

> <r_mmod_Van_der_Waal_Energy-OPLS-2005>
129.114944458008

> <r_mmod_Electrostatic_Energy-OPLS-2005>
-289.098175048828

> <r_mmod_Solvation_Energy-OPLS-2005>
-462.654479980469

> <b_mmod_Minimization_Converged-OPLS-2005>
0

> <r_mmod_RMS_Derivative-OPLS-2005>
1.54764139652252

$$$$
54
                    3D
 Structure written by MMmdl.
164171  0  0  1  0            999 V2000
  -30.3295  -15.5715   20.3799 C   0  0  0  0  0  0
  -30.4408  -13.0402   19.5402 C   0  0  0  0  0  0
  -29.5502  -12.6609   18.3209 C   0  0  0  0  0  0
  -28.1186  -12.3175   18.7581 C   0  0  0  0  0  0
  -27.6105  -13.3010   19.8365 C   0  0  2  0  0  0
  -28.6434  -13.5424   20.9636 C   0  0  0  0  0  0
  -25.2181  -13.8181   20.5398 C   0  0  0  0  0  0
  -24.1675  -13.0379   20.9219 C   0  0  0  0  0  0
  -24.6440  -11.6925   20.8858 C   0  0  0  0  0  0
  -23.9157  -10.4288   21.0481 C   0  0  0  0  0  0
  -24.3669   -9.4189   21.9253 C   0  0  0  0  0  0
  -23.6310   -8.2248   22.0802 C   0  0  0  0  0  0
  -22.4304   -8.0311   21.3569 C   0  0  0  0  0  0
  -21.9965   -9.0309   20.4689 C   0  0  0  0  0  0
  -22.7326  -10.2165   20.3117 C   0  0  0  0  0  0
  -21.6863   -6.0747   22.5275 C   0  0  0  0  0  0
  -21.3999   -6.5653   23.8202 C   0  0  0  0  0  0
  -21.3649   -5.6804   24.9163 C   0  0  0  0  0  0
  -21.6043   -4.3069   24.7220 C   0  0  0  0  0  0
  -21.8806   -3.8162   23.4338 C   0  0  0  0  0  0
  -21.9181   -4.6973   22.3390 C   0  0  0  0  0  0
  -22.7685  -13.5157   21.1844 C   0  0  0  0  0  0
  -22.1660   -4.2157   21.0968 F   0  0  0  0  0  0
  -21.5629   -3.4547   25.7724 F   0  0  0  0  0  0
  -29.8183  -14.1969   20.3342 N   0  0  0  0  0  0
  -26.2816  -12.9585   20.3285 N   0  0  0  0  0  0
  -25.9434  -11.6685   20.5912 N   0  0  0  0  0  0
  -22.0332  -12.8211   22.0451 N   0  0  0  0  0  0
  -25.3353  -15.1823   20.3083 N   0  0  0  0  0  0
  -31.5290  -15.5331   20.0432 O   0  0  0  0  0  0
  -21.6662   -6.8918   21.4253 O   0  0  0  0  0  0
  -22.3367  -14.5454   20.6668 O   0  0  0  0  0  0
  -24.6806  -31.8045   23.1545 C   0  0  0  0  0  0
  -25.9404  -32.4493   23.8074 C   0  0  1  0  0  0
  -27.2362  -26.7556   20.2138 C   0  0  0  0  0  0
  -25.6000  -33.8317   24.1965 N   0  0  0  0  0  0
  -23.5033  -30.4093   21.5093 C   0  0  2  0  0  0
  -24.9586  -28.7547   20.1235 C   0  0  0  0  0  0
  -22.7740  -29.4354   22.4741 C   0  0  0  0  0  0
  -18.0335  -28.1429   22.8460 C   0  0  0  0  0  0
  -24.1499  -36.7168   23.2650 C   0  0  0  0  0  0
  -26.0825  -30.5560   21.4091 C   0  0  0  0  0  0
  -26.1490  -29.1244   20.7622 C   0  0  0  0  0  0
  -27.2768  -28.1553   20.7686 C   0  0  0  0  0  0
  -26.0051  -26.5749   19.5340 C   0  0  0  0  0  0
  -24.9217  -27.5030   19.4876 C   0  0  0  0  0  0
  -23.7530  -29.7065   20.1447 C   0  0  0  0  0  0
  -25.4141  -36.2907   24.0283 C   0  0  1  0  0  0
  -20.5971  -28.3783   23.1156 C   0  0  2  0  0  0
  -20.6819  -26.9452   22.5404 C   0  0  0  0  0  0
  -19.5791  -26.6380   21.5222 C   0  0  0  0  0  0
  -18.1966  -26.7955   22.1618 C   0  0  0  0  0  0
  -19.1604  -28.8926   23.2790 C   0  0  0  0  0  0
  -18.9505  -30.1506   23.8834 C   0  0  0  0  0  0
  -17.6502  -30.6615   24.0549 C   0  0  0  0  0  0
  -25.9126  -34.9295   23.4957 C   0  0  0  0  0  0
  -16.5390  -29.9099   23.6354 C   0  0  0  0  0  0
  -16.7314  -28.6521   23.0367 C   0  0  0  0  0  0
  -26.4586  -31.6503   25.0675 C   0  0  0  0  0  0
  -25.3670  -31.3830   26.1304 C   0  0  0  0  0  0
  -27.0501  -30.2842   24.6545 C   0  0  0  0  0  0
  -27.6040  -32.4350   25.7493 C   0  0  0  0  0  0
  -27.5563  -37.1740   24.8464 C   0  0  0  0  0  0
  -21.4397  -29.3043   22.3480 N   0  0  0  0  0  0
  -26.4271  -37.3657   23.9407 N   0  0  0  0  0  0
  -24.7781  -30.9541   22.0772 N   0  0  0  0  0  0
  -23.4205  -28.7956   23.3069 O   0  0  0  0  0  0
  -28.2460  -25.5908   20.1961 O   0  0  0  0  0  0
  -26.5753  -34.8868   22.4572 O   0  0  0  0  0  0
  -23.5835  -32.1098   23.6533 O   0  0  0  0  0  0
  -27.4235  -16.9083   21.9043 C   0  0  0  0  0  0
  -28.2643  -23.9922   22.0541 C   0  0  0  0  0  0
  -29.7190  -20.5729   22.0253 C   0  0  0  0  0  0
  -27.4833  -20.1821   20.9795 C   0  0  0  0  0  0
  -30.4395  -22.5801   19.9208 C   0  0  0  0  0  0
  -28.4277  -22.0065   18.6004 C   0  0  0  0  0  0
  -28.9534  -16.9161   21.9423 C   0  0  0  0  0  0
  -29.6172  -18.6408   20.1143 C   0  0  0  0  0  0
  -28.1390  -23.8883   20.5271 C   0  0  2  0  0  0
  -28.9762  -20.3861   20.6877 C   0  0  0  0  0  0
  -28.9479  -22.2051   20.0322 C   0  0  0  0  0  0
  -29.5950  -16.9302   20.6193 N   0  0  0  0  0  0
  -31.4275  -13.3052   19.1609 H   0  0  0  0  0  0
  -30.6171  -12.1702   20.1769 H   0  0  0  0  0  0
  -29.9892  -11.8274   17.7720 H   0  0  0  0  0  0
  -29.5233  -13.5018   17.6254 H   0  0  0  0  0  0
  -28.1322  -11.3045   19.1649 H   0  0  0  0  0  0
  -27.4448  -12.2960   17.9006 H   0  0  0  0  0  0
  -27.5047  -14.2542   19.3164 H   0  0  0  0  0  0
  -28.9043  -12.6081   21.4634 H   0  0  0  0  0  0
  -28.2342  -14.1756   21.7446 H   0  0  0  0  0  0
  -25.2785   -9.5631   22.4880 H   0  0  0  0  0  0
  -23.9960   -7.4638   22.7546 H   0  0  0  0  0  0
  -21.0878   -8.8888   19.9016 H   0  0  0  0  0  0
  -22.3806  -10.9737   19.6265 H   0  0  0  0  0  0
  -21.2008   -7.6162   23.9695 H   0  0  0  0  0  0
  -21.1480   -6.0549   25.9062 H   0  0  0  0  0  0
  -22.0595   -2.7624   23.2840 H   0  0  0  0  0  0
  -22.3922  -11.9877   22.4862 H   0  0  0  0  0  0
  -21.0992  -13.1347   22.2689 H   0  0  0  0  0  0
  -24.5321  -15.7986   20.3677 H   0  0  0  0  0  0
  -26.1575  -15.6380   19.9380 H   0  0  0  0  0  0
  -26.7488  -32.4976   23.0791 H   0  0  0  0  0  0
  -25.0056  -33.9349   25.0059 H   0  0  0  0  0  0
  -22.8260  -31.2452   21.3228 H   0  0  0  0  0  0
  -23.3764  -35.9497   23.3271 H   0  0  0  0  0  0
  -24.3569  -36.8868   22.2073 H   0  0  0  0  0  0
  -23.7259  -37.6341   23.6749 H   0  0  0  0  0  0
  -26.2784  -31.2822   20.6188 H   0  0  0  0  0  0
  -26.9349  -30.6224   22.0718 H   0  0  0  0  0  0
  -28.1829  -28.4529   21.2766 H   0  0  0  0  0  0
  -25.8527  -25.6285   19.0351 H   0  0  0  0  0  0
  -24.0214  -27.2097   18.9641 H   0  0  0  0  0  0
  -23.9242  -30.4663   19.3823 H   0  0  0  0  0  0
  -22.8578  -29.1731   19.8223 H   0  0  0  0  0  0
  -25.1354  -36.1672   25.0772 H   0  0  0  0  0  0
  -21.0045  -28.3410   24.1281 H   0  0  0  0  0  0
  -20.5707  -26.2403   23.3662 H   0  0  0  0  0  0
  -21.6679  -26.7425   22.1203 H   0  0  0  0  0  0
  -19.6953  -25.6269   21.1299 H   0  0  0  0  0  0
  -19.6734  -27.3151   20.6721 H   0  0  0  0  0  0
  -17.4240  -26.6690   21.4020 H   0  0  0  0  0  0
  -18.0354  -26.0120   22.9034 H   0  0  0  0  0  0
  -19.7980  -30.7340   24.2183 H   0  0  0  0  0  0
  -17.5052  -31.6285   24.5164 H   0  0  0  0  0  0
  -15.5390  -30.2982   23.7716 H   0  0  0  0  0  0
  -15.8710  -28.0819   22.7128 H   0  0  0  0  0  0
  -24.5852  -30.7178   25.7615 H   0  0  0  0  0  0
  -24.8866  -32.3063   26.4550 H   0  0  0  0  0  0
  -25.7853  -30.9105   27.0201 H   0  0  0  0  0  0
  -26.3203  -29.6465   24.1546 H   0  0  0  0  0  0
  -27.3947  -29.7273   25.5269 H   0  0  0  0  0  0
  -27.9178  -30.3955   24.0042 H   0  0  0  0  0  0
  -27.2579  -33.3706   26.1892 H   0  0  0  0  0  0
  -28.3946  -32.6823   25.0399 H   0  0  0  0  0  0
  -28.0605  -31.8606   26.5562 H   0  0  0  0  0  0
  -28.2564  -38.0048   24.7495 H   0  0  0  0  0  0
  -28.1076  -36.2575   24.6312 H   0  0  0  0  0  0
  -27.2282  -37.1401   25.8867 H   0  0  0  0  0  0
  -20.9698  -29.8682   21.6546 H   0  0  0  0  0  0
  -26.0104  -38.2713   24.1409 H   0  0  0  0  0  0
  -27.0125  -17.4183   22.7759 H   0  0  0  0  0  0
  -27.0316  -15.9002   21.9626 H   0  0  0  0  0  0
  -27.0234  -17.3849   21.0091 H   0  0  0  0  0  0
  -27.8374  -23.1242   22.5521 H   0  0  0  0  0  0
  -27.7384  -24.8656   22.4396 H   0  0  0  0  0  0
  -29.3072  -24.0869   22.3601 H   0  0  0  0  0  0
  -29.4934  -19.8085   22.7604 H   0  0  0  0  0  0
  -29.4701  -21.5212   22.4949 H   0  0  0  0  0  0
  -30.7984  -20.5694   21.8682 H   0  0  0  0  0  0
  -27.3153  -19.4405   21.7492 H   0  0  0  0  0  0
  -26.9484  -19.8740   20.0802 H   0  0  0  0  0  0
  -27.0190  -21.1001   21.3412 H   0  0  0  0  0  0
  -30.5871  -23.4699   19.3062 H   0  0  0  0  0  0
  -31.0223  -21.7734   19.4753 H   0  0  0  0  0  0
  -30.8735  -22.7972   20.8963 H   0  0  0  0  0  0
  -28.5131  -22.9181   18.0073 H   0  0  0  0  0  0
  -27.3758  -21.7202   18.6035 H   0  0  0  0  0  0
  -28.9811  -21.2210   18.0855 H   0  0  0  0  0  0
  -29.2849  -16.0757   22.5549 H   0  0  0  0  0  0
  -29.2989  -17.7769   22.4998 H   0  0  0  0  0  0
  -30.6732  -18.8048   19.8973 H   0  0  0  0  0  0
  -29.1764  -18.5500   19.1224 H   0  0  0  0  0  0
  -27.0795  -23.7051   20.3380 H   0  0  0  0  0  0
  1 25  1  0  0  0
  1 30  2  0  0  0
  1 82  1  0  0  0
  2  3  1  0  0  0
  2 25  1  0  0  0
  2 83  1  0  0  0
  2 84  1  0  0  0
  3  4  1  0  0  0
  3 85  1  0  0  0
  3 86  1  0  0  0
  4  5  1  0  0  0
  4 87  1  0  0  0
  4 88  1  0  0  0
  5  6  1  0  0  0
  5 26  1  0  0  0
  5 89  1  0  0  0
  6 25  1  0  0  0
  6 90  1  0  0  0
  6 91  1  0  0  0
  7  8  2  0  0  0
  7 26  1  0  0  0
  7 29  1  0  0  0
  8  9  1  0  0  0
  8 22  1  0  0  0
  9 10  1  0  0  0
  9 27  2  0  0  0
 10 11  2  0  0  0
 10 15  1  0  0  0
 11 12  1  0  0  0
 11 92  1  0  0  0
 12 13  2  0  0  0
 12 93  1  0  0  0
 13 14  1  0  0  0
 13 31  1  0  0  0
 14 15  2  0  0  0
 14 94  1  0  0  0
 15 95  1  0  0  0
 16 17  2  0  0  0
 16 21  1  0  0  0
 16 31  1  0  0  0
 17 18  1  0  0  0
 17 96  1  0  0  0
 18 19  2  0  0  0
 18 97  1  0  0  0
 19 20  1  0  0  0
 19 24  1  0  0  0
 20 21  2  0  0  0
 20 98  1  0  0  0
 21 23  1  0  0  0
 22 28  1  0  0  0
 22 32  2  0  0  0
 26 27  1  0  0  0
 28 99  1  0  0  0
 28100  1  0  0  0
 29101  1  0  0  0
 29102  1  0  0  0
 33 34  1  0  0  0
 33 66  1  0  0  0
 33 70  2  0  0  0
 34 36  1  0  0  0
 34 59  1  0  0  0
 34103  1  0  0  0
 35 44  2  0  0  0
 35 45  1  0  0  0
 35 68  1  0  0  0
 36 56  1  0  0  0
 36104  1  0  0  0
 37 39  1  0  0  0
 37 47  1  0  0  0
 37 66  1  0  0  0
 37105  1  0  0  0
 38 43  2  0  0  0
 38 46  1  0  0  0
 38 47  1  0  0  0
 39 64  1  0  0  0
 39 67  2  0  0  0
 40 52  1  0  0  0
 40 53  2  0  0  0
 40 58  1  0  0  0
 41106  1  0  0  0
 41107  1  0  0  0
 41108  1  0  0  0
 41 48  1  0  0  0
 42 43  1  0  0  0
 42 66  1  0  0  0
 42109  1  0  0  0
 42110  1  0  0  0
 43 44  1  0  0  0
 44111  1  0  0  0
 45 46  2  0  0  0
 45112  1  0  0  0
 46113  1  0  0  0
 47114  1  0  0  0
 47115  1  0  0  0
 48 56  1  0  0  0
 48 65  1  0  0  0
 48116  1  0  0  0
 49 50  1  0  0  0
 49 53  1  0  0  0
 49 64  1  0  0  0
 49117  1  0  0  0
 50 51  1  0  0  0
 50118  1  0  0  0
 50119  1  0  0  0
 51 52  1  0  0  0
 51120  1  0  0  0
 51121  1  0  0  0
 52122  1  0  0  0
 52123  1  0  0  0
 53 54  1  0  0  0
 54 55  2  0  0  0
 54124  1  0  0  0
 55 57  1  0  0  0
 55125  1  0  0  0
 56 69  2  0  0  0
 57 58  2  0  0  0
 57126  1  0  0  0
 58127  1  0  0  0
 59 60  1  0  0  0
 59 61  1  0  0  0
 59 62  1  0  0  0
 60128  1  0  0  0
 60129  1  0  0  0
 60130  1  0  0  0
 61131  1  0  0  0
 61132  1  0  0  0
 61133  1  0  0  0
 62134  1  0  0  0
 62135  1  0  0  0
 62136  1  0  0  0
 63 65  1  0  0  0
 63137  1  0  0  0
 63138  1  0  0  0
 63139  1  0  0  0
 64140  1  0  0  0
 65141  1  0  0  0
 68 79  1  0  0  0
 71 77  1  0  0  0
 71142  1  0  0  0
 71143  1  0  0  0
 71144  1  0  0  0
 72145  1  0  0  0
 72146  1  0  0  0
 72147  1  0  0  0
 72 79  1  0  0  0
 73148  1  0  0  0
 73149  1  0  0  0
 73150  1  0  0  0
 73 80  1  0  0  0
 74 80  1  0  0  0
 74151  1  0  0  0
 74152  1  0  0  0
 74153  1  0  0  0
 75154  1  0  0  0
 75155  1  0  0  0
 75156  1  0  0  0
 75 81  1  0  0  0
 76 81  1  0  0  0
 76157  1  0  0  0
 76158  1  0  0  0
 76159  1  0  0  0
 77 82  1  0  0  0
 77160  1  0  0  0
 77161  1  0  0  0
 78 80  1  0  0  0
 78 82  1  0  0  0
 78162  1  0  0  0
 78163  1  0  0  0
 79 81  1  0  0  0
 79164  1  0  0  0
 80 81  1  0  0  0
M  ISO  4   1 100  68 101  79 101  82 100
M  END
> <chiral flag>
0

> <version>
0

> <s_m_source_file>
/data/baiqing/PycharmProjects/Reinvent-master-3.2/result/LINK_invent/BTK/process_docking_weight1_custom_sum_contain_oxygen_bond_distance_aromatic_linkinvent_7_9_3/rearranged_h_0050.sdf

> <i_m_source_file_index>
51

> <r_mmod_Potential_Energy-OPLS-2005>
2557.80688476562

> <r_mmod_Stretch_Energy-OPLS-2005>
1157.79309082031

> <r_mmod_Bend_Energy-OPLS-2005>
657.053588867188

> <r_mmod_Torsional_Energy-OPLS-2005>
346.270660400391

> <r_mmod_Improper_Torsional_Energy-OPLS-2005>
4.84992456436157

> <r_mmod_Van_der_Waal_Energy-OPLS-2005>
118.076332092285

> <r_mmod_Electrostatic_Energy-OPLS-2005>
-323.302337646484

> <r_mmod_Solvation_Energy-OPLS-2005>
-182.673599243164

> <b_mmod_Minimization_Converged-OPLS-2005>
0

> <r_mmod_RMS_Derivative-OPLS-2005>
3.71722626686096

$$$$
55
                    3D
 Structure written by MMmdl.
166174  0  0  1  0            999 V2000
  -30.5272  -15.0317   20.3342 C   0  0  0  0  0  0
  -30.4626  -12.6257   19.4866 C   0  0  0  0  0  0
  -29.5309  -12.3948   18.2678 C   0  0  0  0  0  0
  -28.0549  -12.2584   18.6924 C   0  0  0  0  0  0
  -27.6280  -13.2394   19.8165 C   0  0  2  0  0  0
  -28.6821  -13.3351   20.9364 C   0  0  0  0  0  0
  -25.2527  -13.8221   20.5733 C   0  0  0  0  0  0
  -24.1814  -13.0470   20.9232 C   0  0  0  0  0  0
  -24.6403  -11.6945   20.8781 C   0  0  0  0  0  0
  -23.9066  -10.4323   21.0427 C   0  0  0  0  0  0
  -24.3629   -9.4244   21.9198 C   0  0  0  0  0  0
  -23.6315   -8.2273   22.0766 C   0  0  0  0  0  0
  -22.4296   -8.0302   21.3556 C   0  0  0  0  0  0
  -21.9926   -9.0269   20.4654 C   0  0  0  0  0  0
  -22.7243  -10.2156   20.3070 C   0  0  0  0  0  0
  -21.6859   -6.0742   22.5275 C   0  0  0  0  0  0
  -21.4001   -6.5636   23.8203 C   0  0  0  0  0  0
  -21.3675   -5.6789   24.9165 C   0  0  0  0  0  0
  -21.6059   -4.3050   24.7213 C   0  0  0  0  0  0
  -21.8819   -3.8145   23.4328 C   0  0  0  0  0  0
  -21.9199   -4.6969   22.3391 C   0  0  0  0  0  0
  -22.7836  -13.5265   21.1851 C   0  0  0  0  0  0
  -22.1664   -4.2154   21.0965 F   0  0  0  0  0  0
  -21.5654   -3.4534   25.7720 F   0  0  0  0  0  0
  -29.9299  -13.7631   20.2911 N   0  0  0  0  0  0
  -26.2925  -12.9419   20.3249 N   0  0  0  0  0  0
  -25.9330  -11.6570   20.5790 N   0  0  0  0  0  0
  -22.0457  -12.8269   22.0390 N   0  0  0  0  0  0
  -25.4278  -15.1945   20.4176 N   0  0  0  0  0  0
  -31.7629  -15.0530   20.3176 O   0  0  0  0  0  0
  -21.6663   -6.8901   21.4243 O   0  0  0  0  0  0
  -22.3536  -14.5566   20.6683 O   0  0  0  0  0  0
  -24.6466  -31.8408   23.1833 C   0  0  0  0  0  0
  -25.9225  -32.4675   23.8236 C   0  0  1  0  0  0
  -27.2176  -27.1065   20.1640 C   0  0  0  0  0  0
  -25.5960  -33.8483   24.2154 N   0  0  0  0  0  0
  -23.4529  -30.4585   21.5297 C   0  0  2  0  0  0
  -24.9026  -28.8741   20.1153 C   0  0  0  0  0  0
  -22.7582  -29.4551   22.4850 C   0  0  0  0  0  0
  -18.0316  -28.1423   22.8474 C   0  0  0  0  0  0
  -24.1501  -36.7242   23.2641 C   0  0  0  0  0  0
  -26.0119  -30.7038   21.3886 C   0  0  0  0  0  0
  -26.0817  -29.3110   20.7331 C   0  0  0  0  0  0
  -27.2443  -28.4463   20.7339 C   0  0  0  0  0  0
  -26.0135  -26.7749   19.5081 C   0  0  0  0  0  0
  -24.8823  -27.6204   19.4856 C   0  0  0  0  0  0
  -23.6805  -29.7802   20.1530 C   0  0  0  0  0  0
  -25.4137  -36.3019   24.0306 C   0  0  1  0  0  0
  -20.5925  -28.3754   23.1220 C   0  0  2  0  0  0
  -20.6811  -26.9459   22.5397 C   0  0  0  0  0  0
  -19.5784  -26.6397   21.5213 C   0  0  0  0  0  0
  -18.1961  -26.7960   22.1617 C   0  0  0  0  0  0
  -19.1572  -28.8907   23.2838 C   0  0  0  0  0  0
  -18.9484  -30.1500   23.8868 C   0  0  0  0  0  0
  -17.6478  -30.6612   24.0566 C   0  0  0  0  0  0
  -25.9087  -34.9397   23.5039 C   0  0  0  0  0  0
  -16.5370  -29.9102   23.6350 C   0  0  0  0  0  0
  -16.7297  -28.6526   23.0360 C   0  0  0  0  0  0
  -26.4534  -31.6559   25.0692 C   0  0  0  0  0  0
  -25.3694  -31.3745   26.1360 C   0  0  0  0  0  0
  -27.0409  -30.2950   24.6314 C   0  0  0  0  0  0
  -27.6058  -32.4340   25.7470 C   0  0  0  0  0  0
  -27.5585  -37.1779   24.8467 C   0  0  0  0  0  0
  -21.4274  -29.3056   22.3575 N   0  0  0  0  0  0
  -26.4298  -37.3733   23.9404 N   0  0  0  0  0  0
  -24.7237  -31.0232   22.0885 N   0  0  0  0  0  0
  -23.4200  -28.8115   23.3033 O   0  0  0  0  0  0
  -28.2639  -26.1071   20.1724 O   0  0  0  0  0  0
  -26.5678  -34.8902   22.4624 O   0  0  0  0  0  0
  -23.5573  -32.1300   23.7033 O   0  0  0  0  0  0
  -28.7800  -21.7915   20.5291 C   0  0  0  0  0  0
  -29.2580  -23.0881   18.8404 C   0  0  0  0  0  0
  -28.6789  -23.2208   20.0585 C   0  0  0  0  0  0
  -29.3332  -20.8402   19.6096 C   0  0  0  0  0  0
  -31.4546  -21.9304   16.9299 C   0  0  0  0  0  0
  -29.0590  -22.1009   16.0867 C   0  0  0  0  0  0
  -31.0827  -19.0659   18.8437 C   0  0  0  0  0  0
  -28.5209  -18.8436   18.3218 C   0  0  0  0  0  0
  -29.5668  -16.0840   18.4596 C   0  0  0  0  0  0
  -27.9927  -24.6329   20.6323 C   0  0  0  0  0  0
  -29.6478  -17.7608   20.3948 C   0  0  0  0  0  0
  -29.9995  -21.4793   17.1400 C   0  0  0  0  0  0
  -29.6187  -19.1712   19.3765 C   0  0  0  0  0  0
  -29.5493  -21.7517   18.5187 N   0  0  0  0  0  0
  -29.7940  -16.2058   19.9072 N   0  0  0  0  0  0
  -31.4795  -12.8200   19.1435 H   0  0  0  0  0  0
  -30.5233  -11.7256   20.1001 H   0  0  0  0  0  0
  -29.8392  -11.4802   17.7592 H   0  0  0  0  0  0
  -29.6381  -13.1672   17.5137 H   0  0  0  0  0  0
  -27.9310  -11.2346   19.0441 H   0  0  0  0  0  0
  -27.3992  -12.3573   17.8270 H   0  0  0  0  0  0
  -27.5687  -14.2183   19.3421 H   0  0  0  0  0  0
  -28.8025  -12.3789   21.4479 H   0  0  0  0  0  0
  -28.3769  -14.0642   21.6886 H   0  0  0  0  0  0
  -25.2777   -9.5728   22.4765 H   0  0  0  0  0  0
  -24.0035   -7.4669   22.7488 H   0  0  0  0  0  0
  -21.0857   -8.8777   19.8960 H   0  0  0  0  0  0
  -22.3702  -10.9691   19.6178 H   0  0  0  0  0  0
  -21.1955   -7.6137   23.9694 H   0  0  0  0  0  0
  -21.1515   -6.0523   25.9075 H   0  0  0  0  0  0
  -22.0582   -2.7606   23.2814 H   0  0  0  0  0  0
  -22.4066  -11.9958   22.4827 H   0  0  0  0  0  0
  -21.1076  -13.1319   22.2548 H   0  0  0  0  0  0
  -24.6676  -15.8550   20.5369 H   0  0  0  0  0  0
  -26.2920  -15.6322   20.1225 H   0  0  0  0  0  0
  -26.7287  -32.5265   23.0957 H   0  0  0  0  0  0
  -25.0082  -33.9593   25.0284 H   0  0  0  0  0  0
  -22.7581  -31.2855   21.3694 H   0  0  0  0  0  0
  -23.3773  -35.9564   23.3290 H   0  0  0  0  0  0
  -24.3580  -36.8889   22.2057 H   0  0  0  0  0  0
  -23.7247  -37.6428   23.6692 H   0  0  0  0  0  0
  -26.1777  -31.4557   20.6158 H   0  0  0  0  0  0
  -26.8772  -30.7494   22.0383 H   0  0  0  0  0  0
  -28.1483  -28.7812   21.2227 H   0  0  0  0  0  0
  -25.9300  -25.8161   19.0159 H   0  0  0  0  0  0
  -23.9834  -27.2821   18.9881 H   0  0  0  0  0  0
  -23.8208  -30.5486   19.3925 H   0  0  0  0  0  0
  -22.7953  -29.2214   19.8442 H   0  0  0  0  0  0
  -25.1335  -36.1837   25.0797 H   0  0  0  0  0  0
  -21.0025  -28.3362   24.1337 H   0  0  0  0  0  0
  -20.5739  -26.2370   23.3620 H   0  0  0  0  0  0
  -21.6674  -26.7491   22.1173 H   0  0  0  0  0  0
  -19.6952  -25.6295   21.1280 H   0  0  0  0  0  0
  -19.6728  -27.3177   20.6720 H   0  0  0  0  0  0
  -17.4235  -26.6708   21.4015 H   0  0  0  0  0  0
  -18.0361  -26.0115   22.9026 H   0  0  0  0  0  0
  -19.7954  -30.7335   24.2221 H   0  0  0  0  0  0
  -17.5026  -31.6288   24.5176 H   0  0  0  0  0  0
  -15.5369  -30.2989   23.7698 H   0  0  0  0  0  0
  -15.8697  -28.0832   22.7090 H   0  0  0  0  0  0
  -24.5882  -30.7109   25.7635 H   0  0  0  0  0  0
  -24.8872  -32.2923   26.4734 H   0  0  0  0  0  0
  -25.7935  -30.8917   27.0172 H   0  0  0  0  0  0
  -26.3034  -29.6651   24.1327 H   0  0  0  0  0  0
  -27.4008  -29.7277   25.4909 H   0  0  0  0  0  0
  -27.8952  -30.4170   23.9650 H   0  0  0  0  0  0
  -27.2656  -33.3670   26.1977 H   0  0  0  0  0  0
  -28.3889  -32.6862   25.0305 H   0  0  0  0  0  0
  -28.0713  -31.8518   26.5433 H   0  0  0  0  0  0
  -28.2592  -38.0088   24.7519 H   0  0  0  0  0  0
  -28.1094  -36.2615   24.6298 H   0  0  0  0  0  0
  -27.2297  -37.1425   25.8868 H   0  0  0  0  0  0
  -20.9514  -29.8699   21.6673 H   0  0  0  0  0  0
  -26.0164  -38.2802   24.1395 H   0  0  0  0  0  0
  -28.4068  -21.4702   21.4921 H   0  0  0  0  0  0
  -29.4148  -23.8646   18.1043 H   0  0  0  0  0  0
  -31.8069  -21.6580   15.9353 H   0  0  0  0  0  0
  -32.1272  -21.4657   17.6495 H   0  0  0  0  0  0
  -31.5599  -23.0108   17.0340 H   0  0  0  0  0  0
  -29.2960  -21.7244   15.0913 H   0  0  0  0  0  0
  -29.1353  -23.1867   16.0372 H   0  0  0  0  0  0
  -28.0170  -21.8456   16.2874 H   0  0  0  0  0  0
  -31.1979  -19.1313   17.7676 H   0  0  0  0  0  0
  -31.5751  -18.1241   19.0870 H   0  0  0  0  0  0
  -31.7111  -19.8302   19.3021 H   0  0  0  0  0  0
  -28.9028  -18.3564   17.4291 H   0  0  0  0  0  0
  -28.0022  -19.7227   17.9407 H   0  0  0  0  0  0
  -27.7241  -18.2361   18.7503 H   0  0  0  0  0  0
  -30.1956  -16.7745   17.9061 H   0  0  0  0  0  0
  -28.5186  -16.2188   18.2011 H   0  0  0  0  0  0
  -29.8504  -15.1348   18.0223 H   0  0  0  0  0  0
  -28.2040  -24.6319   21.7018 H   0  0  0  0  0  0
  -26.9179  -24.4600   20.5798 H   0  0  0  0  0  0
  -28.7171  -17.7790   20.9615 H   0  0  0  0  0  0
  -30.4198  -17.9126   21.1513 H   0  0  0  0  0  0
  -29.9218  -20.4258   16.9219 H   0  0  0  0  0  0
  1 25  1  0  0  0
  1 30  2  0  0  0
  1 85  1  0  0  0
  2  3  1  0  0  0
  2 25  1  0  0  0
  2 86  1  0  0  0
  2 87  1  0  0  0
  3  4  1  0  0  0
  3 88  1  0  0  0
  3 89  1  0  0  0
  4  5  1  0  0  0
  4 90  1  0  0  0
  4 91  1  0  0  0
  5  6  1  0  0  0
  5 26  1  0  0  0
  5 92  1  0  0  0
  6 25  1  0  0  0
  6 93  1  0  0  0
  6 94  1  0  0  0
  7  8  2  0  0  0
  7 26  1  0  0  0
  7 29  1  0  0  0
  8  9  1  0  0  0
  8 22  1  0  0  0
  9 10  1  0  0  0
  9 27  2  0  0  0
 10 11  2  0  0  0
 10 15  1  0  0  0
 11 12  1  0  0  0
 11 95  1  0  0  0
 12 13  2  0  0  0
 12 96  1  0  0  0
 13 14  1  0  0  0
 13 31  1  0  0  0
 14 15  2  0  0  0
 14 97  1  0  0  0
 15 98  1  0  0  0
 16 17  2  0  0  0
 16 21  1  0  0  0
 16 31  1  0  0  0
 17 18  1  0  0  0
 17 99  1  0  0  0
 18 19  2  0  0  0
 18100  1  0  0  0
 19 20  1  0  0  0
 19 24  1  0  0  0
 20 21  2  0  0  0
 20101  1  0  0  0
 21 23  1  0  0  0
 22 28  1  0  0  0
 22 32  2  0  0  0
 26 27  1  0  0  0
 28102  1  0  0  0
 28103  1  0  0  0
 29104  1  0  0  0
 29105  1  0  0  0
 33 34  1  0  0  0
 33 66  1  0  0  0
 33 70  2  0  0  0
 34 36  1  0  0  0
 34 59  1  0  0  0
 34106  1  0  0  0
 35 44  2  0  0  0
 35 45  1  0  0  0
 35 68  1  0  0  0
 36 56  1  0  0  0
 36107  1  0  0  0
 37 39  1  0  0  0
 37 47  1  0  0  0
 37 66  1  0  0  0
 37108  1  0  0  0
 38 43  2  0  0  0
 38 46  1  0  0  0
 38 47  1  0  0  0
 39 64  1  0  0  0
 39 67  2  0  0  0
 40 52  1  0  0  0
 40 53  2  0  0  0
 40 58  1  0  0  0
 41109  1  0  0  0
 41110  1  0  0  0
 41111  1  0  0  0
 41 48  1  0  0  0
 42 43  1  0  0  0
 42 66  1  0  0  0
 42112  1  0  0  0
 42113  1  0  0  0
 43 44  1  0  0  0
 44114  1  0  0  0
 45 46  2  0  0  0
 45115  1  0  0  0
 46116  1  0  0  0
 47117  1  0  0  0
 47118  1  0  0  0
 48 56  1  0  0  0
 48 65  1  0  0  0
 48119  1  0  0  0
 49 50  1  0  0  0
 49 53  1  0  0  0
 49 64  1  0  0  0
 49120  1  0  0  0
 50 51  1  0  0  0
 50121  1  0  0  0
 50122  1  0  0  0
 51 52  1  0  0  0
 51123  1  0  0  0
 51124  1  0  0  0
 52125  1  0  0  0
 52126  1  0  0  0
 53 54  1  0  0  0
 54 55  2  0  0  0
 54127  1  0  0  0
 55 57  1  0  0  0
 55128  1  0  0  0
 56 69  2  0  0  0
 57 58  2  0  0  0
 57129  1  0  0  0
 58130  1  0  0  0
 59 60  1  0  0  0
 59 61  1  0  0  0
 59 62  1  0  0  0
 60131  1  0  0  0
 60132  1  0  0  0
 60133  1  0  0  0
 61134  1  0  0  0
 61135  1  0  0  0
 61136  1  0  0  0
 62137  1  0  0  0
 62138  1  0  0  0
 62139  1  0  0  0
 63 65  1  0  0  0
 63140  1  0  0  0
 63141  1  0  0  0
 63142  1  0  0  0
 64143  1  0  0  0
 65144  1  0  0  0
 68 80  1  0  0  0
 71 73  1  0  0  0
 71 74  2  0  0  0
 71145  1  0  0  0
 72 73  2  0  0  0
 72 84  1  0  0  0
 72146  1  0  0  0
 73 80  1  0  0  0
 74 83  1  0  0  0
 74 84  1  0  0  0
 75147  1  0  0  0
 75148  1  0  0  0
 75149  1  0  0  0
 75 82  1  0  0  0
 76 82  1  0  0  0
 76150  1  0  0  0
 76151  1  0  0  0
 76152  1  0  0  0
 77153  1  0  0  0
 77154  1  0  0  0
 77155  1  0  0  0
 77 83  1  0  0  0
 78 83  1  0  0  0
 78156  1  0  0  0
 78157  1  0  0  0
 78158  1  0  0  0
 79 85  1  0  0  0
 79159  1  0  0  0
 79160  1  0  0  0
 79161  1  0  0  0
 80162  1  0  0  0
 80163  1  0  0  0
 81 83  1  0  0  0
 81 85  1  0  0  0
 81164  1  0  0  0
 81165  1  0  0  0
 82 84  1  0  0  0
 82166  1  0  0  0
M  ISO  4   1 100  68 101  80 101  85 100
M  END
> <chiral flag>
0

> <version>
0

> <s_m_source_file>
/data/baiqing/PycharmProjects/Reinvent-master-3.2/result/LINK_invent/BTK/process_docking_weight1_custom_sum_contain_oxygen_bond_distance_aromatic_linkinvent_7_9_3/rearranged_h_0050.sdf

> <i_m_source_file_index>
52

> <r_mmod_Potential_Energy-OPLS-2005>
997.166198730469

> <r_mmod_Stretch_Energy-OPLS-2005>
356.375183105469

> <r_mmod_Bend_Energy-OPLS-2005>
365.210662841797

> <r_mmod_Torsional_Energy-OPLS-2005>
408.855163574219

> <r_mmod_Improper_Torsional_Energy-OPLS-2005>
18.0100593566895

> <r_mmod_Van_der_Waal_Energy-OPLS-2005>
153.122604370117

> <r_mmod_Electrostatic_Energy-OPLS-2005>
-363.274475097656

> <r_mmod_Solvation_Energy-OPLS-2005>
-190.952987670898

> <b_mmod_Minimization_Converged-OPLS-2005>
0

> <r_mmod_RMS_Derivative-OPLS-2005>
1.86694777011871

$$$$
56
                    3D
 Structure written by MMmdl.
171178  0  0  1  0            999 V2000
  -30.3387  -15.8841   20.3681 C   0  0  0  0  0  0
  -30.3795  -13.2522   19.6112 C   0  0  0  0  0  0
  -29.5508  -12.7556   18.3839 C   0  0  0  0  0  0
  -28.1532  -12.3241   18.8235 C   0  0  0  0  0  0
  -27.5875  -13.3454   19.8302 C   0  0  2  0  0  0
  -28.5682  -13.8321   20.9429 C   0  0  0  0  0  0
  -25.2292  -13.8306   20.5863 C   0  0  0  0  0  0
  -24.1710  -13.0394   20.9283 C   0  0  0  0  0  0
  -24.6434  -11.6934   20.8725 C   0  0  0  0  0  0
  -23.9117  -10.4309   21.0368 C   0  0  0  0  0  0
  -24.3638   -9.4242   21.9161 C   0  0  0  0  0  0
  -23.6299   -8.2269   22.0754 C   0  0  0  0  0  0
  -22.4297   -8.0305   21.3550 C   0  0  0  0  0  0
  -21.9946   -9.0258   20.4590 C   0  0  0  0  0  0
  -22.7281  -10.2131   20.3000 C   0  0  0  0  0  0
  -21.6860   -6.0706   22.5281 C   0  0  0  0  0  0
  -21.4045   -6.5633   23.8221 C   0  0  0  0  0  0
  -21.3658   -5.6784   24.9191 C   0  0  0  0  0  0
  -21.6012   -4.3042   24.7261 C   0  0  0  0  0  0
  -21.8856   -3.8118   23.4393 C   0  0  0  0  0  0
  -21.9234   -4.6917   22.3416 C   0  0  0  0  0  0
  -22.7736  -13.5096   21.1899 C   0  0  0  0  0  0
  -22.1724   -4.2077   21.1000 F   0  0  0  0  0  0
  -21.5601   -3.4556   25.7806 F   0  0  0  0  0  0
  -29.7414  -14.5041   20.3067 N   0  0  0  0  0  0
  -26.2770  -12.9716   20.3380 N   0  0  0  0  0  0
  -25.9432  -11.6731   20.5769 N   0  0  0  0  0  0
  -22.0423  -12.8027   22.0420 N   0  0  0  0  0  0
  -25.3838  -15.2043   20.4345 N   0  0  0  0  0  0
  -31.5447  -15.5756   20.2449 O   0  0  0  0  0  0
  -21.6677   -6.8893   21.4252 O   0  0  0  0  0  0
  -22.3428  -14.5413   20.6777 O   0  0  0  0  0  0
  -24.7082  -31.7803   23.1428 C   0  0  0  0  0  0
  -25.9575  -32.4353   23.8032 C   0  0  1  0  0  0
  -27.2396  -26.5214   20.2792 C   0  0  0  0  0  0
  -25.6091  -33.8192   24.1872 N   0  0  0  0  0  0
  -23.5406  -30.3729   21.5079 C   0  0  2  0  0  0
  -24.9935  -28.6671   20.1495 C   0  0  0  0  0  0
  -22.7848  -29.4236   22.4795 C   0  0  0  0  0  0
  -18.0376  -28.1418   22.8487 C   0  0  0  0  0  0
  -24.1492  -36.7087   23.2659 C   0  0  0  0  0  0
  -26.1283  -30.4509   21.4342 C   0  0  0  0  0  0
  -26.1919  -28.9975   20.7885 C   0  0  0  0  0  0
  -27.3011  -27.9677   20.7917 C   0  0  0  0  0  0
  -25.9945  -26.4313   19.5940 C   0  0  0  0  0  0
  -24.9415  -27.4060   19.5249 C   0  0  0  0  0  0
  -23.8048  -29.6531   20.1537 C   0  0  0  0  0  0
  -25.4161  -36.2840   24.0252 C   0  0  1  0  0  0
  -20.6015  -28.3778   23.1131 C   0  0  2  0  0  0
  -20.6822  -26.9434   22.5401 C   0  0  0  0  0  0
  -19.5789  -26.6364   21.5218 C   0  0  0  0  0  0
  -18.1976  -26.7952   22.1614 C   0  0  0  0  0  0
  -19.1643  -28.8934   23.2777 C   0  0  0  0  0  0
  -18.9533  -30.1523   23.8802 C   0  0  0  0  0  0
  -17.6524  -30.6599   24.0557 C   0  0  0  0  0  0
  -25.9154  -34.9222   23.4896 C   0  0  0  0  0  0
  -16.5414  -29.9061   23.6394 C   0  0  0  0  0  0
  -16.7347  -28.6485   23.0404 C   0  0  0  0  0  0
  -26.4614  -31.6491   25.0769 C   0  0  0  0  0  0
  -25.3597  -31.3852   26.1334 C   0  0  0  0  0  0
  -27.0588  -30.2799   24.6851 C   0  0  0  0  0  0
  -27.6027  -32.4457   25.7562 C   0  0  0  0  0  0
  -27.5556  -37.1675   24.8467 C   0  0  0  0  0  0
  -21.4501  -29.2993   22.3440 N   0  0  0  0  0  0
  -26.4264  -37.3618   23.9424 N   0  0  0  0  0  0
  -24.8182  -30.9035   22.0810 N   0  0  0  0  0  0
  -23.4191  -28.7905   23.3274 O   0  0  0  0  0  0
  -28.2173  -25.2486   20.2928 O   0  0  0  0  0  0
  -26.5796  -34.8830   22.4507 O   0  0  0  0  0  0
  -23.6050  -32.0966   23.6257 O   0  0  0  0  0  0
  -26.9836  -18.2683   20.0155 C   0  0  0  0  0  0
  -31.2862  -18.2739   21.2331 C   0  0  0  0  0  0
  -30.4777  -18.1616   18.8786 C   0  0  0  0  0  0
  -26.5620  -23.5580   16.3586 C   0  0  0  0  0  0
  -26.4248  -21.0854   16.5801 C   0  0  0  0  0  0
  -25.8088  -22.5042   18.5285 C   0  0  0  0  0  0
  -27.5911  -19.2260   21.0359 C   0  0  0  0  0  0
  -28.2770  -22.4187   17.7661 C   0  0  0  0  0  0
  -28.1951  -23.4182   20.6113 C   0  0  0  0  0  0
  -29.0442  -19.6101   20.7149 C   0  0  2  0  0  0
  -28.9344  -21.5608   20.1303 C   0  0  1  0  0  0
  -30.0615  -17.8728   20.3372 C   0  0  0  0  0  0
  -26.7797  -22.3819   17.3349 C   0  0  0  0  0  0
  -28.6620  -21.3210   18.6797 N   0  3  0  0  0  0
  -31.3845  -13.4586   19.2505 H   0  0  0  0  0  0
  -30.5068  -12.4330   20.3264 H   0  0  0  0  0  0
  -30.0562  -11.9304   17.8822 H   0  0  0  0  0  0
  -29.4629  -13.5576   17.6470 H   0  0  0  0  0  0
  -28.2384  -11.3465   19.2932 H   0  0  0  0  0  0
  -27.4800  -12.2087   17.9689 H   0  0  0  0  0  0
  -27.4148  -14.2230   19.2090 H   0  0  0  0  0  0
  -28.8535  -13.0278   21.6237 H   0  0  0  0  0  0
  -28.0596  -14.5700   21.5642 H   0  0  0  0  0  0
  -25.2807   -9.5746   22.4713 H   0  0  0  0  0  0
  -23.9999   -7.4693   22.7492 H   0  0  0  0  0  0
  -21.0901   -8.8764   19.8849 H   0  0  0  0  0  0
  -22.3751  -10.9663   19.6074 H   0  0  0  0  0  0
  -21.2043   -7.6159   23.9708 H   0  0  0  0  0  0
  -21.1427   -6.0524   25.9078 H   0  0  0  0  0  0
  -22.0615   -2.7567   23.2931 H   0  0  0  0  0  0
  -22.4150  -11.9671   22.4712 H   0  0  0  0  0  0
  -21.0990  -13.0941   22.2648 H   0  0  0  0  0  0
  -24.6127  -15.8530   20.5484 H   0  0  0  0  0  0
  -26.2474  -15.6607   20.1654 H   0  0  0  0  0  0
  -26.7712  -32.4679   23.0804 H   0  0  0  0  0  0
  -25.0191  -33.9198   24.9996 H   0  0  0  0  0  0
  -22.8831  -31.2196   21.3031 H   0  0  0  0  0  0
  -23.3799  -35.9368   23.3236 H   0  0  0  0  0  0
  -24.3557  -36.8870   22.2101 H   0  0  0  0  0  0
  -23.7189  -37.6188   23.6810 H   0  0  0  0  0  0
  -26.3568  -31.1651   20.6453 H   0  0  0  0  0  0
  -26.9721  -30.5055   22.1086 H   0  0  0  0  0  0
  -28.2248  -28.2577   21.2706 H   0  0  0  0  0  0
  -25.7822  -25.4953   19.1119 H   0  0  0  0  0  0
  -24.0363  -27.1103   19.0129 H   0  0  0  0  0  0
  -24.0208  -30.4047   19.3954 H   0  0  0  0  0  0
  -22.9019  -29.1503   19.8082 H   0  0  0  0  0  0
  -25.1365  -36.1565   25.0719 H   0  0  0  0  0  0
  -21.0073  -28.3380   24.1273 H   0  0  0  0  0  0
  -20.5663  -26.2392   23.3667 H   0  0  0  0  0  0
  -21.6664  -26.7329   22.1207 H   0  0  0  0  0  0
  -19.6891  -25.6248   21.1304 H   0  0  0  0  0  0
  -19.6723  -27.3119   20.6707 H   0  0  0  0  0  0
  -17.4250  -26.6817   21.3997 H   0  0  0  0  0  0
  -18.0289  -26.0069   22.8959 H   0  0  0  0  0  0
  -19.7995  -30.7406   24.2091 H   0  0  0  0  0  0
  -17.5052  -31.6269   24.5178 H   0  0  0  0  0  0
  -15.5398  -30.2919   23.7749 H   0  0  0  0  0  0
  -15.8771  -28.0753   22.7171 H   0  0  0  0  0  0
  -24.5891  -30.7089   25.7618 H   0  0  0  0  0  0
  -24.8657  -32.3072   26.4391 H   0  0  0  0  0  0
  -25.7717  -30.9271   27.0337 H   0  0  0  0  0  0
  -26.3332  -29.6325   24.1922 H   0  0  0  0  0  0
  -27.3986  -29.7366   25.5675 H   0  0  0  0  0  0
  -27.9331  -30.3855   24.0447 H   0  0  0  0  0  0
  -27.2546  -33.3927   26.1674 H   0  0  0  0  0  0
  -28.3994  -32.6741   25.0482 H   0  0  0  0  0  0
  -28.0499  -31.8926   26.5811 H   0  0  0  0  0  0
  -28.2486  -38.0054   24.7580 H   0  0  0  0  0  0
  -28.1141  -36.2557   24.6239 H   0  0  0  0  0  0
  -27.2260  -37.1247   25.8867 H   0  0  0  0  0  0
  -20.9892  -29.8642   21.6449 H   0  0  0  0  0  0
  -26.0070  -38.2623   24.1534 H   0  0  0  0  0  0
  -25.8940  -18.3108   20.0458 H   0  0  0  0  0  0
  -27.2762  -17.2417   20.2370 H   0  0  0  0  0  0
  -27.3107  -18.5041   19.0024 H   0  0  0  0  0  0
  -30.9971  -18.2735   22.2862 H   0  0  0  0  0  0
  -31.6606  -19.2739   21.0185 H   0  0  0  0  0  0
  -32.1723  -17.6451   21.1617 H   0  0  0  0  0  0
  -30.9321  -19.1490   18.7865 H   0  0  0  0  0  0
  -29.6172  -18.1218   18.2097 H   0  0  0  0  0  0
  -31.2208  -17.4555   18.5124 H   0  0  0  0  0  0
  -25.5037  -23.8018   16.2523 H   0  0  0  0  0  0
  -26.9409  -23.3140   15.3615 H   0  0  0  0  0  0
  -27.0789  -24.4648   16.6810 H   0  0  0  0  0  0
  -25.4716  -21.1994   16.0613 H   0  0  0  0  0  0
  -26.3138  -20.2246   17.2426 H   0  0  0  0  0  0
  -27.1688  -20.8351   15.8225 H   0  0  0  0  0  0
  -24.7687  -22.5884   18.2095 H   0  0  0  0  0  0
  -26.0036  -23.3906   19.1176 H   0  0  0  0  0  0
  -25.8668  -21.6380   19.1929 H   0  0  0  0  0  0
  -27.5160  -18.7899   22.0345 H   0  0  0  0  0  0
  -26.9885  -20.1370   21.0782 H   0  0  0  0  0  0
  -28.5802  -23.3934   18.1411 H   0  0  0  0  0  0
  -28.8717  -22.2966   16.8578 H   0  0  0  0  0  0
  -28.5986  -23.4714   21.6238 H   0  0  0  0  0  0
  -27.1536  -23.2274   20.8542 H   0  0  0  0  0  0
  -29.4246  -19.8311   21.7154 H   0  0  0  0  0  0
  -29.9924  -21.8150   20.1686 H   0  0  0  0  0  0
  -29.5128  -20.9391   18.2959 H   0  0  0  0  0  0
  -27.9664  -20.6005   18.5826 H   0  0  0  0  0  0
  1 25  1  0  0  0
  1 30  2  0  0  0
  1 82  1  0  0  0
  2  3  1  0  0  0
  2 25  1  0  0  0
  2 85  1  0  0  0
  2 86  1  0  0  0
  3  4  1  0  0  0
  3 87  1  0  0  0
  3 88  1  0  0  0
  4  5  1  0  0  0
  4 89  1  0  0  0
  4 90  1  0  0  0
  5  6  1  0  0  0
  5 26  1  0  0  0
  5 91  1  0  0  0
  6 25  1  0  0  0
  6 92  1  0  0  0
  6 93  1  0  0  0
  7  8  2  0  0  0
  7 26  1  0  0  0
  7 29  1  0  0  0
  8  9  1  0  0  0
  8 22  1  0  0  0
  9 10  1  0  0  0
  9 27  2  0  0  0
 10 11  2  0  0  0
 10 15  1  0  0  0
 11 12  1  0  0  0
 11 94  1  0  0  0
 12 13  2  0  0  0
 12 95  1  0  0  0
 13 14  1  0  0  0
 13 31  1  0  0  0
 14 15  2  0  0  0
 14 96  1  0  0  0
 15 97  1  0  0  0
 16 17  2  0  0  0
 16 21  1  0  0  0
 16 31  1  0  0  0
 17 18  1  0  0  0
 17 98  1  0  0  0
 18 19  2  0  0  0
 18 99  1  0  0  0
 19 20  1  0  0  0
 19 24  1  0  0  0
 20 21  2  0  0  0
 20100  1  0  0  0
 21 23  1  0  0  0
 22 28  1  0  0  0
 22 32  2  0  0  0
 26 27  1  0  0  0
 28101  1  0  0  0
 28102  1  0  0  0
 29103  1  0  0  0
 29104  1  0  0  0
 33 34  1  0  0  0
 33 66  1  0  0  0
 33 70  2  0  0  0
 34 36  1  0  0  0
 34 59  1  0  0  0
 34105  1  0  0  0
 35 44  2  0  0  0
 35 45  1  0  0  0
 35 68  1  0  0  0
 36 56  1  0  0  0
 36106  1  0  0  0
 37 39  1  0  0  0
 37 47  1  0  0  0
 37 66  1  0  0  0
 37107  1  0  0  0
 38 43  2  0  0  0
 38 46  1  0  0  0
 38 47  1  0  0  0
 39 64  1  0  0  0
 39 67  2  0  0  0
 40 52  1  0  0  0
 40 53  2  0  0  0
 40 58  1  0  0  0
 41108  1  0  0  0
 41109  1  0  0  0
 41110  1  0  0  0
 41 48  1  0  0  0
 42 43  1  0  0  0
 42 66  1  0  0  0
 42111  1  0  0  0
 42112  1  0  0  0
 43 44  1  0  0  0
 44113  1  0  0  0
 45 46  2  0  0  0
 45114  1  0  0  0
 46115  1  0  0  0
 47116  1  0  0  0
 47117  1  0  0  0
 48 56  1  0  0  0
 48 65  1  0  0  0
 48118  1  0  0  0
 49 50  1  0  0  0
 49 53  1  0  0  0
 49 64  1  0  0  0
 49119  1  0  0  0
 50 51  1  0  0  0
 50120  1  0  0  0
 50121  1  0  0  0
 51 52  1  0  0  0
 51122  1  0  0  0
 51123  1  0  0  0
 52124  1  0  0  0
 52125  1  0  0  0
 53 54  1  0  0  0
 54 55  2  0  0  0
 54126  1  0  0  0
 55 57  1  0  0  0
 55127  1  0  0  0
 56 69  2  0  0  0
 57 58  2  0  0  0
 57128  1  0  0  0
 58129  1  0  0  0
 59 60  1  0  0  0
 59 61  1  0  0  0
 59 62  1  0  0  0
 60130  1  0  0  0
 60131  1  0  0  0
 60132  1  0  0  0
 61133  1  0  0  0
 61134  1  0  0  0
 61135  1  0  0  0
 62136  1  0  0  0
 62137  1  0  0  0
 62138  1  0  0  0
 63 65  1  0  0  0
 63139  1  0  0  0
 63140  1  0  0  0
 63141  1  0  0  0
 64142  1  0  0  0
 65143  1  0  0  0
 68 79  1  0  0  0
 71 77  1  0  0  0
 71144  1  0  0  0
 71145  1  0  0  0
 71146  1  0  0  0
 72147  1  0  0  0
 72148  1  0  0  0
 72149  1  0  0  0
 72 82  1  0  0  0
 73 82  1  0  0  0
 73150  1  0  0  0
 73151  1  0  0  0
 73152  1  0  0  0
 74153  1  0  0  0
 74154  1  0  0  0
 74155  1  0  0  0
 74 83  1  0  0  0
 75 83  1  0  0  0
 75156  1  0  0  0
 75157  1  0  0  0
 75158  1  0  0  0
 76 83  1  0  0  0
 76159  1  0  0  0
 76160  1  0  0  0
 76161  1  0  0  0
 77162  1  0  0  0
 77163  1  0  0  0
 77 80  1  0  0  0
 78 83  1  0  0  0
 78 84  1  0  0  0
 78164  1  0  0  0
 78165  1  0  0  0
 79166  1  0  0  0
 79167  1  0  0  0
 79 81  1  0  0  0
 80 81  1  0  0  0
 80 82  1  0  0  0
 80168  1  0  0  0
 81 84  1  0  0  0
 81169  1  0  0  0
 84170  1  0  0  0
 84171  1  0  0  0
M  CHG  1  84   1
M  ISO  4   1 100  68 101  79 101  82 100
M  END
> <chiral flag>
0

> <version>
0

> <s_m_source_file>
/data/baiqing/PycharmProjects/Reinvent-master-3.2/result/LINK_invent/BTK/process_docking_weight1_custom_sum_contain_oxygen_bond_distance_aromatic_linkinvent_7_9_3/rearranged_h_0050.sdf

> <i_m_source_file_index>
53

> <r_mmod_Potential_Energy-OPLS-2005>
3889.16284179688

> <r_mmod_Stretch_Energy-OPLS-2005>
1801.27575683594

> <r_mmod_Bend_Energy-OPLS-2005>
1004.50366210938

> <r_mmod_Torsional_Energy-OPLS-2005>
303.555938720703

> <r_mmod_Improper_Torsional_Energy-OPLS-2005>
5.61456632614136

> <r_mmod_Van_der_Waal_Energy-OPLS-2005>
122.061630249023

> <r_mmod_Electrostatic_Energy-OPLS-2005>
-206.825088500977

> <r_mmod_Solvation_Energy-OPLS-2005>
-409.066009521484

> <b_mmod_Minimization_Converged-OPLS-2005>
0

> <r_mmod_RMS_Derivative-OPLS-2005>
7.892333984375

$$$$
57
                    3D
 Structure written by MMmdl.
168176  0  0  1  0            999 V2000
  -30.5483  -14.9082   20.3397 C   0  0  0  0  0  0
  -30.4579  -12.5467   19.4548 C   0  0  0  0  0  0
  -29.5152  -12.3750   18.2418 C   0  0  0  0  0  0
  -28.0588  -12.1369   18.6972 C   0  0  0  0  0  0
  -27.6230  -13.0927   19.8250 C   0  0  2  0  0  0
  -28.6889  -13.2098   20.9408 C   0  0  0  0  0  0
  -25.2504  -13.7804   20.5679 C   0  0  0  0  0  0
  -24.1745  -13.0228   20.9319 C   0  0  0  0  0  0
  -24.6257  -11.6700   20.8923 C   0  0  0  0  0  0
  -23.8942  -10.4152   21.0534 C   0  0  0  0  0  0
  -24.3545   -9.4056   21.9248 C   0  0  0  0  0  0
  -23.6235   -8.2105   22.0765 C   0  0  0  0  0  0
  -22.4206   -8.0207   21.3555 C   0  0  0  0  0  0
  -21.9854   -9.0180   20.4656 C   0  0  0  0  0  0
  -22.7174  -10.2050   20.3116 C   0  0  0  0  0  0
  -21.6785   -6.0714   22.5309 C   0  0  0  0  0  0
  -21.3971   -6.5620   23.8250 C   0  0  0  0  0  0
  -21.3644   -5.6777   24.9202 C   0  0  0  0  0  0
  -21.6048   -4.3049   24.7243 C   0  0  0  0  0  0
  -21.8830   -3.8136   23.4368 C   0  0  0  0  0  0
  -21.9171   -4.6953   22.3419 C   0  0  0  0  0  0
  -22.7789  -13.5132   21.1891 C   0  0  0  0  0  0
  -22.1642   -4.2156   21.1004 F   0  0  0  0  0  0
  -21.5623   -3.4528   25.7752 F   0  0  0  0  0  0
  -29.9376  -13.6564   20.2968 N   0  0  0  0  0  0
  -26.2810  -12.8748   20.3268 N   0  0  0  0  0  0
  -25.9108  -11.6073   20.5907 N   0  0  0  0  0  0
  -22.0409  -12.8200   22.0486 N   0  0  0  0  0  0
  -25.3988  -15.1523   20.3963 N   0  0  0  0  0  0
  -31.7819  -14.9340   20.2332 O   0  0  0  0  0  0
  -21.6563   -6.8836   21.4258 O   0  0  0  0  0  0
  -22.3475  -14.5388   20.6630 O   0  0  0  0  0  0
  -24.6290  -31.8582   23.2011 C   0  0  0  0  0  0
  -25.9136  -32.4747   23.8361 C   0  0  1  0  0  0
  -27.2400  -27.2938   20.1597 C   0  0  0  0  0  0
  -25.5938  -33.8556   24.2284 N   0  0  0  0  0  0
  -23.4270  -30.4758   21.5425 C   0  0  2  0  0  0
  -24.8783  -28.9220   20.1208 C   0  0  0  0  0  0
  -22.7491  -29.4609   22.4942 C   0  0  0  0  0  0
  -18.0289  -28.1376   22.8474 C   0  0  0  0  0  0
  -24.1491  -36.7256   23.2650 C   0  0  0  0  0  0
  -25.9703  -30.7802   21.3815 C   0  0  0  0  0  0
  -26.0463  -29.4083   20.7198 C   0  0  0  0  0  0
  -27.2308  -28.6111   20.7163 C   0  0  0  0  0  0
  -26.0482  -26.8598   19.5364 C   0  0  0  0  0  0
  -24.8831  -27.6537   19.5185 C   0  0  0  0  0  0
  -23.6473  -29.8063   20.1606 C   0  0  0  0  0  0
  -25.4128  -36.3066   24.0335 C   0  0  1  0  0  0
  -20.5882  -28.3697   23.1260 C   0  0  2  0  0  0
  -20.6769  -26.9414   22.5401 C   0  0  0  0  0  0
  -19.5755  -26.6388   21.5196 C   0  0  0  0  0  0
  -18.1930  -26.7934   22.1587 C   0  0  0  0  0  0
  -19.1530  -28.8855   23.2865 C   0  0  0  0  0  0
  -18.9450  -30.1459   23.8883 C   0  0  0  0  0  0
  -17.6448  -30.6589   24.0561 C   0  0  0  0  0  0
  -25.9073  -34.9427   23.5114 C   0  0  0  0  0  0
  -16.5347  -29.9072   23.6334 C   0  0  0  0  0  0
  -16.7280  -28.6481   23.0372 C   0  0  0  0  0  0
  -26.4524  -31.6567   25.0751 C   0  0  0  0  0  0
  -25.3737  -31.3649   26.1446 C   0  0  0  0  0  0
  -27.0431  -30.3002   24.6262 C   0  0  0  0  0  0
  -27.6076  -32.4326   25.7501 C   0  0  0  0  0  0
  -27.5598  -37.1782   24.8465 C   0  0  0  0  0  0
  -21.4199  -29.3041   22.3661 N   0  0  0  0  0  0
  -26.4310  -37.3762   23.9403 N   0  0  0  0  0  0
  -24.6926  -31.0577   22.0956 N   0  0  0  0  0  0
  -23.4194  -28.8177   23.3067 O   0  0  0  0  0  0
  -28.3643  -26.4491   20.2291 O   0  0  0  0  0  0
  -26.5633  -34.8904   22.4677 O   0  0  0  0  0  0
  -23.5441  -32.1389   23.7329 O   0  0  0  0  0  0
  -29.0534  -22.1167   18.5119 C   0  0  0  0  0  0
  -28.4393  -20.0987   18.3372 C   0  0  0  0  0  0
  -29.1839  -20.1361   19.5187 C   0  0  0  0  0  0
  -27.1778  -19.0253   16.3846 C   0  0  0  0  0  0
  -27.0555  -15.7989   17.4897 C   0  0  0  0  0  0
  -27.3019  -19.2268   17.9045 C   0  0  0  0  0  0
  -29.5373  -18.9498   20.5227 C   0  0  0  0  0  0
  -28.4245  -16.0104   18.1781 C   0  0  0  0  0  0
  -29.4823  -24.0852   20.6815 C   0  0  0  0  0  0
  -29.4541  -22.4727   20.8979 C   0  0  0  0  0  0
  -30.3545  -17.5725   20.0803 C   0  0  0  0  0  0
  -28.4407  -16.1880   19.7324 C   0  0  0  0  0  0
  -28.1738  -24.9904   20.4800 C   0  0  0  0  0  0
  -28.5341  -21.2944   17.6394 N   0  0  0  0  0  0
  -29.2643  -21.5789   19.7182 N   0  0  0  0  0  0
  -29.8072  -16.1322   20.2454 N   0  0  0  0  0  0
  -31.4722  -12.7482   19.0978 H   0  0  0  0  0  0
  -30.5269  -11.6215   20.0283 H   0  0  0  0  0  0
  -29.8481  -11.5314   17.6366 H   0  0  0  0  0  0
  -29.5778  -13.2314   17.5796 H   0  0  0  0  0  0
  -27.9981  -11.1128   19.0650 H   0  0  0  0  0  0
  -27.3749  -12.2013   17.8490 H   0  0  0  0  0  0
  -27.5305  -13.9753   19.2483 H   0  0  0  0  0  0
  -28.8300  -12.2420   21.4204 H   0  0  0  0  0  0
  -28.3769  -13.8903   21.7334 H   0  0  0  0  0  0
  -25.2711   -9.5506   22.4771 H   0  0  0  0  0  0
  -23.9951   -7.4452   22.7427 H   0  0  0  0  0  0
  -21.0827   -8.8730   19.8892 H   0  0  0  0  0  0
  -22.3735  -10.9605   19.6206 H   0  0  0  0  0  0
  -21.1954   -7.6131   23.9778 H   0  0  0  0  0  0
  -21.1429   -6.0488   25.9122 H   0  0  0  0  0  0
  -22.0628   -2.7615   23.2858 H   0  0  0  0  0  0
  -22.4006  -11.9872   22.4919 H   0  0  0  0  0  0
  -21.0983  -13.1179   22.2566 H   0  0  0  0  0  0
  -24.6143  -15.7849   20.4953 H   0  0  0  0  0  0
  -26.2132  -15.5897   19.9869 H   0  0  0  0  0  0
  -26.7204  -32.5404   23.1104 H   0  0  0  0  0  0
  -25.0094  -33.9688   25.0436 H   0  0  0  0  0  0
  -22.7219  -31.2968   21.3941 H   0  0  0  0  0  0
  -23.3786  -35.9556   23.3292 H   0  0  0  0  0  0
  -24.3588  -36.8905   22.2071 H   0  0  0  0  0  0
  -23.7210  -37.6432   23.6694 H   0  0  0  0  0  0
  -26.1304  -31.5504   20.6260 H   0  0  0  0  0  0
  -26.8357  -30.8092   22.0311 H   0  0  0  0  0  0
  -28.1276  -28.9870   21.1870 H   0  0  0  0  0  0
  -25.9976  -25.8874   19.0707 H   0  0  0  0  0  0
  -23.9867  -27.2659   19.0554 H   0  0  0  0  0  0
  -23.7801  -30.5829   19.4062 H   0  0  0  0  0  0
  -22.7661  -29.2417   19.8517 H   0  0  0  0  0  0
  -25.1317  -36.1920   25.0832 H   0  0  0  0  0  0
  -20.9968  -28.3280   24.1386 H   0  0  0  0  0  0
  -20.5663  -26.2316   23.3614 H   0  0  0  0  0  0
  -21.6640  -26.7439   22.1213 H   0  0  0  0  0  0
  -19.6926  -25.6300   21.1235 H   0  0  0  0  0  0
  -19.6703  -27.3186   20.6717 H   0  0  0  0  0  0
  -17.4214  -26.6712   21.3967 H   0  0  0  0  0  0
  -18.0304  -26.0070   22.8962 H   0  0  0  0  0  0
  -19.7922  -30.7276   24.2259 H   0  0  0  0  0  0
  -17.4999  -31.6261   24.5165 H   0  0  0  0  0  0
  -15.5350  -30.2959   23.7681 H   0  0  0  0  0  0
  -15.8678  -28.0797   22.7115 H   0  0  0  0  0  0
  -24.5938  -30.7004   25.7709 H   0  0  0  0  0  0
  -24.8900  -32.2778   26.4918 H   0  0  0  0  0  0
  -25.8047  -30.8760   27.0190 H   0  0  0  0  0  0
  -26.3046  -29.6668   24.1338 H   0  0  0  0  0  0
  -27.4176  -29.7346   25.4806 H   0  0  0  0  0  0
  -27.8877  -30.4298   23.9495 H   0  0  0  0  0  0
  -27.2697  -33.3624   26.2078 H   0  0  0  0  0  0
  -28.3853  -32.6891   25.0298 H   0  0  0  0  0  0
  -28.0788  -31.8465   26.5397 H   0  0  0  0  0  0
  -28.2588  -38.0111   24.7571 H   0  0  0  0  0  0
  -28.1132  -36.2642   24.6231 H   0  0  0  0  0  0
  -27.2316  -37.1350   25.8871 H   0  0  0  0  0  0
  -20.9425  -29.8722   21.6791 H   0  0  0  0  0  0
  -26.0192  -38.2838   24.1409 H   0  0  0  0  0  0
  -29.1392  -23.1678   18.2887 H   0  0  0  0  0  0
  -26.3036  -18.4154   16.1568 H   0  0  0  0  0  0
  -28.0556  -18.5428   15.9532 H   0  0  0  0  0  0
  -27.0275  -19.9792   15.8773 H   0  0  0  0  0  0
  -27.1325  -16.0620   16.4356 H   0  0  0  0  0  0
  -26.2595  -16.4046   17.9167 H   0  0  0  0  0  0
  -26.7127  -14.7641   17.5004 H   0  0  0  0  0  0
  -26.3756  -19.6892   18.2468 H   0  0  0  0  0  0
  -27.3182  -18.2899   18.4220 H   0  0  0  0  0  0
  -28.6387  -18.7057   21.0862 H   0  0  0  0  0  0
  -30.1627  -19.4028   21.2896 H   0  0  0  0  0  0
  -28.8889  -16.8896   17.7325 H   0  0  0  0  0  0
  -29.0922  -15.2139   17.8741 H   0  0  0  0  0  0
  -30.1911  -24.3153   19.8853 H   0  0  0  0  0  0
  -29.9622  -24.4887   21.5747 H   0  0  0  0  0  0
  -28.6751  -22.2242   21.6183 H   0  0  0  0  0  0
  -30.3945  -22.1748   21.3628 H   0  0  0  0  0  0
  -31.2992  -17.5848   20.6232 H   0  0  0  0  0  0
  -30.6641  -17.6734   19.0415 H   0  0  0  0  0  0
  -27.8516  -15.5412   20.3512 H   0  0  0  0  0  0
  -27.9301  -17.1033   19.9874 H   0  0  0  0  0  0
  -27.5751  -24.9026   21.3887 H   0  0  0  0  0  0
  -27.5758  -24.5436   19.6861 H   0  0  0  0  0  0
  1 25  1  0  0  0
  1 30  2  0  0  0
  1 86  1  0  0  0
  2  3  1  0  0  0
  2 25  1  0  0  0
  2 87  1  0  0  0
  2 88  1  0  0  0
  3  4  1  0  0  0
  3 89  1  0  0  0
  3 90  1  0  0  0
  4  5  1  0  0  0
  4 91  1  0  0  0
  4 92  1  0  0  0
  5  6  1  0  0  0
  5 26  1  0  0  0
  5 93  1  0  0  0
  6 25  1  0  0  0
  6 94  1  0  0  0
  6 95  1  0  0  0
  7  8  2  0  0  0
  7 26  1  0  0  0
  7 29  1  0  0  0
  8  9  1  0  0  0
  8 22  1  0  0  0
  9 10  1  0  0  0
  9 27  2  0  0  0
 10 11  2  0  0  0
 10 15  1  0  0  0
 11 12  1  0  0  0
 11 96  1  0  0  0
 12 13  2  0  0  0
 12 97  1  0  0  0
 13 14  1  0  0  0
 13 31  1  0  0  0
 14 15  2  0  0  0
 14 98  1  0  0  0
 15 99  1  0  0  0
 16 17  2  0  0  0
 16 21  1  0  0  0
 16 31  1  0  0  0
 17 18  1  0  0  0
 17100  1  0  0  0
 18 19  2  0  0  0
 18101  1  0  0  0
 19 20  1  0  0  0
 19 24  1  0  0  0
 20 21  2  0  0  0
 20102  1  0  0  0
 21 23  1  0  0  0
 22 28  1  0  0  0
 22 32  2  0  0  0
 26 27  1  0  0  0
 28103  1  0  0  0
 28104  1  0  0  0
 29105  1  0  0  0
 29106  1  0  0  0
 33 34  1  0  0  0
 33 66  1  0  0  0
 33 70  2  0  0  0
 34 36  1  0  0  0
 34 59  1  0  0  0
 34107  1  0  0  0
 35 44  2  0  0  0
 35 45  1  0  0  0
 35 68  1  0  0  0
 36 56  1  0  0  0
 36108  1  0  0  0
 37 39  1  0  0  0
 37 47  1  0  0  0
 37 66  1  0  0  0
 37109  1  0  0  0
 38 43  2  0  0  0
 38 46  1  0  0  0
 38 47  1  0  0  0
 39 64  1  0  0  0
 39 67  2  0  0  0
 40 52  1  0  0  0
 40 53  2  0  0  0
 40 58  1  0  0  0
 41110  1  0  0  0
 41111  1  0  0  0
 41112  1  0  0  0
 41 48  1  0  0  0
 42 43  1  0  0  0
 42 66  1  0  0  0
 42113  1  0  0  0
 42114  1  0  0  0
 43 44  1  0  0  0
 44115  1  0  0  0
 45 46  2  0  0  0
 45116  1  0  0  0
 46117  1  0  0  0
 47118  1  0  0  0
 47119  1  0  0  0
 48 56  1  0  0  0
 48 65  1  0  0  0
 48120  1  0  0  0
 49 50  1  0  0  0
 49 53  1  0  0  0
 49 64  1  0  0  0
 49121  1  0  0  0
 50 51  1  0  0  0
 50122  1  0  0  0
 50123  1  0  0  0
 51 52  1  0  0  0
 51124  1  0  0  0
 51125  1  0  0  0
 52126  1  0  0  0
 52127  1  0  0  0
 53 54  1  0  0  0
 54 55  2  0  0  0
 54128  1  0  0  0
 55 57  1  0  0  0
 55129  1  0  0  0
 56 69  2  0  0  0
 57 58  2  0  0  0
 57130  1  0  0  0
 58131  1  0  0  0
 59 60  1  0  0  0
 59 61  1  0  0  0
 59 62  1  0  0  0
 60132  1  0  0  0
 60133  1  0  0  0
 60134  1  0  0  0
 61135  1  0  0  0
 61136  1  0  0  0
 61137  1  0  0  0
 62138  1  0  0  0
 62139  1  0  0  0
 62140  1  0  0  0
 63 65  1  0  0  0
 63141  1  0  0  0
 63142  1  0  0  0
 63143  1  0  0  0
 64144  1  0  0  0
 65145  1  0  0  0
 68 83  1  0  0  0
 71 84  2  0  0  0
 71 85  1  0  0  0
 71146  1  0  0  0
 72 73  2  0  0  0
 72 76  1  0  0  0
 72 84  1  0  0  0
 73 77  1  0  0  0
 73 85  1  0  0  0
 74 76  1  0  0  0
 74147  1  0  0  0
 74148  1  0  0  0
 74149  1  0  0  0
 75 78  1  0  0  0
 75150  1  0  0  0
 75151  1  0  0  0
 75152  1  0  0  0
 76153  1  0  0  0
 76154  1  0  0  0
 77 81  1  0  0  0
 77155  1  0  0  0
 77156  1  0  0  0
 78 82  1  0  0  0
 78157  1  0  0  0
 78158  1  0  0  0
 79 80  1  0  0  0
 79 83  1  0  0  0
 79159  1  0  0  0
 79160  1  0  0  0
 80 85  1  0  0  0
 80161  1  0  0  0
 80162  1  0  0  0
 81 86  1  0  0  0
 81163  1  0  0  0
 81164  1  0  0  0
 82 86  1  0  0  0
 82165  1  0  0  0
 82166  1  0  0  0
 83167  1  0  0  0
 83168  1  0  0  0
M  ISO  4   1 100  68 101  83 101  86 100
M  END
> <chiral flag>
0

> <version>
0

> <s_m_source_file>
/data/baiqing/PycharmProjects/Reinvent-master-3.2/result/LINK_invent/BTK/process_docking_weight1_custom_sum_contain_oxygen_bond_distance_aromatic_linkinvent_7_9_3/rearranged_h_0050.sdf

> <i_m_source_file_index>
54

> <r_mmod_Potential_Energy-OPLS-2005>
563.45068359375

> <r_mmod_Stretch_Energy-OPLS-2005>
159.37548828125

> <r_mmod_Bend_Energy-OPLS-2005>
244.089340209961

> <r_mmod_Torsional_Energy-OPLS-2005>
376.852081298828

> <r_mmod_Improper_Torsional_Energy-OPLS-2005>
12.1966886520386

> <r_mmod_Van_der_Waal_Energy-OPLS-2005>
152.859298706055

> <r_mmod_Electrostatic_Energy-OPLS-2005>
-311.86474609375

> <r_mmod_Solvation_Energy-OPLS-2005>
-211.267990112305

> <b_mmod_Minimization_Converged-OPLS-2005>
0

> <r_mmod_RMS_Derivative-OPLS-2005>
4.66307640075684

$$$$
58
                    3D
 Structure written by MMmdl.
162170  0  0  1  0            999 V2000
  -29.6231  -14.1416   21.0634 C   0  0  0  0  0  0
  -30.6690  -12.5551   19.3043 C   0  0  0  0  0  0
  -29.8125  -12.5438   17.9649 C   0  0  0  0  0  0
  -28.2869  -12.2831   18.0831 C   0  0  0  0  0  0
  -27.9493  -12.9938   19.3151 C   0  0  2  0  0  0
  -28.7557  -12.1894   20.4284 C   0  0  0  0  0  0
  -25.2665  -14.2516   20.0121 C   0  0  0  0  0  0
  -24.2669  -13.5170   21.2172 C   0  0  0  0  0  0
  -24.8796  -11.8943   21.6411 C   0  0  0  0  0  0
  -24.0329  -10.5966   21.4725 C   0  0  0  0  0  0
  -24.4319   -9.4367   22.1665 C   0  0  0  0  0  0
  -23.6897   -8.2316   22.1466 C   0  0  0  0  0  0
  -22.5054   -8.1022   21.3897 C   0  0  0  0  0  0
  -22.1591   -9.1888   20.5548 C   0  0  0  0  0  0
  -22.9184  -10.3990   20.5780 C   0  0  0  0  0  0
  -21.6986   -6.1135   22.5067 C   0  0  0  0  0  0
  -21.4064   -6.5875   23.8057 C   0  0  0  0  0  0
  -21.3625   -5.6959   24.8995 C   0  0  0  0  0  0
  -21.6013   -4.3236   24.7036 C   0  0  0  0  0  0
  -21.8739   -3.8411   23.4116 C   0  0  0  0  0  0
  -21.9183   -4.7289   22.3196 C   0  0  0  0  0  0
  -22.7985  -13.7719   21.2997 C   0  0  0  0  0  0
  -22.1712   -4.2429   21.0813 F   0  0  0  0  0  0
  -21.5572   -3.4666   25.7528 F   0  0  0  0  0  0
  -29.8733  -12.9583   20.4839 N   0  0  0  0  0  0
  -26.6774  -13.0008   19.6887 N   0  0  0  0  0  0
  -26.3246  -11.6098   20.8176 N   0  0  0  0  0  0
  -22.0738  -12.9805   22.0867 N   0  0  0  0  0  0
  -25.2532  -15.4873   19.4629 N   0  0  0  0  0  0
  -30.6001  -14.9379   20.8982 O   0  0  0  0  0  0
  -21.7195   -6.9597   21.4100 O   0  0  0  0  0  0
  -22.2849  -14.6674   20.6435 O   0  0  0  0  0  0
  -24.6347  -31.8538   23.1980 C   0  0  0  0  0  0
  -25.9154  -32.4754   23.8330 C   0  0  1  0  0  0
  -27.1265  -27.1805   20.1925 C   0  0  0  0  0  0
  -25.5935  -33.8556   24.2256 N   0  0  0  0  0  0
  -23.4304  -30.4817   21.5426 C   0  0  2  0  0  0
  -24.8663  -28.9308   20.0994 C   0  0  0  0  0  0
  -22.7520  -29.4587   22.4872 C   0  0  0  0  0  0
  -18.0294  -28.1390   22.8491 C   0  0  0  0  0  0
  -24.1473  -36.7269   23.2637 C   0  0  0  0  0  0
  -25.9804  -30.7535   21.3801 C   0  0  0  0  0  0
  -26.0434  -29.3706   20.7227 C   0  0  0  0  0  0
  -27.1925  -28.5089   20.7512 C   0  0  0  0  0  0
  -25.9538  -26.8353   19.5043 C   0  0  0  0  0  0
  -24.8335  -27.6815   19.4646 C   0  0  0  0  0  0
  -23.6473  -29.8305   20.1528 C   0  0  0  0  0  0
  -25.4100  -36.3075   24.0333 C   0  0  1  0  0  0
  -20.5903  -28.3699   23.1262 C   0  0  2  0  0  0
  -20.6779  -26.9407   22.5412 C   0  0  0  0  0  0
  -19.5750  -26.6375   21.5222 C   0  0  0  0  0  0
  -18.1931  -26.7930   22.1636 C   0  0  0  0  0  0
  -19.1550  -28.8862   23.2872 C   0  0  0  0  0  0
  -18.9465  -30.1464   23.8884 C   0  0  0  0  0  0
  -17.6461  -30.6589   24.0558 C   0  0  0  0  0  0
  -25.9059  -34.9445   23.5103 C   0  0  0  0  0  0
  -16.5352  -29.9080   23.6338 C   0  0  0  0  0  0
  -16.7278  -28.6501   23.0358 C   0  0  0  0  0  0
  -26.4511  -31.6589   25.0729 C   0  0  0  0  0  0
  -25.3721  -31.3726   26.1438 C   0  0  0  0  0  0
  -27.0385  -30.3018   24.6223 C   0  0  0  0  0  0
  -27.6053  -32.4340   25.7511 C   0  0  0  0  0  0
  -27.5585  -37.1770   24.8453 C   0  0  0  0  0  0
  -21.4220  -29.3044   22.3642 N   0  0  0  0  0  0
  -26.4265  -37.3789   23.9447 N   0  0  0  0  0  0
  -24.7023  -31.0479   22.0969 N   0  0  0  0  0  0
  -23.4214  -28.8110   23.2964 O   0  0  0  0  0  0
  -28.0718  -26.1379   20.3182 O   0  0  0  0  0  0
  -26.5635  -34.8927   22.4675 O   0  0  0  0  0  0
  -23.5490  -32.1370   23.7255 O   0  0  0  0  0  0
  -26.8953  -22.3179   21.6957 C   0  0  0  0  0  0
  -27.5309  -23.3964   20.9174 C   0  0  0  0  0  0
  -27.0221  -21.0642   21.0651 C   0  0  0  0  0  0
  -28.1882  -20.6043   18.8279 C   0  0  0  0  0  0
  -28.1808  -17.8996   21.1415 C   0  0  0  0  0  0
  -27.6879  -24.9866   21.2540 C   0  0  0  0  0  0
  -26.3230  -19.5997   21.2747 C   0  0  0  0  0  0
  -26.2897  -15.3685   22.3651 C   0  0  0  0  0  0
  -26.5466  -13.7125   21.7725 C   0  0  0  0  0  0
  -25.9453  -17.0183   22.0121 C   0  0  0  0  0  0
  -28.0676  -22.7934   19.8599 N   0  0  0  0  0  0
  -27.7643  -21.4436   19.9333 N   0  0  0  0  0  0
  -28.2416  -14.2643   21.7034 N   0  0  0  0  0  0
  -26.9261  -18.2514   21.8320 N   0  3  1  0  0  0
  -31.5302  -13.2143   19.1869 H   0  0  0  0  0  0
  -31.0899  -11.5640   19.4877 H   0  0  0  0  0  0
  -30.2498  -11.8417   17.2528 H   0  0  0  0  0  0
  -29.9386  -13.5163   17.4888 H   0  0  0  0  0  0
  -28.0466  -11.2202   18.1318 H   0  0  0  0  0  0
  -27.7561  -12.6917   17.2226 H   0  0  0  0  0  0
  -28.1607  -14.0471   19.1031 H   0  0  0  0  0  0
  -28.9626  -11.1605   20.1219 H   0  0  0  0  0  0
  -28.4620  -11.9865   21.4616 H   0  0  0  0  0  0
  -25.3133   -9.4889   22.7916 H   0  0  0  0  0  0
  -24.0368   -7.4041   22.7508 H   0  0  0  0  0  0
  -21.2919   -9.1124   19.9134 H   0  0  0  0  0  0
  -22.6059  -11.2123   19.9400 H   0  0  0  0  0  0
  -21.2162   -7.6381   23.9683 H   0  0  0  0  0  0
  -21.1477   -6.0673   25.8906 H   0  0  0  0  0  0
  -22.0491   -2.7888   23.2537 H   0  0  0  0  0  0
  -22.4980  -12.2405   22.6252 H   0  0  0  0  0  0
  -21.0773  -13.1247   22.1589 H   0  0  0  0  0  0
  -24.3737  -15.9897   19.4392 H   0  0  0  0  0  0
  -25.8336  -15.6879   18.6569 H   0  0  0  0  0  0
  -26.7204  -32.5388   23.1053 H   0  0  0  0  0  0
  -25.0073  -33.9688   25.0397 H   0  0  0  0  0  0
  -22.7285  -31.3059   21.4034 H   0  0  0  0  0  0
  -23.3774  -35.9561   23.3261 H   0  0  0  0  0  0
  -24.3576  -36.8935   22.2063 H   0  0  0  0  0  0
  -23.7173  -37.6433   23.6685 H   0  0  0  0  0  0
  -26.1184  -31.5127   20.6083 H   0  0  0  0  0  0
  -26.8601  -30.8058   22.0102 H   0  0  0  0  0  0
  -28.0883  -28.8269   21.2652 H   0  0  0  0  0  0
  -25.8731  -25.8576   19.0481 H   0  0  0  0  0  0
  -23.9334  -27.3455   18.9681 H   0  0  0  0  0  0
  -23.7807  -30.6135   19.4060 H   0  0  0  0  0  0
  -22.7609  -29.2761   19.8408 H   0  0  0  0  0  0
  -25.1268  -36.1913   25.0821 H   0  0  0  0  0  0
  -20.9994  -28.3281   24.1385 H   0  0  0  0  0  0
  -20.5690  -26.2299   23.3621 H   0  0  0  0  0  0
  -21.6643  -26.7431   22.1196 H   0  0  0  0  0  0
  -19.6904  -25.6282   21.1260 H   0  0  0  0  0  0
  -19.6691  -27.3180   20.6751 H   0  0  0  0  0  0
  -17.4199  -26.6679   21.4038 H   0  0  0  0  0  0
  -18.0323  -26.0077   22.9038 H   0  0  0  0  0  0
  -19.7935  -30.7290   24.2243 H   0  0  0  0  0  0
  -17.5011  -31.6273   24.5155 H   0  0  0  0  0  0
  -15.5352  -30.2977   23.7671 H   0  0  0  0  0  0
  -15.8678  -28.0816   22.7079 H   0  0  0  0  0  0
  -24.5873  -30.7119   25.7733 H   0  0  0  0  0  0
  -24.8941  -32.2897   26.4895 H   0  0  0  0  0  0
  -25.8023  -30.8850   27.0196 H   0  0  0  0  0  0
  -26.2991  -29.6747   24.1232 H   0  0  0  0  0  0
  -27.4070  -29.7294   25.4747 H   0  0  0  0  0  0
  -27.8857  -30.4326   23.9485 H   0  0  0  0  0  0
  -27.2641  -33.3613   26.2125 H   0  0  0  0  0  0
  -28.3845  -32.6953   25.0338 H   0  0  0  0  0  0
  -28.0749  -31.8450   26.5401 H   0  0  0  0  0  0
  -28.2521  -38.0148   24.7639 H   0  0  0  0  0  0
  -28.1163  -36.2696   24.6096 H   0  0  0  0  0  0
  -27.2333  -37.1191   25.8854 H   0  0  0  0  0  0
  -20.9394  -29.8775   21.6859 H   0  0  0  0  0  0
  -26.0140  -38.2838   24.1548 H   0  0  0  0  0  0
  -26.3487  -22.4756   22.6147 H   0  0  0  0  0  0
  -28.8434  -19.8115   19.1815 H   0  0  0  0  0  0
  -28.7452  -21.1867   18.0911 H   0  0  0  0  0  0
  -27.3192  -20.1619   18.3404 H   0  0  0  0  0  0
  -28.8509  -18.7590   21.1225 H   0  0  0  0  0  0
  -28.7104  -17.1068   21.6669 H   0  0  0  0  0  0
  -27.9883  -17.5796   20.1171 H   0  0  0  0  0  0
  -28.4648  -25.0466   22.0176 H   0  0  0  0  0  0
  -26.7940  -25.2934   21.7974 H   0  0  0  0  0  0
  -25.9097  -19.3307   20.3009 H   0  0  0  0  0  0
  -25.4376  -19.7818   21.8857 H   0  0  0  0  0  0
  -26.6128  -15.6611   21.3785 H   0  0  0  0  0  0
  -25.2491  -15.2313   22.6519 H   0  0  0  0  0  0
  -26.5685  -13.1417   22.7099 H   0  0  0  0  0  0
  -24.9895  -12.4572   19.8890 H   0  0  0  0  0  0
  -25.3741  -17.3495   22.8809 H   0  0  0  0  0  0
  -25.1915  -17.1190   21.2348 H   0  0  0  0  0  0
  -28.2962  -15.0965   22.2696 H   0  0  0  0  0  0
  -27.2040  -18.4944   22.7706 H   0  0  0  0  0  0
  1 25  1  0  0  0
  1 30  2  0  0  0
  1 83  1  0  0  0
  2  3  1  0  0  0
  2 25  1  0  0  0
  2 85  1  0  0  0
  2 86  1  0  0  0
  3  4  1  0  0  0
  3 87  1  0  0  0
  3 88  1  0  0  0
  4  5  1  0  0  0
  4 89  1  0  0  0
  4 90  1  0  0  0
  5  6  1  0  0  0
  5 26  1  0  0  0
  5 91  1  0  0  0
  6 25  1  0  0  0
  6 92  1  0  0  0
  6 93  1  0  0  0
  7  8  2  0  0  0
  7 26  1  0  0  0
  7 29  1  0  0  0
  8  9  1  0  0  0
  8 22  1  0  0  0
  9 10  1  0  0  0
  9 27  2  0  0  0
 10 11  2  0  0  0
 10 15  1  0  0  0
 11 12  1  0  0  0
 11 94  1  0  0  0
 12 13  2  0  0  0
 12 95  1  0  0  0
 13 14  1  0  0  0
 13 31  1  0  0  0
 14 15  2  0  0  0
 14 96  1  0  0  0
 15 97  1  0  0  0
 16 17  2  0  0  0
 16 21  1  0  0  0
 16 31  1  0  0  0
 17 18  1  0  0  0
 17 98  1  0  0  0
 18 19  2  0  0  0
 18 99  1  0  0  0
 19 20  1  0  0  0
 19 24  1  0  0  0
 20 21  2  0  0  0
 20100  1  0  0  0
 21 23  1  0  0  0
 22 28  1  0  0  0
 22 32  2  0  0  0
 26 27  1  0  0  0
 28101  1  0  0  0
 28102  1  0  0  0
 29103  1  0  0  0
 29104  1  0  0  0
 33 34  1  0  0  0
 33 66  1  0  0  0
 33 70  2  0  0  0
 34 36  1  0  0  0
 34 59  1  0  0  0
 34105  1  0  0  0
 35 44  2  0  0  0
 35 45  1  0  0  0
 35 68  1  0  0  0
 36 56  1  0  0  0
 36106  1  0  0  0
 37 39  1  0  0  0
 37 47  1  0  0  0
 37 66  1  0  0  0
 37107  1  0  0  0
 38 43  2  0  0  0
 38 46  1  0  0  0
 38 47  1  0  0  0
 39 64  1  0  0  0
 39 67  2  0  0  0
 40 52  1  0  0  0
 40 53  2  0  0  0
 40 58  1  0  0  0
 41108  1  0  0  0
 41109  1  0  0  0
 41110  1  0  0  0
 41 48  1  0  0  0
 42 43  1  0  0  0
 42 66  1  0  0  0
 42111  1  0  0  0
 42112  1  0  0  0
 43 44  1  0  0  0
 44113  1  0  0  0
 45 46  2  0  0  0
 45114  1  0  0  0
 46115  1  0  0  0
 47116  1  0  0  0
 47117  1  0  0  0
 48 56  1  0  0  0
 48 65  1  0  0  0
 48118  1  0  0  0
 49 50  1  0  0  0
 49 53  1  0  0  0
 49 64  1  0  0  0
 49119  1  0  0  0
 50 51  1  0  0  0
 50120  1  0  0  0
 50121  1  0  0  0
 51 52  1  0  0  0
 51122  1  0  0  0
 51123  1  0  0  0
 52124  1  0  0  0
 52125  1  0  0  0
 53 54  1  0  0  0
 54 55  2  0  0  0
 54126  1  0  0  0
 55 57  1  0  0  0
 55127  1  0  0  0
 56 69  2  0  0  0
 57 58  2  0  0  0
 57128  1  0  0  0
 58129  1  0  0  0
 59 60  1  0  0  0
 59 61  1  0  0  0
 59 62  1  0  0  0
 60130  1  0  0  0
 60131  1  0  0  0
 60132  1  0  0  0
 61133  1  0  0  0
 61134  1  0  0  0
 61135  1  0  0  0
 62136  1  0  0  0
 62137  1  0  0  0
 62138  1  0  0  0
 63 65  1  0  0  0
 63139  1  0  0  0
 63140  1  0  0  0
 63141  1  0  0  0
 64142  1  0  0  0
 65143  1  0  0  0
 68 76  1  0  0  0
 71 72  1  0  0  0
 71 73  2  0  0  0
 71144  1  0  0  0
 72 76  1  0  0  0
 72 81  2  0  0  0
 73 77  1  0  0  0
 73 82  1  0  0  0
 74 82  1  0  0  0
 74145  1  0  0  0
 74146  1  0  0  0
 74147  1  0  0  0
 75148  1  0  0  0
 75149  1  0  0  0
 75150  1  0  0  0
 75 84  1  0  0  0
 76151  1  0  0  0
 76152  1  0  0  0
 77 84  1  0  0  0
 77153  1  0  0  0
 77154  1  0  0  0
 78 79  1  0  0  0
 78 80  1  0  0  0
 78155  1  0  0  0
 78156  1  0  0  0
 79 83  1  0  0  0
 79157  1  0  0  0
 79158  1  0  0  0
 80 84  1  0  0  0
 80159  1  0  0  0
 80160  1  0  0  0
 81 82  1  0  0  0
 83161  1  0  0  0
 84162  1  0  0  0
M  CHG  1  84   1
M  ISO  4   1 100  68 101  76 101  83 100
M  END
> <chiral flag>
0

> <version>
0

> <s_m_source_file>
/data/baiqing/PycharmProjects/Reinvent-master-3.2/result/LINK_invent/BTK/process_docking_weight1_custom_sum_contain_oxygen_bond_distance_aromatic_linkinvent_7_9_3/rearranged_h_0050.sdf

> <i_m_source_file_index>
55

> <r_mmod_Potential_Energy-OPLS-2005>
10197.880859375

> <r_mmod_Stretch_Energy-OPLS-2005>
6162.4443359375

> <r_mmod_Bend_Energy-OPLS-2005>
833.310974121094

> <r_mmod_Torsional_Energy-OPLS-2005>
408.350921630859

> <r_mmod_Improper_Torsional_Energy-OPLS-2005>
42.5915641784668

> <r_mmod_Van_der_Waal_Energy-OPLS-2005>
2438.599609375

> <r_mmod_Electrostatic_Energy-OPLS-2005>
-280.828491210938

> <r_mmod_Solvation_Energy-OPLS-2005>
-484.769561767578

> <b_mmod_Minimization_Converged-OPLS-2005>
0

> <r_mmod_RMS_Derivative-OPLS-2005>
8.31208896636963

$$$$
59
                    3D
 Structure written by MMmdl.
168176  0  0  1  0            999 V2000
  -30.6860  -14.4584   20.6052 C   0  0  0  0  0  0
  -30.4241  -12.3206   19.4059 C   0  0  0  0  0  0
  -29.4940  -12.5500   18.1969 C   0  0  0  0  0  0
  -28.0075  -12.4124   18.5960 C   0  0  0  0  0  0
  -27.6591  -13.2039   19.8847 C   0  0  2  0  0  0
  -28.7006  -12.9209   20.9889 C   0  0  0  0  0  0
  -25.2560  -13.8129   20.5671 C   0  0  0  0  0  0
  -24.1810  -13.0415   20.9187 C   0  0  0  0  0  0
  -24.6345  -11.6894   20.8727 C   0  0  0  0  0  0
  -23.9049  -10.4268   21.0378 C   0  0  0  0  0  0
  -24.3605   -9.4199   21.9189 C   0  0  0  0  0  0
  -23.6275   -8.2238   22.0776 C   0  0  0  0  0  0
  -22.4257   -8.0253   21.3550 C   0  0  0  0  0  0
  -21.9872   -9.0237   20.4657 C   0  0  0  0  0  0
  -22.7213  -10.2114   20.3056 C   0  0  0  0  0  0
  -21.6848   -6.0726   22.5290 C   0  0  0  0  0  0
  -21.3997   -6.5638   23.8202 C   0  0  0  0  0  0
  -21.3648   -5.6803   24.9164 C   0  0  0  0  0  0
  -21.6006   -4.3057   24.7218 C   0  0  0  0  0  0
  -21.8799   -3.8149   23.4352 C   0  0  0  0  0  0
  -21.9201   -4.6959   22.3410 C   0  0  0  0  0  0
  -22.7838  -13.5275   21.1873 C   0  0  0  0  0  0
  -22.1676   -4.2146   21.0984 F   0  0  0  0  0  0
  -21.5636   -3.4548   25.7746 F   0  0  0  0  0  0
  -30.0237  -13.2764   20.4521 N   0  0  0  0  0  0
  -26.2995  -12.9294   20.3403 N   0  0  0  0  0  0
  -25.9275  -11.6450   20.5751 N   0  0  0  0  0  0
  -22.0455  -12.8315   22.0429 N   0  0  0  0  0  0
  -25.4304  -15.1842   20.4063 N   0  0  0  0  0  0
  -31.8253  -14.6215   20.1501 O   0  0  0  0  0  0
  -21.6595   -6.8862   21.4255 O   0  0  0  0  0  0
  -22.3588  -14.5621   20.6732 O   0  0  0  0  0  0
  -24.6113  -31.8689   23.2118 C   0  0  0  0  0  0
  -25.9008  -32.4831   23.8422 C   0  0  1  0  0  0
  -27.2435  -27.4630   20.0805 C   0  0  0  0  0  0
  -25.5878  -33.8633   24.2360 N   0  0  0  0  0  0
  -23.3997  -30.4921   21.5471 C   0  0  2  0  0  0
  -24.8508  -28.9558   20.1157 C   0  0  0  0  0  0
  -22.7389  -29.4667   22.4960 C   0  0  0  0  0  0
  -18.0265  -28.1376   22.8492 C   0  0  0  0  0  0
  -24.1482  -36.7309   23.2640 C   0  0  0  0  0  0
  -25.9265  -30.8365   21.3675 C   0  0  0  0  0  0
  -26.0048  -29.4710   20.7192 C   0  0  0  0  0  0
  -27.2027  -28.7211   20.7181 C   0  0  0  0  0  0
  -26.0723  -26.9478   19.4891 C   0  0  0  0  0  0
  -24.8759  -27.6900   19.5029 C   0  0  0  0  0  0
  -23.6107  -29.8198   20.1626 C   0  0  0  0  0  0
  -25.4101  -36.3128   24.0361 C   0  0  1  0  0  0
  -20.5855  -28.3671   23.1302 C   0  0  2  0  0  0
  -20.6751  -26.9403   22.5418 C   0  0  0  0  0  0
  -19.5734  -26.6386   21.5204 C   0  0  0  0  0  0
  -18.1910  -26.7923   22.1615 C   0  0  0  0  0  0
  -19.1518  -28.8830   23.2897 C   0  0  0  0  0  0
  -18.9455  -30.1436   23.8916 C   0  0  0  0  0  0
  -17.6458  -30.6581   24.0570 C   0  0  0  0  0  0
  -25.9021  -34.9482   23.5160 C   0  0  0  0  0  0
  -16.5344  -29.9092   23.6328 C   0  0  0  0  0  0
  -16.7258  -28.6503   23.0348 C   0  0  0  0  0  0
  -26.4461  -31.6605   25.0740 C   0  0  0  0  0  0
  -25.3745  -31.3694   26.1502 C   0  0  0  0  0  0
  -27.0311  -30.3059   24.6112 C   0  0  0  0  0  0
  -27.6064  -32.4304   25.7479 C   0  0  0  0  0  0
  -27.5585  -37.1810   24.8469 C   0  0  0  0  0  0
  -21.4109  -29.3045   22.3705 N   0  0  0  0  0  0
  -26.4296  -37.3807   23.9418 N   0  0  0  0  0  0
  -24.6626  -31.0812   22.1003 N   0  0  0  0  0  0
  -23.4169  -28.8200   23.2982 O   0  0  0  0  0  0
  -28.4056  -26.7326   20.0615 O   0  0  0  0  0  0
  -26.5577  -34.8928   22.4717 O   0  0  0  0  0  0
  -23.5306  -32.1419   23.7524 O   0  0  0  0  0  0
  -29.7024  -23.1852   19.8777 C   0  0  0  0  0  0
  -29.8538  -24.1039   18.7982 C   0  0  0  0  0  0
  -29.6005  -21.9488   19.2917 C   0  0  0  0  0  0
  -29.6276  -21.2287   16.8158 C   0  0  0  0  0  0
  -29.4178  -15.6971   22.3225 C   0  0  0  0  0  0
  -27.1937  -20.8267   20.6866 C   0  0  0  0  0  0
  -30.1727  -25.5844   18.8263 C   0  0  0  0  0  0
  -29.5434  -20.5778   19.9311 C   0  0  0  0  0  0
  -28.8236  -17.4821   19.7472 C   0  0  0  0  0  0
  -30.1369  -16.8340   20.2610 C   0  0  0  0  0  0
  -28.2322  -18.5958   20.6533 C   0  0  0  0  0  0
  -28.9591  -26.5292   18.7630 C   0  0  0  0  0  0
  -29.7736  -23.4825   17.6296 N   0  0  0  0  0  0
  -29.6426  -22.1682   17.9217 N   0  0  0  0  0  0
  -29.9316  -15.5386   20.9516 N   0  0  0  0  0  0
  -28.1926  -19.9500   20.0236 N   0  3  1  0  0  0
  -31.4671  -12.4362   19.1061 H   0  0  0  0  0  0
  -30.3370  -11.2978   19.7740 H   0  0  0  0  0  0
  -29.7365  -11.8595   17.3899 H   0  0  0  0  0  0
  -29.6647  -13.5474   17.7922 H   0  0  0  0  0  0
  -27.7905  -11.3530   18.7353 H   0  0  0  0  0  0
  -27.3729  -12.7518   17.7744 H   0  0  0  0  0  0
  -27.7142  -14.2628   19.6361 H   0  0  0  0  0  0
  -28.6886  -11.8630   21.2502 H   0  0  0  0  0  0
  -28.4470  -13.4248   21.9161 H   0  0  0  0  0  0
  -25.2755   -9.5670   22.4752 H   0  0  0  0  0  0
  -23.9944   -7.4634   22.7525 H   0  0  0  0  0  0
  -21.0772   -8.8747   19.9038 H   0  0  0  0  0  0
  -22.3641  -10.9635   19.6140 H   0  0  0  0  0  0
  -21.1975   -7.6142   23.9688 H   0  0  0  0  0  0
  -21.1538   -6.0553   25.9065 H   0  0  0  0  0  0
  -22.0610   -2.7643   23.2842 H   0  0  0  0  0  0
  -22.3981  -11.9939   22.4836 H   0  0  0  0  0  0
  -21.1098  -13.1431   22.2650 H   0  0  0  0  0  0
  -24.6696  -15.8443   20.5219 H   0  0  0  0  0  0
  -26.2926  -15.6173   20.1060 H   0  0  0  0  0  0
  -26.7074  -32.5567   23.1189 H   0  0  0  0  0  0
  -25.0090  -33.9803   25.0549 H   0  0  0  0  0  0
  -22.6880  -31.3081   21.4041 H   0  0  0  0  0  0
  -23.3756  -35.9630   23.3321 H   0  0  0  0  0  0
  -24.3581  -36.8889   22.2049 H   0  0  0  0  0  0
  -23.7207  -37.6518   23.6620 H   0  0  0  0  0  0
  -26.0390  -31.6006   20.5976 H   0  0  0  0  0  0
  -26.8125  -30.8917   21.9870 H   0  0  0  0  0  0
  -28.0920  -29.1102   21.1937 H   0  0  0  0  0  0
  -26.0862  -25.9720   19.0244 H   0  0  0  0  0  0
  -23.9873  -27.2835   19.0394 H   0  0  0  0  0  0
  -23.7133  -30.5893   19.3969 H   0  0  0  0  0  0
  -22.7390  -29.2321   19.8702 H   0  0  0  0  0  0
  -25.1269  -36.2019   25.0856 H   0  0  0  0  0  0
  -20.9964  -28.3244   24.1411 H   0  0  0  0  0  0
  -20.5618  -26.2287   23.3611 H   0  0  0  0  0  0
  -21.6625  -26.7418   22.1225 H   0  0  0  0  0  0
  -19.6899  -25.6298   21.1217 H   0  0  0  0  0  0
  -19.6678  -27.3206   20.6738 H   0  0  0  0  0  0
  -17.4186  -26.6671   21.4013 H   0  0  0  0  0  0
  -18.0318  -26.0053   22.8997 H   0  0  0  0  0  0
  -19.7936  -30.7234   24.2296 H   0  0  0  0  0  0
  -17.5026  -31.6265   24.5172 H   0  0  0  0  0  0
  -15.5349  -30.3007   23.7642 H   0  0  0  0  0  0
  -15.8649  -28.0833   22.7057 H   0  0  0  0  0  0
  -24.5930  -30.7024   25.7844 H   0  0  0  0  0  0
  -24.8927  -32.2844   26.4963 H   0  0  0  0  0  0
  -25.8124  -30.8867   27.0249 H   0  0  0  0  0  0
  -26.2867  -29.6794   24.1194 H   0  0  0  0  0  0
  -27.4120  -29.7321   25.4567 H   0  0  0  0  0  0
  -27.8676  -30.4393   23.9250 H   0  0  0  0  0  0
  -27.2729  -33.3610   26.2080 H   0  0  0  0  0  0
  -28.3863  -32.6836   25.0287 H   0  0  0  0  0  0
  -28.0743  -31.8404   26.5369 H   0  0  0  0  0  0
  -28.2616  -38.0097   24.7531 H   0  0  0  0  0  0
  -28.1069  -36.2636   24.6280 H   0  0  0  0  0  0
  -27.2313  -37.1446   25.8875 H   0  0  0  0  0  0
  -20.9253  -29.8808   21.6974 H   0  0  0  0  0  0
  -26.0202  -38.2897   24.1411 H   0  0  0  0  0  0
  -29.7370  -23.3968   20.9375 H   0  0  0  0  0  0
  -29.2987  -20.2426   17.1371 H   0  0  0  0  0  0
  -30.6298  -21.1403   16.3916 H   0  0  0  0  0  0
  -28.9537  -21.5838   16.0350 H   0  0  0  0  0  0
  -29.6833  -16.6618   22.7561 H   0  0  0  0  0  0
  -29.8123  -14.9329   22.9991 H   0  0  0  0  0  0
  -28.3302  -15.6337   22.3282 H   0  0  0  0  0  0
  -27.0959  -21.7846   20.1744 H   0  0  0  0  0  0
  -27.4665  -21.0226   21.7228 H   0  0  0  0  0  0
  -26.2036  -20.3699   20.6807 H   0  0  0  0  0  0
  -30.8183  -25.8186   17.9786 H   0  0  0  0  0  0
  -30.7714  -25.8260   19.7051 H   0  0  0  0  0  0
  -29.9598  -20.6462   20.9365 H   0  0  0  0  0  0
  -30.2116  -19.9069   19.3898 H   0  0  0  0  0  0
  -28.0728  -16.7047   19.6080 H   0  0  0  0  0  0
  -28.9924  -17.8673   18.7406 H   0  0  0  0  0  0
  -30.7111  -17.5200   20.8853 H   0  0  0  0  0  0
  -30.7669  -16.6904   19.3797 H   0  0  0  0  0  0
  -28.7596  -18.6495   21.6064 H   0  0  0  0  0  0
  -27.2134  -18.3006   20.9072 H   0  0  0  0  0  0
  -28.2335  -26.1664   18.0343 H   0  0  0  0  0  0
  -29.2997  -27.5032   18.4048 H   0  0  0  0  0  0
  -27.8517  -19.8178   19.0845 H   0  0  0  0  0  0
  1 25  1  0  0  0
  1 30  2  0  0  0
  1 85  1  0  0  0
  2  3  1  0  0  0
  2 25  1  0  0  0
  2 87  1  0  0  0
  2 88  1  0  0  0
  3  4  1  0  0  0
  3 89  1  0  0  0
  3 90  1  0  0  0
  4  5  1  0  0  0
  4 91  1  0  0  0
  4 92  1  0  0  0
  5  6  1  0  0  0
  5 26  1  0  0  0
  5 93  1  0  0  0
  6 25  1  0  0  0
  6 94  1  0  0  0
  6 95  1  0  0  0
  7  8  2  0  0  0
  7 26  1  0  0  0
  7 29  1  0  0  0
  8  9  1  0  0  0
  8 22  1  0  0  0
  9 10  1  0  0  0
  9 27  2  0  0  0
 10 11  2  0  0  0
 10 15  1  0  0  0
 11 12  1  0  0  0
 11 96  1  0  0  0
 12 13  2  0  0  0
 12 97  1  0  0  0
 13 14  1  0  0  0
 13 31  1  0  0  0
 14 15  2  0  0  0
 14 98  1  0  0  0
 15 99  1  0  0  0
 16 17  2  0  0  0
 16 21  1  0  0  0
 16 31  1  0  0  0
 17 18  1  0  0  0
 17100  1  0  0  0
 18 19  2  0  0  0
 18101  1  0  0  0
 19 20  1  0  0  0
 19 24  1  0  0  0
 20 21  2  0  0  0
 20102  1  0  0  0
 21 23  1  0  0  0
 22 28  1  0  0  0
 22 32  2  0  0  0
 26 27  1  0  0  0
 28103  1  0  0  0
 28104  1  0  0  0
 29105  1  0  0  0
 29106  1  0  0  0
 33 34  1  0  0  0
 33 66  1  0  0  0
 33 70  2  0  0  0
 34 36  1  0  0  0
 34 59  1  0  0  0
 34107  1  0  0  0
 35 44  2  0  0  0
 35 45  1  0  0  0
 35 68  1  0  0  0
 36 56  1  0  0  0
 36108  1  0  0  0
 37 39  1  0  0  0
 37 47  1  0  0  0
 37 66  1  0  0  0
 37109  1  0  0  0
 38 43  2  0  0  0
 38 46  1  0  0  0
 38 47  1  0  0  0
 39 64  1  0  0  0
 39 67  2  0  0  0
 40 52  1  0  0  0
 40 53  2  0  0  0
 40 58  1  0  0  0
 41110  1  0  0  0
 41111  1  0  0  0
 41112  1  0  0  0
 41 48  1  0  0  0
 42 43  1  0  0  0
 42 66  1  0  0  0
 42113  1  0  0  0
 42114  1  0  0  0
 43 44  1  0  0  0
 44115  1  0  0  0
 45 46  2  0  0  0
 45116  1  0  0  0
 46117  1  0  0  0
 47118  1  0  0  0
 47119  1  0  0  0
 48 56  1  0  0  0
 48 65  1  0  0  0
 48120  1  0  0  0
 49 50  1  0  0  0
 49 53  1  0  0  0
 49 64  1  0  0  0
 49121  1  0  0  0
 50 51  1  0  0  0
 50122  1  0  0  0
 50123  1  0  0  0
 51 52  1  0  0  0
 51124  1  0  0  0
 51125  1  0  0  0
 52126  1  0  0  0
 52127  1  0  0  0
 53 54  1  0  0  0
 54 55  2  0  0  0
 54128  1  0  0  0
 55 57  1  0  0  0
 55129  1  0  0  0
 56 69  2  0  0  0
 57 58  2  0  0  0
 57130  1  0  0  0
 58131  1  0  0  0
 59 60  1  0  0  0
 59 61  1  0  0  0
 59 62  1  0  0  0
 60132  1  0  0  0
 60133  1  0  0  0
 60134  1  0  0  0
 61135  1  0  0  0
 61136  1  0  0  0
 61137  1  0  0  0
 62138  1  0  0  0
 62139  1  0  0  0
 62140  1  0  0  0
 63 65  1  0  0  0
 63141  1  0  0  0
 63142  1  0  0  0
 63143  1  0  0  0
 64144  1  0  0  0
 65145  1  0  0  0
 68 82  1  0  0  0
 71 72  1  0  0  0
 71 73  2  0  0  0
 71146  1  0  0  0
 72 77  1  0  0  0
 72 83  2  0  0  0
 73 78  1  0  0  0
 73 84  1  0  0  0
 74 84  1  0  0  0
 74147  1  0  0  0
 74148  1  0  0  0
 74149  1  0  0  0
 75 85  1  0  0  0
 75150  1  0  0  0
 75151  1  0  0  0
 75152  1  0  0  0
 76153  1  0  0  0
 76154  1  0  0  0
 76155  1  0  0  0
 76 86  1  0  0  0
 77 82  1  0  0  0
 77156  1  0  0  0
 77157  1  0  0  0
 78 86  1  0  0  0
 78158  1  0  0  0
 78159  1  0  0  0
 79 80  1  0  0  0
 79 81  1  0  0  0
 79160  1  0  0  0
 79161  1  0  0  0
 80 85  1  0  0  0
 80162  1  0  0  0
 80163  1  0  0  0
 81 86  1  0  0  0
 81164  1  0  0  0
 81165  1  0  0  0
 82166  1  0  0  0
 82167  1  0  0  0
 83 84  1  0  0  0
 86168  1  0  0  0
M  CHG  1  86   1
M  ISO  4   1 100  68 101  82 101  85 100
M  END
> <chiral flag>
0

> <version>
0

> <s_m_source_file>
/data/baiqing/PycharmProjects/Reinvent-master-3.2/result/LINK_invent/BTK/process_docking_weight1_custom_sum_contain_oxygen_bond_distance_aromatic_linkinvent_7_9_3/rearranged_h_0050.sdf

> <i_m_source_file_index>
56

> <r_mmod_Potential_Energy-OPLS-2005>
-66.6692657470703

> <r_mmod_Stretch_Energy-OPLS-2005>
38.4594078063965

> <r_mmod_Bend_Energy-OPLS-2005>
103.40062713623

> <r_mmod_Torsional_Energy-OPLS-2005>
309.917419433594

> <r_mmod_Improper_Torsional_Energy-OPLS-2005>
11.5360794067383

> <r_mmod_Van_der_Waal_Energy-OPLS-2005>
127.515510559082

> <r_mmod_Electrostatic_Energy-OPLS-2005>
-204.703903198242

> <r_mmod_Solvation_Energy-OPLS-2005>
-463.867553710938

> <b_mmod_Minimization_Converged-OPLS-2005>
0

> <r_mmod_RMS_Derivative-OPLS-2005>
4.73423767089844

$$$$
60
                    3D
 Structure written by MMmdl.
170178  0  0  1  0            999 V2000
  -30.6853  -14.4508   20.5011 C   0  0  0  0  0  0
  -30.4041  -12.2734   19.4187 C   0  0  0  0  0  0
  -29.4805  -12.5073   18.2053 C   0  0  0  0  0  0
  -27.9991  -12.3864   18.6119 C   0  0  0  0  0  0
  -27.6549  -13.1839   19.8985 C   0  0  2  0  0  0
  -28.7088  -12.9770   21.0092 C   0  0  0  0  0  0
  -25.2582  -13.8073   20.5736 C   0  0  0  0  0  0
  -24.1806  -13.0427   20.9185 C   0  0  0  0  0  0
  -24.6325  -11.6864   20.8753 C   0  0  0  0  0  0
  -23.8996  -10.4291   21.0395 C   0  0  0  0  0  0
  -24.3576   -9.4227   21.9186 C   0  0  0  0  0  0
  -23.6260   -8.2273   22.0780 C   0  0  0  0  0  0
  -22.4245   -8.0296   21.3572 C   0  0  0  0  0  0
  -21.9859   -9.0252   20.4649 C   0  0  0  0  0  0
  -22.7173  -10.2141   20.3032 C   0  0  0  0  0  0
  -21.6886   -6.0702   22.5268 C   0  0  0  0  0  0
  -21.4038   -6.5617   23.8196 C   0  0  0  0  0  0
  -21.3646   -5.6765   24.9158 C   0  0  0  0  0  0
  -21.6049   -4.3032   24.7196 C   0  0  0  0  0  0
  -21.8813   -3.8128   23.4322 C   0  0  0  0  0  0
  -21.9217   -4.6936   22.3380 C   0  0  0  0  0  0
  -22.7844  -13.5286   21.1788 C   0  0  0  0  0  0
  -22.1667   -4.2142   21.0950 F   0  0  0  0  0  0
  -21.5647   -3.4484   25.7702 F   0  0  0  0  0  0
  -30.0357  -13.2609   20.4450 N   0  0  0  0  0  0
  -26.2994  -12.9207   20.3533 N   0  0  0  0  0  0
  -25.9267  -11.6401   20.5888 N   0  0  0  0  0  0
  -22.0445  -12.8355   22.0355 N   0  0  0  0  0  0
  -25.4356  -15.1778   20.4094 N   0  0  0  0  0  0
  -31.8626  -14.5776   20.1591 O   0  0  0  0  0  0
  -21.6691   -6.8855   21.4225 O   0  0  0  0  0  0
  -22.3564  -14.5574   20.6579 O   0  0  0  0  0  0
  -24.6079  -31.8736   23.2136 C   0  0  0  0  0  0
  -25.9024  -32.4845   23.8410 C   0  0  1  0  0  0
  -27.2319  -27.4945   20.1022 C   0  0  0  0  0  0
  -25.5899  -33.8647   24.2347 N   0  0  0  0  0  0
  -23.3890  -30.4947   21.5553 C   0  0  2  0  0  0
  -24.8336  -28.9649   20.1155 C   0  0  0  0  0  0
  -22.7342  -29.4700   22.5082 C   0  0  0  0  0  0
  -18.0241  -28.1357   22.8523 C   0  0  0  0  0  0
  -24.1473  -36.7314   23.2642 C   0  0  0  0  0  0
  -25.9081  -30.8599   21.3519 C   0  0  0  0  0  0
  -25.9904  -29.4971   20.7021 C   0  0  0  0  0  0
  -27.1928  -28.7700   20.6893 C   0  0  0  0  0  0
  -26.0698  -26.9601   19.5041 C   0  0  0  0  0  0
  -24.8678  -27.6954   19.5085 C   0  0  0  0  0  0
  -23.5906  -29.8210   20.1714 C   0  0  0  0  0  0
  -25.4095  -36.3137   24.0345 C   0  0  1  0  0  0
  -20.5834  -28.3628   23.1355 C   0  0  2  0  0  0
  -20.6746  -26.9389   22.5428 C   0  0  0  0  0  0
  -19.5735  -26.6403   21.5218 C   0  0  0  0  0  0
  -18.1903  -26.7922   22.1637 C   0  0  0  0  0  0
  -19.1486  -28.8803   23.2945 C   0  0  0  0  0  0
  -18.9446  -30.1432   23.8930 C   0  0  0  0  0  0
  -17.6456  -30.6591   24.0575 C   0  0  0  0  0  0
  -25.9023  -34.9503   23.5146 C   0  0  0  0  0  0
  -16.5335  -29.9105   23.6339 C   0  0  0  0  0  0
  -16.7241  -28.6509   23.0363 C   0  0  0  0  0  0
  -26.4471  -31.6591   25.0699 C   0  0  0  0  0  0
  -25.3762  -31.3704   26.1454 C   0  0  0  0  0  0
  -27.0294  -30.3052   24.6026 C   0  0  0  0  0  0
  -27.6054  -32.4299   25.7470 C   0  0  0  0  0  0
  -27.5576  -37.1806   24.8467 C   0  0  0  0  0  0
  -21.4080  -29.3025   22.3800 N   0  0  0  0  0  0
  -26.4292  -37.3811   23.9411 N   0  0  0  0  0  0
  -24.6526  -31.0890   22.1006 N   0  0  0  0  0  0
  -23.4153  -28.8300   23.3124 O   0  0  0  0  0  0
  -28.4028  -26.7912   20.1229 O   0  0  0  0  0  0
  -26.5596  -34.8953   22.4710 O   0  0  0  0  0  0
  -23.5299  -32.1479   23.7579 O   0  0  0  0  0  0
  -31.4600  -22.4967   21.1644 C   0  0  0  0  0  0
  -30.1340  -22.9603   21.3445 C   0  0  0  0  0  0
  -29.4225  -21.6460   19.5819 C   0  0  0  0  0  0
  -30.7516  -21.1658   19.4009 C   0  0  0  0  0  0
  -28.2548  -21.3299   18.6657 C   0  0  0  0  0  0
  -28.5140  -16.6474   18.7332 C   0  0  0  0  0  0
  -31.9321  -17.9581   20.0791 C   0  0  0  0  0  0
  -29.7798  -24.0500   22.3424 C   0  0  0  0  0  0
  -31.1599  -20.1933   18.2979 C   0  0  0  0  0  0
  -29.8974  -15.7619   20.7152 C   0  0  0  0  0  0
  -29.5688  -25.4233   21.6748 C   0  0  0  0  0  0
  -30.4487  -18.8175   18.3177 C   0  0  0  0  0  0
  -28.3136  -25.5347   20.7804 C   0  0  0  0  0  0
  -29.9149  -16.6463   19.4148 C   0  0  2  0  0  0
  -31.7595  -21.5786   20.2122 N   0  0  0  0  0  0
  -29.1172  -22.4973   20.5836 N   0  0  0  0  0  0
  -30.5284  -18.0153   19.5811 N   0  3  1  0  0  0
  -31.4544  -12.3435   19.1245 H   0  0  0  0  0  0
  -30.2687  -11.2613   19.8010 H   0  0  0  0  0  0
  -29.7030  -11.7978   17.4058 H   0  0  0  0  0  0
  -29.6667  -13.4997   17.7915 H   0  0  0  0  0  0
  -27.7756  -11.3297   18.7588 H   0  0  0  0  0  0
  -27.3600  -12.7231   17.7933 H   0  0  0  0  0  0
  -27.6775  -14.2254   19.6412 H   0  0  0  0  0  0
  -28.6751  -11.9504   21.3721 H   0  0  0  0  0  0
  -28.4943  -13.5964   21.8820 H   0  0  0  0  0  0
  -25.2712   -9.5751   22.4762 H   0  0  0  0  0  0
  -24.0000   -7.4674   22.7477 H   0  0  0  0  0  0
  -21.0829   -8.8691   19.8925 H   0  0  0  0  0  0
  -22.3595  -10.9668   19.6125 H   0  0  0  0  0  0
  -21.2040   -7.6128   23.9663 H   0  0  0  0  0  0
  -21.1483   -6.0524   25.9061 H   0  0  0  0  0  0
  -22.0611   -2.7590   23.2810 H   0  0  0  0  0  0
  -22.4006  -12.0038   22.4882 H   0  0  0  0  0  0
  -21.1025  -13.1371   22.2354 H   0  0  0  0  0  0
  -24.6841  -15.8471   20.5053 H   0  0  0  0  0  0
  -26.2970  -15.5969   20.0813 H   0  0  0  0  0  0
  -26.7097  -32.5606   23.1186 H   0  0  0  0  0  0
  -24.9999  -33.9812   25.0449 H   0  0  0  0  0  0
  -22.6769  -31.3096   21.4190 H   0  0  0  0  0  0
  -23.3744  -35.9640   23.3320 H   0  0  0  0  0  0
  -24.3560  -36.8930   22.2061 H   0  0  0  0  0  0
  -23.7225  -37.6520   23.6633 H   0  0  0  0  0  0
  -26.0035  -31.6276   20.5824 H   0  0  0  0  0  0
  -26.8014  -30.9204   21.9612 H   0  0  0  0  0  0
  -28.0895  -29.1843   21.1336 H   0  0  0  0  0  0
  -26.0999  -25.9893   19.0284 H   0  0  0  0  0  0
  -23.9807  -27.2734   19.0557 H   0  0  0  0  0  0
  -23.6797  -30.5922   19.4059 H   0  0  0  0  0  0
  -22.7161  -29.2280   19.8923 H   0  0  0  0  0  0
  -25.1274  -36.2008   25.0838 H   0  0  0  0  0  0
  -20.9880  -28.3188   24.1499 H   0  0  0  0  0  0
  -20.5621  -26.2267   23.3619 H   0  0  0  0  0  0
  -21.6624  -26.7446   22.1228 H   0  0  0  0  0  0
  -19.6892  -25.6327   21.1233 H   0  0  0  0  0  0
  -19.6675  -27.3228   20.6762 H   0  0  0  0  0  0
  -17.4187  -26.6684   21.4036 H   0  0  0  0  0  0
  -18.0284  -26.0042   22.9002 H   0  0  0  0  0  0
  -19.7922  -30.7235   24.2304 H   0  0  0  0  0  0
  -17.5024  -31.6269   24.5189 H   0  0  0  0  0  0
  -15.5345  -30.3029   23.7641 H   0  0  0  0  0  0
  -15.8637  -28.0848   22.7056 H   0  0  0  0  0  0
  -24.5884  -30.7098   25.7800 H   0  0  0  0  0  0
  -24.8972  -32.2861   26.4923 H   0  0  0  0  0  0
  -25.8103  -30.8845   27.0198 H   0  0  0  0  0  0
  -26.2801  -29.6808   24.1124 H   0  0  0  0  0  0
  -27.4149  -29.7300   25.4459 H   0  0  0  0  0  0
  -27.8601  -30.4393   23.9096 H   0  0  0  0  0  0
  -27.2637  -33.3558   26.2104 H   0  0  0  0  0  0
  -28.3815  -32.6927   25.0273 H   0  0  0  0  0  0
  -28.0736  -31.8384   26.5337 H   0  0  0  0  0  0
  -28.2608  -38.0093   24.7504 H   0  0  0  0  0  0
  -28.1078  -36.2636   24.6292 H   0  0  0  0  0  0
  -27.2299  -37.1429   25.8877 H   0  0  0  0  0  0
  -20.9233  -29.8796   21.7071 H   0  0  0  0  0  0
  -26.0208  -38.2904   24.1413 H   0  0  0  0  0  0
  -32.2843  -22.8702   21.7562 H   0  0  0  0  0  0
  -27.5462  -20.6602   19.1600 H   0  0  0  0  0  0
  -28.5493  -20.9038   17.7105 H   0  0  0  0  0  0
  -27.7187  -22.2481   18.4266 H   0  0  0  0  0  0
  -28.2562  -15.6610   18.3685 H   0  0  0  0  0  0
  -28.4540  -17.2294   17.8186 H   0  0  0  0  0  0
  -27.7210  -16.9959   19.3982 H   0  0  0  0  0  0
  -32.3093  -18.9472   20.3331 H   0  0  0  0  0  0
  -32.5870  -17.5410   19.3146 H   0  0  0  0  0  0
  -32.0543  -17.3705   20.9862 H   0  0  0  0  0  0
  -30.5756  -24.1217   23.0868 H   0  0  0  0  0  0
  -28.8789  -23.7653   22.8892 H   0  0  0  0  0  0
  -32.2426  -20.0546   18.3118 H   0  0  0  0  0  0
  -30.9740  -20.6778   17.3399 H   0  0  0  0  0  0
  -28.8729  -15.5853   21.0335 H   0  0  0  0  0  0
  -30.3343  -16.2761   21.5707 H   0  0  0  0  0  0
  -30.4586  -25.6869   21.1012 H   0  0  0  0  0  0
  -29.4878  -26.1765   22.4620 H   0  0  0  0  0  0
  -30.8368  -18.2174   17.4899 H   0  0  0  0  0  0
  -29.4067  -19.0075   18.0868 H   0  0  0  0  0  0
  -27.4153  -25.4356   21.4028 H   0  0  0  0  0  0
  -28.2476  -24.7783   19.9962 H   0  0  0  0  0  0
  -30.5601  -16.1658   18.6770 H   0  0  0  0  0  0
  -29.9899  -18.5054   20.2842 H   0  0  0  0  0  0
  1 25  1  0  0  0
  1 30  2  0  0  0
  1 80  1  0  0  0
  2  3  1  0  0  0
  2 25  1  0  0  0
  2 88  1  0  0  0
  2 89  1  0  0  0
  3  4  1  0  0  0
  3 90  1  0  0  0
  3 91  1  0  0  0
  4  5  1  0  0  0
  4 92  1  0  0  0
  4 93  1  0  0  0
  5  6  1  0  0  0
  5 26  1  0  0  0
  5 94  1  0  0  0
  6 25  1  0  0  0
  6 95  1  0  0  0
  6 96  1  0  0  0
  7  8  2  0  0  0
  7 26  1  0  0  0
  7 29  1  0  0  0
  8  9  1  0  0  0
  8 22  1  0  0  0
  9 10  1  0  0  0
  9 27  2  0  0  0
 10 11  2  0  0  0
 10 15  1  0  0  0
 11 12  1  0  0  0
 11 97  1  0  0  0
 12 13  2  0  0  0
 12 98  1  0  0  0
 13 14  1  0  0  0
 13 31  1  0  0  0
 14 15  2  0  0  0
 14 99  1  0  0  0
 15100  1  0  0  0
 16 17  2  0  0  0
 16 21  1  0  0  0
 16 31  1  0  0  0
 17 18  1  0  0  0
 17101  1  0  0  0
 18 19  2  0  0  0
 18102  1  0  0  0
 19 20  1  0  0  0
 19 24  1  0  0  0
 20 21  2  0  0  0
 20103  1  0  0  0
 21 23  1  0  0  0
 22 28  1  0  0  0
 22 32  2  0  0  0
 26 27  1  0  0  0
 28104  1  0  0  0
 28105  1  0  0  0
 29106  1  0  0  0
 29107  1  0  0  0
 33 34  1  0  0  0
 33 66  1  0  0  0
 33 70  2  0  0  0
 34 36  1  0  0  0
 34 59  1  0  0  0
 34108  1  0  0  0
 35 44  2  0  0  0
 35 45  1  0  0  0
 35 68  1  0  0  0
 36 56  1  0  0  0
 36109  1  0  0  0
 37 39  1  0  0  0
 37 47  1  0  0  0
 37 66  1  0  0  0
 37110  1  0  0  0
 38 43  2  0  0  0
 38 46  1  0  0  0
 38 47  1  0  0  0
 39 64  1  0  0  0
 39 67  2  0  0  0
 40 52  1  0  0  0
 40 53  2  0  0  0
 40 58  1  0  0  0
 41111  1  0  0  0
 41112  1  0  0  0
 41113  1  0  0  0
 41 48  1  0  0  0
 42 43  1  0  0  0
 42 66  1  0  0  0
 42114  1  0  0  0
 42115  1  0  0  0
 43 44  1  0  0  0
 44116  1  0  0  0
 45 46  2  0  0  0
 45117  1  0  0  0
 46118  1  0  0  0
 47119  1  0  0  0
 47120  1  0  0  0
 48 56  1  0  0  0
 48 65  1  0  0  0
 48121  1  0  0  0
 49 50  1  0  0  0
 49 53  1  0  0  0
 49 64  1  0  0  0
 49122  1  0  0  0
 50 51  1  0  0  0
 50123  1  0  0  0
 50124  1  0  0  0
 51 52  1  0  0  0
 51125  1  0  0  0
 51126  1  0  0  0
 52127  1  0  0  0
 52128  1  0  0  0
 53 54  1  0  0  0
 54 55  2  0  0  0
 54129  1  0  0  0
 55 57  1  0  0  0
 55130  1  0  0  0
 56 69  2  0  0  0
 57 58  2  0  0  0
 57131  1  0  0  0
 58132  1  0  0  0
 59 60  1  0  0  0
 59 61  1  0  0  0
 59 62  1  0  0  0
 60133  1  0  0  0
 60134  1  0  0  0
 60135  1  0  0  0
 61136  1  0  0  0
 61137  1  0  0  0
 61138  1  0  0  0
 62139  1  0  0  0
 62140  1  0  0  0
 62141  1  0  0  0
 63 65  1  0  0  0
 63142  1  0  0  0
 63143  1  0  0  0
 63144  1  0  0  0
 64145  1  0  0  0
 65146  1  0  0  0
 68 83  1  0  0  0
 71 72  2  0  0  0
 71 85  1  0  0  0
 71147  1  0  0  0
 72 78  1  0  0  0
 72 86  1  0  0  0
 73 74  1  0  0  0
 73 75  1  0  0  0
 73 86  2  0  0  0
 74 79  1  0  0  0
 74 85  2  0  0  0
 75148  1  0  0  0
 75149  1  0  0  0
 75150  1  0  0  0
 76151  1  0  0  0
 76152  1  0  0  0
 76153  1  0  0  0
 76 84  1  0  0  0
 77154  1  0  0  0
 77155  1  0  0  0
 77156  1  0  0  0
 77 87  1  0  0  0
 78 81  1  0  0  0
 78157  1  0  0  0
 78158  1  0  0  0
 79 82  1  0  0  0
 79159  1  0  0  0
 79160  1  0  0  0
 80 84  1  0  0  0
 80161  1  0  0  0
 80162  1  0  0  0
 81 83  1  0  0  0
 81163  1  0  0  0
 81164  1  0  0  0
 82 87  1  0  0  0
 82165  1  0  0  0
 82166  1  0  0  0
 83167  1  0  0  0
 83168  1  0  0  0
 84 87  1  0  0  0
 84169  1  0  0  0
 87170  1  0  0  0
M  CHG  1  87   1
M  ISO  4   1 100  68 101  80 100  83 101
M  END
> <chiral flag>
0

> <version>
0

> <s_m_source_file>
/data/baiqing/PycharmProjects/Reinvent-master-3.2/result/LINK_invent/BTK/process_docking_weight1_custom_sum_contain_oxygen_bond_distance_aromatic_linkinvent_7_9_3/rearranged_h_0050.sdf

> <i_m_source_file_index>
57

> <r_mmod_Potential_Energy-OPLS-2005>
-85.1280746459961

> <r_mmod_Stretch_Energy-OPLS-2005>
40.5873985290527

> <r_mmod_Bend_Energy-OPLS-2005>
114.33992767334

> <r_mmod_Torsional_Energy-OPLS-2005>
220.828369140625

> <r_mmod_Improper_Torsional_Energy-OPLS-2005>
6.46899557113647

> <r_mmod_Van_der_Waal_Energy-OPLS-2005>
175.237380981445

> <r_mmod_Electrostatic_Energy-OPLS-2005>
-231.591644287109

> <r_mmod_Solvation_Energy-OPLS-2005>
-425.68994140625

> <b_mmod_Minimization_Converged-OPLS-2005>
0

> <r_mmod_RMS_Derivative-OPLS-2005>
5.87046432495117

$$$$
61
                    3D
 Structure written by MMmdl.
152160  0  0  1  0            999 V2000
  -30.4362  -15.1868   20.4381 C   0  0  0  0  0  0
  -30.4676  -12.7588   19.5074 C   0  0  0  0  0  0
  -29.5346  -12.5815   18.2784 C   0  0  0  0  0  0
  -28.0810  -12.2949   18.7040 C   0  0  0  0  0  0
  -27.6291  -13.2365   19.8449 C   0  0  2  0  0  0
  -28.6892  -13.2888   20.9749 C   0  0  0  0  0  0
  -25.2304  -13.8083   20.5587 C   0  0  0  0  0  0
  -24.1698  -13.0312   20.9232 C   0  0  0  0  0  0
  -24.6378  -11.6839   20.8799 C   0  0  0  0  0  0
  -23.9066  -10.4231   21.0440 C   0  0  0  0  0  0
  -24.3604   -9.4153   21.9222 C   0  0  0  0  0  0
  -23.6265   -8.2200   22.0768 C   0  0  0  0  0  0
  -22.4260   -8.0250   21.3542 C   0  0  0  0  0  0
  -21.9914   -9.0230   20.4653 C   0  0  0  0  0  0
  -22.7247  -10.2099   20.3073 C   0  0  0  0  0  0
  -21.6841   -6.0725   22.5280 C   0  0  0  0  0  0
  -21.4021   -6.5632   23.8216 C   0  0  0  0  0  0
  -21.3653   -5.6780   24.9175 C   0  0  0  0  0  0
  -21.6036   -4.3042   24.7226 C   0  0  0  0  0  0
  -21.8819   -3.8139   23.4345 C   0  0  0  0  0  0
  -21.9186   -4.6958   22.3402 C   0  0  0  0  0  0
  -22.7720  -13.5112   21.1866 C   0  0  0  0  0  0
  -22.1649   -4.2145   21.0977 F   0  0  0  0  0  0
  -21.5619   -3.4525   25.7738 F   0  0  0  0  0  0
  -29.9229  -13.8559   20.3858 N   0  0  0  0  0  0
  -26.2860  -12.9371   20.3303 N   0  0  0  0  0  0
  -25.9325  -11.6510   20.5823 N   0  0  0  0  0  0
  -22.0359  -12.8150   22.0455 N   0  0  0  0  0  0
  -25.3515  -15.1789   20.3716 N   0  0  0  0  0  0
  -31.6249  -15.2419   20.0847 O   0  0  0  0  0  0
  -21.6610   -6.8858   21.4238 O   0  0  0  0  0  0
  -22.3408  -14.5414   20.6686 O   0  0  0  0  0  0
  -24.6554  -31.8311   23.1763 C   0  0  0  0  0  0
  -25.9270  -32.4624   23.8202 C   0  0  1  0  0  0
  -27.2402  -27.0226   20.1739 C   0  0  0  0  0  0
  -25.5969  -33.8432   24.2121 N   0  0  0  0  0  0
  -23.4666  -30.4434   21.5235 C   0  0  2  0  0  0
  -24.9223  -28.8412   20.1182 C   0  0  0  0  0  0
  -22.7627  -29.4484   22.4823 C   0  0  0  0  0  0
  -18.0314  -28.1405   22.8474 C   0  0  0  0  0  0
  -24.1492  -36.7224   23.2642 C   0  0  0  0  0  0
  -26.0297  -30.6681   21.3918 C   0  0  0  0  0  0
  -26.1038  -29.2654   20.7393 C   0  0  0  0  0  0
  -27.2594  -28.3771   20.7403 C   0  0  0  0  0  0
  -26.0258  -26.7225   19.5170 C   0  0  0  0  0  0
  -24.9026  -27.5860   19.4892 C   0  0  0  0  0  0
  -23.7028  -29.7571   20.1507 C   0  0  0  0  0  0
  -25.4129  -36.2989   24.0305 C   0  0  1  0  0  0
  -20.5930  -28.3740   23.1211 C   0  0  2  0  0  0
  -20.6795  -26.9433   22.5402 C   0  0  0  0  0  0
  -19.5770  -26.6382   21.5214 C   0  0  0  0  0  0
  -18.1951  -26.7938   22.1629 C   0  0  0  0  0  0
  -19.1571  -28.8895   23.2830 C   0  0  0  0  0  0
  -18.9487  -30.1486   23.8862 C   0  0  0  0  0  0
  -17.6481  -30.6597   24.0554 C   0  0  0  0  0  0
  -25.9088  -34.9364   23.5032 C   0  0  0  0  0  0
  -16.5369  -29.9087   23.6337 C   0  0  0  0  0  0
  -16.7297  -28.6504   23.0365 C   0  0  0  0  0  0
  -26.4553  -31.6532   25.0691 C   0  0  0  0  0  0
  -25.3708  -31.3765   26.1370 C   0  0  0  0  0  0
  -27.0442  -30.2905   24.6365 C   0  0  0  0  0  0
  -27.6048  -32.4334   25.7501 C   0  0  0  0  0  0
  -27.5573  -37.1775   24.8468 C   0  0  0  0  0  0
  -21.4304  -29.3043   22.3562 N   0  0  0  0  0  0
  -26.4285  -37.3716   23.9403 N   0  0  0  0  0  0
  -24.7376  -31.0056   22.0849 N   0  0  0  0  0  0
  -23.4200  -28.8045   23.3040 O   0  0  0  0  0  0
  -28.2996  -26.0018   20.2011 O   0  0  0  0  0  0
  -26.5686  -34.8887   22.4619 O   0  0  0  0  0  0
  -23.5644  -32.1237   23.6913 O   0  0  0  0  0  0
  -29.1476  -20.3524   19.2329 C   0  0  0  0  0  0
  -29.8826  -19.4045   21.5839 C   0  0  0  0  0  0
  -29.2260  -21.3841   20.2627 C   0  0  0  0  0  0
  -29.7776  -18.3526   20.5717 C   0  0  0  0  0  0
  -28.1275  -16.5024   20.6261 C   0  0  0  0  0  0
  -29.7496  -16.5565   22.4665 C   0  0  0  0  0  0
  -29.2155  -23.0865   20.0250 C   0  0  0  0  0  0
  -28.1063  -24.4046   20.3412 C   0  0  0  0  0  0
  -29.6196  -16.6608   20.9263 C   0  0  0  0  0  0
  -29.6444  -20.7940   21.4466 N   0  0  0  0  0  0
  -29.3813  -18.9546   19.3750 N   0  0  0  0  0  0
  -31.4776  -12.9836   19.1621 H   0  0  0  0  0  0
  -30.5607  -11.8237   20.0623 H   0  0  0  0  0  0
  -29.9041  -11.7844   17.6323 H   0  0  0  0  0  0
  -29.5562  -13.4952   17.6836 H   0  0  0  0  0  0
  -28.0281  -11.2587   19.0410 H   0  0  0  0  0  0
  -27.4083  -12.3724   17.8487 H   0  0  0  0  0  0
  -27.5707  -14.2134   19.3724 H   0  0  0  0  0  0
  -28.8634  -12.2851   21.3655 H   0  0  0  0  0  0
  -28.3633  -13.8509   21.8461 H   0  0  0  0  0  0
  -25.2734   -9.5622   22.4822 H   0  0  0  0  0  0
  -23.9954   -7.4591   22.7503 H   0  0  0  0  0  0
  -21.0842   -8.8759   19.8958 H   0  0  0  0  0  0
  -22.3713  -10.9645   19.6187 H   0  0  0  0  0  0
  -21.2030   -7.6147   23.9722 H   0  0  0  0  0  0
  -21.1465   -6.0508   25.9074 H   0  0  0  0  0  0
  -22.0608   -2.7606   23.2839 H   0  0  0  0  0  0
  -22.3953  -11.9813   22.4860 H   0  0  0  0  0  0
  -21.0986  -13.1218   22.2661 H   0  0  0  0  0  0
  -24.5511  -15.7951   20.4584 H   0  0  0  0  0  0
  -26.1820  -15.6533   20.0419 H   0  0  0  0  0  0
  -26.7336  -32.5202   23.0922 H   0  0  0  0  0  0
  -25.0080  -33.9519   25.0245 H   0  0  0  0  0  0
  -22.7765  -31.2724   21.3554 H   0  0  0  0  0  0
  -23.3761  -35.9552   23.3288 H   0  0  0  0  0  0
  -24.3567  -36.8881   22.2063 H   0  0  0  0  0  0
  -23.7248  -37.6408   23.6700 H   0  0  0  0  0  0
  -26.1980  -31.4148   20.6143 H   0  0  0  0  0  0
  -26.8924  -30.7249   22.0435 H   0  0  0  0  0  0
  -28.1618  -28.7053   21.2372 H   0  0  0  0  0  0
  -25.9189  -25.7675   19.0242 H   0  0  0  0  0  0
  -24.0038  -27.2543   18.9875 H   0  0  0  0  0  0
  -23.8508  -30.5227   19.3891 H   0  0  0  0  0  0
  -22.8155  -29.2038   19.8371 H   0  0  0  0  0  0
  -25.1329  -36.1796   25.0799 H   0  0  0  0  0  0
  -21.0023  -28.3345   24.1334 H   0  0  0  0  0  0
  -20.5694  -26.2358   23.3630 H   0  0  0  0  0  0
  -21.6659  -26.7438   22.1200 H   0  0  0  0  0  0
  -19.6932  -25.6284   21.1269 H   0  0  0  0  0  0
  -19.6703  -27.3168   20.6723 H   0  0  0  0  0  0
  -17.4219  -26.6672   21.4032 H   0  0  0  0  0  0
  -18.0360  -26.0087   22.9038 H   0  0  0  0  0  0
  -19.7960  -30.7311   24.2215 H   0  0  0  0  0  0
  -17.5032  -31.6276   24.5168 H   0  0  0  0  0  0
  -15.5369  -30.2984   23.7678 H   0  0  0  0  0  0
  -15.8693  -28.0808   22.7112 H   0  0  0  0  0  0
  -24.5896  -30.7100   25.7693 H   0  0  0  0  0  0
  -24.8893  -32.2965   26.4691 H   0  0  0  0  0  0
  -25.7970  -30.9009   27.0212 H   0  0  0  0  0  0
  -26.3093  -29.6596   24.1352 H   0  0  0  0  0  0
  -27.3979  -29.7245   25.4994 H   0  0  0  0  0  0
  -27.9029  -30.4097   23.9756 H   0  0  0  0  0  0
  -27.2589  -33.3639   26.2012 H   0  0  0  0  0  0
  -28.3897  -32.6891   25.0372 H   0  0  0  0  0  0
  -28.0672  -31.8514   26.5484 H   0  0  0  0  0  0
  -28.2585  -38.0074   24.7502 H   0  0  0  0  0  0
  -28.1076  -36.2605   24.6316 H   0  0  0  0  0  0
  -27.2286  -37.1443   25.8868 H   0  0  0  0  0  0
  -20.9542  -29.8725   21.6687 H   0  0  0  0  0  0
  -26.0142  -38.2781   24.1396 H   0  0  0  0  0  0
  -28.9155  -20.6622   18.2242 H   0  0  0  0  0  0
  -30.1039  -19.1318   22.6039 H   0  0  0  0  0  0
  -27.7017  -15.6439   21.1153 H   0  0  0  0  0  0
  -27.9394  -16.4620   19.5530 H   0  0  0  0  0  0
  -27.5535  -17.3408   21.0233 H   0  0  0  0  0  0
  -29.0085  -17.1720   22.9780 H   0  0  0  0  0  0
  -30.7378  -16.8661   22.8074 H   0  0  0  0  0  0
  -29.5930  -15.5415   22.8320 H   0  0  0  0  0  0
  -29.4272  -23.1758   18.9585 H   0  0  0  0  0  0
  -30.1480  -23.3993   20.4946 H   0  0  0  0  0  0
  -27.8187  -24.2837   21.3866 H   0  0  0  0  0  0
  -27.2036  -24.1575   19.7862 H   0  0  0  0  0  0
  1 25  1  0  0  0
  1 30  2  0  0  0
  1 79  1  0  0  0
  2  3  1  0  0  0
  2 25  1  0  0  0
  2 82  1  0  0  0
  2 83  1  0  0  0
  3  4  1  0  0  0
  3 84  1  0  0  0
  3 85  1  0  0  0
  4  5  1  0  0  0
  4 86  1  0  0  0
  4 87  1  0  0  0
  5  6  1  0  0  0
  5 26  1  0  0  0
  5 88  1  0  0  0
  6 25  1  0  0  0
  6 89  1  0  0  0
  6 90  1  0  0  0
  7  8  2  0  0  0
  7 26  1  0  0  0
  7 29  1  0  0  0
  8  9  1  0  0  0
  8 22  1  0  0  0
  9 10  1  0  0  0
  9 27  2  0  0  0
 10 11  2  0  0  0
 10 15  1  0  0  0
 11 12  1  0  0  0
 11 91  1  0  0  0
 12 13  2  0  0  0
 12 92  1  0  0  0
 13 14  1  0  0  0
 13 31  1  0  0  0
 14 15  2  0  0  0
 14 93  1  0  0  0
 15 94  1  0  0  0
 16 17  2  0  0  0
 16 21  1  0  0  0
 16 31  1  0  0  0
 17 18  1  0  0  0
 17 95  1  0  0  0
 18 19  2  0  0  0
 18 96  1  0  0  0
 19 20  1  0  0  0
 19 24  1  0  0  0
 20 21  2  0  0  0
 20 97  1  0  0  0
 21 23  1  0  0  0
 22 28  1  0  0  0
 22 32  2  0  0  0
 26 27  1  0  0  0
 28 98  1  0  0  0
 28 99  1  0  0  0
 29100  1  0  0  0
 29101  1  0  0  0
 33 34  1  0  0  0
 33 66  1  0  0  0
 33 70  2  0  0  0
 34 36  1  0  0  0
 34 59  1  0  0  0
 34102  1  0  0  0
 35 44  2  0  0  0
 35 45  1  0  0  0
 35 68  1  0  0  0
 36 56  1  0  0  0
 36103  1  0  0  0
 37 39  1  0  0  0
 37 47  1  0  0  0
 37 66  1  0  0  0
 37104  1  0  0  0
 38 43  2  0  0  0
 38 46  1  0  0  0
 38 47  1  0  0  0
 39 64  1  0  0  0
 39 67  2  0  0  0
 40 52  1  0  0  0
 40 53  2  0  0  0
 40 58  1  0  0  0
 41105  1  0  0  0
 41106  1  0  0  0
 41107  1  0  0  0
 41 48  1  0  0  0
 42 43  1  0  0  0
 42 66  1  0  0  0
 42108  1  0  0  0
 42109  1  0  0  0
 43 44  1  0  0  0
 44110  1  0  0  0
 45 46  2  0  0  0
 45111  1  0  0  0
 46112  1  0  0  0
 47113  1  0  0  0
 47114  1  0  0  0
 48 56  1  0  0  0
 48 65  1  0  0  0
 48115  1  0  0  0
 49 50  1  0  0  0
 49 53  1  0  0  0
 49 64  1  0  0  0
 49116  1  0  0  0
 50 51  1  0  0  0
 50117  1  0  0  0
 50118  1  0  0  0
 51 52  1  0  0  0
 51119  1  0  0  0
 51120  1  0  0  0
 52121  1  0  0  0
 52122  1  0  0  0
 53 54  1  0  0  0
 54 55  2  0  0  0
 54123  1  0  0  0
 55 57  1  0  0  0
 55124  1  0  0  0
 56 69  2  0  0  0
 57 58  2  0  0  0
 57125  1  0  0  0
 58126  1  0  0  0
 59 60  1  0  0  0
 59 61  1  0  0  0
 59 62  1  0  0  0
 60127  1  0  0  0
 60128  1  0  0  0
 60129  1  0  0  0
 61130  1  0  0  0
 61131  1  0  0  0
 61132  1  0  0  0
 62133  1  0  0  0
 62134  1  0  0  0
 62135  1  0  0  0
 63 65  1  0  0  0
 63136  1  0  0  0
 63137  1  0  0  0
 63138  1  0  0  0
 64139  1  0  0  0
 65140  1  0  0  0
 68 78  1  0  0  0
 71 73  2  0  0  0
 71 81  1  0  0  0
 71141  1  0  0  0
 72 74  1  0  0  0
 72 80  2  0  0  0
 72142  1  0  0  0
 73 77  1  0  0  0
 73 80  1  0  0  0
 74 79  1  0  0  0
 74 81  2  0  0  0
 75143  1  0  0  0
 75144  1  0  0  0
 75145  1  0  0  0
 75 79  1  0  0  0
 76 79  1  0  0  0
 76146  1  0  0  0
 76147  1  0  0  0
 76148  1  0  0  0
 77 78  1  0  0  0
 77149  1  0  0  0
 77150  1  0  0  0
 78151  1  0  0  0
 78152  1  0  0  0
M  ISO  4   1 100  68 101  78 101  79 100
M  END
> <chiral flag>
0

> <version>
0

> <s_m_source_file>
/data/baiqing/PycharmProjects/Reinvent-master-3.2/result/LINK_invent/BTK/process_docking_weight1_custom_sum_contain_oxygen_bond_distance_aromatic_linkinvent_7_9_3/rearranged_h_0050.sdf

> <i_m_source_file_index>
58

> <r_mmod_Potential_Energy-OPLS-2005>
1161.36828613281

> <r_mmod_Stretch_Energy-OPLS-2005>
457.620941162109

> <r_mmod_Bend_Energy-OPLS-2005>
428.877166748047

> <r_mmod_Torsional_Energy-OPLS-2005>
202.346618652344

> <r_mmod_Improper_Torsional_Energy-OPLS-2005>
7.40851593017578

> <r_mmod_Van_der_Waal_Energy-OPLS-2005>
154.230682373047

> <r_mmod_Electrostatic_Energy-OPLS-2005>
-219.982467651367

> <r_mmod_Solvation_Energy-OPLS-2005>
-208.915374755859

> <b_mmod_Minimization_Converged-OPLS-2005>
0

> <r_mmod_RMS_Derivative-OPLS-2005>
2.16500401496887

$$$$
62
                    3D
 Structure written by MMmdl.
163171  0  0  1  0            999 V2000
  -30.6259  -14.7951   20.3791 C   0  0  0  0  0  0
  -30.4377  -12.4723   19.4697 C   0  0  0  0  0  0
  -29.5086  -12.4341   18.2368 C   0  0  0  0  0  0
  -28.0345  -12.2686   18.6631 C   0  0  0  0  0  0
  -27.6250  -13.1945   19.8383 C   0  0  2  0  0  0
  -28.6876  -13.2303   20.9598 C   0  0  0  0  0  0
  -25.2514  -13.8071   20.5771 C   0  0  0  0  0  0
  -24.1762  -13.0376   20.9251 C   0  0  0  0  0  0
  -24.6313  -11.6841   20.8804 C   0  0  0  0  0  0
  -23.8990  -10.4251   21.0447 C   0  0  0  0  0  0
  -24.3567   -9.4171   21.9209 C   0  0  0  0  0  0
  -23.6260   -8.2202   22.0759 C   0  0  0  0  0  0
  -22.4248   -8.0247   21.3540 C   0  0  0  0  0  0
  -21.9868   -9.0217   20.4647 C   0  0  0  0  0  0
  -22.7179  -10.2104   20.3075 C   0  0  0  0  0  0
  -21.6835   -6.0718   22.5279 C   0  0  0  0  0  0
  -21.3999   -6.5629   23.8210 C   0  0  0  0  0  0
  -21.3655   -5.6788   24.9176 C   0  0  0  0  0  0
  -21.6048   -4.3051   24.7229 C   0  0  0  0  0  0
  -21.8821   -3.8137   23.4352 C   0  0  0  0  0  0
  -21.9186   -4.6950   22.3406 C   0  0  0  0  0  0
  -22.7798  -13.5211   21.1880 C   0  0  0  0  0  0
  -22.1661   -4.2138   21.0983 F   0  0  0  0  0  0
  -21.5630   -3.4538   25.7743 F   0  0  0  0  0  0
  -29.9754  -13.5753   20.3409 N   0  0  0  0  0  0
  -26.2873  -12.9173   20.3353 N   0  0  0  0  0  0
  -25.9230  -11.6370   20.5841 N   0  0  0  0  0  0
  -22.0419  -12.8230   22.0437 N   0  0  0  0  0  0
  -25.4271  -15.1796   20.4212 N   0  0  0  0  0  0
  -31.8538  -14.8257   20.2598 O   0  0  0  0  0  0
  -21.6615   -6.8851   21.4237 O   0  0  0  0  0  0
  -22.3514  -14.5520   20.6709 O   0  0  0  0  0  0
  -24.6299  -31.8560   23.1999 C   0  0  0  0  0  0
  -25.9130  -32.4755   23.8339 C   0  0  1  0  0  0
  -27.2241  -27.2722   20.1271 C   0  0  0  0  0  0
  -25.5932  -33.8559   24.2260 N   0  0  0  0  0  0
  -23.4263  -30.4798   21.5425 C   0  0  2  0  0  0
  -24.8746  -28.9309   20.1081 C   0  0  0  0  0  0
  -22.7496  -29.4605   22.4907 C   0  0  0  0  0  0
  -18.0289  -28.1385   22.8483 C   0  0  0  0  0  0
  -24.1490  -36.7288   23.2640 C   0  0  0  0  0  0
  -25.9718  -30.7704   21.3814 C   0  0  0  0  0  0
  -26.0442  -29.3947   20.7231 C   0  0  0  0  0  0
  -27.2180  -28.5761   20.7263 C   0  0  0  0  0  0
  -26.0356  -26.8868   19.4616 C   0  0  0  0  0  0
  -24.8754  -27.6839   19.4671 C   0  0  0  0  0  0
  -23.6449  -29.8165   20.1572 C   0  0  0  0  0  0
  -25.4116  -36.3071   24.0326 C   0  0  1  0  0  0
  -20.5892  -28.3701   23.1263 C   0  0  2  0  0  0
  -20.6778  -26.9419   22.5407 C   0  0  0  0  0  0
  -19.5755  -26.6381   21.5209 C   0  0  0  0  0  0
  -18.1933  -26.7926   22.1621 C   0  0  0  0  0  0
  -19.1542  -28.8859   23.2869 C   0  0  0  0  0  0
  -18.9467  -30.1457   23.8894 C   0  0  0  0  0  0
  -17.6468  -30.6588   24.0563 C   0  0  0  0  0  0
  -25.9057  -34.9438   23.5097 C   0  0  0  0  0  0
  -16.5357  -29.9090   23.6326 C   0  0  0  0  0  0
  -16.7277  -28.6504   23.0351 C   0  0  0  0  0  0
  -26.4499  -31.6575   25.0726 C   0  0  0  0  0  0
  -25.3719  -31.3730   26.1446 C   0  0  0  0  0  0
  -27.0345  -30.2985   24.6219 C   0  0  0  0  0  0
  -27.6050  -32.4320   25.7499 C   0  0  0  0  0  0
  -27.5580  -37.1802   24.8466 C   0  0  0  0  0  0
  -21.4204  -29.3051   22.3655 N   0  0  0  0  0  0
  -26.4292  -37.3769   23.9408 N   0  0  0  0  0  0
  -24.6947  -31.0532   22.0973 N   0  0  0  0  0  0
  -23.4200  -28.8139   23.2996 O   0  0  0  0  0  0
  -28.3247  -26.3856   20.2171 O   0  0  0  0  0  0
  -26.5634  -34.8913   22.4668 O   0  0  0  0  0  0
  -23.5452  -32.1385   23.7294 O   0  0  0  0  0  0
  -27.4793  -20.6894   22.0257 C   0  0  0  0  0  0
  -26.7809  -21.7550   22.6335 C   0  0  0  0  0  0
  -28.5151  -21.1594   21.2641 C   0  0  0  0  0  0
  -27.3808  -22.9072   22.2165 C   0  0  0  0  0  0
  -25.6190  -21.6065   23.5844 C   0  0  0  0  0  0
  -27.0718  -24.3015   22.6922 C   0  0  0  0  0  0
  -29.0379  -16.1358   19.0901 C   0  0  0  0  0  0
  -29.5692  -20.1728   20.6449 C   0  0  0  0  0  0
  -29.3107  -18.5788   20.8807 C   0  0  0  0  0  0
  -29.0672  -23.7375   20.5211 C   0  0  0  0  0  0
  -30.3964  -17.4079   20.5829 C   0  0  0  0  0  0
  -28.1562  -24.9276   19.8899 C   0  0  0  0  0  0
  -28.3579  -22.6081   21.2506 N   0  0  0  0  0  0
  -29.8900  -15.9899   20.2829 N   0  0  0  0  0  0
  -31.4731  -12.6073   19.1524 H   0  0  0  0  0  0
  -30.4098  -11.5246   20.0093 H   0  0  0  0  0  0
  -29.7946  -11.6070   17.5856 H   0  0  0  0  0  0
  -29.6353  -13.3327   17.6351 H   0  0  0  0  0  0
  -27.9015  -11.2276   18.9595 H   0  0  0  0  0  0
  -27.3734  -12.4250   17.8101 H   0  0  0  0  0  0
  -27.5471  -14.1734   19.3960 H   0  0  0  0  0  0
  -28.7514  -12.2687   21.4708 H   0  0  0  0  0  0
  -28.4189  -13.9698   21.7158 H   0  0  0  0  0  0
  -25.2711   -9.5650   22.4783 H   0  0  0  0  0  0
  -23.9971   -7.4586   22.7472 H   0  0  0  0  0  0
  -21.0801   -8.8729   19.8950 H   0  0  0  0  0  0
  -22.3641  -10.9647   19.6191 H   0  0  0  0  0  0
  -21.1990   -7.6137   23.9709 H   0  0  0  0  0  0
  -21.1478   -6.0521   25.9078 H   0  0  0  0  0  0
  -22.0607   -2.7600   23.2856 H   0  0  0  0  0  0
  -22.4013  -11.9893   22.4845 H   0  0  0  0  0  0
  -21.1037  -13.1276   22.2622 H   0  0  0  0  0  0
  -24.6703  -15.8421   20.5502 H   0  0  0  0  0  0
  -26.2978  -15.6191   20.1537 H   0  0  0  0  0  0
  -26.7197  -32.5405   23.1082 H   0  0  0  0  0  0
  -25.0060  -33.9692   25.0392 H   0  0  0  0  0  0
  -22.7227  -31.3021   21.3974 H   0  0  0  0  0  0
  -23.3748  -35.9625   23.3300 H   0  0  0  0  0  0
  -24.3583  -36.8917   22.2056 H   0  0  0  0  0  0
  -23.7247  -37.6491   23.6669 H   0  0  0  0  0  0
  -26.1122  -31.5309   20.6120 H   0  0  0  0  0  0
  -26.8488  -30.8173   22.0155 H   0  0  0  0  0  0
  -28.1091  -28.9235   21.2302 H   0  0  0  0  0  0
  -25.9644  -25.9485   18.9338 H   0  0  0  0  0  0
  -23.9837  -27.3277   18.9694 H   0  0  0  0  0  0
  -23.7714  -30.5949   19.4037 H   0  0  0  0  0  0
  -22.7631  -29.2516   19.8496 H   0  0  0  0  0  0
  -25.1295  -36.1922   25.0819 H   0  0  0  0  0  0
  -20.9984  -28.3283   24.1384 H   0  0  0  0  0  0
  -20.5666  -26.2317   23.3616 H   0  0  0  0  0  0
  -21.6647  -26.7437   22.1208 H   0  0  0  0  0  0
  -19.6920  -25.6287   21.1250 H   0  0  0  0  0  0
  -19.6689  -27.3181   20.6728 H   0  0  0  0  0  0
  -17.4201  -26.6666   21.4026 H   0  0  0  0  0  0
  -18.0344  -26.0068   22.9019 H   0  0  0  0  0  0
  -19.7944  -30.7269   24.2268 H   0  0  0  0  0  0
  -17.5024  -31.6267   24.5166 H   0  0  0  0  0  0
  -15.5359  -30.2997   23.7646 H   0  0  0  0  0  0
  -15.8675  -28.0824   22.7072 H   0  0  0  0  0  0
  -24.5892  -30.7084   25.7772 H   0  0  0  0  0  0
  -24.8914  -32.2902   26.4859 H   0  0  0  0  0  0
  -25.8030  -30.8911   27.0230 H   0  0  0  0  0  0
  -26.2933  -29.6731   24.1232 H   0  0  0  0  0  0
  -27.4008  -29.7250   25.4744 H   0  0  0  0  0  0
  -27.8818  -30.4247   23.9476 H   0  0  0  0  0  0
  -27.2654  -33.3624   26.2060 H   0  0  0  0  0  0
  -28.3867  -32.6875   25.0333 H   0  0  0  0  0  0
  -28.0713  -31.8459   26.5430 H   0  0  0  0  0  0
  -28.2594  -38.0100   24.7508 H   0  0  0  0  0  0
  -28.1078  -36.2632   24.6294 H   0  0  0  0  0  0
  -27.2302  -37.1456   25.8870 H   0  0  0  0  0  0
  -20.9386  -29.8798   21.6884 H   0  0  0  0  0  0
  -26.0171  -38.2845   24.1399 H   0  0  0  0  0  0
  -27.2545  -19.6462   22.1960 H   0  0  0  0  0  0
  -24.6884  -21.5058   23.0260 H   0  0  0  0  0  0
  -25.5240  -22.4619   24.2524 H   0  0  0  0  0  0
  -25.7430  -20.7147   24.1997 H   0  0  0  0  0  0
  -26.7892  -24.2991   23.7446 H   0  0  0  0  0  0
  -26.2400  -24.7381   22.1391 H   0  0  0  0  0  0
  -27.9304  -24.9679   22.6179 H   0  0  0  0  0  0
  -29.3139  -16.9954   18.4777 H   0  0  0  0  0  0
  -27.9989  -16.2843   19.3800 H   0  0  0  0  0  0
  -29.0970  -15.2947   18.4042 H   0  0  0  0  0  0
  -30.5486  -20.4222   21.0541 H   0  0  0  0  0  0
  -29.6465  -20.3600   19.5737 H   0  0  0  0  0  0
  -28.3857  -18.3506   20.3535 H   0  0  0  0  0  0
  -29.0669  -18.4450   21.9344 H   0  0  0  0  0  0
  -29.7911  -24.1722   21.2101 H   0  0  0  0  0  0
  -29.6622  -23.2897   19.7251 H   0  0  0  0  0  0
  -31.0809  -17.3498   21.4309 H   0  0  0  0  0  0
  -31.0253  -17.7208   19.7472 H   0  0  0  0  0  0
  -27.1263  -24.6246   20.0570 H   0  0  0  0  0  0
  -28.2701  -24.8648   18.8075 H   0  0  0  0  0  0
  1 25  1  0  0  0
  1 30  2  0  0  0
  1 84  1  0  0  0
  2  3  1  0  0  0
  2 25  1  0  0  0
  2 85  1  0  0  0
  2 86  1  0  0  0
  3  4  1  0  0  0
  3 87  1  0  0  0
  3 88  1  0  0  0
  4  5  1  0  0  0
  4 89  1  0  0  0
  4 90  1  0  0  0
  5  6  1  0  0  0
  5 26  1  0  0  0
  5 91  1  0  0  0
  6 25  1  0  0  0
  6 92  1  0  0  0
  6 93  1  0  0  0
  7  8  2  0  0  0
  7 26  1  0  0  0
  7 29  1  0  0  0
  8  9  1  0  0  0
  8 22  1  0  0  0
  9 10  1  0  0  0
  9 27  2  0  0  0
 10 11  2  0  0  0
 10 15  1  0  0  0
 11 12  1  0  0  0
 11 94  1  0  0  0
 12 13  2  0  0  0
 12 95  1  0  0  0
 13 14  1  0  0  0
 13 31  1  0  0  0
 14 15  2  0  0  0
 14 96  1  0  0  0
 15 97  1  0  0  0
 16 17  2  0  0  0
 16 21  1  0  0  0
 16 31  1  0  0  0
 17 18  1  0  0  0
 17 98  1  0  0  0
 18 19  2  0  0  0
 18 99  1  0  0  0
 19 20  1  0  0  0
 19 24  1  0  0  0
 20 21  2  0  0  0
 20100  1  0  0  0
 21 23  1  0  0  0
 22 28  1  0  0  0
 22 32  2  0  0  0
 26 27  1  0  0  0
 28101  1  0  0  0
 28102  1  0  0  0
 29103  1  0  0  0
 29104  1  0  0  0
 33 34  1  0  0  0
 33 66  1  0  0  0
 33 70  2  0  0  0
 34 36  1  0  0  0
 34 59  1  0  0  0
 34105  1  0  0  0
 35 44  2  0  0  0
 35 45  1  0  0  0
 35 68  1  0  0  0
 36 56  1  0  0  0
 36106  1  0  0  0
 37 39  1  0  0  0
 37 47  1  0  0  0
 37 66  1  0  0  0
 37107  1  0  0  0
 38 43  2  0  0  0
 38 46  1  0  0  0
 38 47  1  0  0  0
 39 64  1  0  0  0
 39 67  2  0  0  0
 40 52  1  0  0  0
 40 53  2  0  0  0
 40 58  1  0  0  0
 41108  1  0  0  0
 41109  1  0  0  0
 41110  1  0  0  0
 41 48  1  0  0  0
 42 43  1  0  0  0
 42 66  1  0  0  0
 42111  1  0  0  0
 42112  1  0  0  0
 43 44  1  0  0  0
 44113  1  0  0  0
 45 46  2  0  0  0
 45114  1  0  0  0
 46115  1  0  0  0
 47116  1  0  0  0
 47117  1  0  0  0
 48 56  1  0  0  0
 48 65  1  0  0  0
 48118  1  0  0  0
 49 50  1  0  0  0
 49 53  1  0  0  0
 49 64  1  0  0  0
 49119  1  0  0  0
 50 51  1  0  0  0
 50120  1  0  0  0
 50121  1  0  0  0
 51 52  1  0  0  0
 51122  1  0  0  0
 51123  1  0  0  0
 52124  1  0  0  0
 52125  1  0  0  0
 53 54  1  0  0  0
 54 55  2  0  0  0
 54126  1  0  0  0
 55 57  1  0  0  0
 55127  1  0  0  0
 56 69  2  0  0  0
 57 58  2  0  0  0
 57128  1  0  0  0
 58129  1  0  0  0
 59 60  1  0  0  0
 59 61  1  0  0  0
 59 62  1  0  0  0
 60130  1  0  0  0
 60131  1  0  0  0
 60132  1  0  0  0
 61133  1  0  0  0
 61134  1  0  0  0
 61135  1  0  0  0
 62136  1  0  0  0
 62137  1  0  0  0
 62138  1  0  0  0
 63 65  1  0  0  0
 63139  1  0  0  0
 63140  1  0  0  0
 63141  1  0  0  0
 64142  1  0  0  0
 65143  1  0  0  0
 68 82  1  0  0  0
 71 72  1  0  0  0
 71 73  2  0  0  0
 71144  1  0  0  0
 72 74  2  0  0  0
 72 75  1  0  0  0
 73 78  1  0  0  0
 73 83  1  0  0  0
 74 76  1  0  0  0
 74 83  1  0  0  0
 75145  1  0  0  0
 75146  1  0  0  0
 75147  1  0  0  0
 76148  1  0  0  0
 76149  1  0  0  0
 76150  1  0  0  0
 77 84  1  0  0  0
 77151  1  0  0  0
 77152  1  0  0  0
 77153  1  0  0  0
 78 79  1  0  0  0
 78154  1  0  0  0
 78155  1  0  0  0
 79 81  1  0  0  0
 79156  1  0  0  0
 79157  1  0  0  0
 80 82  1  0  0  0
 80 83  1  0  0  0
 80158  1  0  0  0
 80159  1  0  0  0
 81 84  1  0  0  0
 81160  1  0  0  0
 81161  1  0  0  0
 82162  1  0  0  0
 82163  1  0  0  0
M  ISO  4   1 100  68 101  82 101  84 100
M  END
> <chiral flag>
0

> <version>
0

> <s_m_source_file>
/data/baiqing/PycharmProjects/Reinvent-master-3.2/result/LINK_invent/BTK/process_docking_weight1_custom_sum_contain_oxygen_bond_distance_aromatic_linkinvent_7_9_3/rearranged_h_0050.sdf

> <i_m_source_file_index>
59

> <r_mmod_Potential_Energy-OPLS-2005>
397.32470703125

> <r_mmod_Stretch_Energy-OPLS-2005>
137.916091918945

> <r_mmod_Bend_Energy-OPLS-2005>
203.608306884766

> <r_mmod_Torsional_Energy-OPLS-2005>
316.599273681641

> <r_mmod_Improper_Torsional_Energy-OPLS-2005>
9.98628807067871

> <r_mmod_Van_der_Waal_Energy-OPLS-2005>
138.233062744141

> <r_mmod_Electrostatic_Energy-OPLS-2005>
-315.052459716797

> <r_mmod_Solvation_Energy-OPLS-2005>
-200.666305541992

> <b_mmod_Minimization_Converged-OPLS-2005>
0

> <r_mmod_RMS_Derivative-OPLS-2005>
0.639449179172516

$$$$
63
                    3D
 Structure written by MMmdl.
171179  0  0  1  0            999 V2000
  -30.6464  -14.5458   20.6563 C   0  0  0  0  0  0
  -30.4506  -12.3979   19.4105 C   0  0  0  0  0  0
  -29.5002  -12.5714   18.2009 C   0  0  0  0  0  0
  -28.0132  -12.4130   18.5940 C   0  0  0  0  0  0
  -27.6623  -13.1930   19.8864 C   0  0  2  0  0  0
  -28.7051  -12.8407   20.9615 C   0  0  0  0  0  0
  -25.2590  -13.8133   20.5670 C   0  0  0  0  0  0
  -24.1832  -13.0432   20.9185 C   0  0  0  0  0  0
  -24.6374  -11.6880   20.8730 C   0  0  0  0  0  0
  -23.9048  -10.4277   21.0400 C   0  0  0  0  0  0
  -24.3609   -9.4188   21.9186 C   0  0  0  0  0  0
  -23.6274   -8.2228   22.0773 C   0  0  0  0  0  0
  -22.4252   -8.0289   21.3552 C   0  0  0  0  0  0
  -21.9874   -9.0266   20.4647 C   0  0  0  0  0  0
  -22.7219  -10.2136   20.3042 C   0  0  0  0  0  0
  -21.6852   -6.0713   22.5273 C   0  0  0  0  0  0
  -21.4010   -6.5609   23.8210 C   0  0  0  0  0  0
  -21.3663   -5.6766   24.9175 C   0  0  0  0  0  0
  -21.6062   -4.3037   24.7221 C   0  0  0  0  0  0
  -21.8835   -3.8125   23.4344 C   0  0  0  0  0  0
  -21.9192   -4.6936   22.3393 C   0  0  0  0  0  0
  -22.7853  -13.5241   21.1832 C   0  0  0  0  0  0
  -22.1670   -4.2120   21.0977 F   0  0  0  0  0  0
  -21.5614   -3.4525   25.7736 F   0  0  0  0  0  0
  -30.0142  -13.3290   20.4780 N   0  0  0  0  0  0
  -26.3013  -12.9270   20.3393 N   0  0  0  0  0  0
  -25.9287  -11.6427   20.5742 N   0  0  0  0  0  0
  -22.0502  -12.8232   22.0384 N   0  0  0  0  0  0
  -25.4321  -15.1868   20.4052 N   0  0  0  0  0  0
  -31.7466  -14.7333   20.1190 O   0  0  0  0  0  0
  -21.6636   -6.8877   21.4242 O   0  0  0  0  0  0
  -22.3520  -14.5527   20.6641 O   0  0  0  0  0  0
  -24.6186  -31.8636   23.2051 C   0  0  0  0  0  0
  -25.9054  -32.4808   23.8382 C   0  0  1  0  0  0
  -27.2377  -27.3983   20.1031 C   0  0  0  0  0  0
  -25.5894  -33.8607   24.2303 N   0  0  0  0  0  0
  -23.4110  -30.4844   21.5468 C   0  0  2  0  0  0
  -24.8593  -28.9427   20.1157 C   0  0  0  0  0  0
  -22.7451  -29.4620   22.4964 C   0  0  0  0  0  0
  -18.0283  -28.1372   22.8495 C   0  0  0  0  0  0
  -24.1484  -36.7311   23.2638 C   0  0  0  0  0  0
  -25.9430  -30.8189   21.3634 C   0  0  0  0  0  0
  -26.0219  -29.4488   20.7120 C   0  0  0  0  0  0
  -27.2172  -28.6857   20.6974 C   0  0  0  0  0  0
  -26.0574  -26.9151   19.5006 C   0  0  0  0  0  0
  -24.8734  -27.6774   19.5052 C   0  0  0  0  0  0
  -23.6229  -29.8145   20.1628 C   0  0  0  0  0  0
  -25.4102  -36.3097   24.0335 C   0  0  1  0  0  0
  -20.5883  -28.3647   23.1313 C   0  0  2  0  0  0
  -20.6774  -26.9377   22.5419 C   0  0  0  0  0  0
  -19.5746  -26.6366   21.5219 C   0  0  0  0  0  0
  -18.1924  -26.7918   22.1631 C   0  0  0  0  0  0
  -19.1543  -28.8828   23.2903 C   0  0  0  0  0  0
  -18.9459  -30.1439   23.8904 C   0  0  0  0  0  0
  -17.6462  -30.6577   24.0562 C   0  0  0  0  0  0
  -25.9033  -34.9468   23.5116 C   0  0  0  0  0  0
  -16.5351  -29.9075   23.6336 C   0  0  0  0  0  0
  -16.7276  -28.6497   23.0349 C   0  0  0  0  0  0
  -26.4469  -31.6603   25.0725 C   0  0  0  0  0  0
  -25.3720  -31.3715   26.1468 C   0  0  0  0  0  0
  -27.0301  -30.3050   24.6095 C   0  0  0  0  0  0
  -27.6053  -32.4314   25.7483 C   0  0  0  0  0  0
  -27.5576  -37.1800   24.8456 C   0  0  0  0  0  0
  -21.4175  -29.3011   22.3723 N   0  0  0  0  0  0
  -26.4284  -37.3784   23.9413 N   0  0  0  0  0  0
  -24.6761  -31.0710   22.0972 N   0  0  0  0  0  0
  -23.4204  -28.8160   23.3015 O   0  0  0  0  0  0
  -28.3847  -26.6206   20.0919 O   0  0  0  0  0  0
  -26.5609  -34.8921   22.4684 O   0  0  0  0  0  0
  -23.5368  -32.1397   23.7423 O   0  0  0  0  0  0
  -29.5158  -20.2150   20.7245 C   0  0  0  0  0  0
  -28.9882  -21.4293   20.1682 C   0  0  0  0  0  0
  -29.2855  -19.2225   19.7926 C   0  0  0  0  0  0
  -27.8151  -17.6629   22.8925 C   0  0  0  0  0  0
  -27.7333  -15.7508   24.4468 C   0  0  0  0  0  0
  -29.8420  -17.0102   24.2940 C   0  0  0  0  0  0
  -28.3113  -19.3756   17.4177 C   0  0  0  0  0  0
  -28.7233  -22.7741   20.8588 C   0  0  0  0  0  0
  -29.4102  -17.6915   19.8217 C   0  0  0  0  0  0
  -28.8068  -24.0859   20.0050 C   0  0  0  0  0  0
  -30.3368  -17.0325   20.8848 C   0  0  0  0  0  0
  -29.0394  -15.4269   22.3749 C   0  0  0  0  0  0
  -28.2909  -25.3457   20.7781 C   0  0  0  0  0  0
  -28.6537  -16.4959   23.4538 C   0  0  0  0  0  0
  -28.5392  -21.2131   18.9424 N   0  0  0  0  0  0
  -28.7335  -19.8913   18.7066 N   0  0  0  0  0  0
  -29.9733  -15.6184   21.2305 N   0  0  0  0  0  0
  -31.4823  -12.5658   19.0969 H   0  0  0  0  0  0
  -30.4397  -11.3664   19.7661 H   0  0  0  0  0  0
  -29.7582  -11.8632   17.4125 H   0  0  0  0  0  0
  -29.6438  -13.5634   17.7703 H   0  0  0  0  0  0
  -27.8098  -11.3508   18.7385 H   0  0  0  0  0  0
  -27.3709  -12.7362   17.7740 H   0  0  0  0  0  0
  -27.7363  -14.2584   19.6657 H   0  0  0  0  0  0
  -28.7357  -11.7539   21.0585 H   0  0  0  0  0  0
  -28.4050  -13.1039   21.9661 H   0  0  0  0  0  0
  -25.2757   -9.5658   22.4748 H   0  0  0  0  0  0
  -23.9992   -7.4617   22.7488 H   0  0  0  0  0  0
  -21.0805   -8.8780   19.8950 H   0  0  0  0  0  0
  -22.3702  -10.9669   19.6140 H   0  0  0  0  0  0
  -21.2010   -7.6126   23.9682 H   0  0  0  0  0  0
  -21.1481   -6.0518   25.9080 H   0  0  0  0  0  0
  -22.0615   -2.7583   23.2861 H   0  0  0  0  0  0
  -22.4097  -11.9876   22.4762 H   0  0  0  0  0  0
  -21.1099  -13.1208   22.2540 H   0  0  0  0  0  0
  -24.6759  -15.8457   20.5530 H   0  0  0  0  0  0
  -26.2821  -15.6280   20.0771 H   0  0  0  0  0  0
  -26.7130  -32.5506   23.1156 H   0  0  0  0  0  0
  -25.0040  -33.9773   25.0446 H   0  0  0  0  0  0
  -22.6996  -31.3010   21.4031 H   0  0  0  0  0  0
  -23.3742  -35.9646   23.3297 H   0  0  0  0  0  0
  -24.3582  -36.8930   22.2050 H   0  0  0  0  0  0
  -23.7245  -37.6518   23.6661 H   0  0  0  0  0  0
  -26.0557  -31.5802   20.5902 H   0  0  0  0  0  0
  -26.8308  -30.8774   21.9808 H   0  0  0  0  0  0
  -28.1158  -29.0680   21.1606 H   0  0  0  0  0  0
  -26.0536  -25.9436   19.0278 H   0  0  0  0  0  0
  -23.9795  -27.2826   19.0421 H   0  0  0  0  0  0
  -23.7363  -30.5886   19.4024 H   0  0  0  0  0  0
  -22.7454  -29.2369   19.8657 H   0  0  0  0  0  0
  -25.1280  -36.1958   25.0829 H   0  0  0  0  0  0
  -20.9987  -28.3211   24.1433 H   0  0  0  0  0  0
  -20.5673  -26.2248   23.3608 H   0  0  0  0  0  0
  -21.6637  -26.7404   22.1210 H   0  0  0  0  0  0
  -19.6902  -25.6280   21.1238 H   0  0  0  0  0  0
  -19.6700  -27.3186   20.6758 H   0  0  0  0  0  0
  -17.4202  -26.6680   21.4030 H   0  0  0  0  0  0
  -18.0319  -26.0061   22.9023 H   0  0  0  0  0  0
  -19.7931  -30.7263   24.2272 H   0  0  0  0  0  0
  -17.5005  -31.6258   24.5150 H   0  0  0  0  0  0
  -15.5353  -30.2963   23.7645 H   0  0  0  0  0  0
  -15.8682  -28.0809   22.7048 H   0  0  0  0  0  0
  -24.5891  -30.7073   25.7800 H   0  0  0  0  0  0
  -24.8913  -32.2867   26.4925 H   0  0  0  0  0  0
  -25.8056  -30.8875   27.0223 H   0  0  0  0  0  0
  -26.2847  -29.6821   24.1140 H   0  0  0  0  0  0
  -27.4075  -29.7283   25.4546 H   0  0  0  0  0  0
  -27.8674  -30.4387   23.9245 H   0  0  0  0  0  0
  -27.2696  -33.3608   26.2090 H   0  0  0  0  0  0
  -28.3848  -32.6877   25.0300 H   0  0  0  0  0  0
  -28.0737  -31.8415   26.5367 H   0  0  0  0  0  0
  -28.2578  -38.0110   24.7531 H   0  0  0  0  0  0
  -28.1093  -36.2650   24.6254 H   0  0  0  0  0  0
  -27.2308  -37.1408   25.8861 H   0  0  0  0  0  0
  -20.9331  -29.8751   21.6956 H   0  0  0  0  0  0
  -26.0174  -38.2857   24.1435 H   0  0  0  0  0  0
  -29.9127  -20.0774   21.7196 H   0  0  0  0  0  0
  -27.2929  -18.1981   23.6864 H   0  0  0  0  0  0
  -27.0548  -17.3204   22.1885 H   0  0  0  0  0  0
  -28.4222  -18.4070   22.3929 H   0  0  0  0  0  0
  -27.3769  -16.4089   25.2397 H   0  0  0  0  0  0
  -28.2518  -14.9221   24.9301 H   0  0  0  0  0  0
  -26.8518  -15.3375   23.9534 H   0  0  0  0  0  0
  -29.4837  -17.5473   25.1737 H   0  0  0  0  0  0
  -30.4967  -17.7076   23.7799 H   0  0  0  0  0  0
  -30.4556  -16.1825   24.6505 H   0  0  0  0  0  0
  -27.2304  -19.4668   17.3199 H   0  0  0  0  0  0
  -28.5859  -18.3286   17.2990 H   0  0  0  0  0  0
  -28.7884  -19.9448   16.6211 H   0  0  0  0  0  0
  -29.4044  -22.8797   21.7044 H   0  0  0  0  0  0
  -27.7315  -22.7310   21.3070 H   0  0  0  0  0  0
  -29.7449  -17.3251   18.8514 H   0  0  0  0  0  0
  -28.4051  -17.2875   19.9448 H   0  0  0  0  0  0
  -28.2036  -23.9682   19.1045 H   0  0  0  0  0  0
  -29.8314  -24.2381   19.6687 H   0  0  0  0  0  0
  -30.3380  -17.6512   21.7649 H   0  0  0  0  0  0
  -31.3680  -17.1156   20.5423 H   0  0  0  0  0  0
  -28.0893  -15.1463   21.9225 H   0  0  0  0  0  0
  -29.4378  -14.5862   22.9450 H   0  0  0  0  0  0
  -28.8674  -25.4471   21.6981 H   0  0  0  0  0  0
  -27.2690  -25.1504   21.1076 H   0  0  0  0  0  0
  1 25  1  0  0  0
  1 30  2  0  0  0
  1 87  1  0  0  0
  2  3  1  0  0  0
  2 25  1  0  0  0
  2 88  1  0  0  0
  2 89  1  0  0  0
  3  4  1  0  0  0
  3 90  1  0  0  0
  3 91  1  0  0  0
  4  5  1  0  0  0
  4 92  1  0  0  0
  4 93  1  0  0  0
  5  6  1  0  0  0
  5 26  1  0  0  0
  5 94  1  0  0  0
  6 25  1  0  0  0
  6 95  1  0  0  0
  6 96  1  0  0  0
  7  8  2  0  0  0
  7 26  1  0  0  0
  7 29  1  0  0  0
  8  9  1  0  0  0
  8 22  1  0  0  0
  9 10  1  0  0  0
  9 27  2  0  0  0
 10 11  2  0  0  0
 10 15  1  0  0  0
 11 12  1  0  0  0
 11 97  1  0  0  0
 12 13  2  0  0  0
 12 98  1  0  0  0
 13 14  1  0  0  0
 13 31  1  0  0  0
 14 15  2  0  0  0
 14 99  1  0  0  0
 15100  1  0  0  0
 16 17  2  0  0  0
 16 21  1  0  0  0
 16 31  1  0  0  0
 17 18  1  0  0  0
 17101  1  0  0  0
 18 19  2  0  0  0
 18102  1  0  0  0
 19 20  1  0  0  0
 19 24  1  0  0  0
 20 21  2  0  0  0
 20103  1  0  0  0
 21 23  1  0  0  0
 22 28  1  0  0  0
 22 32  2  0  0  0
 26 27  1  0  0  0
 28104  1  0  0  0
 28105  1  0  0  0
 29106  1  0  0  0
 29107  1  0  0  0
 33 34  1  0  0  0
 33 66  1  0  0  0
 33 70  2  0  0  0
 34 36  1  0  0  0
 34 59  1  0  0  0
 34108  1  0  0  0
 35 44  2  0  0  0
 35 45  1  0  0  0
 35 68  1  0  0  0
 36 56  1  0  0  0
 36109  1  0  0  0
 37 39  1  0  0  0
 37 47  1  0  0  0
 37 66  1  0  0  0
 37110  1  0  0  0
 38 43  2  0  0  0
 38 46  1  0  0  0
 38 47  1  0  0  0
 39 64  1  0  0  0
 39 67  2  0  0  0
 40 52  1  0  0  0
 40 53  2  0  0  0
 40 58  1  0  0  0
 41111  1  0  0  0
 41112  1  0  0  0
 41113  1  0  0  0
 41 48  1  0  0  0
 42 43  1  0  0  0
 42 66  1  0  0  0
 42114  1  0  0  0
 42115  1  0  0  0
 43 44  1  0  0  0
 44116  1  0  0  0
 45 46  2  0  0  0
 45117  1  0  0  0
 46118  1  0  0  0
 47119  1  0  0  0
 47120  1  0  0  0
 48 56  1  0  0  0
 48 65  1  0  0  0
 48121  1  0  0  0
 49 50  1  0  0  0
 49 53  1  0  0  0
 49 64  1  0  0  0
 49122  1  0  0  0
 50 51  1  0  0  0
 50123  1  0  0  0
 50124  1  0  0  0
 51 52  1  0  0  0
 51125  1  0  0  0
 51126  1  0  0  0
 52127  1  0  0  0
 52128  1  0  0  0
 53 54  1  0  0  0
 54 55  2  0  0  0
 54129  1  0  0  0
 55 57  1  0  0  0
 55130  1  0  0  0
 56 69  2  0  0  0
 57 58  2  0  0  0
 57131  1  0  0  0
 58132  1  0  0  0
 59 60  1  0  0  0
 59 61  1  0  0  0
 59 62  1  0  0  0
 60133  1  0  0  0
 60134  1  0  0  0
 60135  1  0  0  0
 61136  1  0  0  0
 61137  1  0  0  0
 61138  1  0  0  0
 62139  1  0  0  0
 62140  1  0  0  0
 62141  1  0  0  0
 63 65  1  0  0  0
 63142  1  0  0  0
 63143  1  0  0  0
 63144  1  0  0  0
 64145  1  0  0  0
 65146  1  0  0  0
 68 83  1  0  0  0
 71 72  1  0  0  0
 71 73  2  0  0  0
 71147  1  0  0  0
 72 78  1  0  0  0
 72 85  2  0  0  0
 73 79  1  0  0  0
 73 86  1  0  0  0
 74148  1  0  0  0
 74149  1  0  0  0
 74150  1  0  0  0
 74 84  1  0  0  0
 75 84  1  0  0  0
 75151  1  0  0  0
 75152  1  0  0  0
 75153  1  0  0  0
 76 84  1  0  0  0
 76154  1  0  0  0
 76155  1  0  0  0
 76156  1  0  0  0
 77 86  1  0  0  0
 77157  1  0  0  0
 77158  1  0  0  0
 77159  1  0  0  0
 78 80  1  0  0  0
 78160  1  0  0  0
 78161  1  0  0  0
 79 81  1  0  0  0
 79162  1  0  0  0
 79163  1  0  0  0
 80 83  1  0  0  0
 80164  1  0  0  0
 80165  1  0  0  0
 81 87  1  0  0  0
 81166  1  0  0  0
 81167  1  0  0  0
 82 84  1  0  0  0
 82 87  1  0  0  0
 82168  1  0  0  0
 82169  1  0  0  0
 83170  1  0  0  0
 83171  1  0  0  0
 85 86  1  0  0  0
M  ISO  4   1 100  68 101  83 101  87 100
M  END
> <chiral flag>
0

> <version>
0

> <s_m_source_file>
/data/baiqing/PycharmProjects/Reinvent-master-3.2/result/LINK_invent/BTK/process_docking_weight1_custom_sum_contain_oxygen_bond_distance_aromatic_linkinvent_7_9_3/rearranged_h_0050.sdf

> <i_m_source_file_index>
60

> <r_mmod_Potential_Energy-OPLS-2005>
138.549194335938

> <r_mmod_Stretch_Energy-OPLS-2005>
63.0495071411133

> <r_mmod_Bend_Energy-OPLS-2005>
170.686477661133

> <r_mmod_Torsional_Energy-OPLS-2005>
308.294342041016

> <r_mmod_Improper_Torsional_Energy-OPLS-2005>
6.4253568649292

> <r_mmod_Van_der_Waal_Energy-OPLS-2005>
145.795791625977

> <r_mmod_Electrostatic_Energy-OPLS-2005>
-379.251220703125

> <r_mmod_Solvation_Energy-OPLS-2005>
-199.109497070312

> <b_mmod_Minimization_Converged-OPLS-2005>
0

> <r_mmod_RMS_Derivative-OPLS-2005>
3.31849122047424

$$$$
64
                    3D
 Structure written by MMmdl.
157165  0  0  1  0            999 V2000
  -30.6785  -14.6233   20.5484 C   0  0  0  0  0  0
  -30.4206  -12.3968   19.4622 C   0  0  0  0  0  0
  -29.5002  -12.5218   18.2282 C   0  0  0  0  0  0
  -28.0233  -12.3583   18.6330 C   0  0  0  0  0  0
  -27.6477  -13.2253   19.8616 C   0  0  2  0  0  0
  -28.6845  -13.0819   20.9922 C   0  0  0  0  0  0
  -25.2524  -13.8190   20.5704 C   0  0  0  0  0  0
  -24.1811  -13.0444   20.9204 C   0  0  0  0  0  0
  -24.6402  -11.6918   20.8760 C   0  0  0  0  0  0
  -23.9079  -10.4303   21.0427 C   0  0  0  0  0  0
  -24.3633   -9.4216   21.9203 C   0  0  0  0  0  0
  -23.6314   -8.2247   22.0753 C   0  0  0  0  0  0
  -22.4290   -8.0300   21.3541 C   0  0  0  0  0  0
  -21.9930   -9.0276   20.4639 C   0  0  0  0  0  0
  -22.7256  -10.2156   20.3064 C   0  0  0  0  0  0
  -21.6856   -6.0755   22.5286 C   0  0  0  0  0  0
  -21.4014   -6.5655   23.8224 C   0  0  0  0  0  0
  -21.3660   -5.6801   24.9183 C   0  0  0  0  0  0
  -21.6044   -4.3066   24.7223 C   0  0  0  0  0  0
  -21.8822   -3.8162   23.4345 C   0  0  0  0  0  0
  -21.9192   -4.6982   22.3405 C   0  0  0  0  0  0
  -22.7832  -13.5222   21.1880 C   0  0  0  0  0  0
  -22.1666   -4.2175   21.0980 F   0  0  0  0  0  0
  -21.5628   -3.4543   25.7731 F   0  0  0  0  0  0
  -30.0038  -13.4289   20.4403 N   0  0  0  0  0  0
  -26.2959  -12.9391   20.3317 N   0  0  0  0  0  0
  -25.9324  -11.6533   20.5753 N   0  0  0  0  0  0
  -22.0479  -12.8208   22.0430 N   0  0  0  0  0  0
  -25.4225  -15.1918   20.4152 N   0  0  0  0  0  0
  -31.8199  -14.7292   20.0896 O   0  0  0  0  0  0
  -21.6644   -6.8901   21.4248 O   0  0  0  0  0  0
  -22.3517  -14.5542   20.6751 O   0  0  0  0  0  0
  -24.6233  -31.8600   23.2043 C   0  0  0  0  0  0
  -25.9084  -32.4782   23.8365 C   0  0  1  0  0  0
  -27.2182  -27.3371   20.1225 C   0  0  0  0  0  0
  -25.5909  -33.8587   24.2280 N   0  0  0  0  0  0
  -23.4181  -30.4825   21.5471 C   0  0  2  0  0  0
  -24.8633  -28.9403   20.1091 C   0  0  0  0  0  0
  -22.7474  -29.4605   22.4962 C   0  0  0  0  0  0
  -18.0283  -28.1381   22.8489 C   0  0  0  0  0  0
  -24.1492  -36.7304   23.2642 C   0  0  0  0  0  0
  -25.9556  -30.7976   21.3715 C   0  0  0  0  0  0
  -26.0297  -29.4252   20.7161 C   0  0  0  0  0  0
  -27.2143  -28.6338   20.7125 C   0  0  0  0  0  0
  -26.0368  -26.8950   19.4944 C   0  0  0  0  0  0
  -24.8668  -27.6804   19.4874 C   0  0  0  0  0  0
  -23.6304  -29.8193   20.1608 C   0  0  0  0  0  0
  -25.4112  -36.3083   24.0325 C   0  0  1  0  0  0
  -20.5889  -28.3657   23.1305 C   0  0  2  0  0  0
  -20.6772  -26.9386   22.5425 C   0  0  0  0  0  0
  -19.5747  -26.6383   21.5224 C   0  0  0  0  0  0
  -18.1926  -26.7932   22.1633 C   0  0  0  0  0  0
  -19.1543  -28.8837   23.2886 C   0  0  0  0  0  0
  -18.9461  -30.1445   23.8881 C   0  0  0  0  0  0
  -17.6460  -30.6577   24.0561 C   0  0  0  0  0  0
  -25.9045  -34.9449   23.5101 C   0  0  0  0  0  0
  -16.5345  -29.9074   23.6342 C   0  0  0  0  0  0
  -16.7269  -28.6508   23.0336 C   0  0  0  0  0  0
  -26.4483  -31.6584   25.0721 C   0  0  0  0  0  0
  -25.3725  -31.3692   26.1452 C   0  0  0  0  0  0
  -27.0318  -30.3013   24.6150 C   0  0  0  0  0  0
  -27.6063  -32.4292   25.7478 C   0  0  0  0  0  0
  -27.5579  -37.1797   24.8460 C   0  0  0  0  0  0
  -21.4193  -29.3004   22.3699 N   0  0  0  0  0  0
  -26.4287  -37.3775   23.9407 N   0  0  0  0  0  0
  -24.6847  -31.0636   22.0980 N   0  0  0  0  0  0
  -23.4203  -28.8149   23.3038 O   0  0  0  0  0  0
  -28.3244  -26.4868   20.1371 O   0  0  0  0  0  0
  -26.5638  -34.8903   22.4679 O   0  0  0  0  0  0
  -23.5399  -32.1389   23.7376 O   0  0  0  0  0  0
  -27.9517  -20.0571   20.6936 C   0  0  0  0  0  0
  -30.5492  -19.4788   20.3224 C   0  0  0  0  0  0
  -28.9109  -21.1140   20.6883 C   0  0  0  0  0  0
  -29.5916  -18.4209   20.3360 C   0  0  0  0  0  0
  -30.8727  -16.7373   23.0127 C   0  0  0  0  0  0
  -28.5402  -22.5736   21.1353 C   0  0  0  0  0  0
  -29.9725  -16.9488   19.9269 C   0  0  0  0  0  0
  -28.6201  -23.8285   20.1609 C   0  0  0  0  0  0
  -29.6859  -16.0822   22.2842 C   0  0  0  0  0  0
  -28.1430  -25.1949   20.8246 C   0  0  0  0  0  0
  -30.2231  -20.7982   20.5038 N   0  0  0  0  0  0
  -28.2782  -18.7371   20.5130 N   0  0  0  0  0  0
  -29.9736  -15.7675   20.8749 N   0  0  0  0  0  0
  -31.4654  -12.4966   19.1610 H   0  0  0  0  0  0
  -30.3360  -11.4020   19.9044 H   0  0  0  0  0  0
  -29.7666  -11.7760   17.4789 H   0  0  0  0  0  0
  -29.6439  -13.4965   17.7585 H   0  0  0  0  0  0
  -27.8562  -11.3043   18.8583 H   0  0  0  0  0  0
  -27.3707  -12.5963   17.7923 H   0  0  0  0  0  0
  -27.6660  -14.2636   19.5295 H   0  0  0  0  0  0
  -28.6936  -12.0606   21.3755 H   0  0  0  0  0  0
  -28.3859  -13.7031   21.8311 H   0  0  0  0  0  0
  -25.2777   -9.5699   22.4780 H   0  0  0  0  0  0
  -24.0032   -7.4631   22.7464 H   0  0  0  0  0  0
  -21.0868   -8.8802   19.8934 H   0  0  0  0  0  0
  -22.3726  -10.9710   19.6185 H   0  0  0  0  0  0
  -21.2005   -7.6163   23.9742 H   0  0  0  0  0  0
  -21.1477   -6.0524   25.9091 H   0  0  0  0  0  0
  -22.0591   -2.7625   23.2832 H   0  0  0  0  0  0
  -22.4088  -11.9859   22.4797 H   0  0  0  0  0  0
  -21.1101  -13.1234   22.2648 H   0  0  0  0  0  0
  -24.6559  -15.8451   20.5310 H   0  0  0  0  0  0
  -26.2875  -15.6394   20.1374 H   0  0  0  0  0  0
  -26.7143  -32.5460   23.1110 H   0  0  0  0  0  0
  -24.9994  -33.9724   25.0386 H   0  0  0  0  0  0
  -22.7093  -31.3007   21.4065 H   0  0  0  0  0  0
  -23.3744  -35.9650   23.3304 H   0  0  0  0  0  0
  -24.3584  -36.8942   22.2059 H   0  0  0  0  0  0
  -23.7247  -37.6503   23.6673 H   0  0  0  0  0  0
  -26.0814  -31.5603   20.6017 H   0  0  0  0  0  0
  -26.8374  -30.8473   21.9983 H   0  0  0  0  0  0
  -28.1106  -28.9993   21.1920 H   0  0  0  0  0  0
  -26.0147  -25.9245   19.0188 H   0  0  0  0  0  0
  -23.9730  -27.3074   19.0059 H   0  0  0  0  0  0
  -23.7464  -30.5977   19.4057 H   0  0  0  0  0  0
  -22.7500  -29.2491   19.8613 H   0  0  0  0  0  0
  -25.1286  -36.1949   25.0818 H   0  0  0  0  0  0
  -20.9956  -28.3230   24.1436 H   0  0  0  0  0  0
  -20.5704  -26.2252   23.3618 H   0  0  0  0  0  0
  -21.6637  -26.7441   22.1196 H   0  0  0  0  0  0
  -19.6918  -25.6305   21.1230 H   0  0  0  0  0  0
  -19.6701  -27.3220   20.6777 H   0  0  0  0  0  0
  -17.4206  -26.6674   21.4027 H   0  0  0  0  0  0
  -18.0298  -26.0082   22.9033 H   0  0  0  0  0  0
  -19.7931  -30.7269   24.2248 H   0  0  0  0  0  0
  -17.5004  -31.6260   24.5152 H   0  0  0  0  0  0
  -15.5338  -30.2944   23.7687 H   0  0  0  0  0  0
  -15.8680  -28.0821   22.7021 H   0  0  0  0  0  0
  -24.5912  -30.7021   25.7786 H   0  0  0  0  0  0
  -24.8883  -32.2834   26.4897 H   0  0  0  0  0  0
  -25.8058  -30.8869   27.0226 H   0  0  0  0  0  0
  -26.2878  -29.6746   24.1209 H   0  0  0  0  0  0
  -27.4071  -29.7272   25.4639 H   0  0  0  0  0  0
  -27.8732  -30.4317   23.9331 H   0  0  0  0  0  0
  -27.2724  -33.3619   26.2036 H   0  0  0  0  0  0
  -28.3882  -32.6796   25.0294 H   0  0  0  0  0  0
  -28.0716  -31.8412   26.5404 H   0  0  0  0  0  0
  -28.2582  -38.0106   24.7507 H   0  0  0  0  0  0
  -28.1079  -36.2628   24.6283 H   0  0  0  0  0  0
  -27.2288  -37.1444   25.8859 H   0  0  0  0  0  0
  -20.9373  -29.8728   21.6920 H   0  0  0  0  0  0
  -26.0176  -38.2854   24.1414 H   0  0  0  0  0  0
  -26.9092  -20.2646   20.8907 H   0  0  0  0  0  0
  -31.5923  -19.2666   20.1324 H   0  0  0  0  0  0
  -31.7227  -16.0600   23.0992 H   0  0  0  0  0  0
  -30.5845  -17.0210   24.0250 H   0  0  0  0  0  0
  -31.2165  -17.6411   22.5129 H   0  0  0  0  0  0
  -29.1663  -22.7900   22.0014 H   0  0  0  0  0  0
  -27.5253  -22.5313   21.5330 H   0  0  0  0  0  0
  -30.9580  -17.0211   19.4638 H   0  0  0  0  0  0
  -29.3123  -16.6750   19.1027 H   0  0  0  0  0  0
  -28.0125  -23.6351   19.2769 H   0  0  0  0  0  0
  -29.6459  -23.9383   19.8100 H   0  0  0  0  0  0
  -29.4426  -15.1804   22.8436 H   0  0  0  0  0  0
  -28.7978  -16.7104   22.3507 H   0  0  0  0  0  0
  -28.6778  -25.3005   21.7700 H   0  0  0  0  0  0
  -27.1011  -25.0693   21.1223 H   0  0  0  0  0  0
  1 25  1  0  0  0
  1 30  2  0  0  0
  1 83  1  0  0  0
  2  3  1  0  0  0
  2 25  1  0  0  0
  2 84  1  0  0  0
  2 85  1  0  0  0
  3  4  1  0  0  0
  3 86  1  0  0  0
  3 87  1  0  0  0
  4  5  1  0  0  0
  4 88  1  0  0  0
  4 89  1  0  0  0
  5  6  1  0  0  0
  5 26  1  0  0  0
  5 90  1  0  0  0
  6 25  1  0  0  0
  6 91  1  0  0  0
  6 92  1  0  0  0
  7  8  2  0  0  0
  7 26  1  0  0  0
  7 29  1  0  0  0
  8  9  1  0  0  0
  8 22  1  0  0  0
  9 10  1  0  0  0
  9 27  2  0  0  0
 10 11  2  0  0  0
 10 15  1  0  0  0
 11 12  1  0  0  0
 11 93  1  0  0  0
 12 13  2  0  0  0
 12 94  1  0  0  0
 13 14  1  0  0  0
 13 31  1  0  0  0
 14 15  2  0  0  0
 14 95  1  0  0  0
 15 96  1  0  0  0
 16 17  2  0  0  0
 16 21  1  0  0  0
 16 31  1  0  0  0
 17 18  1  0  0  0
 17 97  1  0  0  0
 18 19  2  0  0  0
 18 98  1  0  0  0
 19 20  1  0  0  0
 19 24  1  0  0  0
 20 21  2  0  0  0
 20 99  1  0  0  0
 21 23  1  0  0  0
 22 28  1  0  0  0
 22 32  2  0  0  0
 26 27  1  0  0  0
 28100  1  0  0  0
 28101  1  0  0  0
 29102  1  0  0  0
 29103  1  0  0  0
 33 34  1  0  0  0
 33 66  1  0  0  0
 33 70  2  0  0  0
 34 36  1  0  0  0
 34 59  1  0  0  0
 34104  1  0  0  0
 35 44  2  0  0  0
 35 45  1  0  0  0
 35 68  1  0  0  0
 36 56  1  0  0  0
 36105  1  0  0  0
 37 39  1  0  0  0
 37 47  1  0  0  0
 37 66  1  0  0  0
 37106  1  0  0  0
 38 43  2  0  0  0
 38 46  1  0  0  0
 38 47  1  0  0  0
 39 64  1  0  0  0
 39 67  2  0  0  0
 40 52  1  0  0  0
 40 53  2  0  0  0
 40 58  1  0  0  0
 41107  1  0  0  0
 41108  1  0  0  0
 41109  1  0  0  0
 41 48  1  0  0  0
 42 43  1  0  0  0
 42 66  1  0  0  0
 42110  1  0  0  0
 42111  1  0  0  0
 43 44  1  0  0  0
 44112  1  0  0  0
 45 46  2  0  0  0
 45113  1  0  0  0
 46114  1  0  0  0
 47115  1  0  0  0
 47116  1  0  0  0
 48 56  1  0  0  0
 48 65  1  0  0  0
 48117  1  0  0  0
 49 50  1  0  0  0
 49 53  1  0  0  0
 49 64  1  0  0  0
 49118  1  0  0  0
 50 51  1  0  0  0
 50119  1  0  0  0
 50120  1  0  0  0
 51 52  1  0  0  0
 51121  1  0  0  0
 51122  1  0  0  0
 52123  1  0  0  0
 52124  1  0  0  0
 53 54  1  0  0  0
 54 55  2  0  0  0
 54125  1  0  0  0
 55 57  1  0  0  0
 55126  1  0  0  0
 56 69  2  0  0  0
 57 58  2  0  0  0
 57127  1  0  0  0
 58128  1  0  0  0
 59 60  1  0  0  0
 59 61  1  0  0  0
 59 62  1  0  0  0
 60129  1  0  0  0
 60130  1  0  0  0
 60131  1  0  0  0
 61132  1  0  0  0
 61133  1  0  0  0
 61134  1  0  0  0
 62135  1  0  0  0
 62136  1  0  0  0
 62137  1  0  0  0
 63 65  1  0  0  0
 63138  1  0  0  0
 63139  1  0  0  0
 63140  1  0  0  0
 64141  1  0  0  0
 65142  1  0  0  0
 68 80  1  0  0  0
 71 73  2  0  0  0
 71 82  1  0  0  0
 71143  1  0  0  0
 72 74  1  0  0  0
 72 81  2  0  0  0
 72144  1  0  0  0
 73 76  1  0  0  0
 73 81  1  0  0  0
 74 77  1  0  0  0
 74 82  2  0  0  0
 75 79  1  0  0  0
 75145  1  0  0  0
 75146  1  0  0  0
 75147  1  0  0  0
 76 78  1  0  0  0
 76148  1  0  0  0
 76149  1  0  0  0
 77 83  1  0  0  0
 77150  1  0  0  0
 77151  1  0  0  0
 78 80  1  0  0  0
 78152  1  0  0  0
 78153  1  0  0  0
 79 83  1  0  0  0
 79154  1  0  0  0
 79155  1  0  0  0
 80156  1  0  0  0
 80157  1  0  0  0
M  ISO  4   1 100  68 101  80 101  83 100
M  END
> <chiral flag>
0

> <version>
0

> <s_m_source_file>
/data/baiqing/PycharmProjects/Reinvent-master-3.2/result/LINK_invent/BTK/process_docking_weight1_custom_sum_contain_oxygen_bond_distance_aromatic_linkinvent_7_9_3/rearranged_h_0050.sdf

> <i_m_source_file_index>
61

> <r_mmod_Potential_Energy-OPLS-2005>
258.136291503906

> <r_mmod_Stretch_Energy-OPLS-2005>
81.8928070068359

> <r_mmod_Bend_Energy-OPLS-2005>
144.25651550293

> <r_mmod_Torsional_Energy-OPLS-2005>
294.047760009766

> <r_mmod_Improper_Torsional_Energy-OPLS-2005>
11.1723327636719

> <r_mmod_Van_der_Waal_Energy-OPLS-2005>
143.030883789062

> <r_mmod_Electrostatic_Energy-OPLS-2005>
-257.657501220703

> <r_mmod_Solvation_Energy-OPLS-2005>
-200.121765136719

> <b_mmod_Minimization_Converged-OPLS-2005>
0

> <r_mmod_RMS_Derivative-OPLS-2005>
2.19803738594055

$$$$
65
                    3D
 Structure written by MMmdl.
158166  0  0  1  0            999 V2000
  -30.5825  -14.8179   20.3932 C   0  0  0  0  0  0
  -30.4301  -12.4780   19.5094 C   0  0  0  0  0  0
  -29.5246  -12.4984   18.2578 C   0  0  0  0  0  0
  -28.0481  -12.3199   18.6609 C   0  0  0  0  0  0
  -27.6352  -13.2401   19.8402 C   0  0  2  0  0  0
  -28.6726  -13.2332   20.9814 C   0  0  0  0  0  0
  -25.2482  -13.8183   20.5680 C   0  0  0  0  0  0
  -24.1790  -13.0430   20.9221 C   0  0  0  0  0  0
  -24.6396  -11.6911   20.8743 C   0  0  0  0  0  0
  -23.9061  -10.4287   21.0423 C   0  0  0  0  0  0
  -24.3602   -9.4209   21.9223 C   0  0  0  0  0  0
  -23.6286   -8.2225   22.0771 C   0  0  0  0  0  0
  -22.4272   -8.0245   21.3557 C   0  0  0  0  0  0
  -21.9909   -9.0222   20.4672 C   0  0  0  0  0  0
  -22.7213  -10.2122   20.3091 C   0  0  0  0  0  0
  -21.6844   -6.0692   22.5264 C   0  0  0  0  0  0
  -21.4010   -6.5606   23.8194 C   0  0  0  0  0  0
  -21.3700   -5.6774   24.9176 C   0  0  0  0  0  0
  -21.6065   -4.3031   24.7227 C   0  0  0  0  0  0
  -21.8808   -3.8111   23.4350 C   0  0  0  0  0  0
  -21.9178   -4.6915   22.3399 C   0  0  0  0  0  0
  -22.7812  -13.5228   21.1867 C   0  0  0  0  0  0
  -22.1658   -4.2096   21.0978 F   0  0  0  0  0  0
  -21.5683   -3.4518   25.7750 F   0  0  0  0  0  0
  -29.9788  -13.5706   20.4098 N   0  0  0  0  0  0
  -26.2919  -12.9411   20.3224 N   0  0  0  0  0  0
  -25.9331  -11.6560   20.5745 N   0  0  0  0  0  0
  -22.0436  -12.8252   22.0425 N   0  0  0  0  0  0
  -25.4184  -15.1898   20.4055 N   0  0  0  0  0  0
  -31.7925  -14.8432   20.1479 O   0  0  0  0  0  0
  -21.6666   -6.8822   21.4217 O   0  0  0  0  0  0
  -22.3484  -14.5515   20.6676 O   0  0  0  0  0  0
  -24.6364  -31.8510   23.1943 C   0  0  0  0  0  0
  -25.9175  -32.4730   23.8302 C   0  0  1  0  0  0
  -27.2146  -27.1937   20.1598 C   0  0  0  0  0  0
  -25.5978  -33.8548   24.2220 N   0  0  0  0  0  0
  -23.4345  -30.4718   21.5400 C   0  0  2  0  0  0
  -24.8828  -28.9060   20.1162 C   0  0  0  0  0  0
  -22.7523  -29.4574   22.4898 C   0  0  0  0  0  0
  -18.0307  -28.1420   22.8452 C   0  0  0  0  0  0
  -24.1502  -36.7263   23.2632 C   0  0  0  0  0  0
  -25.9849  -30.7450   21.3833 C   0  0  0  0  0  0
  -26.0572  -29.3603   20.7280 C   0  0  0  0  0  0
  -27.2248  -28.5205   20.7312 C   0  0  0  0  0  0
  -26.0144  -26.8221   19.5124 C   0  0  0  0  0  0
  -24.8689  -27.6472   19.4966 C   0  0  0  0  0  0
  -23.6587  -29.8055   20.1567 C   0  0  0  0  0  0
  -25.4137  -36.3044   24.0296 C   0  0  1  0  0  0
  -20.5909  -28.3727   23.1264 C   0  0  2  0  0  0
  -20.6822  -26.9448   22.5428 C   0  0  0  0  0  0
  -19.5802  -26.6396   21.5234 C   0  0  0  0  0  0
  -18.1957  -26.7961   22.1601 C   0  0  0  0  0  0
  -19.1562  -28.8894   23.2845 C   0  0  0  0  0  0
  -18.9474  -30.1502   23.8856 C   0  0  0  0  0  0
  -17.6467  -30.6602   24.0577 C   0  0  0  0  0  0
  -25.9083  -34.9424   23.5050 C   0  0  0  0  0  0
  -16.5360  -29.9095   23.6355 C   0  0  0  0  0  0
  -16.7287  -28.6538   23.0318 C   0  0  0  0  0  0
  -26.4547  -31.6570   25.0708 C   0  0  0  0  0  0
  -25.3740  -31.3746   26.1400 C   0  0  0  0  0  0
  -27.0436  -30.2978   24.6248 C   0  0  0  0  0  0
  -27.6082  -32.4327   25.7503 C   0  0  0  0  0  0
  -27.5586  -37.1780   24.8449 C   0  0  0  0  0  0
  -21.4227  -29.3043   22.3626 N   0  0  0  0  0  0
  -26.4297  -37.3755   23.9401 N   0  0  0  0  0  0
  -24.7052  -31.0409   22.0955 N   0  0  0  0  0  0
  -23.4187  -28.8120   23.3038 O   0  0  0  0  0  0
  -28.2944  -26.2596   20.2300 O   0  0  0  0  0  0
  -26.5644  -34.8895   22.4615 O   0  0  0  0  0  0
  -23.5495  -32.1392   23.7188 O   0  0  0  0  0  0
  -29.7518  -21.1587   19.4892 C   0  0  0  0  0  0
  -28.9608  -19.9765   21.7481 C   0  0  0  0  0  0
  -29.1449  -22.0030   20.4829 C   0  0  0  0  0  0
  -29.6270  -19.1352   20.7816 C   0  0  0  0  0  0
  -29.5902  -16.5438   18.7985 C   0  0  0  0  0  0
  -29.9668  -17.3042   22.5963 C   0  0  0  0  0  0
  -31.7588  -17.7954   20.9818 C   0  0  0  0  0  0
  -29.2469  -23.6349   20.4545 C   0  0  0  0  0  0
  -28.0449  -24.7407   20.2351 C   0  0  0  0  0  0
  -29.7646  -16.2454   20.3020 C   0  0  2  0  0  0
  -30.2273  -17.6312   21.1048 C   0  0  0  0  0  0
  -28.7353  -21.3430   21.6132 N   0  0  0  0  0  0
  -29.9793  -19.7929   19.6266 N   0  0  0  0  0  0
  -31.4770  -12.5831   19.2182 H   0  0  0  0  0  0
  -30.3583  -11.5125   20.0142 H   0  0  0  0  0  0
  -29.8198  -11.7096   17.5642 H   0  0  0  0  0  0
  -29.6569  -13.4394   17.7257 H   0  0  0  0  0  0
  -27.9173  -11.2745   18.9458 H   0  0  0  0  0  0
  -27.3950  -12.4883   17.8051 H   0  0  0  0  0  0
  -27.6097  -14.2478   19.4279 H   0  0  0  0  0  0
  -28.7126  -12.2608   21.4730 H   0  0  0  0  0  0
  -28.3948  -13.9550   21.7520 H   0  0  0  0  0  0
  -25.2730   -9.5681   22.4828 H   0  0  0  0  0  0
  -23.9984   -7.4609   22.7496 H   0  0  0  0  0  0
  -21.0843   -8.8693   19.8977 H   0  0  0  0  0  0
  -22.3627  -10.9649   19.6202 H   0  0  0  0  0  0
  -21.1988   -7.6112   23.9640 H   0  0  0  0  0  0
  -21.1583   -6.0561   25.9080 H   0  0  0  0  0  0
  -22.0565   -2.7561   23.2874 H   0  0  0  0  0  0
  -22.4050  -11.9952   22.4906 H   0  0  0  0  0  0
  -21.1054  -13.1304   22.2556 H   0  0  0  0  0  0
  -24.6561  -15.8485   20.5250 H   0  0  0  0  0  0
  -26.2554  -15.6139   20.0279 H   0  0  0  0  0  0
  -26.7219  -32.5349   23.1015 H   0  0  0  0  0  0
  -25.0169  -33.9716   25.0390 H   0  0  0  0  0  0
  -22.7323  -31.2948   21.3927 H   0  0  0  0  0  0
  -23.3772  -35.9587   23.3279 H   0  0  0  0  0  0
  -24.3575  -36.8930   22.2049 H   0  0  0  0  0  0
  -23.7259  -37.6446   23.6698 H   0  0  0  0  0  0
  -26.1291  -31.5043   20.6131 H   0  0  0  0  0  0
  -26.8581  -30.7946   22.0208 H   0  0  0  0  0  0
  -28.1207  -28.8635   21.2311 H   0  0  0  0  0  0
  -25.9273  -25.8626   19.0271 H   0  0  0  0  0  0
  -23.9679  -27.2941   19.0148 H   0  0  0  0  0  0
  -23.7976  -30.5883   19.4095 H   0  0  0  0  0  0
  -22.7712  -29.2555   19.8369 H   0  0  0  0  0  0
  -25.1332  -36.1875   25.0787 H   0  0  0  0  0  0
  -20.9984  -28.3348   24.1388 H   0  0  0  0  0  0
  -20.5785  -26.2340   23.3634 H   0  0  0  0  0  0
  -21.6685  -26.7512   22.1188 H   0  0  0  0  0  0
  -19.6989  -25.6299   21.1289 H   0  0  0  0  0  0
  -19.6777  -27.3193   20.6750 H   0  0  0  0  0  0
  -17.4261  -26.6713   21.3970 H   0  0  0  0  0  0
  -18.0320  -26.0113   22.8995 H   0  0  0  0  0  0
  -19.7955  -30.7354   24.2160 H   0  0  0  0  0  0
  -17.5019  -31.6260   24.5219 H   0  0  0  0  0  0
  -15.5359  -30.2977   23.7724 H   0  0  0  0  0  0
  -15.8686  -28.0877   22.6993 H   0  0  0  0  0  0
  -24.5852  -30.7207   25.7664 H   0  0  0  0  0  0
  -24.9024  -32.2950   26.4855 H   0  0  0  0  0  0
  -25.7995  -30.8829   27.0152 H   0  0  0  0  0  0
  -26.3053  -29.6658   24.1294 H   0  0  0  0  0  0
  -27.4136  -29.7316   25.4806 H   0  0  0  0  0  0
  -27.8916  -30.4253   23.9511 H   0  0  0  0  0  0
  -27.2650  -33.3570   26.2161 H   0  0  0  0  0  0
  -28.3857  -32.6988   25.0329 H   0  0  0  0  0  0
  -28.0802  -31.8418   26.5362 H   0  0  0  0  0  0
  -28.2572  -38.0103   24.7512 H   0  0  0  0  0  0
  -28.1113  -36.2631   24.6260 H   0  0  0  0  0  0
  -27.2290  -37.1392   25.8844 H   0  0  0  0  0  0
  -20.9440  -29.8700   21.6760 H   0  0  0  0  0  0
  -26.0158  -38.2810   24.1453 H   0  0  0  0  0  0
  -30.1570  -21.6024   18.5901 H   0  0  0  0  0  0
  -28.6754  -19.5763   22.7109 H   0  0  0  0  0  0
  -30.5497  -16.7366   18.3174 H   0  0  0  0  0  0
  -28.9516  -17.4061   18.6202 H   0  0  0  0  0  0
  -29.1345  -15.6996   18.2798 H   0  0  0  0  0  0
  -30.3950  -18.0549   23.2624 H   0  0  0  0  0  0
  -30.4043  -16.3473   22.8867 H   0  0  0  0  0  0
  -28.9010  -17.2374   22.8116 H   0  0  0  0  0  0
  -32.1071  -18.6644   21.5421 H   0  0  0  0  0  0
  -32.0570  -17.9338   19.9425 H   0  0  0  0  0  0
  -32.3123  -16.9397   21.3700 H   0  0  0  0  0  0
  -29.9974  -23.8536   19.6949 H   0  0  0  0  0  0
  -29.7363  -23.8957   21.3922 H   0  0  0  0  0  0
  -27.2931  -24.5512   21.0048 H   0  0  0  0  0  0
  -27.5737  -24.4831   19.2881 H   0  0  0  0  0  0
  -28.7580  -16.0326   20.6556 H   0  0  0  0  0  0
  1 25  1  0  0  0
  1 30  2  0  0  0
  1 80  1  0  0  0
  2  3  1  0  0  0
  2 25  1  0  0  0
  2 84  1  0  0  0
  2 85  1  0  0  0
  3  4  1  0  0  0
  3 86  1  0  0  0
  3 87  1  0  0  0
  4  5  1  0  0  0
  4 88  1  0  0  0
  4 89  1  0  0  0
  5  6  1  0  0  0
  5 26  1  0  0  0
  5 90  1  0  0  0
  6 25  1  0  0  0
  6 91  1  0  0  0
  6 92  1  0  0  0
  7  8  2  0  0  0
  7 26  1  0  0  0
  7 29  1  0  0  0
  8  9  1  0  0  0
  8 22  1  0  0  0
  9 10  1  0  0  0
  9 27  2  0  0  0
 10 11  2  0  0  0
 10 15  1  0  0  0
 11 12  1  0  0  0
 11 93  1  0  0  0
 12 13  2  0  0  0
 12 94  1  0  0  0
 13 14  1  0  0  0
 13 31  1  0  0  0
 14 15  2  0  0  0
 14 95  1  0  0  0
 15 96  1  0  0  0
 16 17  2  0  0  0
 16 21  1  0  0  0
 16 31  1  0  0  0
 17 18  1  0  0  0
 17 97  1  0  0  0
 18 19  2  0  0  0
 18 98  1  0  0  0
 19 20  1  0  0  0
 19 24  1  0  0  0
 20 21  2  0  0  0
 20 99  1  0  0  0
 21 23  1  0  0  0
 22 28  1  0  0  0
 22 32  2  0  0  0
 26 27  1  0  0  0
 28100  1  0  0  0
 28101  1  0  0  0
 29102  1  0  0  0
 29103  1  0  0  0
 33 34  1  0  0  0
 33 66  1  0  0  0
 33 70  2  0  0  0
 34 36  1  0  0  0
 34 59  1  0  0  0
 34104  1  0  0  0
 35 44  2  0  0  0
 35 45  1  0  0  0
 35 68  1  0  0  0
 36 56  1  0  0  0
 36105  1  0  0  0
 37 39  1  0  0  0
 37 47  1  0  0  0
 37 66  1  0  0  0
 37106  1  0  0  0
 38 43  2  0  0  0
 38 46  1  0  0  0
 38 47  1  0  0  0
 39 64  1  0  0  0
 39 67  2  0  0  0
 40 52  1  0  0  0
 40 53  2  0  0  0
 40 58  1  0  0  0
 41107  1  0  0  0
 41108  1  0  0  0
 41109  1  0  0  0
 41 48  1  0  0  0
 42 43  1  0  0  0
 42 66  1  0  0  0
 42110  1  0  0  0
 42111  1  0  0  0
 43 44  1  0  0  0
 44112  1  0  0  0
 45 46  2  0  0  0
 45113  1  0  0  0
 46114  1  0  0  0
 47115  1  0  0  0
 47116  1  0  0  0
 48 56  1  0  0  0
 48 65  1  0  0  0
 48117  1  0  0  0
 49 50  1  0  0  0
 49 53  1  0  0  0
 49 64  1  0  0  0
 49118  1  0  0  0
 50 51  1  0  0  0
 50119  1  0  0  0
 50120  1  0  0  0
 51 52  1  0  0  0
 51121  1  0  0  0
 51122  1  0  0  0
 52123  1  0  0  0
 52124  1  0  0  0
 53 54  1  0  0  0
 54 55  2  0  0  0
 54125  1  0  0  0
 55 57  1  0  0  0
 55126  1  0  0  0
 56 69  2  0  0  0
 57 58  2  0  0  0
 57127  1  0  0  0
 58128  1  0  0  0
 59 60  1  0  0  0
 59 61  1  0  0  0
 59 62  1  0  0  0
 60129  1  0  0  0
 60130  1  0  0  0
 60131  1  0  0  0
 61132  1  0  0  0
 61133  1  0  0  0
 61134  1  0  0  0
 62135  1  0  0  0
 62136  1  0  0  0
 62137  1  0  0  0
 63 65  1  0  0  0
 63138  1  0  0  0
 63139  1  0  0  0
 63140  1  0  0  0
 64141  1  0  0  0
 65142  1  0  0  0
 68 79  1  0  0  0
 71 73  2  0  0  0
 71 83  1  0  0  0
 71143  1  0  0  0
 72 74  1  0  0  0
 72 82  2  0  0  0
 72144  1  0  0  0
 73 78  1  0  0  0
 73 82  1  0  0  0
 74 81  1  0  0  0
 74 83  2  0  0  0
 75145  1  0  0  0
 75146  1  0  0  0
 75147  1  0  0  0
 75 80  1  0  0  0
 76148  1  0  0  0
 76149  1  0  0  0
 76150  1  0  0  0
 76 81  1  0  0  0
 77 81  1  0  0  0
 77151  1  0  0  0
 77152  1  0  0  0
 77153  1  0  0  0
 78 79  1  0  0  0
 78154  1  0  0  0
 78155  1  0  0  0
 79156  1  0  0  0
 79157  1  0  0  0
 80 81  1  0  0  0
 80158  1  0  0  0
M  ISO  4   1 100  68 101  79 101  80 100
M  END
> <chiral flag>
0

> <version>
0

> <s_m_source_file>
/data/baiqing/PycharmProjects/Reinvent-master-3.2/result/LINK_invent/BTK/process_docking_weight1_custom_sum_contain_oxygen_bond_distance_aromatic_linkinvent_7_9_3/rearranged_h_0050.sdf

> <i_m_source_file_index>
62

> <r_mmod_Potential_Energy-OPLS-2005>
445.912139892578

> <r_mmod_Stretch_Energy-OPLS-2005>
202.711624145508

> <r_mmod_Bend_Energy-OPLS-2005>
225.323959350586

> <r_mmod_Torsional_Energy-OPLS-2005>
180.746383666992

> <r_mmod_Improper_Torsional_Energy-OPLS-2005>
12.355863571167

> <r_mmod_Van_der_Waal_Energy-OPLS-2005>
139.592224121094

> <r_mmod_Electrostatic_Energy-OPLS-2005>
-238.172317504883

> <r_mmod_Solvation_Energy-OPLS-2005>
-203.76725769043

> <b_mmod_Minimization_Converged-OPLS-2005>
0

> <r_mmod_RMS_Derivative-OPLS-2005>
3.98615050315857

$$$$
66
                    3D
 Structure written by MMmdl.
161169  0  0  1  0            999 V2000
  -30.6648  -14.5753   20.5754 C   0  0  0  0  0  0
  -30.4312  -12.3675   19.4540 C   0  0  0  0  0  0
  -29.5075  -12.5085   18.2246 C   0  0  0  0  0  0
  -28.0305  -12.3486   18.6327 C   0  0  0  0  0  0
  -27.6567  -13.2105   19.8683 C   0  0  2  0  0  0
  -28.6922  -13.0378   20.9996 C   0  0  0  0  0  0
  -25.2582  -13.8160   20.5669 C   0  0  0  0  0  0
  -24.1833  -13.0432   20.9166 C   0  0  0  0  0  0
  -24.6387  -11.6901   20.8713 C   0  0  0  0  0  0
  -23.9049  -10.4291   21.0388 C   0  0  0  0  0  0
  -24.3609   -9.4213   21.9169 C   0  0  0  0  0  0
  -23.6288   -8.2248   22.0752 C   0  0  0  0  0  0
  -22.4270   -8.0283   21.3546 C   0  0  0  0  0  0
  -21.9901   -9.0244   20.4639 C   0  0  0  0  0  0
  -22.7221  -10.2126   20.3037 C   0  0  0  0  0  0
  -21.6854   -6.0738   22.5281 C   0  0  0  0  0  0
  -21.4010   -6.5642   23.8213 C   0  0  0  0  0  0
  -21.3660   -5.6795   24.9177 C   0  0  0  0  0  0
  -21.6044   -4.3058   24.7225 C   0  0  0  0  0  0
  -21.8819   -3.8148   23.4345 C   0  0  0  0  0  0
  -21.9194   -4.6968   22.3405 C   0  0  0  0  0  0
  -22.7868  -13.5241   21.1847 C   0  0  0  0  0  0
  -22.1667   -4.2157   21.0981 F   0  0  0  0  0  0
  -21.5632   -3.4539   25.7734 F   0  0  0  0  0  0
  -30.0170  -13.3740   20.4527 N   0  0  0  0  0  0
  -26.2998  -12.9323   20.3303 N   0  0  0  0  0  0
  -25.9311  -11.6483   20.5718 N   0  0  0  0  0  0
  -22.0505  -12.8218   22.0391 N   0  0  0  0  0  0
  -25.4318  -15.1871   20.4110 N   0  0  0  0  0  0
  -31.7743  -14.7646   20.0650 O   0  0  0  0  0  0
  -21.6639   -6.8878   21.4243 O   0  0  0  0  0  0
  -22.3554  -14.5558   20.6721 O   0  0  0  0  0  0
  -24.6257  -31.8646   23.2107 C   0  0  0  0  0  0
  -25.9122  -32.4807   23.8401 C   0  0  1  0  0  0
  -27.1996  -27.3405   20.1066 C   0  0  0  0  0  0
  -25.5952  -33.8607   24.2322 N   0  0  0  0  0  0
  -23.4131  -30.4973   21.5559 C   0  0  2  0  0  0
  -24.8506  -28.9733   20.1075 C   0  0  0  0  0  0
  -22.7476  -29.4646   22.4970 C   0  0  0  0  0  0
  -18.0279  -28.1371   22.8473 C   0  0  0  0  0  0
  -24.1483  -36.7300   23.2641 C   0  0  0  0  0  0
  -25.9561  -30.8068   21.3751 C   0  0  0  0  0  0
  -26.0254  -29.4392   20.7133 C   0  0  0  0  0  0
  -27.2019  -28.6352   20.7064 C   0  0  0  0  0  0
  -25.9919  -26.9315   19.4809 C   0  0  0  0  0  0
  -24.8358  -27.7227   19.4841 C   0  0  0  0  0  0
  -23.6204  -29.8519   20.1641 C   0  0  0  0  0  0
  -25.4106  -36.3099   24.0340 C   0  0  1  0  0  0
  -20.5887  -28.3654   23.1303 C   0  0  2  0  0  0
  -20.6780  -26.9384   22.5423 C   0  0  0  0  0  0
  -19.5752  -26.6376   21.5223 C   0  0  0  0  0  0
  -18.1919  -26.7912   22.1618 C   0  0  0  0  0  0
  -19.1537  -28.8832   23.2872 C   0  0  0  0  0  0
  -18.9463  -30.1442   23.8872 C   0  0  0  0  0  0
  -17.6459  -30.6569   24.0557 C   0  0  0  0  0  0
  -25.9060  -34.9469   23.5125 C   0  0  0  0  0  0
  -16.5343  -29.9067   23.6338 C   0  0  0  0  0  0
  -16.7268  -28.6496   23.0334 C   0  0  0  0  0  0
  -26.4502  -31.6590   25.0743 C   0  0  0  0  0  0
  -25.3746  -31.3712   26.1480 C   0  0  0  0  0  0
  -27.0352  -30.3032   24.6145 C   0  0  0  0  0  0
  -27.6070  -32.4320   25.7497 C   0  0  0  0  0  0
  -27.5571  -37.1798   24.8466 C   0  0  0  0  0  0
  -21.4199  -29.3013   22.3705 N   0  0  0  0  0  0
  -26.4273  -37.3800   23.9433 N   0  0  0  0  0  0
  -24.6850  -31.0700   22.1041 N   0  0  0  0  0  0
  -23.4237  -28.8159   23.3000 O   0  0  0  0  0  0
  -28.3107  -26.4820   20.1584 O   0  0  0  0  0  0
  -26.5626  -34.8923   22.4689 O   0  0  0  0  0  0
  -23.5431  -32.1431   23.7458 O   0  0  0  0  0  0
  -28.1282  -22.8322   17.7755 C   0  0  0  0  0  0
  -28.6935  -22.6199   19.0608 C   0  0  0  0  0  0
  -27.6452  -21.7418   17.0349 C   0  0  0  0  0  0
  -28.8270  -21.2291   19.4426 C   0  0  0  0  0  0
  -26.9612  -21.9457   15.7016 C   0  0  0  0  0  0
  -29.8496  -15.8032   22.5505 C   0  0  0  0  0  0
  -29.0958  -23.8921   19.8832 C   0  0  0  0  0  0
  -30.0869  -18.1896   20.3909 C   0  0  0  0  0  0
  -29.3918  -16.7689   20.3183 C   0  0  0  0  0  0
  -28.0469  -25.0813   19.7935 C   0  0  0  0  0  0
  -29.2317  -19.3634   21.0158 C   0  0  0  0  0  0
  -27.7426  -20.4745   17.4766 N   0  0  0  0  0  0
  -28.3421  -20.2385   18.6407 N   0  0  0  0  0  0
  -29.9526  -15.6237   21.1018 N   0  0  0  0  0  0
  -29.4631  -20.7532   20.5896 O   0  0  0  0  0  0
  -31.4755  -12.4794   19.1582 H   0  0  0  0  0  0
  -30.3522  -11.3653   19.8782 H   0  0  0  0  0  0
  -29.7701  -11.7635   17.4717 H   0  0  0  0  0  0
  -29.6583  -13.4830   17.7574 H   0  0  0  0  0  0
  -27.8647  -11.2936   18.8558 H   0  0  0  0  0  0
  -27.3780  -12.5858   17.7916 H   0  0  0  0  0  0
  -27.6868  -14.2517   19.5452 H   0  0  0  0  0  0
  -28.6907  -12.0106   21.3670 H   0  0  0  0  0  0
  -28.4210  -13.6534   21.8563 H   0  0  0  0  0  0
  -25.2757   -9.5706   22.4732 H   0  0  0  0  0  0
  -24.0012   -7.4645   22.7473 H   0  0  0  0  0  0
  -21.0836   -8.8742   19.8936 H   0  0  0  0  0  0
  -22.3672  -10.9657   19.6136 H   0  0  0  0  0  0
  -21.1991   -7.6148   23.9718 H   0  0  0  0  0  0
  -21.1486   -6.0524   25.9082 H   0  0  0  0  0  0
  -22.0594   -2.7610   23.2838 H   0  0  0  0  0  0
  -22.4137  -11.9875   22.4760 H   0  0  0  0  0  0
  -21.1114  -13.1227   22.2589 H   0  0  0  0  0  0
  -24.6686  -15.8449   20.5250 H   0  0  0  0  0  0
  -26.2897  -15.6222   20.0976 H   0  0  0  0  0  0
  -26.7176  -32.5473   23.1143 H   0  0  0  0  0  0
  -25.0087  -33.9757   25.0452 H   0  0  0  0  0  0
  -22.7044  -31.3180   21.4273 H   0  0  0  0  0  0
  -23.3750  -35.9628   23.3302 H   0  0  0  0  0  0
  -24.3573  -36.8924   22.2054 H   0  0  0  0  0  0
  -23.7221  -37.6503   23.6656 H   0  0  0  0  0  0
  -26.0831  -31.5721   20.6094 H   0  0  0  0  0  0
  -26.8412  -30.8533   21.9972 H   0  0  0  0  0  0
  -28.1006  -28.9864   21.1937 H   0  0  0  0  0  0
  -25.8729  -25.9796   18.9895 H   0  0  0  0  0  0
  -23.9358  -27.3573   19.0087 H   0  0  0  0  0  0
  -23.7347  -30.6397   19.4194 H   0  0  0  0  0  0
  -22.7376  -29.2871   19.8566 H   0  0  0  0  0  0
  -25.1269  -36.1956   25.0827 H   0  0  0  0  0  0
  -20.9956  -28.3211   24.1438 H   0  0  0  0  0  0
  -20.5716  -26.2241   23.3604 H   0  0  0  0  0  0
  -21.6638  -26.7442   22.1181 H   0  0  0  0  0  0
  -19.6929  -25.6306   21.1207 H   0  0  0  0  0  0
  -19.6699  -27.3224   20.6782 H   0  0  0  0  0  0
  -17.4206  -26.6668   21.4002 H   0  0  0  0  0  0
  -18.0288  -26.0058   22.9010 H   0  0  0  0  0  0
  -19.7942  -30.7267   24.2212 H   0  0  0  0  0  0
  -17.5017  -31.6243   24.5169 H   0  0  0  0  0  0
  -15.5344  -30.2953   23.7697 H   0  0  0  0  0  0
  -15.8663  -28.0829   22.7038 H   0  0  0  0  0  0
  -24.5932  -30.7041   25.7816 H   0  0  0  0  0  0
  -24.8909  -32.2867   26.4897 H   0  0  0  0  0  0
  -25.8075  -30.8908   27.0261 H   0  0  0  0  0  0
  -26.2923  -29.6777   24.1184 H   0  0  0  0  0  0
  -27.4120  -29.7277   25.4610 H   0  0  0  0  0  0
  -27.8749  -30.4363   23.9323 H   0  0  0  0  0  0
  -27.2708  -33.3638   26.2055 H   0  0  0  0  0  0
  -28.3877  -32.6857   25.0312 H   0  0  0  0  0  0
  -28.0741  -31.8455   26.5418 H   0  0  0  0  0  0
  -28.2586  -38.0099   24.7543 H   0  0  0  0  0  0
  -28.1064  -36.2640   24.6243 H   0  0  0  0  0  0
  -27.2305  -37.1405   25.8871 H   0  0  0  0  0  0
  -20.9367  -29.8776   21.6954 H   0  0  0  0  0  0
  -26.0158  -38.2872   24.1456 H   0  0  0  0  0  0
  -28.0412  -23.8076   17.3259 H   0  0  0  0  0  0
  -26.0904  -22.5901   15.8215 H   0  0  0  0  0  0
  -26.6167  -20.9992   15.2845 H   0  0  0  0  0  0
  -27.6439  -22.4118   14.9913 H   0  0  0  0  0  0
  -28.8053  -15.9094   22.8470 H   0  0  0  0  0  0
  -30.3824  -16.7020   22.8630 H   0  0  0  0  0  0
  -30.2680  -14.9618   23.1056 H   0  0  0  0  0  0
  -30.0603  -24.2339   19.5086 H   0  0  0  0  0  0
  -29.2484  -23.6153   20.9272 H   0  0  0  0  0  0
  -30.3310  -18.4722   19.3662 H   0  0  0  0  0  0
  -31.0499  -18.1219   20.8952 H   0  0  0  0  0  0
  -29.3624  -16.4634   19.2702 H   0  0  0  0  0  0
  -28.3414  -16.8687   20.5945 H   0  0  0  0  0  0
  -27.1596  -24.7393   20.3313 H   0  0  0  0  0  0
  -27.7719  -25.1809   18.7514 H   0  0  0  0  0  0
  -29.4043  -19.3460   22.0914 H   0  0  0  0  0  0
  -28.1684  -19.1398   20.9207 H   0  0  0  0  0  0
  1 25  1  0  0  0
  1 30  2  0  0  0
  1 84  1  0  0  0
  2  3  1  0  0  0
  2 25  1  0  0  0
  2 86  1  0  0  0
  2 87  1  0  0  0
  3  4  1  0  0  0
  3 88  1  0  0  0
  3 89  1  0  0  0
  4  5  1  0  0  0
  4 90  1  0  0  0
  4 91  1  0  0  0
  5  6  1  0  0  0
  5 26  1  0  0  0
  5 92  1  0  0  0
  6 25  1  0  0  0
  6 93  1  0  0  0
  6 94  1  0  0  0
  7  8  2  0  0  0
  7 26  1  0  0  0
  7 29  1  0  0  0
  8  9  1  0  0  0
  8 22  1  0  0  0
  9 10  1  0  0  0
  9 27  2  0  0  0
 10 11  2  0  0  0
 10 15  1  0  0  0
 11 12  1  0  0  0
 11 95  1  0  0  0
 12 13  2  0  0  0
 12 96  1  0  0  0
 13 14  1  0  0  0
 13 31  1  0  0  0
 14 15  2  0  0  0
 14 97  1  0  0  0
 15 98  1  0  0  0
 16 17  2  0  0  0
 16 21  1  0  0  0
 16 31  1  0  0  0
 17 18  1  0  0  0
 17 99  1  0  0  0
 18 19  2  0  0  0
 18100  1  0  0  0
 19 20  1  0  0  0
 19 24  1  0  0  0
 20 21  2  0  0  0
 20101  1  0  0  0
 21 23  1  0  0  0
 22 28  1  0  0  0
 22 32  2  0  0  0
 26 27  1  0  0  0
 28102  1  0  0  0
 28103  1  0  0  0
 29104  1  0  0  0
 29105  1  0  0  0
 33 34  1  0  0  0
 33 66  1  0  0  0
 33 70  2  0  0  0
 34 36  1  0  0  0
 34 59  1  0  0  0
 34106  1  0  0  0
 35 44  2  0  0  0
 35 45  1  0  0  0
 35 68  1  0  0  0
 36 56  1  0  0  0
 36107  1  0  0  0
 37 39  1  0  0  0
 37 47  1  0  0  0
 37 66  1  0  0  0
 37108  1  0  0  0
 38 43  2  0  0  0
 38 46  1  0  0  0
 38 47  1  0  0  0
 39 64  1  0  0  0
 39 67  2  0  0  0
 40 52  1  0  0  0
 40 53  2  0  0  0
 40 58  1  0  0  0
 41109  1  0  0  0
 41110  1  0  0  0
 41111  1  0  0  0
 41 48  1  0  0  0
 42 43  1  0  0  0
 42 66  1  0  0  0
 42112  1  0  0  0
 42113  1  0  0  0
 43 44  1  0  0  0
 44114  1  0  0  0
 45 46  2  0  0  0
 45115  1  0  0  0
 46116  1  0  0  0
 47117  1  0  0  0
 47118  1  0  0  0
 48 56  1  0  0  0
 48 65  1  0  0  0
 48119  1  0  0  0
 49 50  1  0  0  0
 49 53  1  0  0  0
 49 64  1  0  0  0
 49120  1  0  0  0
 50 51  1  0  0  0
 50121  1  0  0  0
 50122  1  0  0  0
 51 52  1  0  0  0
 51123  1  0  0  0
 51124  1  0  0  0
 52125  1  0  0  0
 52126  1  0  0  0
 53 54  1  0  0  0
 54 55  2  0  0  0
 54127  1  0  0  0
 55 57  1  0  0  0
 55128  1  0  0  0
 56 69  2  0  0  0
 57 58  2  0  0  0
 57129  1  0  0  0
 58130  1  0  0  0
 59 60  1  0  0  0
 59 61  1  0  0  0
 59 62  1  0  0  0
 60131  1  0  0  0
 60132  1  0  0  0
 60133  1  0  0  0
 61134  1  0  0  0
 61135  1  0  0  0
 61136  1  0  0  0
 62137  1  0  0  0
 62138  1  0  0  0
 62139  1  0  0  0
 63 65  1  0  0  0
 63140  1  0  0  0
 63141  1  0  0  0
 63142  1  0  0  0
 64143  1  0  0  0
 65144  1  0  0  0
 68 80  1  0  0  0
 71 72  2  0  0  0
 71 73  1  0  0  0
 71145  1  0  0  0
 72 74  1  0  0  0
 72 77  1  0  0  0
 73 75  1  0  0  0
 73 82  2  0  0  0
 74 83  2  0  0  0
 74 85  1  0  0  0
 75146  1  0  0  0
 75147  1  0  0  0
 75148  1  0  0  0
 76 84  1  0  0  0
 76149  1  0  0  0
 76150  1  0  0  0
 76151  1  0  0  0
 77 80  1  0  0  0
 77152  1  0  0  0
 77153  1  0  0  0
 78 79  1  0  0  0
 78 81  1  0  0  0
 78154  1  0  0  0
 78155  1  0  0  0
 79 84  1  0  0  0
 79156  1  0  0  0
 79157  1  0  0  0
 80158  1  0  0  0
 80159  1  0  0  0
 81 85  1  0  0  0
 81160  1  0  0  0
 81161  1  0  0  0
 82 83  1  0  0  0
M  ISO  4   1 100  68 101  80 101  84 100
M  END
> <chiral flag>
0

> <version>
0

> <s_m_source_file>
/data/baiqing/PycharmProjects/Reinvent-master-3.2/result/LINK_invent/BTK/process_docking_weight1_custom_sum_contain_oxygen_bond_distance_aromatic_linkinvent_7_9_3/rearranged_h_0050.sdf

> <i_m_source_file_index>
63

> <r_mmod_Potential_Energy-OPLS-2005>
236.556015014648

> <r_mmod_Stretch_Energy-OPLS-2005>
76.7349853515625

> <r_mmod_Bend_Energy-OPLS-2005>
155.442794799805

> <r_mmod_Torsional_Energy-OPLS-2005>
298.598052978516

> <r_mmod_Improper_Torsional_Energy-OPLS-2005>
4.69387817382812

> <r_mmod_Van_der_Waal_Energy-OPLS-2005>
172.902450561523

> <r_mmod_Electrostatic_Energy-OPLS-2005>
-295.093322753906

> <r_mmod_Solvation_Energy-OPLS-2005>
-213.420166015625

> <b_mmod_Minimization_Converged-OPLS-2005>
0

> <r_mmod_RMS_Derivative-OPLS-2005>
2.14569735527039

$$$$
67
                    3D
 Structure written by MMmdl.
157165  0  0  1  0            999 V2000
  -30.5605  -14.7546   20.5001 C   0  0  0  0  0  0
  -30.4386  -12.4687   19.4840 C   0  0  0  0  0  0
  -29.5112  -12.4978   18.2471 C   0  0  0  0  0  0
  -28.0400  -12.3051   18.6625 C   0  0  0  0  0  0
  -27.6393  -13.2151   19.8519 C   0  0  2  0  0  0
  -28.6729  -13.1406   20.9935 C   0  0  0  0  0  0
  -25.2542  -13.8157   20.5686 C   0  0  0  0  0  0
  -24.1825  -13.0414   20.9230 C   0  0  0  0  0  0
  -24.6391  -11.6897   20.8791 C   0  0  0  0  0  0
  -23.9068  -10.4280   21.0440 C   0  0  0  0  0  0
  -24.3628   -9.4200   21.9215 C   0  0  0  0  0  0
  -23.6314   -8.2233   22.0749 C   0  0  0  0  0  0
  -22.4289   -8.0287   21.3557 C   0  0  0  0  0  0
  -21.9943   -9.0248   20.4652 C   0  0  0  0  0  0
  -22.7256  -10.2134   20.3082 C   0  0  0  0  0  0
  -21.6854   -6.0777   22.5299 C   0  0  0  0  0  0
  -21.3999   -6.5670   23.8232 C   0  0  0  0  0  0
  -21.3661   -5.6815   24.9193 C   0  0  0  0  0  0
  -21.6020   -4.3070   24.7227 C   0  0  0  0  0  0
  -21.8832   -3.8185   23.4336 C   0  0  0  0  0  0
  -21.9185   -4.7012   22.3406 C   0  0  0  0  0  0
  -22.7864  -13.5229   21.1858 C   0  0  0  0  0  0
  -22.1681   -4.2210   21.0986 F   0  0  0  0  0  0
  -21.5620   -3.4548   25.7726 F   0  0  0  0  0  0
  -29.9700  -13.5139   20.4232 N   0  0  0  0  0  0
  -26.2919  -12.9321   20.3280 N   0  0  0  0  0  0
  -25.9308  -11.6469   20.5760 N   0  0  0  0  0  0
  -22.0493  -12.8222   22.0414 N   0  0  0  0  0  0
  -25.4231  -15.1864   20.4035 N   0  0  0  0  0  0
  -31.7450  -14.8873   20.1782 O   0  0  0  0  0  0
  -21.6635   -6.8907   21.4253 O   0  0  0  0  0  0
  -22.3571  -14.5522   20.6680 O   0  0  0  0  0  0
  -24.6248  -31.8533   23.2002 C   0  0  0  0  0  0
  -25.9079  -32.4748   23.8350 C   0  0  1  0  0  0
  -27.2105  -27.2735   20.1310 C   0  0  0  0  0  0
  -25.5944  -33.8568   24.2290 N   0  0  0  0  0  0
  -23.4208  -30.4763   21.5406 C   0  0  2  0  0  0
  -24.8675  -28.9199   20.1080 C   0  0  0  0  0  0
  -22.7445  -29.4605   22.4909 C   0  0  0  0  0  0
  -18.0292  -28.1326   22.8497 C   0  0  0  0  0  0
  -24.1505  -36.7280   23.2642 C   0  0  0  0  0  0
  -25.9621  -30.7742   21.3714 C   0  0  0  0  0  0
  -26.0337  -29.3967   20.7152 C   0  0  0  0  0  0
  -27.2111  -28.5869   20.7104 C   0  0  0  0  0  0
  -26.0195  -26.8527   19.5032 C   0  0  0  0  0  0
  -24.8628  -27.6580   19.4958 C   0  0  0  0  0  0
  -23.6380  -29.8023   20.1571 C   0  0  0  0  0  0
  -25.4133  -36.3071   24.0316 C   0  0  1  0  0  0
  -20.5904  -28.3658   23.1264 C   0  0  2  0  0  0
  -20.6797  -26.9385   22.5385 C   0  0  0  0  0  0
  -19.5775  -26.6348   21.5185 C   0  0  0  0  0  0
  -18.1952  -26.7874   22.1601 C   0  0  0  0  0  0
  -19.1540  -28.8819   23.2869 C   0  0  0  0  0  0
  -18.9473  -30.1427   23.8862 C   0  0  0  0  0  0
  -17.6474  -30.6541   24.0552 C   0  0  0  0  0  0
  -25.9060  -34.9433   23.5094 C   0  0  0  0  0  0
  -16.5366  -29.9033   23.6327 C   0  0  0  0  0  0
  -16.7275  -28.6442   23.0345 C   0  0  0  0  0  0
  -26.4480  -31.6566   25.0711 C   0  0  0  0  0  0
  -25.3726  -31.3651   26.1451 C   0  0  0  0  0  0
  -27.0316  -30.2988   24.6168 C   0  0  0  0  0  0
  -27.6064  -32.4298   25.7432 C   0  0  0  0  0  0
  -27.5571  -37.1815   24.8478 C   0  0  0  0  0  0
  -21.4170  -29.3024   22.3651 N   0  0  0  0  0  0
  -26.4331  -37.3748   23.9352 N   0  0  0  0  0  0
  -24.6881  -31.0553   22.0944 N   0  0  0  0  0  0
  -23.4154  -28.8131   23.2985 O   0  0  0  0  0  0
  -28.3265  -26.4196   20.2288 O   0  0  0  0  0  0
  -26.5619  -34.8890   22.4663 O   0  0  0  0  0  0
  -23.5419  -32.1395   23.7313 O   0  0  0  0  0  0
  -30.9453  -21.8906   21.8138 C   0  0  0  0  0  0
  -30.6919  -20.5156   21.7015 C   0  0  0  0  0  0
  -29.5099  -20.1108   21.0288 C   0  0  0  0  0  0
  -28.9854  -22.4751   20.7873 C   0  0  0  0  0  0
  -27.9817  -18.3906   19.8615 C   0  0  0  0  0  0
  -28.2962  -18.2795   22.3179 C   0  0  0  0  0  0
  -27.9718  -23.6900   20.5726 C   0  0  0  0  0  0
  -30.1360  -17.3500   20.7691 C   0  0  0  0  0  0
  -28.3774  -25.0075   19.7165 C   0  0  0  0  0  0
  -29.0293  -18.5551   20.9847 C   0  0  0  0  0  0
  -30.1139  -22.8488   21.3636 N   0  0  0  0  0  0
  -28.6554  -21.1480   20.6155 N   0  0  0  0  0  0
  -29.7534  -15.8607   20.7447 N   0  0  0  0  0  0
  -31.8210  -19.4648   22.4815 Cl  0  0  0  0  0  0
  -31.4737  -12.6263   19.1759 H   0  0  0  0  0  0
  -30.4153  -11.4884   19.9639 H   0  0  0  0  0  0
  -29.8040  -11.7207   17.5381 H   0  0  0  0  0  0
  -29.6207  -13.4487   17.7252 H   0  0  0  0  0  0
  -27.9130  -11.2580   18.9399 H   0  0  0  0  0  0
  -27.3767  -12.4720   17.8133 H   0  0  0  0  0  0
  -27.6412  -14.2348   19.4666 H   0  0  0  0  0  0
  -28.7140  -12.1391   21.4229 H   0  0  0  0  0  0
  -28.3920  -13.8074   21.8108 H   0  0  0  0  0  0
  -25.2761   -9.5681   22.4817 H   0  0  0  0  0  0
  -24.0031   -7.4620   22.7455 H   0  0  0  0  0  0
  -21.0894   -8.8777   19.8948 H   0  0  0  0  0  0
  -22.3727  -10.9693   19.6212 H   0  0  0  0  0  0
  -21.1983   -7.6179   23.9768 H   0  0  0  0  0  0
  -21.1473   -6.0531   25.9101 H   0  0  0  0  0  0
  -22.0588   -2.7649   23.2811 H   0  0  0  0  0  0
  -22.4108  -11.9863   22.4770 H   0  0  0  0  0  0
  -21.1120  -13.1265   22.2598 H   0  0  0  0  0  0
  -24.6304  -15.8169   20.4650 H   0  0  0  0  0  0
  -26.2329  -15.6084   19.9702 H   0  0  0  0  0  0
  -26.7110  -32.5448   23.1057 H   0  0  0  0  0  0
  -25.0177  -33.9749   25.0504 H   0  0  0  0  0  0
  -22.7177  -31.2978   21.3870 H   0  0  0  0  0  0
  -23.3738  -35.9639   23.3381 H   0  0  0  0  0  0
  -24.3560  -36.8838   22.2038 H   0  0  0  0  0  0
  -23.7314  -37.6525   23.6606 H   0  0  0  0  0  0
  -26.1028  -31.5352   20.6015 H   0  0  0  0  0  0
  -26.8408  -30.8279   22.0040 H   0  0  0  0  0  0
  -28.1109  -28.9484   21.1889 H   0  0  0  0  0  0
  -25.9413  -25.8791   19.0461 H   0  0  0  0  0  0
  -23.9590  -27.2810   19.0315 H   0  0  0  0  0  0
  -23.7495  -30.5722   19.3942 H   0  0  0  0  0  0
  -22.7626  -29.2211   19.8617 H   0  0  0  0  0  0
  -25.1312  -36.1957   25.0807 H   0  0  0  0  0  0
  -21.0012  -28.3245   24.1359 H   0  0  0  0  0  0
  -20.5718  -26.2233   23.3560 H   0  0  0  0  0  0
  -21.6659  -26.7399   22.1184 H   0  0  0  0  0  0
  -19.6947  -25.6258   21.1221 H   0  0  0  0  0  0
  -19.6757  -27.3136   20.6715 H   0  0  0  0  0  0
  -17.4229  -26.6641   21.3976 H   0  0  0  0  0  0
  -18.0369  -25.9955   22.8957 H   0  0  0  0  0  0
  -19.7950  -30.7271   24.2178 H   0  0  0  0  0  0
  -17.5021  -31.6231   24.5154 H   0  0  0  0  0  0
  -15.5364  -30.2931   23.7654 H   0  0  0  0  0  0
  -15.8667  -28.0761   22.7060 H   0  0  0  0  0  0
  -24.5947  -30.6941   25.7793 H   0  0  0  0  0  0
  -24.8851  -32.2778   26.4907 H   0  0  0  0  0  0
  -25.8107  -30.8846   27.0232 H   0  0  0  0  0  0
  -26.2882  -29.6730   24.1240 H   0  0  0  0  0  0
  -27.4045  -29.7252   25.4675 H   0  0  0  0  0  0
  -27.8723  -30.4222   23.9338 H   0  0  0  0  0  0
  -27.2704  -33.3635   26.1943 H   0  0  0  0  0  0
  -28.3858  -32.6832   25.0228 H   0  0  0  0  0  0
  -28.0713  -31.8478   26.5393 H   0  0  0  0  0  0
  -28.2656  -38.0057   24.7435 H   0  0  0  0  0  0
  -28.1025  -36.2586   24.6450 H   0  0  0  0  0  0
  -27.2273  -37.1652   25.8890 H   0  0  0  0  0  0
  -20.9310  -29.8732   21.6880 H   0  0  0  0  0  0
  -26.0229  -38.2831   24.1322 H   0  0  0  0  0  0
  -31.8235  -22.2433   22.3340 H   0  0  0  0  0  0
  -27.1104  -19.0229   20.0424 H   0  0  0  0  0  0
  -27.6179  -17.3668   19.8048 H   0  0  0  0  0  0
  -28.3826  -18.6668   18.8864 H   0  0  0  0  0  0
  -27.4733  -18.9830   22.4585 H   0  0  0  0  0  0
  -28.9620  -18.3913   23.1744 H   0  0  0  0  0  0
  -27.8720  -17.2763   22.3630 H   0  0  0  0  0  0
  -27.6710  -24.0203   21.5662 H   0  0  0  0  0  0
  -27.0659  -23.2649   20.1396 H   0  0  0  0  0  0
  -30.8630  -17.3684   21.5720 H   0  0  0  0  0  0
  -30.6985  -17.5638   19.8618 H   0  0  0  0  0  0
  -27.8835  -24.9643   18.7427 H   0  0  0  0  0  0
  -29.4286  -24.8773   19.4639 H   0  0  0  0  0  0
  -28.7864  -15.6497   20.9372 H   0  0  0  0  0  0
  1 25  1  0  0  0
  1 30  2  0  0  0
  1 83  1  0  0  0
  2  3  1  0  0  0
  2 25  1  0  0  0
  2 85  1  0  0  0
  2 86  1  0  0  0
  3  4  1  0  0  0
  3 87  1  0  0  0
  3 88  1  0  0  0
  4  5  1  0  0  0
  4 89  1  0  0  0
  4 90  1  0  0  0
  5  6  1  0  0  0
  5 26  1  0  0  0
  5 91  1  0  0  0
  6 25  1  0  0  0
  6 92  1  0  0  0
  6 93  1  0  0  0
  7  8  2  0  0  0
  7 26  1  0  0  0
  7 29  1  0  0  0
  8  9  1  0  0  0
  8 22  1  0  0  0
  9 10  1  0  0  0
  9 27  2  0  0  0
 10 11  2  0  0  0
 10 15  1  0  0  0
 11 12  1  0  0  0
 11 94  1  0  0  0
 12 13  2  0  0  0
 12 95  1  0  0  0
 13 14  1  0  0  0
 13 31  1  0  0  0
 14 15  2  0  0  0
 14 96  1  0  0  0
 15 97  1  0  0  0
 16 17  2  0  0  0
 16 21  1  0  0  0
 16 31  1  0  0  0
 17 18  1  0  0  0
 17 98  1  0  0  0
 18 19  2  0  0  0
 18 99  1  0  0  0
 19 20  1  0  0  0
 19 24  1  0  0  0
 20 21  2  0  0  0
 20100  1  0  0  0
 21 23  1  0  0  0
 22 28  1  0  0  0
 22 32  2  0  0  0
 26 27  1  0  0  0
 28101  1  0  0  0
 28102  1  0  0  0
 29103  1  0  0  0
 29104  1  0  0  0
 33 34  1  0  0  0
 33 66  1  0  0  0
 33 70  2  0  0  0
 34 36  1  0  0  0
 34 59  1  0  0  0
 34105  1  0  0  0
 35 44  2  0  0  0
 35 45  1  0  0  0
 35 68  1  0  0  0
 36 56  1  0  0  0
 36106  1  0  0  0
 37 39  1  0  0  0
 37 47  1  0  0  0
 37 66  1  0  0  0
 37107  1  0  0  0
 38 43  2  0  0  0
 38 46  1  0  0  0
 38 47  1  0  0  0
 39 64  1  0  0  0
 39 67  2  0  0  0
 40 52  1  0  0  0
 40 53  2  0  0  0
 40 58  1  0  0  0
 41108  1  0  0  0
 41109  1  0  0  0
 41110  1  0  0  0
 41 48  1  0  0  0
 42 43  1  0  0  0
 42 66  1  0  0  0
 42111  1  0  0  0
 42112  1  0  0  0
 43 44  1  0  0  0
 44113  1  0  0  0
 45 46  2  0  0  0
 45114  1  0  0  0
 46115  1  0  0  0
 47116  1  0  0  0
 47117  1  0  0  0
 48 56  1  0  0  0
 48 65  1  0  0  0
 48118  1  0  0  0
 49 50  1  0  0  0
 49 53  1  0  0  0
 49 64  1  0  0  0
 49119  1  0  0  0
 50 51  1  0  0  0
 50120  1  0  0  0
 50121  1  0  0  0
 51 52  1  0  0  0
 51122  1  0  0  0
 51123  1  0  0  0
 52124  1  0  0  0
 52125  1  0  0  0
 53 54  1  0  0  0
 54 55  2  0  0  0
 54126  1  0  0  0
 55 57  1  0  0  0
 55127  1  0  0  0
 56 69  2  0  0  0
 57 58  2  0  0  0
 57128  1  0  0  0
 58129  1  0  0  0
 59 60  1  0  0  0
 59 61  1  0  0  0
 59 62  1  0  0  0
 60130  1  0  0  0
 60131  1  0  0  0
 60132  1  0  0  0
 61133  1  0  0  0
 61134  1  0  0  0
 61135  1  0  0  0
 62136  1  0  0  0
 62137  1  0  0  0
 62138  1  0  0  0
 63 65  1  0  0  0
 63139  1  0  0  0
 63140  1  0  0  0
 63141  1  0  0  0
 64142  1  0  0  0
 65143  1  0  0  0
 68 79  1  0  0  0
 71 72  2  0  0  0
 71 81  1  0  0  0
 71144  1  0  0  0
 72 73  1  0  0  0
 72 84  1  0  0  0
 73 80  1  0  0  0
 73 82  2  0  0  0
 74 77  1  0  0  0
 74 81  2  0  0  0
 74 82  1  0  0  0
 75145  1  0  0  0
 75146  1  0  0  0
 75147  1  0  0  0
 75 80  1  0  0  0
 76 80  1  0  0  0
 76148  1  0  0  0
 76149  1  0  0  0
 76150  1  0  0  0
 77 79  1  0  0  0
 77151  1  0  0  0
 77152  1  0  0  0
 78 80  1  0  0  0
 78 83  1  0  0  0
 78153  1  0  0  0
 78154  1  0  0  0
 79155  1  0  0  0
 79156  1  0  0  0
 83157  1  0  0  0
M  ISO  4   1 100  68 101  79 101  83 100
M  END
> <chiral flag>
0

> <version>
0

> <s_m_source_file>
/data/baiqing/PycharmProjects/Reinvent-master-3.2/result/LINK_invent/BTK/process_docking_weight1_custom_sum_contain_oxygen_bond_distance_aromatic_linkinvent_7_9_3/rearranged_h_0050.sdf

> <i_m_source_file_index>
64

> <r_mmod_Potential_Energy-OPLS-2005>
-134.549499511719

> <r_mmod_Stretch_Energy-OPLS-2005>
141.144454956055

> <r_mmod_Bend_Energy-OPLS-2005>
198.217391967773

> <r_mmod_Torsional_Energy-OPLS-2005>
213.153366088867

> <r_mmod_Improper_Torsional_Energy-OPLS-2005>
7.87447595596313

> <r_mmod_Van_der_Waal_Energy-OPLS-2005>
145.592788696289

> <r_mmod_Electrostatic_Energy-OPLS-2005>
-700.5556640625

> <r_mmod_Solvation_Energy-OPLS-2005>
-225.446624755859

> <b_mmod_Minimization_Converged-OPLS-2005>
0

> <r_mmod_RMS_Derivative-OPLS-2005>
5.66783428192139

$$$$
68
                    3D
 Structure written by MMmdl.
164172  0  0  1  0            999 V2000
  -30.1428  -15.6478   20.0574 C   0  0  0  0  0  0
  -30.3852  -13.0740   19.4828 C   0  0  0  0  0  0
  -29.5139  -12.6304   18.2800 C   0  0  0  0  0  0
  -28.0886  -12.2853   18.7361 C   0  0  0  0  0  0
  -27.5607  -13.2974   19.7762 C   0  0  2  0  0  0
  -28.5800  -13.6466   20.8741 C   0  0  0  0  0  0
  -25.2204  -13.8248   20.5813 C   0  0  0  0  0  0
  -24.1632  -13.0408   20.9330 C   0  0  0  0  0  0
  -24.6339  -11.6909   20.8819 C   0  0  0  0  0  0
  -23.9080  -10.4259   21.0414 C   0  0  0  0  0  0
  -24.3624   -9.4166   21.9187 C   0  0  0  0  0  0
  -23.6294   -8.2207   22.0758 C   0  0  0  0  0  0
  -22.4273   -8.0260   21.3548 C   0  0  0  0  0  0
  -21.9926   -9.0232   20.4628 C   0  0  0  0  0  0
  -22.7267  -10.2103   20.3038 C   0  0  0  0  0  0
  -21.6853   -6.0726   22.5280 C   0  0  0  0  0  0
  -21.4024   -6.5637   23.8215 C   0  0  0  0  0  0
  -21.3677   -5.6789   24.9177 C   0  0  0  0  0  0
  -21.6038   -4.3051   24.7225 C   0  0  0  0  0  0
  -21.8822   -3.8146   23.4349 C   0  0  0  0  0  0
  -21.9185   -4.6956   22.3401 C   0  0  0  0  0  0
  -22.7633  -13.5102   21.1987 C   0  0  0  0  0  0
  -22.1656   -4.2144   21.0977 F   0  0  0  0  0  0
  -21.5626   -3.4535   25.7740 F   0  0  0  0  0  0
  -29.7209  -14.2603   20.1709 N   0  0  0  0  0  0
  -26.2575  -12.9552   20.3095 N   0  0  0  0  0  0
  -25.9244  -11.6654   20.5660 N   0  0  0  0  0  0
  -22.0321  -12.8069   22.0530 N   0  0  0  0  0  0
  -25.3765  -15.2016   20.4282 N   0  0  0  0  0  0
  -31.3861  -15.6435   19.9428 O   0  0  0  0  0  0
  -21.6639   -6.8858   21.4235 O   0  0  0  0  0  0
  -22.3314  -14.5408   20.6809 O   0  0  0  0  0  0
  -24.6974  -31.7712   23.0220 C   0  0  0  0  0  0
  -25.9478  -32.4209   23.7175 C   0  0  1  0  0  0
  -27.8461  -26.9375   20.6035 C   0  0  0  0  0  0
  -25.5967  -33.8015   24.1332 N   0  0  0  0  0  0
  -23.4223  -30.3932   21.4175 C   0  0  2  0  0  0
  -24.6253  -28.5909   19.9429 C   0  0  0  0  0  0
  -22.7080  -29.4984   22.4568 C   0  0  0  0  0  0
  -18.0288  -28.1391   22.8481 C   0  0  0  0  0  0
  -24.1502  -36.7120   23.2679 C   0  0  0  0  0  0
  -25.9434  -30.6887   20.9273 C   0  0  0  0  0  0
  -26.0630  -29.3003   20.0601 C   0  0  0  0  0  0
  -27.5032  -28.5120   20.2264 C   0  0  0  0  0  0
  -26.7610  -25.9240   20.6776 C   0  0  0  0  0  0
  -24.3740  -26.9607   20.2947 C   0  0  0  0  0  0
  -23.5009  -29.6263   20.0552 C   0  0  0  0  0  0
  -25.4165  -36.2752   24.0233 C   0  0  1  0  0  0
  -20.5827  -28.3773   23.1269 C   0  0  2  0  0  0
  -20.6726  -26.9392   22.5704 C   0  0  0  0  0  0
  -19.5841  -26.6311   21.5376 C   0  0  0  0  0  0
  -18.1973  -26.7912   22.1668 C   0  0  0  0  0  0
  -19.1503  -28.8903   23.2861 C   0  0  0  0  0  0
  -18.9410  -30.1508   23.8861 C   0  0  0  0  0  0
  -17.6390  -30.6593   24.0542 C   0  0  0  0  0  0
  -25.9161  -34.9202   23.4684 C   0  0  0  0  0  0
  -16.5304  -29.9056   23.6315 C   0  0  0  0  0  0
  -16.7265  -28.6481   23.0335 C   0  0  0  0  0  0
  -26.4549  -31.6330   24.9975 C   0  0  0  0  0  0
  -25.3633  -31.3672   26.0645 C   0  0  0  0  0  0
  -27.0359  -30.2745   24.5618 C   0  0  0  0  0  0
  -27.5970  -32.4114   25.7008 C   0  0  0  0  0  0
  -27.5571  -37.1696   24.8427 C   0  0  0  0  0  0
  -21.3915  -29.2900   22.3182 N   0  0  0  0  0  0
  -26.4225  -37.3594   23.9444 N   0  0  0  0  0  0
  -24.7438  -30.9583   21.8739 N   0  0  0  0  0  0
  -23.3457  -29.0043   23.3746 O   0  0  0  0  0  0
  -27.9696  -26.2002   21.8824 O   0  0  0  0  0  0
  -26.5895  -34.8964   22.4369 O   0  0  0  0  0  0
  -23.6172  -32.0622   23.5725 O   0  0  0  0  0  0
  -25.8578  -27.5892   21.6806 C   0  0  0  0  0  0
  -25.1978  -25.1787   19.0844 C   0  0  0  0  0  0
  -26.0186  -26.7598   18.9136 C   0  0  0  0  0  0
  -25.1888  -26.4653   22.5837 C   0  0  0  0  0  0
  -25.1474  -25.0258   22.1041 C   0  0  0  0  0  0
  -24.6308  -26.6646   23.9893 C   0  0  0  0  0  0
  -29.0527  -24.0280   19.3573 C   0  0  0  0  0  0
  -27.0525  -25.2766   18.2116 C   0  0  0  0  0  0
  -26.8230  -25.1275   22.7452 C   0  0  0  0  0  0
  -28.3461  -20.3610   19.4872 C   0  0  0  0  0  0
  -29.1512  -18.5994   19.2097 C   0  0  0  0  0  0
  -27.8198  -21.9904   18.5270 C   0  0  0  0  0  0
  -24.8383  -24.5302   20.5607 N   0  0  0  0  0  0
  -29.2660  -16.9422   19.8923 N   0  0  0  0  0  0
  -27.6747  -23.7134   18.8998 N   0  3  1  0  0  0
  -31.3794  -13.3571   19.1289 H   0  0  0  0  0  0
  -30.5507  -12.2478   20.1742 H   0  0  0  0  0  0
  -29.9663  -11.7824   17.7593 H   0  0  0  0  0  0
  -29.4707  -13.4447   17.5542 H   0  0  0  0  0  0
  -28.1109  -11.2897   19.1812 H   0  0  0  0  0  0
  -27.4148  -12.2305   17.8771 H   0  0  0  0  0  0
  -27.4029  -14.2065   19.1918 H   0  0  0  0  0  0
  -28.8566  -12.7789   21.4724 H   0  0  0  0  0  0
  -28.1580  -14.3734   21.5668 H   0  0  0  0  0  0
  -25.2760   -9.5656   22.4773 H   0  0  0  0  0  0
  -23.9993   -7.4605   22.7490 H   0  0  0  0  0  0
  -21.0844   -8.8744   19.8932 H   0  0  0  0  0  0
  -22.3722  -10.9630   19.6147 H   0  0  0  0  0  0
  -21.2035   -7.6149   23.9724 H   0  0  0  0  0  0
  -21.1498   -6.0519   25.9083 H   0  0  0  0  0  0
  -22.0583   -2.7604   23.2850 H   0  0  0  0  0  0
  -22.4020  -11.9732   22.4871 H   0  0  0  0  0  0
  -21.0932  -13.1067   22.2775 H   0  0  0  0  0  0
  -24.5996  -15.8424   20.5550 H   0  0  0  0  0  0
  -26.2018  -15.6476   20.0574 H   0  0  0  0  0  0
  -26.7602  -32.4630   22.9914 H   0  0  0  0  0  0
  -25.0088  -33.8838   24.9496 H   0  0  0  0  0  0
  -22.7605  -31.2442   21.2543 H   0  0  0  0  0  0
  -23.3814  -35.9387   23.3114 H   0  0  0  0  0  0
  -24.3575  -36.9095   22.2145 H   0  0  0  0  0  0
  -23.7208  -37.6176   23.6999 H   0  0  0  0  0  0
  -25.9465  -31.5109   20.2115 H   0  0  0  0  0  0
  -26.8669  -30.7963   21.4967 H   0  0  0  0  0  0
  -28.3236  -29.1776   20.4579 H   0  0  0  0  0  0
  -27.0528  -24.8840   20.6402 H   0  0  0  0  0  0
  -23.3985  -26.4962   20.3046 H   0  0  0  0  0  0
  -23.6679  -30.3580   19.2637 H   0  0  0  0  0  0
  -22.5504  -29.1471   19.8082 H   0  0  0  0  0  0
  -25.1421  -36.1380   25.0727 H   0  0  0  0  0  0
  -21.0008  -28.3606   24.1349 H   0  0  0  0  0  0
  -20.5387  -26.2478   23.4033 H   0  0  0  0  0  0
  -21.6679  -26.7247   22.1769 H   0  0  0  0  0  0
  -19.7043  -25.6179   21.1559 H   0  0  0  0  0  0
  -19.6907  -27.3034   20.6856 H   0  0  0  0  0  0
  -17.4286  -26.6628   21.4037 H   0  0  0  0  0  0
  -18.0325  -26.0087   22.9102 H   0  0  0  0  0  0
  -19.7885  -30.7367   24.2190 H   0  0  0  0  0  0
  -17.4924  -31.6285   24.5117 H   0  0  0  0  0  0
  -15.5296  -30.2923   23.7618 H   0  0  0  0  0  0
  -15.8696  -28.0775   22.7001 H   0  0  0  0  0  0
  -24.5759  -30.7109   25.6917 H   0  0  0  0  0  0
  -24.8880  -32.2904   26.3980 H   0  0  0  0  0  0
  -25.7801  -30.8839   26.9491 H   0  0  0  0  0  0
  -26.2715  -29.6363   24.1203 H   0  0  0  0  0  0
  -27.4525  -29.7259   25.4076 H   0  0  0  0  0  0
  -27.8345  -30.3949   23.8280 H   0  0  0  0  0  0
  -27.2524  -33.3511   26.1366 H   0  0  0  0  0  0
  -28.4045  -32.6492   25.0061 H   0  0  0  0  0  0
  -28.0323  -31.8305   26.5163 H   0  0  0  0  0  0
  -28.2400  -38.0158   24.7599 H   0  0  0  0  0  0
  -28.1242  -36.2687   24.6065 H   0  0  0  0  0  0
  -27.2324  -37.1093   25.8820 H   0  0  0  0  0  0
  -20.9129  -29.7625   21.5641 H   0  0  0  0  0  0
  -26.0003  -38.2604   24.1552 H   0  0  0  0  0  0
  -25.9008  -28.5353   22.1961 H   0  0  0  0  0  0
  -24.8720  -24.5791   18.2383 H   0  0  0  0  0  0
  -24.9602  -27.5844   24.4664 H   0  0  0  0  0  0
  -24.8671  -25.8307   24.6561 H   0  0  0  0  0  0
  -23.5385  -26.6463   23.9134 H   0  0  0  0  0  0
  -29.1401  -24.9880   19.8456 H   0  0  0  0  0  0
  -29.7481  -24.0764   18.5177 H   0  0  0  0  0  0
  -29.4136  -23.2839   20.0660 H   0  0  0  0  0  0
  -27.9594  -25.7885   17.8920 H   0  0  0  0  0  0
  -26.6608  -25.0296   17.2194 H   0  0  0  0  0  0
  -27.2188  -24.1118   22.7281 H   0  0  0  0  0  0
  -26.8682  -25.3678   23.8096 H   0  0  0  0  0  0
  -28.9643  -20.7646   20.2885 H   0  0  0  0  0  0
  -27.4199  -20.1076   20.0097 H   0  0  0  0  0  0
  -30.1940  -18.8463   19.0102 H   0  0  0  0  0  0
  -28.7557  -18.3647   18.2191 H   0  0  0  0  0  0
  -26.8070  -21.7645   18.1889 H   0  0  0  0  0  0
  -28.3929  -21.9842   17.5998 H   0  0  0  0  0  0
  -28.3300  -16.6631   20.1546 H   0  0  0  0  0  0
  -27.0930  -23.6443   19.7215 H   0  0  0  0  0  0
  1 25  1  0  0  0
  1 30  2  0  0  0
  1 84  1  0  0  0
  2  3  1  0  0  0
  2 25  1  0  0  0
  2 86  1  0  0  0
  2 87  1  0  0  0
  3  4  1  0  0  0
  3 88  1  0  0  0
  3 89  1  0  0  0
  4  5  1  0  0  0
  4 90  1  0  0  0
  4 91  1  0  0  0
  5  6  1  0  0  0
  5 26  1  0  0  0
  5 92  1  0  0  0
  6 25  1  0  0  0
  6 93  1  0  0  0
  6 94  1  0  0  0
  7  8  2  0  0  0
  7 26  1  0  0  0
  7 29  1  0  0  0
  8  9  1  0  0  0
  8 22  1  0  0  0
  9 10  1  0  0  0
  9 27  2  0  0  0
 10 11  2  0  0  0
 10 15  1  0  0  0
 11 12  1  0  0  0
 11 95  1  0  0  0
 12 13  2  0  0  0
 12 96  1  0  0  0
 13 14  1  0  0  0
 13 31  1  0  0  0
 14 15  2  0  0  0
 14 97  1  0  0  0
 15 98  1  0  0  0
 16 17  2  0  0  0
 16 21  1  0  0  0
 16 31  1  0  0  0
 17 18  1  0  0  0
 17 99  1  0  0  0
 18 19  2  0  0  0
 18100  1  0  0  0
 19 20  1  0  0  0
 19 24  1  0  0  0
 20 21  2  0  0  0
 20101  1  0  0  0
 21 23  1  0  0  0
 22 28  1  0  0  0
 22 32  2  0  0  0
 26 27  1  0  0  0
 28102  1  0  0  0
 28103  1  0  0  0
 29104  1  0  0  0
 29105  1  0  0  0
 33 34  1  0  0  0
 33 66  1  0  0  0
 33 70  2  0  0  0
 34 36  1  0  0  0
 34 59  1  0  0  0
 34106  1  0  0  0
 35 44  2  0  0  0
 35 45  1  0  0  0
 35 68  1  0  0  0
 36 56  1  0  0  0
 36107  1  0  0  0
 37 39  1  0  0  0
 37 47  1  0  0  0
 37 66  1  0  0  0
 37108  1  0  0  0
 38 43  2  0  0  0
 38 46  1  0  0  0
 38 47  1  0  0  0
 39 64  1  0  0  0
 39 67  2  0  0  0
 40 52  1  0  0  0
 40 53  2  0  0  0
 40 58  1  0  0  0
 41109  1  0  0  0
 41110  1  0  0  0
 41111  1  0  0  0
 41 48  1  0  0  0
 42 43  1  0  0  0
 42 66  1  0  0  0
 42112  1  0  0  0
 42113  1  0  0  0
 43 44  1  0  0  0
 44114  1  0  0  0
 45 46  2  0  0  0
 45115  1  0  0  0
 46116  1  0  0  0
 47117  1  0  0  0
 47118  1  0  0  0
 48 56  1  0  0  0
 48 65  1  0  0  0
 48119  1  0  0  0
 49 50  1  0  0  0
 49 53  1  0  0  0
 49 64  1  0  0  0
 49120  1  0  0  0
 50 51  1  0  0  0
 50121  1  0  0  0
 50122  1  0  0  0
 51 52  1  0  0  0
 51123  1  0  0  0
 51124  1  0  0  0
 52125  1  0  0  0
 52126  1  0  0  0
 53 54  1  0  0  0
 54 55  2  0  0  0
 54127  1  0  0  0
 55 57  1  0  0  0
 55128  1  0  0  0
 56 69  2  0  0  0
 57 58  2  0  0  0
 57129  1  0  0  0
 58130  1  0  0  0
 59 60  1  0  0  0
 59 61  1  0  0  0
 59 62  1  0  0  0
 60131  1  0  0  0
 60132  1  0  0  0
 60133  1  0  0  0
 61134  1  0  0  0
 61135  1  0  0  0
 61136  1  0  0  0
 62137  1  0  0  0
 62138  1  0  0  0
 62139  1  0  0  0
 63 65  1  0  0  0
 63140  1  0  0  0
 63141  1  0  0  0
 63142  1  0  0  0
 64143  1  0  0  0
 65144  1  0  0  0
 68 79  1  0  0  0
 71 73  2  0  0  0
 71 74  1  0  0  0
 71145  1  0  0  0
 72 73  1  0  0  0
 72 83  2  0  0  0
 72146  1  0  0  0
 73 78  1  0  0  0
 74 75  2  0  0  0
 74 76  1  0  0  0
 75 79  1  0  0  0
 75 83  1  0  0  0
 76147  1  0  0  0
 76148  1  0  0  0
 76149  1  0  0  0
 77150  1  0  0  0
 77151  1  0  0  0
 77152  1  0  0  0
 77 85  1  0  0  0
 78 85  1  0  0  0
 78153  1  0  0  0
 78154  1  0  0  0
 79155  1  0  0  0
 79156  1  0  0  0
 80 81  1  0  0  0
 80 82  1  0  0  0
 80157  1  0  0  0
 80158  1  0  0  0
 81 84  1  0  0  0
 81159  1  0  0  0
 81160  1  0  0  0
 82 85  1  0  0  0
 82161  1  0  0  0
 82162  1  0  0  0
 84163  1  0  0  0
 85164  1  0  0  0
M  CHG  1  85   1
M  ISO  4   1 100  68 101  79 101  84 100
M  END
> <chiral flag>
0

> <version>
0

> <s_m_source_file>
/data/baiqing/PycharmProjects/Reinvent-master-3.2/result/LINK_invent/BTK/process_docking_weight1_custom_sum_contain_oxygen_bond_distance_aromatic_linkinvent_7_9_3/rearranged_h_0050.sdf

> <i_m_source_file_index>
65

> <r_mmod_Potential_Energy-OPLS-2005>
17686.30078125

> <r_mmod_Stretch_Energy-OPLS-2005>
10359.818359375

> <r_mmod_Bend_Energy-OPLS-2005>
1516.41979980469

> <r_mmod_Torsional_Energy-OPLS-2005>
649.751892089844

> <r_mmod_Improper_Torsional_Energy-OPLS-2005>
118.192100524902

> <r_mmod_Van_der_Waal_Energy-OPLS-2005>
4109.619140625

> <r_mmod_Electrostatic_Energy-OPLS-2005>
-334.803588867188

> <r_mmod_Solvation_Energy-OPLS-2005>
-440.961517333984

> <b_mmod_Minimization_Converged-OPLS-2005>
0

> <r_mmod_RMS_Derivative-OPLS-2005>
19.403923034668

$$$$
69
                    3D
 Structure written by MMmdl.
163171  0  0  1  0            999 V2000
  -30.6070  -14.8568   20.4256 C   0  0  0  0  0  0
  -30.4515  -12.5300   19.4582 C   0  0  0  0  0  0
  -29.5119  -12.4271   18.2351 C   0  0  0  0  0  0
  -28.0537  -12.1791   18.6760 C   0  0  0  0  0  0
  -27.6221  -13.1286   19.8106 C   0  0  2  0  0  0
  -28.6879  -13.1971   20.9427 C   0  0  0  0  0  0
  -25.2508  -13.7872   20.5684 C   0  0  0  0  0  0
  -24.1754  -13.0259   20.9267 C   0  0  0  0  0  0
  -24.6262  -11.6727   20.8826 C   0  0  0  0  0  0
  -23.8934  -10.4186   21.0476 C   0  0  0  0  0  0
  -24.3528   -9.4117   21.9230 C   0  0  0  0  0  0
  -23.6227   -8.2152   22.0765 C   0  0  0  0  0  0
  -22.4215   -8.0214   21.3542 C   0  0  0  0  0  0
  -21.9834   -9.0183   20.4649 C   0  0  0  0  0  0
  -22.7140  -10.2065   20.3083 C   0  0  0  0  0  0
  -21.6820   -6.0700   22.5283 C   0  0  0  0  0  0
  -21.3989   -6.5617   23.8213 C   0  0  0  0  0  0
  -21.3649   -5.6777   24.9179 C   0  0  0  0  0  0
  -21.6043   -4.3041   24.7233 C   0  0  0  0  0  0
  -21.8823   -3.8127   23.4357 C   0  0  0  0  0  0
  -21.9184   -4.6937   22.3410 C   0  0  0  0  0  0
  -22.7811  -13.5160   21.1907 C   0  0  0  0  0  0
  -22.1659   -4.2126   21.0988 F   0  0  0  0  0  0
  -21.5632   -3.4529   25.7748 F   0  0  0  0  0  0
  -29.9568  -13.6271   20.3305 N   0  0  0  0  0  0
  -26.2817  -12.8880   20.3164 N   0  0  0  0  0  0
  -25.9138  -11.6155   20.5795 N   0  0  0  0  0  0
  -22.0420  -12.8199   22.0466 N   0  0  0  0  0  0
  -25.4073  -15.1589   20.4101 N   0  0  0  0  0  0
  -31.8307  -14.8681   20.2588 O   0  0  0  0  0  0
  -21.6584   -6.8822   21.4237 O   0  0  0  0  0  0
  -22.3550  -14.5483   20.6739 O   0  0  0  0  0  0
  -24.6264  -31.8577   23.1990 C   0  0  0  0  0  0
  -25.9103  -32.4772   23.8333 C   0  0  1  0  0  0
  -27.2496  -27.3106   20.1397 C   0  0  0  0  0  0
  -25.5913  -33.8571   24.2265 N   0  0  0  0  0  0
  -23.4230  -30.4759   21.5410 C   0  0  2  0  0  0
  -24.8768  -28.9189   20.1190 C   0  0  0  0  0  0
  -22.7478  -29.4609   22.4937 C   0  0  0  0  0  0
  -18.0287  -28.1384   22.8490 C   0  0  0  0  0  0
  -24.1489  -36.7293   23.2640 C   0  0  0  0  0  0
  -25.9623  -30.7870   21.3702 C   0  0  0  0  0  0
  -26.0422  -29.4093   20.7212 C   0  0  0  0  0  0
  -27.2304  -28.6195   20.7153 C   0  0  0  0  0  0
  -26.0612  -26.8669   19.5183 C   0  0  0  0  0  0
  -24.8885  -27.6531   19.5075 C   0  0  0  0  0  0
  -23.6420  -29.7992   20.1607 C   0  0  0  0  0  0
  -25.4115  -36.3080   24.0328 C   0  0  1  0  0  0
  -20.5886  -28.3691   23.1289 C   0  0  2  0  0  0
  -20.6776  -26.9413   22.5417 C   0  0  0  0  0  0
  -19.5754  -26.6384   21.5218 C   0  0  0  0  0  0
  -18.1932  -26.7929   22.1625 C   0  0  0  0  0  0
  -19.1538  -28.8855   23.2884 C   0  0  0  0  0  0
  -18.9459  -30.1457   23.8899 C   0  0  0  0  0  0
  -17.6458  -30.6587   24.0563 C   0  0  0  0  0  0
  -25.9049  -34.9449   23.5102 C   0  0  0  0  0  0
  -16.5351  -29.9084   23.6330 C   0  0  0  0  0  0
  -16.7274  -28.6501   23.0354 C   0  0  0  0  0  0
  -26.4489  -31.6584   25.0706 C   0  0  0  0  0  0
  -25.3724  -31.3717   26.1432 C   0  0  0  0  0  0
  -27.0337  -30.3011   24.6155 C   0  0  0  0  0  0
  -27.6042  -32.4325   25.7485 C   0  0  0  0  0  0
  -27.5581  -37.1802   24.8464 C   0  0  0  0  0  0
  -21.4190  -29.3040   22.3678 N   0  0  0  0  0  0
  -26.4293  -37.3775   23.9406 N   0  0  0  0  0  0
  -24.6891  -31.0575   22.0942 N   0  0  0  0  0  0
  -23.4191  -28.8163   23.3037 O   0  0  0  0  0  0
  -28.3995  -26.5010   20.1340 O   0  0  0  0  0  0
  -26.5622  -34.8920   22.4670 O   0  0  0  0  0  0
  -23.5426  -32.1374   23.7315 O   0  0  0  0  0  0
  -30.9171  -20.9780   21.3943 C   0  0  0  0  0  0
  -29.9516  -20.3338   20.6579 C   0  0  0  0  0  0
  -29.7188  -22.6297   20.4182 C   0  0  0  0  0  0
  -27.1092  -16.5528   17.8572 C   0  0  0  0  0  0
  -28.0564  -21.2679   19.2041 C   0  0  0  0  0  0
  -29.5554  -18.8310   20.5034 C   0  0  0  0  0  0
  -29.3842  -24.0691   19.8713 C   0  0  0  0  0  0
  -28.4952  -16.2780   18.4515 C   0  0  0  0  0  0
  -30.5095  -17.5104   20.7082 C   0  0  0  0  0  0
  -28.5297  -16.2316   20.0013 C   0  0  0  0  0  0
  -28.3266  -25.0674   20.5380 C   0  0  0  0  0  0
  -29.2199  -21.4006   20.0883 N   0  0  0  0  0  0
  -30.7466  -22.3398   21.2316 N   0  3  0  0  0  0
  -29.9062  -16.0935   20.5007 N   0  0  0  0  0  0
  -31.4738  -12.7035   19.1182 H   0  0  0  0  0  0
  -30.4784  -11.5867   20.0062 H   0  0  0  0  0  0
  -29.8390  -11.6147   17.5849 H   0  0  0  0  0  0
  -29.5799  -13.3305   17.6315 H   0  0  0  0  0  0
  -27.9809  -11.1464   19.0192 H   0  0  0  0  0  0
  -27.3779  -12.2649   17.8241 H   0  0  0  0  0  0
  -27.5328  -14.0365   19.2427 H   0  0  0  0  0  0
  -28.8015  -12.2194   21.4130 H   0  0  0  0  0  0
  -28.3934  -13.8686   21.7500 H   0  0  0  0  0  0
  -25.2676   -9.5596   22.4797 H   0  0  0  0  0  0
  -23.9941   -7.4530   22.7465 H   0  0  0  0  0  0
  -21.0771   -8.8693   19.8948 H   0  0  0  0  0  0
  -22.3617  -10.9613   19.6193 H   0  0  0  0  0  0
  -21.1973   -7.6125   23.9707 H   0  0  0  0  0  0
  -21.1468   -6.0510   25.9080 H   0  0  0  0  0  0
  -22.0617   -2.7592   23.2863 H   0  0  0  0  0  0
  -22.3998  -11.9845   22.4854 H   0  0  0  0  0  0
  -21.1053  -13.1270   22.2669 H   0  0  0  0  0  0
  -24.6258  -15.7967   20.5105 H   0  0  0  0  0  0
  -26.2281  -15.5959   20.0139 H   0  0  0  0  0  0
  -26.7171  -32.5449   23.1084 H   0  0  0  0  0  0
  -25.0055  -33.9709   25.0407 H   0  0  0  0  0  0
  -22.7176  -31.2957   21.3909 H   0  0  0  0  0  0
  -23.3752  -35.9625   23.3302 H   0  0  0  0  0  0
  -24.3578  -36.8917   22.2055 H   0  0  0  0  0  0
  -23.7241  -37.6494   23.6665 H   0  0  0  0  0  0
  -26.0887  -31.5459   20.5969 H   0  0  0  0  0  0
  -26.8438  -30.8439   21.9971 H   0  0  0  0  0  0
  -28.1286  -29.0002   21.1808 H   0  0  0  0  0  0
  -26.0347  -25.9027   19.0313 H   0  0  0  0  0  0
  -23.9971  -27.2722   19.0285 H   0  0  0  0  0  0
  -23.7603  -30.5703   19.3985 H   0  0  0  0  0  0
  -22.7637  -29.2244   19.8616 H   0  0  0  0  0  0
  -25.1298  -36.1931   25.0822 H   0  0  0  0  0  0
  -20.9977  -28.3267   24.1410 H   0  0  0  0  0  0
  -20.5683  -26.2298   23.3616 H   0  0  0  0  0  0
  -21.6645  -26.7444   22.1208 H   0  0  0  0  0  0
  -19.6916  -25.6295   21.1248 H   0  0  0  0  0  0
  -19.6695  -27.3196   20.6749 H   0  0  0  0  0  0
  -17.4206  -26.6685   21.4021 H   0  0  0  0  0  0
  -18.0324  -26.0068   22.9017 H   0  0  0  0  0  0
  -19.7933  -30.7275   24.2269 H   0  0  0  0  0  0
  -17.5010  -31.6268   24.5163 H   0  0  0  0  0  0
  -15.5350  -30.2985   23.7650 H   0  0  0  0  0  0
  -15.8674  -28.0819   22.7068 H   0  0  0  0  0  0
  -24.5894  -30.7074   25.7756 H   0  0  0  0  0  0
  -24.8919  -32.2882   26.4868 H   0  0  0  0  0  0
  -25.8048  -30.8883   27.0202 H   0  0  0  0  0  0
  -26.2907  -29.6759   24.1189 H   0  0  0  0  0  0
  -27.4051  -29.7269   25.4654 H   0  0  0  0  0  0
  -27.8768  -30.4305   23.9364 H   0  0  0  0  0  0
  -27.2640  -33.3622   26.2061 H   0  0  0  0  0  0
  -28.3855  -32.6894   25.0318 H   0  0  0  0  0  0
  -28.0707  -31.8452   26.5405 H   0  0  0  0  0  0
  -28.2596  -38.0101   24.7513 H   0  0  0  0  0  0
  -28.1079  -36.2631   24.6290 H   0  0  0  0  0  0
  -27.2296  -37.1451   25.8865 H   0  0  0  0  0  0
  -20.9372  -29.8745   21.6870 H   0  0  0  0  0  0
  -26.0176  -38.2852   24.1403 H   0  0  0  0  0  0
  -31.6976  -20.5745   22.0244 H   0  0  0  0  0  0
  -27.1811  -16.7124   16.7808 H   0  0  0  0  0  0
  -26.6576  -17.4462   18.2901 H   0  0  0  0  0  0
  -26.4274  -15.7168   18.0050 H   0  0  0  0  0  0
  -27.4225  -20.4531   19.5532 H   0  0  0  0  0  0
  -28.4006  -21.0569   18.1917 H   0  0  0  0  0  0
  -27.4686  -22.1856   19.2074 H   0  0  0  0  0  0
  -29.1126  -18.7685   19.5119 H   0  0  0  0  0  0
  -28.7411  -18.7481   21.2230 H   0  0  0  0  0  0
  -29.1276  -23.9352   18.8210 H   0  0  0  0  0  0
  -30.3465  -24.5801   19.8621 H   0  0  0  0  0  0
  -29.1706  -17.0567   18.0968 H   0  0  0  0  0  0
  -28.8904  -15.3606   18.0236 H   0  0  0  0  0  0
  -30.9299  -17.5367   21.7141 H   0  0  0  0  0  0
  -31.3601  -17.5994   20.0312 H   0  0  0  0  0  0
  -27.9130  -15.5078   20.4864 H   0  0  0  0  0  0
  -27.9704  -17.0724   20.3842 H   0  0  0  0  0  0
  -28.4907  -25.0573   21.6158 H   0  0  0  0  0  0
  -27.3254  -24.6614   20.3968 H   0  0  0  0  0  0
  -31.3522  -23.0355   21.6504 H   0  0  0  0  0  0
  1 25  1  0  0  0
  1 30  2  0  0  0
  1 84  1  0  0  0
  2  3  1  0  0  0
  2 25  1  0  0  0
  2 85  1  0  0  0
  2 86  1  0  0  0
  3  4  1  0  0  0
  3 87  1  0  0  0
  3 88  1  0  0  0
  4  5  1  0  0  0
  4 89  1  0  0  0
  4 90  1  0  0  0
  5  6  1  0  0  0
  5 26  1  0  0  0
  5 91  1  0  0  0
  6 25  1  0  0  0
  6 92  1  0  0  0
  6 93  1  0  0  0
  7  8  2  0  0  0
  7 26  1  0  0  0
  7 29  1  0  0  0
  8  9  1  0  0  0
  8 22  1  0  0  0
  9 10  1  0  0  0
  9 27  2  0  0  0
 10 11  2  0  0  0
 10 15  1  0  0  0
 11 12  1  0  0  0
 11 94  1  0  0  0
 12 13  2  0  0  0
 12 95  1  0  0  0
 13 14  1  0  0  0
 13 31  1  0  0  0
 14 15  2  0  0  0
 14 96  1  0  0  0
 15 97  1  0  0  0
 16 17  2  0  0  0
 16 21  1  0  0  0
 16 31  1  0  0  0
 17 18  1  0  0  0
 17 98  1  0  0  0
 18 19  2  0  0  0
 18 99  1  0  0  0
 19 20  1  0  0  0
 19 24  1  0  0  0
 20 21  2  0  0  0
 20100  1  0  0  0
 21 23  1  0  0  0
 22 28  1  0  0  0
 22 32  2  0  0  0
 26 27  1  0  0  0
 28101  1  0  0  0
 28102  1  0  0  0
 29103  1  0  0  0
 29104  1  0  0  0
 33 34  1  0  0  0
 33 66  1  0  0  0
 33 70  2  0  0  0
 34 36  1  0  0  0
 34 59  1  0  0  0
 34105  1  0  0  0
 35 44  2  0  0  0
 35 45  1  0  0  0
 35 68  1  0  0  0
 36 56  1  0  0  0
 36106  1  0  0  0
 37 39  1  0  0  0
 37 47  1  0  0  0
 37 66  1  0  0  0
 37107  1  0  0  0
 38 43  2  0  0  0
 38 46  1  0  0  0
 38 47  1  0  0  0
 39 64  1  0  0  0
 39 67  2  0  0  0
 40 52  1  0  0  0
 40 53  2  0  0  0
 40 58  1  0  0  0
 41108  1  0  0  0
 41109  1  0  0  0
 41110  1  0  0  0
 41 48  1  0  0  0
 42 43  1  0  0  0
 42 66  1  0  0  0
 42111  1  0  0  0
 42112  1  0  0  0
 43 44  1  0  0  0
 44113  1  0  0  0
 45 46  2  0  0  0
 45114  1  0  0  0
 46115  1  0  0  0
 47116  1  0  0  0
 47117  1  0  0  0
 48 56  1  0  0  0
 48 65  1  0  0  0
 48118  1  0  0  0
 49 50  1  0  0  0
 49 53  1  0  0  0
 49 64  1  0  0  0
 49119  1  0  0  0
 50 51  1  0  0  0
 50120  1  0  0  0
 50121  1  0  0  0
 51 52  1  0  0  0
 51122  1  0  0  0
 51123  1  0  0  0
 52124  1  0  0  0
 52125  1  0  0  0
 53 54  1  0  0  0
 54 55  2  0  0  0
 54126  1  0  0  0
 55 57  1  0  0  0
 55127  1  0  0  0
 56 69  2  0  0  0
 57 58  2  0  0  0
 57128  1  0  0  0
 58129  1  0  0  0
 59 60  1  0  0  0
 59 61  1  0  0  0
 59 62  1  0  0  0
 60130  1  0  0  0
 60131  1  0  0  0
 60132  1  0  0  0
 61133  1  0  0  0
 61134  1  0  0  0
 61135  1  0  0  0
 62136  1  0  0  0
 62137  1  0  0  0
 62138  1  0  0  0
 63 65  1  0  0  0
 63139  1  0  0  0
 63140  1  0  0  0
 63141  1  0  0  0
 64142  1  0  0  0
 65143  1  0  0  0
 68 81  1  0  0  0
 71 72  2  0  0  0
 71 83  1  0  0  0
 71144  1  0  0  0
 72 76  1  0  0  0
 72 82  1  0  0  0
 73 77  1  0  0  0
 73 82  1  0  0  0
 73 83  2  0  0  0
 74 78  1  0  0  0
 74145  1  0  0  0
 74146  1  0  0  0
 74147  1  0  0  0
 75 82  1  0  0  0
 75148  1  0  0  0
 75149  1  0  0  0
 75150  1  0  0  0
 76 79  1  0  0  0
 76151  1  0  0  0
 76152  1  0  0  0
 77 81  1  0  0  0
 77153  1  0  0  0
 77154  1  0  0  0
 78 80  1  0  0  0
 78155  1  0  0  0
 78156  1  0  0  0
 79 84  1  0  0  0
 79157  1  0  0  0
 79158  1  0  0  0
 80 84  1  0  0  0
 80159  1  0  0  0
 80160  1  0  0  0
 81161  1  0  0  0
 81162  1  0  0  0
 83163  1  0  0  0
M  CHG  1  83   1
M  ISO  4   1 100  68 101  81 101  84 100
M  END
> <chiral flag>
0

> <version>
0

> <s_m_source_file>
/data/baiqing/PycharmProjects/Reinvent-master-3.2/result/LINK_invent/BTK/process_docking_weight1_custom_sum_contain_oxygen_bond_distance_aromatic_linkinvent_7_9_3/rearranged_h_0050.sdf

> <i_m_source_file_index>
66

> <r_mmod_Potential_Energy-OPLS-2005>
324.665832519531

> <r_mmod_Stretch_Energy-OPLS-2005>
128.154067993164

> <r_mmod_Bend_Energy-OPLS-2005>
205.161285400391

> <r_mmod_Torsional_Energy-OPLS-2005>
300.406402587891

> <r_mmod_Improper_Torsional_Energy-OPLS-2005>
5.97212839126587

> <r_mmod_Van_der_Waal_Energy-OPLS-2005>
149.557525634766

> <r_mmod_Electrostatic_Energy-OPLS-2005>
-157.361907958984

> <r_mmod_Solvation_Energy-OPLS-2005>
-415.892150878906

> <b_mmod_Minimization_Converged-OPLS-2005>
0

> <r_mmod_RMS_Derivative-OPLS-2005>
0.423290997743607

$$$$
70
                    3D
 Structure written by MMmdl.
150158  0  0  1  0            999 V2000
  -30.4098  -15.3543   20.2962 C   0  0  0  0  0  0
  -30.4451  -12.8593   19.5255 C   0  0  0  0  0  0
  -29.5398  -12.5790   18.2957 C   0  0  0  0  0  0
  -28.1029  -12.2462   18.7395 C   0  0  0  0  0  0
  -27.6040  -13.2338   19.8164 C   0  0  2  0  0  0
  -28.6409  -13.4945   20.9332 C   0  0  0  0  0  0
  -25.2346  -13.8054   20.5749 C   0  0  0  0  0  0
  -24.1692  -13.0300   20.9289 C   0  0  0  0  0  0
  -24.6335  -11.6809   20.8803 C   0  0  0  0  0  0
  -23.9022  -10.4212   21.0430 C   0  0  0  0  0  0
  -24.3583   -9.4145   21.9206 C   0  0  0  0  0  0
  -23.6263   -8.2178   22.0748 C   0  0  0  0  0  0
  -22.4251   -8.0225   21.3528 C   0  0  0  0  0  0
  -21.9880   -9.0195   20.4632 C   0  0  0  0  0  0
  -22.7204  -10.2075   20.3061 C   0  0  0  0  0  0
  -21.6832   -6.0705   22.5281 C   0  0  0  0  0  0
  -21.3993   -6.5620   23.8211 C   0  0  0  0  0  0
  -21.3654   -5.6783   24.9184 C   0  0  0  0  0  0
  -21.6044   -4.3043   24.7238 C   0  0  0  0  0  0
  -21.8817   -3.8129   23.4366 C   0  0  0  0  0  0
  -21.9187   -4.6936   22.3416 C   0  0  0  0  0  0
  -22.7726  -13.5108   21.1931 C   0  0  0  0  0  0
  -22.1663   -4.2120   21.0997 F   0  0  0  0  0  0
  -21.5637   -3.4533   25.7758 F   0  0  0  0  0  0
  -29.8683  -14.0226   20.3002 N   0  0  0  0  0  0
  -26.2774  -12.9275   20.3256 N   0  0  0  0  0  0
  -25.9268  -11.6426   20.5780 N   0  0  0  0  0  0
  -22.0383  -12.8103   22.0497 N   0  0  0  0  0  0
  -25.3821  -15.1772   20.4128 N   0  0  0  0  0  0
  -31.6501  -15.3063   20.2541 O   0  0  0  0  0  0
  -21.6610   -6.8831   21.4233 O   0  0  0  0  0  0
  -22.3429  -14.5427   20.6790 O   0  0  0  0  0  0
  -24.6636  -31.8232   23.1667 C   0  0  0  0  0  0
  -25.9324  -32.4580   23.8133 C   0  0  1  0  0  0
  -27.2350  -26.9289   20.1946 C   0  0  0  0  0  0
  -25.5993  -33.8390   24.2062 N   0  0  0  0  0  0
  -23.4785  -30.4323   21.5171 C   0  0  2  0  0  0
  -24.9339  -28.8132   20.1172 C   0  0  0  0  0  0
  -22.7669  -29.4438   22.4786 C   0  0  0  0  0  0
  -18.0325  -28.1406   22.8469 C   0  0  0  0  0  0
  -24.1504  -36.7189   23.2649 C   0  0  0  0  0  0
  -26.0470  -30.6339   21.3927 C   0  0  0  0  0  0
  -26.1184  -29.2208   20.7439 C   0  0  0  0  0  0
  -27.2635  -28.3022   20.7511 C   0  0  0  0  0  0
  -26.0179  -26.6715   19.5228 C   0  0  0  0  0  0
  -24.9096  -27.5587   19.4861 C   0  0  0  0  0  0
  -23.7186  -29.7404   20.1464 C   0  0  0  0  0  0
  -25.4142  -36.2957   24.0305 C   0  0  1  0  0  0
  -20.5947  -28.3744   23.1197 C   0  0  2  0  0  0
  -20.6790  -26.9425   22.5413 C   0  0  0  0  0  0
  -19.5766  -26.6382   21.5216 C   0  0  0  0  0  0
  -18.1949  -26.7940   22.1624 C   0  0  0  0  0  0
  -19.1585  -28.8896   23.2821 C   0  0  0  0  0  0
  -18.9495  -30.1485   23.8855 C   0  0  0  0  0  0
  -17.6487  -30.6594   24.0550 C   0  0  0  0  0  0
  -25.9104  -34.9345   23.5004 C   0  0  0  0  0  0
  -16.5376  -29.9079   23.6338 C   0  0  0  0  0  0
  -16.7305  -28.6497   23.0364 C   0  0  0  0  0  0
  -26.4562  -31.6512   25.0653 C   0  0  0  0  0  0
  -25.3680  -31.3760   26.1301 C   0  0  0  0  0  0
  -27.0445  -30.2878   24.6362 C   0  0  0  0  0  0
  -27.6063  -32.4301   25.7458 C   0  0  0  0  0  0
  -27.5569  -37.1759   24.8472 C   0  0  0  0  0  0
  -21.4337  -29.3032   22.3542 N   0  0  0  0  0  0
  -26.4280  -37.3697   23.9406 N   0  0  0  0  0  0
  -24.7512  -30.9903   22.0797 N   0  0  0  0  0  0
  -23.4217  -28.8022   23.3040 O   0  0  0  0  0  0
  -28.2651  -25.8454   20.2440 O   0  0  0  0  0  0
  -26.5709  -34.8893   22.4597 O   0  0  0  0  0  0
  -23.5709  -32.1196   23.6772 O   0  0  0  0  0  0
  -29.5010  -19.8507   19.6025 C   0  0  0  0  0  0
  -29.1758  -21.0312   20.3899 C   0  0  0  0  0  0
  -30.1425  -17.0369   18.3822 C   0  0  0  0  0  0
  -28.1225  -16.6492   19.7533 C   0  0  0  0  0  0
  -29.1884  -22.7899   20.1888 C   0  0  0  0  0  0
  -28.0620  -24.1991   20.3111 C   0  0  0  0  0  0
  -29.6282  -16.9121   19.8393 C   0  0  0  0  0  0
  -29.1299  -20.3399   21.6351 N   0  0  0  0  0  0
  -29.3215  -18.9947   21.5848 N   0  0  0  0  0  0
  -29.6364  -18.5407   20.3227 N   0  0  0  0  0  0
  -31.4596  -13.0750   19.1879 H   0  0  0  0  0  0
  -30.5288  -11.9713   20.1550 H   0  0  0  0  0  0
  -29.9475  -11.7626   17.6984 H   0  0  0  0  0  0
  -29.5278  -13.4587   17.6500 H   0  0  0  0  0  0
  -28.1057  -11.2343   19.1472 H   0  0  0  0  0  0
  -27.4271  -12.2306   17.8834 H   0  0  0  0  0  0
  -27.4715  -14.1411   19.2529 H   0  0  0  0  0  0
  -28.8382  -12.5864   21.5050 H   0  0  0  0  0  0
  -28.2577  -14.2173   21.6538 H   0  0  0  0  0  0
  -25.2714   -9.5637   22.4799 H   0  0  0  0  0  0
  -23.9965   -7.4563   22.7460 H   0  0  0  0  0  0
  -21.0812   -8.8708   19.8936 H   0  0  0  0  0  0
  -22.3650  -10.9622   19.6179 H   0  0  0  0  0  0
  -21.1969   -7.6127   23.9708 H   0  0  0  0  0  0
  -21.1481   -6.0519   25.9084 H   0  0  0  0  0  0
  -22.0602   -2.7589   23.2885 H   0  0  0  0  0  0
  -22.3996  -11.9752   22.4869 H   0  0  0  0  0  0
  -21.1004  -13.1126   22.2725 H   0  0  0  0  0  0
  -24.6067  -15.8192   20.5366 H   0  0  0  0  0  0
  -26.2231  -15.6316   20.0839 H   0  0  0  0  0  0
  -26.7390  -32.5135   23.0843 H   0  0  0  0  0  0
  -25.0095  -33.9455   25.0179 H   0  0  0  0  0  0
  -22.7912  -31.2622   21.3426 H   0  0  0  0  0  0
  -23.3783  -35.9502   23.3280 H   0  0  0  0  0  0
  -24.3583  -36.8855   22.2069 H   0  0  0  0  0  0
  -23.7243  -37.6370   23.6704 H   0  0  0  0  0  0
  -26.2220  -31.3736   20.6104 H   0  0  0  0  0  0
  -26.9088  -30.6962   22.0448 H   0  0  0  0  0  0
  -28.1638  -28.6223   21.2565 H   0  0  0  0  0  0
  -25.8947  -25.7157   19.0347 H   0  0  0  0  0  0
  -24.0100  -27.2383   18.9787 H   0  0  0  0  0  0
  -23.8699  -30.5043   19.3825 H   0  0  0  0  0  0
  -22.8280  -29.1918   19.8327 H   0  0  0  0  0  0
  -25.1348  -36.1752   25.0796 H   0  0  0  0  0  0
  -21.0039  -28.3343   24.1319 H   0  0  0  0  0  0
  -20.5658  -26.2360   23.3656 H   0  0  0  0  0  0
  -21.6656  -26.7392   22.1230 H   0  0  0  0  0  0
  -19.6920  -25.6287   21.1265 H   0  0  0  0  0  0
  -19.6703  -27.3174   20.6734 H   0  0  0  0  0  0
  -17.4223  -26.6694   21.4025 H   0  0  0  0  0  0
  -18.0330  -26.0094   22.9033 H   0  0  0  0  0  0
  -19.7970  -30.7312   24.2212 H   0  0  0  0  0  0
  -17.5036  -31.6273   24.5159 H   0  0  0  0  0  0
  -15.5372  -30.2964   23.7689 H   0  0  0  0  0  0
  -15.8710  -28.0800   22.7105 H   0  0  0  0  0  0
  -24.5906  -30.7051   25.7607 H   0  0  0  0  0  0
  -24.8816  -32.2953   26.4564 H   0  0  0  0  0  0
  -25.7924  -30.9048   27.0175 H   0  0  0  0  0  0
  -26.3104  -29.6567   24.1337 H   0  0  0  0  0  0
  -27.3947  -29.7226   25.5007 H   0  0  0  0  0  0
  -27.9049  -30.4061   23.9776 H   0  0  0  0  0  0
  -27.2648  -33.3661   26.1889 H   0  0  0  0  0  0
  -28.3956  -32.6754   25.0335 H   0  0  0  0  0  0
  -28.0618  -31.8504   26.5497 H   0  0  0  0  0  0
  -28.2592  -38.0052   24.7510 H   0  0  0  0  0  0
  -28.1072  -36.2586   24.6324 H   0  0  0  0  0  0
  -27.2284  -37.1426   25.8875 H   0  0  0  0  0  0
  -20.9594  -29.8719   21.6670 H   0  0  0  0  0  0
  -26.0136  -38.2763   24.1390 H   0  0  0  0  0  0
  -29.6619  -19.8437   18.5321 H   0  0  0  0  0  0
  -29.4977  -17.6707   17.7745 H   0  0  0  0  0  0
  -30.1954  -16.0769   17.8648 H   0  0  0  0  0  0
  -31.1430  -17.4697   18.3602 H   0  0  0  0  0  0
  -27.5431  -17.5671   19.6412 H   0  0  0  0  0  0
  -27.7694  -16.1737   20.6639 H   0  0  0  0  0  0
  -27.8786  -16.0642   18.8717 H   0  0  0  0  0  0
  -29.6297  -22.9406   19.2044 H   0  0  0  0  0  0
  -29.9909  -23.1076   20.8549 H   0  0  0  0  0  0
  -27.5715  -24.0651   21.2758 H   0  0  0  0  0  0
  -27.2761  -23.9876   19.5876 H   0  0  0  0  0  0
  1 25  1  0  0  0
  1 30  2  0  0  0
  1 77  1  0  0  0
  2  3  1  0  0  0
  2 25  1  0  0  0
  2 81  1  0  0  0
  2 82  1  0  0  0
  3  4  1  0  0  0
  3 83  1  0  0  0
  3 84  1  0  0  0
  4  5  1  0  0  0
  4 85  1  0  0  0
  4 86  1  0  0  0
  5  6  1  0  0  0
  5 26  1  0  0  0
  5 87  1  0  0  0
  6 25  1  0  0  0
  6 88  1  0  0  0
  6 89  1  0  0  0
  7  8  2  0  0  0
  7 26  1  0  0  0
  7 29  1  0  0  0
  8  9  1  0  0  0
  8 22  1  0  0  0
  9 10  1  0  0  0
  9 27  2  0  0  0
 10 11  2  0  0  0
 10 15  1  0  0  0
 11 12  1  0  0  0
 11 90  1  0  0  0
 12 13  2  0  0  0
 12 91  1  0  0  0
 13 14  1  0  0  0
 13 31  1  0  0  0
 14 15  2  0  0  0
 14 92  1  0  0  0
 15 93  1  0  0  0
 16 17  2  0  0  0
 16 21  1  0  0  0
 16 31  1  0  0  0
 17 18  1  0  0  0
 17 94  1  0  0  0
 18 19  2  0  0  0
 18 95  1  0  0  0
 19 20  1  0  0  0
 19 24  1  0  0  0
 20 21  2  0  0  0
 20 96  1  0  0  0
 21 23  1  0  0  0
 22 28  1  0  0  0
 22 32  2  0  0  0
 26 27  1  0  0  0
 28 97  1  0  0  0
 28 98  1  0  0  0
 29 99  1  0  0  0
 29100  1  0  0  0
 33 34  1  0  0  0
 33 66  1  0  0  0
 33 70  2  0  0  0
 34 36  1  0  0  0
 34 59  1  0  0  0
 34101  1  0  0  0
 35 44  2  0  0  0
 35 45  1  0  0  0
 35 68  1  0  0  0
 36 56  1  0  0  0
 36102  1  0  0  0
 37 39  1  0  0  0
 37 47  1  0  0  0
 37 66  1  0  0  0
 37103  1  0  0  0
 38 43  2  0  0  0
 38 46  1  0  0  0
 38 47  1  0  0  0
 39 64  1  0  0  0
 39 67  2  0  0  0
 40 52  1  0  0  0
 40 53  2  0  0  0
 40 58  1  0  0  0
 41104  1  0  0  0
 41105  1  0  0  0
 41106  1  0  0  0
 41 48  1  0  0  0
 42 43  1  0  0  0
 42 66  1  0  0  0
 42107  1  0  0  0
 42108  1  0  0  0
 43 44  1  0  0  0
 44109  1  0  0  0
 45 46  2  0  0  0
 45110  1  0  0  0
 46111  1  0  0  0
 47112  1  0  0  0
 47113  1  0  0  0
 48 56  1  0  0  0
 48 65  1  0  0  0
 48114  1  0  0  0
 49 50  1  0  0  0
 49 53  1  0  0  0
 49 64  1  0  0  0
 49115  1  0  0  0
 50 51  1  0  0  0
 50116  1  0  0  0
 50117  1  0  0  0
 51 52  1  0  0  0
 51118  1  0  0  0
 51119  1  0  0  0
 52120  1  0  0  0
 52121  1  0  0  0
 53 54  1  0  0  0
 54 55  2  0  0  0
 54122  1  0  0  0
 55 57  1  0  0  0
 55123  1  0  0  0
 56 69  2  0  0  0
 57 58  2  0  0  0
 57124  1  0  0  0
 58125  1  0  0  0
 59 60  1  0  0  0
 59 61  1  0  0  0
 59 62  1  0  0  0
 60126  1  0  0  0
 60127  1  0  0  0
 60128  1  0  0  0
 61129  1  0  0  0
 61130  1  0  0  0
 61131  1  0  0  0
 62132  1  0  0  0
 62133  1  0  0  0
 62134  1  0  0  0
 63 65  1  0  0  0
 63135  1  0  0  0
 63136  1  0  0  0
 63137  1  0  0  0
 64138  1  0  0  0
 65139  1  0  0  0
 68 76  1  0  0  0
 71 72  2  0  0  0
 71 80  1  0  0  0
 71140  1  0  0  0
 72 75  1  0  0  0
 72 78  1  0  0  0
 73141  1  0  0  0
 73142  1  0  0  0
 73143  1  0  0  0
 73 77  1  0  0  0
 74 77  1  0  0  0
 74144  1  0  0  0
 74145  1  0  0  0
 74146  1  0  0  0
 75 76  1  0  0  0
 75147  1  0  0  0
 75148  1  0  0  0
 76149  1  0  0  0
 76150  1  0  0  0
 77 80  1  0  0  0
 78 79  2  0  0  0
 79 80  1  0  0  0
M  ISO  4   1 100  68 101  76 101  77 100
M  END
> <chiral flag>
0

> <version>
0

> <s_m_source_file>
/data/baiqing/PycharmProjects/Reinvent-master-3.2/result/LINK_invent/BTK/process_docking_weight1_custom_sum_contain_oxygen_bond_distance_aromatic_linkinvent_7_9_3/rearranged_h_0050.sdf

> <i_m_source_file_index>
67

> <r_mmod_Potential_Energy-OPLS-2005>
1528.259765625

> <r_mmod_Stretch_Energy-OPLS-2005>
629.712036132812

> <r_mmod_Bend_Energy-OPLS-2005>
510.041412353516

> <r_mmod_Torsional_Energy-OPLS-2005>
256.197570800781

> <r_mmod_Improper_Torsional_Energy-OPLS-2005>
18.4239730834961

> <r_mmod_Van_der_Waal_Energy-OPLS-2005>
118.018295288086

> <r_mmod_Electrostatic_Energy-OPLS-2005>
-297.583129882812

> <r_mmod_Solvation_Energy-OPLS-2005>
-215.718154907227

> <b_mmod_Minimization_Converged-OPLS-2005>
0

> <r_mmod_RMS_Derivative-OPLS-2005>
1.59694075584412

$$$$
71
                    3D
 Structure written by MMmdl.
160168  0  0  1  0            999 V2000
  -30.5683  -14.7391   20.5285 C   0  0  0  0  0  0
  -30.4512  -12.4523   19.4960 C   0  0  0  0  0  0
  -29.5305  -12.5049   18.2525 C   0  0  0  0  0  0
  -28.0511  -12.3315   18.6511 C   0  0  0  0  0  0
  -27.6472  -13.2249   19.8549 C   0  0  2  0  0  0
  -28.6802  -13.1156   20.9960 C   0  0  0  0  0  0
  -25.2533  -13.8154   20.5646 C   0  0  0  0  0  0
  -24.1828  -13.0389   20.9195 C   0  0  0  0  0  0
  -24.6402  -11.6879   20.8713 C   0  0  0  0  0  0
  -23.9061  -10.4261   21.0405 C   0  0  0  0  0  0
  -24.3596   -9.4175   21.9193 C   0  0  0  0  0  0
  -23.6267   -8.2217   22.0762 C   0  0  0  0  0  0
  -22.4246   -8.0257   21.3546 C   0  0  0  0  0  0
  -21.9872   -9.0219   20.4664 C   0  0  0  0  0  0
  -22.7214  -10.2100   20.3070 C   0  0  0  0  0  0
  -21.6810   -6.0723   22.5295 C   0  0  0  0  0  0
  -21.3988   -6.5627   23.8231 C   0  0  0  0  0  0
  -21.3682   -5.6785   24.9190 C   0  0  0  0  0  0
  -21.6055   -4.3045   24.7230 C   0  0  0  0  0  0
  -21.8815   -3.8124   23.4357 C   0  0  0  0  0  0
  -21.9160   -4.6949   22.3413 C   0  0  0  0  0  0
  -22.7867  -13.5204   21.1838 C   0  0  0  0  0  0
  -22.1641   -4.2150   21.0991 F   0  0  0  0  0  0
  -21.5650   -3.4528   25.7748 F   0  0  0  0  0  0
  -29.9853  -13.4909   20.4486 N   0  0  0  0  0  0
  -26.2963  -12.9344   20.3237 N   0  0  0  0  0  0
  -25.9343  -11.6494   20.5751 N   0  0  0  0  0  0
  -22.0482  -12.8262   22.0468 N   0  0  0  0  0  0
  -25.4145  -15.1889   20.4122 N   0  0  0  0  0  0
  -31.7324  -14.8685   20.1314 O   0  0  0  0  0  0
  -21.6593   -6.8855   21.4254 O   0  0  0  0  0  0
  -22.3573  -14.5479   20.6605 O   0  0  0  0  0  0
  -24.6289  -31.8532   23.1960 C   0  0  0  0  0  0
  -25.9127  -32.4747   23.8291 C   0  0  1  0  0  0
  -27.2213  -27.2531   20.1354 C   0  0  0  0  0  0
  -25.5958  -33.8547   24.2247 N   0  0  0  0  0  0
  -23.4264  -30.4724   21.5403 C   0  0  2  0  0  0
  -24.8755  -28.9170   20.1074 C   0  0  0  0  0  0
  -22.7469  -29.4587   22.4902 C   0  0  0  0  0  0
  -18.0278  -28.1376   22.8516 C   0  0  0  0  0  0
  -24.1508  -36.7267   23.2638 C   0  0  0  0  0  0
  -25.9720  -30.7656   21.3749 C   0  0  0  0  0  0
  -26.0436  -29.3844   20.7220 C   0  0  0  0  0  0
  -27.2128  -28.5608   20.7302 C   0  0  0  0  0  0
  -26.0269  -26.8486   19.4970 C   0  0  0  0  0  0
  -24.8731  -27.6582   19.4858 C   0  0  0  0  0  0
  -23.6472  -29.8029   20.1550 C   0  0  0  0  0  0
  -25.4142  -36.3067   24.0324 C   0  0  1  0  0  0
  -20.5885  -28.3677   23.1316 C   0  0  2  0  0  0
  -20.6794  -26.9397   22.5438 C   0  0  0  0  0  0
  -19.5781  -26.6376   21.5243 C   0  0  0  0  0  0
  -18.1947  -26.7919   22.1631 C   0  0  0  0  0  0
  -19.1532  -28.8838   23.2896 C   0  0  0  0  0  0
  -18.9462  -30.1446   23.8886 C   0  0  0  0  0  0
  -17.6469  -30.6595   24.0565 C   0  0  0  0  0  0
  -25.9072  -34.9441   23.5075 C   0  0  0  0  0  0
  -16.5357  -29.9098   23.6337 C   0  0  0  0  0  0
  -16.7261  -28.6502   23.0376 C   0  0  0  0  0  0
  -26.4514  -31.6550   25.0651 C   0  0  0  0  0  0
  -25.3774  -31.3662   26.1382 C   0  0  0  0  0  0
  -27.0345  -30.2989   24.6087 C   0  0  0  0  0  0
  -27.6073  -32.4248   25.7432 C   0  0  0  0  0  0
  -27.5582  -37.1792   24.8470 C   0  0  0  0  0  0
  -21.4172  -29.3016   22.3673 N   0  0  0  0  0  0
  -26.4309  -37.3771   23.9391 N   0  0  0  0  0  0
  -24.6948  -31.0492   22.0928 N   0  0  0  0  0  0
  -23.4174  -28.8135   23.2999 O   0  0  0  0  0  0
  -28.3351  -26.3852   20.2400 O   0  0  0  0  0  0
  -26.5625  -34.8920   22.4632 O   0  0  0  0  0  0
  -23.5439  -32.1345   23.7288 O   0  0  0  0  0  0
  -27.6024  -23.1384   21.3065 C   0  0  0  0  0  0
  -28.4141  -23.6477   20.2448 C   0  0  0  0  0  0
  -27.8557  -21.7794   21.4064 C   0  0  0  0  0  0
  -27.2150  -20.7781   22.3206 C   0  0  0  0  0  0
  -29.9648  -16.1631   22.5845 C   0  0  0  0  0  0
  -30.1502  -17.3407   18.8964 C   0  0  0  0  0  0
  -28.4559  -25.0710   19.5274 C   0  0  0  0  0  0
  -29.4588  -20.0977   20.0477 C   0  0  0  0  0  0
  -29.2148  -18.6771   20.7993 C   0  0  0  0  0  0
  -29.7796  -16.0650   21.0478 C   0  0  1  0  0  0
  -29.1297  -22.5928   19.7668 N   0  0  0  0  0  0
  -28.8173  -21.4280   20.4572 N   0  0  0  0  0  0
  -30.0635  -17.4417   20.3773 N   0  3  1  0  0  0
  -30.4129  -11.4633   19.9535 H   0  0  0  0  0  0
  -31.4908  -12.6055   19.2001 H   0  0  0  0  0  0
  -29.8155  -11.7341   17.5346 H   0  0  0  0  0  0
  -29.6681  -13.4582   17.7411 H   0  0  0  0  0  0
  -27.9078  -11.2808   18.9067 H   0  0  0  0  0  0
  -27.4081  -12.5285   17.7936 H   0  0  0  0  0  0
  -27.6553  -14.2525   19.4906 H   0  0  0  0  0  0
  -28.3988  -13.7466   21.8399 H   0  0  0  0  0  0
  -28.7127  -12.0958   21.3862 H   0  0  0  0  0  0
  -25.2723   -9.5628   22.4788 H   0  0  0  0  0  0
  -23.9953   -7.4583   22.7475 H   0  0  0  0  0  0
  -21.0796   -8.8713   19.8992 H   0  0  0  0  0  0
  -22.3639  -10.9610   19.6179 H   0  0  0  0  0  0
  -21.1983   -7.6132   23.9736 H   0  0  0  0  0  0
  -21.1525   -6.0517   25.9105 H   0  0  0  0  0  0
  -22.0568   -2.7592   23.2837 H   0  0  0  0  0  0
  -22.3976  -11.9888   22.4875 H   0  0  0  0  0  0
  -21.1116  -13.1346   22.2620 H   0  0  0  0  0  0
  -24.6235  -15.8161   20.5182 H   0  0  0  0  0  0
  -26.2359  -15.6427   20.0349 H   0  0  0  0  0  0
  -26.7170  -32.5406   23.1001 H   0  0  0  0  0  0
  -25.0159  -33.9669   25.0438 H   0  0  0  0  0  0
  -22.7194  -31.2926   21.3883 H   0  0  0  0  0  0
  -23.3789  -35.9578   23.3321 H   0  0  0  0  0  0
  -24.3601  -36.8856   22.2044 H   0  0  0  0  0  0
  -23.7232  -37.6464   23.6644 H   0  0  0  0  0  0
  -26.1043  -31.5250   20.6035 H   0  0  0  0  0  0
  -26.8517  -30.8217   22.0061 H   0  0  0  0  0  0
  -28.1069  -28.9051   21.2325 H   0  0  0  0  0  0
  -25.9358  -25.8775   19.0378 H   0  0  0  0  0  0
  -23.9733  -27.2943   19.0111 H   0  0  0  0  0  0
  -23.7711  -30.5773   19.3962 H   0  0  0  0  0  0
  -22.7658  -29.2317   19.8541 H   0  0  0  0  0  0
  -25.1330  -36.1923   25.0821 H   0  0  0  0  0  0
  -20.9962  -28.3233   24.1446 H   0  0  0  0  0  0
  -20.5743  -26.2274   23.3622 H   0  0  0  0  0  0
  -21.6668  -26.7431   22.1237 H   0  0  0  0  0  0
  -19.6941  -25.6274   21.1288 H   0  0  0  0  0  0
  -19.6767  -27.3181   20.6788 H   0  0  0  0  0  0
  -17.4225  -26.6642   21.4019 H   0  0  0  0  0  0
  -18.0344  -26.0055   22.9019 H   0  0  0  0  0  0
  -19.7943  -30.7271   24.2246 H   0  0  0  0  0  0
  -17.5022  -31.6284   24.5137 H   0  0  0  0  0  0
  -15.5364  -30.3010   23.7634 H   0  0  0  0  0  0
  -15.8654  -28.0805   22.7114 H   0  0  0  0  0  0
  -24.6016  -30.6921   25.7725 H   0  0  0  0  0  0
  -24.8896  -32.2808   26.4757 H   0  0  0  0  0  0
  -25.8147  -30.8898   27.0174 H   0  0  0  0  0  0
  -26.2903  -29.6717   24.1171 H   0  0  0  0  0  0
  -27.4130  -29.7229   25.4531 H   0  0  0  0  0  0
  -27.8732  -30.4253   23.9245 H   0  0  0  0  0  0
  -27.2723  -33.3574   26.1981 H   0  0  0  0  0  0
  -28.3939  -32.6745   25.0299 H   0  0  0  0  0  0
  -28.0698  -31.8375   26.5370 H   0  0  0  0  0  0
  -28.2618  -38.0074   24.7527 H   0  0  0  0  0  0
  -28.1057  -36.2604   24.6323 H   0  0  0  0  0  0
  -27.2280  -37.1471   25.8866 H   0  0  0  0  0  0
  -20.9302  -29.8684   21.6872 H   0  0  0  0  0  0
  -26.0198  -38.2844   24.1410 H   0  0  0  0  0  0
  -26.8843  -23.6971   21.8925 H   0  0  0  0  0  0
  -26.7096  -19.9937   21.7576 H   0  0  0  0  0  0
  -26.4561  -21.2396   22.9518 H   0  0  0  0  0  0
  -27.9417  -20.3082   22.9837 H   0  0  0  0  0  0
  -29.3555  -16.9419   23.0439 H   0  0  0  0  0  0
  -31.0056  -16.3645   22.8435 H   0  0  0  0  0  0
  -29.6794  -15.2351   23.0783 H   0  0  0  0  0  0
  -29.2075  -17.0096   18.4624 H   0  0  0  0  0  0
  -30.9341  -16.6597   18.5720 H   0  0  0  0  0  0
  -30.4210  -18.2863   18.4311 H   0  0  0  0  0  0
  -27.8098  -25.0410   18.6543 H   0  0  0  0  0  0
  -29.4413  -25.1454   19.0663 H   0  0  0  0  0  0
  -29.1578  -19.9600   19.0105 H   0  0  0  0  0  0
  -30.5340  -20.2740   20.0229 H   0  0  0  0  0  0
  -28.1663  -18.4101   20.6689 H   0  0  0  0  0  0
  -29.3573  -18.8441   21.8658 H   0  0  0  0  0  0
  -28.7218  -15.8827   20.8689 H   0  0  0  0  0  0
  -31.0091  -17.6549   20.6607 H   0  0  0  0  0  0
  1 25  1  0  0  0
  1 30  2  0  0  0
  1 80  1  0  0  0
  2  3  1  0  0  0
  2 25  1  0  0  0
  2 84  1  0  0  0
  2 85  1  0  0  0
  3  4  1  0  0  0
  3 86  1  0  0  0
  3 87  1  0  0  0
  4  5  1  0  0  0
  4 88  1  0  0  0
  4 89  1  0  0  0
  5  6  1  0  0  0
  5 26  1  0  0  0
  5 90  1  0  0  0
  6 25  1  0  0  0
  6 91  1  0  0  0
  6 92  1  0  0  0
  7  8  2  0  0  0
  7 26  1  0  0  0
  7 29  1  0  0  0
  8  9  1  0  0  0
  8 22  1  0  0  0
  9 10  1  0  0  0
  9 27  2  0  0  0
 10 11  2  0  0  0
 10 15  1  0  0  0
 11 12  1  0  0  0
 11 93  1  0  0  0
 12 13  2  0  0  0
 12 94  1  0  0  0
 13 14  1  0  0  0
 13 31  1  0  0  0
 14 15  2  0  0  0
 14 95  1  0  0  0
 15 96  1  0  0  0
 16 17  2  0  0  0
 16 21  1  0  0  0
 16 31  1  0  0  0
 17 18  1  0  0  0
 17 97  1  0  0  0
 18 19  2  0  0  0
 18 98  1  0  0  0
 19 20  1  0  0  0
 19 24  1  0  0  0
 20 21  2  0  0  0
 20 99  1  0  0  0
 21 23  1  0  0  0
 22 28  1  0  0  0
 22 32  2  0  0  0
 26 27  1  0  0  0
 28100  1  0  0  0
 28101  1  0  0  0
 29102  1  0  0  0
 29103  1  0  0  0
 33 34  1  0  0  0
 33 66  1  0  0  0
 33 70  2  0  0  0
 34 36  1  0  0  0
 34 59  1  0  0  0
 34104  1  0  0  0
 35 44  2  0  0  0
 35 45  1  0  0  0
 35 68  1  0  0  0
 36 56  1  0  0  0
 36105  1  0  0  0
 37 39  1  0  0  0
 37 47  1  0  0  0
 37 66  1  0  0  0
 37106  1  0  0  0
 38 43  2  0  0  0
 38 46  1  0  0  0
 38 47  1  0  0  0
 39 64  1  0  0  0
 39 67  2  0  0  0
 40 52  1  0  0  0
 40 53  2  0  0  0
 40 58  1  0  0  0
 41107  1  0  0  0
 41108  1  0  0  0
 41109  1  0  0  0
 41 48  1  0  0  0
 42 43  1  0  0  0
 42 66  1  0  0  0
 42110  1  0  0  0
 42111  1  0  0  0
 43 44  1  0  0  0
 44112  1  0  0  0
 45 46  2  0  0  0
 45113  1  0  0  0
 46114  1  0  0  0
 47115  1  0  0  0
 47116  1  0  0  0
 48 56  1  0  0  0
 48 65  1  0  0  0
 48117  1  0  0  0
 49 50  1  0  0  0
 49 53  1  0  0  0
 49 64  1  0  0  0
 49118  1  0  0  0
 50 51  1  0  0  0
 50119  1  0  0  0
 50120  1  0  0  0
 51 52  1  0  0  0
 51121  1  0  0  0
 51122  1  0  0  0
 52123  1  0  0  0
 52124  1  0  0  0
 53 54  1  0  0  0
 54 55  2  0  0  0
 54125  1  0  0  0
 55 57  1  0  0  0
 55126  1  0  0  0
 56 69  2  0  0  0
 57 58  2  0  0  0
 57127  1  0  0  0
 58128  1  0  0  0
 59 60  1  0  0  0
 59 61  1  0  0  0
 59 62  1  0  0  0
 60129  1  0  0  0
 60130  1  0  0  0
 60131  1  0  0  0
 61132  1  0  0  0
 61133  1  0  0  0
 61134  1  0  0  0
 62135  1  0  0  0
 62136  1  0  0  0
 62137  1  0  0  0
 63 65  1  0  0  0
 63138  1  0  0  0
 63139  1  0  0  0
 63140  1  0  0  0
 64141  1  0  0  0
 65142  1  0  0  0
 68 77  1  0  0  0
 71 72  1  0  0  0
 71 73  2  0  0  0
 71143  1  0  0  0
 72 77  1  0  0  0
 72 81  2  0  0  0
 73 74  1  0  0  0
 73 82  1  0  0  0
 74144  1  0  0  0
 74145  1  0  0  0
 74146  1  0  0  0
 75147  1  0  0  0
 75148  1  0  0  0
 75149  1  0  0  0
 75 80  1  0  0  0
 76150  1  0  0  0
 76151  1  0  0  0
 76152  1  0  0  0
 76 83  1  0  0  0
 77153  1  0  0  0
 77154  1  0  0  0
 78 79  1  0  0  0
 78 82  1  0  0  0
 78155  1  0  0  0
 78156  1  0  0  0
 79 83  1  0  0  0
 79157  1  0  0  0
 79158  1  0  0  0
 80 83  1  0  0  0
 80159  1  0  0  0
 81 82  1  0  0  0
 83160  1  0  0  0
M  CHG  1  83   1
M  ISO  4   1 100  68 101  77 101  80 100
M  END
> <chiral flag>
0

> <version>
0

> <s_m_source_file>
/data/baiqing/PycharmProjects/Reinvent-master-3.2/result/LINK_invent/BTK/process_docking_weight1_custom_sum_contain_oxygen_bond_distance_aromatic_linkinvent_7_9_3/rearranged_h_0050.sdf

> <i_m_source_file_index>
68

> <r_mmod_Potential_Energy-OPLS-2005>
50.0705184936523

> <r_mmod_Stretch_Energy-OPLS-2005>
133.146286010742

> <r_mmod_Bend_Energy-OPLS-2005>
190.859939575195

> <r_mmod_Torsional_Energy-OPLS-2005>
206.05322265625

> <r_mmod_Improper_Torsional_Energy-OPLS-2005>
3.0934898853302

> <r_mmod_Van_der_Waal_Energy-OPLS-2005>
117.839767456055

> <r_mmod_Electrostatic_Energy-OPLS-2005>
-240.488021850586

> <r_mmod_Solvation_Energy-OPLS-2005>
-444.520782470703

> <b_mmod_Minimization_Converged-OPLS-2005>
0

> <r_mmod_RMS_Derivative-OPLS-2005>
5.18355274200439

$$$$
72
                    3D
 Structure written by MMmdl.
149157  0  0  1  0            999 V2000
  -30.4462  -15.2605   20.3244 C   0  0  0  0  0  0
  -30.4384  -12.8050   19.4907 C   0  0  0  0  0  0
  -29.5239  -12.5597   18.2655 C   0  0  0  0  0  0
  -28.0792  -12.2664   18.7119 C   0  0  0  0  0  0
  -27.6000  -13.2413   19.8138 C   0  0  2  0  0  0
  -28.6487  -13.4573   20.9269 C   0  0  0  0  0  0
  -25.2373  -13.8112   20.5796 C   0  0  0  0  0  0
  -24.1702  -13.0354   20.9288 C   0  0  0  0  0  0
  -24.6335  -11.6847   20.8779 C   0  0  0  0  0  0
  -23.9030  -10.4240   21.0411 C   0  0  0  0  0  0
  -24.3593   -9.4166   21.9184 C   0  0  0  0  0  0
  -23.6273   -8.2205   22.0757 C   0  0  0  0  0  0
  -22.4253   -8.0250   21.3551 C   0  0  0  0  0  0
  -21.9891   -9.0215   20.4646 C   0  0  0  0  0  0
  -22.7212  -10.2096   20.3052 C   0  0  0  0  0  0
  -21.6840   -6.0718   22.5276 C   0  0  0  0  0  0
  -21.3992   -6.5623   23.8207 C   0  0  0  0  0  0
  -21.3669   -5.6784   24.9174 C   0  0  0  0  0  0
  -21.6046   -4.3046   24.7229 C   0  0  0  0  0  0
  -21.8817   -3.8135   23.4350 C   0  0  0  0  0  0
  -21.9194   -4.6948   22.3405 C   0  0  0  0  0  0
  -22.7734  -13.5146   21.1931 C   0  0  0  0  0  0
  -22.1668   -4.2133   21.0982 F   0  0  0  0  0  0
  -21.5650   -3.4534   25.7749 F   0  0  0  0  0  0
  -29.8719  -13.9581   20.2726 N   0  0  0  0  0  0
  -26.2765  -12.9320   20.3263 N   0  0  0  0  0  0
  -25.9259  -11.6461   20.5748 N   0  0  0  0  0  0
  -22.0384  -12.8134   22.0472 N   0  0  0  0  0  0
  -25.3991  -15.1845   20.4262 N   0  0  0  0  0  0
  -31.6859  -15.2410   20.2872 O   0  0  0  0  0  0
  -21.6621   -6.8847   21.4238 O   0  0  0  0  0  0
  -22.3435  -14.5465   20.6782 O   0  0  0  0  0  0
  -24.6572  -31.8275   23.1729 C   0  0  0  0  0  0
  -25.9273  -32.4611   23.8194 C   0  0  1  0  0  0
  -27.2322  -26.9730   20.1872 C   0  0  0  0  0  0
  -25.5953  -33.8423   24.2097 N   0  0  0  0  0  0
  -23.4715  -30.4357   21.5206 C   0  0  2  0  0  0
  -24.9251  -28.8223   20.1175 C   0  0  0  0  0  0
  -22.7643  -29.4446   22.4805 C   0  0  0  0  0  0
  -18.0311  -28.1411   22.8470 C   0  0  0  0  0  0
  -24.1489  -36.7220   23.2645 C   0  0  0  0  0  0
  -26.0346  -30.6481   21.3958 C   0  0  0  0  0  0
  -26.1035  -29.2386   20.7480 C   0  0  0  0  0  0
  -27.2483  -28.3328   20.7589 C   0  0  0  0  0  0
  -26.0261  -26.6923   19.5086 C   0  0  0  0  0  0
  -24.9074  -27.5679   19.4804 C   0  0  0  0  0  0
  -23.7096  -29.7459   20.1482 C   0  0  0  0  0  0
  -25.4130  -36.2984   24.0300 C   0  0  1  0  0  0
  -20.5933  -28.3742   23.1209 C   0  0  2  0  0  0
  -20.6786  -26.9430   22.5409 C   0  0  0  0  0  0
  -19.5760  -26.6381   21.5218 C   0  0  0  0  0  0
  -18.1944  -26.7945   22.1625 C   0  0  0  0  0  0
  -19.1573  -28.8896   23.2827 C   0  0  0  0  0  0
  -18.9481  -30.1488   23.8863 C   0  0  0  0  0  0
  -17.6476  -30.6599   24.0558 C   0  0  0  0  0  0
  -25.9088  -34.9360   23.5020 C   0  0  0  0  0  0
  -16.5369  -29.9091   23.6340 C   0  0  0  0  0  0
  -16.7297  -28.6512   23.0358 C   0  0  0  0  0  0
  -26.4543  -31.6545   25.0710 C   0  0  0  0  0  0
  -25.3687  -31.3776   26.1380 C   0  0  0  0  0  0
  -27.0420  -30.2918   24.6399 C   0  0  0  0  0  0
  -27.6043  -32.4339   25.7509 C   0  0  0  0  0  0
  -27.5571  -37.1768   24.8462 C   0  0  0  0  0  0
  -21.4313  -29.3042   22.3564 N   0  0  0  0  0  0
  -26.4281  -37.3715   23.9401 N   0  0  0  0  0  0
  -24.7420  -30.9972   22.0843 N   0  0  0  0  0  0
  -23.4207  -28.8015   23.3035 O   0  0  0  0  0  0
  -28.3182  -25.9684   20.2173 O   0  0  0  0  0  0
  -26.5703  -34.8890   22.4620 O   0  0  0  0  0  0
  -23.5652  -32.1218   23.6852 O   0  0  0  0  0  0
  -29.6481  -23.7257   20.6068 C   0  0  0  0  0  0
  -27.6626  -22.1032   19.9143 C   0  0  0  0  0  0
  -28.8401  -21.2890   20.2333 C   0  0  0  0  0  0
  -29.8464  -22.2614   20.5969 C   0  0  0  0  0  0
  -28.4345  -24.4419   20.2624 C   0  0  0  0  0  0
  -28.6038  -16.4887   19.2147 C   0  0  0  0  0  0
  -28.8937  -19.5548   20.0583 C   0  0  0  0  0  0
  -29.9285  -18.1629   20.4964 C   0  0  0  0  0  0
  -27.4596  -23.5162   19.9205 N   0  0  0  0  0  0
  -29.6860  -16.5414   20.1980 N   0  0  0  0  0  0
  -31.4074  -21.6647   21.0271 Cl  0  0  0  0  0  0
  -31.4516  -13.0210   19.1490 H   0  0  0  0  0  0
  -30.5167  -11.9078   20.1075 H   0  0  0  0  0  0
  -29.9062  -11.7363   17.6610 H   0  0  0  0  0  0
  -29.5370  -13.4426   17.6233 H   0  0  0  0  0  0
  -28.0542  -11.2463   19.0975 H   0  0  0  0  0  0
  -27.4023  -12.2883   17.8573 H   0  0  0  0  0  0
  -27.4688  -14.1751   19.2858 H   0  0  0  0  0  0
  -28.8311  -12.5388   21.4860 H   0  0  0  0  0  0
  -28.2894  -14.1948   21.6461 H   0  0  0  0  0  0
  -25.2742   -9.5653   22.4746 H   0  0  0  0  0  0
  -23.9998   -7.4588   22.7463 H   0  0  0  0  0  0
  -21.0837   -8.8715   19.8931 H   0  0  0  0  0  0
  -22.3672  -10.9632   19.6154 H   0  0  0  0  0  0
  -21.1950   -7.6126   23.9705 H   0  0  0  0  0  0
  -21.1510   -6.0514   25.9079 H   0  0  0  0  0  0
  -22.0589   -2.7596   23.2851 H   0  0  0  0  0  0
  -22.4023  -11.9797   22.4847 H   0  0  0  0  0  0
  -21.0995  -13.1136   22.2674 H   0  0  0  0  0  0
  -24.6324  -15.8377   20.5442 H   0  0  0  0  0  0
  -26.2546  -15.6288   20.1232 H   0  0  0  0  0  0
  -26.7345  -32.5163   23.0916 H   0  0  0  0  0  0
  -25.0044  -33.9513   25.0209 H   0  0  0  0  0  0
  -22.7825  -31.2652   21.3489 H   0  0  0  0  0  0
  -23.3761  -35.9542   23.3289 H   0  0  0  0  0  0
  -24.3563  -36.8887   22.2065 H   0  0  0  0  0  0
  -23.7240  -37.6398   23.6715 H   0  0  0  0  0  0
  -26.2046  -31.3874   20.6120 H   0  0  0  0  0  0
  -26.8988  -30.7102   22.0449 H   0  0  0  0  0  0
  -28.1494  -28.6550   21.2622 H   0  0  0  0  0  0
  -25.9295  -25.7349   19.0157 H   0  0  0  0  0  0
  -24.0113  -27.2442   18.9689 H   0  0  0  0  0  0
  -23.8629  -30.5114   19.3867 H   0  0  0  0  0  0
  -22.8211  -29.1960   19.8337 H   0  0  0  0  0  0
  -25.1328  -36.1791   25.0792 H   0  0  0  0  0  0
  -21.0019  -28.3347   24.1330 H   0  0  0  0  0  0
  -20.5660  -26.2362   23.3645 H   0  0  0  0  0  0
  -21.6653  -26.7405   22.1221 H   0  0  0  0  0  0
  -19.6918  -25.6278   21.1273 H   0  0  0  0  0  0
  -19.6707  -27.3170   20.6730 H   0  0  0  0  0  0
  -17.4214  -26.6689   21.4029 H   0  0  0  0  0  0
  -18.0338  -26.0103   22.9034 H   0  0  0  0  0  0
  -19.7953  -30.7309   24.2232 H   0  0  0  0  0  0
  -17.5024  -31.6274   24.5165 H   0  0  0  0  0  0
  -15.5367  -30.2979   23.7677 H   0  0  0  0  0  0
  -15.8699  -28.0814   22.7097 H   0  0  0  0  0  0
  -24.5884  -30.7106   25.7696 H   0  0  0  0  0  0
  -24.8858  -32.2968   26.4705 H   0  0  0  0  0  0
  -25.7940  -30.9017   27.0227 H   0  0  0  0  0  0
  -26.3065  -29.6614   24.1392 H   0  0  0  0  0  0
  -27.3951  -29.7261   25.5030 H   0  0  0  0  0  0
  -27.9011  -30.4108   23.9794 H   0  0  0  0  0  0
  -27.2623  -33.3675   26.1990 H   0  0  0  0  0  0
  -28.3914  -32.6848   25.0385 H   0  0  0  0  0  0
  -28.0654  -31.8536   26.5511 H   0  0  0  0  0  0
  -28.2569  -38.0080   24.7509 H   0  0  0  0  0  0
  -28.1088  -36.2606   24.6293 H   0  0  0  0  0  0
  -27.2286  -37.1415   25.8864 H   0  0  0  0  0  0
  -20.9564  -29.8741   21.6706 H   0  0  0  0  0  0
  -26.0134  -38.2772   24.1416 H   0  0  0  0  0  0
  -30.4980  -24.3309   20.8851 H   0  0  0  0  0  0
  -26.7825  -21.5648   19.5949 H   0  0  0  0  0  0
  -27.6417  -16.4150   19.7133 H   0  0  0  0  0  0
  -28.7231  -15.6715   18.5022 H   0  0  0  0  0  0
  -28.5749  -17.3698   18.5795 H   0  0  0  0  0  0
  -28.7975  -19.4807   18.9765 H   0  0  0  0  0  0
  -27.9100  -19.2623   20.4265 H   0  0  0  0  0  0
  -30.0597  -18.2164   21.5769 H   0  0  0  0  0  0
  -30.9183  -18.3769   20.0921 H   0  0  0  0  0  0
  1 25  1  0  0  0
  1 30  2  0  0  0
  1 80  1  0  0  0
  2  3  1  0  0  0
  2 25  1  0  0  0
  2 82  1  0  0  0
  2 83  1  0  0  0
  3  4  1  0  0  0
  3 84  1  0  0  0
  3 85  1  0  0  0
  4  5  1  0  0  0
  4 86  1  0  0  0
  4 87  1  0  0  0
  5  6  1  0  0  0
  5 26  1  0  0  0
  5 88  1  0  0  0
  6 25  1  0  0  0
  6 89  1  0  0  0
  6 90  1  0  0  0
  7  8  2  0  0  0
  7 26  1  0  0  0
  7 29  1  0  0  0
  8  9  1  0  0  0
  8 22  1  0  0  0
  9 10  1  0  0  0
  9 27  2  0  0  0
 10 11  2  0  0  0
 10 15  1  0  0  0
 11 12  1  0  0  0
 11 91  1  0  0  0
 12 13  2  0  0  0
 12 92  1  0  0  0
 13 14  1  0  0  0
 13 31  1  0  0  0
 14 15  2  0  0  0
 14 93  1  0  0  0
 15 94  1  0  0  0
 16 17  2  0  0  0
 16 21  1  0  0  0
 16 31  1  0  0  0
 17 18  1  0  0  0
 17 95  1  0  0  0
 18 19  2  0  0  0
 18 96  1  0  0  0
 19 20  1  0  0  0
 19 24  1  0  0  0
 20 21  2  0  0  0
 20 97  1  0  0  0
 21 23  1  0  0  0
 22 28  1  0  0  0
 22 32  2  0  0  0
 26 27  1  0  0  0
 28 98  1  0  0  0
 28 99  1  0  0  0
 29100  1  0  0  0
 29101  1  0  0  0
 33 34  1  0  0  0
 33 66  1  0  0  0
 33 70  2  0  0  0
 34 36  1  0  0  0
 34 59  1  0  0  0
 34102  1  0  0  0
 35 44  2  0  0  0
 35 45  1  0  0  0
 35 68  1  0  0  0
 36 56  1  0  0  0
 36103  1  0  0  0
 37 39  1  0  0  0
 37 47  1  0  0  0
 37 66  1  0  0  0
 37104  1  0  0  0
 38 43  2  0  0  0
 38 46  1  0  0  0
 38 47  1  0  0  0
 39 64  1  0  0  0
 39 67  2  0  0  0
 40 52  1  0  0  0
 40 53  2  0  0  0
 40 58  1  0  0  0
 41105  1  0  0  0
 41106  1  0  0  0
 41107  1  0  0  0
 41 48  1  0  0  0
 42 43  1  0  0  0
 42 66  1  0  0  0
 42108  1  0  0  0
 42109  1  0  0  0
 43 44  1  0  0  0
 44110  1  0  0  0
 45 46  2  0  0  0
 45111  1  0  0  0
 46112  1  0  0  0
 47113  1  0  0  0
 47114  1  0  0  0
 48 56  1  0  0  0
 48 65  1  0  0  0
 48115  1  0  0  0
 49 50  1  0  0  0
 49 53  1  0  0  0
 49 64  1  0  0  0
 49116  1  0  0  0
 50 51  1  0  0  0
 50117  1  0  0  0
 50118  1  0  0  0
 51 52  1  0  0  0
 51119  1  0  0  0
 51120  1  0  0  0
 52121  1  0  0  0
 52122  1  0  0  0
 53 54  1  0  0  0
 54 55  2  0  0  0
 54123  1  0  0  0
 55 57  1  0  0  0
 55124  1  0  0  0
 56 69  2  0  0  0
 57 58  2  0  0  0
 57125  1  0  0  0
 58126  1  0  0  0
 59 60  1  0  0  0
 59 61  1  0  0  0
 59 62  1  0  0  0
 60127  1  0  0  0
 60128  1  0  0  0
 60129  1  0  0  0
 61130  1  0  0  0
 61131  1  0  0  0
 61132  1  0  0  0
 62133  1  0  0  0
 62134  1  0  0  0
 62135  1  0  0  0
 63 65  1  0  0  0
 63136  1  0  0  0
 63137  1  0  0  0
 63138  1  0  0  0
 64139  1  0  0  0
 65140  1  0  0  0
 68 75  1  0  0  0
 71 74  2  0  0  0
 71 75  1  0  0  0
 71141  1  0  0  0
 72 73  2  0  0  0
 72 79  1  0  0  0
 72142  1  0  0  0
 73 74  1  0  0  0
 73 77  1  0  0  0
 74 81  1  0  0  0
 75 79  2  0  0  0
 76 80  1  0  0  0
 76143  1  0  0  0
 76144  1  0  0  0
 76145  1  0  0  0
 77 78  1  0  0  0
 77146  1  0  0  0
 77147  1  0  0  0
 78 80  1  0  0  0
 78148  1  0  0  0
 78149  1  0  0  0
M  ISO  4   1 100  68 101  75 101  80 100
M  END
> <chiral flag>
0

> <version>
0

> <s_m_source_file>
/data/baiqing/PycharmProjects/Reinvent-master-3.2/result/LINK_invent/BTK/process_docking_weight1_custom_sum_contain_oxygen_bond_distance_aromatic_linkinvent_7_9_3/rearranged_h_0050.sdf

> <i_m_source_file_index>
69

> <r_mmod_Potential_Energy-OPLS-2005>
1057.37561035156

> <r_mmod_Stretch_Energy-OPLS-2005>
469.869506835938

> <r_mmod_Bend_Energy-OPLS-2005>
435.208770751953

> <r_mmod_Torsional_Energy-OPLS-2005>
279.396942138672

> <r_mmod_Improper_Torsional_Energy-OPLS-2005>
6.1423454284668

> <r_mmod_Van_der_Waal_Energy-OPLS-2005>
134.051025390625

> <r_mmod_Electrostatic_Energy-OPLS-2005>
-473.993560791016

> <r_mmod_Solvation_Energy-OPLS-2005>
-213.800170898438

> <b_mmod_Minimization_Converged-OPLS-2005>
0

> <r_mmod_RMS_Derivative-OPLS-2005>
1.27605175971985

$$$$
73
                    3D
 Structure written by MMmdl.
166174  0  0  1  0            999 V2000
  -30.7081  -14.5041   20.5791 C   0  0  0  0  0  0
  -30.4183  -12.3233   19.4419 C   0  0  0  0  0  0
  -29.4987  -12.5083   18.2175 C   0  0  0  0  0  0
  -28.0177  -12.3694   18.6231 C   0  0  0  0  0  0
  -27.6590  -13.2167   19.8748 C   0  0  2  0  0  0
  -28.7006  -13.0151   20.9985 C   0  0  0  0  0  0
  -25.2564  -13.8179   20.5700 C   0  0  0  0  0  0
  -24.1819  -13.0430   20.9188 C   0  0  0  0  0  0
  -24.6384  -11.6900   20.8722 C   0  0  0  0  0  0
  -23.9043  -10.4276   21.0385 C   0  0  0  0  0  0
  -24.3592   -9.4199   21.9178 C   0  0  0  0  0  0
  -23.6281   -8.2241   22.0747 C   0  0  0  0  0  0
  -22.4269   -8.0266   21.3533 C   0  0  0  0  0  0
  -21.9893   -9.0228   20.4634 C   0  0  0  0  0  0
  -22.7215  -10.2120   20.3046 C   0  0  0  0  0  0
  -21.6844   -6.0731   22.5279 C   0  0  0  0  0  0
  -21.4012   -6.5633   23.8214 C   0  0  0  0  0  0
  -21.3662   -5.6790   24.9171 C   0  0  0  0  0  0
  -21.6043   -4.3049   24.7218 C   0  0  0  0  0  0
  -21.8819   -3.8141   23.4339 C   0  0  0  0  0  0
  -21.9185   -4.6964   22.3397 C   0  0  0  0  0  0
  -22.7834  -13.5217   21.1860 C   0  0  0  0  0  0
  -22.1654   -4.2143   21.0978 F   0  0  0  0  0  0
  -21.5627   -3.4542   25.7735 F   0  0  0  0  0  0
  -30.0267  -13.3266   20.4489 N   0  0  0  0  0  0
  -26.3008  -12.9368   20.3372 N   0  0  0  0  0  0
  -25.9326  -11.6520   20.5768 N   0  0  0  0  0  0
  -22.0471  -12.8190   22.0407 N   0  0  0  0  0  0
  -25.4281  -15.1895   20.4124 N   0  0  0  0  0  0
  -31.8332  -14.6362   20.0888 O   0  0  0  0  0  0
  -21.6628   -6.8864   21.4238 O   0  0  0  0  0  0
  -22.3515  -14.5522   20.6719 O   0  0  0  0  0  0
  -24.6163  -31.8699   23.2111 C   0  0  0  0  0  0
  -25.9050  -32.4843   23.8433 C   0  0  1  0  0  0
  -27.2216  -27.4018   20.1182 C   0  0  0  0  0  0
  -25.5903  -33.8654   24.2339 N   0  0  0  0  0  0
  -23.4070  -30.4886   21.5568 C   0  0  2  0  0  0
  -24.8533  -28.9579   20.1201 C   0  0  0  0  0  0
  -22.7465  -29.4603   22.5049 C   0  0  0  0  0  0
  -18.0263  -28.1350   22.8483 C   0  0  0  0  0  0
  -24.1490  -36.7298   23.2637 C   0  0  0  0  0  0
  -25.9395  -30.8277   21.3715 C   0  0  0  0  0  0
  -26.0161  -29.4572   20.7239 C   0  0  0  0  0  0
  -27.2026  -28.6846   20.7225 C   0  0  0  0  0  0
  -26.0500  -26.9378   19.4890 C   0  0  0  0  0  0
  -24.8668  -27.6974   19.5043 C   0  0  0  0  0  0
  -23.6160  -29.8258   20.1696 C   0  0  0  0  0  0
  -25.4120  -36.3110   24.0324 C   0  0  1  0  0  0
  -20.5861  -28.3629   23.1356 C   0  0  2  0  0  0
  -20.6743  -26.9378   22.5440 C   0  0  0  0  0  0
  -19.5716  -26.6360   21.5238 C   0  0  0  0  0  0
  -18.1881  -26.7893   22.1624 C   0  0  0  0  0  0
  -19.1516  -28.8805   23.2896 C   0  0  0  0  0  0
  -18.9440  -30.1393   23.8929 C   0  0  0  0  0  0
  -17.6447  -30.6566   24.0530 C   0  0  0  0  0  0
  -25.9063  -34.9475   23.5142 C   0  0  0  0  0  0
  -16.5329  -29.9062   23.6323 C   0  0  0  0  0  0
  -16.7261  -28.6465   23.0389 C   0  0  0  0  0  0
  -26.4459  -31.6643   25.0793 C   0  0  0  0  0  0
  -25.3682  -31.3726   26.1519 C   0  0  0  0  0  0
  -27.0332  -30.3111   24.6173 C   0  0  0  0  0  0
  -27.6066  -32.4363   25.7501 C   0  0  0  0  0  0
  -27.5575  -37.1788   24.8450 C   0  0  0  0  0  0
  -21.4189  -29.2992   22.3789 N   0  0  0  0  0  0
  -26.4293  -37.3803   23.9401 N   0  0  0  0  0  0
  -24.6730  -31.0778   22.1032 N   0  0  0  0  0  0
  -23.4237  -28.8164   23.3111 O   0  0  0  0  0  0
  -28.3651  -26.6267   20.0942 O   0  0  0  0  0  0
  -26.5624  -34.8888   22.4704 O   0  0  0  0  0  0
  -23.5346  -32.1481   23.7479 O   0  0  0  0  0  0
  -28.1206  -21.6392   20.9355 C   0  0  0  0  0  0
  -29.0497  -20.7793   20.2587 C   0  0  0  0  0  0
  -28.4450  -22.9204   20.5287 C   0  0  0  0  0  0
  -26.9582  -21.1998   21.7958 C   0  0  0  0  0  0
  -30.8858  -16.0773   22.5412 C   0  0  0  0  0  0
  -30.3029  -23.8000   18.9847 C   0  0  0  0  0  0
  -31.3583  -19.0176   20.8986 C   0  0  0  0  0  0
  -29.0211  -19.2513   20.0633 C   0  0  0  0  0  0
  -27.6780  -24.2251   20.7111 C   0  0  0  0  0  0
  -30.0895  -16.9943   20.2335 C   0  0  0  0  0  0
  -28.4396  -25.5467   21.0583 C   0  0  0  0  0  0
  -30.0980  -15.7829   21.2471 C   0  0  1  0  0  0
  -29.9392  -21.4973   19.5860 N   0  0  0  0  0  0
  -29.5671  -22.7904   19.7234 N   0  0  0  0  0  0
  -30.0120  -18.3934   20.7987 N   0  3  1  0  0  0
  -31.4660  -12.3994   19.1478 H   0  0  0  0  0  0
  -30.3058  -11.3167   19.8485 H   0  0  0  0  0  0
  -29.7447  -11.7795   17.4439 H   0  0  0  0  0  0
  -29.6706  -13.4919   17.7769 H   0  0  0  0  0  0
  -27.8291  -11.3131   18.8254 H   0  0  0  0  0  0
  -27.3704  -12.6389   17.7874 H   0  0  0  0  0  0
  -27.6964  -14.2626   19.5702 H   0  0  0  0  0  0
  -28.6832  -11.9777   21.3370 H   0  0  0  0  0  0
  -28.4606  -13.6053   21.8819 H   0  0  0  0  0  0
  -25.2734   -9.5687   22.4761 H   0  0  0  0  0  0
  -23.9981   -7.4627   22.7478 H   0  0  0  0  0  0
  -21.0825   -8.8723   19.8945 H   0  0  0  0  0  0
  -22.3649  -10.9643   19.6152 H   0  0  0  0  0  0
  -21.2014   -7.6146   23.9708 H   0  0  0  0  0  0
  -21.1491   -6.0525   25.9069 H   0  0  0  0  0  0
  -22.0601   -2.7607   23.2844 H   0  0  0  0  0  0
  -22.4077  -11.9846   22.4779 H   0  0  0  0  0  0
  -21.1086  -13.1207   22.2611 H   0  0  0  0  0  0
  -24.6598  -15.8435   20.5143 H   0  0  0  0  0  0
  -26.2774  -15.6251   20.0773 H   0  0  0  0  0  0
  -26.7148  -32.5562   23.1230 H   0  0  0  0  0  0
  -25.0028  -33.9856   25.0462 H   0  0  0  0  0  0
  -22.6944  -31.3047   21.4185 H   0  0  0  0  0  0
  -23.3763  -35.9615   23.3317 H   0  0  0  0  0  0
  -24.3549  -36.8936   22.2039 H   0  0  0  0  0  0
  -23.7252  -37.6498   23.6682 H   0  0  0  0  0  0
  -26.0590  -31.5968   20.6069 H   0  0  0  0  0  0
  -26.8239  -30.8842   21.9928 H   0  0  0  0  0  0
  -28.1033  -29.0560   21.1906 H   0  0  0  0  0  0
  -26.0380  -25.9906   18.9739 H   0  0  0  0  0  0
  -23.9715  -27.3118   19.0356 H   0  0  0  0  0  0
  -23.7152  -30.6059   19.4138 H   0  0  0  0  0  0
  -22.7387  -29.2440   19.8770 H   0  0  0  0  0  0
  -25.1298  -36.1962   25.0818 H   0  0  0  0  0  0
  -20.9919  -28.3157   24.1493 H   0  0  0  0  0  0
  -20.5673  -26.2241   23.3621 H   0  0  0  0  0  0
  -21.6600  -26.7414   22.1190 H   0  0  0  0  0  0
  -19.6907  -25.6295   21.1237 H   0  0  0  0  0  0
  -19.6657  -27.3186   20.6780 H   0  0  0  0  0  0
  -17.4166  -26.6675   21.3991 H   0  0  0  0  0  0
  -18.0203  -26.0031   22.9005 H   0  0  0  0  0  0
  -19.7912  -30.7157   24.2364 H   0  0  0  0  0  0
  -17.5000  -31.6263   24.5081 H   0  0  0  0  0  0
  -15.5331  -30.2958   23.7643 H   0  0  0  0  0  0
  -15.8650  -28.0753   22.7200 H   0  0  0  0  0  0
  -24.5870  -30.7106   25.7782 H   0  0  0  0  0  0
  -24.8839  -32.2857   26.4988 H   0  0  0  0  0  0
  -25.7950  -30.8841   27.0299 H   0  0  0  0  0  0
  -26.2914  -29.6855   24.1216 H   0  0  0  0  0  0
  -27.4147  -29.7372   25.4633 H   0  0  0  0  0  0
  -27.8700  -30.4478   23.9322 H   0  0  0  0  0  0
  -27.2778  -33.3715   26.2032 H   0  0  0  0  0  0
  -28.3836  -32.6873   25.0270 H   0  0  0  0  0  0
  -28.0776  -31.8537   26.5425 H   0  0  0  0  0  0
  -28.2574  -38.0098   24.7536 H   0  0  0  0  0  0
  -28.1095  -36.2645   24.6251 H   0  0  0  0  0  0
  -27.2275  -37.1376   25.8842 H   0  0  0  0  0  0
  -20.9399  -29.8767   21.7033 H   0  0  0  0  0  0
  -26.0184  -38.2878   24.1458 H   0  0  0  0  0  0
  -27.1234  -20.2201   22.2450 H   0  0  0  0  0  0
  -26.0320  -21.1285   21.2251 H   0  0  0  0  0  0
  -26.7678  -21.8854   22.6229 H   0  0  0  0  0  0
  -30.4346  -16.8847   23.1180 H   0  0  0  0  0  0
  -31.9221  -16.3443   22.3382 H   0  0  0  0  0  0
  -30.9095  -15.2011   23.1921 H   0  0  0  0  0  0
  -29.6073  -24.4450   18.4474 H   0  0  0  0  0  0
  -30.9765  -23.3301   18.2654 H   0  0  0  0  0  0
  -30.9059  -24.3986   19.6661 H   0  0  0  0  0  0
  -31.3292  -19.9435   21.4743 H   0  0  0  0  0  0
  -31.7647  -19.2426   19.9102 H   0  0  0  0  0  0
  -32.0743  -18.3666   21.3970 H   0  0  0  0  0  0
  -29.1410  -19.0635   18.9948 H   0  0  0  0  0  0
  -28.0241  -18.8796   20.2953 H   0  0  0  0  0  0
  -26.9372  -24.0719   21.4959 H   0  0  0  0  0  0
  -27.0850  -24.3706   19.8150 H   0  0  0  0  0  0
  -29.2396  -16.8276   19.5701 H   0  0  0  0  0  0
  -30.9537  -16.9463   19.5655 H   0  0  0  0  0  0
  -29.4881  -25.3192   21.2353 H   0  0  0  0  0  0
  -28.0816  -25.9196   22.0209 H   0  0  0  0  0  0
  -29.0636  -15.6129   21.5368 H   0  0  0  0  0  0
  -29.6579  -18.3312   21.7412 H   0  0  0  0  0  0
  1 25  1  0  0  0
  1 30  2  0  0  0
  1 82  1  0  0  0
  2  3  1  0  0  0
  2 25  1  0  0  0
  2 86  1  0  0  0
  2 87  1  0  0  0
  3  4  1  0  0  0
  3 88  1  0  0  0
  3 89  1  0  0  0
  4  5  1  0  0  0
  4 90  1  0  0  0
  4 91  1  0  0  0
  5  6  1  0  0  0
  5 26  1  0  0  0
  5 92  1  0  0  0
  6 25  1  0  0  0
  6 93  1  0  0  0
  6 94  1  0  0  0
  7  8  2  0  0  0
  7 26  1  0  0  0
  7 29  1  0  0  0
  8  9  1  0  0  0
  8 22  1  0  0  0
  9 10  1  0  0  0
  9 27  2  0  0  0
 10 11  2  0  0  0
 10 15  1  0  0  0
 11 12  1  0  0  0
 11 95  1  0  0  0
 12 13  2  0  0  0
 12 96  1  0  0  0
 13 14  1  0  0  0
 13 31  1  0  0  0
 14 15  2  0  0  0
 14 97  1  0  0  0
 15 98  1  0  0  0
 16 17  2  0  0  0
 16 21  1  0  0  0
 16 31  1  0  0  0
 17 18  1  0  0  0
 17 99  1  0  0  0
 18 19  2  0  0  0
 18100  1  0  0  0
 19 20  1  0  0  0
 19 24  1  0  0  0
 20 21  2  0  0  0
 20101  1  0  0  0
 21 23  1  0  0  0
 22 28  1  0  0  0
 22 32  2  0  0  0
 26 27  1  0  0  0
 28102  1  0  0  0
 28103  1  0  0  0
 29104  1  0  0  0
 29105  1  0  0  0
 33 34  1  0  0  0
 33 66  1  0  0  0
 33 70  2  0  0  0
 34 36  1  0  0  0
 34 59  1  0  0  0
 34106  1  0  0  0
 35 44  2  0  0  0
 35 45  1  0  0  0
 35 68  1  0  0  0
 36 56  1  0  0  0
 36107  1  0  0  0
 37 39  1  0  0  0
 37 47  1  0  0  0
 37 66  1  0  0  0
 37108  1  0  0  0
 38 43  2  0  0  0
 38 46  1  0  0  0
 38 47  1  0  0  0
 39 64  1  0  0  0
 39 67  2  0  0  0
 40 52  1  0  0  0
 40 53  2  0  0  0
 40 58  1  0  0  0
 41109  1  0  0  0
 41110  1  0  0  0
 41111  1  0  0  0
 41 48  1  0  0  0
 42 43  1  0  0  0
 42 66  1  0  0  0
 42112  1  0  0  0
 42113  1  0  0  0
 43 44  1  0  0  0
 44114  1  0  0  0
 45 46  2  0  0  0
 45115  1  0  0  0
 46116  1  0  0  0
 47117  1  0  0  0
 47118  1  0  0  0
 48 56  1  0  0  0
 48 65  1  0  0  0
 48119  1  0  0  0
 49 50  1  0  0  0
 49 53  1  0  0  0
 49 64  1  0  0  0
 49120  1  0  0  0
 50 51  1  0  0  0
 50121  1  0  0  0
 50122  1  0  0  0
 51 52  1  0  0  0
 51123  1  0  0  0
 51124  1  0  0  0
 52125  1  0  0  0
 52126  1  0  0  0
 53 54  1  0  0  0
 54 55  2  0  0  0
 54127  1  0  0  0
 55 57  1  0  0  0
 55128  1  0  0  0
 56 69  2  0  0  0
 57 58  2  0  0  0
 57129  1  0  0  0
 58130  1  0  0  0
 59 60  1  0  0  0
 59 61  1  0  0  0
 59 62  1  0  0  0
 60131  1  0  0  0
 60132  1  0  0  0
 60133  1  0  0  0
 61134  1  0  0  0
 61135  1  0  0  0
 61136  1  0  0  0
 62137  1  0  0  0
 62138  1  0  0  0
 62139  1  0  0  0
 63 65  1  0  0  0
 63140  1  0  0  0
 63141  1  0  0  0
 63142  1  0  0  0
 64143  1  0  0  0
 65144  1  0  0  0
 68 81  1  0  0  0
 71 72  1  0  0  0
 71 73  2  0  0  0
 71 74  1  0  0  0
 72 78  1  0  0  0
 72 83  2  0  0  0
 73 79  1  0  0  0
 73 84  1  0  0  0
 74145  1  0  0  0
 74146  1  0  0  0
 74147  1  0  0  0
 75148  1  0  0  0
 75149  1  0  0  0
 75150  1  0  0  0
 75 82  1  0  0  0
 76 84  1  0  0  0
 76151  1  0  0  0
 76152  1  0  0  0
 76153  1  0  0  0
 77154  1  0  0  0
 77155  1  0  0  0
 77156  1  0  0  0
 77 85  1  0  0  0
 78 85  1  0  0  0
 78157  1  0  0  0
 78158  1  0  0  0
 79 81  1  0  0  0
 79159  1  0  0  0
 79160  1  0  0  0
 80 82  1  0  0  0
 80 85  1  0  0  0
 80161  1  0  0  0
 80162  1  0  0  0
 81163  1  0  0  0
 81164  1  0  0  0
 82165  1  0  0  0
 83 84  1  0  0  0
 85166  1  0  0  0
M  CHG  1  85   1
M  ISO  4   1 100  68 101  81 101  82 100
M  END
> <chiral flag>
0

> <version>
0

> <s_m_source_file>
/data/baiqing/PycharmProjects/Reinvent-master-3.2/result/LINK_invent/BTK/process_docking_weight1_custom_sum_contain_oxygen_bond_distance_aromatic_linkinvent_7_9_3/rearranged_h_0050.sdf

> <i_m_source_file_index>
70

> <r_mmod_Potential_Energy-OPLS-2005>
-168.18489074707

> <r_mmod_Stretch_Energy-OPLS-2005>
49.9817695617676

> <r_mmod_Bend_Energy-OPLS-2005>
121.724967956543

> <r_mmod_Torsional_Energy-OPLS-2005>
239.126602172852

> <r_mmod_Improper_Torsional_Energy-OPLS-2005>
4.18938636779785

> <r_mmod_Van_der_Waal_Energy-OPLS-2005>
124.612762451172

> <r_mmod_Electrostatic_Energy-OPLS-2005>
-307.384490966797

> <r_mmod_Solvation_Energy-OPLS-2005>
-417.405853271484

> <b_mmod_Minimization_Converged-OPLS-2005>
0

> <r_mmod_RMS_Derivative-OPLS-2005>
4.00138521194458

$$$$
74
                    3D
 Structure written by MMmdl.
162170  0  0  1  0            999 V2000
  -30.7050  -14.5797   20.4428 C   0  0  0  0  0  0
  -30.4136  -12.3378   19.4516 C   0  0  0  0  0  0
  -29.4889  -12.4221   18.2202 C   0  0  0  0  0  0
  -28.0127  -12.3101   18.6421 C   0  0  0  0  0  0
  -27.6438  -13.2193   19.8458 C   0  0  2  0  0  0
  -28.6947  -13.1325   20.9741 C   0  0  0  0  0  0
  -25.2522  -13.8194   20.5682 C   0  0  0  0  0  0
  -24.1802  -13.0449   20.9201 C   0  0  0  0  0  0
  -24.6381  -11.6926   20.8766 C   0  0  0  0  0  0
  -23.9061  -10.4299   21.0411 C   0  0  0  0  0  0
  -24.3613   -9.4208   21.9184 C   0  0  0  0  0  0
  -23.6283   -8.2245   22.0750 C   0  0  0  0  0  0
  -22.4269   -8.0283   21.3537 C   0  0  0  0  0  0
  -21.9907   -9.0254   20.4636 C   0  0  0  0  0  0
  -22.7237  -10.2134   20.3050 C   0  0  0  0  0  0
  -21.6856   -6.0731   22.5269 C   0  0  0  0  0  0
  -21.4021   -6.5637   23.8200 C   0  0  0  0  0  0
  -21.3656   -5.6790   24.9164 C   0  0  0  0  0  0
  -21.6042   -4.3052   24.7215 C   0  0  0  0  0  0
  -21.8825   -3.8144   23.4339 C   0  0  0  0  0  0
  -21.9196   -4.6959   22.3395 C   0  0  0  0  0  0
  -22.7823  -13.5227   21.1858 C   0  0  0  0  0  0
  -22.1666   -4.2144   21.0970 F   0  0  0  0  0  0
  -21.5617   -3.4538   25.7729 F   0  0  0  0  0  0
  -30.0040  -13.4100   20.3757 N   0  0  0  0  0  0
  -26.2952  -12.9387   20.3306 N   0  0  0  0  0  0
  -25.9312  -11.6544   20.5817 N   0  0  0  0  0  0
  -22.0491  -12.8199   22.0420 N   0  0  0  0  0  0
  -25.4219  -15.1904   20.4043 N   0  0  0  0  0  0
  -31.9239  -14.5830   20.2632 O   0  0  0  0  0  0
  -21.6642   -6.8874   21.4231 O   0  0  0  0  0  0
  -22.3497  -14.5533   20.6716 O   0  0  0  0  0  0
  -24.6185  -31.8654   23.2068 C   0  0  0  0  0  0
  -25.9058  -32.4808   23.8388 C   0  0  1  0  0  0
  -27.2286  -27.3924   20.1151 C   0  0  0  0  0  0
  -25.5914  -33.8605   24.2319 N   0  0  0  0  0  0
  -23.4084  -30.4882   21.5471 C   0  0  2  0  0  0
  -24.8558  -28.9464   20.1161 C   0  0  0  0  0  0
  -22.7426  -29.4640   22.4950 C   0  0  0  0  0  0
  -18.0281  -28.1379   22.8492 C   0  0  0  0  0  0
  -24.1479  -36.7307   23.2633 C   0  0  0  0  0  0
  -25.9404  -30.8204   21.3622 C   0  0  0  0  0  0
  -26.0193  -29.4505   20.7114 C   0  0  0  0  0  0
  -27.2127  -28.6848   20.6999 C   0  0  0  0  0  0
  -26.0506  -26.9141   19.5044 C   0  0  0  0  0  0
  -24.8691  -27.6797   19.5070 C   0  0  0  0  0  0
  -23.6198  -29.8183   20.1634 C   0  0  0  0  0  0
  -25.4105  -36.3104   24.0327 C   0  0  1  0  0  0
  -20.5873  -28.3671   23.1300 C   0  0  2  0  0  0
  -20.6771  -26.9402   22.5408 C   0  0  0  0  0  0
  -19.5746  -26.6383   21.5212 C   0  0  0  0  0  0
  -18.1926  -26.7922   22.1619 C   0  0  0  0  0  0
  -19.1531  -28.8842   23.2895 C   0  0  0  0  0  0
  -18.9457  -30.1449   23.8903 C   0  0  0  0  0  0
  -17.6461  -30.6589   24.0567 C   0  0  0  0  0  0
  -25.9031  -34.9468   23.5119 C   0  0  0  0  0  0
  -16.5355  -29.9078   23.6330 C   0  0  0  0  0  0
  -16.7276  -28.6500   23.0351 C   0  0  0  0  0  0
  -26.4477  -31.6590   25.0726 C   0  0  0  0  0  0
  -25.3720  -31.3703   26.1464 C   0  0  0  0  0  0
  -27.0311  -30.3032   24.6103 C   0  0  0  0  0  0
  -27.6068  -32.4294   25.7484 C   0  0  0  0  0  0
  -27.5570  -37.1808   24.8463 C   0  0  0  0  0  0
  -21.4150  -29.3040   22.3692 N   0  0  0  0  0  0
  -26.4289  -37.3791   23.9405 N   0  0  0  0  0  0
  -24.6745  -31.0726   22.0969 N   0  0  0  0  0  0
  -23.4182  -28.8182   23.3004 O   0  0  0  0  0  0
  -28.3654  -26.6028   20.1254 O   0  0  0  0  0  0
  -26.5589  -34.8915   22.4675 O   0  0  0  0  0  0
  -23.5368  -32.1417   23.7441 O   0  0  0  0  0  0
  -29.0939  -22.5495   21.9468 C   0  0  0  0  0  0
  -28.6076  -20.5853   21.1873 C   0  0  0  0  0  0
  -28.4992  -21.5001   20.1416 C   0  0  0  0  0  0
  -31.5607  -16.9879   18.4737 C   0  0  0  0  0  0
  -28.3158  -19.0810   21.2546 C   0  0  0  0  0  0
  -29.4918  -18.1264   20.8890 C   0  0  0  0  0  0
  -28.8110  -24.0957   19.9681 C   0  0  0  0  0  0
  -30.2289  -16.2336   18.6871 C   0  0  0  0  0  0
  -29.1635  -16.5765   20.9139 C   0  0  0  0  0  0
  -28.2310  -25.3061   20.7716 C   0  0  0  0  0  0
  -28.1505  -21.2719   18.6982 C   0  0  0  0  0  0
  -29.0149  -21.2757   22.3310 N   0  0  0  0  0  0
  -28.7744  -22.7831   20.6645 N   0  0  0  0  0  0
  -30.0159  -15.7028   20.0540 N   0  0  0  0  0  0
  -27.9744  -19.9815   18.4193 F   0  0  0  0  0  0
  -27.0266  -21.9037   18.3619 F   0  0  0  0  0  0
  -29.1173  -21.7132   17.8942 F   0  0  0  0  0  0
  -31.4562  -12.4218   19.1406 H   0  0  0  0  0  0
  -30.3220  -11.3652   19.9378 H   0  0  0  0  0  0
  -29.7303  -11.6225   17.5182 H   0  0  0  0  0  0
  -29.6516  -13.3503   17.6773 H   0  0  0  0  0  0
  -27.8350  -11.2664   18.9041 H   0  0  0  0  0  0
  -27.3591  -12.5204   17.7951 H   0  0  0  0  0  0
  -27.6483  -14.2410   19.4667 H   0  0  0  0  0  0
  -28.6904  -12.1435   21.4341 H   0  0  0  0  0  0
  -28.4699  -13.8479   21.7669 H   0  0  0  0  0  0
  -25.2754   -9.5684   22.4763 H   0  0  0  0  0  0
  -23.9987   -7.4631   22.7470 H   0  0  0  0  0  0
  -21.0838   -8.8768   19.8935 H   0  0  0  0  0  0
  -22.3688  -10.9670   19.6158 H   0  0  0  0  0  0
  -21.2029   -7.6146   23.9701 H   0  0  0  0  0  0
  -21.1465   -6.0523   25.9063 H   0  0  0  0  0  0
  -22.0611   -2.7607   23.2840 H   0  0  0  0  0  0
  -22.4131  -11.9848   22.4771 H   0  0  0  0  0  0
  -21.1113  -13.1203   22.2667 H   0  0  0  0  0  0
  -24.6543  -15.8455   20.5031 H   0  0  0  0  0  0
  -26.2729  -15.6219   20.0693 H   0  0  0  0  0  0
  -26.7118  -32.5509   23.1142 H   0  0  0  0  0  0
  -25.0116  -33.9783   25.0502 H   0  0  0  0  0  0
  -22.6999  -31.3063   21.4045 H   0  0  0  0  0  0
  -23.3735  -35.9641   23.3319 H   0  0  0  0  0  0
  -24.3571  -36.8913   22.2042 H   0  0  0  0  0  0
  -23.7229  -37.6515   23.6644 H   0  0  0  0  0  0
  -26.0515  -31.5807   20.5887 H   0  0  0  0  0  0
  -26.8290  -30.8802   21.9786 H   0  0  0  0  0  0
  -28.1114  -29.0690   21.1613 H   0  0  0  0  0  0
  -26.0425  -25.9417   19.0321 H   0  0  0  0  0  0
  -23.9737  -27.2867   19.0454 H   0  0  0  0  0  0
  -23.7303  -30.5921   19.4030 H   0  0  0  0  0  0
  -22.7427  -29.2401   19.8664 H   0  0  0  0  0  0
  -25.1269  -36.1973   25.0817 H   0  0  0  0  0  0
  -20.9991  -28.3242   24.1411 H   0  0  0  0  0  0
  -20.5674  -26.2275   23.3590 H   0  0  0  0  0  0
  -21.6637  -26.7434   22.1200 H   0  0  0  0  0  0
  -19.6910  -25.6293   21.1232 H   0  0  0  0  0  0
  -19.6697  -27.3193   20.6742 H   0  0  0  0  0  0
  -17.4198  -26.6688   21.4017 H   0  0  0  0  0  0
  -18.0333  -26.0052   22.9003 H   0  0  0  0  0  0
  -19.7932  -30.7265   24.2269 H   0  0  0  0  0  0
  -17.5014  -31.6263   24.5162 H   0  0  0  0  0  0
  -15.5352  -30.2985   23.7648 H   0  0  0  0  0  0
  -15.8674  -28.0821   22.7063 H   0  0  0  0  0  0
  -24.5924  -30.7013   25.7799 H   0  0  0  0  0  0
  -24.8865  -32.2846   26.4876 H   0  0  0  0  0  0
  -25.8057  -30.8902   27.0241 H   0  0  0  0  0  0
  -26.2859  -29.6807   24.1130 H   0  0  0  0  0  0
  -27.4057  -29.7261   25.4570 H   0  0  0  0  0  0
  -27.8702  -30.4370   23.9270 H   0  0  0  0  0  0
  -27.2735  -33.3614   26.2061 H   0  0  0  0  0  0
  -28.3886  -32.6821   25.0308 H   0  0  0  0  0  0
  -28.0713  -31.8390   26.5395 H   0  0  0  0  0  0
  -28.2603  -38.0094   24.7511 H   0  0  0  0  0  0
  -28.1058  -36.2628   24.6298 H   0  0  0  0  0  0
  -27.2286  -37.1457   25.8867 H   0  0  0  0  0  0
  -20.9302  -29.8782   21.6937 H   0  0  0  0  0  0
  -26.0178  -38.2864   24.1425 H   0  0  0  0  0  0
  -29.3946  -23.3344   22.6262 H   0  0  0  0  0  0
  -31.5585  -17.5052   17.5135 H   0  0  0  0  0  0
  -32.4124  -16.3086   18.4585 H   0  0  0  0  0  0
  -31.7584  -17.7307   19.2456 H   0  0  0  0  0  0
  -27.4693  -18.8513   20.6065 H   0  0  0  0  0  0
  -27.9680  -18.8276   22.2567 H   0  0  0  0  0  0
  -30.3418  -18.3257   21.5427 H   0  0  0  0  0  0
  -29.8017  -18.4552   19.9015 H   0  0  0  0  0  0
  -29.8501  -24.3029   19.7119 H   0  0  0  0  0  0
  -28.2749  -24.0123   19.0238 H   0  0  0  0  0  0
  -30.1895  -15.4185   17.9675 H   0  0  0  0  0  0
  -29.3923  -16.8755   18.4068 H   0  0  0  0  0  0
  -28.1347  -16.4276   20.5873 H   0  0  0  0  0  0
  -29.1963  -16.2211   21.9458 H   0  0  0  0  0  0
  -28.7611  -25.3939   21.7195 H   0  0  0  0  0  0
  -27.1964  -25.0868   21.0409 H   0  0  0  0  0  0
  1 25  1  0  0  0
  1 30  2  0  0  0
  1 84  1  0  0  0
  2  3  1  0  0  0
  2 25  1  0  0  0
  2 88  1  0  0  0
  2 89  1  0  0  0
  3  4  1  0  0  0
  3 90  1  0  0  0
  3 91  1  0  0  0
  4  5  1  0  0  0
  4 92  1  0  0  0
  4 93  1  0  0  0
  5  6  1  0  0  0
  5 26  1  0  0  0
  5 94  1  0  0  0
  6 25  1  0  0  0
  6 95  1  0  0  0
  6 96  1  0  0  0
  7  8  2  0  0  0
  7 26  1  0  0  0
  7 29  1  0  0  0
  8  9  1  0  0  0
  8 22  1  0  0  0
  9 10  1  0  0  0
  9 27  2  0  0  0
 10 11  2  0  0  0
 10 15  1  0  0  0
 11 12  1  0  0  0
 11 97  1  0  0  0
 12 13  2  0  0  0
 12 98  1  0  0  0
 13 14  1  0  0  0
 13 31  1  0  0  0
 14 15  2  0  0  0
 14 99  1  0  0  0
 15100  1  0  0  0
 16 17  2  0  0  0
 16 21  1  0  0  0
 16 31  1  0  0  0
 17 18  1  0  0  0
 17101  1  0  0  0
 18 19  2  0  0  0
 18102  1  0  0  0
 19 20  1  0  0  0
 19 24  1  0  0  0
 20 21  2  0  0  0
 20103  1  0  0  0
 21 23  1  0  0  0
 22 28  1  0  0  0
 22 32  2  0  0  0
 26 27  1  0  0  0
 28104  1  0  0  0
 28105  1  0  0  0
 29106  1  0  0  0
 29107  1  0  0  0
 33 34  1  0  0  0
 33 66  1  0  0  0
 33 70  2  0  0  0
 34 36  1  0  0  0
 34 59  1  0  0  0
 34108  1  0  0  0
 35 44  2  0  0  0
 35 45  1  0  0  0
 35 68  1  0  0  0
 36 56  1  0  0  0
 36109  1  0  0  0
 37 39  1  0  0  0
 37 47  1  0  0  0
 37 66  1  0  0  0
 37110  1  0  0  0
 38 43  2  0  0  0
 38 46  1  0  0  0
 38 47  1  0  0  0
 39 64  1  0  0  0
 39 67  2  0  0  0
 40 52  1  0  0  0
 40 53  2  0  0  0
 40 58  1  0  0  0
 41111  1  0  0  0
 41112  1  0  0  0
 41113  1  0  0  0
 41 48  1  0  0  0
 42 43  1  0  0  0
 42 66  1  0  0  0
 42114  1  0  0  0
 42115  1  0  0  0
 43 44  1  0  0  0
 44116  1  0  0  0
 45 46  2  0  0  0
 45117  1  0  0  0
 46118  1  0  0  0
 47119  1  0  0  0
 47120  1  0  0  0
 48 56  1  0  0  0
 48 65  1  0  0  0
 48121  1  0  0  0
 49 50  1  0  0  0
 49 53  1  0  0  0
 49 64  1  0  0  0
 49122  1  0  0  0
 50 51  1  0  0  0
 50123  1  0  0  0
 50124  1  0  0  0
 51 52  1  0  0  0
 51125  1  0  0  0
 51126  1  0  0  0
 52127  1  0  0  0
 52128  1  0  0  0
 53 54  1  0  0  0
 54 55  2  0  0  0
 54129  1  0  0  0
 55 57  1  0  0  0
 55130  1  0  0  0
 56 69  2  0  0  0
 57 58  2  0  0  0
 57131  1  0  0  0
 58132  1  0  0  0
 59 60  1  0  0  0
 59 61  1  0  0  0
 59 62  1  0  0  0
 60133  1  0  0  0
 60134  1  0  0  0
 60135  1  0  0  0
 61136  1  0  0  0
 61137  1  0  0  0
 61138  1  0  0  0
 62139  1  0  0  0
 62140  1  0  0  0
 62141  1  0  0  0
 63 65  1  0  0  0
 63142  1  0  0  0
 63143  1  0  0  0
 63144  1  0  0  0
 64145  1  0  0  0
 65146  1  0  0  0
 68 80  1  0  0  0
 71 82  2  0  0  0
 71 83  1  0  0  0
 71147  1  0  0  0
 72 73  2  0  0  0
 72 75  1  0  0  0
 72 82  1  0  0  0
 73 81  1  0  0  0
 73 83  1  0  0  0
 74 78  1  0  0  0
 74148  1  0  0  0
 74149  1  0  0  0
 74150  1  0  0  0
 75 76  1  0  0  0
 75151  1  0  0  0
 75152  1  0  0  0
 76 79  1  0  0  0
 76153  1  0  0  0
 76154  1  0  0  0
 77 80  1  0  0  0
 77 83  1  0  0  0
 77155  1  0  0  0
 77156  1  0  0  0
 78 84  1  0  0  0
 78157  1  0  0  0
 78158  1  0  0  0
 79 84  1  0  0  0
 79159  1  0  0  0
 79160  1  0  0  0
 80161  1  0  0  0
 80162  1  0  0  0
 81 85  1  0  0  0
 81 86  1  0  0  0
 81 87  1  0  0  0
M  ISO  4   1 100  68 101  80 101  84 100
M  END
> <chiral flag>
0

> <version>
0

> <s_m_source_file>
/data/baiqing/PycharmProjects/Reinvent-master-3.2/result/LINK_invent/BTK/process_docking_weight1_custom_sum_contain_oxygen_bond_distance_aromatic_linkinvent_7_9_3/rearranged_h_0050.sdf

> <i_m_source_file_index>
71

> <r_mmod_Potential_Energy-OPLS-2005>
242.028350830078

> <r_mmod_Stretch_Energy-OPLS-2005>
54.9399223327637

> <r_mmod_Bend_Energy-OPLS-2005>
117.547180175781

> <r_mmod_Torsional_Energy-OPLS-2005>
335.635375976562

> <r_mmod_Improper_Torsional_Energy-OPLS-2005>
24.0336532592773

> <r_mmod_Van_der_Waal_Energy-OPLS-2005>
119.50675201416

> <r_mmod_Electrostatic_Energy-OPLS-2005>
-251.401947021484

> <r_mmod_Solvation_Energy-OPLS-2005>
-199.423736572266

> <b_mmod_Minimization_Converged-OPLS-2005>
0

> <r_mmod_RMS_Derivative-OPLS-2005>
1.62681031227112

$$$$
75
                    3D
 Structure written by MMmdl.
180188  0  0  1  0            999 V2000
  -30.7656  -14.4250   20.6426 C   0  0  0  0  0  0
  -30.4000  -12.3095   19.4098 C   0  0  0  0  0  0
  -29.4730  -12.5335   18.1980 C   0  0  0  0  0  0
  -27.9979  -12.3908   18.6162 C   0  0  0  0  0  0
  -27.6630  -13.2029   19.8968 C   0  0  2  0  0  0
  -28.7128  -12.9255   20.9997 C   0  0  0  0  0  0
  -25.2573  -13.8154   20.5769 C   0  0  0  0  0  0
  -24.1825  -13.0429   20.9216 C   0  0  0  0  0  0
  -24.6385  -11.6893   20.8775 C   0  0  0  0  0  0
  -23.9067  -10.4280   21.0422 C   0  0  0  0  0  0
  -24.3615   -9.4193   21.9202 C   0  0  0  0  0  0
  -23.6296   -8.2228   22.0755 C   0  0  0  0  0  0
  -22.4275   -8.0274   21.3540 C   0  0  0  0  0  0
  -21.9916   -9.0261   20.4647 C   0  0  0  0  0  0
  -22.7250  -10.2141   20.3069 C   0  0  0  0  0  0
  -21.6856   -6.0729   22.5275 C   0  0  0  0  0  0
  -21.4012   -6.5638   23.8208 C   0  0  0  0  0  0
  -21.3659   -5.6794   24.9179 C   0  0  0  0  0  0
  -21.6051   -4.3053   24.7231 C   0  0  0  0  0  0
  -21.8820   -3.8141   23.4350 C   0  0  0  0  0  0
  -21.9196   -4.6957   22.3403 C   0  0  0  0  0  0
  -22.7841  -13.5215   21.1860 C   0  0  0  0  0  0
  -22.1664   -4.2138   21.0985 F   0  0  0  0  0  0
  -21.5641   -3.4542   25.7748 F   0  0  0  0  0  0
  -30.0301  -13.2831   20.4601 N   0  0  0  0  0  0
  -26.3034  -12.9325   20.3532 N   0  0  0  0  0  0
  -25.9313  -11.6482   20.5855 N   0  0  0  0  0  0
  -22.0479  -12.8221   22.0412 N   0  0  0  0  0  0
  -25.4290  -15.1876   20.4141 N   0  0  0  0  0  0
  -31.8237  -14.5363   20.0171 O   0  0  0  0  0  0
  -21.6637   -6.8875   21.4243 O   0  0  0  0  0  0
  -22.3539  -14.5529   20.6705 O   0  0  0  0  0  0
  -24.6074  -31.8671   23.2088 C   0  0  0  0  0  0
  -25.8980  -32.4798   23.8390 C   0  0  1  0  0  0
  -27.2693  -27.4709   20.1116 C   0  0  0  0  0  0
  -25.5855  -33.8601   24.2336 N   0  0  0  0  0  0
  -23.3960  -30.4822   21.5463 C   0  0  2  0  0  0
  -24.8512  -28.9358   20.1255 C   0  0  0  0  0  0
  -22.7362  -29.4639   22.5009 C   0  0  0  0  0  0
  -18.0261  -28.1341   22.8480 C   0  0  0  0  0  0
  -24.1481  -36.7323   23.2630 C   0  0  0  0  0  0
  -25.9166  -30.8410   21.3556 C   0  0  0  0  0  0
  -25.9986  -29.4735   20.7162 C   0  0  0  0  0  0
  -27.2024  -28.7479   20.7016 C   0  0  0  0  0  0
  -26.1037  -26.9179   19.5329 C   0  0  0  0  0  0
  -24.8970  -27.6552   19.5338 C   0  0  0  0  0  0
  -23.6051  -29.7919   20.1677 C   0  0  0  0  0  0
  -25.4095  -36.3105   24.0326 C   0  0  1  0  0  0
  -20.5844  -28.3632   23.1315 C   0  0  2  0  0  0
  -20.6745  -26.9366   22.5402 C   0  0  0  0  0  0
  -19.5736  -26.6365   21.5180 C   0  0  0  0  0  0
  -18.1919  -26.7895   22.1585 C   0  0  0  0  0  0
  -19.1506  -28.8797   23.2894 C   0  0  0  0  0  0
  -18.9426  -30.1409   23.8891 C   0  0  0  0  0  0
  -17.6434  -30.6557   24.0543 C   0  0  0  0  0  0
  -25.9005  -34.9455   23.5132 C   0  0  0  0  0  0
  -16.5323  -29.9054   23.6323 C   0  0  0  0  0  0
  -16.7246  -28.6466   23.0345 C   0  0  0  0  0  0
  -26.4461  -31.6576   25.0696 C   0  0  0  0  0  0
  -25.3734  -31.3620   26.1452 C   0  0  0  0  0  0
  -27.0326  -30.3026   24.6058 C   0  0  0  0  0  0
  -27.6080  -32.4271   25.7428 C   0  0  0  0  0  0
  -27.5586  -37.1799   24.8446 C   0  0  0  0  0  0
  -21.4103  -29.3003   22.3716 N   0  0  0  0  0  0
  -26.4284  -37.3782   23.9407 N   0  0  0  0  0  0
  -24.6580  -31.0789   22.0967 N   0  0  0  0  0  0
  -23.4145  -28.8204   23.3055 O   0  0  0  0  0  0
  -28.5132  -26.8892   20.1064 O   0  0  0  0  0  0
  -26.5574  -34.8890   22.4699 O   0  0  0  0  0  0
  -23.5284  -32.1423   23.7499 O   0  0  0  0  0  0
  -30.4452  -21.6475   20.6840 C   0  0  0  0  0  0
  -30.9581  -23.2036   22.4470 C   0  0  0  0  0  0
  -30.7362  -22.9633   21.0771 C   0  0  0  0  0  0
  -30.3748  -20.6329   21.6552 C   0  0  0  0  0  0
  -30.8481  -22.1400   23.3699 C   0  0  0  0  0  0
  -30.2847  -23.4915   25.4214 C   0  0  0  0  0  0
  -32.6543  -22.7391   25.0219 C   0  0  0  0  0  0
  -30.9049  -21.0987   25.7094 C   0  0  0  0  0  0
  -30.9402  -15.3086   22.9923 C   0  0  0  0  0  0
  -28.9041  -16.0126   21.6601 C   0  0  0  0  0  0
  -32.5536  -18.7338   21.8565 C   0  0  0  0  0  0
  -30.9333  -24.0436   20.0215 C   0  0  0  0  0  0
  -30.1682  -19.1808   21.2271 C   0  0  0  0  0  0
  -30.2368  -25.3877   20.2855 C   0  0  0  0  0  0
  -31.1741  -16.9008   20.9976 C   0  0  0  0  0  0
  -28.7274  -25.4944   19.9762 C   0  0  0  0  0  0
  -31.1678  -22.3631   24.8596 C   0  0  0  0  0  0
  -30.4073  -15.6465   21.5835 C   0  0  0  0  0  0
  -30.5460  -20.8791   22.9738 N   0  0  0  0  0  0
  -31.1652  -18.1938   21.7618 N   0  3  1  0  0  0
  -31.4422  -12.3768   19.0944 H   0  0  0  0  0  0
  -30.2899  -11.2898   19.7860 H   0  0  0  0  0  0
  -29.7054  -11.8206   17.4061 H   0  0  0  0  0  0
  -29.6433  -13.5264   17.7758 H   0  0  0  0  0  0
  -27.8048  -11.3315   18.7916 H   0  0  0  0  0  0
  -27.3401  -12.6884   17.7986 H   0  0  0  0  0  0
  -27.7187  -14.2555   19.6275 H   0  0  0  0  0  0
  -28.6986  -11.8605   21.2368 H   0  0  0  0  0  0
  -28.4876  -13.3809   21.9545 H   0  0  0  0  0  0
  -25.2754   -9.5669   22.4787 H   0  0  0  0  0  0
  -24.0006   -7.4609   22.7452 H   0  0  0  0  0  0
  -21.0856   -8.8795   19.8929 H   0  0  0  0  0  0
  -22.3728  -10.9694   19.6181 H   0  0  0  0  0  0
  -21.1997   -7.6143   23.9717 H   0  0  0  0  0  0
  -21.1486   -6.0521   25.9089 H   0  0  0  0  0  0
  -22.0600   -2.7600   23.2866 H   0  0  0  0  0  0
  -22.4110  -11.9896   22.4819 H   0  0  0  0  0  0
  -21.1085  -13.1226   22.2602 H   0  0  0  0  0  0
  -24.6606  -15.8399   20.5257 H   0  0  0  0  0  0
  -26.2872  -15.6275   20.1111 H   0  0  0  0  0  0
  -26.7050  -32.5543   23.1165 H   0  0  0  0  0  0
  -24.9999  -33.9784   25.0468 H   0  0  0  0  0  0
  -22.6828  -31.2949   21.3989 H   0  0  0  0  0  0
  -23.3723  -35.9669   23.3281 H   0  0  0  0  0  0
  -24.3560  -36.8970   22.2049 H   0  0  0  0  0  0
  -23.7284  -37.6526   23.6674 H   0  0  0  0  0  0
  -26.0172  -31.5981   20.5768 H   0  0  0  0  0  0
  -26.8078  -30.9076   21.9666 H   0  0  0  0  0  0
  -28.0961  -29.1732   21.1394 H   0  0  0  0  0  0
  -26.1328  -25.9437   19.0661 H   0  0  0  0  0  0
  -24.0105  -27.2373   19.0758 H   0  0  0  0  0  0
  -23.6910  -30.5513   19.3898 H   0  0  0  0  0  0
  -22.7397  -29.1871   19.8926 H   0  0  0  0  0  0
  -25.1279  -36.1965   25.0818 H   0  0  0  0  0  0
  -20.9913  -28.3198   24.1444 H   0  0  0  0  0  0
  -20.5619  -26.2220   23.3581 H   0  0  0  0  0  0
  -21.6625  -26.7400   22.1213 H   0  0  0  0  0  0
  -19.6887  -25.6276   21.1225 H   0  0  0  0  0  0
  -19.6703  -27.3142   20.6697 H   0  0  0  0  0  0
  -17.4193  -26.6624   21.3989 H   0  0  0  0  0  0
  -18.0323  -26.0019   22.8964 H   0  0  0  0  0  0
  -19.7892  -30.7224   24.2266 H   0  0  0  0  0  0
  -17.4985  -31.6248   24.5117 H   0  0  0  0  0  0
  -15.5311  -30.2955   23.7664 H   0  0  0  0  0  0
  -15.8642  -28.0795   22.7072 H   0  0  0  0  0  0
  -24.5899  -30.6983   25.7764 H   0  0  0  0  0  0
  -24.8889  -32.2738   26.4950 H   0  0  0  0  0  0
  -25.8075  -30.8741   27.0184 H   0  0  0  0  0  0
  -26.2870  -29.6711   24.1206 H   0  0  0  0  0  0
  -27.4235  -29.7328   25.4505 H   0  0  0  0  0  0
  -27.8639  -30.4360   23.9117 H   0  0  0  0  0  0
  -27.2767  -33.3583   26.2016 H   0  0  0  0  0  0
  -28.3874  -32.6800   25.0218 H   0  0  0  0  0  0
  -28.0759  -31.8368   26.5309 H   0  0  0  0  0  0
  -28.2582  -38.0124   24.7553 H   0  0  0  0  0  0
  -28.1134  -36.2669   24.6231 H   0  0  0  0  0  0
  -27.2298  -37.1385   25.8842 H   0  0  0  0  0  0
  -20.9256  -29.8703   21.6926 H   0  0  0  0  0  0
  -26.0178  -38.2853   24.1427 H   0  0  0  0  0  0
  -30.3138  -21.4132   19.6362 H   0  0  0  0  0  0
  -31.2491  -24.1864   22.7910 H   0  0  0  0  0  0
  -30.4515  -24.4341   24.9021 H   0  0  0  0  0  0
  -30.4936  -23.6657   26.4768 H   0  0  0  0  0  0
  -29.2259  -23.2523   25.3264 H   0  0  0  0  0  0
  -32.8913  -23.6708   24.5100 H   0  0  0  0  0  0
  -33.3055  -21.9665   24.6114 H   0  0  0  0  0  0
  -32.9190  -22.8707   26.0716 H   0  0  0  0  0  0
  -29.8705  -20.7661   25.6140 H   0  0  0  0  0  0
  -31.0907  -21.2829   26.7677 H   0  0  0  0  0  0
  -31.5537  -20.2743   25.4106 H   0  0  0  0  0  0
  -30.7314  -16.1024   23.7084 H   0  0  0  0  0  0
  -32.0212  -15.1467   22.9879 H   0  0  0  0  0  0
  -30.4762  -14.3991   23.3810 H   0  0  0  0  0  0
  -28.7577  -16.9546   22.1809 H   0  0  0  0  0  0
  -28.3169  -15.3380   22.2716 H   0  0  0  0  0  0
  -28.4448  -16.1071   20.6758 H   0  0  0  0  0  0
  -32.6589  -19.5799   22.5325 H   0  0  0  0  0  0
  -32.9215  -19.0395   20.8754 H   0  0  0  0  0  0
  -33.2379  -17.9793   22.2481 H   0  0  0  0  0  0
  -30.6513  -23.6732   19.0367 H   0  0  0  0  0  0
  -32.0084  -24.2241   19.9687 H   0  0  0  0  0  0
  -30.1870  -19.1633   20.1372 H   0  0  0  0  0  0
  -29.1517  -18.9103   21.5027 H   0  0  0  0  0  0
  -30.7402  -26.1138   19.6458 H   0  0  0  0  0  0
  -30.4373  -25.7251   21.3021 H   0  0  0  0  0  0
  -30.8480  -17.0769   19.9701 H   0  0  0  0  0  0
  -32.2262  -16.6317   20.8919 H   0  0  0  0  0  0
  -28.1330  -24.9243   20.6909 H   0  0  0  0  0  0
  -28.4955  -25.1620   18.9627 H   0  0  0  0  0  0
  -30.8875  -18.0129   22.7145 H   0  0  0  0  0  0
  1 25  1  0  0  0
  1 30  2  0  0  0
  1 88  1  0  0  0
  2  3  1  0  0  0
  2 25  1  0  0  0
  2 91  1  0  0  0
  2 92  1  0  0  0
  3  4  1  0  0  0
  3 93  1  0  0  0
  3 94  1  0  0  0
  4  5  1  0  0  0
  4 95  1  0  0  0
  4 96  1  0  0  0
  5  6  1  0  0  0
  5 26  1  0  0  0
  5 97  1  0  0  0
  6 25  1  0  0  0
  6 98  1  0  0  0
  6 99  1  0  0  0
  7  8  2  0  0  0
  7 26  1  0  0  0
  7 29  1  0  0  0
  8  9  1  0  0  0
  8 22  1  0  0  0
  9 10  1  0  0  0
  9 27  2  0  0  0
 10 11  2  0  0  0
 10 15  1  0  0  0
 11 12  1  0  0  0
 11100  1  0  0  0
 12 13  2  0  0  0
 12101  1  0  0  0
 13 14  1  0  0  0
 13 31  1  0  0  0
 14 15  2  0  0  0
 14102  1  0  0  0
 15103  1  0  0  0
 16 17  2  0  0  0
 16 21  1  0  0  0
 16 31  1  0  0  0
 17 18  1  0  0  0
 17104  1  0  0  0
 18 19  2  0  0  0
 18105  1  0  0  0
 19 20  1  0  0  0
 19 24  1  0  0  0
 20 21  2  0  0  0
 20106  1  0  0  0
 21 23  1  0  0  0
 22 28  1  0  0  0
 22 32  2  0  0  0
 26 27  1  0  0  0
 28107  1  0  0  0
 28108  1  0  0  0
 29109  1  0  0  0
 29110  1  0  0  0
 33 34  1  0  0  0
 33 66  1  0  0  0
 33 70  2  0  0  0
 34 36  1  0  0  0
 34 59  1  0  0  0
 34111  1  0  0  0
 35 44  2  0  0  0
 35 45  1  0  0  0
 35 68  1  0  0  0
 36 56  1  0  0  0
 36112  1  0  0  0
 37 39  1  0  0  0
 37 47  1  0  0  0
 37 66  1  0  0  0
 37113  1  0  0  0
 38 43  2  0  0  0
 38 46  1  0  0  0
 38 47  1  0  0  0
 39 64  1  0  0  0
 39 67  2  0  0  0
 40 52  1  0  0  0
 40 53  2  0  0  0
 40 58  1  0  0  0
 41114  1  0  0  0
 41115  1  0  0  0
 41116  1  0  0  0
 41 48  1  0  0  0
 42 43  1  0  0  0
 42 66  1  0  0  0
 42117  1  0  0  0
 42118  1  0  0  0
 43 44  1  0  0  0
 44119  1  0  0  0
 45 46  2  0  0  0
 45120  1  0  0  0
 46121  1  0  0  0
 47122  1  0  0  0
 47123  1  0  0  0
 48 56  1  0  0  0
 48 65  1  0  0  0
 48124  1  0  0  0
 49 50  1  0  0  0
 49 53  1  0  0  0
 49 64  1  0  0  0
 49125  1  0  0  0
 50 51  1  0  0  0
 50126  1  0  0  0
 50127  1  0  0  0
 51 52  1  0  0  0
 51128  1  0  0  0
 51129  1  0  0  0
 52130  1  0  0  0
 52131  1  0  0  0
 53 54  1  0  0  0
 54 55  2  0  0  0
 54132  1  0  0  0
 55 57  1  0  0  0
 55133  1  0  0  0
 56 69  2  0  0  0
 57 58  2  0  0  0
 57134  1  0  0  0
 58135  1  0  0  0
 59 60  1  0  0  0
 59 61  1  0  0  0
 59 62  1  0  0  0
 60136  1  0  0  0
 60137  1  0  0  0
 60138  1  0  0  0
 61139  1  0  0  0
 61140  1  0  0  0
 61141  1  0  0  0
 62142  1  0  0  0
 62143  1  0  0  0
 62144  1  0  0  0
 63 65  1  0  0  0
 63145  1  0  0  0
 63146  1  0  0  0
 63147  1  0  0  0
 64148  1  0  0  0
 65149  1  0  0  0
 68 86  1  0  0  0
 71 73  2  0  0  0
 71 74  1  0  0  0
 71150  1  0  0  0
 72 73  1  0  0  0
 72 75  2  0  0  0
 72151  1  0  0  0
 73 82  1  0  0  0
 74 83  1  0  0  0
 74 89  2  0  0  0
 75 87  1  0  0  0
 75 89  1  0  0  0
 76152  1  0  0  0
 76153  1  0  0  0
 76154  1  0  0  0
 76 87  1  0  0  0
 77 87  1  0  0  0
 77155  1  0  0  0
 77156  1  0  0  0
 77157  1  0  0  0
 78 87  1  0  0  0
 78158  1  0  0  0
 78159  1  0  0  0
 78160  1  0  0  0
 79161  1  0  0  0
 79162  1  0  0  0
 79163  1  0  0  0
 79 88  1  0  0  0
 80 88  1  0  0  0
 80164  1  0  0  0
 80165  1  0  0  0
 80166  1  0  0  0
 81167  1  0  0  0
 81168  1  0  0  0
 81169  1  0  0  0
 81 90  1  0  0  0
 82 84  1  0  0  0
 82170  1  0  0  0
 82171  1  0  0  0
 83 90  1  0  0  0
 83172  1  0  0  0
 83173  1  0  0  0
 84 86  1  0  0  0
 84174  1  0  0  0
 84175  1  0  0  0
 85 88  1  0  0  0
 85 90  1  0  0  0
 85176  1  0  0  0
 85177  1  0  0  0
 86178  1  0  0  0
 86179  1  0  0  0
 90180  1  0  0  0
M  CHG  1  90   1
M  ISO  4   1 100  68 101  86 101  88 100
M  END
> <chiral flag>
0

> <version>
0

> <s_m_source_file>
/data/baiqing/PycharmProjects/Reinvent-master-3.2/result/LINK_invent/BTK/process_docking_weight1_custom_sum_contain_oxygen_bond_distance_aromatic_linkinvent_7_9_3/rearranged_h_0050.sdf

> <i_m_source_file_index>
72

> <r_mmod_Potential_Energy-OPLS-2005>
-292.607116699219

> <r_mmod_Stretch_Energy-OPLS-2005>
48.0213356018066

> <r_mmod_Bend_Energy-OPLS-2005>
164.274871826172

> <r_mmod_Torsional_Energy-OPLS-2005>
214.964859008789

> <r_mmod_Improper_Torsional_Energy-OPLS-2005>
2.36156678199768

> <r_mmod_Van_der_Waal_Energy-OPLS-2005>
186.719299316406

> <r_mmod_Electrostatic_Energy-OPLS-2005>
-533.289611816406

> <r_mmod_Solvation_Energy-OPLS-2005>
-390.133178710938

> <b_mmod_Minimization_Converged-OPLS-2005>
0

> <r_mmod_RMS_Derivative-OPLS-2005>
3.20229005813599

$$$$
76
                    3D
 Structure written by MMmdl.
168176  0  0  1  0            999 V2000
  -30.7469  -14.5418   20.0186 C   0  0  0  0  0  0
  -30.4066  -12.2408   19.4007 C   0  0  0  0  0  0
  -29.4753  -12.2758   18.1759 C   0  0  0  0  0  0
  -27.9892  -12.3617   18.5743 C   0  0  0  0  0  0
  -27.6582  -13.2409   19.8166 C   0  0  2  0  0  0
  -28.7623  -13.2060   20.8988 C   0  0  0  0  0  0
  -25.2657  -13.8222   20.5712 C   0  0  0  0  0  0
  -24.1980  -13.0491   20.9168 C   0  0  0  0  0  0
  -24.6550  -11.6938   20.8723 C   0  0  0  0  0  0
  -23.9180  -10.4336   21.0389 C   0  0  0  0  0  0
  -24.3681   -9.4227   21.9192 C   0  0  0  0  0  0
  -23.6320   -8.2285   22.0774 C   0  0  0  0  0  0
  -22.4306   -8.0320   21.3549 C   0  0  0  0  0  0
  -22.0001   -9.0294   20.4618 C   0  0  0  0  0  0
  -22.7355  -10.2161   20.3014 C   0  0  0  0  0  0
  -21.6883   -6.0756   22.5271 C   0  0  0  0  0  0
  -21.4055   -6.5660   23.8196 C   0  0  0  0  0  0
  -21.3687   -5.6811   24.9151 C   0  0  0  0  0  0
  -21.6007   -4.3067   24.7209 C   0  0  0  0  0  0
  -21.8825   -3.8167   23.4331 C   0  0  0  0  0  0
  -21.9197   -4.6978   22.3386 C   0  0  0  0  0  0
  -22.7952  -13.5217   21.1795 C   0  0  0  0  0  0
  -22.1656   -4.2170   21.0949 F   0  0  0  0  0  0
  -21.5630   -3.4532   25.7716 F   0  0  0  0  0  0
  -30.0516  -13.3896   20.2213 N   0  0  0  0  0  0
  -26.3170  -12.9513   20.3359 N   0  0  0  0  0  0
  -25.9535  -11.6629   20.5863 N   0  0  0  0  0  0
  -22.0573  -12.8228   22.0272 N   0  0  0  0  0  0
  -25.4271  -15.2004   20.4143 N   0  0  0  0  0  0
  -31.9573  -14.5702   20.2236 O   0  0  0  0  0  0
  -21.6667   -6.8927   21.4241 O   0  0  0  0  0  0
  -22.3654  -14.5561   20.6621 O   0  0  0  0  0  0
  -24.6085  -31.8728   23.2090 C   0  0  0  0  0  0
  -25.8985  -32.4810   23.8421 C   0  0  1  0  0  0
  -27.2180  -27.4176   20.1106 C   0  0  0  0  0  0
  -25.5912  -33.8613   24.2382 N   0  0  0  0  0  0
  -23.3958  -30.4924   21.5519 C   0  0  2  0  0  0
  -24.8403  -28.9557   20.1214 C   0  0  0  0  0  0
  -22.7384  -29.4720   22.5057 C   0  0  0  0  0  0
  -18.0237  -28.1394   22.8513 C   0  0  0  0  0  0
  -24.1471  -36.7266   23.2655 C   0  0  0  0  0  0
  -25.9230  -30.8357   21.3563 C   0  0  0  0  0  0
  -26.0070  -29.4633   20.7139 C   0  0  0  0  0  0
  -27.1996  -28.7025   20.7045 C   0  0  0  0  0  0
  -26.0354  -26.9355   19.5037 C   0  0  0  0  0  0
  -24.8481  -27.6891   19.5175 C   0  0  0  0  0  0
  -23.6019  -29.8226   20.1699 C   0  0  0  0  0  0
  -25.4078  -36.3067   24.0368 C   0  0  1  0  0  0
  -20.5852  -28.3701   23.1312 C   0  0  2  0  0  0
  -20.6750  -26.9446   22.5412 C   0  0  0  0  0  0
  -19.5739  -26.6424   21.5186 C   0  0  0  0  0  0
  -18.1900  -26.7945   22.1585 C   0  0  0  0  0  0
  -19.1503  -28.8842   23.2892 C   0  0  0  0  0  0
  -18.9447  -30.1435   23.8942 C   0  0  0  0  0  0
  -17.6461  -30.6613   24.0569 C   0  0  0  0  0  0
  -25.9017  -34.9447   23.5141 C   0  0  0  0  0  0
  -16.5352  -29.9123   23.6355 C   0  0  0  0  0  0
  -16.7245  -28.6539   23.0420 C   0  0  0  0  0  0
  -26.4464  -31.6522   25.0672 C   0  0  0  0  0  0
  -25.3745  -31.3410   26.1383 C   0  0  0  0  0  0
  -27.0367  -30.3046   24.5881 C   0  0  0  0  0  0
  -27.6106  -32.4212   25.7449 C   0  0  0  0  0  0
  -27.5551  -37.1739   24.8489 C   0  0  0  0  0  0
  -21.4140  -29.3051   22.3741 N   0  0  0  0  0  0
  -26.4258  -37.3763   23.9432 N   0  0  0  0  0  0
  -24.6610  -31.0803   22.1007 N   0  0  0  0  0  0
  -23.4147  -28.8293   23.3113 O   0  0  0  0  0  0
  -28.3649  -26.6476   20.1357 O   0  0  0  0  0  0
  -26.5602  -34.8930   22.4715 O   0  0  0  0  0  0
  -23.5290  -32.1599   23.7417 O   0  0  0  0  0  0
  -27.3104  -22.1857   19.0964 C   0  0  0  0  0  0
  -27.4847  -20.8541   19.3804 C   0  0  0  0  0  0
  -29.1047  -22.0146   20.3978 C   0  0  0  0  0  0
  -30.4328  -22.2694   21.0664 C   0  0  0  0  0  0
  -31.2833  -15.2830   17.7373 C   0  0  0  0  0  0
  -28.5384  -19.6213   16.9094 C   0  0  0  0  0  0
  -26.8876  -19.6317   18.7144 C   0  0  0  0  0  0
  -28.6319  -16.5310   17.4835 C   0  0  0  0  0  0
  -28.6647  -24.2931   19.4261 C   0  0  0  0  0  0
  -29.3908  -16.3634   18.8454 C   0  0  0  0  0  0
  -27.4824  -17.5618   17.4581 C   0  0  0  0  0  0
  -28.1975  -25.2638   20.5293 C   0  0  0  0  0  0
  -28.3503  -22.8683   19.6787 N   0  0  0  0  0  0
  -28.5055  -20.8145   20.3044 N   0  3  0  0  0  0
  -30.3410  -15.2249   18.8862 N   0  0  0  0  0  0
  -27.9208  -18.8546   18.0023 N   0  0  0  0  0  0
  -31.4531  -12.2630   19.0851 H   0  0  0  0  0  0
  -30.2791  -11.3165   19.9645 H   0  0  0  0  0  0
  -29.6257  -11.3642   17.5965 H   0  0  0  0  0  0
  -29.7326  -13.0829   17.4927 H   0  0  0  0  0  0
  -27.6413  -11.3432   18.7353 H   0  0  0  0  0  0
  -27.4163  -12.7363   17.7234 H   0  0  0  0  0  0
  -27.6390  -14.2640   19.4479 H   0  0  0  0  0  0
  -28.7612  -12.2637   21.4495 H   0  0  0  0  0  0
  -28.6152  -14.0024   21.6284 H   0  0  0  0  0  0
  -25.2796   -9.5732   22.4789 H   0  0  0  0  0  0
  -23.9991   -7.4732   22.7573 H   0  0  0  0  0  0
  -21.0934   -8.8828   19.8922 H   0  0  0  0  0  0
  -22.3829  -10.9690   19.6112 H   0  0  0  0  0  0
  -21.2067   -7.6173   23.9716 H   0  0  0  0  0  0
  -21.1501   -6.0527   25.9065 H   0  0  0  0  0  0
  -22.0573   -2.7627   23.2802 H   0  0  0  0  0  0
  -22.4203  -11.9895   22.4662 H   0  0  0  0  0  0
  -21.1145  -13.1223   22.2316 H   0  0  0  0  0  0
  -24.6533  -15.8396   20.5498 H   0  0  0  0  0  0
  -26.2946  -15.6602   20.1713 H   0  0  0  0  0  0
  -26.7054  -32.5572   23.1190 H   0  0  0  0  0  0
  -25.0074  -33.9832   25.0535 H   0  0  0  0  0  0
  -22.6800  -31.3051   21.4140 H   0  0  0  0  0  0
  -23.3757  -35.9578   23.3362 H   0  0  0  0  0  0
  -24.3500  -36.8851   22.2066 H   0  0  0  0  0  0
  -23.7262  -37.6481   23.6667 H   0  0  0  0  0  0
  -26.0008  -31.5796   20.5629 H   0  0  0  0  0  0
  -26.8225  -30.9244   21.9515 H   0  0  0  0  0  0
  -28.0998  -29.0711   21.1808 H   0  0  0  0  0  0
  -26.0247  -25.9713   19.0191 H   0  0  0  0  0  0
  -23.9467  -27.2892   19.0721 H   0  0  0  0  0  0
  -23.7088  -30.5957   19.4109 H   0  0  0  0  0  0
  -22.7206  -29.2466   19.8787 H   0  0  0  0  0  0
  -25.1230  -36.1909   25.0865 H   0  0  0  0  0  0
  -20.9897  -28.3308   24.1450 H   0  0  0  0  0  0
  -20.5667  -26.2324   23.3598 H   0  0  0  0  0  0
  -21.6625  -26.7550   22.1188 H   0  0  0  0  0  0
  -19.6929  -25.6338   21.1194 H   0  0  0  0  0  0
  -19.6656  -27.3226   20.6706 H   0  0  0  0  0  0
  -17.4189  -26.6707   21.3962 H   0  0  0  0  0  0
  -18.0273  -26.0036   22.8928 H   0  0  0  0  0  0
  -19.7947  -30.7158   24.2378 H   0  0  0  0  0  0
  -17.5090  -31.6316   24.5136 H   0  0  0  0  0  0
  -15.5361  -30.3077   23.7674 H   0  0  0  0  0  0
  -15.8611  -28.0839   22.7209 H   0  0  0  0  0  0
  -24.6200  -30.6464   25.7662 H   0  0  0  0  0  0
  -24.8545  -32.2387   26.4746 H   0  0  0  0  0  0
  -25.8137  -30.8746   27.0215 H   0  0  0  0  0  0
  -26.2904  -29.6630   24.1179 H   0  0  0  0  0  0
  -27.4611  -29.7346   25.4145 H   0  0  0  0  0  0
  -27.8474  -30.4522   23.8743 H   0  0  0  0  0  0
  -27.2959  -33.3713   26.1803 H   0  0  0  0  0  0
  -28.4052  -32.6371   25.0284 H   0  0  0  0  0  0
  -28.0597  -31.8411   26.5523 H   0  0  0  0  0  0
  -28.2519  -38.0093   24.7608 H   0  0  0  0  0  0
  -28.1112  -36.2601   24.6264 H   0  0  0  0  0  0
  -27.2244  -37.1355   25.8893 H   0  0  0  0  0  0
  -20.9332  -29.8842   21.6992 H   0  0  0  0  0  0
  -26.0124  -38.2808   24.1515 H   0  0  0  0  0  0
  -26.6138  -22.6668   18.4195 H   0  0  0  0  0  0
  -30.3558  -23.1001   21.7681 H   0  0  0  0  0  0
  -31.1730  -22.5009   20.2971 H   0  0  0  0  0  0
  -30.7587  -21.3589   21.5739 H   0  0  0  0  0  0
  -32.1186  -15.9665   17.9090 H   0  0  0  0  0  0
  -30.8304  -15.5887   16.8071 H   0  0  0  0  0  0
  -31.6778  -14.3000   17.4870 H   0  0  0  0  0  0
  -28.7745  -20.6481   17.1916 H   0  0  0  0  0  0
  -27.9253  -19.6596   16.0070 H   0  0  0  0  0  0
  -29.4773  -19.1358   16.6321 H   0  0  0  0  0  0
  -26.1067  -19.9668   18.0276 H   0  0  0  0  0  0
  -26.3759  -19.0248   19.4638 H   0  0  0  0  0  0
  -28.2605  -15.5619   17.1488 H   0  0  0  0  0  0
  -29.3031  -16.8661   16.6949 H   0  0  0  0  0  0
  -29.7372  -24.3747   19.2592 H   0  0  0  0  0  0
  -28.1817  -24.5629   18.4837 H   0  0  0  0  0  0
  -28.6710  -16.2972   19.6602 H   0  0  0  0  0  0
  -29.9657  -17.2776   19.0038 H   0  0  0  0  0  0
  -26.6264  -17.1449   17.9879 H   0  0  0  0  0  0
  -27.1546  -17.6700   16.4178 H   0  0  0  0  0  0
  -28.7791  -25.0873   21.4348 H   0  0  0  0  0  0
  -27.1710  -25.0314   20.8083 H   0  0  0  0  0  0
  -28.8196  -19.9816   20.7894 H   0  0  0  0  0  0
  1 25  1  0  0  0
  1 30  2  0  0  0
  1 85  1  0  0  0
  2  3  1  0  0  0
  2 25  1  0  0  0
  2 87  1  0  0  0
  2 88  1  0  0  0
  3  4  1  0  0  0
  3 89  1  0  0  0
  3 90  1  0  0  0
  4  5  1  0  0  0
  4 91  1  0  0  0
  4 92  1  0  0  0
  5  6  1  0  0  0
  5 26  1  0  0  0
  5 93  1  0  0  0
  6 25  1  0  0  0
  6 94  1  0  0  0
  6 95  1  0  0  0
  7  8  2  0  0  0
  7 26  1  0  0  0
  7 29  1  0  0  0
  8  9  1  0  0  0
  8 22  1  0  0  0
  9 10  1  0  0  0
  9 27  2  0  0  0
 10 11  2  0  0  0
 10 15  1  0  0  0
 11 12  1  0  0  0
 11 96  1  0  0  0
 12 13  2  0  0  0
 12 97  1  0  0  0
 13 14  1  0  0  0
 13 31  1  0  0  0
 14 15  2  0  0  0
 14 98  1  0  0  0
 15 99  1  0  0  0
 16 17  2  0  0  0
 16 21  1  0  0  0
 16 31  1  0  0  0
 17 18  1  0  0  0
 17100  1  0  0  0
 18 19  2  0  0  0
 18101  1  0  0  0
 19 20  1  0  0  0
 19 24  1  0  0  0
 20 21  2  0  0  0
 20102  1  0  0  0
 21 23  1  0  0  0
 22 28  1  0  0  0
 22 32  2  0  0  0
 26 27  1  0  0  0
 28103  1  0  0  0
 28104  1  0  0  0
 29105  1  0  0  0
 29106  1  0  0  0
 33 34  1  0  0  0
 33 66  1  0  0  0
 33 70  2  0  0  0
 34 36  1  0  0  0
 34 59  1  0  0  0
 34107  1  0  0  0
 35 44  2  0  0  0
 35 45  1  0  0  0
 35 68  1  0  0  0
 36 56  1  0  0  0
 36108  1  0  0  0
 37 39  1  0  0  0
 37 47  1  0  0  0
 37 66  1  0  0  0
 37109  1  0  0  0
 38 43  2  0  0  0
 38 46  1  0  0  0
 38 47  1  0  0  0
 39 64  1  0  0  0
 39 67  2  0  0  0
 40 52  1  0  0  0
 40 53  2  0  0  0
 40 58  1  0  0  0
 41110  1  0  0  0
 41111  1  0  0  0
 41112  1  0  0  0
 41 48  1  0  0  0
 42 43  1  0  0  0
 42 66  1  0  0  0
 42113  1  0  0  0
 42114  1  0  0  0
 43 44  1  0  0  0
 44115  1  0  0  0
 45 46  2  0  0  0
 45116  1  0  0  0
 46117  1  0  0  0
 47118  1  0  0  0
 47119  1  0  0  0
 48 56  1  0  0  0
 48 65  1  0  0  0
 48120  1  0  0  0
 49 50  1  0  0  0
 49 53  1  0  0  0
 49 64  1  0  0  0
 49121  1  0  0  0
 50 51  1  0  0  0
 50122  1  0  0  0
 50123  1  0  0  0
 51 52  1  0  0  0
 51124  1  0  0  0
 51125  1  0  0  0
 52126  1  0  0  0
 52127  1  0  0  0
 53 54  1  0  0  0
 54 55  2  0  0  0
 54128  1  0  0  0
 55 57  1  0  0  0
 55129  1  0  0  0
 56 69  2  0  0  0
 57 58  2  0  0  0
 57130  1  0  0  0
 58131  1  0  0  0
 59 60  1  0  0  0
 59 61  1  0  0  0
 59 62  1  0  0  0
 60132  1  0  0  0
 60133  1  0  0  0
 60134  1  0  0  0
 61135  1  0  0  0
 61136  1  0  0  0
 61137  1  0  0  0
 62138  1  0  0  0
 62139  1  0  0  0
 62140  1  0  0  0
 63 65  1  0  0  0
 63141  1  0  0  0
 63142  1  0  0  0
 63143  1  0  0  0
 64144  1  0  0  0
 65145  1  0  0  0
 68 82  1  0  0  0
 71 72  2  0  0  0
 71 83  1  0  0  0
 71146  1  0  0  0
 72 77  1  0  0  0
 72 84  1  0  0  0
 73 74  1  0  0  0
 73 83  1  0  0  0
 73 84  2  0  0  0
 74147  1  0  0  0
 74148  1  0  0  0
 74149  1  0  0  0
 75 85  1  0  0  0
 75150  1  0  0  0
 75151  1  0  0  0
 75152  1  0  0  0
 76 86  1  0  0  0
 76153  1  0  0  0
 76154  1  0  0  0
 76155  1  0  0  0
 77 86  1  0  0  0
 77156  1  0  0  0
 77157  1  0  0  0
 78 80  1  0  0  0
 78 81  1  0  0  0
 78158  1  0  0  0
 78159  1  0  0  0
 79 82  1  0  0  0
 79 83  1  0  0  0
 79160  1  0  0  0
 79161  1  0  0  0
 80 85  1  0  0  0
 80162  1  0  0  0
 80163  1  0  0  0
 81 86  1  0  0  0
 81164  1  0  0  0
 81165  1  0  0  0
 82166  1  0  0  0
 82167  1  0  0  0
 84168  1  0  0  0
M  CHG  1  84   1
M  ISO  4   1 100  68 101  82 101  85 100
M  END
> <chiral flag>
0

> <version>
0

> <s_m_source_file>
/data/baiqing/PycharmProjects/Reinvent-master-3.2/result/LINK_invent/BTK/process_docking_weight1_custom_sum_contain_oxygen_bond_distance_aromatic_linkinvent_7_9_3/rearranged_h_0050.sdf

> <i_m_source_file_index>
73

> <r_mmod_Potential_Energy-OPLS-2005>
261.630157470703

> <r_mmod_Stretch_Energy-OPLS-2005>
48.9410400390625

> <r_mmod_Bend_Energy-OPLS-2005>
126.438789367676

> <r_mmod_Torsional_Energy-OPLS-2005>
384.185943603516

> <r_mmod_Improper_Torsional_Energy-OPLS-2005>
39.2390365600586

> <r_mmod_Van_der_Waal_Energy-OPLS-2005>
137.472534179688

> <r_mmod_Electrostatic_Energy-OPLS-2005>
-154.832015991211

> <r_mmod_Solvation_Energy-OPLS-2005>
-406.446319580078

> <b_mmod_Minimization_Converged-OPLS-2005>
0

> <r_mmod_RMS_Derivative-OPLS-2005>
13.254075050354

$$$$
77
                    3D
 Structure written by MMmdl.
169177  0  0  1  0            999 V2000
  -30.7364  -14.4000   20.6307 C   0  0  0  0  0  0
  -30.4192  -12.2857   19.4001 C   0  0  0  0  0  0
  -29.4871  -12.5168   18.1941 C   0  0  0  0  0  0
  -28.0067  -12.3869   18.6070 C   0  0  0  0  0  0
  -27.6670  -13.2028   19.8839 C   0  0  2  0  0  0
  -28.7103  -12.9276   20.9907 C   0  0  0  0  0  0
  -25.2603  -13.8165   20.5689 C   0  0  0  0  0  0
  -24.1833  -13.0453   20.9148 C   0  0  0  0  0  0
  -24.6373  -11.6913   20.8710 C   0  0  0  0  0  0
  -23.9036  -10.4301   21.0386 C   0  0  0  0  0  0
  -24.3594   -9.4228   21.9168 C   0  0  0  0  0  0
  -23.6281   -8.2256   22.0758 C   0  0  0  0  0  0
  -22.4265   -8.0281   21.3555 C   0  0  0  0  0  0
  -21.9887   -9.0247   20.4651 C   0  0  0  0  0  0
  -22.7204  -10.2129   20.3042 C   0  0  0  0  0  0
  -21.6862   -6.0722   22.5276 C   0  0  0  0  0  0
  -21.4023   -6.5627   23.8207 C   0  0  0  0  0  0
  -21.3659   -5.6780   24.9168 C   0  0  0  0  0  0
  -21.6043   -4.3046   24.7226 C   0  0  0  0  0  0
  -21.8824   -3.8134   23.4348 C   0  0  0  0  0  0
  -21.9200   -4.6947   22.3404 C   0  0  0  0  0  0
  -22.7858  -13.5267   21.1805 C   0  0  0  0  0  0
  -22.1670   -4.2131   21.0983 F   0  0  0  0  0  0
  -21.5624   -3.4537   25.7743 F   0  0  0  0  0  0
  -30.0403  -13.2452   20.4479 N   0  0  0  0  0  0
  -26.3051  -12.9335   20.3415 N   0  0  0  0  0  0
  -25.9304  -11.6495   20.5748 N   0  0  0  0  0  0
  -22.0477  -12.8288   22.0363 N   0  0  0  0  0  0
  -25.4350  -15.1891   20.4149 N   0  0  0  0  0  0
  -31.8246  -14.5948   20.0779 O   0  0  0  0  0  0
  -21.6649   -6.8867   21.4238 O   0  0  0  0  0  0
  -22.3558  -14.5581   20.6656 O   0  0  0  0  0  0
  -24.6105  -31.8726   23.2149 C   0  0  0  0  0  0
  -25.9025  -32.4847   23.8425 C   0  0  1  0  0  0
  -27.2329  -27.4630   20.0884 C   0  0  0  0  0  0
  -25.5895  -33.8637   24.2367 N   0  0  0  0  0  0
  -23.3971  -30.4969   21.5556 C   0  0  2  0  0  0
  -24.8450  -28.9697   20.1184 C   0  0  0  0  0  0
  -22.7385  -29.4686   22.5025 C   0  0  0  0  0  0
  -18.0281  -28.1389   22.8479 C   0  0  0  0  0  0
  -24.1489  -36.7325   23.2636 C   0  0  0  0  0  0
  -25.9242  -30.8404   21.3721 C   0  0  0  0  0  0
  -26.0008  -29.4750   20.7264 C   0  0  0  0  0  0
  -27.1958  -28.7224   20.7243 C   0  0  0  0  0  0
  -26.0757  -26.9970   19.4283 C   0  0  0  0  0  0
  -24.8745  -27.7240   19.4717 C   0  0  0  0  0  0
  -23.6043  -29.8305   20.1708 C   0  0  0  0  0  0
  -25.4109  -36.3126   24.0341 C   0  0  1  0  0  0
  -20.5865  -28.3657   23.1345 C   0  0  2  0  0  0
  -20.6775  -26.9396   22.5426 C   0  0  0  0  0  0
  -19.5774  -26.6395   21.5195 C   0  0  0  0  0  0
  -18.1938  -26.7965   22.1576 C   0  0  0  0  0  0
  -19.1528  -28.8833   23.2914 C   0  0  0  0  0  0
  -18.9459  -30.1440   23.8906 C   0  0  0  0  0  0
  -17.6466  -30.6586   24.0564 C   0  0  0  0  0  0
  -25.9025  -34.9487   23.5154 C   0  0  0  0  0  0
  -16.5345  -29.9093   23.6339 C   0  0  0  0  0  0
  -16.7265  -28.6523   23.0326 C   0  0  0  0  0  0
  -26.4458  -31.6601   25.0732 C   0  0  0  0  0  0
  -25.3726  -31.3673   26.1477 C   0  0  0  0  0  0
  -27.0292  -30.3055   24.6076 C   0  0  0  0  0  0
  -27.6059  -32.4303   25.7463 C   0  0  0  0  0  0
  -27.5588  -37.1818   24.8469 C   0  0  0  0  0  0
  -21.4121  -29.3039   22.3766 N   0  0  0  0  0  0
  -26.4311  -37.3800   23.9401 N   0  0  0  0  0  0
  -24.6612  -31.0847   22.1050 N   0  0  0  0  0  0
  -23.4166  -28.8204   23.3043 O   0  0  0  0  0  0
  -28.4003  -26.7369   20.0428 O   0  0  0  0  0  0
  -26.5585  -34.8920   22.4707 O   0  0  0  0  0  0
  -23.5308  -32.1478   23.7551 O   0  0  0  0  0  0
  -27.6604  -19.0750   22.4866 C   0  0  0  0  0  0
  -28.5753  -18.0490   22.1982 C   0  0  0  0  0  0
  -27.9301  -19.9513   20.2380 C   0  0  0  0  0  0
  -27.3360  -20.0401   21.5165 C   0  0  0  0  0  0
  -29.1991  -17.9673   20.9330 C   0  0  0  0  0  0
  -28.8616  -18.9312   19.9446 C   0  0  0  0  0  0
  -29.4780  -18.8986   18.5540 C   0  0  0  0  0  0
  -30.9927  -15.6625   22.7795 C   0  0  0  0  0  0
  -29.9792  -25.2059   20.8982 C   0  0  0  0  0  0
  -26.3095  -21.1077   21.8794 C   0  0  0  0  0  0
  -30.2395  -16.8806   20.6360 C   0  0  0  0  0  0
  -26.3580  -22.4221   21.0824 C   0  0  0  0  0  0
  -27.5689  -24.4561   20.4633 C   0  0  0  0  0  0
  -30.1720  -15.5688   21.4728 C   0  0  1  0  0  0
  -28.4988  -25.6056   20.9223 C   0  0  2  0  0  0
  -27.5852  -23.2295   21.2963 N   0  3  0  0  0  0
  -31.4621  -12.3802   19.0928 H   0  0  0  0  0  0
  -30.3194  -11.2654   19.7758 H   0  0  0  0  0  0
  -29.7164  -11.8041   17.4011 H   0  0  0  0  0  0
  -29.6686  -13.5084   17.7762 H   0  0  0  0  0  0
  -27.8013  -11.3298   18.7813 H   0  0  0  0  0  0
  -27.3600  -12.6898   17.7823 H   0  0  0  0  0  0
  -27.7296  -14.2584   19.6194 H   0  0  0  0  0  0
  -28.6789  -11.8726   21.2691 H   0  0  0  0  0  0
  -28.4743  -13.4535   21.9136 H   0  0  0  0  0  0
  -25.2734   -9.5736   22.4744 H   0  0  0  0  0  0
  -24.0002   -7.4666   22.7495 H   0  0  0  0  0  0
  -21.0812   -8.8752   19.8974 H   0  0  0  0  0  0
  -22.3638  -10.9664   19.6158 H   0  0  0  0  0  0
  -21.2022   -7.6134   23.9713 H   0  0  0  0  0  0
  -21.1473   -6.0504   25.9069 H   0  0  0  0  0  0
  -22.0605   -2.7596   23.2856 H   0  0  0  0  0  0
  -22.4069  -11.9959   22.4790 H   0  0  0  0  0  0
  -21.1106  -13.1366   22.2544 H   0  0  0  0  0  0
  -24.6777  -15.8523   20.5378 H   0  0  0  0  0  0
  -26.3057  -15.6318   20.1476 H   0  0  0  0  0  0
  -26.7094  -32.5591   23.1193 H   0  0  0  0  0  0
  -25.0042  -33.9800   25.0508 H   0  0  0  0  0  0
  -22.6834  -31.3122   21.4200 H   0  0  0  0  0  0
  -23.3742  -35.9677   23.3327 H   0  0  0  0  0  0
  -24.3589  -36.8897   22.2049 H   0  0  0  0  0  0
  -23.7241  -37.6534   23.6629 H   0  0  0  0  0  0
  -26.0363  -31.6048   20.6022 H   0  0  0  0  0  0
  -26.8137  -30.8966   21.9879 H   0  0  0  0  0  0
  -28.0866  -29.1063   21.1998 H   0  0  0  0  0  0
  -26.0988  -26.0790   18.8587 H   0  0  0  0  0  0
  -23.9940  -27.3396   18.9747 H   0  0  0  0  0  0
  -23.7067  -30.6068   19.4114 H   0  0  0  0  0  0
  -22.7301  -29.2469   19.8766 H   0  0  0  0  0  0
  -25.1284  -36.2018   25.0841 H   0  0  0  0  0  0
  -20.9957  -28.3214   24.1469 H   0  0  0  0  0  0
  -20.5650  -26.2239   23.3587 H   0  0  0  0  0  0
  -21.6660  -26.7449   22.1253 H   0  0  0  0  0  0
  -19.6935  -25.6314   21.1231 H   0  0  0  0  0  0
  -19.6745  -27.3192   20.6710 H   0  0  0  0  0  0
  -17.4231  -26.6759   21.3955 H   0  0  0  0  0  0
  -18.0295  -26.0090   22.8949 H   0  0  0  0  0  0
  -19.7916  -30.7272   24.2281 H   0  0  0  0  0  0
  -17.5017  -31.6268   24.5169 H   0  0  0  0  0  0
  -15.5350  -30.3001   23.7698 H   0  0  0  0  0  0
  -15.8671  -28.0864   22.6991 H   0  0  0  0  0  0
  -24.5899  -30.7027   25.7797 H   0  0  0  0  0  0
  -24.8911  -32.2803   26.4985 H   0  0  0  0  0  0
  -25.8082  -30.8787   27.0198 H   0  0  0  0  0  0
  -26.2824  -29.6804   24.1169 H   0  0  0  0  0  0
  -27.4106  -29.7308   25.4525 H   0  0  0  0  0  0
  -27.8640  -30.4393   23.9196 H   0  0  0  0  0  0
  -27.2716  -33.3600   26.2083 H   0  0  0  0  0  0
  -28.3821  -32.6863   25.0237 H   0  0  0  0  0  0
  -28.0778  -31.8392   26.5317 H   0  0  0  0  0  0
  -28.2629  -38.0097   24.7506 H   0  0  0  0  0  0
  -28.1060  -36.2625   24.6318 H   0  0  0  0  0  0
  -27.2312  -37.1498   25.8876 H   0  0  0  0  0  0
  -20.9279  -29.8785   21.7024 H   0  0  0  0  0  0
  -26.0207  -38.2894   24.1358 H   0  0  0  0  0  0
  -27.1969  -19.1107   23.4636 H   0  0  0  0  0  0
  -28.7788  -17.3306   22.9759 H   0  0  0  0  0  0
  -27.6758  -20.6592   19.4620 H   0  0  0  0  0  0
  -29.2158  -17.9760   18.0354 H   0  0  0  0  0  0
  -30.5644  -18.9688   18.6112 H   0  0  0  0  0  0
  -29.1239  -19.7260   17.9374 H   0  0  0  0  0  0
  -30.6929  -16.4965   23.4105 H   0  0  0  0  0  0
  -32.0565  -15.7945   22.5737 H   0  0  0  0  0  0
  -30.8866  -14.7527   23.3711 H   0  0  0  0  0  0
  -30.1896  -24.3911   21.5897 H   0  0  0  0  0  0
  -30.6073  -26.0505   21.1820 H   0  0  0  0  0  0
  -30.2842  -24.8920   19.9000 H   0  0  0  0  0  0
  -26.3920  -21.3374   22.9426 H   0  0  0  0  0  0
  -25.3206  -20.6645   21.7524 H   0  0  0  0  0  0
  -31.2298  -17.3292   20.7265 H   0  0  0  0  0  0
  -30.1342  -16.6131   19.5846 H   0  0  0  0  0  0
  -25.5006  -23.0209   21.3942 H   0  0  0  0  0  0
  -26.2133  -22.2317   20.0189 H   0  0  0  0  0  0
  -27.7631  -24.1970   19.4221 H   0  0  0  0  0  0
  -26.5468  -24.8141   20.5250 H   0  0  0  0  0  0
  -29.1255  -15.3951   21.6992 H   0  0  0  0  0  0
  -28.2310  -25.9194   21.9329 H   0  0  0  0  0  0
  -28.4004  -22.6754   21.0800 H   0  0  0  0  0  0
  -27.6322  -23.4814   22.2723 H   0  0  0  0  0  0
  1 25  1  0  0  0
  1 30  2  0  0  0
  1 84  1  0  0  0
  2  3  1  0  0  0
  2 25  1  0  0  0
  2 87  1  0  0  0
  2 88  1  0  0  0
  3  4  1  0  0  0
  3 89  1  0  0  0
  3 90  1  0  0  0
  4  5  1  0  0  0
  4 91  1  0  0  0
  4 92  1  0  0  0
  5  6  1  0  0  0
  5 26  1  0  0  0
  5 93  1  0  0  0
  6 25  1  0  0  0
  6 94  1  0  0  0
  6 95  1  0  0  0
  7  8  2  0  0  0
  7 26  1  0  0  0
  7 29  1  0  0  0
  8  9  1  0  0  0
  8 22  1  0  0  0
  9 10  1  0  0  0
  9 27  2  0  0  0
 10 11  2  0  0  0
 10 15  1  0  0  0
 11 12  1  0  0  0
 11 96  1  0  0  0
 12 13  2  0  0  0
 12 97  1  0  0  0
 13 14  1  0  0  0
 13 31  1  0  0  0
 14 15  2  0  0  0
 14 98  1  0  0  0
 15 99  1  0  0  0
 16 17  2  0  0  0
 16 21  1  0  0  0
 16 31  1  0  0  0
 17 18  1  0  0  0
 17100  1  0  0  0
 18 19  2  0  0  0
 18101  1  0  0  0
 19 20  1  0  0  0
 19 24  1  0  0  0
 20 21  2  0  0  0
 20102  1  0  0  0
 21 23  1  0  0  0
 22 28  1  0  0  0
 22 32  2  0  0  0
 26 27  1  0  0  0
 28103  1  0  0  0
 28104  1  0  0  0
 29105  1  0  0  0
 29106  1  0  0  0
 33 34  1  0  0  0
 33 66  1  0  0  0
 33 70  2  0  0  0
 34 36  1  0  0  0
 34 59  1  0  0  0
 34107  1  0  0  0
 35 44  2  0  0  0
 35 45  1  0  0  0
 35 68  1  0  0  0
 36 56  1  0  0  0
 36108  1  0  0  0
 37 39  1  0  0  0
 37 47  1  0  0  0
 37 66  1  0  0  0
 37109  1  0  0  0
 38 43  2  0  0  0
 38 46  1  0  0  0
 38 47  1  0  0  0
 39 64  1  0  0  0
 39 67  2  0  0  0
 40 52  1  0  0  0
 40 53  2  0  0  0
 40 58  1  0  0  0
 41110  1  0  0  0
 41111  1  0  0  0
 41112  1  0  0  0
 41 48  1  0  0  0
 42 43  1  0  0  0
 42 66  1  0  0  0
 42113  1  0  0  0
 42114  1  0  0  0
 43 44  1  0  0  0
 44115  1  0  0  0
 45 46  2  0  0  0
 45116  1  0  0  0
 46117  1  0  0  0
 47118  1  0  0  0
 47119  1  0  0  0
 48 56  1  0  0  0
 48 65  1  0  0  0
 48120  1  0  0  0
 49 50  1  0  0  0
 49 53  1  0  0  0
 49 64  1  0  0  0
 49121  1  0  0  0
 50 51  1  0  0  0
 50122  1  0  0  0
 50123  1  0  0  0
 51 52  1  0  0  0
 51124  1  0  0  0
 51125  1  0  0  0
 52126  1  0  0  0
 52127  1  0  0  0
 53 54  1  0  0  0
 54 55  2  0  0  0
 54128  1  0  0  0
 55 57  1  0  0  0
 55129  1  0  0  0
 56 69  2  0  0  0
 57 58  2  0  0  0
 57130  1  0  0  0
 58131  1  0  0  0
 59 60  1  0  0  0
 59 61  1  0  0  0
 59 62  1  0  0  0
 60132  1  0  0  0
 60133  1  0  0  0
 60134  1  0  0  0
 61135  1  0  0  0
 61136  1  0  0  0
 61137  1  0  0  0
 62138  1  0  0  0
 62139  1  0  0  0
 62140  1  0  0  0
 63 65  1  0  0  0
 63141  1  0  0  0
 63142  1  0  0  0
 63143  1  0  0  0
 64144  1  0  0  0
 65145  1  0  0  0
 68 85  1  0  0  0
 71 72  2  0  0  0
 71 74  1  0  0  0
 71146  1  0  0  0
 72 75  1  0  0  0
 72147  1  0  0  0
 73 74  2  0  0  0
 73 76  1  0  0  0
 73148  1  0  0  0
 74 80  1  0  0  0
 75 76  2  0  0  0
 75 81  1  0  0  0
 76 77  1  0  0  0
 77149  1  0  0  0
 77150  1  0  0  0
 77151  1  0  0  0
 78152  1  0  0  0
 78153  1  0  0  0
 78154  1  0  0  0
 78 84  1  0  0  0
 79155  1  0  0  0
 79156  1  0  0  0
 79157  1  0  0  0
 79 85  1  0  0  0
 80 82  1  0  0  0
 80158  1  0  0  0
 80159  1  0  0  0
 81 84  1  0  0  0
 81160  1  0  0  0
 81161  1  0  0  0
 82 86  1  0  0  0
 82162  1  0  0  0
 82163  1  0  0  0
 83 85  1  0  0  0
 83 86  1  0  0  0
 83164  1  0  0  0
 83165  1  0  0  0
 84166  1  0  0  0
 85167  1  0  0  0
 86168  1  0  0  0
 86169  1  0  0  0
M  CHG  1  86   1
M  ISO  4   1 100  68 101  84 100  85 101
M  END
> <chiral flag>
0

> <version>
0

> <s_m_source_file>
/data/baiqing/PycharmProjects/Reinvent-master-3.2/result/LINK_invent/BTK/process_docking_weight1_custom_sum_contain_oxygen_bond_distance_aromatic_linkinvent_7_9_3/rearranged_h_0050.sdf

> <i_m_source_file_index>
74

> <r_mmod_Potential_Energy-OPLS-2005>
-147.860153198242

> <r_mmod_Stretch_Energy-OPLS-2005>
35.5656814575195

> <r_mmod_Bend_Energy-OPLS-2005>
103.734619140625

> <r_mmod_Torsional_Energy-OPLS-2005>
216.439605712891

> <r_mmod_Improper_Torsional_Energy-OPLS-2005>
2.2393753528595

> <r_mmod_Van_der_Waal_Energy-OPLS-2005>
163.62239074707

> <r_mmod_Electrostatic_Energy-OPLS-2005>
-269.666961669922

> <r_mmod_Solvation_Energy-OPLS-2005>
-408.663635253906

> <b_mmod_Minimization_Converged-OPLS-2005>
0

> <r_mmod_RMS_Derivative-OPLS-2005>
2.10157060623169

$$$$
78
                    3D
 Structure written by MMmdl.
165173  0  0  1  0            999 V2000
  -30.6523  -14.5755   20.4001 C   0  0  0  0  0  0
  -30.4410  -12.3062   19.4677 C   0  0  0  0  0  0
  -29.5048  -12.3254   18.2393 C   0  0  0  0  0  0
  -28.0148  -12.2848   18.6401 C   0  0  0  0  0  0
  -27.6453  -13.2026   19.8389 C   0  0  2  0  0  0
  -28.6913  -13.1067   20.9660 C   0  0  0  0  0  0
  -25.2555  -13.8162   20.5702 C   0  0  0  0  0  0
  -24.1811  -13.0446   20.9173 C   0  0  0  0  0  0
  -24.6362  -11.6904   20.8736 C   0  0  0  0  0  0
  -23.9047  -10.4300   21.0413 C   0  0  0  0  0  0
  -24.3612   -9.4214   21.9185 C   0  0  0  0  0  0
  -23.6296   -8.2244   22.0757 C   0  0  0  0  0  0
  -22.4279   -8.0276   21.3548 C   0  0  0  0  0  0
  -21.9911   -9.0255   20.4648 C   0  0  0  0  0  0
  -22.7224  -10.2143   20.3068 C   0  0  0  0  0  0
  -21.6867   -6.0743   22.5284 C   0  0  0  0  0  0
  -21.4027   -6.5652   23.8212 C   0  0  0  0  0  0
  -21.3662   -5.6803   24.9174 C   0  0  0  0  0  0
  -21.6041   -4.3066   24.7224 C   0  0  0  0  0  0
  -21.8823   -3.8157   23.4350 C   0  0  0  0  0  0
  -21.9210   -4.6975   22.3406 C   0  0  0  0  0  0
  -22.7826  -13.5220   21.1841 C   0  0  0  0  0  0
  -22.1671   -4.2153   21.0983 F   0  0  0  0  0  0
  -21.5629   -3.4553   25.7742 F   0  0  0  0  0  0
  -30.0182  -13.3688   20.3940 N   0  0  0  0  0  0
  -26.2955  -12.9320   20.3266 N   0  0  0  0  0  0
  -25.9278  -11.6495   20.5766 N   0  0  0  0  0  0
  -22.0498  -12.8201   22.0400 N   0  0  0  0  0  0
  -25.4276  -15.1890   20.4188 N   0  0  0  0  0  0
  -31.8571  -14.6838   20.1683 O   0  0  0  0  0  0
  -21.6653   -6.8871   21.4230 O   0  0  0  0  0  0
  -22.3486  -14.5521   20.6685 O   0  0  0  0  0  0
  -24.6126  -31.8707   23.2089 C   0  0  0  0  0  0
  -25.9035  -32.4823   23.8360 C   0  0  1  0  0  0
  -27.2279  -27.4432   20.1052 C   0  0  0  0  0  0
  -25.5905  -33.8614   24.2302 N   0  0  0  0  0  0
  -23.3974  -30.4944   21.5510 C   0  0  2  0  0  0
  -24.8455  -28.9630   20.1130 C   0  0  0  0  0  0
  -22.7381  -29.4684   22.5000 C   0  0  0  0  0  0
  -18.0274  -28.1384   22.8497 C   0  0  0  0  0  0
  -24.1497  -36.7315   23.2637 C   0  0  0  0  0  0
  -25.9232  -30.8408   21.3598 C   0  0  0  0  0  0
  -26.0025  -29.4715   20.7186 C   0  0  0  0  0  0
  -27.1985  -28.7174   20.7205 C   0  0  0  0  0  0
  -26.0626  -26.9544   19.4830 C   0  0  0  0  0  0
  -24.8694  -27.7020   19.4914 C   0  0  0  0  0  0
  -23.6040  -29.8268   20.1642 C   0  0  0  0  0  0
  -25.4119  -36.3101   24.0326 C   0  0  1  0  0  0
  -20.5861  -28.3676   23.1333 C   0  0  2  0  0  0
  -20.6772  -26.9418   22.5435 C   0  0  0  0  0  0
  -19.5753  -26.6396   21.5228 C   0  0  0  0  0  0
  -18.1924  -26.7934   22.1622 C   0  0  0  0  0  0
  -19.1518  -28.8843   23.2914 C   0  0  0  0  0  0
  -18.9452  -30.1453   23.8919 C   0  0  0  0  0  0
  -17.6454  -30.6598   24.0573 C   0  0  0  0  0  0
  -25.9051  -34.9471   23.5116 C   0  0  0  0  0  0
  -16.5349  -29.9102   23.6332 C   0  0  0  0  0  0
  -16.7260  -28.6519   23.0350 C   0  0  0  0  0  0
  -26.4475  -31.6581   25.0668 C   0  0  0  0  0  0
  -25.3737  -31.3690   26.1409 C   0  0  0  0  0  0
  -27.0326  -30.3028   24.6035 C   0  0  0  0  0  0
  -27.6053  -32.4298   25.7434 C   0  0  0  0  0  0
  -27.5588  -37.1807   24.8465 C   0  0  0  0  0  0
  -21.4122  -29.3029   22.3723 N   0  0  0  0  0  0
  -26.4302  -37.3788   23.9408 N   0  0  0  0  0  0
  -24.6627  -31.0820   22.0991 N   0  0  0  0  0  0
  -23.4168  -28.8241   23.3051 O   0  0  0  0  0  0
  -28.3493  -26.6472   20.0549 O   0  0  0  0  0  0
  -26.5614  -34.8931   22.4676 O   0  0  0  0  0  0
  -23.5330  -32.1450   23.7510 O   0  0  0  0  0  0
  -29.8163  -15.8259   20.3133 C   0  0  0  0  0  0
  -29.4993  -16.9144   21.1070 C   0  0  0  0  0  0
  -29.4685  -15.7305   17.7348 C   0  0  0  0  0  0
  -31.6535  -22.8265   21.9473 C   0  0  0  0  0  0
  -29.9564  -17.3535   22.4766 C   0  0  0  0  0  0
  -29.6219  -18.8390   22.8523 C   0  0  0  0  0  0
  -30.2277  -20.0002   22.0017 C   0  0  0  0  0  0
  -29.8943  -25.1060   21.1685 C   0  0  0  0  0  0
  -29.6849  -21.4023   22.4303 C   0  0  0  0  0  0
  -29.3593  -23.8018   21.8370 C   0  0  0  0  0  0
  -28.9854  -26.3598   21.3003 C   0  0  0  0  0  0
  -28.5790  -17.7110   20.4228 N   0  0  0  0  0  0
  -28.4938  -17.3179   19.2044 N   0  0  0  0  0  0
  -29.2896  -16.2369   19.0834 N   0  0  0  0  0  0
  -30.2163  -22.5757   21.6637 N   0  3  1  0  0  0
  -31.4748  -12.4272   19.1391 H   0  0  0  0  0  0
  -30.3991  -11.3398   19.9715 H   0  0  0  0  0  0
  -29.7212  -11.4661   17.6029 H   0  0  0  0  0  0
  -29.7179  -13.1771   17.6102 H   0  0  0  0  0  0
  -27.7937  -11.2479   18.8955 H   0  0  0  0  0  0
  -27.3882  -12.5141   17.7780 H   0  0  0  0  0  0
  -27.6403  -14.2224   19.4642 H   0  0  0  0  0  0
  -28.6617  -12.1188   21.4277 H   0  0  0  0  0  0
  -28.4632  -13.8262   21.7541 H   0  0  0  0  0  0
  -25.2764   -9.5723   22.4743 H   0  0  0  0  0  0
  -24.0043   -7.4656   22.7471 H   0  0  0  0  0  0
  -21.0868   -8.8763   19.8941 H   0  0  0  0  0  0
  -22.3681  -10.9684   19.6187 H   0  0  0  0  0  0
  -21.1999   -7.6158   23.9705 H   0  0  0  0  0  0
  -21.1484   -6.0541   25.9074 H   0  0  0  0  0  0
  -22.0595   -2.7619   23.2847 H   0  0  0  0  0  0
  -22.4157  -11.9890   22.4814 H   0  0  0  0  0  0
  -21.1084  -13.1159   22.2592 H   0  0  0  0  0  0
  -24.6629  -15.8367   20.5711 H   0  0  0  0  0  0
  -26.2978  -15.6503   20.1874 H   0  0  0  0  0  0
  -26.7105  -32.5551   23.1131 H   0  0  0  0  0  0
  -25.0023  -33.9774   25.0423 H   0  0  0  0  0  0
  -22.6838  -31.3107   21.4146 H   0  0  0  0  0  0
  -23.3748  -35.9662   23.3309 H   0  0  0  0  0  0
  -24.3584  -36.8927   22.2050 H   0  0  0  0  0  0
  -23.7267  -37.6526   23.6656 H   0  0  0  0  0  0
  -26.0259  -31.6048   20.5873 H   0  0  0  0  0  0
  -26.8144  -30.9003   21.9718 H   0  0  0  0  0  0
  -28.0908  -29.1164   21.1811 H   0  0  0  0  0  0
  -26.0761  -25.9864   19.0012 H   0  0  0  0  0  0
  -23.9833  -27.3087   19.0110 H   0  0  0  0  0  0
  -23.7004  -30.6026   19.4032 H   0  0  0  0  0  0
  -22.7286  -29.2436   19.8739 H   0  0  0  0  0  0
  -25.1302  -36.1954   25.0817 H   0  0  0  0  0  0
  -20.9941  -28.3253   24.1458 H   0  0  0  0  0  0
  -20.5705  -26.2282   23.3617 H   0  0  0  0  0  0
  -21.6644  -26.7491   22.1216 H   0  0  0  0  0  0
  -19.6928  -25.6313   21.1248 H   0  0  0  0  0  0
  -19.6698  -27.3218   20.6767 H   0  0  0  0  0  0
  -17.4206  -26.6701   21.4010 H   0  0  0  0  0  0
  -18.0309  -26.0070   22.9006 H   0  0  0  0  0  0
  -19.7929  -30.7269   24.2284 H   0  0  0  0  0  0
  -17.5018  -31.6274   24.5183 H   0  0  0  0  0  0
  -15.5352  -30.3020   23.7644 H   0  0  0  0  0  0
  -15.8660  -28.0856   22.7044 H   0  0  0  0  0  0
  -24.5895  -30.7069   25.7714 H   0  0  0  0  0  0
  -24.8949  -32.2861   26.4856 H   0  0  0  0  0  0
  -25.8069  -30.8823   27.0158 H   0  0  0  0  0  0
  -26.2864  -29.6745   24.1153 H   0  0  0  0  0  0
  -27.4184  -29.7299   25.4481 H   0  0  0  0  0  0
  -27.8653  -30.4355   23.9121 H   0  0  0  0  0  0
  -27.2661  -33.3576   26.2063 H   0  0  0  0  0  0
  -28.3835  -32.6898   25.0240 H   0  0  0  0  0  0
  -28.0757  -31.8384   26.5308 H   0  0  0  0  0  0
  -28.2609  -38.0101   24.7511 H   0  0  0  0  0  0
  -28.1080  -36.2632   24.6293 H   0  0  0  0  0  0
  -27.2303  -37.1461   25.8866 H   0  0  0  0  0  0
  -20.9278  -29.8696   21.6903 H   0  0  0  0  0  0
  -26.0186  -38.2866   24.1402 H   0  0  0  0  0  0
  -30.4615  -15.2972   17.6114 H   0  0  0  0  0  0
  -29.3734  -16.5420   17.0123 H   0  0  0  0  0  0
  -28.6886  -15.0089   17.5067 H   0  0  0  0  0  0
  -32.2550  -21.9199   21.9132 H   0  0  0  0  0  0
  -31.7890  -23.2732   22.9332 H   0  0  0  0  0  0
  -32.0874  -23.4974   21.2061 H   0  0  0  0  0  0
  -31.0307  -17.1940   22.5727 H   0  0  0  0  0  0
  -29.5024  -16.6965   23.2193 H   0  0  0  0  0  0
  -29.9307  -18.9955   23.8865 H   0  0  0  0  0  0
  -28.5359  -18.9447   22.8595 H   0  0  0  0  0  0
  -30.0124  -19.8562   20.9437 H   0  0  0  0  0  0
  -31.3123  -19.9568   22.0953 H   0  0  0  0  0  0
  -30.1152  -24.9296   20.1152 H   0  0  0  0  0  0
  -30.8439  -25.3696   21.6327 H   0  0  0  0  0  0
  -29.8776  -21.5598   23.4931 H   0  0  0  0  0  0
  -28.5986  -21.3895   22.3229 H   0  0  0  0  0  0
  -28.3613  -23.5927   21.4471 H   0  0  0  0  0  0
  -29.2323  -23.9883   22.9051 H   0  0  0  0  0  0
  -29.5944  -27.2228   21.5731 H   0  0  0  0  0  0
  -28.2566  -26.2246   22.1020 H   0  0  0  0  0  0
  -30.1580  -22.3271   20.6864 H   0  0  0  0  0  0
  1 25  1  0  0  0
  1 30  2  0  0  0
  1 71  1  0  0  0
  2  3  1  0  0  0
  2 25  1  0  0  0
  2 86  1  0  0  0
  2 87  1  0  0  0
  3  4  1  0  0  0
  3 88  1  0  0  0
  3 89  1  0  0  0
  4  5  1  0  0  0
  4 90  1  0  0  0
  4 91  1  0  0  0
  5  6  1  0  0  0
  5 26  1  0  0  0
  5 92  1  0  0  0
  6 25  1  0  0  0
  6 93  1  0  0  0
  6 94  1  0  0  0
  7  8  2  0  0  0
  7 26  1  0  0  0
  7 29  1  0  0  0
  8  9  1  0  0  0
  8 22  1  0  0  0
  9 10  1  0  0  0
  9 27  2  0  0  0
 10 11  2  0  0  0
 10 15  1  0  0  0
 11 12  1  0  0  0
 11 95  1  0  0  0
 12 13  2  0  0  0
 12 96  1  0  0  0
 13 14  1  0  0  0
 13 31  1  0  0  0
 14 15  2  0  0  0
 14 97  1  0  0  0
 15 98  1  0  0  0
 16 17  2  0  0  0
 16 21  1  0  0  0
 16 31  1  0  0  0
 17 18  1  0  0  0
 17 99  1  0  0  0
 18 19  2  0  0  0
 18100  1  0  0  0
 19 20  1  0  0  0
 19 24  1  0  0  0
 20 21  2  0  0  0
 20101  1  0  0  0
 21 23  1  0  0  0
 22 28  1  0  0  0
 22 32  2  0  0  0
 26 27  1  0  0  0
 28102  1  0  0  0
 28103  1  0  0  0
 29104  1  0  0  0
 29105  1  0  0  0
 33 34  1  0  0  0
 33 66  1  0  0  0
 33 70  2  0  0  0
 34 36  1  0  0  0
 34 59  1  0  0  0
 34106  1  0  0  0
 35 44  2  0  0  0
 35 45  1  0  0  0
 35 68  1  0  0  0
 36 56  1  0  0  0
 36107  1  0  0  0
 37 39  1  0  0  0
 37 47  1  0  0  0
 37 66  1  0  0  0
 37108  1  0  0  0
 38 43  2  0  0  0
 38 46  1  0  0  0
 38 47  1  0  0  0
 39 64  1  0  0  0
 39 67  2  0  0  0
 40 52  1  0  0  0
 40 53  2  0  0  0
 40 58  1  0  0  0
 41109  1  0  0  0
 41110  1  0  0  0
 41111  1  0  0  0
 41 48  1  0  0  0
 42 43  1  0  0  0
 42 66  1  0  0  0
 42112  1  0  0  0
 42113  1  0  0  0
 43 44  1  0  0  0
 44114  1  0  0  0
 45 46  2  0  0  0
 45115  1  0  0  0
 46116  1  0  0  0
 47117  1  0  0  0
 47118  1  0  0  0
 48 56  1  0  0  0
 48 65  1  0  0  0
 48119  1  0  0  0
 49 50  1  0  0  0
 49 53  1  0  0  0
 49 64  1  0  0  0
 49120  1  0  0  0
 50 51  1  0  0  0
 50121  1  0  0  0
 50122  1  0  0  0
 51 52  1  0  0  0
 51123  1  0  0  0
 51124  1  0  0  0
 52125  1  0  0  0
 52126  1  0  0  0
 53 54  1  0  0  0
 54 55  2  0  0  0
 54127  1  0  0  0
 55 57  1  0  0  0
 55128  1  0  0  0
 56 69  2  0  0  0
 57 58  2  0  0  0
 57129  1  0  0  0
 58130  1  0  0  0
 59 60  1  0  0  0
 59 61  1  0  0  0
 59 62  1  0  0  0
 60131  1  0  0  0
 60132  1  0  0  0
 60133  1  0  0  0
 61134  1  0  0  0
 61135  1  0  0  0
 61136  1  0  0  0
 62137  1  0  0  0
 62138  1  0  0  0
 62139  1  0  0  0
 63 65  1  0  0  0
 63140  1  0  0  0
 63141  1  0  0  0
 63142  1  0  0  0
 64143  1  0  0  0
 65144  1  0  0  0
 68 81  1  0  0  0
 71 72  2  0  0  0
 71 84  1  0  0  0
 72 75  1  0  0  0
 72 82  1  0  0  0
 73 84  1  0  0  0
 73145  1  0  0  0
 73146  1  0  0  0
 73147  1  0  0  0
 74148  1  0  0  0
 74149  1  0  0  0
 74150  1  0  0  0
 74 85  1  0  0  0
 75 76  1  0  0  0
 75151  1  0  0  0
 75152  1  0  0  0
 76 77  1  0  0  0
 76153  1  0  0  0
 76154  1  0  0  0
 77 79  1  0  0  0
 77155  1  0  0  0
 77156  1  0  0  0
 78 80  1  0  0  0
 78 81  1  0  0  0
 78157  1  0  0  0
 78158  1  0  0  0
 79 85  1  0  0  0
 79159  1  0  0  0
 79160  1  0  0  0
 80 85  1  0  0  0
 80161  1  0  0  0
 80162  1  0  0  0
 81163  1  0  0  0
 81164  1  0  0  0
 82 83  2  0  0  0
 83 84  1  0  0  0
 85165  1  0  0  0
M  CHG  1  85   1
M  ISO  4   1 100  68 101  71 100  81 101
M  END
> <chiral flag>
0

> <version>
0

> <s_m_source_file>
/data/baiqing/PycharmProjects/Reinvent-master-3.2/result/LINK_invent/BTK/process_docking_weight1_custom_sum_contain_oxygen_bond_distance_aromatic_linkinvent_7_9_3/rearranged_h_0050.sdf

> <i_m_source_file_index>
75

> <r_mmod_Potential_Energy-OPLS-2005>
-44.2461700439453

> <r_mmod_Stretch_Energy-OPLS-2005>
42.7416152954102

> <r_mmod_Bend_Energy-OPLS-2005>
110.189903259277

> <r_mmod_Torsional_Energy-OPLS-2005>
280.097747802734

> <r_mmod_Improper_Torsional_Energy-OPLS-2005>
9.33068084716797

> <r_mmod_Van_der_Waal_Energy-OPLS-2005>
120.847862243652

> <r_mmod_Electrostatic_Energy-OPLS-2005>
-232.582427978516

> <r_mmod_Solvation_Energy-OPLS-2005>
-410.059478759766

> <b_mmod_Minimization_Converged-OPLS-2005>
0

> <r_mmod_RMS_Derivative-OPLS-2005>
3.13789415359497

$$$$
79
                    3D
 Structure written by MMmdl.
159167  0  0  1  0            999 V2000
  -30.4992  -15.0325   20.4073 C   0  0  0  0  0  0
  -30.4597  -12.6353   19.5106 C   0  0  0  0  0  0
  -29.5406  -12.5379   18.2656 C   0  0  0  0  0  0
  -28.0712  -12.2867   18.6657 C   0  0  0  0  0  0
  -27.6248  -13.2020   19.8294 C   0  0  2  0  0  0
  -28.6706  -13.2517   20.9592 C   0  0  0  0  0  0
  -25.2481  -13.8011   20.5717 C   0  0  0  0  0  0
  -24.1768  -13.0315   20.9236 C   0  0  0  0  0  0
  -24.6349  -11.6795   20.8754 C   0  0  0  0  0  0
  -23.9033  -10.4220   21.0430 C   0  0  0  0  0  0
  -24.3597   -9.4157   21.9206 C   0  0  0  0  0  0
  -23.6273   -8.2202   22.0775 C   0  0  0  0  0  0
  -22.4258   -8.0253   21.3559 C   0  0  0  0  0  0
  -21.9890   -9.0220   20.4650 C   0  0  0  0  0  0
  -22.7222  -10.2088   20.3067 C   0  0  0  0  0  0
  -21.6847   -6.0716   22.5283 C   0  0  0  0  0  0
  -21.4012   -6.5622   23.8211 C   0  0  0  0  0  0
  -21.3661   -5.6777   24.9172 C   0  0  0  0  0  0
  -21.6051   -4.3044   24.7229 C   0  0  0  0  0  0
  -21.8831   -3.8137   23.4348 C   0  0  0  0  0  0
  -21.9198   -4.6947   22.3403 C   0  0  0  0  0  0
  -22.7809  -13.5155   21.1892 C   0  0  0  0  0  0
  -22.1671   -4.2135   21.0980 F   0  0  0  0  0  0
  -21.5634   -3.4536   25.7744 F   0  0  0  0  0  0
  -29.9480  -13.7330   20.3894 N   0  0  0  0  0  0
  -26.2853  -12.9153   20.3195 N   0  0  0  0  0  0
  -25.9252  -11.6337   20.5692 N   0  0  0  0  0  0
  -22.0428  -12.8158   22.0421 N   0  0  0  0  0  0
  -25.4124  -15.1729   20.4177 N   0  0  0  0  0  0
  -31.7029  -15.0935   20.1308 O   0  0  0  0  0  0
  -21.6621   -6.8861   21.4249 O   0  0  0  0  0  0
  -22.3537  -14.5487   20.6757 O   0  0  0  0  0  0
  -24.6438  -31.8422   23.1849 C   0  0  0  0  0  0
  -25.9206  -32.4678   23.8259 C   0  0  1  0  0  0
  -27.2352  -27.1321   20.1525 C   0  0  0  0  0  0
  -25.5947  -33.8490   24.2177 N   0  0  0  0  0  0
  -23.4488  -30.4569   21.5320 C   0  0  2  0  0  0
  -24.9019  -28.8778   20.1113 C   0  0  0  0  0  0
  -22.7573  -29.4530   22.4877 C   0  0  0  0  0  0
  -18.0300  -28.1388   22.8483 C   0  0  0  0  0  0
  -24.1491  -36.7245   23.2645 C   0  0  0  0  0  0
  -26.0046  -30.7118   21.3861 C   0  0  0  0  0  0
  -26.0780  -29.3225   20.7278 C   0  0  0  0  0  0
  -27.2432  -28.4663   20.7295 C   0  0  0  0  0  0
  -26.0304  -26.7853   19.5012 C   0  0  0  0  0  0
  -24.8912  -27.6221   19.4824 C   0  0  0  0  0  0
  -23.6752  -29.7779   20.1541 C   0  0  0  0  0  0
  -25.4124  -36.3025   24.0318 C   0  0  1  0  0  0
  -20.5911  -28.3716   23.1242 C   0  0  2  0  0  0
  -20.6784  -26.9420   22.5407 C   0  0  0  0  0  0
  -19.5756  -26.6376   21.5218 C   0  0  0  0  0  0
  -18.1935  -26.7929   22.1622 C   0  0  0  0  0  0
  -19.1556  -28.8873   23.2849 C   0  0  0  0  0  0
  -18.9474  -30.1471   23.8868 C   0  0  0  0  0  0
  -17.6469  -30.6589   24.0551 C   0  0  0  0  0  0
  -25.9076  -34.9397   23.5060 C   0  0  0  0  0  0
  -16.5361  -29.9072   23.6341 C   0  0  0  0  0  0
  -16.7285  -28.6488   23.0373 C   0  0  0  0  0  0
  -26.4514  -31.6552   25.0712 C   0  0  0  0  0  0
  -25.3700  -31.3740   26.1406 C   0  0  0  0  0  0
  -27.0385  -30.2945   24.6310 C   0  0  0  0  0  0
  -27.6029  -32.4333   25.7509 C   0  0  0  0  0  0
  -27.5576  -37.1782   24.8465 C   0  0  0  0  0  0
  -21.4263  -29.3038   22.3619 N   0  0  0  0  0  0
  -26.4289  -37.3739   23.9406 N   0  0  0  0  0  0
  -24.7187  -31.0259   22.0891 N   0  0  0  0  0  0
  -23.4207  -28.8102   23.3053 O   0  0  0  0  0  0
  -28.3055  -26.1629   20.2251 O   0  0  0  0  0  0
  -26.5666  -34.8903   22.4645 O   0  0  0  0  0  0
  -23.5555  -32.1310   23.7060 O   0  0  0  0  0  0
  -28.9818  -21.7573   20.3331 C   0  0  0  0  0  0
  -28.0406  -19.8219   20.3873 C   0  0  0  0  0  0
  -26.9050  -18.8556   20.3957 C   0  0  0  0  0  0
  -29.1653  -17.5099   23.0106 C   0  0  0  0  0  0
  -28.6334  -16.4391   19.3660 C   0  0  0  0  0  0
  -29.1791  -23.3855   20.4608 C   0  0  0  0  0  0
  -28.9314  -16.3905   21.9774 C   0  0  0  0  0  0
  -30.2021  -18.0968   20.3800 C   0  0  0  0  0  0
  -28.0940  -24.6208   20.0537 C   0  0  0  0  0  0
  -29.6202  -16.4900   20.5650 C   0  0  1  0  0  0
  -27.7608  -21.1491   20.3919 N   0  0  0  0  0  0
  -29.9712  -20.7833   20.3395 N   0  0  0  0  0  0
  -29.3642  -19.4847   20.3802 N   0  0  0  0  0  0
  -31.4897  -12.8136   19.1992 H   0  0  0  0  0  0
  -30.4774  -11.6860   20.0487 H   0  0  0  0  0  0
  -29.8897  -11.7457   17.6027 H   0  0  0  0  0  0
  -29.6114  -13.4645   17.6934 H   0  0  0  0  0  0
  -27.9747  -11.2420   18.9627 H   0  0  0  0  0  0
  -27.4186  -12.4229   17.8028 H   0  0  0  0  0  0
  -27.5473  -14.1747   19.3767 H   0  0  0  0  0  0
  -28.7935  -12.2638   21.4066 H   0  0  0  0  0  0
  -28.3002  -13.8717   21.7663 H   0  0  0  0  0  0
  -25.2752   -9.5623   22.4766 H   0  0  0  0  0  0
  -23.9984   -7.4585   22.7478 H   0  0  0  0  0  0
  -21.0846   -8.8743   19.8925 H   0  0  0  0  0  0
  -22.3727  -10.9632   19.6166 H   0  0  0  0  0  0
  -21.2008   -7.6130   23.9717 H   0  0  0  0  0  0
  -21.1470   -6.0502   25.9075 H   0  0  0  0  0  0
  -22.0612   -2.7600   23.2853 H   0  0  0  0  0  0
  -22.4019  -11.9791   22.4776 H   0  0  0  0  0  0
  -21.1052  -13.1202   22.2615 H   0  0  0  0  0  0
  -24.6484  -15.8280   20.5413 H   0  0  0  0  0  0
  -26.2558  -15.6016   20.0672 H   0  0  0  0  0  0
  -26.7277  -32.5277   23.0994 H   0  0  0  0  0  0
  -25.0061  -33.9596   25.0303 H   0  0  0  0  0  0
  -22.7520  -31.2819   21.3733 H   0  0  0  0  0  0
  -23.3763  -35.9566   23.3291 H   0  0  0  0  0  0
  -24.3577  -36.8895   22.2063 H   0  0  0  0  0  0
  -23.7234  -37.6434   23.6694 H   0  0  0  0  0  0
  -26.1646  -31.4655   20.6139 H   0  0  0  0  0  0
  -26.8728  -30.7601   22.0317 H   0  0  0  0  0  0
  -28.1386  -28.8035   21.2327 H   0  0  0  0  0  0
  -25.9426  -25.8225   19.0199 H   0  0  0  0  0  0
  -23.9941  -27.2728   18.9896 H   0  0  0  0  0  0
  -23.8046  -30.5480   19.3931 H   0  0  0  0  0  0
  -22.7910  -29.2140   19.8502 H   0  0  0  0  0  0
  -25.1312  -36.1853   25.0811 H   0  0  0  0  0  0
  -20.9991  -28.3301   24.1367 H   0  0  0  0  0  0
  -20.5689  -26.2326   23.3624 H   0  0  0  0  0  0
  -21.6651  -26.7425   22.1203 H   0  0  0  0  0  0
  -19.6917  -25.6280   21.1265 H   0  0  0  0  0  0
  -19.6692  -27.3175   20.6739 H   0  0  0  0  0  0
  -17.4209  -26.6685   21.4020 H   0  0  0  0  0  0
  -18.0319  -26.0071   22.9014 H   0  0  0  0  0  0
  -19.7951  -30.7297   24.2223 H   0  0  0  0  0  0
  -17.5021  -31.6272   24.5147 H   0  0  0  0  0  0
  -15.5361  -30.2963   23.7681 H   0  0  0  0  0  0
  -15.8685  -28.0788   22.7118 H   0  0  0  0  0  0
  -24.5887  -30.7074   25.7730 H   0  0  0  0  0  0
  -24.8878  -32.2919   26.4780 H   0  0  0  0  0  0
  -25.7989  -30.8953   27.0219 H   0  0  0  0  0  0
  -26.3008  -29.6666   24.1300 H   0  0  0  0  0  0
  -27.3963  -29.7244   25.4894 H   0  0  0  0  0  0
  -27.8930  -30.4169   23.9652 H   0  0  0  0  0  0
  -27.2597  -33.3648   26.2023 H   0  0  0  0  0  0
  -28.3874  -32.6875   25.0369 H   0  0  0  0  0  0
  -28.0659  -31.8508   26.5484 H   0  0  0  0  0  0
  -28.2576  -38.0092   24.7520 H   0  0  0  0  0  0
  -28.1090  -36.2622   24.6286 H   0  0  0  0  0  0
  -27.2294  -37.1420   25.8867 H   0  0  0  0  0  0
  -20.9484  -29.8725   21.6764 H   0  0  0  0  0  0
  -26.0154  -38.2809   24.1402 H   0  0  0  0  0  0
  -26.7489  -18.4448   19.3999 H   0  0  0  0  0  0
  -25.9831  -19.3582   20.6896 H   0  0  0  0  0  0
  -27.0664  -18.0619   21.1130 H   0  0  0  0  0  0
  -28.7360  -17.2217   23.9706 H   0  0  0  0  0  0
  -28.6966  -18.4525   22.7389 H   0  0  0  0  0  0
  -30.2262  -17.6889   23.1832 H   0  0  0  0  0  0
  -27.6060  -16.3028   19.6729 H   0  0  0  0  0  0
  -28.8792  -15.6644   18.6396 H   0  0  0  0  0  0
  -28.6473  -17.3444   18.7595 H   0  0  0  0  0  0
  -30.0971  -23.6121   19.9191 H   0  0  0  0  0  0
  -29.4400  -23.5579   21.5042 H   0  0  0  0  0  0
  -27.8639  -16.1962   21.8895 H   0  0  0  0  0  0
  -29.3185  -15.5242   22.5110 H   0  0  0  0  0  0
  -30.7522  -18.1030   19.4383 H   0  0  0  0  0  0
  -30.9961  -18.2327   21.1131 H   0  0  0  0  0  0
  -27.1736  -24.3911   20.5915 H   0  0  0  0  0  0
  -27.8500  -24.4730   19.0014 H   0  0  0  0  0  0
  1 25  1  0  0  0
  1 30  2  0  0  0
  1 80  1  0  0  0
  2  3  1  0  0  0
  2 25  1  0  0  0
  2 84  1  0  0  0
  2 85  1  0  0  0
  3  4  1  0  0  0
  3 86  1  0  0  0
  3 87  1  0  0  0
  4  5  1  0  0  0
  4 88  1  0  0  0
  4 89  1  0  0  0
  5  6  1  0  0  0
  5 26  1  0  0  0
  5 90  1  0  0  0
  6 25  1  0  0  0
  6 91  1  0  0  0
  6 92  1  0  0  0
  7  8  2  0  0  0
  7 26  1  0  0  0
  7 29  1  0  0  0
  8  9  1  0  0  0
  8 22  1  0  0  0
  9 10  1  0  0  0
  9 27  2  0  0  0
 10 11  2  0  0  0
 10 15  1  0  0  0
 11 12  1  0  0  0
 11 93  1  0  0  0
 12 13  2  0  0  0
 12 94  1  0  0  0
 13 14  1  0  0  0
 13 31  1  0  0  0
 14 15  2  0  0  0
 14 95  1  0  0  0
 15 96  1  0  0  0
 16 17  2  0  0  0
 16 21  1  0  0  0
 16 31  1  0  0  0
 17 18  1  0  0  0
 17 97  1  0  0  0
 18 19  2  0  0  0
 18 98  1  0  0  0
 19 20  1  0  0  0
 19 24  1  0  0  0
 20 21  2  0  0  0
 20 99  1  0  0  0
 21 23  1  0  0  0
 22 28  1  0  0  0
 22 32  2  0  0  0
 26 27  1  0  0  0
 28100  1  0  0  0
 28101  1  0  0  0
 29102  1  0  0  0
 29103  1  0  0  0
 33 34  1  0  0  0
 33 66  1  0  0  0
 33 70  2  0  0  0
 34 36  1  0  0  0
 34 59  1  0  0  0
 34104  1  0  0  0
 35 44  2  0  0  0
 35 45  1  0  0  0
 35 68  1  0  0  0
 36 56  1  0  0  0
 36105  1  0  0  0
 37 39  1  0  0  0
 37 47  1  0  0  0
 37 66  1  0  0  0
 37106  1  0  0  0
 38 43  2  0  0  0
 38 46  1  0  0  0
 38 47  1  0  0  0
 39 64  1  0  0  0
 39 67  2  0  0  0
 40 52  1  0  0  0
 40 53  2  0  0  0
 40 58  1  0  0  0
 41107  1  0  0  0
 41108  1  0  0  0
 41109  1  0  0  0
 41 48  1  0  0  0
 42 43  1  0  0  0
 42 66  1  0  0  0
 42110  1  0  0  0
 42111  1  0  0  0
 43 44  1  0  0  0
 44112  1  0  0  0
 45 46  2  0  0  0
 45113  1  0  0  0
 46114  1  0  0  0
 47115  1  0  0  0
 47116  1  0  0  0
 48 56  1  0  0  0
 48 65  1  0  0  0
 48117  1  0  0  0
 49 50  1  0  0  0
 49 53  1  0  0  0
 49 64  1  0  0  0
 49118  1  0  0  0
 50 51  1  0  0  0
 50119  1  0  0  0
 50120  1  0  0  0
 51 52  1  0  0  0
 51121  1  0  0  0
 51122  1  0  0  0
 52123  1  0  0  0
 52124  1  0  0  0
 53 54  1  0  0  0
 54 55  2  0  0  0
 54125  1  0  0  0
 55 57  1  0  0  0
 55126  1  0  0  0
 56 69  2  0  0  0
 57 58  2  0  0  0
 57127  1  0  0  0
 58128  1  0  0  0
 59 60  1  0  0  0
 59 61  1  0  0  0
 59 62  1  0  0  0
 60129  1  0  0  0
 60130  1  0  0  0
 60131  1  0  0  0
 61132  1  0  0  0
 61133  1  0  0  0
 61134  1  0  0  0
 62135  1  0  0  0
 62136  1  0  0  0
 62137  1  0  0  0
 63 65  1  0  0  0
 63138  1  0  0  0
 63139  1  0  0  0
 63140  1  0  0  0
 64141  1  0  0  0
 65142  1  0  0  0
 68 79  1  0  0  0
 71 76  1  0  0  0
 71 81  1  0  0  0
 71 82  2  0  0  0
 72 73  1  0  0  0
 72 81  2  0  0  0
 72 83  1  0  0  0
 73143  1  0  0  0
 73144  1  0  0  0
 73145  1  0  0  0
 74 77  1  0  0  0
 74146  1  0  0  0
 74147  1  0  0  0
 74148  1  0  0  0
 75149  1  0  0  0
 75150  1  0  0  0
 75151  1  0  0  0
 75 80  1  0  0  0
 76 79  1  0  0  0
 76152  1  0  0  0
 76153  1  0  0  0
 77 80  1  0  0  0
 77154  1  0  0  0
 77155  1  0  0  0
 78 80  1  0  0  0
 78 83  1  0  0  0
 78156  1  0  0  0
 78157  1  0  0  0
 79158  1  0  0  0
 79159  1  0  0  0
 82 83  1  0  0  0
M  ISO  4   1 100  68 101  79 101  80 100
M  END
> <chiral flag>
0

> <version>
0

> <s_m_source_file>
/data/baiqing/PycharmProjects/Reinvent-master-3.2/result/LINK_invent/BTK/process_docking_weight1_custom_sum_contain_oxygen_bond_distance_aromatic_linkinvent_7_9_3/rearranged_h_0050.sdf

> <i_m_source_file_index>
76

> <r_mmod_Potential_Energy-OPLS-2005>
684.770446777344

> <r_mmod_Stretch_Energy-OPLS-2005>
320.276031494141

> <r_mmod_Bend_Energy-OPLS-2005>
311.864288330078

> <r_mmod_Torsional_Energy-OPLS-2005>
229.992141723633

> <r_mmod_Improper_Torsional_Energy-OPLS-2005>
4.65529251098633

> <r_mmod_Van_der_Waal_Energy-OPLS-2005>
132.861099243164

> <r_mmod_Electrostatic_Energy-OPLS-2005>
-320.602935791016

> <r_mmod_Solvation_Energy-OPLS-2005>
-214.596420288086

> <b_mmod_Minimization_Converged-OPLS-2005>
0

> <r_mmod_RMS_Derivative-OPLS-2005>
1.48680508136749

$$$$
80
                    3D
 Structure written by MMmdl.
171179  0  0  1  0            999 V2000
  -30.7599  -14.6083   20.3071 C   0  0  0  0  0  0
  -30.4184  -12.3607   19.4194 C   0  0  0  0  0  0
  -29.4803  -12.4328   18.2009 C   0  0  0  0  0  0
  -28.0124  -12.2824   18.6412 C   0  0  0  0  0  0
  -27.6323  -13.1993   19.8308 C   0  0  2  0  0  0
  -28.7138  -13.2025   20.9390 C   0  0  0  0  0  0
  -25.2511  -13.8020   20.5741 C   0  0  0  0  0  0
  -24.1790  -13.0321   20.9287 C   0  0  0  0  0  0
  -24.6387  -11.6810   20.8846 C   0  0  0  0  0  0
  -23.9045  -10.4222   21.0464 C   0  0  0  0  0  0
  -24.3602   -9.4131   21.9227 C   0  0  0  0  0  0
  -23.6268   -8.2180   22.0761 C   0  0  0  0  0  0
  -22.4249   -8.0246   21.3552 C   0  0  0  0  0  0
  -21.9901   -9.0227   20.4655 C   0  0  0  0  0  0
  -22.7231  -10.2099   20.3082 C   0  0  0  0  0  0
  -21.6821   -6.0718   22.5291 C   0  0  0  0  0  0
  -21.3987   -6.5630   23.8217 C   0  0  0  0  0  0
  -21.3655   -5.6780   24.9181 C   0  0  0  0  0  0
  -21.6043   -4.3047   24.7231 C   0  0  0  0  0  0
  -21.8819   -3.8135   23.4356 C   0  0  0  0  0  0
  -21.9189   -4.6954   22.3408 C   0  0  0  0  0  0
  -22.7836  -13.5162   21.1905 C   0  0  0  0  0  0
  -22.1661   -4.2139   21.0986 F   0  0  0  0  0  0
  -21.5638   -3.4535   25.7752 F   0  0  0  0  0  0
  -30.0289  -13.4490   20.3251 N   0  0  0  0  0  0
  -26.2936  -12.9195   20.3359 N   0  0  0  0  0  0
  -25.9305  -11.6387   20.5870 N   0  0  0  0  0  0
  -22.0446  -12.8159   22.0442 N   0  0  0  0  0  0
  -25.4124  -15.1703   20.4049 N   0  0  0  0  0  0
  -31.9714  -14.5449   20.4771 O   0  0  0  0  0  0
  -21.6594   -6.8864   21.4251 O   0  0  0  0  0  0
  -22.3561  -14.5491   20.6754 O   0  0  0  0  0  0
  -24.6187  -31.8628   23.2088 C   0  0  0  0  0  0
  -25.9040  -32.4813   23.8377 C   0  0  1  0  0  0
  -27.2325  -27.3922   20.1166 C   0  0  0  0  0  0
  -25.5898  -33.8618   24.2309 N   0  0  0  0  0  0
  -23.4105  -30.4876   21.5481 C   0  0  2  0  0  0
  -24.8577  -28.9431   20.1199 C   0  0  0  0  0  0
  -22.7440  -29.4658   22.4978 C   0  0  0  0  0  0
  -18.0278  -28.1372   22.8487 C   0  0  0  0  0  0
  -24.1489  -36.7293   23.2641 C   0  0  0  0  0  0
  -25.9435  -30.8161   21.3659 C   0  0  0  0  0  0
  -26.0212  -29.4467   20.7181 C   0  0  0  0  0  0
  -27.2143  -28.6805   20.7090 C   0  0  0  0  0  0
  -26.0544  -26.9123   19.5073 C   0  0  0  0  0  0
  -24.8710  -27.6773   19.5080 C   0  0  0  0  0  0
  -23.6235  -29.8169   20.1648 C   0  0  0  0  0  0
  -25.4107  -36.3109   24.0339 C   0  0  1  0  0  0
  -20.5881  -28.3674   23.1297 C   0  0  2  0  0  0
  -20.6777  -26.9397   22.5422 C   0  0  0  0  0  0
  -19.5748  -26.6372   21.5228 C   0  0  0  0  0  0
  -18.1916  -26.7925   22.1610 C   0  0  0  0  0  0
  -19.1536  -28.8831   23.2905 C   0  0  0  0  0  0
  -18.9451  -30.1430   23.8913 C   0  0  0  0  0  0
  -17.6457  -30.6584   24.0538 C   0  0  0  0  0  0
  -25.9027  -34.9480   23.5126 C   0  0  0  0  0  0
  -16.5347  -29.9076   23.6309 C   0  0  0  0  0  0
  -16.7273  -28.6495   23.0335 C   0  0  0  0  0  0
  -26.4477  -31.6605   25.0715 C   0  0  0  0  0  0
  -25.3742  -31.3721   26.1474 C   0  0  0  0  0  0
  -27.0296  -30.3041   24.6088 C   0  0  0  0  0  0
  -27.6084  -32.4320   25.7438 C   0  0  0  0  0  0
  -27.5587  -37.1792   24.8473 C   0  0  0  0  0  0
  -21.4160  -29.3053   22.3709 N   0  0  0  0  0  0
  -26.4301  -37.3790   23.9427 N   0  0  0  0  0  0
  -24.6771  -31.0699   22.1009 N   0  0  0  0  0  0
  -23.4212  -28.8192   23.3019 O   0  0  0  0  0  0
  -28.3842  -26.6264   20.0762 O   0  0  0  0  0  0
  -26.5603  -34.8940   22.4689 O   0  0  0  0  0  0
  -23.5360  -32.1394   23.7451 O   0  0  0  0  0  0
  -30.2816  -20.1753   22.5829 C   0  0  0  0  0  0
  -30.6410  -22.4040   23.4260 C   0  0  0  0  0  0
  -30.8077  -21.0205   23.5694 C   0  0  0  0  0  0
  -29.6256  -20.7294   21.4647 C   0  0  0  0  0  0
  -29.5235  -22.1608   21.3952 C   0  0  0  0  0  0
  -31.5610  -20.4388   24.7488 C   0  0  0  0  0  0
  -32.6374  -16.2743   18.2088 C   0  0  0  0  0  0
  -27.7077  -17.7519   19.9308 C   0  0  0  0  0  0
  -29.0945  -19.7865   20.3669 C   0  0  0  0  0  0
  -28.9887  -22.9593   20.1844 C   0  0  0  0  0  0
  -31.1054  -16.0218   18.1851 C   0  0  0  0  0  0
  -27.9449  -24.1013   20.4633 C   0  0  0  0  0  0
  -28.4622  -25.4900   20.9767 C   0  0  0  0  0  0
  -28.9975  -18.2159   20.6225 C   0  0  2  0  0  0
  -30.2886  -15.9199   19.5314 C   0  0  2  0  0  0
  -30.3068  -17.3464   20.2991 C   0  0  0  0  0  0
  -30.0266  -22.9552   22.3636 N   0  0  0  0  0  0
  -29.0955  -15.6875   19.0136 F   0  0  0  0  0  0
  -30.9300  -17.1750   21.4657 F   0  0  0  0  0  0
  -31.0657  -18.1924   19.6031 F   0  0  0  0  0  0
  -31.4575  -12.4470   19.0937 H   0  0  0  0  0  0
  -30.3375  -11.3974   19.9243 H   0  0  0  0  0  0
  -29.7385  -11.6501   17.4876 H   0  0  0  0  0  0
  -29.6071  -13.3726   17.6670 H   0  0  0  0  0  0
  -27.8635  -11.2381   18.9178 H   0  0  0  0  0  0
  -27.3453  -12.4678   17.7984 H   0  0  0  0  0  0
  -27.5580  -14.1894   19.4080 H   0  0  0  0  0  0
  -28.7330  -12.2470   21.4640 H   0  0  0  0  0  0
  -28.4942  -13.9650   21.6874 H   0  0  0  0  0  0
  -25.2763   -9.5571   22.4784 H   0  0  0  0  0  0
  -23.9979   -7.4539   22.7451 H   0  0  0  0  0  0
  -21.0841   -8.8739   19.8946 H   0  0  0  0  0  0
  -22.3727  -10.9640   19.6177 H   0  0  0  0  0  0
  -21.1959   -7.6137   23.9711 H   0  0  0  0  0  0
  -21.1486   -6.0518   25.9077 H   0  0  0  0  0  0
  -22.0614   -2.7600   23.2845 H   0  0  0  0  0  0
  -22.4029  -11.9790   22.4802 H   0  0  0  0  0  0
  -21.1071  -13.1198   22.2628 H   0  0  0  0  0  0
  -24.6436  -15.8233   20.4938 H   0  0  0  0  0  0
  -26.2527  -15.5902   20.0289 H   0  0  0  0  0  0
  -26.7096  -32.5488   23.1113 H   0  0  0  0  0  0
  -25.0117  -33.9771   25.0503 H   0  0  0  0  0  0
  -22.7026  -31.3066   21.4049 H   0  0  0  0  0  0
  -23.3782  -35.9595   23.3306 H   0  0  0  0  0  0
  -24.3589  -36.8886   22.2059 H   0  0  0  0  0  0
  -23.7205  -37.6485   23.6648 H   0  0  0  0  0  0
  -26.0598  -31.5770   20.5938 H   0  0  0  0  0  0
  -26.8299  -30.8705   21.9863 H   0  0  0  0  0  0
  -28.1172  -29.0676   21.1615 H   0  0  0  0  0  0
  -26.0466  -25.9472   19.0220 H   0  0  0  0  0  0
  -23.9788  -27.2864   19.0382 H   0  0  0  0  0  0
  -23.7417  -30.5908   19.4066 H   0  0  0  0  0  0
  -22.7448  -29.2462   19.8619 H   0  0  0  0  0  0
  -25.1282  -36.1976   25.0832 H   0  0  0  0  0  0
  -20.9955  -28.3221   24.1420 H   0  0  0  0  0  0
  -20.5683  -26.2253   23.3608 H   0  0  0  0  0  0
  -21.6628  -26.7434   22.1179 H   0  0  0  0  0  0
  -19.6911  -25.6297   21.1212 H   0  0  0  0  0  0
  -19.6676  -27.3207   20.6795 H   0  0  0  0  0  0
  -17.4187  -26.6674   21.4018 H   0  0  0  0  0  0
  -18.0299  -26.0083   22.9016 H   0  0  0  0  0  0
  -19.7938  -30.7238   24.2294 H   0  0  0  0  0  0
  -17.5013  -31.6267   24.5133 H   0  0  0  0  0  0
  -15.5338  -30.2962   23.7679 H   0  0  0  0  0  0
  -15.8665  -28.0826   22.7036 H   0  0  0  0  0  0
  -24.5886  -30.7096   25.7812 H   0  0  0  0  0  0
  -24.8966  -32.2889   26.4960 H   0  0  0  0  0  0
  -25.8072  -30.8854   27.0214 H   0  0  0  0  0  0
  -26.2815  -29.6789   24.1198 H   0  0  0  0  0  0
  -27.4147  -29.7294   25.4516 H   0  0  0  0  0  0
  -27.8619  -30.4365   23.9170 H   0  0  0  0  0  0
  -27.2770  -33.3671   26.1962 H   0  0  0  0  0  0
  -28.3911  -32.6765   25.0250 H   0  0  0  0  0  0
  -28.0718  -31.8450   26.5381 H   0  0  0  0  0  0
  -28.2613  -38.0086   24.7554 H   0  0  0  0  0  0
  -28.1069  -36.2625   24.6258 H   0  0  0  0  0  0
  -27.2309  -37.1403   25.8873 H   0  0  0  0  0  0
  -20.9325  -29.8766   21.6919 H   0  0  0  0  0  0
  -26.0194  -38.2865   24.1442 H   0  0  0  0  0  0
  -30.4146  -19.1114   22.6930 H   0  0  0  0  0  0
  -31.0272  -23.0913   24.1629 H   0  0  0  0  0  0
  -32.4313  -19.8802   24.4036 H   0  0  0  0  0  0
  -30.9237  -19.7597   25.3130 H   0  0  0  0  0  0
  -31.9125  -21.2172   25.4262 H   0  0  0  0  0  0
  -32.9904  -16.5488   17.2145 H   0  0  0  0  0  0
  -33.1942  -15.3834   18.4926 H   0  0  0  0  0  0
  -32.9402  -17.0703   18.8859 H   0  0  0  0  0  0
  -26.8468  -18.3503   20.2318 H   0  0  0  0  0  0
  -27.4691  -16.7355   20.2227 H   0  0  0  0  0  0
  -27.7949  -17.8117   18.8457 H   0  0  0  0  0  0
  -29.6093  -20.0048   19.4327 H   0  0  0  0  0  0
  -28.0822  -20.1538   20.2010 H   0  0  0  0  0  0
  -28.5212  -22.2601   19.4933 H   0  0  0  0  0  0
  -29.8411  -23.3647   19.6400 H   0  0  0  0  0  0
  -30.9604  -15.1061   17.6141 H   0  0  0  0  0  0
  -30.6521  -16.7988   17.5700 H   0  0  0  0  0  0
  -27.4030  -24.2761   19.5370 H   0  0  0  0  0  0
  -27.1957  -23.7158   21.1558 H   0  0  0  0  0  0
  -29.5065  -25.3978   21.2717 H   0  0  0  0  0  0
  -27.9357  -25.7376   21.8993 H   0  0  0  0  0  0
  -28.7560  -18.0606   21.6731 H   0  0  0  0  0  0
  1 25  1  0  0  0
  1 30  2  0  0  0
  1 85  1  0  0  0
  2  3  1  0  0  0
  2 25  1  0  0  0
  2 91  1  0  0  0
  2 92  1  0  0  0
  3  4  1  0  0  0
  3 93  1  0  0  0
  3 94  1  0  0  0
  4  5  1  0  0  0
  4 95  1  0  0  0
  4 96  1  0  0  0
  5  6  1  0  0  0
  5 26  1  0  0  0
  5 97  1  0  0  0
  6 25  1  0  0  0
  6 98  1  0  0  0
  6 99  1  0  0  0
  7  8  2  0  0  0
  7 26  1  0  0  0
  7 29  1  0  0  0
  8  9  1  0  0  0
  8 22  1  0  0  0
  9 10  1  0  0  0
  9 27  2  0  0  0
 10 11  2  0  0  0
 10 15  1  0  0  0
 11 12  1  0  0  0
 11100  1  0  0  0
 12 13  2  0  0  0
 12101  1  0  0  0
 13 14  1  0  0  0
 13 31  1  0  0  0
 14 15  2  0  0  0
 14102  1  0  0  0
 15103  1  0  0  0
 16 17  2  0  0  0
 16 21  1  0  0  0
 16 31  1  0  0  0
 17 18  1  0  0  0
 17104  1  0  0  0
 18 19  2  0  0  0
 18105  1  0  0  0
 19 20  1  0  0  0
 19 24  1  0  0  0
 20 21  2  0  0  0
 20106  1  0  0  0
 21 23  1  0  0  0
 22 28  1  0  0  0
 22 32  2  0  0  0
 26 27  1  0  0  0
 28107  1  0  0  0
 28108  1  0  0  0
 29109  1  0  0  0
 29110  1  0  0  0
 33 34  1  0  0  0
 33 66  1  0  0  0
 33 70  2  0  0  0
 34 36  1  0  0  0
 34 59  1  0  0  0
 34111  1  0  0  0
 35 44  2  0  0  0
 35 45  1  0  0  0
 35 68  1  0  0  0
 36 56  1  0  0  0
 36112  1  0  0  0
 37 39  1  0  0  0
 37 47  1  0  0  0
 37 66  1  0  0  0
 37113  1  0  0  0
 38 43  2  0  0  0
 38 46  1  0  0  0
 38 47  1  0  0  0
 39 64  1  0  0  0
 39 67  2  0  0  0
 40 52  1  0  0  0
 40 53  2  0  0  0
 40 58  1  0  0  0
 41114  1  0  0  0
 41115  1  0  0  0
 41116  1  0  0  0
 41 48  1  0  0  0
 42 43  1  0  0  0
 42 66  1  0  0  0
 42117  1  0  0  0
 42118  1  0  0  0
 43 44  1  0  0  0
 44119  1  0  0  0
 45 46  2  0  0  0
 45120  1  0  0  0
 46121  1  0  0  0
 47122  1  0  0  0
 47123  1  0  0  0
 48 56  1  0  0  0
 48 65  1  0  0  0
 48124  1  0  0  0
 49 50  1  0  0  0
 49 53  1  0  0  0
 49 64  1  0  0  0
 49125  1  0  0  0
 50 51  1  0  0  0
 50126  1  0  0  0
 50127  1  0  0  0
 51 52  1  0  0  0
 51128  1  0  0  0
 51129  1  0  0  0
 52130  1  0  0  0
 52131  1  0  0  0
 53 54  1  0  0  0
 54 55  2  0  0  0
 54132  1  0  0  0
 55 57  1  0  0  0
 55133  1  0  0  0
 56 69  2  0  0  0
 57 58  2  0  0  0
 57134  1  0  0  0
 58135  1  0  0  0
 59 60  1  0  0  0
 59 61  1  0  0  0
 59 62  1  0  0  0
 60136  1  0  0  0
 60137  1  0  0  0
 60138  1  0  0  0
 61139  1  0  0  0
 61140  1  0  0  0
 61141  1  0  0  0
 62142  1  0  0  0
 62143  1  0  0  0
 62144  1  0  0  0
 63 65  1  0  0  0
 63145  1  0  0  0
 63146  1  0  0  0
 63147  1  0  0  0
 64148  1  0  0  0
 65149  1  0  0  0
 68 83  1  0  0  0
 71 73  2  0  0  0
 71 74  1  0  0  0
 71150  1  0  0  0
 72 73  1  0  0  0
 72 87  2  0  0  0
 72151  1  0  0  0
 73 76  1  0  0  0
 74 75  2  0  0  0
 74 79  1  0  0  0
 75 80  1  0  0  0
 75 87  1  0  0  0
 76152  1  0  0  0
 76153  1  0  0  0
 76154  1  0  0  0
 77 81  1  0  0  0
 77155  1  0  0  0
 77156  1  0  0  0
 77157  1  0  0  0
 78158  1  0  0  0
 78159  1  0  0  0
 78160  1  0  0  0
 78 84  1  0  0  0
 79 84  1  0  0  0
 79161  1  0  0  0
 79162  1  0  0  0
 80 82  1  0  0  0
 80163  1  0  0  0
 80164  1  0  0  0
 81 85  1  0  0  0
 81165  1  0  0  0
 81166  1  0  0  0
 82 83  1  0  0  0
 82167  1  0  0  0
 82168  1  0  0  0
 83169  1  0  0  0
 83170  1  0  0  0
 84 86  1  0  0  0
 84171  1  0  0  0
 85 86  1  0  0  0
 85 88  1  0  0  0
 86 89  1  0  0  0
 86 90  1  0  0  0
M  ISO  4   1 100  68 101  83 101  85 100
M  END
> <chiral flag>
0

> <version>
0

> <s_m_source_file>
/data/baiqing/PycharmProjects/Reinvent-master-3.2/result/LINK_invent/BTK/process_docking_weight1_custom_sum_contain_oxygen_bond_distance_aromatic_linkinvent_7_9_3/rearranged_h_0050.sdf

> <i_m_source_file_index>
77

> <r_mmod_Potential_Energy-OPLS-2005>
195.481735229492

> <r_mmod_Stretch_Energy-OPLS-2005>
74.8328628540039

> <r_mmod_Bend_Energy-OPLS-2005>
169.576385498047

> <r_mmod_Torsional_Energy-OPLS-2005>
283.183197021484

> <r_mmod_Improper_Torsional_Energy-OPLS-2005>
17.2005748748779

> <r_mmod_Van_der_Waal_Energy-OPLS-2005>
177.990036010742

> <r_mmod_Electrostatic_Energy-OPLS-2005>
-406.013610839844

> <r_mmod_Solvation_Energy-OPLS-2005>
-192.755508422852

> <b_mmod_Minimization_Converged-OPLS-2005>
0

> <r_mmod_RMS_Derivative-OPLS-2005>
3.09626388549805

$$$$
81
                    3D
 Structure written by MMmdl.
157165  0  0  1  0            999 V2000
  -30.5453  -14.9686   20.5159 C   0  0  0  0  0  0
  -30.4499  -12.6212   19.4957 C   0  0  0  0  0  0
  -29.5248  -12.5742   18.2533 C   0  0  0  0  0  0
  -28.0548  -12.3453   18.6557 C   0  0  0  0  0  0
  -27.6382  -13.2401   19.8495 C   0  0  2  0  0  0
  -28.6850  -13.1697   20.9776 C   0  0  0  0  0  0
  -25.2474  -13.8177   20.5646 C   0  0  0  0  0  0
  -24.1793  -13.0415   20.9200 C   0  0  0  0  0  0
  -24.6404  -11.6903   20.8734 C   0  0  0  0  0  0
  -23.9079  -10.4284   21.0404 C   0  0  0  0  0  0
  -24.3628   -9.4204   21.9183 C   0  0  0  0  0  0
  -23.6303   -8.2239   22.0754 C   0  0  0  0  0  0
  -22.4283   -8.0277   21.3546 C   0  0  0  0  0  0
  -21.9922   -9.0249   20.4645 C   0  0  0  0  0  0
  -22.7251  -10.2127   20.3055 C   0  0  0  0  0  0
  -21.6856   -6.0739   22.5279 C   0  0  0  0  0  0
  -21.4015   -6.5642   23.8214 C   0  0  0  0  0  0
  -21.3663   -5.6792   24.9176 C   0  0  0  0  0  0
  -21.6044   -4.3053   24.7224 C   0  0  0  0  0  0
  -21.8823   -3.8148   23.4344 C   0  0  0  0  0  0
  -21.9197   -4.6967   22.3401 C   0  0  0  0  0  0
  -22.7819  -13.5196   21.1873 C   0  0  0  0  0  0
  -22.1668   -4.2154   21.0980 F   0  0  0  0  0  0
  -21.5629   -3.4535   25.7738 F   0  0  0  0  0  0
  -29.9549  -13.6882   20.4299 N   0  0  0  0  0  0
  -26.2919  -12.9402   20.3243 N   0  0  0  0  0  0
  -25.9338  -11.6536   20.5718 N   0  0  0  0  0  0
  -22.0476  -12.8179   22.0431 N   0  0  0  0  0  0
  -25.4073  -15.1895   20.3994 N   0  0  0  0  0  0
  -31.6883  -15.0165   20.0401 O   0  0  0  0  0  0
  -21.6642   -6.8879   21.4241 O   0  0  0  0  0  0
  -22.3497  -14.5502   20.6731 O   0  0  0  0  0  0
  -24.6445  -31.8427   23.1875 C   0  0  0  0  0  0
  -25.9209  -32.4690   23.8272 C   0  0  1  0  0  0
  -27.2281  -27.1323   20.1479 C   0  0  0  0  0  0
  -25.5953  -33.8496   24.2188 N   0  0  0  0  0  0
  -23.4498  -30.4620   21.5317 C   0  0  2  0  0  0
  -24.9019  -28.8869   20.1113 C   0  0  0  0  0  0
  -22.7581  -29.4544   22.4843 C   0  0  0  0  0  0
  -18.0314  -28.1397   22.8476 C   0  0  0  0  0  0
  -24.1491  -36.7253   23.2643 C   0  0  0  0  0  0
  -26.0071  -30.7148   21.3886 C   0  0  0  0  0  0
  -26.0799  -29.3257   20.7291 C   0  0  0  0  0  0
  -27.2429  -28.4658   20.7287 C   0  0  0  0  0  0
  -26.0206  -26.7953   19.4957 C   0  0  0  0  0  0
  -24.8860  -27.6350   19.4795 C   0  0  0  0  0  0
  -23.6787  -29.7897   20.1525 C   0  0  0  0  0  0
  -25.4122  -36.3029   24.0316 C   0  0  1  0  0  0
  -20.5929  -28.3726   23.1226 C   0  0  2  0  0  0
  -20.6800  -26.9427   22.5400 C   0  0  0  0  0  0
  -19.5771  -26.6381   21.5212 C   0  0  0  0  0  0
  -18.1952  -26.7936   22.1621 C   0  0  0  0  0  0
  -19.1571  -28.8878   23.2844 C   0  0  0  0  0  0
  -18.9484  -30.1472   23.8873 C   0  0  0  0  0  0
  -17.6480  -30.6592   24.0559 C   0  0  0  0  0  0
  -25.9067  -34.9403   23.5059 C   0  0  0  0  0  0
  -16.5371  -29.9086   23.6337 C   0  0  0  0  0  0
  -16.7298  -28.6505   23.0357 C   0  0  0  0  0  0
  -26.4529  -31.6565   25.0721 C   0  0  0  0  0  0
  -25.3709  -31.3751   26.1412 C   0  0  0  0  0  0
  -27.0405  -30.2962   24.6315 C   0  0  0  0  0  0
  -27.6056  -32.4343   25.7502 C   0  0  0  0  0  0
  -27.5577  -37.1782   24.8463 C   0  0  0  0  0  0
  -21.4272  -29.3047   22.3589 N   0  0  0  0  0  0
  -26.4286  -37.3743   23.9407 N   0  0  0  0  0  0
  -24.7202  -31.0279   22.0910 N   0  0  0  0  0  0
  -23.4212  -28.8093   23.3003 O   0  0  0  0  0  0
  -28.2856  -26.1471   20.2124 O   0  0  0  0  0  0
  -26.5657  -34.8900   22.4641 O   0  0  0  0  0  0
  -23.5559  -32.1302   23.7083 O   0  0  0  0  0  0
  -28.9163  -18.9595   20.7598 C   0  0  0  0  0  0
  -29.3011  -20.2259   20.2486 C   0  0  0  0  0  0
  -30.5665  -19.8009   19.7147 C   0  0  0  0  0  0
  -31.5505  -20.6589   18.9740 C   0  0  0  0  0  0
  -31.0218  -16.6461   22.3454 C   0  0  0  0  0  0
  -28.6595  -16.1656   21.9885 C   0  0  0  0  0  0
  -28.4836  -21.6786   20.1611 C   0  0  0  0  0  0
  -29.0137  -23.2765   20.3054 C   0  0  0  0  0  0
  -28.0069  -24.6181   20.0509 C   0  0  0  0  0  0
  -29.9772  -16.4049   21.2262 C   0  0  0  0  0  0
  -30.8704  -18.4871   19.9009 N   0  0  0  0  0  0
  -29.8469  -17.8626   20.5564 N   0  0  0  0  0  0
  -31.4774  -12.7912   19.1727 H   0  0  0  0  0  0
  -30.4739  -11.6492   19.9908 H   0  0  0  0  0  0
  -29.8515  -11.7953   17.5633 H   0  0  0  0  0  0
  -29.6084  -13.5167   17.7102 H   0  0  0  0  0  0
  -27.9425  -11.2942   18.9259 H   0  0  0  0  0  0
  -27.3956  -12.5151   17.8039 H   0  0  0  0  0  0
  -27.6242  -14.2627   19.4728 H   0  0  0  0  0  0
  -28.7992  -12.1368   21.3098 H   0  0  0  0  0  0
  -28.3343  -13.6713   21.8661 H   0  0  0  0  0  0
  -25.2775   -9.5680   22.4754 H   0  0  0  0  0  0
  -24.0016   -7.4629   22.7471 H   0  0  0  0  0  0
  -21.0857   -8.8769   19.8943 H   0  0  0  0  0  0
  -22.3715  -10.9667   19.6160 H   0  0  0  0  0  0
  -21.2003   -7.6150   23.9716 H   0  0  0  0  0  0
  -21.1485   -6.0523   25.9079 H   0  0  0  0  0  0
  -22.0598   -2.7610   23.2842 H   0  0  0  0  0  0
  -22.4118  -11.9846   22.4807 H   0  0  0  0  0  0
  -21.1094  -13.1198   22.2650 H   0  0  0  0  0  0
  -24.6333  -15.8371   20.5029 H   0  0  0  0  0  0
  -26.2461  -15.6292   20.0445 H   0  0  0  0  0  0
  -26.7275  -32.5294   23.0999 H   0  0  0  0  0  0
  -25.0081  -33.9607   25.0324 H   0  0  0  0  0  0
  -22.7524  -31.2876   21.3752 H   0  0  0  0  0  0
  -23.3761  -35.9579   23.3291 H   0  0  0  0  0  0
  -24.3574  -36.8902   22.2061 H   0  0  0  0  0  0
  -23.7238  -37.6441   23.6690 H   0  0  0  0  0  0
  -26.1656  -31.4701   20.6176 H   0  0  0  0  0  0
  -26.8755  -30.7641   22.0341 H   0  0  0  0  0  0
  -28.1400  -28.7989   21.2310 H   0  0  0  0  0  0
  -25.9179  -25.8397   19.0054 H   0  0  0  0  0  0
  -23.9876  -27.2916   18.9855 H   0  0  0  0  0  0
  -23.8173  -30.5631   19.3959 H   0  0  0  0  0  0
  -22.7941  -29.2320   19.8408 H   0  0  0  0  0  0
  -25.1313  -36.1859   25.0811 H   0  0  0  0  0  0
  -21.0021  -28.3322   24.1348 H   0  0  0  0  0  0
  -20.5697  -26.2340   23.3621 H   0  0  0  0  0  0
  -21.6663  -26.7433   22.1193 H   0  0  0  0  0  0
  -19.6928  -25.6284   21.1263 H   0  0  0  0  0  0
  -19.6710  -27.3173   20.6728 H   0  0  0  0  0  0
  -17.4222  -26.6682   21.4024 H   0  0  0  0  0  0
  -18.0346  -26.0081   22.9021 H   0  0  0  0  0  0
  -19.7957  -30.7296   24.2232 H   0  0  0  0  0  0
  -17.5033  -31.6270   24.5162 H   0  0  0  0  0  0
  -15.5367  -30.2980   23.7671 H   0  0  0  0  0  0
  -15.8700  -28.0814   22.7088 H   0  0  0  0  0  0
  -24.5892  -30.7097   25.7724 H   0  0  0  0  0  0
  -24.8892  -32.2931   26.4791 H   0  0  0  0  0  0
  -25.7991  -30.8949   27.0221 H   0  0  0  0  0  0
  -26.3030  -29.6669   24.1319 H   0  0  0  0  0  0
  -27.4009  -29.7281   25.4901 H   0  0  0  0  0  0
  -27.8944  -30.4200   23.9651 H   0  0  0  0  0  0
  -27.2647  -33.3665   26.2020 H   0  0  0  0  0  0
  -28.3894  -32.6871   25.0348 H   0  0  0  0  0  0
  -28.0697  -31.8510   26.5463 H   0  0  0  0  0  0
  -28.2582  -38.0089   24.7518 H   0  0  0  0  0  0
  -28.1087  -36.2619   24.6289 H   0  0  0  0  0  0
  -27.2291  -37.1428   25.8865 H   0  0  0  0  0  0
  -20.9483  -29.8754   21.6766 H   0  0  0  0  0  0
  -26.0154  -38.2812   24.1419 H   0  0  0  0  0  0
  -27.9969  -18.7591   21.2910 H   0  0  0  0  0  0
  -31.1644  -20.9379   17.9938 H   0  0  0  0  0  0
  -32.5038  -20.1504   18.8222 H   0  0  0  0  0  0
  -31.7555  -21.5792   19.5212 H   0  0  0  0  0  0
  -30.7163  -17.4502   23.0158 H   0  0  0  0  0  0
  -31.9905  -16.9266   21.9306 H   0  0  0  0  0  0
  -31.1810  -15.7574   22.9580 H   0  0  0  0  0  0
  -28.3368  -17.0457   22.5409 H   0  0  0  0  0  0
  -28.7814  -15.4206   22.7709 H   0  0  0  0  0  0
  -27.8496  -15.8825   21.3212 H   0  0  0  0  0  0
  -27.6567  -21.6123   20.8691 H   0  0  0  0  0  0
  -27.9711  -21.6722   19.1988 H   0  0  0  0  0  0
  -29.8629  -23.3940   19.6316 H   0  0  0  0  0  0
  -29.4355  -23.3787   21.3052 H   0  0  0  0  0  0
  -27.1218  -24.4303   20.6592 H   0  0  0  0  0  0
  -27.6680  -24.5044   19.0209 H   0  0  0  0  0  0
  1 25  1  0  0  0
  1 30  2  0  0  0
  1 80  1  0  0  0
  2  3  1  0  0  0
  2 25  1  0  0  0
  2 83  1  0  0  0
  2 84  1  0  0  0
  3  4  1  0  0  0
  3 85  1  0  0  0
  3 86  1  0  0  0
  4  5  1  0  0  0
  4 87  1  0  0  0
  4 88  1  0  0  0
  5  6  1  0  0  0
  5 26  1  0  0  0
  5 89  1  0  0  0
  6 25  1  0  0  0
  6 90  1  0  0  0
  6 91  1  0  0  0
  7  8  2  0  0  0
  7 26  1  0  0  0
  7 29  1  0  0  0
  8  9  1  0  0  0
  8 22  1  0  0  0
  9 10  1  0  0  0
  9 27  2  0  0  0
 10 11  2  0  0  0
 10 15  1  0  0  0
 11 12  1  0  0  0
 11 92  1  0  0  0
 12 13  2  0  0  0
 12 93  1  0  0  0
 13 14  1  0  0  0
 13 31  1  0  0  0
 14 15  2  0  0  0
 14 94  1  0  0  0
 15 95  1  0  0  0
 16 17  2  0  0  0
 16 21  1  0  0  0
 16 31  1  0  0  0
 17 18  1  0  0  0
 17 96  1  0  0  0
 18 19  2  0  0  0
 18 97  1  0  0  0
 19 20  1  0  0  0
 19 24  1  0  0  0
 20 21  2  0  0  0
 20 98  1  0  0  0
 21 23  1  0  0  0
 22 28  1  0  0  0
 22 32  2  0  0  0
 26 27  1  0  0  0
 28 99  1  0  0  0
 28100  1  0  0  0
 29101  1  0  0  0
 29102  1  0  0  0
 33 34  1  0  0  0
 33 66  1  0  0  0
 33 70  2  0  0  0
 34 36  1  0  0  0
 34 59  1  0  0  0
 34103  1  0  0  0
 35 44  2  0  0  0
 35 45  1  0  0  0
 35 68  1  0  0  0
 36 56  1  0  0  0
 36104  1  0  0  0
 37 39  1  0  0  0
 37 47  1  0  0  0
 37 66  1  0  0  0
 37105  1  0  0  0
 38 43  2  0  0  0
 38 46  1  0  0  0
 38 47  1  0  0  0
 39 64  1  0  0  0
 39 67  2  0  0  0
 40 52  1  0  0  0
 40 53  2  0  0  0
 40 58  1  0  0  0
 41106  1  0  0  0
 41107  1  0  0  0
 41108  1  0  0  0
 41 48  1  0  0  0
 42 43  1  0  0  0
 42 66  1  0  0  0
 42109  1  0  0  0
 42110  1  0  0  0
 43 44  1  0  0  0
 44111  1  0  0  0
 45 46  2  0  0  0
 45112  1  0  0  0
 46113  1  0  0  0
 47114  1  0  0  0
 47115  1  0  0  0
 48 56  1  0  0  0
 48 65  1  0  0  0
 48116  1  0  0  0
 49 50  1  0  0  0
 49 53  1  0  0  0
 49 64  1  0  0  0
 49117  1  0  0  0
 50 51  1  0  0  0
 50118  1  0  0  0
 50119  1  0  0  0
 51 52  1  0  0  0
 51120  1  0  0  0
 51121  1  0  0  0
 52122  1  0  0  0
 52123  1  0  0  0
 53 54  1  0  0  0
 54 55  2  0  0  0
 54124  1  0  0  0
 55 57  1  0  0  0
 55125  1  0  0  0
 56 69  2  0  0  0
 57 58  2  0  0  0
 57126  1  0  0  0
 58127  1  0  0  0
 59 60  1  0  0  0
 59 61  1  0  0  0
 59 62  1  0  0  0
 60128  1  0  0  0
 60129  1  0  0  0
 60130  1  0  0  0
 61131  1  0  0  0
 61132  1  0  0  0
 61133  1  0  0  0
 62134  1  0  0  0
 62135  1  0  0  0
 62136  1  0  0  0
 63 65  1  0  0  0
 63137  1  0  0  0
 63138  1  0  0  0
 63139  1  0  0  0
 64140  1  0  0  0
 65141  1  0  0  0
 68 79  1  0  0  0
 71 72  2  0  0  0
 71 82  1  0  0  0
 71142  1  0  0  0
 72 73  1  0  0  0
 72 77  1  0  0  0
 73 74  1  0  0  0
 73 81  2  0  0  0
 74143  1  0  0  0
 74144  1  0  0  0
 74145  1  0  0  0
 75146  1  0  0  0
 75147  1  0  0  0
 75148  1  0  0  0
 75 80  1  0  0  0
 76 80  1  0  0  0
 76149  1  0  0  0
 76150  1  0  0  0
 76151  1  0  0  0
 77 78  1  0  0  0
 77152  1  0  0  0
 77153  1  0  0  0
 78 79  1  0  0  0
 78154  1  0  0  0
 78155  1  0  0  0
 79156  1  0  0  0
 79157  1  0  0  0
 80 82  1  0  0  0
 81 82  1  0  0  0
M  ISO  4   1 100  68 101  79 101  80 100
M  END
> <chiral flag>
0

> <version>
0

> <s_m_source_file>
/data/baiqing/PycharmProjects/Reinvent-master-3.2/result/LINK_invent/BTK/process_docking_weight1_custom_sum_contain_oxygen_bond_distance_aromatic_linkinvent_7_9_3/rearranged_h_0050.sdf

> <i_m_source_file_index>
78

> <r_mmod_Potential_Energy-OPLS-2005>
651.292419433594

> <r_mmod_Stretch_Energy-OPLS-2005>
295.673553466797

> <r_mmod_Bend_Energy-OPLS-2005>
318.137939453125

> <r_mmod_Torsional_Energy-OPLS-2005>
218.734161376953

> <r_mmod_Improper_Torsional_Energy-OPLS-2005>
4.80903148651123

> <r_mmod_Van_der_Waal_Energy-OPLS-2005>
126.192413330078

> <r_mmod_Electrostatic_Energy-OPLS-2005>
-288.599243164062

> <r_mmod_Solvation_Energy-OPLS-2005>
-211.336303710938

> <b_mmod_Minimization_Converged-OPLS-2005>
0

> <r_mmod_RMS_Derivative-OPLS-2005>
0.967649221420288

$$$$
82
                    3D
 Structure written by MMmdl.
161169  0  0  1  0            999 V2000
  -30.5987  -14.7195   20.4367 C   0  0  0  0  0  0
  -30.4400  -12.4232   19.4785 C   0  0  0  0  0  0
  -29.5153  -12.4878   18.2412 C   0  0  0  0  0  0
  -28.0385  -12.3259   18.6509 C   0  0  0  0  0  0
  -27.6482  -13.2238   19.8538 C   0  0  2  0  0  0
  -28.6914  -13.1439   20.9871 C   0  0  0  0  0  0
  -25.2551  -13.8171   20.5680 C   0  0  0  0  0  0
  -24.1836  -13.0431   20.9195 C   0  0  0  0  0  0
  -24.6416  -11.6909   20.8758 C   0  0  0  0  0  0
  -23.9082  -10.4287   21.0421 C   0  0  0  0  0  0
  -24.3621   -9.4220   21.9224 C   0  0  0  0  0  0
  -23.6318   -8.2240   22.0777 C   0  0  0  0  0  0
  -22.4305   -8.0269   21.3549 C   0  0  0  0  0  0
  -21.9937   -9.0232   20.4641 C   0  0  0  0  0  0
  -22.7265  -10.2112   20.3053 C   0  0  0  0  0  0
  -21.6876   -6.0728   22.5276 C   0  0  0  0  0  0
  -21.4015   -6.5629   23.8200 C   0  0  0  0  0  0
  -21.3662   -5.6795   24.9163 C   0  0  0  0  0  0
  -21.6055   -4.3053   24.7217 C   0  0  0  0  0  0
  -21.8823   -3.8136   23.4333 C   0  0  0  0  0  0
  -21.9202   -4.6957   22.3390 C   0  0  0  0  0  0
  -22.7861  -13.5226   21.1848 C   0  0  0  0  0  0
  -22.1668   -4.2141   21.0963 F   0  0  0  0  0  0
  -21.5654   -3.4531   25.7722 F   0  0  0  0  0  0
  -30.0026  -13.4782   20.4206 N   0  0  0  0  0  0
  -26.2986  -12.9370   20.3308 N   0  0  0  0  0  0
  -25.9356  -11.6527   20.5790 N   0  0  0  0  0  0
  -22.0464  -12.8202   22.0362 N   0  0  0  0  0  0
  -25.4261  -15.1871   20.4069 N   0  0  0  0  0  0
  -31.7990  -14.7966   20.1686 O   0  0  0  0  0  0
  -21.6663   -6.8876   21.4246 O   0  0  0  0  0  0
  -22.3575  -14.5553   20.6719 O   0  0  0  0  0  0
  -24.6265  -31.8570   23.1986 C   0  0  0  0  0  0
  -25.9101  -32.4761   23.8328 C   0  0  1  0  0  0
  -27.2280  -27.2967   20.1339 C   0  0  0  0  0  0
  -25.5910  -33.8563   24.2260 N   0  0  0  0  0  0
  -23.4230  -30.4792   21.5394 C   0  0  2  0  0  0
  -24.8730  -28.9252   20.1126 C   0  0  0  0  0  0
  -22.7480  -29.4617   22.4899 C   0  0  0  0  0  0
  -18.0297  -28.1377   22.8487 C   0  0  0  0  0  0
  -24.1491  -36.7302   23.2642 C   0  0  0  0  0  0
  -25.9649  -30.7838   21.3712 C   0  0  0  0  0  0
  -26.0420  -29.4062   20.7176 C   0  0  0  0  0  0
  -27.2257  -28.6064   20.7118 C   0  0  0  0  0  0
  -26.0392  -26.8700   19.5054 C   0  0  0  0  0  0
  -24.8746  -27.6643   19.4939 C   0  0  0  0  0  0
  -23.6408  -29.8074   20.1570 C   0  0  0  0  0  0
  -25.4112  -36.3073   24.0328 C   0  0  1  0  0  0
  -20.5899  -28.3698   23.1266 C   0  0  2  0  0  0
  -20.6780  -26.9416   22.5406 C   0  0  0  0  0  0
  -19.5753  -26.6377   21.5211 C   0  0  0  0  0  0
  -18.1938  -26.7918   22.1625 C   0  0  0  0  0  0
  -19.1550  -28.8851   23.2878 C   0  0  0  0  0  0
  -18.9469  -30.1455   23.8894 C   0  0  0  0  0  0
  -17.6465  -30.6582   24.0560 C   0  0  0  0  0  0
  -25.9043  -34.9446   23.5098 C   0  0  0  0  0  0
  -16.5359  -29.9079   23.6331 C   0  0  0  0  0  0
  -16.7283  -28.6498   23.0352 C   0  0  0  0  0  0
  -26.4495  -31.6581   25.0708 C   0  0  0  0  0  0
  -25.3736  -31.3715   26.1439 C   0  0  0  0  0  0
  -27.0353  -30.2996   24.6195 C   0  0  0  0  0  0
  -27.6034  -32.4340   25.7486 C   0  0  0  0  0  0
  -27.5580  -37.1807   24.8465 C   0  0  0  0  0  0
  -21.4196  -29.3047   22.3649 N   0  0  0  0  0  0
  -26.4297  -37.3762   23.9401 N   0  0  0  0  0  0
  -24.6903  -31.0568   22.0934 N   0  0  0  0  0  0
  -23.4196  -28.8165   23.2986 O   0  0  0  0  0  0
  -28.3288  -26.4255   20.1435 O   0  0  0  0  0  0
  -26.5621  -34.8912   22.4668 O   0  0  0  0  0  0
  -23.5422  -32.1367   23.7305 O   0  0  0  0  0  0
  -28.7406  -23.6632   18.7090 C   0  0  0  0  0  0
  -29.0868  -22.4255   18.1450 C   0  0  0  0  0  0
  -28.6417  -23.7571   20.1027 C   0  0  0  0  0  0
  -29.2297  -21.4444   20.2216 C   0  0  0  0  0  0
  -29.2255  -22.2562   16.6471 C   0  0  0  0  0  0
  -31.6929  -17.8140   20.2224 C   0  0  0  0  0  0
  -27.9294  -18.4718   20.3273 C   0  0  0  0  0  0
  -28.1446  -25.0953   20.7951 C   0  0  0  0  0  0
  -29.6065  -20.1393   21.0307 C   0  0  0  0  0  0
  -29.7160  -16.0696   20.4516 C   0  0  0  0  0  0
  -30.2668  -17.5809   20.7676 C   0  0  2  0  0  0
  -29.3203  -21.3298   18.8989 N   0  0  0  0  0  0
  -28.8975  -22.6141   20.8424 N   0  0  0  0  0  0
  -29.3799  -18.7842   20.3496 N   0  3  1  0  0  0
  -31.4803  -12.5450   19.1736 H   0  0  0  0  0  0
  -30.3799  -11.4411   19.9509 H   0  0  0  0  0  0
  -29.7921  -11.7120   17.5258 H   0  0  0  0  0  0
  -29.6511  -13.4391   17.7268 H   0  0  0  0  0  0
  -27.8908  -11.2796   18.9160 H   0  0  0  0  0  0
  -27.3827  -12.5215   17.8005 H   0  0  0  0  0  0
  -27.6487  -14.2470   19.4820 H   0  0  0  0  0  0
  -28.7122  -12.1451   21.4260 H   0  0  0  0  0  0
  -28.4328  -13.8212   21.8030 H   0  0  0  0  0  0
  -25.2722   -9.5746   22.4860 H   0  0  0  0  0  0
  -24.0005   -7.4658   22.7535 H   0  0  0  0  0  0
  -21.0880   -8.8742   19.8926 H   0  0  0  0  0  0
  -22.3722  -10.9661   19.6164 H   0  0  0  0  0  0
  -21.1969   -7.6130   23.9689 H   0  0  0  0  0  0
  -21.1509   -6.0524   25.9083 H   0  0  0  0  0  0
  -22.0582   -2.7599   23.2842 H   0  0  0  0  0  0
  -22.4002  -11.9785   22.4660 H   0  0  0  0  0  0
  -21.1071  -13.1235   22.2500 H   0  0  0  0  0  0
  -24.6537  -15.8398   20.4937 H   0  0  0  0  0  0
  -26.2697  -15.6142   20.0523 H   0  0  0  0  0  0
  -26.7166  -32.5431   23.1074 H   0  0  0  0  0  0
  -25.0030  -33.9697   25.0389 H   0  0  0  0  0  0
  -22.7178  -31.3003   21.3918 H   0  0  0  0  0  0
  -23.3739  -35.9651   23.3307 H   0  0  0  0  0  0
  -24.3579  -36.8924   22.2055 H   0  0  0  0  0  0
  -23.7266  -37.6513   23.6669 H   0  0  0  0  0  0
  -26.0972  -31.5464   20.6019 H   0  0  0  0  0  0
  -26.8435  -30.8335   22.0037 H   0  0  0  0  0  0
  -28.1248  -28.9762   21.1852 H   0  0  0  0  0  0
  -26.0064  -25.9011   19.0276 H   0  0  0  0  0  0
  -23.9811  -27.2929   19.0132 H   0  0  0  0  0  0
  -23.7589  -30.5809   19.3966 H   0  0  0  0  0  0
  -22.7608  -29.2351   19.8565 H   0  0  0  0  0  0
  -25.1299  -36.1923   25.0823 H   0  0  0  0  0  0
  -21.0007  -28.3275   24.1377 H   0  0  0  0  0  0
  -20.5667  -26.2309   23.3609 H   0  0  0  0  0  0
  -21.6647  -26.7421   22.1203 H   0  0  0  0  0  0
  -19.6907  -25.6288   21.1240 H   0  0  0  0  0  0
  -19.6681  -27.3187   20.6737 H   0  0  0  0  0  0
  -17.4201  -26.6676   21.4034 H   0  0  0  0  0  0
  -18.0342  -26.0065   22.9024 H   0  0  0  0  0  0
  -19.7950  -30.7282   24.2250 H   0  0  0  0  0  0
  -17.5020  -31.6259   24.5167 H   0  0  0  0  0  0
  -15.5361  -30.2969   23.7649 H   0  0  0  0  0  0
  -15.8691  -28.0806   22.7053 H   0  0  0  0  0  0
  -24.5888  -30.7094   25.7768 H   0  0  0  0  0  0
  -24.8961  -32.2878   26.4909 H   0  0  0  0  0  0
  -25.8062  -30.8854   27.0189 H   0  0  0  0  0  0
  -26.2932  -29.6723   24.1238 H   0  0  0  0  0  0
  -27.4042  -29.7285   25.4726 H   0  0  0  0  0  0
  -27.8808  -30.4267   23.9432 H   0  0  0  0  0  0
  -27.2603  -33.3615   26.2083 H   0  0  0  0  0  0
  -28.3826  -32.6943   25.0314 H   0  0  0  0  0  0
  -28.0727  -31.8471   26.5389 H   0  0  0  0  0  0
  -28.2598  -38.0101   24.7483 H   0  0  0  0  0  0
  -28.1075  -36.2623   24.6326 H   0  0  0  0  0  0
  -27.2296  -37.1505   25.8870 H   0  0  0  0  0  0
  -20.9361  -29.8778   21.6883 H   0  0  0  0  0  0
  -26.0178  -38.2846   24.1371 H   0  0  0  0  0  0
  -28.5416  -24.5293   18.0905 H   0  0  0  0  0  0
  -29.4539  -21.2236   16.3808 H   0  0  0  0  0  0
  -30.0261  -22.8909   16.2662 H   0  0  0  0  0  0
  -28.3028  -22.5382   16.1405 H   0  0  0  0  0  0
  -31.7297  -17.6963   19.1386 H   0  0  0  0  0  0
  -32.4074  -17.1164   20.6561 H   0  0  0  0  0  0
  -32.0797  -18.8047   20.4562 H   0  0  0  0  0  0
  -27.5776  -18.2040   21.3233 H   0  0  0  0  0  0
  -27.6959  -17.6572   19.6438 H   0  0  0  0  0  0
  -27.3437  -19.3261   19.9880 H   0  0  0  0  0  0
  -28.6515  -25.1597   21.7588 H   0  0  0  0  0  0
  -27.0960  -24.9404   21.0493 H   0  0  0  0  0  0
  -29.0856  -20.1517   21.9865 H   0  0  0  0  0  0
  -30.6594  -20.2528   21.2810 H   0  0  0  0  0  0
  -29.3252  -16.0881   19.4344 H   0  0  0  0  0  0
  -28.8495  -15.8962   21.0872 H   0  0  0  0  0  0
  -30.3324  -17.6351   21.8554 H   0  0  0  0  0  0
  -29.6139  -19.0109   19.3916 H   0  0  0  0  0  0
  1 25  1  0  0  0
  1 30  2  0  0  0
  1 80  1  0  0  0
  2  3  1  0  0  0
  2 25  1  0  0  0
  2 85  1  0  0  0
  2 86  1  0  0  0
  3  4  1  0  0  0
  3 87  1  0  0  0
  3 88  1  0  0  0
  4  5  1  0  0  0
  4 89  1  0  0  0
  4 90  1  0  0  0
  5  6  1  0  0  0
  5 26  1  0  0  0
  5 91  1  0  0  0
  6 25  1  0  0  0
  6 92  1  0  0  0
  6 93  1  0  0  0
  7  8  2  0  0  0
  7 26  1  0  0  0
  7 29  1  0  0  0
  8  9  1  0  0  0
  8 22  1  0  0  0
  9 10  1  0  0  0
  9 27  2  0  0  0
 10 11  2  0  0  0
 10 15  1  0  0  0
 11 12  1  0  0  0
 11 94  1  0  0  0
 12 13  2  0  0  0
 12 95  1  0  0  0
 13 14  1  0  0  0
 13 31  1  0  0  0
 14 15  2  0  0  0
 14 96  1  0  0  0
 15 97  1  0  0  0
 16 17  2  0  0  0
 16 21  1  0  0  0
 16 31  1  0  0  0
 17 18  1  0  0  0
 17 98  1  0  0  0
 18 19  2  0  0  0
 18 99  1  0  0  0
 19 20  1  0  0  0
 19 24  1  0  0  0
 20 21  2  0  0  0
 20100  1  0  0  0
 21 23  1  0  0  0
 22 28  1  0  0  0
 22 32  2  0  0  0
 26 27  1  0  0  0
 28101  1  0  0  0
 28102  1  0  0  0
 29103  1  0  0  0
 29104  1  0  0  0
 33 34  1  0  0  0
 33 66  1  0  0  0
 33 70  2  0  0  0
 34 36  1  0  0  0
 34 59  1  0  0  0
 34105  1  0  0  0
 35 44  2  0  0  0
 35 45  1  0  0  0
 35 68  1  0  0  0
 36 56  1  0  0  0
 36106  1  0  0  0
 37 39  1  0  0  0
 37 47  1  0  0  0
 37 66  1  0  0  0
 37107  1  0  0  0
 38 43  2  0  0  0
 38 46  1  0  0  0
 38 47  1  0  0  0
 39 64  1  0  0  0
 39 67  2  0  0  0
 40 52  1  0  0  0
 40 53  2  0  0  0
 40 58  1  0  0  0
 41108  1  0  0  0
 41109  1  0  0  0
 41110  1  0  0  0
 41 48  1  0  0  0
 42 43  1  0  0  0
 42 66  1  0  0  0
 42111  1  0  0  0
 42112  1  0  0  0
 43 44  1  0  0  0
 44113  1  0  0  0
 45 46  2  0  0  0
 45114  1  0  0  0
 46115  1  0  0  0
 47116  1  0  0  0
 47117  1  0  0  0
 48 56  1  0  0  0
 48 65  1  0  0  0
 48118  1  0  0  0
 49 50  1  0  0  0
 49 53  1  0  0  0
 49 64  1  0  0  0
 49119  1  0  0  0
 50 51  1  0  0  0
 50120  1  0  0  0
 50121  1  0  0  0
 51 52  1  0  0  0
 51122  1  0  0  0
 51123  1  0  0  0
 52124  1  0  0  0
 52125  1  0  0  0
 53 54  1  0  0  0
 54 55  2  0  0  0
 54126  1  0  0  0
 55 57  1  0  0  0
 55127  1  0  0  0
 56 69  2  0  0  0
 57 58  2  0  0  0
 57128  1  0  0  0
 58129  1  0  0  0
 59 60  1  0  0  0
 59 61  1  0  0  0
 59 62  1  0  0  0
 60130  1  0  0  0
 60131  1  0  0  0
 60132  1  0  0  0
 61133  1  0  0  0
 61134  1  0  0  0
 61135  1  0  0  0
 62136  1  0  0  0
 62137  1  0  0  0
 62138  1  0  0  0
 63 65  1  0  0  0
 63139  1  0  0  0
 63140  1  0  0  0
 63141  1  0  0  0
 64142  1  0  0  0
 65143  1  0  0  0
 68 78  1  0  0  0
 71 72  2  0  0  0
 71 73  1  0  0  0
 71144  1  0  0  0
 72 75  1  0  0  0
 72 82  1  0  0  0
 73 78  1  0  0  0
 73 83  2  0  0  0
 74 79  1  0  0  0
 74 82  2  0  0  0
 74 83  1  0  0  0
 75145  1  0  0  0
 75146  1  0  0  0
 75147  1  0  0  0
 76148  1  0  0  0
 76149  1  0  0  0
 76150  1  0  0  0
 76 81  1  0  0  0
 77151  1  0  0  0
 77152  1  0  0  0
 77153  1  0  0  0
 77 84  1  0  0  0
 78154  1  0  0  0
 78155  1  0  0  0
 79 84  1  0  0  0
 79156  1  0  0  0
 79157  1  0  0  0
 80 81  1  0  0  0
 80158  1  0  0  0
 80159  1  0  0  0
 81 84  1  0  0  0
 81160  1  0  0  0
 84161  1  0  0  0
M  CHG  1  84   1
M  ISO  4   1 100  68 101  78 101  80 100
M  END
> <chiral flag>
0

> <version>
0

> <s_m_source_file>
/data/baiqing/PycharmProjects/Reinvent-master-3.2/result/LINK_invent/BTK/process_docking_weight1_custom_sum_contain_oxygen_bond_distance_aromatic_linkinvent_7_9_3/rearranged_h_0050.sdf

> <i_m_source_file_index>
79

> <r_mmod_Potential_Energy-OPLS-2005>
-442.125396728516

> <r_mmod_Stretch_Energy-OPLS-2005>
112.40355682373

> <r_mmod_Bend_Energy-OPLS-2005>
160.738220214844

> <r_mmod_Torsional_Energy-OPLS-2005>
218.470092773438

> <r_mmod_Improper_Torsional_Energy-OPLS-2005>
8.08751678466797

> <r_mmod_Van_der_Waal_Energy-OPLS-2005>
143.910247802734

> <r_mmod_Electrostatic_Energy-OPLS-2005>
-723.63623046875

> <r_mmod_Solvation_Energy-OPLS-2005>
-431.831085205078

> <b_mmod_Minimization_Converged-OPLS-2005>
0

> <r_mmod_RMS_Derivative-OPLS-2005>
2.92582678794861

$$$$
83
                    3D
 Structure written by MMmdl.
162170  0  0  1  0            999 V2000
  -30.6877  -14.5890   20.4525 C   0  0  0  0  0  0
  -30.4198  -12.3397   19.4556 C   0  0  0  0  0  0
  -29.4948  -12.4195   18.2227 C   0  0  0  0  0  0
  -28.0159  -12.2897   18.6427 C   0  0  0  0  0  0
  -27.6346  -13.1840   19.8516 C   0  0  2  0  0  0
  -28.6910  -13.1111   20.9776 C   0  0  0  0  0  0
  -25.2545  -13.8045   20.5728 C   0  0  0  0  0  0
  -24.1775  -13.0380   20.9209 C   0  0  0  0  0  0
  -24.6303  -11.6830   20.8789 C   0  0  0  0  0  0
  -23.8981  -10.4252   21.0462 C   0  0  0  0  0  0
  -24.3564   -9.4172   21.9219 C   0  0  0  0  0  0
  -23.6274   -8.2196   22.0763 C   0  0  0  0  0  0
  -22.4265   -8.0240   21.3534 C   0  0  0  0  0  0
  -21.9878   -9.0212   20.4643 C   0  0  0  0  0  0
  -22.7175  -10.2109   20.3087 C   0  0  0  0  0  0
  -21.6831   -6.0719   22.5280 C   0  0  0  0  0  0
  -21.3990   -6.5632   23.8209 C   0  0  0  0  0  0
  -21.3669   -5.6785   24.9174 C   0  0  0  0  0  0
  -21.6053   -4.3048   24.7238 C   0  0  0  0  0  0
  -21.8814   -3.8141   23.4357 C   0  0  0  0  0  0
  -21.9184   -4.6951   22.3413 C   0  0  0  0  0  0
  -22.7825  -13.5224   21.1863 C   0  0  0  0  0  0
  -22.1666   -4.2147   21.0989 F   0  0  0  0  0  0
  -21.5654   -3.4532   25.7751 F   0  0  0  0  0  0
  -30.0054  -13.4036   20.3873 N   0  0  0  0  0  0
  -26.2906  -12.9136   20.3356 N   0  0  0  0  0  0
  -25.9219  -11.6343   20.5828 N   0  0  0  0  0  0
  -22.0446  -12.8251   22.0408 N   0  0  0  0  0  0
  -25.4360  -15.1773   20.4157 N   0  0  0  0  0  0
  -31.8979  -14.6482   20.2181 O   0  0  0  0  0  0
  -21.6622   -6.8846   21.4235 O   0  0  0  0  0  0
  -22.3553  -14.5546   20.6698 O   0  0  0  0  0  0
  -24.6173  -31.8672   23.2112 C   0  0  0  0  0  0
  -25.9052  -32.4824   23.8415 C   0  0  1  0  0  0
  -27.2212  -27.4058   20.1085 C   0  0  0  0  0  0
  -25.5911  -33.8620   24.2360 N   0  0  0  0  0  0
  -23.4063  -30.4907   21.5537 C   0  0  2  0  0  0
  -24.8499  -28.9617   20.1126 C   0  0  0  0  0  0
  -22.7431  -29.4641   22.5011 C   0  0  0  0  0  0
  -18.0277  -28.1371   22.8499 C   0  0  0  0  0  0
  -24.1488  -36.7306   23.2636 C   0  0  0  0  0  0
  -25.9367  -30.8271   21.3637 C   0  0  0  0  0  0
  -26.0133  -29.4597   20.7128 C   0  0  0  0  0  0
  -27.2044  -28.6928   20.7025 C   0  0  0  0  0  0
  -26.0392  -26.9383   19.4883 C   0  0  0  0  0  0
  -24.8611  -27.7048   19.4901 C   0  0  0  0  0  0
  -23.6132  -29.8285   20.1669 C   0  0  0  0  0  0
  -25.4103  -36.3119   24.0357 C   0  0  1  0  0  0
  -20.5863  -28.3659   23.1336 C   0  0  2  0  0  0
  -20.6765  -26.9403   22.5412 C   0  0  0  0  0  0
  -19.5744  -26.6395   21.5208 C   0  0  0  0  0  0
  -18.1926  -26.7924   22.1621 C   0  0  0  0  0  0
  -19.1521  -28.8835   23.2914 C   0  0  0  0  0  0
  -18.9438  -30.1436   23.8934 C   0  0  0  0  0  0
  -17.6438  -30.6576   24.0566 C   0  0  0  0  0  0
  -25.9033  -34.9478   23.5156 C   0  0  0  0  0  0
  -16.5335  -29.9076   23.6314 C   0  0  0  0  0  0
  -16.7262  -28.6487   23.0351 C   0  0  0  0  0  0
  -26.4488  -31.6584   25.0723 C   0  0  0  0  0  0
  -25.3772  -31.3649   26.1483 C   0  0  0  0  0  0
  -27.0298  -30.3044   24.6035 C   0  0  0  0  0  0
  -27.6106  -32.4275   25.7446 C   0  0  0  0  0  0
  -27.5591  -37.1797   24.8471 C   0  0  0  0  0  0
  -21.4153  -29.3034   22.3761 N   0  0  0  0  0  0
  -26.4296  -37.3799   23.9427 N   0  0  0  0  0  0
  -24.6730  -31.0756   22.1020 N   0  0  0  0  0  0
  -23.4197  -28.8165   23.3044 O   0  0  0  0  0  0
  -28.3666  -26.6280   20.1353 O   0  0  0  0  0  0
  -26.5581  -34.8924   22.4709 O   0  0  0  0  0  0
  -23.5360  -32.1431   23.7493 O   0  0  0  0  0  0
  -27.9398  -22.3265   21.3217 C   0  0  0  0  0  0
  -28.2224  -21.0225   21.6306 C   0  0  0  0  0  0
  -29.1851  -22.9072   20.9370 C   0  0  0  0  0  0
  -30.0254  -24.3512   19.0473 C   0  0  0  0  0  0
  -30.4750  -25.0308   21.4416 C   0  0  0  0  0  0
  -29.2235  -16.1279   19.3188 C   0  0  0  0  0  0
  -29.6367  -18.2554   21.2711 C   0  0  0  0  0  0
  -30.3630  -19.5883   21.6476 C   0  0  0  0  0  0
  -30.5616  -16.9815   21.1486 C   0  0  0  0  0  0
  -28.1684  -25.2258   20.4575 C   0  0  0  0  0  0
  -29.4699  -24.3609   20.4834 C   0  0  0  0  0  0
  -30.1580  -21.9812   21.0113 N   0  0  0  0  0  0
  -29.5693  -20.8154   21.4164 N   0  0  0  0  0  0
  -29.9597  -15.7514   20.5381 N   0  0  0  0  0  0
  -31.4644  -12.4323   19.1543 H   0  0  0  0  0  0
  -30.3345  -11.3644   19.9379 H   0  0  0  0  0  0
  -29.7465  -11.6199   17.5232 H   0  0  0  0  0  0
  -29.6534  -13.3490   17.6764 H   0  0  0  0  0  0
  -27.8467  -11.2423   18.8971 H   0  0  0  0  0  0
  -27.3620  -12.4986   17.7938 H   0  0  0  0  0  0
  -27.5938  -14.1941   19.4686 H   0  0  0  0  0  0
  -28.6961  -12.1217   21.4373 H   0  0  0  0  0  0
  -28.4563  -13.8211   21.7736 H   0  0  0  0  0  0
  -25.2715   -9.5663   22.4772 H   0  0  0  0  0  0
  -23.9984   -7.4581   22.7475 H   0  0  0  0  0  0
  -21.0812   -8.8728   19.8953 H   0  0  0  0  0  0
  -22.3641  -10.9658   19.6200 H   0  0  0  0  0  0
  -21.1967   -7.6139   23.9718 H   0  0  0  0  0  0
  -21.1508   -6.0522   25.9083 H   0  0  0  0  0  0
  -22.0594   -2.7606   23.2850 H   0  0  0  0  0  0
  -22.4066  -11.9924   22.4803 H   0  0  0  0  0  0
  -21.1081  -13.1320   22.2626 H   0  0  0  0  0  0
  -24.6809  -15.8434   20.5291 H   0  0  0  0  0  0
  -26.3082  -15.6069   20.1372 H   0  0  0  0  0  0
  -26.7110  -32.5528   23.1167 H   0  0  0  0  0  0
  -25.0109  -33.9781   25.0539 H   0  0  0  0  0  0
  -22.6956  -31.3086   21.4172 H   0  0  0  0  0  0
  -23.3766  -35.9622   23.3300 H   0  0  0  0  0  0
  -24.3595  -36.8904   22.2050 H   0  0  0  0  0  0
  -23.7212  -37.6508   23.6625 H   0  0  0  0  0  0
  -26.0410  -31.5895   20.5907 H   0  0  0  0  0  0
  -26.8289  -30.8889   21.9749 H   0  0  0  0  0  0
  -28.0998  -29.0726   21.1733 H   0  0  0  0  0  0
  -26.0011  -25.9851   18.9847 H   0  0  0  0  0  0
  -23.9719  -27.3259   19.0048 H   0  0  0  0  0  0
  -23.7176  -30.6039   19.4071 H   0  0  0  0  0  0
  -22.7378  -29.2462   19.8739 H   0  0  0  0  0  0
  -25.1263  -36.2009   25.0850 H   0  0  0  0  0  0
  -20.9941  -28.3209   24.1462 H   0  0  0  0  0  0
  -20.5684  -26.2261   23.3586 H   0  0  0  0  0  0
  -21.6636  -26.7463   22.1195 H   0  0  0  0  0  0
  -19.6911  -25.6317   21.1214 H   0  0  0  0  0  0
  -19.6684  -27.3228   20.6757 H   0  0  0  0  0  0
  -17.4196  -26.6688   21.4018 H   0  0  0  0  0  0
  -18.0327  -26.0051   22.9002 H   0  0  0  0  0  0
  -19.7903  -30.7241   24.2341 H   0  0  0  0  0  0
  -17.4980  -31.6260   24.5155 H   0  0  0  0  0  0
  -15.5331  -30.2983   23.7606 H   0  0  0  0  0  0
  -15.8664  -28.0800   22.7061 H   0  0  0  0  0  0
  -24.5955  -30.6987   25.7809 H   0  0  0  0  0  0
  -24.8944  -32.2773   26.4987 H   0  0  0  0  0  0
  -25.8149  -30.8778   27.0205 H   0  0  0  0  0  0
  -26.2793  -29.6802   24.1163 H   0  0  0  0  0  0
  -27.4192  -29.7272   25.4429 H   0  0  0  0  0  0
  -27.8582  -30.4404   23.9081 H   0  0  0  0  0  0
  -27.2788  -33.3578   26.2066 H   0  0  0  0  0  0
  -28.3867  -32.6823   25.0216 H   0  0  0  0  0  0
  -28.0826  -31.8362   26.5300 H   0  0  0  0  0  0
  -28.2614  -38.0092   24.7545 H   0  0  0  0  0  0
  -28.1084  -36.2632   24.6264 H   0  0  0  0  0  0
  -27.2317  -37.1413   25.8876 H   0  0  0  0  0  0
  -20.9323  -29.8799   21.7013 H   0  0  0  0  0  0
  -26.0204  -38.2883   24.1435 H   0  0  0  0  0  0
  -26.9686  -22.7970   21.3690 H   0  0  0  0  0  0
  -27.5777  -20.2264   21.9793 H   0  0  0  0  0  0
  -30.9685  -23.8087   18.9850 H   0  0  0  0  0  0
  -30.2003  -25.3642   18.6844 H   0  0  0  0  0  0
  -29.3209  -23.8788   18.3611 H   0  0  0  0  0  0
  -31.4061  -24.4666   21.5038 H   0  0  0  0  0  0
  -30.0685  -25.1157   22.4502 H   0  0  0  0  0  0
  -30.7297  -26.0368   21.1069 H   0  0  0  0  0  0
  -28.2146  -16.4590   19.5667 H   0  0  0  0  0  0
  -29.1406  -15.3299   18.5850 H   0  0  0  0  0  0
  -29.7260  -16.9354   18.7864 H   0  0  0  0  0  0
  -29.1184  -18.4567   20.3346 H   0  0  0  0  0  0
  -28.8518  -18.0553   22.0009 H   0  0  0  0  0  0
  -31.2919  -19.6747   21.0810 H   0  0  0  0  0  0
  -30.6467  -19.5605   22.7003 H   0  0  0  0  0  0
  -30.9468  -16.7263   22.1361 H   0  0  0  0  0  0
  -31.4372  -17.2523   20.5558 H   0  0  0  0  0  0
  -27.6776  -25.1735   21.4306 H   0  0  0  0  0  0
  -27.4933  -24.7528   19.7462 H   0  0  0  0  0  0
  1 25  1  0  0  0
  1 30  2  0  0  0
  1 84  1  0  0  0
  2  3  1  0  0  0
  2 25  1  0  0  0
  2 85  1  0  0  0
  2 86  1  0  0  0
  3  4  1  0  0  0
  3 87  1  0  0  0
  3 88  1  0  0  0
  4  5  1  0  0  0
  4 89  1  0  0  0
  4 90  1  0  0  0
  5  6  1  0  0  0
  5 26  1  0  0  0
  5 91  1  0  0  0
  6 25  1  0  0  0
  6 92  1  0  0  0
  6 93  1  0  0  0
  7  8  2  0  0  0
  7 26  1  0  0  0
  7 29  1  0  0  0
  8  9  1  0  0  0
  8 22  1  0  0  0
  9 10  1  0  0  0
  9 27  2  0  0  0
 10 11  2  0  0  0
 10 15  1  0  0  0
 11 12  1  0  0  0
 11 94  1  0  0  0
 12 13  2  0  0  0
 12 95  1  0  0  0
 13 14  1  0  0  0
 13 31  1  0  0  0
 14 15  2  0  0  0
 14 96  1  0  0  0
 15 97  1  0  0  0
 16 17  2  0  0  0
 16 21  1  0  0  0
 16 31  1  0  0  0
 17 18  1  0  0  0
 17 98  1  0  0  0
 18 19  2  0  0  0
 18 99  1  0  0  0
 19 20  1  0  0  0
 19 24  1  0  0  0
 20 21  2  0  0  0
 20100  1  0  0  0
 21 23  1  0  0  0
 22 28  1  0  0  0
 22 32  2  0  0  0
 26 27  1  0  0  0
 28101  1  0  0  0
 28102  1  0  0  0
 29103  1  0  0  0
 29104  1  0  0  0
 33 34  1  0  0  0
 33 66  1  0  0  0
 33 70  2  0  0  0
 34 36  1  0  0  0
 34 59  1  0  0  0
 34105  1  0  0  0
 35 44  2  0  0  0
 35 45  1  0  0  0
 35 68  1  0  0  0
 36 56  1  0  0  0
 36106  1  0  0  0
 37 39  1  0  0  0
 37 47  1  0  0  0
 37 66  1  0  0  0
 37107  1  0  0  0
 38 43  2  0  0  0
 38 46  1  0  0  0
 38 47  1  0  0  0
 39 64  1  0  0  0
 39 67  2  0  0  0
 40 52  1  0  0  0
 40 53  2  0  0  0
 40 58  1  0  0  0
 41108  1  0  0  0
 41109  1  0  0  0
 41110  1  0  0  0
 41 48  1  0  0  0
 42 43  1  0  0  0
 42 66  1  0  0  0
 42111  1  0  0  0
 42112  1  0  0  0
 43 44  1  0  0  0
 44113  1  0  0  0
 45 46  2  0  0  0
 45114  1  0  0  0
 46115  1  0  0  0
 47116  1  0  0  0
 47117  1  0  0  0
 48 56  1  0  0  0
 48 65  1  0  0  0
 48118  1  0  0  0
 49 50  1  0  0  0
 49 53  1  0  0  0
 49 64  1  0  0  0
 49119  1  0  0  0
 50 51  1  0  0  0
 50120  1  0  0  0
 50121  1  0  0  0
 51 52  1  0  0  0
 51122  1  0  0  0
 51123  1  0  0  0
 52124  1  0  0  0
 52125  1  0  0  0
 53 54  1  0  0  0
 54 55  2  0  0  0
 54126  1  0  0  0
 55 57  1  0  0  0
 55127  1  0  0  0
 56 69  2  0  0  0
 57 58  2  0  0  0
 57128  1  0  0  0
 58129  1  0  0  0
 59 60  1  0  0  0
 59 61  1  0  0  0
 59 62  1  0  0  0
 60130  1  0  0  0
 60131  1  0  0  0
 60132  1  0  0  0
 61133  1  0  0  0
 61134  1  0  0  0
 61135  1  0  0  0
 62136  1  0  0  0
 62137  1  0  0  0
 62138  1  0  0  0
 63 65  1  0  0  0
 63139  1  0  0  0
 63140  1  0  0  0
 63141  1  0  0  0
 64142  1  0  0  0
 65143  1  0  0  0
 68 80  1  0  0  0
 71 72  2  0  0  0
 71 73  1  0  0  0
 71144  1  0  0  0
 72 83  1  0  0  0
 72145  1  0  0  0
 73 81  1  0  0  0
 73 82  2  0  0  0
 74146  1  0  0  0
 74147  1  0  0  0
 74148  1  0  0  0
 74 81  1  0  0  0
 75 81  1  0  0  0
 75149  1  0  0  0
 75150  1  0  0  0
 75151  1  0  0  0
 76 84  1  0  0  0
 76152  1  0  0  0
 76153  1  0  0  0
 76154  1  0  0  0
 77 78  1  0  0  0
 77 79  1  0  0  0
 77155  1  0  0  0
 77156  1  0  0  0
 78 83  1  0  0  0
 78157  1  0  0  0
 78158  1  0  0  0
 79 84  1  0  0  0
 79159  1  0  0  0
 79160  1  0  0  0
 80 81  1  0  0  0
 80161  1  0  0  0
 80162  1  0  0  0
 82 83  1  0  0  0
M  ISO  4   1 100  68 101  80 101  84 100
M  END
> <chiral flag>
0

> <version>
0

> <s_m_source_file>
/data/baiqing/PycharmProjects/Reinvent-master-3.2/result/LINK_invent/BTK/process_docking_weight1_custom_sum_contain_oxygen_bond_distance_aromatic_linkinvent_7_9_3/rearranged_h_0050.sdf

> <i_m_source_file_index>
80

> <r_mmod_Potential_Energy-OPLS-2005>
135.342041015625

> <r_mmod_Stretch_Energy-OPLS-2005>
53.5933990478516

> <r_mmod_Bend_Energy-OPLS-2005>
114.891662597656

> <r_mmod_Torsional_Energy-OPLS-2005>
300.279937744141

> <r_mmod_Improper_Torsional_Energy-OPLS-2005>
9.51246356964111

> <r_mmod_Van_der_Waal_Energy-OPLS-2005>
140.983703613281

> <r_mmod_Electrostatic_Energy-OPLS-2005>
-315.450927734375

> <r_mmod_Solvation_Energy-OPLS-2005>
-205.499740600586

> <b_mmod_Minimization_Converged-OPLS-2005>
0

> <r_mmod_RMS_Derivative-OPLS-2005>
2.88267493247986

$$$$
84
                    3D
 Structure written by MMmdl.
171179  0  0  1  0            999 V2000
  -30.6866  -14.6274   20.2677 C   0  0  0  0  0  0
  -30.4461  -12.3342   19.4145 C   0  0  0  0  0  0
  -29.4955  -12.4209   18.1985 C   0  0  0  0  0  0
  -28.0116  -12.3934   18.6053 C   0  0  0  0  0  0
  -27.6719  -13.2384   19.8543 C   0  0  2  0  0  0
  -28.7604  -13.1394   20.9535 C   0  0  0  0  0  0
  -25.2787  -13.8220   20.5751 C   0  0  0  0  0  0
  -24.2061  -13.0422   20.9195 C   0  0  0  0  0  0
  -24.6641  -11.6942   20.8814 C   0  0  0  0  0  0
  -23.9340  -10.4304   21.0556 C   0  0  0  0  0  0
  -24.3849   -9.4150   21.9302 C   0  0  0  0  0  0
  -23.6399   -8.2274   22.0864 C   0  0  0  0  0  0
  -22.4381   -8.0407   21.3610 C   0  0  0  0  0  0
  -22.0092   -9.0431   20.4755 C   0  0  0  0  0  0
  -22.7545  -10.2224   20.3149 C   0  0  0  0  0  0
  -21.6909   -6.0801   22.5289 C   0  0  0  0  0  0
  -21.4048   -6.5679   23.8218 C   0  0  0  0  0  0
  -21.3638   -5.6812   24.9179 C   0  0  0  0  0  0
  -21.6036   -4.3087   24.7196 C   0  0  0  0  0  0
  -21.8848   -3.8172   23.4319 C   0  0  0  0  0  0
  -21.9247   -4.7018   22.3387 C   0  0  0  0  0  0
  -22.8096  -13.5275   21.1763 C   0  0  0  0  0  0
  -22.1751   -4.2219   21.0970 F   0  0  0  0  0  0
  -21.5580   -3.4556   25.7692 F   0  0  0  0  0  0
  -30.0778  -13.4053   20.3571 N   0  0  0  0  0  0
  -26.3256  -12.9424   20.3472 N   0  0  0  0  0  0
  -25.9585  -11.6556   20.5880 N   0  0  0  0  0  0
  -22.0760  -12.8194   22.0330 N   0  0  0  0  0  0
  -25.4371  -15.1957   20.4126 N   0  0  0  0  0  0
  -31.9146  -14.7103   20.2551 O   0  0  0  0  0  0
  -21.6705   -6.9005   21.4289 O   0  0  0  0  0  0
  -22.3781  -14.5542   20.6658 O   0  0  0  0  0  0
  -24.6251  -31.8673   23.2053 C   0  0  0  0  0  0
  -25.9123  -32.4814   23.8379 C   0  0  1  0  0  0
  -27.2332  -27.3390   20.0735 C   0  0  0  0  0  0
  -25.5951  -33.8592   24.2320 N   0  0  0  0  0  0
  -23.4070  -30.4866   21.5575 C   0  0  2  0  0  0
  -24.8406  -28.9264   20.1202 C   0  0  0  0  0  0
  -22.7445  -29.4620   22.5084 C   0  0  0  0  0  0
  -18.0292  -28.1251   22.8567 C   0  0  0  0  0  0
  -24.1463  -36.7276   23.2651 C   0  0  0  0  0  0
  -25.9457  -30.7949   21.3682 C   0  0  0  0  0  0
  -26.0112  -29.4202   20.7086 C   0  0  0  0  0  0
  -27.2010  -28.6412   20.6623 C   0  0  0  0  0  0
  -26.0346  -26.8810   19.4860 C   0  0  0  0  0  0
  -24.8527  -27.6601   19.5055 C   0  0  0  0  0  0
  -23.6056  -29.8097   20.1762 C   0  0  0  0  0  0
  -25.4106  -36.3098   24.0354 C   0  0  1  0  0  0
  -20.5892  -28.3551   23.1377 C   0  0  2  0  0  0
  -20.6730  -26.9289   22.5461 C   0  0  0  0  0  0
  -19.5710  -26.6290   21.5240 C   0  0  0  0  0  0
  -18.1889  -26.7825   22.1648 C   0  0  0  0  0  0
  -19.1545  -28.8725   23.2952 C   0  0  0  0  0  0
  -18.9446  -30.1347   23.8926 C   0  0  0  0  0  0
  -17.6440  -30.6500   24.0524 C   0  0  0  0  0  0
  -25.9056  -34.9480   23.5138 C   0  0  0  0  0  0
  -16.5345  -29.8964   23.6306 C   0  0  0  0  0  0
  -16.7268  -28.6338   23.0421 C   0  0  0  0  0  0
  -26.4484  -31.6627   25.0750 C   0  0  0  0  0  0
  -25.3698  -31.3732   26.1449 C   0  0  0  0  0  0
  -27.0383  -30.3093   24.6173 C   0  0  0  0  0  0
  -27.6057  -32.4328   25.7532 C   0  0  0  0  0  0
  -27.5583  -37.1798   24.8477 C   0  0  0  0  0  0
  -21.4183  -29.2975   22.3833 N   0  0  0  0  0  0
  -26.4299  -37.3797   23.9410 N   0  0  0  0  0  0
  -24.6787  -31.0684   22.0993 N   0  0  0  0  0  0
  -23.4243  -28.8228   23.3136 O   0  0  0  0  0  0
  -28.4537  -26.6491   19.9971 O   0  0  0  0  0  0
  -26.5625  -34.8938   22.4694 O   0  0  0  0  0  0
  -23.5437  -32.1518   23.7389 O   0  0  0  0  0  0
  -28.3803  -20.5973   17.7251 C   0  0  0  0  0  0
  -28.0254  -21.9438   17.9938 C   0  0  0  0  0  0
  -29.4118  -20.5089   19.8613 C   0  0  0  0  0  0
  -29.0416  -19.7884   18.6914 C   0  0  0  0  0  0
  -28.4130  -22.5680   19.1950 C   0  0  0  0  0  0
  -32.6242  -17.0529   18.3305 C   0  0  0  0  0  0
  -30.7951  -19.0546   16.3632 C   0  0  0  0  0  0
  -26.6290  -18.0655   17.6872 C   0  0  0  0  0  0
  -27.8218  -23.9916   19.5397 C   0  0  0  0  0  0
  -29.8383  -15.8305   19.6799 C   0  0  0  0  0  0
  -31.7365  -17.7239   19.4203 C   0  0  0  0  0  0
  -29.8061  -18.0039   16.9650 C   0  0  0  0  0  0
  -27.8304  -17.5160   18.5052 C   0  0  0  0  0  0
  -28.7483  -25.1902   20.0072 C   0  0  0  0  0  0
  -30.2082  -17.3970   19.4900 C   0  0  1  0  0  0
  -29.2592  -18.2193   18.4334 C   0  0  0  0  0  0
  -29.1085  -21.8310   20.1100 N   0  0  0  0  0  0
  -31.4812  -12.4470   19.0822 H   0  0  0  0  0  0
  -30.3788  -11.3478   19.8799 H   0  0  0  0  0  0
  -29.6729  -11.5764   17.5302 H   0  0  0  0  0  0
  -29.7003  -13.3205   17.6190 H   0  0  0  0  0  0
  -27.7332  -11.3514   18.7607 H   0  0  0  0  0  0
  -27.4034  -12.7472   17.7706 H   0  0  0  0  0  0
  -27.6485  -14.2627   19.4952 H   0  0  0  0  0  0
  -28.7760  -12.1456   21.4005 H   0  0  0  0  0  0
  -28.5730  -13.8397   21.7691 H   0  0  0  0  0  0
  -25.3009   -9.5512   22.4882 H   0  0  0  0  0  0
  -24.0095   -7.4611   22.7483 H   0  0  0  0  0  0
  -21.1080   -8.9067   19.8963 H   0  0  0  0  0  0
  -22.4194  -10.9855   19.6271 H   0  0  0  0  0  0
  -21.2075   -7.6189   23.9724 H   0  0  0  0  0  0
  -21.1430   -6.0559   25.9068 H   0  0  0  0  0  0
  -22.0637   -2.7643   23.2797 H   0  0  0  0  0  0
  -22.4377  -11.9857   22.4675 H   0  0  0  0  0  0
  -21.1355  -13.1219   22.2460 H   0  0  0  0  0  0
  -24.6507  -15.8289   20.5155 H   0  0  0  0  0  0
  -26.2837  -15.6486   20.0882 H   0  0  0  0  0  0
  -26.7198  -32.5450   23.1126 H   0  0  0  0  0  0
  -25.0105  -33.9748   25.0476 H   0  0  0  0  0  0
  -22.6957  -31.3066   21.4227 H   0  0  0  0  0  0
  -23.3768  -35.9564   23.3310 H   0  0  0  0  0  0
  -24.3573  -36.8911   22.2073 H   0  0  0  0  0  0
  -23.7168  -37.6445   23.6688 H   0  0  0  0  0  0
  -26.0845  -31.5647   20.6069 H   0  0  0  0  0  0
  -26.8270  -30.8412   21.9981 H   0  0  0  0  0  0
  -28.1090  -29.0411   21.0846 H   0  0  0  0  0  0
  -26.0005  -25.9374   18.9699 H   0  0  0  0  0  0
  -23.9547  -27.2943   19.0202 H   0  0  0  0  0  0
  -23.6928  -30.5865   19.4149 H   0  0  0  0  0  0
  -22.7203  -29.2371   19.8936 H   0  0  0  0  0  0
  -25.1280  -36.1977   25.0865 H   0  0  0  0  0  0
  -20.9989  -28.3010   24.1494 H   0  0  0  0  0  0
  -20.5581  -26.2144   23.3628 H   0  0  0  0  0  0
  -21.6602  -26.7221   22.1305 H   0  0  0  0  0  0
  -19.6849  -25.6209   21.1236 H   0  0  0  0  0  0
  -19.6634  -27.3136   20.6805 H   0  0  0  0  0  0
  -17.4199  -26.6714   21.3979 H   0  0  0  0  0  0
  -18.0166  -25.9875   22.8922 H   0  0  0  0  0  0
  -19.7907  -30.7180   24.2310 H   0  0  0  0  0  0
  -17.4949  -31.6217   24.5060 H   0  0  0  0  0  0
  -15.5326  -30.2858   23.7540 H   0  0  0  0  0  0
  -15.8685  -28.0592   22.7188 H   0  0  0  0  0  0
  -24.5850  -30.7129   25.7738 H   0  0  0  0  0  0
  -24.8883  -32.2880   26.4902 H   0  0  0  0  0  0
  -25.7971  -30.8857   27.0219 H   0  0  0  0  0  0
  -26.3005  -29.6799   24.1164 H   0  0  0  0  0  0
  -27.4143  -29.7361   25.4664 H   0  0  0  0  0  0
  -27.8824  -30.4470   23.9399 H   0  0  0  0  0  0
  -27.2707  -33.3616   26.2139 H   0  0  0  0  0  0
  -28.3858  -32.6895   25.0361 H   0  0  0  0  0  0
  -28.0742  -31.8424   26.5410 H   0  0  0  0  0  0
  -28.2610  -38.0080   24.7528 H   0  0  0  0  0  0
  -28.1063  -36.2620   24.6291 H   0  0  0  0  0  0
  -27.2318  -37.1458   25.8885 H   0  0  0  0  0  0
  -20.9330  -29.8709   21.7088 H   0  0  0  0  0  0
  -26.0187  -38.2893   24.1340 H   0  0  0  0  0  0
  -28.0683  -20.1821   16.7757 H   0  0  0  0  0  0
  -27.3932  -22.4765   17.2942 H   0  0  0  0  0  0
  -29.9510  -20.0081   20.6530 H   0  0  0  0  0  0
  -32.4679  -17.4544   17.3347 H   0  0  0  0  0  0
  -32.4649  -15.9749   18.2508 H   0  0  0  0  0  0
  -33.6875  -17.2229   18.5428 H   0  0  0  0  0  0
  -31.6175  -18.5923   15.8147 H   0  0  0  0  0  0
  -31.2372  -19.7038   17.1211 H   0  0  0  0  0  0
  -30.3210  -19.6953   15.6163 H   0  0  0  0  0  0
  -25.7711  -17.4003   17.8168 H   0  0  0  0  0  0
  -26.8176  -18.0813   16.6130 H   0  0  0  0  0  0
  -26.2976  -19.0575   18.0004 H   0  0  0  0  0  0
  -27.0495  -23.8320   20.2908 H   0  0  0  0  0  0
  -27.2938  -24.3092   18.6437 H   0  0  0  0  0  0
  -29.6657  -15.4529   18.6711 H   0  0  0  0  0  0
  -28.9050  -15.8084   20.2364 H   0  0  0  0  0  0
  -31.8657  -18.8063   19.3731 H   0  0  0  0  0  0
  -32.1467  -17.4303   20.3860 H   0  0  0  0  0  0
  -30.2077  -16.9910   16.8654 H   0  0  0  0  0  0
  -28.9749  -17.9852   16.2643 H   0  0  0  0  0  0
  -27.8867  -16.4759   18.1864 H   0  0  0  0  0  0
  -27.4979  -17.4534   19.5470 H   0  0  0  0  0  0
  -29.6569  -25.1317   19.4056 H   0  0  0  0  0  0
  -29.0789  -24.9495   21.0190 H   0  0  0  0  0  0
  -29.9174  -17.8083   20.4606 H   0  0  0  0  0  0
  1 25  1  0  0  0
  1 30  2  0  0  0
  1 80  1  0  0  0
  2  3  1  0  0  0
  2 25  1  0  0  0
  2 88  1  0  0  0
  2 89  1  0  0  0
  3  4  1  0  0  0
  3 90  1  0  0  0
  3 91  1  0  0  0
  4  5  1  0  0  0
  4 92  1  0  0  0
  4 93  1  0  0  0
  5  6  1  0  0  0
  5 26  1  0  0  0
  5 94  1  0  0  0
  6 25  1  0  0  0
  6 95  1  0  0  0
  6 96  1  0  0  0
  7  8  2  0  0  0
  7 26  1  0  0  0
  7 29  1  0  0  0
  8  9  1  0  0  0
  8 22  1  0  0  0
  9 10  1  0  0  0
  9 27  2  0  0  0
 10 11  2  0  0  0
 10 15  1  0  0  0
 11 12  1  0  0  0
 11 97  1  0  0  0
 12 13  2  0  0  0
 12 98  1  0  0  0
 13 14  1  0  0  0
 13 31  1  0  0  0
 14 15  2  0  0  0
 14 99  1  0  0  0
 15100  1  0  0  0
 16 17  2  0  0  0
 16 21  1  0  0  0
 16 31  1  0  0  0
 17 18  1  0  0  0
 17101  1  0  0  0
 18 19  2  0  0  0
 18102  1  0  0  0
 19 20  1  0  0  0
 19 24  1  0  0  0
 20 21  2  0  0  0
 20103  1  0  0  0
 21 23  1  0  0  0
 22 28  1  0  0  0
 22 32  2  0  0  0
 26 27  1  0  0  0
 28104  1  0  0  0
 28105  1  0  0  0
 29106  1  0  0  0
 29107  1  0  0  0
 33 34  1  0  0  0
 33 66  1  0  0  0
 33 70  2  0  0  0
 34 36  1  0  0  0
 34 59  1  0  0  0
 34108  1  0  0  0
 35 44  2  0  0  0
 35 45  1  0  0  0
 35 68  1  0  0  0
 36 56  1  0  0  0
 36109  1  0  0  0
 37 39  1  0  0  0
 37 47  1  0  0  0
 37 66  1  0  0  0
 37110  1  0  0  0
 38 43  2  0  0  0
 38 46  1  0  0  0
 38 47  1  0  0  0
 39 64  1  0  0  0
 39 67  2  0  0  0
 40 52  1  0  0  0
 40 53  2  0  0  0
 40 58  1  0  0  0
 41111  1  0  0  0
 41112  1  0  0  0
 41113  1  0  0  0
 41 48  1  0  0  0
 42 43  1  0  0  0
 42 66  1  0  0  0
 42114  1  0  0  0
 42115  1  0  0  0
 43 44  1  0  0  0
 44116  1  0  0  0
 45 46  2  0  0  0
 45117  1  0  0  0
 46118  1  0  0  0
 47119  1  0  0  0
 47120  1  0  0  0
 48 56  1  0  0  0
 48 65  1  0  0  0
 48121  1  0  0  0
 49 50  1  0  0  0
 49 53  1  0  0  0
 49 64  1  0  0  0
 49122  1  0  0  0
 50 51  1  0  0  0
 50123  1  0  0  0
 50124  1  0  0  0
 51 52  1  0  0  0
 51125  1  0  0  0
 51126  1  0  0  0
 52127  1  0  0  0
 52128  1  0  0  0
 53 54  1  0  0  0
 54 55  2  0  0  0
 54129  1  0  0  0
 55 57  1  0  0  0
 55130  1  0  0  0
 56 69  2  0  0  0
 57 58  2  0  0  0
 57131  1  0  0  0
 58132  1  0  0  0
 59 60  1  0  0  0
 59 61  1  0  0  0
 59 62  1  0  0  0
 60133  1  0  0  0
 60134  1  0  0  0
 60135  1  0  0  0
 61136  1  0  0  0
 61137  1  0  0  0
 61138  1  0  0  0
 62139  1  0  0  0
 62140  1  0  0  0
 62141  1  0  0  0
 63 65  1  0  0  0
 63142  1  0  0  0
 63143  1  0  0  0
 63144  1  0  0  0
 64145  1  0  0  0
 65146  1  0  0  0
 68 84  1  0  0  0
 71 72  2  0  0  0
 71 74  1  0  0  0
 71147  1  0  0  0
 72 75  1  0  0  0
 72148  1  0  0  0
 73 74  2  0  0  0
 73 87  1  0  0  0
 73149  1  0  0  0
 74 86  1  0  0  0
 75 79  1  0  0  0
 75 87  2  0  0  0
 76 81  1  0  0  0
 76150  1  0  0  0
 76151  1  0  0  0
 76152  1  0  0  0
 77 82  1  0  0  0
 77153  1  0  0  0
 77154  1  0  0  0
 77155  1  0  0  0
 78 83  1  0  0  0
 78156  1  0  0  0
 78157  1  0  0  0
 78158  1  0  0  0
 79 84  1  0  0  0
 79159  1  0  0  0
 79160  1  0  0  0
 80161  1  0  0  0
 80162  1  0  0  0
 80 85  1  0  0  0
 81 85  1  0  0  0
 81163  1  0  0  0
 81164  1  0  0  0
 82165  1  0  0  0
 82166  1  0  0  0
 82 86  1  0  0  0
 83 86  1  0  0  0
 83167  1  0  0  0
 83168  1  0  0  0
 84169  1  0  0  0
 84170  1  0  0  0
 85 86  1  0  0  0
 85171  1  0  0  0
M  ISO  4   1 100  68 101  80 100  84 101
M  END
> <chiral flag>
0

> <version>
0

> <s_m_source_file>
/data/baiqing/PycharmProjects/Reinvent-master-3.2/result/LINK_invent/BTK/process_docking_weight1_custom_sum_contain_oxygen_bond_distance_aromatic_linkinvent_7_9_3/rearranged_h_0050.sdf

> <i_m_source_file_index>
81

> <r_mmod_Potential_Energy-OPLS-2005>
183.565658569336

> <r_mmod_Stretch_Energy-OPLS-2005>
116.188430786133

> <r_mmod_Bend_Energy-OPLS-2005>
262.267547607422

> <r_mmod_Torsional_Energy-OPLS-2005>
254.929702758789

> <r_mmod_Improper_Torsional_Energy-OPLS-2005>
15.4380474090576

> <r_mmod_Van_der_Waal_Energy-OPLS-2005>
155.720550537109

> <r_mmod_Electrostatic_Energy-OPLS-2005>
-480.036834716797

> <r_mmod_Solvation_Energy-OPLS-2005>
-197.671630859375

> <b_mmod_Minimization_Converged-OPLS-2005>
0

> <r_mmod_RMS_Derivative-OPLS-2005>
10.9413509368896

$$$$
85
                    3D
 Structure written by MMmdl.
160168  0  0  1  0            999 V2000
  -30.6854  -14.5662   20.5614 C   0  0  0  0  0  0
  -30.4221  -12.3616   19.4525 C   0  0  0  0  0  0
  -29.5040  -12.5263   18.2202 C   0  0  0  0  0  0
  -28.0203  -12.3743   18.6143 C   0  0  0  0  0  0
  -27.6542  -13.2112   19.8685 C   0  0  2  0  0  0
  -28.6951  -12.9912   20.9870 C   0  0  0  0  0  0
  -25.2521  -13.8150   20.5634 C   0  0  0  0  0  0
  -24.1803  -13.0418   20.9180 C   0  0  0  0  0  0
  -24.6386  -11.6897   20.8735 C   0  0  0  0  0  0
  -23.9056  -10.4285   21.0399 C   0  0  0  0  0  0
  -24.3610   -9.4204   21.9177 C   0  0  0  0  0  0
  -23.6287   -8.2240   22.0751 C   0  0  0  0  0  0
  -22.4270   -8.0278   21.3540 C   0  0  0  0  0  0
  -21.9902   -9.0254   20.4640 C   0  0  0  0  0  0
  -22.7231  -10.2132   20.3046 C   0  0  0  0  0  0
  -21.6847   -6.0727   22.5286 C   0  0  0  0  0  0
  -21.4013   -6.5633   23.8219 C   0  0  0  0  0  0
  -21.3660   -5.6786   24.9179 C   0  0  0  0  0  0
  -21.6048   -4.3049   24.7228 C   0  0  0  0  0  0
  -21.8814   -3.8141   23.4351 C   0  0  0  0  0  0
  -21.9189   -4.6957   22.3405 C   0  0  0  0  0  0
  -22.7824  -13.5208   21.1846 C   0  0  0  0  0  0
  -22.1651   -4.2145   21.0977 F   0  0  0  0  0  0
  -21.5637   -3.4530   25.7738 F   0  0  0  0  0  0
  -30.0118  -13.3709   20.4570 N   0  0  0  0  0  0
  -26.2971  -12.9342   20.3308 N   0  0  0  0  0  0
  -25.9309  -11.6496   20.5734 N   0  0  0  0  0  0
  -22.0460  -12.8218   22.0418 N   0  0  0  0  0  0
  -25.4152  -15.1864   20.3981 N   0  0  0  0  0  0
  -31.8261  -14.6366   20.0931 O   0  0  0  0  0  0
  -21.6634   -6.8876   21.4249 O   0  0  0  0  0  0
  -22.3510  -14.5509   20.6693 O   0  0  0  0  0  0
  -24.6177  -31.8651   23.2056 C   0  0  0  0  0  0
  -25.9054  -32.4808   23.8366 C   0  0  1  0  0  0
  -27.2328  -27.3990   20.1066 C   0  0  0  0  0  0
  -25.5901  -33.8607   24.2310 N   0  0  0  0  0  0
  -23.4060  -30.4870   21.5481 C   0  0  2  0  0  0
  -24.8520  -28.9426   20.1181 C   0  0  0  0  0  0
  -22.7420  -29.4649   22.4984 C   0  0  0  0  0  0
  -18.0275  -28.1370   22.8498 C   0  0  0  0  0  0
  -24.1487  -36.7310   23.2638 C   0  0  0  0  0  0
  -25.9363  -30.8228   21.3583 C   0  0  0  0  0  0
  -26.0144  -29.4512   20.7107 C   0  0  0  0  0  0
  -27.2087  -28.6902   20.6940 C   0  0  0  0  0  0
  -26.0517  -26.9114   19.5091 C   0  0  0  0  0  0
  -24.8680  -27.6743   19.5121 C   0  0  0  0  0  0
  -23.6156  -29.8137   20.1653 C   0  0  0  0  0  0
  -25.4107  -36.3110   24.0343 C   0  0  1  0  0  0
  -20.5872  -28.3670   23.1316 C   0  0  2  0  0  0
  -20.6772  -26.9406   22.5415 C   0  0  0  0  0  0
  -19.5751  -26.6385   21.5213 C   0  0  0  0  0  0
  -18.1931  -26.7915   22.1627 C   0  0  0  0  0  0
  -19.1527  -28.8830   23.2906 C   0  0  0  0  0  0
  -18.9452  -30.1437   23.8916 C   0  0  0  0  0  0
  -17.6459  -30.6580   24.0565 C   0  0  0  0  0  0
  -25.9036  -34.9473   23.5125 C   0  0  0  0  0  0
  -16.5348  -29.9084   23.6321 C   0  0  0  0  0  0
  -16.7266  -28.6497   23.0347 C   0  0  0  0  0  0
  -26.4475  -31.6582   25.0692 C   0  0  0  0  0  0
  -25.3737  -31.3679   26.1438 C   0  0  0  0  0  0
  -27.0294  -30.3029   24.6040 C   0  0  0  0  0  0
  -27.6060  -32.4281   25.7452 C   0  0  0  0  0  0
  -27.5580  -37.1812   24.8469 C   0  0  0  0  0  0
  -21.4141  -29.3046   22.3730 N   0  0  0  0  0  0
  -26.4293  -37.3795   23.9412 N   0  0  0  0  0  0
  -24.6725  -31.0733   22.0959 N   0  0  0  0  0  0
  -23.4184  -28.8193   23.3034 O   0  0  0  0  0  0
  -28.4031  -26.6595   20.0828 O   0  0  0  0  0  0
  -26.5604  -34.8930   22.4689 O   0  0  0  0  0  0
  -23.5367  -32.1410   23.7447 O   0  0  0  0  0  0
  -29.6739  -19.4699   20.4777 C   0  0  0  0  0  0
  -27.9552  -18.4250   19.6697 C   0  0  0  0  0  0
  -28.6253  -20.3716   20.3402 C   0  0  0  0  0  0
  -31.1823  -16.5690   22.0388 C   0  0  0  0  0  0
  -28.8135  -15.9390   21.9193 C   0  0  0  0  0  0
  -28.5049  -21.8631   20.6662 C   0  0  0  0  0  0
  -28.9331  -22.8366   19.5279 C   0  0  0  0  0  0
  -28.1925  -24.2133   19.3910 C   0  0  0  0  0  0
  -29.9757  -16.9420   19.8620 C   0  0  0  0  0  0
  -28.3710  -25.2752   20.5177 C   0  0  0  0  0  0
  -30.1175  -15.9616   21.0908 C   0  0  0  0  0  0
  -27.5338  -19.6807   19.8150 N   0  0  0  0  0  0
  -29.2299  -18.2125   20.0307 N   0  0  0  0  0  0
  -31.4677  -12.4502   19.1550 H   0  0  0  0  0  0
  -30.3329  -11.3545   19.8638 H   0  0  0  0  0  0
  -29.7653  -11.7952   17.4539 H   0  0  0  0  0  0
  -29.6673  -13.5089   17.7744 H   0  0  0  0  0  0
  -27.8337  -11.3177   18.8072 H   0  0  0  0  0  0
  -27.3782  -12.6492   17.7756 H   0  0  0  0  0  0
  -27.6935  -14.2558   19.5633 H   0  0  0  0  0  0
  -28.7062  -11.9370   21.2670 H   0  0  0  0  0  0
  -28.4258  -13.4838   21.9122 H   0  0  0  0  0  0
  -25.2752   -9.5684   22.4757 H   0  0  0  0  0  0
  -23.9993   -7.4627   22.7474 H   0  0  0  0  0  0
  -21.0829   -8.8776   19.8947 H   0  0  0  0  0  0
  -22.3688  -10.9674   19.6156 H   0  0  0  0  0  0
  -21.2004   -7.6142   23.9718 H   0  0  0  0  0  0
  -21.1485   -6.0515   25.9081 H   0  0  0  0  0  0
  -22.0590   -2.7606   23.2849 H   0  0  0  0  0  0
  -22.4057  -11.9890   22.4841 H   0  0  0  0  0  0
  -21.1078  -13.1256   22.2598 H   0  0  0  0  0  0
  -24.6426  -15.8345   20.5080 H   0  0  0  0  0  0
  -26.2621  -15.6269   20.0683 H   0  0  0  0  0  0
  -26.7116  -32.5521   23.1124 H   0  0  0  0  0  0
  -25.0059  -33.9756   25.0464 H   0  0  0  0  0  0
  -22.6962  -31.3046   21.4060 H   0  0  0  0  0  0
  -23.3750  -35.9641   23.3305 H   0  0  0  0  0  0
  -24.3580  -36.8909   22.2048 H   0  0  0  0  0  0
  -23.7240  -37.6519   23.6641 H   0  0  0  0  0  0
  -26.0420  -31.5828   20.5833 H   0  0  0  0  0  0
  -26.8266  -30.8853   21.9718 H   0  0  0  0  0  0
  -28.1087  -29.0847   21.1447 H   0  0  0  0  0  0
  -26.0393  -25.9477   19.0241 H   0  0  0  0  0  0
  -23.9760  -27.2805   19.0443 H   0  0  0  0  0  0
  -23.7243  -30.5857   19.4028 H   0  0  0  0  0  0
  -22.7383  -29.2333   19.8726 H   0  0  0  0  0  0
  -25.1282  -36.1974   25.0837 H   0  0  0  0  0  0
  -20.9959  -28.3226   24.1438 H   0  0  0  0  0  0
  -20.5675  -26.2272   23.3599 H   0  0  0  0  0  0
  -21.6641  -26.7449   22.1205 H   0  0  0  0  0  0
  -19.6915  -25.6301   21.1227 H   0  0  0  0  0  0
  -19.6685  -27.3209   20.6753 H   0  0  0  0  0  0
  -17.4197  -26.6662   21.4032 H   0  0  0  0  0  0
  -18.0337  -26.0050   22.9015 H   0  0  0  0  0  0
  -19.7929  -30.7247   24.2299 H   0  0  0  0  0  0
  -17.5011  -31.6263   24.5163 H   0  0  0  0  0  0
  -15.5350  -30.2992   23.7631 H   0  0  0  0  0  0
  -15.8665  -28.0821   22.7052 H   0  0  0  0  0  0
  -24.5940  -30.6987   25.7779 H   0  0  0  0  0  0
  -24.8891  -32.2822   26.4871 H   0  0  0  0  0  0
  -25.8097  -30.8874   27.0205 H   0  0  0  0  0  0
  -26.2821  -29.6797   24.1109 H   0  0  0  0  0  0
  -27.4103  -29.7253   25.4473 H   0  0  0  0  0  0
  -27.8638  -30.4359   23.9148 H   0  0  0  0  0  0
  -27.2703  -33.3581   26.2051 H   0  0  0  0  0  0
  -28.3864  -32.6828   25.0266 H   0  0  0  0  0  0
  -28.0729  -31.8376   26.5347 H   0  0  0  0  0  0
  -28.2615  -38.0095   24.7512 H   0  0  0  0  0  0
  -28.1064  -36.2632   24.6302 H   0  0  0  0  0  0
  -27.2299  -37.1463   25.8873 H   0  0  0  0  0  0
  -20.9300  -29.8776   21.6960 H   0  0  0  0  0  0
  -26.0188  -38.2877   24.1401 H   0  0  0  0  0  0
  -30.6848  -19.6244   20.8337 H   0  0  0  0  0  0
  -27.3291  -17.6460   19.2559 H   0  0  0  0  0  0
  -31.3763  -15.9134   22.8887 H   0  0  0  0  0  0
  -32.1352  -16.7411   21.5345 H   0  0  0  0  0  0
  -30.8621  -17.5307   22.4409 H   0  0  0  0  0  0
  -28.5598  -16.9352   22.2854 H   0  0  0  0  0  0
  -27.9555  -15.6109   21.3410 H   0  0  0  0  0  0
  -28.9132  -15.3243   22.8130 H   0  0  0  0  0  0
  -29.0706  -22.0986   21.5686 H   0  0  0  0  0  0
  -27.4683  -22.0788   20.9280 H   0  0  0  0  0  0
  -28.7683  -22.3164   18.5829 H   0  0  0  0  0  0
  -30.0113  -22.9939   19.5772 H   0  0  0  0  0  0
  -27.1305  -24.0254   19.2336 H   0  0  0  0  0  0
  -28.5449  -24.6664   18.4637 H   0  0  0  0  0  0
  -29.4948  -16.4028   19.0437 H   0  0  0  0  0  0
  -30.9644  -17.1944   19.4753 H   0  0  0  0  0  0
  -29.3289  -25.0989   21.0074 H   0  0  0  0  0  0
  -27.6194  -25.1328   21.2961 H   0  0  0  0  0  0
  1 25  1  0  0  0
  1 30  2  0  0  0
  1 81  1  0  0  0
  2  3  1  0  0  0
  2 25  1  0  0  0
  2 84  1  0  0  0
  2 85  1  0  0  0
  3  4  1  0  0  0
  3 86  1  0  0  0
  3 87  1  0  0  0
  4  5  1  0  0  0
  4 88  1  0  0  0
  4 89  1  0  0  0
  5  6  1  0  0  0
  5 26  1  0  0  0
  5 90  1  0  0  0
  6 25  1  0  0  0
  6 91  1  0  0  0
  6 92  1  0  0  0
  7  8  2  0  0  0
  7 26  1  0  0  0
  7 29  1  0  0  0
  8  9  1  0  0  0
  8 22  1  0  0  0
  9 10  1  0  0  0
  9 27  2  0  0  0
 10 11  2  0  0  0
 10 15  1  0  0  0
 11 12  1  0  0  0
 11 93  1  0  0  0
 12 13  2  0  0  0
 12 94  1  0  0  0
 13 14  1  0  0  0
 13 31  1  0  0  0
 14 15  2  0  0  0
 14 95  1  0  0  0
 15 96  1  0  0  0
 16 17  2  0  0  0
 16 21  1  0  0  0
 16 31  1  0  0  0
 17 18  1  0  0  0
 17 97  1  0  0  0
 18 19  2  0  0  0
 18 98  1  0  0  0
 19 20  1  0  0  0
 19 24  1  0  0  0
 20 21  2  0  0  0
 20 99  1  0  0  0
 21 23  1  0  0  0
 22 28  1  0  0  0
 22 32  2  0  0  0
 26 27  1  0  0  0
 28100  1  0  0  0
 28101  1  0  0  0
 29102  1  0  0  0
 29103  1  0  0  0
 33 34  1  0  0  0
 33 66  1  0  0  0
 33 70  2  0  0  0
 34 36  1  0  0  0
 34 59  1  0  0  0
 34104  1  0  0  0
 35 44  2  0  0  0
 35 45  1  0  0  0
 35 68  1  0  0  0
 36 56  1  0  0  0
 36105  1  0  0  0
 37 39  1  0  0  0
 37 47  1  0  0  0
 37 66  1  0  0  0
 37106  1  0  0  0
 38 43  2  0  0  0
 38 46  1  0  0  0
 38 47  1  0  0  0
 39 64  1  0  0  0
 39 67  2  0  0  0
 40 52  1  0  0  0
 40 53  2  0  0  0
 40 58  1  0  0  0
 41107  1  0  0  0
 41108  1  0  0  0
 41109  1  0  0  0
 41 48  1  0  0  0
 42 43  1  0  0  0
 42 66  1  0  0  0
 42110  1  0  0  0
 42111  1  0  0  0
 43 44  1  0  0  0
 44112  1  0  0  0
 45 46  2  0  0  0
 45113  1  0  0  0
 46114  1  0  0  0
 47115  1  0  0  0
 47116  1  0  0  0
 48 56  1  0  0  0
 48 65  1  0  0  0
 48117  1  0  0  0
 49 50  1  0  0  0
 49 53  1  0  0  0
 49 64  1  0  0  0
 49118  1  0  0  0
 50 51  1  0  0  0
 50119  1  0  0  0
 50120  1  0  0  0
 51 52  1  0  0  0
 51121  1  0  0  0
 51122  1  0  0  0
 52123  1  0  0  0
 52124  1  0  0  0
 53 54  1  0  0  0
 54 55  2  0  0  0
 54125  1  0  0  0
 55 57  1  0  0  0
 55126  1  0  0  0
 56 69  2  0  0  0
 57 58  2  0  0  0
 57127  1  0  0  0
 58128  1  0  0  0
 59 60  1  0  0  0
 59 61  1  0  0  0
 59 62  1  0  0  0
 60129  1  0  0  0
 60130  1  0  0  0
 60131  1  0  0  0
 61132  1  0  0  0
 61133  1  0  0  0
 61134  1  0  0  0
 62135  1  0  0  0
 62136  1  0  0  0
 62137  1  0  0  0
 63 65  1  0  0  0
 63138  1  0  0  0
 63139  1  0  0  0
 63140  1  0  0  0
 64141  1  0  0  0
 65142  1  0  0  0
 68 80  1  0  0  0
 71 73  2  0  0  0
 71 83  1  0  0  0
 71143  1  0  0  0
 72 82  2  0  0  0
 72 83  1  0  0  0
 72144  1  0  0  0
 73 76  1  0  0  0
 73 82  1  0  0  0
 74145  1  0  0  0
 74146  1  0  0  0
 74147  1  0  0  0
 74 81  1  0  0  0
 75 81  1  0  0  0
 75148  1  0  0  0
 75149  1  0  0  0
 75150  1  0  0  0
 76 77  1  0  0  0
 76151  1  0  0  0
 76152  1  0  0  0
 77 78  1  0  0  0
 77153  1  0  0  0
 77154  1  0  0  0
 78 80  1  0  0  0
 78155  1  0  0  0
 78156  1  0  0  0
 79 81  1  0  0  0
 79 83  1  0  0  0
 79157  1  0  0  0
 79158  1  0  0  0
 80159  1  0  0  0
 80160  1  0  0  0
M  ISO  4   1 100  68 101  80 101  81 100
M  END
> <chiral flag>
0

> <version>
0

> <s_m_source_file>
/data/baiqing/PycharmProjects/Reinvent-master-3.2/result/LINK_invent/BTK/process_docking_weight1_custom_sum_contain_oxygen_bond_distance_aromatic_linkinvent_7_9_3/rearranged_h_0050.sdf

> <i_m_source_file_index>
82

> <r_mmod_Potential_Energy-OPLS-2005>
55.9242362976074

> <r_mmod_Stretch_Energy-OPLS-2005>
56.3417778015137

> <r_mmod_Bend_Energy-OPLS-2005>
153.764663696289

> <r_mmod_Torsional_Energy-OPLS-2005>
216.350082397461

> <r_mmod_Improper_Torsional_Energy-OPLS-2005>
3.50440144538879

> <r_mmod_Van_der_Waal_Energy-OPLS-2005>
125.405776977539

> <r_mmod_Electrostatic_Energy-OPLS-2005>
-319.726654052734

> <r_mmod_Solvation_Energy-OPLS-2005>
-200.841461181641

> <b_mmod_Minimization_Converged-OPLS-2005>
0

> <r_mmod_RMS_Derivative-OPLS-2005>
1.34061288833618

$$$$
86
                    3D
 Structure written by MMmdl.
148156  0  0  1  0            999 V2000
  -30.3994  -15.3707   20.3980 C   0  0  0  0  0  0
  -30.4421  -12.9076   19.4772 C   0  0  0  0  0  0
  -29.5239  -12.6212   18.2572 C   0  0  0  0  0  0
  -28.0759  -12.3165   18.6885 C   0  0  0  0  0  0
  -27.6118  -13.2573   19.8263 C   0  0  2  0  0  0
  -28.6690  -13.3992   20.9455 C   0  0  0  0  0  0
  -25.2344  -13.8130   20.5735 C   0  0  0  0  0  0
  -24.1701  -13.0336   20.9209 C   0  0  0  0  0  0
  -24.6375  -11.6849   20.8723 C   0  0  0  0  0  0
  -23.9065  -10.4241   21.0344 C   0  0  0  0  0  0
  -24.3621   -9.4183   21.9151 C   0  0  0  0  0  0
  -23.6320   -8.2209   22.0742 C   0  0  0  0  0  0
  -22.4301   -8.0250   21.3529 C   0  0  0  0  0  0
  -21.9922   -9.0194   20.4619 C   0  0  0  0  0  0
  -22.7220  -10.2079   20.3010 C   0  0  0  0  0  0
  -21.6855   -6.0722   22.5279 C   0  0  0  0  0  0
  -21.4017   -6.5633   23.8215 C   0  0  0  0  0  0
  -21.3660   -5.6777   24.9162 C   0  0  0  0  0  0
  -21.6054   -4.3042   24.7205 C   0  0  0  0  0  0
  -21.8829   -3.8137   23.4318 C   0  0  0  0  0  0
  -21.9197   -4.6961   22.3390 C   0  0  0  0  0  0
  -22.7733  -13.5105   21.1855 C   0  0  0  0  0  0
  -22.1662   -4.2148   21.0959 F   0  0  0  0  0  0
  -21.5642   -3.4526   25.7718 F   0  0  0  0  0  0
  -29.8524  -14.0330   20.3120 N   0  0  0  0  0  0
  -26.2822  -12.9404   20.3259 N   0  0  0  0  0  0
  -25.9322  -11.6528   20.5718 N   0  0  0  0  0  0
  -22.0387  -12.8116   22.0425 N   0  0  0  0  0  0
  -25.3920  -15.1830   20.4200 N   0  0  0  0  0  0
  -31.6293  -15.3289   20.2015 O   0  0  0  0  0  0
  -21.6647   -6.8853   21.4245 O   0  0  0  0  0  0
  -22.3406  -14.5414   20.6698 O   0  0  0  0  0  0
  -24.6692  -31.8179   23.1660 C   0  0  0  0  0  0
  -25.9345  -32.4549   23.8168 C   0  0  1  0  0  0
  -27.2474  -26.8984   20.1938 C   0  0  0  0  0  0
  -25.6003  -33.8378   24.2067 N   0  0  0  0  0  0
  -23.4894  -30.4260   21.5159 C   0  0  2  0  0  0
  -24.9430  -28.7956   20.1215 C   0  0  0  0  0  0
  -22.7691  -29.4450   22.4779 C   0  0  0  0  0  0
  -18.0335  -28.1444   22.8455 C   0  0  0  0  0  0
  -24.1491  -36.7193   23.2657 C   0  0  0  0  0  0
  -26.0594  -30.6161   21.3979 C   0  0  0  0  0  0
  -26.1267  -29.2005   20.7485 C   0  0  0  0  0  0
  -27.2736  -28.2788   20.7466 C   0  0  0  0  0  0
  -26.0261  -26.6464   19.5306 C   0  0  0  0  0  0
  -24.9186  -27.5394   19.4902 C   0  0  0  0  0  0
  -23.7304  -29.7293   20.1475 C   0  0  0  0  0  0
  -25.4133  -36.2944   24.0304 C   0  0  1  0  0  0
  -20.5966  -28.3810   23.1156 C   0  0  2  0  0  0
  -20.6812  -26.9489   22.5383 C   0  0  0  0  0  0
  -19.5773  -26.6395   21.5208 C   0  0  0  0  0  0
  -18.1964  -26.7973   22.1622 C   0  0  0  0  0  0
  -19.1600  -28.8948   23.2782 C   0  0  0  0  0  0
  -18.9490  -30.1538   23.8818 C   0  0  0  0  0  0
  -17.6475  -30.6600   24.0576 C   0  0  0  0  0  0
  -25.9104  -34.9327   23.4999 C   0  0  0  0  0  0
  -16.5369  -29.9097   23.6359 C   0  0  0  0  0  0
  -16.7311  -28.6536   23.0348 C   0  0  0  0  0  0
  -26.4596  -31.6513   25.0715 C   0  0  0  0  0  0
  -25.3748  -31.3709   26.1367 C   0  0  0  0  0  0
  -27.0504  -30.2888   24.6480 C   0  0  0  0  0  0
  -27.6105  -32.4347   25.7489 C   0  0  0  0  0  0
  -27.5553  -37.1726   24.8458 C   0  0  0  0  0  0
  -21.4359  -29.3079   22.3497 N   0  0  0  0  0  0
  -26.4248  -37.3705   23.9426 N   0  0  0  0  0  0
  -24.7615  -30.9833   22.0799 N   0  0  0  0  0  0
  -23.4178  -28.8041   23.3093 O   0  0  0  0  0  0
  -28.3068  -25.8321   20.1645 O   0  0  0  0  0  0
  -26.5690  -34.8876   22.4580 O   0  0  0  0  0  0
  -23.5745  -32.1154   23.6718 O   0  0  0  0  0  0
  -29.1169  -19.5466   20.1398 C   0  0  0  0  0  0
  -31.3428  -20.0275   21.3477 C   0  0  0  0  0  0
  -29.4244  -21.0327   20.4166 C   0  0  0  0  0  0
  -29.9628  -18.3012   20.5157 C   0  0  0  0  0  0
  -28.1919  -16.5778   20.6734 C   0  0  0  0  0  0
  -28.8031  -22.6016   19.8566 C   0  0  0  0  0  0
  -28.2953  -24.2085   20.5769 C   0  0  0  0  0  0
  -30.6184  -21.1241   21.0461 N   0  0  0  0  0  0
  -31.0955  -18.7227   21.1189 N   0  0  0  0  0  0
  -29.6365  -16.6952   20.4574 N   0  0  0  0  0  0
  -31.4316  -13.1747   19.1015 H   0  0  0  0  0  0
  -30.5987  -12.0000   20.0636 H   0  0  0  0  0  0
  -29.9240  -11.7986   17.6599 H   0  0  0  0  0  0
  -29.5256  -13.4912   17.5975 H   0  0  0  0  0  0
  -28.0283  -11.2775   19.0160 H   0  0  0  0  0  0
  -27.4027  -12.3984   17.8342 H   0  0  0  0  0  0
  -27.5138  -14.2164   19.3241 H   0  0  0  0  0  0
  -28.9029  -12.4195   21.3671 H   0  0  0  0  0  0
  -28.3041  -13.9667   21.7960 H   0  0  0  0  0  0
  -25.2750   -9.5698   22.4707 H   0  0  0  0  0  0
  -24.0029   -7.4629   22.7497 H   0  0  0  0  0  0
  -21.0829   -8.8678   19.8962 H   0  0  0  0  0  0
  -22.3642  -10.9600   19.6119 H   0  0  0  0  0  0
  -21.2022   -7.6145   23.9712 H   0  0  0  0  0  0
  -21.1476   -6.0495   25.9062 H   0  0  0  0  0  0
  -22.0622   -2.7612   23.2798 H   0  0  0  0  0  0
  -22.4025  -11.9756   22.4770 H   0  0  0  0  0  0
  -21.1031  -13.1178   22.2691 H   0  0  0  0  0  0
  -24.6430  -15.8510   20.5500 H   0  0  0  0  0  0
  -26.2665  -15.6168   20.1626 H   0  0  0  0  0  0
  -26.7467  -32.5088   23.0931 H   0  0  0  0  0  0
  -25.0200  -33.9486   25.0253 H   0  0  0  0  0  0
  -22.8097  -31.2620   21.3362 H   0  0  0  0  0  0
  -23.3776  -35.9499   23.3250 H   0  0  0  0  0  0
  -24.3595  -36.8901   22.2089 H   0  0  0  0  0  0
  -23.7214  -37.6348   23.6752 H   0  0  0  0  0  0
  -26.2424  -31.3526   20.6140 H   0  0  0  0  0  0
  -26.9187  -30.6755   22.0538 H   0  0  0  0  0  0
  -28.1835  -28.6054   21.2277 H   0  0  0  0  0  0
  -25.9127  -25.6941   19.0322 H   0  0  0  0  0  0
  -24.0234  -27.2233   18.9711 H   0  0  0  0  0  0
  -23.8900  -30.4916   19.3845 H   0  0  0  0  0  0
  -22.8387  -29.1821   19.8307 H   0  0  0  0  0  0
  -25.1345  -36.1724   25.0796 H   0  0  0  0  0  0
  -21.0065  -28.3417   24.1270 H   0  0  0  0  0  0
  -20.5734  -26.2448   23.3640 H   0  0  0  0  0  0
  -21.6683  -26.7468   22.1177 H   0  0  0  0  0  0
  -19.6944  -25.6283   21.1295 H   0  0  0  0  0  0
  -19.6703  -27.3181   20.6710 H   0  0  0  0  0  0
  -17.4242  -26.6736   21.4010 H   0  0  0  0  0  0
  -18.0336  -26.0133   22.9029 H   0  0  0  0  0  0
  -19.7958  -30.7402   24.2128 H   0  0  0  0  0  0
  -17.5012  -31.6267   24.5210 H   0  0  0  0  0  0
  -15.5371  -30.2964   23.7710 H   0  0  0  0  0  0
  -15.8720  -28.0828   22.7071 H   0  0  0  0  0  0
  -24.5984  -30.7014   25.7653 H   0  0  0  0  0  0
  -24.8876  -32.2862   26.4718 H   0  0  0  0  0  0
  -25.8005  -30.8908   27.0190 H   0  0  0  0  0  0
  -26.3150  -29.6552   24.1503 H   0  0  0  0  0  0
  -27.4045  -29.7287   25.5151 H   0  0  0  0  0  0
  -27.9105  -30.4095   23.9904 H   0  0  0  0  0  0
  -27.2706  -33.3755   26.1844 H   0  0  0  0  0  0
  -28.3975  -32.6722   25.0318 H   0  0  0  0  0  0
  -28.0713  -31.8612   26.5542 H   0  0  0  0  0  0
  -28.2509  -38.0080   24.7582 H   0  0  0  0  0  0
  -28.1090  -36.2602   24.6173 H   0  0  0  0  0  0
  -27.2277  -37.1254   25.8858 H   0  0  0  0  0  0
  -20.9638  -29.8709   21.6556 H   0  0  0  0  0  0
  -26.0069  -38.2746   24.1471 H   0  0  0  0  0  0
  -28.2016  -19.3537   19.5962 H   0  0  0  0  0  0
  -32.2773  -20.2191   21.8580 H   0  0  0  0  0  0
  -27.7327  -17.5281   20.9480 H   0  0  0  0  0  0
  -27.9329  -15.9519   21.5225 H   0  0  0  0  0  0
  -27.6949  -16.2696   19.7609 H   0  0  0  0  0  0
  -27.9872  -22.3313   19.1910 H   0  0  0  0  0  0
  -29.5860  -22.8892   19.1578 H   0  0  0  0  0  0
  -28.9311  -24.2516   21.4627 H   0  0  0  0  0  0
  -27.3014  -24.0423   20.9937 H   0  0  0  0  0  0
  1 25  1  0  0  0
  1 30  2  0  0  0
  1 80  1  0  0  0
  2  3  1  0  0  0
  2 25  1  0  0  0
  2 81  1  0  0  0
  2 82  1  0  0  0
  3  4  1  0  0  0
  3 83  1  0  0  0
  3 84  1  0  0  0
  4  5  1  0  0  0
  4 85  1  0  0  0
  4 86  1  0  0  0
  5  6  1  0  0  0
  5 26  1  0  0  0
  5 87  1  0  0  0
  6 25  1  0  0  0
  6 88  1  0  0  0
  6 89  1  0  0  0
  7  8  2  0  0  0
  7 26  1  0  0  0
  7 29  1  0  0  0
  8  9  1  0  0  0
  8 22  1  0  0  0
  9 10  1  0  0  0
  9 27  2  0  0  0
 10 11  2  0  0  0
 10 15  1  0  0  0
 11 12  1  0  0  0
 11 90  1  0  0  0
 12 13  2  0  0  0
 12 91  1  0  0  0
 13 14  1  0  0  0
 13 31  1  0  0  0
 14 15  2  0  0  0
 14 92  1  0  0  0
 15 93  1  0  0  0
 16 17  2  0  0  0
 16 21  1  0  0  0
 16 31  1  0  0  0
 17 18  1  0  0  0
 17 94  1  0  0  0
 18 19  2  0  0  0
 18 95  1  0  0  0
 19 20  1  0  0  0
 19 24  1  0  0  0
 20 21  2  0  0  0
 20 96  1  0  0  0
 21 23  1  0  0  0
 22 28  1  0  0  0
 22 32  2  0  0  0
 26 27  1  0  0  0
 28 97  1  0  0  0
 28 98  1  0  0  0
 29 99  1  0  0  0
 29100  1  0  0  0
 33 34  1  0  0  0
 33 66  1  0  0  0
 33 70  2  0  0  0
 34 36  1  0  0  0
 34 59  1  0  0  0
 34101  1  0  0  0
 35 44  2  0  0  0
 35 45  1  0  0  0
 35 68  1  0  0  0
 36 56  1  0  0  0
 36102  1  0  0  0
 37 39  1  0  0  0
 37 47  1  0  0  0
 37 66  1  0  0  0
 37103  1  0  0  0
 38 43  2  0  0  0
 38 46  1  0  0  0
 38 47  1  0  0  0
 39 64  1  0  0  0
 39 67  2  0  0  0
 40 52  1  0  0  0
 40 53  2  0  0  0
 40 58  1  0  0  0
 41104  1  0  0  0
 41105  1  0  0  0
 41106  1  0  0  0
 41 48  1  0  0  0
 42 43  1  0  0  0
 42 66  1  0  0  0
 42107  1  0  0  0
 42108  1  0  0  0
 43 44  1  0  0  0
 44109  1  0  0  0
 45 46  2  0  0  0
 45110  1  0  0  0
 46111  1  0  0  0
 47112  1  0  0  0
 47113  1  0  0  0
 48 56  1  0  0  0
 48 65  1  0  0  0
 48114  1  0  0  0
 49 50  1  0  0  0
 49 53  1  0  0  0
 49 64  1  0  0  0
 49115  1  0  0  0
 50 51  1  0  0  0
 50116  1  0  0  0
 50117  1  0  0  0
 51 52  1  0  0  0
 51118  1  0  0  0
 51119  1  0  0  0
 52120  1  0  0  0
 52121  1  0  0  0
 53 54  1  0  0  0
 54 55  2  0  0  0
 54122  1  0  0  0
 55 57  1  0  0  0
 55123  1  0  0  0
 56 69  2  0  0  0
 57 58  2  0  0  0
 57124  1  0  0  0
 58125  1  0  0  0
 59 60  1  0  0  0
 59 61  1  0  0  0
 59 62  1  0  0  0
 60126  1  0  0  0
 60127  1  0  0  0
 60128  1  0  0  0
 61129  1  0  0  0
 61130  1  0  0  0
 61131  1  0  0  0
 62132  1  0  0  0
 62133  1  0  0  0
 62134  1  0  0  0
 63 65  1  0  0  0
 63135  1  0  0  0
 63136  1  0  0  0
 63137  1  0  0  0
 64138  1  0  0  0
 65139  1  0  0  0
 68 77  1  0  0  0
 71 73  2  0  0  0
 71 74  1  0  0  0
 71140  1  0  0  0
 72 78  2  0  0  0
 72 79  1  0  0  0
 72141  1  0  0  0
 73 76  1  0  0  0
 73 78  1  0  0  0
 74 79  2  0  0  0
 74 80  1  0  0  0
 75 80  1  0  0  0
 75142  1  0  0  0
 75143  1  0  0  0
 75144  1  0  0  0
 76 77  1  0  0  0
 76145  1  0  0  0
 76146  1  0  0  0
 77147  1  0  0  0
 77148  1  0  0  0
M  ISO  4   1 100  68 101  77 101  80 100
M  END
> <chiral flag>
0

> <version>
0

> <s_m_source_file>
/data/baiqing/PycharmProjects/Reinvent-master-3.2/result/LINK_invent/BTK/process_docking_weight1_custom_sum_contain_oxygen_bond_distance_aromatic_linkinvent_7_9_3/rearranged_h_0050.sdf

> <i_m_source_file_index>
83

> <r_mmod_Potential_Energy-OPLS-2005>
1257.07983398438

> <r_mmod_Stretch_Energy-OPLS-2005>
676.999938964844

> <r_mmod_Bend_Energy-OPLS-2005>
501.3740234375

> <r_mmod_Torsional_Energy-OPLS-2005>
280.075775146484

> <r_mmod_Improper_Torsional_Energy-OPLS-2005>
7.24889516830444

> <r_mmod_Van_der_Waal_Energy-OPLS-2005>
149.767959594727

> <r_mmod_Electrostatic_Energy-OPLS-2005>
-639.468200683594

> <r_mmod_Solvation_Energy-OPLS-2005>
-232.186584472656

> <b_mmod_Minimization_Converged-OPLS-2005>
0

> <r_mmod_RMS_Derivative-OPLS-2005>
4.57447957992554

$$$$
87
                    3D
 Structure written by MMmdl.
163171  0  0  1  0            999 V2000
  -30.9340  -14.5081   20.2496 C   0  0  0  0  0  0
  -30.4341  -12.3306   19.3195 C   0  0  0  0  0  0
  -29.4135  -12.4125   18.1609 C   0  0  0  0  0  0
  -28.0104  -12.1768   18.7438 C   0  0  0  0  0  0
  -27.6689  -13.1903   19.8680 C   0  0  2  0  0  0
  -28.8163  -13.1868   20.9276 C   0  0  0  0  0  0
  -25.2707  -13.8159   20.6115 C   0  0  0  0  0  0
  -24.1929  -13.0499   20.9301 C   0  0  0  0  0  0
  -24.6521  -11.6943   20.9004 C   0  0  0  0  0  0
  -23.9173  -10.4379   21.0607 C   0  0  0  0  0  0
  -24.3638   -9.4196   21.9352 C   0  0  0  0  0  0
  -23.6306   -8.2238   22.0792 C   0  0  0  0  0  0
  -22.4245   -8.0329   21.3625 C   0  0  0  0  0  0
  -22.0082   -9.0328   20.4652 C   0  0  0  0  0  0
  -22.7389  -10.2206   20.3189 C   0  0  0  0  0  0
  -21.6752   -6.0791   22.5318 C   0  0  0  0  0  0
  -21.3917   -6.5689   23.8248 C   0  0  0  0  0  0
  -21.3635   -5.6791   24.9199 C   0  0  0  0  0  0
  -21.6036   -4.3084   24.7190 C   0  0  0  0  0  0
  -21.8761   -3.8217   23.4293 C   0  0  0  0  0  0
  -21.9114   -4.7084   22.3368 C   0  0  0  0  0  0
  -22.7854  -13.5236   21.1800 C   0  0  0  0  0  0
  -22.1696   -4.2311   21.0952 F   0  0  0  0  0  0
  -21.5676   -3.4507   25.7682 F   0  0  0  0  0  0
  -30.0830  -13.4395   20.2043 N   0  0  0  0  0  0
  -26.3247  -12.9353   20.3897 N   0  0  0  0  0  0
  -25.9496  -11.6517   20.6354 N   0  0  0  0  0  0
  -22.0335  -12.8356   22.0266 N   0  0  0  0  0  0
  -25.4458  -15.1947   20.4683 N   0  0  0  0  0  0
  -32.0692  -14.3939   20.6776 O   0  0  0  0  0  0
  -21.6603   -6.8931   21.4253 O   0  0  0  0  0  0
  -22.3527  -14.5500   20.6529 O   0  0  0  0  0  0
  -24.6272  -31.8643   23.1997 C   0  0  0  0  0  0
  -25.9117  -32.4804   23.8348 C   0  0  1  0  0  0
  -27.2253  -27.3827   20.0991 C   0  0  0  0  0  0
  -25.5974  -33.8618   24.2305 N   0  0  0  0  0  0
  -23.4171  -30.4830   21.5430 C   0  0  2  0  0  0
  -24.8587  -28.9399   20.1123 C   0  0  0  0  0  0
  -22.7485  -29.4604   22.4930 C   0  0  0  0  0  0
  -18.0288  -28.1408   22.8501 C   0  0  0  0  0  0
  -24.1470  -36.7269   23.2621 C   0  0  0  0  0  0
  -25.9477  -30.8137   21.3559 C   0  0  0  0  0  0
  -26.0197  -29.4405   20.7105 C   0  0  0  0  0  0
  -27.2145  -28.6727   20.6912 C   0  0  0  0  0  0
  -26.0460  -26.9097   19.4900 C   0  0  0  0  0  0
  -24.8631  -27.6765   19.4973 C   0  0  0  0  0  0
  -23.6256  -29.8145   20.1585 C   0  0  0  0  0  0
  -25.4094  -36.3098   24.0317 C   0  0  1  0  0  0
  -20.5891  -28.3671   23.1294 C   0  0  2  0  0  0
  -20.6750  -26.9399   22.5406 C   0  0  0  0  0  0
  -19.5717  -26.6385   21.5201 C   0  0  0  0  0  0
  -18.1906  -26.7958   22.1632 C   0  0  0  0  0  0
  -19.1560  -28.8858   23.2893 C   0  0  0  0  0  0
  -18.9470  -30.1454   23.8902 C   0  0  0  0  0  0
  -17.6472  -30.6594   24.0577 C   0  0  0  0  0  0
  -25.9061  -34.9455   23.5096 C   0  0  0  0  0  0
  -16.5355  -29.9100   23.6337 C   0  0  0  0  0  0
  -16.7273  -28.6536   23.0329 C   0  0  0  0  0  0
  -26.4503  -31.6600   25.0714 C   0  0  0  0  0  0
  -25.3742  -31.3732   26.1446 C   0  0  0  0  0  0
  -27.0309  -30.3024   24.6099 C   0  0  0  0  0  0
  -27.6116  -32.4264   25.7521 C   0  0  0  0  0  0
  -27.5557  -37.1789   24.8470 C   0  0  0  0  0  0
  -21.4201  -29.3048   22.3720 N   0  0  0  0  0  0
  -26.4258  -37.3792   23.9451 N   0  0  0  0  0  0
  -24.6818  -31.0721   22.0910 N   0  0  0  0  0  0
  -23.4219  -28.8132   23.2970 O   0  0  0  0  0  0
  -28.3584  -26.5840   20.0951 O   0  0  0  0  0  0
  -26.5589  -34.8941   22.4641 O   0  0  0  0  0  0
  -23.5432  -32.1370   23.7365 O   0  0  0  0  0  0
  -29.4187  -20.1449   20.5730 C   0  0  0  0  0  0
  -29.1642  -21.3289   19.9600 C   0  0  0  0  0  0
  -29.4123  -21.0961   18.5347 C   0  0  0  0  0  0
  -31.5937  -16.0258   16.7903 C   0  0  0  0  0  0
  -30.1732  -19.1627   17.1590 C   0  0  0  0  0  0
  -28.7129  -22.6743   20.6261 C   0  0  0  0  0  0
  -28.6064  -24.0224   19.8124 C   0  0  0  0  0  0
  -29.6277  -17.7036   19.7146 C   0  0  0  0  0  0
  -31.8258  -15.3154   18.1531 C   0  0  0  0  0  0
  -30.9393  -16.8745   19.8105 C   0  0  0  0  0  0
  -28.2200  -25.2674   20.6991 C   0  0  0  0  0  0
  -29.8258  -19.1789   19.6678 N   0  0  0  0  0  0
  -29.7488  -19.7950   18.4072 N   0  0  0  0  0  0
  -30.8252  -15.4788   19.2789 N   0  0  0  0  0  0
  -29.3695  -21.8996   17.6026 O   0  0  0  0  0  0
  -31.4680  -12.4087   18.9737 H   0  0  0  0  0  0
  -30.3778  -11.3739   19.8474 H   0  0  0  0  0  0
  -29.6514  -11.7154   17.3553 H   0  0  0  0  0  0
  -29.3963  -13.3918   17.6895 H   0  0  0  0  0  0
  -28.0430  -11.1752   19.1838 H   0  0  0  0  0  0
  -27.2141  -12.1489   17.9992 H   0  0  0  0  0  0
  -27.6382  -14.1668   19.3926 H   0  0  0  0  0  0
  -28.8919  -12.1991   21.3841 H   0  0  0  0  0  0
  -28.6852  -13.8702   21.7696 H   0  0  0  0  0  0
  -25.2712   -9.5634   22.5047 H   0  0  0  0  0  0
  -23.9953   -7.4565   22.7434 H   0  0  0  0  0  0
  -21.1131   -8.8771   19.8877 H   0  0  0  0  0  0
  -22.3905  -10.9768   19.6322 H   0  0  0  0  0  0
  -21.1934   -7.6193   23.9799 H   0  0  0  0  0  0
  -21.1548   -6.0578   25.9107 H   0  0  0  0  0  0
  -22.0596   -2.7718   23.2720 H   0  0  0  0  0  0
  -22.3872  -11.9849   22.4359 H   0  0  0  0  0  0
  -21.0981  -13.1502   22.2463 H   0  0  0  0  0  0
  -24.6718  -15.8428   20.5946 H   0  0  0  0  0  0
  -26.3263  -15.6302   20.2303 H   0  0  0  0  0  0
  -26.7228  -32.5492   23.1153 H   0  0  0  0  0  0
  -25.0264  -33.9759   25.0546 H   0  0  0  0  0  0
  -22.7094  -31.2990   21.3968 H   0  0  0  0  0  0
  -23.3758  -35.9578   23.3288 H   0  0  0  0  0  0
  -24.3550  -36.8873   22.2033 H   0  0  0  0  0  0
  -23.7156  -37.6451   23.6624 H   0  0  0  0  0  0
  -26.0544  -31.5701   20.5792 H   0  0  0  0  0  0
  -26.8377  -30.8787   21.9685 H   0  0  0  0  0  0
  -28.1134  -29.0519   21.1506 H   0  0  0  0  0  0
  -26.0369  -25.9398   19.0145 H   0  0  0  0  0  0
  -23.9727  -27.2880   19.0201 H   0  0  0  0  0  0
  -23.7543  -30.5841   19.3989 H   0  0  0  0  0  0
  -22.7494  -29.2415   19.8550 H   0  0  0  0  0  0
  -25.1272  -36.1948   25.0796 H   0  0  0  0  0  0
  -20.9970  -28.3210   24.1406 H   0  0  0  0  0  0
  -20.5595  -26.2295   23.3598 H   0  0  0  0  0  0
  -21.6622  -26.7387   22.1226 H   0  0  0  0  0  0
  -19.6866  -25.6286   21.1222 H   0  0  0  0  0  0
  -19.6655  -27.3206   20.6734 H   0  0  0  0  0  0
  -17.4166  -26.6690   21.4032 H   0  0  0  0  0  0
  -18.0323  -26.0092   22.9032 H   0  0  0  0  0  0
  -19.7921  -30.7284   24.2259 H   0  0  0  0  0  0
  -17.5007  -31.6267   24.5189 H   0  0  0  0  0  0
  -15.5347  -30.3009   23.7630 H   0  0  0  0  0  0
  -15.8668  -28.0846   22.7018 H   0  0  0  0  0  0
  -24.5969  -30.7008   25.7787 H   0  0  0  0  0  0
  -24.8867  -32.2898   26.4808 H   0  0  0  0  0  0
  -25.8085  -30.8996   27.0264 H   0  0  0  0  0  0
  -26.2863  -29.6849   24.1053 H   0  0  0  0  0  0
  -27.3959  -29.7204   25.4575 H   0  0  0  0  0  0
  -27.8776  -30.4337   23.9339 H   0  0  0  0  0  0
  -27.2816  -33.3601   26.2101 H   0  0  0  0  0  0
  -28.4006  -32.6725   25.0393 H   0  0  0  0  0  0
  -28.0707  -31.8340   26.5454 H   0  0  0  0  0  0
  -28.2598  -38.0071   24.7589 H   0  0  0  0  0  0
  -28.1041  -36.2626   24.6255 H   0  0  0  0  0  0
  -27.2305  -37.1395   25.8872 H   0  0  0  0  0  0
  -20.9356  -29.8866   21.7034 H   0  0  0  0  0  0
  -26.0146  -38.2863   24.1508 H   0  0  0  0  0  0
  -29.3504  -19.8832   21.6196 H   0  0  0  0  0  0
  -32.3707  -15.7710   16.0685 H   0  0  0  0  0  0
  -31.7600  -17.0960   16.8545 H   0  0  0  0  0  0
  -30.6539  -15.7729   16.2982 H   0  0  0  0  0  0
  -30.1699  -18.0946   17.2463 H   0  0  0  0  0  0
  -31.1696  -19.4978   16.8531 H   0  0  0  0  0  0
  -29.4631  -19.3502   16.3545 H   0  0  0  0  0  0
  -29.3924  -22.8583   21.4586 H   0  0  0  0  0  0
  -27.7533  -22.5023   21.1090 H   0  0  0  0  0  0
  -27.8844  -23.9152   18.9981 H   0  0  0  0  0  0
  -29.5705  -24.2399   19.3546 H   0  0  0  0  0  0
  -28.9951  -17.4137   20.5611 H   0  0  0  0  0  0
  -29.0819  -17.3939   18.8255 H   0  0  0  0  0  0
  -32.7946  -15.6590   18.5215 H   0  0  0  0  0  0
  -32.0016  -14.2661   17.9155 H   0  0  0  0  0  0
  -31.2614  -16.8602   20.8575 H   0  0  0  0  0  0
  -31.7529  -17.4185   19.3251 H   0  0  0  0  0  0
  -28.8934  -25.2925   21.5599 H   0  0  0  0  0  0
  -27.2239  -25.1221   21.1335 H   0  0  0  0  0  0
  1 25  1  0  0  0
  1 30  2  0  0  0
  1 84  1  0  0  0
  2  3  1  0  0  0
  2 25  1  0  0  0
  2 86  1  0  0  0
  2 87  1  0  0  0
  3  4  1  0  0  0
  3 88  1  0  0  0
  3 89  1  0  0  0
  4  5  1  0  0  0
  4 90  1  0  0  0
  4 91  1  0  0  0
  5  6  1  0  0  0
  5 26  1  0  0  0
  5 92  1  0  0  0
  6 25  1  0  0  0
  6 93  1  0  0  0
  6 94  1  0  0  0
  7  8  2  0  0  0
  7 26  1  0  0  0
  7 29  1  0  0  0
  8  9  1  0  0  0
  8 22  1  0  0  0
  9 10  1  0  0  0
  9 27  2  0  0  0
 10 11  2  0  0  0
 10 15  1  0  0  0
 11 12  1  0  0  0
 11 95  1  0  0  0
 12 13  2  0  0  0
 12 96  1  0  0  0
 13 14  1  0  0  0
 13 31  1  0  0  0
 14 15  2  0  0  0
 14 97  1  0  0  0
 15 98  1  0  0  0
 16 17  2  0  0  0
 16 21  1  0  0  0
 16 31  1  0  0  0
 17 18  1  0  0  0
 17 99  1  0  0  0
 18 19  2  0  0  0
 18100  1  0  0  0
 19 20  1  0  0  0
 19 24  1  0  0  0
 20 21  2  0  0  0
 20101  1  0  0  0
 21 23  1  0  0  0
 22 28  1  0  0  0
 22 32  2  0  0  0
 26 27  1  0  0  0
 28102  1  0  0  0
 28103  1  0  0  0
 29104  1  0  0  0
 29105  1  0  0  0
 33 34  1  0  0  0
 33 66  1  0  0  0
 33 70  2  0  0  0
 34 36  1  0  0  0
 34 59  1  0  0  0
 34106  1  0  0  0
 35 44  2  0  0  0
 35 45  1  0  0  0
 35 68  1  0  0  0
 36 56  1  0  0  0
 36107  1  0  0  0
 37 39  1  0  0  0
 37 47  1  0  0  0
 37 66  1  0  0  0
 37108  1  0  0  0
 38 43  2  0  0  0
 38 46  1  0  0  0
 38 47  1  0  0  0
 39 64  1  0  0  0
 39 67  2  0  0  0
 40 52  1  0  0  0
 40 53  2  0  0  0
 40 58  1  0  0  0
 41109  1  0  0  0
 41110  1  0  0  0
 41111  1  0  0  0
 41 48  1  0  0  0
 42 43  1  0  0  0
 42 66  1  0  0  0
 42112  1  0  0  0
 42113  1  0  0  0
 43 44  1  0  0  0
 44114  1  0  0  0
 45 46  2  0  0  0
 45115  1  0  0  0
 46116  1  0  0  0
 47117  1  0  0  0
 47118  1  0  0  0
 48 56  1  0  0  0
 48 65  1  0  0  0
 48119  1  0  0  0
 49 50  1  0  0  0
 49 53  1  0  0  0
 49 64  1  0  0  0
 49120  1  0  0  0
 50 51  1  0  0  0
 50121  1  0  0  0
 50122  1  0  0  0
 51 52  1  0  0  0
 51123  1  0  0  0
 51124  1  0  0  0
 52125  1  0  0  0
 52126  1  0  0  0
 53 54  1  0  0  0
 54 55  2  0  0  0
 54127  1  0  0  0
 55 57  1  0  0  0
 55128  1  0  0  0
 56 69  2  0  0  0
 57 58  2  0  0  0
 57129  1  0  0  0
 58130  1  0  0  0
 59 60  1  0  0  0
 59 61  1  0  0  0
 59 62  1  0  0  0
 60131  1  0  0  0
 60132  1  0  0  0
 60133  1  0  0  0
 61134  1  0  0  0
 61135  1  0  0  0
 61136  1  0  0  0
 62137  1  0  0  0
 62138  1  0  0  0
 62139  1  0  0  0
 63 65  1  0  0  0
 63140  1  0  0  0
 63141  1  0  0  0
 63142  1  0  0  0
 64143  1  0  0  0
 65144  1  0  0  0
 68 81  1  0  0  0
 71 72  2  0  0  0
 71 82  1  0  0  0
 71145  1  0  0  0
 72 73  1  0  0  0
 72 76  1  0  0  0
 73 83  1  0  0  0
 73 85  2  0  0  0
 74 79  1  0  0  0
 74146  1  0  0  0
 74147  1  0  0  0
 74148  1  0  0  0
 75 83  1  0  0  0
 75149  1  0  0  0
 75150  1  0  0  0
 75151  1  0  0  0
 76 77  1  0  0  0
 76152  1  0  0  0
 76153  1  0  0  0
 77 81  1  0  0  0
 77154  1  0  0  0
 77155  1  0  0  0
 78 80  1  0  0  0
 78 82  1  0  0  0
 78156  1  0  0  0
 78157  1  0  0  0
 79 84  1  0  0  0
 79158  1  0  0  0
 79159  1  0  0  0
 80 84  1  0  0  0
 80160  1  0  0  0
 80161  1  0  0  0
 81162  1  0  0  0
 81163  1  0  0  0
 82 83  1  0  0  0
M  ISO  4   1 100  68 101  81 101  84 100
M  END
> <chiral flag>
0

> <version>
0

> <s_m_source_file>
/data/baiqing/PycharmProjects/Reinvent-master-3.2/result/LINK_invent/BTK/process_docking_weight1_custom_sum_contain_oxygen_bond_distance_aromatic_linkinvent_7_9_3/rearranged_h_0050.sdf

> <i_m_source_file_index>
84

> <r_mmod_Potential_Energy-OPLS-2005>
470.892761230469

> <r_mmod_Stretch_Energy-OPLS-2005>
68.123908996582

> <r_mmod_Bend_Energy-OPLS-2005>
260.444000244141

> <r_mmod_Torsional_Energy-OPLS-2005>
323.235076904297

> <r_mmod_Improper_Torsional_Energy-OPLS-2005>
31.1273460388184

> <r_mmod_Van_der_Waal_Energy-OPLS-2005>
144.095901489258

> <r_mmod_Electrostatic_Energy-OPLS-2005>
-269.902374267578

> <r_mmod_Solvation_Energy-OPLS-2005>
-208.287292480469

> <b_mmod_Minimization_Converged-OPLS-2005>
0

> <r_mmod_RMS_Derivative-OPLS-2005>
16.3925399780273

$$$$
88
                    3D
 Structure written by MMmdl.
169177  0  0  1  0            999 V2000
  -30.7801  -14.3142   20.7954 C   0  0  0  0  0  0
  -30.4258  -12.3200   19.3748 C   0  0  0  0  0  0
  -29.5002  -12.5932   18.1770 C   0  0  0  0  0  0
  -28.0236  -12.4198   18.5854 C   0  0  0  0  0  0
  -27.6674  -13.2086   19.8725 C   0  0  2  0  0  0
  -28.6950  -12.9226   20.9868 C   0  0  0  0  0  0
  -25.2575  -13.8122   20.5583 C   0  0  0  0  0  0
  -24.1853  -13.0389   20.9117 C   0  0  0  0  0  0
  -24.6415  -11.6860   20.8670 C   0  0  0  0  0  0
  -23.9048  -10.4257   21.0354 C   0  0  0  0  0  0
  -24.3622   -9.4184   21.9141 C   0  0  0  0  0  0
  -23.6315   -8.2212   22.0728 C   0  0  0  0  0  0
  -22.4296   -8.0225   21.3525 C   0  0  0  0  0  0
  -21.9912   -9.0176   20.4623 C   0  0  0  0  0  0
  -22.7212  -10.2067   20.3004 C   0  0  0  0  0  0
  -21.6860   -6.0713   22.5282 C   0  0  0  0  0  0
  -21.4006   -6.5628   23.8207 C   0  0  0  0  0  0
  -21.3663   -5.6784   24.9178 C   0  0  0  0  0  0
  -21.6045   -4.3038   24.7231 C   0  0  0  0  0  0
  -21.8809   -3.8116   23.4357 C   0  0  0  0  0  0
  -21.9196   -4.6940   22.3415 C   0  0  0  0  0  0
  -22.7866  -13.5178   21.1817 C   0  0  0  0  0  0
  -22.1662   -4.2127   21.0993 F   0  0  0  0  0  0
  -21.5671   -3.4510   25.7743 F   0  0  0  0  0  0
  -30.0435  -13.2260   20.4708 N   0  0  0  0  0  0
  -26.3040  -12.9316   20.3237 N   0  0  0  0  0  0
  -25.9352  -11.6468   20.5669 N   0  0  0  0  0  0
  -22.0520  -12.8169   22.0393 N   0  0  0  0  0  0
  -25.4191  -15.1858   20.4052 N   0  0  0  0  0  0
  -31.7652  -14.6875   20.1479 O   0  0  0  0  0  0
  -21.6633   -6.8838   21.4243 O   0  0  0  0  0  0
  -22.3523  -14.5491   20.6673 O   0  0  0  0  0  0
  -24.6125  -31.8640   23.2085 C   0  0  0  0  0  0
  -25.9003  -32.4807   23.8362 C   0  0  1  0  0  0
  -27.2251  -27.4704   20.0878 C   0  0  0  0  0  0
  -25.5846  -33.8627   24.2247 N   0  0  0  0  0  0
  -23.3934  -30.4907   21.5490 C   0  0  2  0  0  0
  -24.8349  -28.9650   20.1071 C   0  0  0  0  0  0
  -22.7358  -29.4622   22.4967 C   0  0  0  0  0  0
  -18.0230  -28.1334   22.8504 C   0  0  0  0  0  0
  -24.1468  -36.7381   23.2651 C   0  0  0  0  0  0
  -25.9180  -30.8538   21.3395 C   0  0  0  0  0  0
  -25.9924  -29.4870   20.7031 C   0  0  0  0  0  0
  -27.1932  -28.7515   20.6899 C   0  0  0  0  0  0
  -26.0596  -26.9663   19.4807 C   0  0  0  0  0  0
  -24.8623  -27.7042   19.4925 C   0  0  0  0  0  0
  -23.5901  -29.8214   20.1607 C   0  0  0  0  0  0
  -25.4095  -36.3142   24.0316 C   0  0  1  0  0  0
  -20.5833  -28.3579   23.1379 C   0  0  2  0  0  0
  -20.6750  -26.9333   22.5416 C   0  0  0  0  0  0
  -19.5737  -26.6343   21.5226 C   0  0  0  0  0  0
  -18.1906  -26.7882   22.1629 C   0  0  0  0  0  0
  -19.1482  -28.8782   23.2945 C   0  0  0  0  0  0
  -18.9429  -30.1413   23.8909 C   0  0  0  0  0  0
  -17.6436  -30.6557   24.0569 C   0  0  0  0  0  0
  -25.9021  -34.9486   23.5094 C   0  0  0  0  0  0
  -16.5326  -29.9047   23.6339 C   0  0  0  0  0  0
  -16.7228  -28.6466   23.0362 C   0  0  0  0  0  0
  -26.4393  -31.6631   25.0704 C   0  0  0  0  0  0
  -25.3691  -31.3775   26.1484 C   0  0  0  0  0  0
  -27.0205  -30.3076   24.6062 C   0  0  0  0  0  0
  -27.5934  -32.4385   25.7495 C   0  0  0  0  0  0
  -27.5573  -37.1859   24.8466 C   0  0  0  0  0  0
  -21.4073  -29.2963   22.3784 N   0  0  0  0  0  0
  -26.4290  -37.3828   23.9403 N   0  0  0  0  0  0
  -24.6620  -31.0817   22.0950 N   0  0  0  0  0  0
  -23.4154  -28.8116   23.2957 O   0  0  0  0  0  0
  -28.3563  -26.7018   20.0295 O   0  0  0  0  0  0
  -26.5661  -34.8958   22.4691 O   0  0  0  0  0  0
  -23.5322  -32.1339   23.7493 O   0  0  0  0  0  0
  -31.3927  -18.4446   22.3334 C   0  0  0  0  0  0
  -30.5221  -19.4892   22.1831 C   0  0  0  0  0  0
  -29.3143  -17.6460   22.6127 C   0  0  0  0  0  0
  -30.6318  -17.2622   22.5595 C   0  0  0  0  0  0
  -26.4816  -20.0724   24.3745 C   0  0  0  0  0  0
  -28.8744  -20.6255   24.6814 C   0  0  0  0  0  0
  -31.1828  -15.8643   22.7273 C   0  0  0  0  0  0
  -28.1795  -24.4089   22.3678 C   0  0  0  0  0  0
  -28.4553  -22.9073   22.5476 C   0  0  0  0  0  0
  -29.2891  -25.0586   21.5105 C   0  0  0  0  0  0
  -27.3533  -22.1269   23.2853 C   0  0  0  0  0  0
  -28.0054  -19.8045   22.3620 C   0  0  0  0  0  0
  -29.0914  -26.5588   21.2388 C   0  0  0  0  0  0
  -27.7162  -20.6557   23.6529 C   0  0  0  0  0  0
  -29.2357  -19.0122   22.3841 N   0  0  0  0  0  0
  -30.4321  -14.8691   21.9700 N   0  0  0  0  0  0
  -31.4711  -12.4468   19.0829 H   0  0  0  0  0  0
  -30.3299  -11.2827   19.6952 H   0  0  0  0  0  0
  -29.7465  -11.9522   17.3283 H   0  0  0  0  0  0
  -29.6771  -13.6104   17.8292 H   0  0  0  0  0  0
  -27.8387  -11.3569   18.7310 H   0  0  0  0  0  0
  -27.3728  -12.7304   17.7675 H   0  0  0  0  0  0
  -27.7270  -14.2676   19.6212 H   0  0  0  0  0  0
  -28.6632  -11.8700   21.2738 H   0  0  0  0  0  0
  -28.4130  -13.4760   21.8841 H   0  0  0  0  0  0
  -25.2790   -9.5671   22.4673 H   0  0  0  0  0  0
  -24.0004   -7.4620   22.7471 H   0  0  0  0  0  0
  -21.0814   -8.8652   19.8990 H   0  0  0  0  0  0
  -22.3630  -10.9556   19.6067 H   0  0  0  0  0  0
  -21.1971   -7.6133   23.9702 H   0  0  0  0  0  0
  -21.1529   -6.0524   25.9089 H   0  0  0  0  0  0
  -22.0603   -2.7571   23.2858 H   0  0  0  0  0  0
  -22.4181  -11.9886   22.4842 H   0  0  0  0  0  0
  -21.1083  -13.1101   22.2498 H   0  0  0  0  0  0
  -24.6454  -15.8279   20.5288 H   0  0  0  0  0  0
  -26.2732  -15.6486   20.1175 H   0  0  0  0  0  0
  -26.7074  -32.5457   23.1145 H   0  0  0  0  0  0
  -24.9974  -33.9822   25.0361 H   0  0  0  0  0  0
  -22.6885  -31.3120   21.4145 H   0  0  0  0  0  0
  -23.3707  -35.9734   23.3320 H   0  0  0  0  0  0
  -24.3587  -36.9006   22.2068 H   0  0  0  0  0  0
  -23.7233  -37.6612   23.6647 H   0  0  0  0  0  0
  -26.0081  -31.6130   20.5607 H   0  0  0  0  0  0
  -26.8169  -30.9188   21.9397 H   0  0  0  0  0  0
  -28.0900  -29.1751   21.1172 H   0  0  0  0  0  0
  -26.0743  -25.9988   19.0010 H   0  0  0  0  0  0
  -23.9798  -27.3065   19.0070 H   0  0  0  0  0  0
  -23.6733  -30.5918   19.3900 H   0  0  0  0  0  0
  -22.7180  -29.2267   19.8814 H   0  0  0  0  0  0
  -25.1276  -36.2000   25.0804 H   0  0  0  0  0  0
  -20.9951  -28.3092   24.1498 H   0  0  0  0  0  0
  -20.5692  -26.2159   23.3550 H   0  0  0  0  0  0
  -21.6634  -26.7407   22.1215 H   0  0  0  0  0  0
  -19.6909  -25.6271   21.1222 H   0  0  0  0  0  0
  -19.6706  -27.3207   20.6808 H   0  0  0  0  0  0
  -17.4198  -26.6651   21.3993 H   0  0  0  0  0  0
  -18.0293  -26.0003   22.8995 H   0  0  0  0  0  0
  -19.7914  -30.7247   24.2255 H   0  0  0  0  0  0
  -17.4987  -31.6256   24.5155 H   0  0  0  0  0  0
  -15.5341  -30.2974   23.7647 H   0  0  0  0  0  0
  -15.8617  -28.0800   22.7063 H   0  0  0  0  0  0
  -24.5807  -30.7146   25.7899 H   0  0  0  0  0  0
  -24.8946  -32.2966   26.4948 H   0  0  0  0  0  0
  -25.8076  -30.8963   27.0238 H   0  0  0  0  0  0
  -26.2723  -29.6907   24.1073 H   0  0  0  0  0  0
  -27.4000  -29.7231   25.4476 H   0  0  0  0  0  0
  -27.8514  -30.4476   23.9149 H   0  0  0  0  0  0
  -27.2479  -33.3661   26.2087 H   0  0  0  0  0  0
  -28.3739  -32.7037   25.0344 H   0  0  0  0  0  0
  -28.0587  -31.8504   26.5434 H   0  0  0  0  0  0
  -28.2646  -38.0126   24.7549 H   0  0  0  0  0  0
  -28.1019  -36.2685   24.6209 H   0  0  0  0  0  0
  -27.2341  -37.1460   25.8894 H   0  0  0  0  0  0
  -20.9134  -29.8671   21.7038 H   0  0  0  0  0  0
  -26.0173  -38.2918   24.1350 H   0  0  0  0  0  0
  -32.4698  -18.5249   22.2745 H   0  0  0  0  0  0
  -30.7103  -20.5369   21.9833 H   0  0  0  0  0  0
  -28.4221  -17.0625   22.7976 H   0  0  0  0  0  0
  -26.3101  -20.5569   25.3382 H   0  0  0  0  0  0
  -26.5941  -19.0036   24.5661 H   0  0  0  0  0  0
  -25.5667  -20.2165   23.7975 H   0  0  0  0  0  0
  -28.6434  -21.2514   25.5420 H   0  0  0  0  0  0
  -29.8183  -20.9892   24.2780 H   0  0  0  0  0  0
  -29.0476  -19.6146   25.0535 H   0  0  0  0  0  0
  -31.1274  -15.6098   23.7891 H   0  0  0  0  0  0
  -32.2428  -15.8256   22.4649 H   0  0  0  0  0  0
  -27.1946  -24.5542   21.9203 H   0  0  0  0  0  0
  -28.1403  -24.8974   23.3427 H   0  0  0  0  0  0
  -29.4020  -22.7875   23.0664 H   0  0  0  0  0  0
  -28.5893  -22.4792   21.5561 H   0  0  0  0  0  0
  -29.3788  -24.5242   20.5585 H   0  0  0  0  0  0
  -30.2456  -24.9347   22.0230 H   0  0  0  0  0  0
  -26.4705  -22.1410   22.6446 H   0  0  0  0  0  0
  -27.0682  -22.6681   24.1915 H   0  0  0  0  0  0
  -28.0423  -20.4360   21.4769 H   0  0  0  0  0  0
  -27.1725  -19.1287   22.1603 H   0  0  0  0  0  0
  -30.0567  -27.0520   21.1170 H   0  0  0  0  0  0
  -28.6194  -27.0260   22.1044 H   0  0  0  0  0  0
  -29.6036  -14.4944   22.4136 H   0  0  0  0  0  0
  1 25  1  0  0  0
  1 30  2  0  0  0
  1 86  1  0  0  0
  2  3  1  0  0  0
  2 25  1  0  0  0
  2 87  1  0  0  0
  2 88  1  0  0  0
  3  4  1  0  0  0
  3 89  1  0  0  0
  3 90  1  0  0  0
  4  5  1  0  0  0
  4 91  1  0  0  0
  4 92  1  0  0  0
  5  6  1  0  0  0
  5 26  1  0  0  0
  5 93  1  0  0  0
  6 25  1  0  0  0
  6 94  1  0  0  0
  6 95  1  0  0  0
  7  8  2  0  0  0
  7 26  1  0  0  0
  7 29  1  0  0  0
  8  9  1  0  0  0
  8 22  1  0  0  0
  9 10  1  0  0  0
  9 27  2  0  0  0
 10 11  2  0  0  0
 10 15  1  0  0  0
 11 12  1  0  0  0
 11 96  1  0  0  0
 12 13  2  0  0  0
 12 97  1  0  0  0
 13 14  1  0  0  0
 13 31  1  0  0  0
 14 15  2  0  0  0
 14 98  1  0  0  0
 15 99  1  0  0  0
 16 17  2  0  0  0
 16 21  1  0  0  0
 16 31  1  0  0  0
 17 18  1  0  0  0
 17100  1  0  0  0
 18 19  2  0  0  0
 18101  1  0  0  0
 19 20  1  0  0  0
 19 24  1  0  0  0
 20 21  2  0  0  0
 20102  1  0  0  0
 21 23  1  0  0  0
 22 28  1  0  0  0
 22 32  2  0  0  0
 26 27  1  0  0  0
 28103  1  0  0  0
 28104  1  0  0  0
 29105  1  0  0  0
 29106  1  0  0  0
 33 34  1  0  0  0
 33 66  1  0  0  0
 33 70  2  0  0  0
 34 36  1  0  0  0
 34 59  1  0  0  0
 34107  1  0  0  0
 35 44  2  0  0  0
 35 45  1  0  0  0
 35 68  1  0  0  0
 36 56  1  0  0  0
 36108  1  0  0  0
 37 39  1  0  0  0
 37 47  1  0  0  0
 37 66  1  0  0  0
 37109  1  0  0  0
 38 43  2  0  0  0
 38 46  1  0  0  0
 38 47  1  0  0  0
 39 64  1  0  0  0
 39 67  2  0  0  0
 40 52  1  0  0  0
 40 53  2  0  0  0
 40 58  1  0  0  0
 41110  1  0  0  0
 41111  1  0  0  0
 41112  1  0  0  0
 41 48  1  0  0  0
 42 43  1  0  0  0
 42 66  1  0  0  0
 42113  1  0  0  0
 42114  1  0  0  0
 43 44  1  0  0  0
 44115  1  0  0  0
 45 46  2  0  0  0
 45116  1  0  0  0
 46117  1  0  0  0
 47118  1  0  0  0
 47119  1  0  0  0
 48 56  1  0  0  0
 48 65  1  0  0  0
 48120  1  0  0  0
 49 50  1  0  0  0
 49 53  1  0  0  0
 49 64  1  0  0  0
 49121  1  0  0  0
 50 51  1  0  0  0
 50122  1  0  0  0
 50123  1  0  0  0
 51 52  1  0  0  0
 51124  1  0  0  0
 51125  1  0  0  0
 52126  1  0  0  0
 52127  1  0  0  0
 53 54  1  0  0  0
 54 55  2  0  0  0
 54128  1  0  0  0
 55 57  1  0  0  0
 55129  1  0  0  0
 56 69  2  0  0  0
 57 58  2  0  0  0
 57130  1  0  0  0
 58131  1  0  0  0
 59 60  1  0  0  0
 59 61  1  0  0  0
 59 62  1  0  0  0
 60132  1  0  0  0
 60133  1  0  0  0
 60134  1  0  0  0
 61135  1  0  0  0
 61136  1  0  0  0
 61137  1  0  0  0
 62138  1  0  0  0
 62139  1  0  0  0
 62140  1  0  0  0
 63 65  1  0  0  0
 63141  1  0  0  0
 63142  1  0  0  0
 63143  1  0  0  0
 64144  1  0  0  0
 65145  1  0  0  0
 68 83  1  0  0  0
 71 72  2  0  0  0
 71 74  1  0  0  0
 71146  1  0  0  0
 72 85  1  0  0  0
 72147  1  0  0  0
 73 74  2  0  0  0
 73 85  1  0  0  0
 73148  1  0  0  0
 74 77  1  0  0  0
 75149  1  0  0  0
 75150  1  0  0  0
 75151  1  0  0  0
 75 84  1  0  0  0
 76 84  1  0  0  0
 76152  1  0  0  0
 76153  1  0  0  0
 76154  1  0  0  0
 77 86  1  0  0  0
 77155  1  0  0  0
 77156  1  0  0  0
 78 79  1  0  0  0
 78 80  1  0  0  0
 78157  1  0  0  0
 78158  1  0  0  0
 79 81  1  0  0  0
 79159  1  0  0  0
 79160  1  0  0  0
 80 83  1  0  0  0
 80161  1  0  0  0
 80162  1  0  0  0
 81 84  1  0  0  0
 81163  1  0  0  0
 81164  1  0  0  0
 82 84  1  0  0  0
 82 85  1  0  0  0
 82165  1  0  0  0
 82166  1  0  0  0
 83167  1  0  0  0
 83168  1  0  0  0
 86169  1  0  0  0
M  ISO  4   1 100  68 101  83 101  86 100
M  END
> <chiral flag>
0

> <version>
0

> <s_m_source_file>
/data/baiqing/PycharmProjects/Reinvent-master-3.2/result/LINK_invent/BTK/process_docking_weight1_custom_sum_contain_oxygen_bond_distance_aromatic_linkinvent_7_9_3/rearranged_h_0050.sdf

> <i_m_source_file_index>
85

> <r_mmod_Potential_Energy-OPLS-2005>
-68.8657989501953

> <r_mmod_Stretch_Energy-OPLS-2005>
35.0111198425293

> <r_mmod_Bend_Energy-OPLS-2005>
102.414047241211

> <r_mmod_Torsional_Energy-OPLS-2005>
235.325988769531

> <r_mmod_Improper_Torsional_Energy-OPLS-2005>
2.82814764976501

> <r_mmod_Van_der_Waal_Energy-OPLS-2005>
133.880981445312

> <r_mmod_Electrostatic_Energy-OPLS-2005>
-388.329925537109

> <r_mmod_Solvation_Energy-OPLS-2005>
-200.599456787109

> <b_mmod_Minimization_Converged-OPLS-2005>
0

> <r_mmod_RMS_Derivative-OPLS-2005>
7.26187324523926

$$$$
89
                    3D
 Structure written by MMmdl.
155163  0  0  1  0            999 V2000
  -30.5307  -14.8407   20.4777 C   0  0  0  0  0  0
  -30.4571  -12.5173   19.4776 C   0  0  0  0  0  0
  -29.5246  -12.5360   18.2425 C   0  0  0  0  0  0
  -28.0528  -12.3245   18.6518 C   0  0  0  0  0  0
  -27.6439  -13.2243   19.8460 C   0  0  2  0  0  0
  -28.6891  -13.1641   20.9819 C   0  0  0  0  0  0
  -25.2537  -13.8166   20.5677 C   0  0  0  0  0  0
  -24.1825  -13.0422   20.9201 C   0  0  0  0  0  0
  -24.6405  -11.6892   20.8727 C   0  0  0  0  0  0
  -23.9077  -10.4280   21.0396 C   0  0  0  0  0  0
  -24.3625   -9.4200   21.9178 C   0  0  0  0  0  0
  -23.6299   -8.2242   22.0751 C   0  0  0  0  0  0
  -22.4281   -8.0276   21.3545 C   0  0  0  0  0  0
  -21.9919   -9.0245   20.4644 C   0  0  0  0  0  0
  -22.7247  -10.2124   20.3052 C   0  0  0  0  0  0
  -21.6855   -6.0738   22.5277 C   0  0  0  0  0  0
  -21.4012   -6.5638   23.8211 C   0  0  0  0  0  0
  -21.3667   -5.6791   24.9172 C   0  0  0  0  0  0
  -21.6050   -4.3053   24.7224 C   0  0  0  0  0  0
  -21.8818   -3.8149   23.4343 C   0  0  0  0  0  0
  -21.9195   -4.6967   22.3400 C   0  0  0  0  0  0
  -22.7846  -13.5208   21.1865 C   0  0  0  0  0  0
  -22.1658   -4.2154   21.0977 F   0  0  0  0  0  0
  -21.5644   -3.4535   25.7740 F   0  0  0  0  0  0
  -29.9868  -13.5654   20.4172 N   0  0  0  0  0  0
  -26.2950  -12.9347   20.3233 N   0  0  0  0  0  0
  -25.9330  -11.6499   20.5705 N   0  0  0  0  0  0
  -22.0498  -12.8194   22.0421 N   0  0  0  0  0  0
  -25.4246  -15.1889   20.4093 N   0  0  0  0  0  0
  -31.6993  -14.9930   20.0995 O   0  0  0  0  0  0
  -21.6644   -6.8877   21.4239 O   0  0  0  0  0  0
  -22.3522  -14.5517   20.6716 O   0  0  0  0  0  0
  -24.6359  -31.8516   23.1935 C   0  0  0  0  0  0
  -25.9170  -32.4731   23.8293 C   0  0  1  0  0  0
  -27.2265  -27.2154   20.1282 C   0  0  0  0  0  0
  -25.5957  -33.8535   24.2223 N   0  0  0  0  0  0
  -23.4345  -30.4728   21.5391 C   0  0  2  0  0  0
  -24.8841  -28.9132   20.1095 C   0  0  0  0  0  0
  -22.7522  -29.4585   22.4895 C   0  0  0  0  0  0
  -18.0299  -28.1373   22.8475 C   0  0  0  0  0  0
  -24.1502  -36.7280   23.2637 C   0  0  0  0  0  0
  -25.9852  -30.7494   21.3810 C   0  0  0  0  0  0
  -26.0589  -29.3676   20.7221 C   0  0  0  0  0  0
  -27.2305  -28.5330   20.7190 C   0  0  0  0  0  0
  -26.0262  -26.8485   19.4764 C   0  0  0  0  0  0
  -24.8763  -27.6630   19.4750 C   0  0  0  0  0  0
  -23.6557  -29.8052   20.1566 C   0  0  0  0  0  0
  -25.4128  -36.3055   24.0317 C   0  0  1  0  0  0
  -20.5907  -28.3704   23.1256 C   0  0  2  0  0  0
  -20.6788  -26.9419   22.5404 C   0  0  0  0  0  0
  -19.5761  -26.6370   21.5207 C   0  0  0  0  0  0
  -18.1940  -26.7914   22.1615 C   0  0  0  0  0  0
  -19.1552  -28.8852   23.2860 C   0  0  0  0  0  0
  -18.9472  -30.1451   23.8879 C   0  0  0  0  0  0
  -17.6470  -30.6579   24.0549 C   0  0  0  0  0  0
  -25.9075  -34.9428   23.5076 C   0  0  0  0  0  0
  -16.5361  -29.9070   23.6328 C   0  0  0  0  0  0
  -16.7285  -28.6489   23.0347 C   0  0  0  0  0  0
  -26.4510  -31.6556   25.0695 C   0  0  0  0  0  0
  -25.3713  -31.3722   26.1402 C   0  0  0  0  0  0
  -27.0348  -30.2955   24.6209 C   0  0  0  0  0  0
  -27.6060  -32.4289   25.7485 C   0  0  0  0  0  0
  -27.5585  -37.1796   24.8458 C   0  0  0  0  0  0
  -21.4224  -29.3042   22.3630 N   0  0  0  0  0  0
  -26.4292  -37.3764   23.9408 N   0  0  0  0  0  0
  -24.7046  -31.0434   22.0937 N   0  0  0  0  0  0
  -23.4201  -28.8135   23.3020 O   0  0  0  0  0  0
  -28.3046  -26.2784   20.1975 O   0  0  0  0  0  0
  -26.5646  -34.8914   22.4645 O   0  0  0  0  0  0
  -23.5500  -32.1363   23.7198 O   0  0  0  0  0  0
  -29.2047  -18.6225   21.6781 C   0  0  0  0  0  0
  -29.7367  -17.7184   20.6992 C   0  0  0  0  0  0
  -29.2254  -20.5520   20.2754 C   0  0  0  0  0  0
  -29.8414  -19.6694   19.3043 C   0  0  0  0  0  0
  -31.8062  -20.2808   17.8290 C   0  0  0  0  0  0
  -29.6269  -16.1131   20.9611 C   0  0  0  0  0  0
  -28.5296  -21.9913   19.9531 C   0  0  0  0  0  0
  -30.2791  -20.1712   17.9363 C   0  0  0  0  0  0
  -29.0230  -23.5148   20.3389 C   0  0  0  0  0  0
  -28.0449  -24.7918   19.9596 C   0  0  0  0  0  0
  -28.9492  -19.9677   21.4799 N   0  0  0  0  0  0
  -30.0668  -18.3050   19.5033 N   0  0  0  0  0  0
  -31.4915  -12.6816   19.1724 H   0  0  0  0  0  0
  -30.4407  -11.5377   19.9583 H   0  0  0  0  0  0
  -29.8289  -11.7744   17.5240 H   0  0  0  0  0  0
  -29.6256  -13.4954   17.7323 H   0  0  0  0  0  0
  -27.9309  -11.2741   18.9194 H   0  0  0  0  0  0
  -27.3922  -12.5005   17.8015 H   0  0  0  0  0  0
  -27.6293  -14.2398   19.4528 H   0  0  0  0  0  0
  -28.7466  -12.1584   21.4004 H   0  0  0  0  0  0
  -28.3956  -13.8134   21.8075 H   0  0  0  0  0  0
  -25.2775   -9.5679   22.4740 H   0  0  0  0  0  0
  -24.0017   -7.4637   22.7466 H   0  0  0  0  0  0
  -21.0861   -8.8755   19.8943 H   0  0  0  0  0  0
  -22.3709  -10.9656   19.6158 H   0  0  0  0  0  0
  -21.1989   -7.6142   23.9712 H   0  0  0  0  0  0
  -21.1499   -6.0521   25.9075 H   0  0  0  0  0  0
  -22.0595   -2.7610   23.2841 H   0  0  0  0  0  0
  -22.4123  -11.9852   22.4801 H   0  0  0  0  0  0
  -21.1111  -13.1201   22.2619 H   0  0  0  0  0  0
  -24.6574  -15.8427   20.5197 H   0  0  0  0  0  0
  -26.2677  -15.6279   20.0631 H   0  0  0  0  0  0
  -26.7235  -32.5358   23.1028 H   0  0  0  0  0  0
  -25.0096  -33.9665   25.0362 H   0  0  0  0  0  0
  -22.7333  -31.2964   21.3902 H   0  0  0  0  0  0
  -23.3767  -35.9607   23.3263 H   0  0  0  0  0  0
  -24.3609  -36.8942   22.2062 H   0  0  0  0  0  0
  -23.7252  -37.6465   23.6691 H   0  0  0  0  0  0
  -26.1289  -31.5084   20.6105 H   0  0  0  0  0  0
  -26.8601  -30.7996   22.0176 H   0  0  0  0  0  0
  -28.1264  -28.8777   21.2168 H   0  0  0  0  0  0
  -25.9397  -25.8990   18.9705 H   0  0  0  0  0  0
  -23.9800  -27.3094   18.9840 H   0  0  0  0  0  0
  -23.7835  -30.5819   19.4015 H   0  0  0  0  0  0
  -22.7715  -29.2434   19.8495 H   0  0  0  0  0  0
  -25.1313  -36.1887   25.0809 H   0  0  0  0  0  0
  -21.0000  -28.3289   24.1375 H   0  0  0  0  0  0
  -20.5682  -26.2322   23.3616 H   0  0  0  0  0  0
  -21.6657  -26.7429   22.1202 H   0  0  0  0  0  0
  -19.6933  -25.6274   21.1250 H   0  0  0  0  0  0
  -19.6694  -27.3169   20.6724 H   0  0  0  0  0  0
  -17.4213  -26.6655   21.4014 H   0  0  0  0  0  0
  -18.0344  -26.0050   22.9006 H   0  0  0  0  0  0
  -19.7950  -30.7267   24.2243 H   0  0  0  0  0  0
  -17.5026  -31.6259   24.5145 H   0  0  0  0  0  0
  -15.5365  -30.2964   23.7658 H   0  0  0  0  0  0
  -15.8685  -28.0802   22.7071 H   0  0  0  0  0  0
  -24.5912  -30.7049   25.7723 H   0  0  0  0  0  0
  -24.8875  -32.2892   26.4774 H   0  0  0  0  0  0
  -25.8015  -30.8932   27.0207 H   0  0  0  0  0  0
  -26.2928  -29.6697   24.1236 H   0  0  0  0  0  0
  -27.4005  -29.7233   25.4744 H   0  0  0  0  0  0
  -27.8826  -30.4191   23.9468 H   0  0  0  0  0  0
  -27.2676  -33.3614   26.2017 H   0  0  0  0  0  0
  -28.3910  -32.6801   25.0339 H   0  0  0  0  0  0
  -28.0677  -31.8422   26.5438 H   0  0  0  0  0  0
  -28.2575  -38.0118   24.7529 H   0  0  0  0  0  0
  -28.1107  -36.2649   24.6247 H   0  0  0  0  0  0
  -27.2308  -37.1400   25.8859 H   0  0  0  0  0  0
  -20.9419  -29.8768   21.6827 H   0  0  0  0  0  0
  -26.0158  -38.2834   24.1400 H   0  0  0  0  0  0
  -28.8821  -18.2349   22.6331 H   0  0  0  0  0  0
  -32.1038  -20.6631   16.8523 H   0  0  0  0  0  0
  -32.2819  -19.3089   17.9665 H   0  0  0  0  0  0
  -32.2061  -20.9575   18.5845 H   0  0  0  0  0  0
  -28.6127  -15.8936   20.6364 H   0  0  0  0  0  0
  -29.5894  -16.0062   22.0449 H   0  0  0  0  0  0
  -27.5394  -21.9014   20.4005 H   0  0  0  0  0  0
  -28.3017  -22.0004   18.8893 H   0  0  0  0  0  0
  -29.8450  -21.1406   17.7050 H   0  0  0  0  0  0
  -29.9018  -19.4876   17.1757 H   0  0  0  0  0  0
  -29.9946  -23.6815   19.8739 H   0  0  0  0  0  0
  -29.2037  -23.5450   21.4131 H   0  0  0  0  0  0
  -27.0980  -24.5695   20.4531 H   0  0  0  0  0  0
  -27.8447  -24.7012   18.8914 H   0  0  0  0  0  0
  1 25  1  0  0  0
  1 30  2  0  0  0
  1 76  1  0  0  0
  2  3  1  0  0  0
  2 25  1  0  0  0
  2 83  1  0  0  0
  2 84  1  0  0  0
  3  4  1  0  0  0
  3 85  1  0  0  0
  3 86  1  0  0  0
  4  5  1  0  0  0
  4 87  1  0  0  0
  4 88  1  0  0  0
  5  6  1  0  0  0
  5 26  1  0  0  0
  5 89  1  0  0  0
  6 25  1  0  0  0
  6 90  1  0  0  0
  6 91  1  0  0  0
  7  8  2  0  0  0
  7 26  1  0  0  0
  7 29  1  0  0  0
  8  9  1  0  0  0
  8 22  1  0  0  0
  9 10  1  0  0  0
  9 27  2  0  0  0
 10 11  2  0  0  0
 10 15  1  0  0  0
 11 12  1  0  0  0
 11 92  1  0  0  0
 12 13  2  0  0  0
 12 93  1  0  0  0
 13 14  1  0  0  0
 13 31  1  0  0  0
 14 15  2  0  0  0
 14 94  1  0  0  0
 15 95  1  0  0  0
 16 17  2  0  0  0
 16 21  1  0  0  0
 16 31  1  0  0  0
 17 18  1  0  0  0
 17 96  1  0  0  0
 18 19  2  0  0  0
 18 97  1  0  0  0
 19 20  1  0  0  0
 19 24  1  0  0  0
 20 21  2  0  0  0
 20 98  1  0  0  0
 21 23  1  0  0  0
 22 28  1  0  0  0
 22 32  2  0  0  0
 26 27  1  0  0  0
 28 99  1  0  0  0
 28100  1  0  0  0
 29101  1  0  0  0
 29102  1  0  0  0
 33 34  1  0  0  0
 33 66  1  0  0  0
 33 70  2  0  0  0
 34 36  1  0  0  0
 34 59  1  0  0  0
 34103  1  0  0  0
 35 44  2  0  0  0
 35 45  1  0  0  0
 35 68  1  0  0  0
 36 56  1  0  0  0
 36104  1  0  0  0
 37 39  1  0  0  0
 37 47  1  0  0  0
 37 66  1  0  0  0
 37105  1  0  0  0
 38 43  2  0  0  0
 38 46  1  0  0  0
 38 47  1  0  0  0
 39 64  1  0  0  0
 39 67  2  0  0  0
 40 52  1  0  0  0
 40 53  2  0  0  0
 40 58  1  0  0  0
 41106  1  0  0  0
 41107  1  0  0  0
 41108  1  0  0  0
 41 48  1  0  0  0
 42 43  1  0  0  0
 42 66  1  0  0  0
 42109  1  0  0  0
 42110  1  0  0  0
 43 44  1  0  0  0
 44111  1  0  0  0
 45 46  2  0  0  0
 45112  1  0  0  0
 46113  1  0  0  0
 47114  1  0  0  0
 47115  1  0  0  0
 48 56  1  0  0  0
 48 65  1  0  0  0
 48116  1  0  0  0
 49 50  1  0  0  0
 49 53  1  0  0  0
 49 64  1  0  0  0
 49117  1  0  0  0
 50 51  1  0  0  0
 50118  1  0  0  0
 50119  1  0  0  0
 51 52  1  0  0  0
 51120  1  0  0  0
 51121  1  0  0  0
 52122  1  0  0  0
 52123  1  0  0  0
 53 54  1  0  0  0
 54 55  2  0  0  0
 54124  1  0  0  0
 55 57  1  0  0  0
 55125  1  0  0  0
 56 69  2  0  0  0
 57 58  2  0  0  0
 57126  1  0  0  0
 58127  1  0  0  0
 59 60  1  0  0  0
 59 61  1  0  0  0
 59 62  1  0  0  0
 60128  1  0  0  0
 60129  1  0  0  0
 60130  1  0  0  0
 61131  1  0  0  0
 61132  1  0  0  0
 61133  1  0  0  0
 62134  1  0  0  0
 62135  1  0  0  0
 62136  1  0  0  0
 63 65  1  0  0  0
 63137  1  0  0  0
 63138  1  0  0  0
 63139  1  0  0  0
 64140  1  0  0  0
 65141  1  0  0  0
 68 80  1  0  0  0
 71 72  2  0  0  0
 71 81  1  0  0  0
 71142  1  0  0  0
 72 76  1  0  0  0
 72 82  1  0  0  0
 73 74  1  0  0  0
 73 77  1  0  0  0
 73 81  2  0  0  0
 74 78  1  0  0  0
 74 82  2  0  0  0
 75 78  1  0  0  0
 75143  1  0  0  0
 75144  1  0  0  0
 75145  1  0  0  0
 76146  1  0  0  0
 76147  1  0  0  0
 77 79  1  0  0  0
 77148  1  0  0  0
 77149  1  0  0  0
 78150  1  0  0  0
 78151  1  0  0  0
 79 80  1  0  0  0
 79152  1  0  0  0
 79153  1  0  0  0
 80154  1  0  0  0
 80155  1  0  0  0
M  ISO  4   1 100  68 101  76 100  80 101
M  END
> <chiral flag>
0

> <version>
0

> <s_m_source_file>
/data/baiqing/PycharmProjects/Reinvent-master-3.2/result/LINK_invent/BTK/process_docking_weight1_custom_sum_contain_oxygen_bond_distance_aromatic_linkinvent_7_9_3/rearranged_h_0050.sdf

> <i_m_source_file_index>
86

> <r_mmod_Potential_Energy-OPLS-2005>
380.399688720703

> <r_mmod_Stretch_Energy-OPLS-2005>
180.22004699707

> <r_mmod_Bend_Energy-OPLS-2005>
247.077194213867

> <r_mmod_Torsional_Energy-OPLS-2005>
171.603118896484

> <r_mmod_Improper_Torsional_Energy-OPLS-2005>
6.10215854644775

> <r_mmod_Van_der_Waal_Energy-OPLS-2005>
139.567962646484

> <r_mmod_Electrostatic_Energy-OPLS-2005>
-268.145080566406

> <r_mmod_Solvation_Energy-OPLS-2005>
-220.961791992188

> <b_mmod_Minimization_Converged-OPLS-2005>
0

> <r_mmod_RMS_Derivative-OPLS-2005>
1.51640343666077

$$$$
90
                    3D
 Structure written by MMmdl.
157165  0  0  1  0            999 V2000
  -30.7283  -14.4799   20.6461 C   0  0  0  0  0  0
  -30.4232  -12.3426   19.4164 C   0  0  0  0  0  0
  -29.4925  -12.5414   18.2016 C   0  0  0  0  0  0
  -28.0143  -12.3856   18.6102 C   0  0  0  0  0  0
  -27.6601  -13.2152   19.8718 C   0  0  2  0  0  0
  -28.6977  -12.9949   20.9909 C   0  0  0  0  0  0
  -25.2584  -13.8191   20.5710 C   0  0  0  0  0  0
  -24.1833  -13.0437   20.9171 C   0  0  0  0  0  0
  -24.6424  -11.6921   20.8752 C   0  0  0  0  0  0
  -23.9110  -10.4306   21.0438 C   0  0  0  0  0  0
  -24.3650   -9.4213   21.9217 C   0  0  0  0  0  0
  -23.6309   -8.2251   22.0766 C   0  0  0  0  0  0
  -22.4286   -8.0312   21.3552 C   0  0  0  0  0  0
  -21.9943   -9.0296   20.4643 C   0  0  0  0  0  0
  -22.7290  -10.2173   20.3067 C   0  0  0  0  0  0
  -21.6850   -6.0771   22.5282 C   0  0  0  0  0  0
  -21.3999   -6.5669   23.8215 C   0  0  0  0  0  0
  -21.3649   -5.6818   24.9175 C   0  0  0  0  0  0
  -21.6047   -4.3083   24.7218 C   0  0  0  0  0  0
  -21.8811   -3.8186   23.4333 C   0  0  0  0  0  0
  -21.9182   -4.7002   22.3395 C   0  0  0  0  0  0
  -22.7848  -13.5226   21.1848 C   0  0  0  0  0  0
  -22.1670   -4.2200   21.0970 F   0  0  0  0  0  0
  -21.5630   -3.4550   25.7723 F   0  0  0  0  0  0
  -30.0342  -13.3158   20.4573 N   0  0  0  0  0  0
  -26.3021  -12.9377   20.3335 N   0  0  0  0  0  0
  -25.9348  -11.6531   20.5746 N   0  0  0  0  0  0
  -22.0500  -12.8205   22.0407 N   0  0  0  0  0  0
  -25.4296  -15.1910   20.4195 N   0  0  0  0  0  0
  -31.8024  -14.7042   20.0806 O   0  0  0  0  0  0
  -21.6635   -6.8920   21.4244 O   0  0  0  0  0  0
  -22.3532  -14.5526   20.6696 O   0  0  0  0  0  0
  -24.6129  -31.8660   23.2073 C   0  0  0  0  0  0
  -25.9019  -32.4807   23.8395 C   0  0  1  0  0  0
  -27.2258  -27.4040   20.1144 C   0  0  0  0  0  0
  -25.5864  -33.8607   24.2287 N   0  0  0  0  0  0
  -23.4070  -30.4877   21.5455 C   0  0  2  0  0  0
  -24.8544  -28.9495   20.1114 C   0  0  0  0  0  0
  -22.7373  -29.4678   22.4949 C   0  0  0  0  0  0
  -18.0251  -28.1362   22.8520 C   0  0  0  0  0  0
  -24.1496  -36.7331   23.2639 C   0  0  0  0  0  0
  -25.9369  -30.8190   21.3687 C   0  0  0  0  0  0
  -26.0132  -29.4534   20.7124 C   0  0  0  0  0  0
  -27.2068  -28.6923   20.7019 C   0  0  0  0  0  0
  -26.0504  -26.9166   19.5081 C   0  0  0  0  0  0
  -24.8671  -27.6820   19.5029 C   0  0  0  0  0  0
  -23.6189  -29.8214   20.1597 C   0  0  0  0  0  0
  -25.4123  -36.3105   24.0319 C   0  0  1  0  0  0
  -20.5841  -28.3672   23.1279 C   0  0  2  0  0  0
  -20.6706  -26.9419   22.5298 C   0  0  0  0  0  0
  -19.5613  -26.6389   21.5165 C   0  0  0  0  0  0
  -18.1834  -26.7925   22.1623 C   0  0  0  0  0  0
  -19.1499  -28.8818   23.2910 C   0  0  0  0  0  0
  -18.9456  -30.1427   23.8928 C   0  0  0  0  0  0
  -17.6467  -30.6597   24.0570 C   0  0  0  0  0  0
  -25.9045  -34.9470   23.5111 C   0  0  0  0  0  0
  -16.5340  -29.9127   23.6301 C   0  0  0  0  0  0
  -16.7255  -28.6511   23.0376 C   0  0  0  0  0  0
  -26.4452  -31.6608   25.0749 C   0  0  0  0  0  0
  -25.3719  -31.3735   26.1504 C   0  0  0  0  0  0
  -27.0278  -30.3036   24.6152 C   0  0  0  0  0  0
  -27.6022  -32.4327   25.7528 C   0  0  0  0  0  0
  -27.5593  -37.1835   24.8453 C   0  0  0  0  0  0
  -21.4078  -29.3097   22.3706 N   0  0  0  0  0  0
  -26.4301  -37.3790   23.9377 N   0  0  0  0  0  0
  -24.6703  -31.0724   22.0991 N   0  0  0  0  0  0
  -23.4100  -28.8230   23.3018 O   0  0  0  0  0  0
  -28.3712  -26.6314   20.1131 O   0  0  0  0  0  0
  -26.5625  -34.8913   22.4684 O   0  0  0  0  0  0
  -23.5313  -32.1438   23.7446 O   0  0  0  0  0  0
  -31.4186  -18.2524   21.7462 C   0  0  0  0  0  0
  -31.8390  -19.5649   21.9885 C   0  0  0  0  0  0
  -30.2497  -18.0806   20.9921 C   0  0  0  0  0  0
  -30.1030  -20.3922   20.7377 C   0  0  0  0  0  0
  -30.1302  -15.4793   22.7957 C   0  0  0  0  0  0
  -29.6543  -16.7031   20.6248 C   0  0  0  0  0  0
  -29.5235  -21.6018   19.9653 C   0  0  0  0  0  0
  -29.0057  -22.8171   20.8022 C   0  0  0  0  0  0
  -28.7939  -24.1427   19.9890 C   0  0  0  0  0  0
  -28.2830  -25.3631   20.8091 C   0  0  0  0  0  0
  -31.1859  -20.6249   21.4731 N   0  0  0  0  0  0
  -29.6046  -19.1715   20.4963 N   0  0  0  0  0  0
  -30.0897  -15.4655   21.3264 N   0  0  0  0  0  0
  -31.4665  -12.4501   19.1164 H   0  0  0  0  0  0
  -30.3334  -11.3263   19.8017 H   0  0  0  0  0  0
  -29.7354  -11.8320   17.4080 H   0  0  0  0  0  0
  -29.6468  -13.5346   17.7765 H   0  0  0  0  0  0
  -27.8234  -11.3280   18.7958 H   0  0  0  0  0  0
  -27.3641  -12.6661   17.7803 H   0  0  0  0  0  0
  -27.7063  -14.2665   19.5846 H   0  0  0  0  0  0
  -28.6768  -11.9585   21.3323 H   0  0  0  0  0  0
  -28.4243  -13.5895   21.8611 H   0  0  0  0  0  0
  -25.2796   -9.5670   22.4795 H   0  0  0  0  0  0
  -24.0024   -7.4627   22.7454 H   0  0  0  0  0  0
  -21.0892   -8.8810   19.8926 H   0  0  0  0  0  0
  -22.3768  -10.9718   19.6166 H   0  0  0  0  0  0
  -21.1989   -7.6184   23.9724 H   0  0  0  0  0  0
  -21.1481   -6.0561   25.9084 H   0  0  0  0  0  0
  -22.0601   -2.7654   23.2808 H   0  0  0  0  0  0
  -22.4111  -11.9819   22.4712 H   0  0  0  0  0  0
  -21.1112  -13.1181   22.2628 H   0  0  0  0  0  0
  -24.6727  -15.8524   20.5480 H   0  0  0  0  0  0
  -26.2953  -15.6341   20.1384 H   0  0  0  0  0  0
  -26.7093  -32.5488   23.1150 H   0  0  0  0  0  0
  -24.9936  -33.9763   25.0384 H   0  0  0  0  0  0
  -22.7009  -31.3072   21.4023 H   0  0  0  0  0  0
  -23.3740  -35.9683   23.3308 H   0  0  0  0  0  0
  -24.3584  -36.8963   22.2059 H   0  0  0  0  0  0
  -23.7300  -37.6549   23.6670 H   0  0  0  0  0  0
  -26.0599  -31.5850   20.6026 H   0  0  0  0  0  0
  -26.8175  -30.8618   21.9968 H   0  0  0  0  0  0
  -28.1039  -29.0759   21.1660 H   0  0  0  0  0  0
  -26.0486  -25.9413   19.0421 H   0  0  0  0  0  0
  -23.9732  -27.2889   19.0349 H   0  0  0  0  0  0
  -23.7335  -30.5997   19.4027 H   0  0  0  0  0  0
  -22.7428  -29.2423   19.8626 H   0  0  0  0  0  0
  -25.1317  -36.1968   25.0817 H   0  0  0  0  0  0
  -20.9949  -28.3211   24.1393 H   0  0  0  0  0  0
  -20.5682  -26.2246   23.3447 H   0  0  0  0  0  0
  -21.6545  -26.7478   22.1019 H   0  0  0  0  0  0
  -19.6655  -25.6289   21.1173 H   0  0  0  0  0  0
  -19.6507  -27.3209   20.6687 H   0  0  0  0  0  0
  -17.4068  -26.6710   21.4049 H   0  0  0  0  0  0
  -18.0276  -26.0054   22.9020 H   0  0  0  0  0  0
  -19.7970  -30.7191   24.2296 H   0  0  0  0  0  0
  -17.5061  -31.6291   24.5155 H   0  0  0  0  0  0
  -15.5344  -30.3069   23.7518 H   0  0  0  0  0  0
  -15.8675  -28.0829   22.7102 H   0  0  0  0  0  0
  -24.5909  -30.7041   25.7863 H   0  0  0  0  0  0
  -24.8873  -32.2900   26.4886 H   0  0  0  0  0  0
  -25.8064  -30.8982   27.0314 H   0  0  0  0  0  0
  -26.2845  -29.6853   24.1092 H   0  0  0  0  0  0
  -27.3923  -29.7193   25.4620 H   0  0  0  0  0  0
  -27.8735  -30.4334   23.9385 H   0  0  0  0  0  0
  -27.2636  -33.3627   26.2097 H   0  0  0  0  0  0
  -28.3849  -32.6885   25.0379 H   0  0  0  0  0  0
  -28.0658  -31.8465   26.5472 H   0  0  0  0  0  0
  -28.2595  -38.0141   24.7479 H   0  0  0  0  0  0
  -28.1100  -36.2676   24.6290 H   0  0  0  0  0  0
  -27.2293  -37.1493   25.8846 H   0  0  0  0  0  0
  -20.9238  -29.8830   21.6929 H   0  0  0  0  0  0
  -26.0189  -38.2862   24.1359 H   0  0  0  0  0  0
  -32.0001  -17.4306   22.1329 H   0  0  0  0  0  0
  -32.7237  -19.7703   22.5745 H   0  0  0  0  0  0
  -31.1293  -15.7284   23.1556 H   0  0  0  0  0  0
  -29.8878  -14.5081   23.2236 H   0  0  0  0  0  0
  -29.4310  -16.2048   23.2126 H   0  0  0  0  0  0
  -29.8001  -16.5836   19.5490 H   0  0  0  0  0  0
  -28.5741  -16.7703   20.7548 H   0  0  0  0  0  0
  -28.7234  -21.2595   19.3064 H   0  0  0  0  0  0
  -30.3138  -21.9456   19.2991 H   0  0  0  0  0  0
  -29.7323  -23.0219   21.5880 H   0  0  0  0  0  0
  -28.0856  -22.5303   21.3116 H   0  0  0  0  0  0
  -28.1048  -23.9626   19.1616 H   0  0  0  0  0  0
  -29.7449  -24.4267   19.5364 H   0  0  0  0  0  0
  -28.8991  -25.4668   21.7030 H   0  0  0  0  0  0
  -27.2723  -25.1600   21.1690 H   0  0  0  0  0  0
  1 25  1  0  0  0
  1 30  2  0  0  0
  1 83  1  0  0  0
  2  3  1  0  0  0
  2 25  1  0  0  0
  2 84  1  0  0  0
  2 85  1  0  0  0
  3  4  1  0  0  0
  3 86  1  0  0  0
  3 87  1  0  0  0
  4  5  1  0  0  0
  4 88  1  0  0  0
  4 89  1  0  0  0
  5  6  1  0  0  0
  5 26  1  0  0  0
  5 90  1  0  0  0
  6 25  1  0  0  0
  6 91  1  0  0  0
  6 92  1  0  0  0
  7  8  2  0  0  0
  7 26  1  0  0  0
  7 29  1  0  0  0
  8  9  1  0  0  0
  8 22  1  0  0  0
  9 10  1  0  0  0
  9 27  2  0  0  0
 10 11  2  0  0  0
 10 15  1  0  0  0
 11 12  1  0  0  0
 11 93  1  0  0  0
 12 13  2  0  0  0
 12 94  1  0  0  0
 13 14  1  0  0  0
 13 31  1  0  0  0
 14 15  2  0  0  0
 14 95  1  0  0  0
 15 96  1  0  0  0
 16 17  2  0  0  0
 16 21  1  0  0  0
 16 31  1  0  0  0
 17 18  1  0  0  0
 17 97  1  0  0  0
 18 19  2  0  0  0
 18 98  1  0  0  0
 19 20  1  0  0  0
 19 24  1  0  0  0
 20 21  2  0  0  0
 20 99  1  0  0  0
 21 23  1  0  0  0
 22 28  1  0  0  0
 22 32  2  0  0  0
 26 27  1  0  0  0
 28100  1  0  0  0
 28101  1  0  0  0
 29102  1  0  0  0
 29103  1  0  0  0
 33 34  1  0  0  0
 33 66  1  0  0  0
 33 70  2  0  0  0
 34 36  1  0  0  0
 34 59  1  0  0  0
 34104  1  0  0  0
 35 44  2  0  0  0
 35 45  1  0  0  0
 35 68  1  0  0  0
 36 56  1  0  0  0
 36105  1  0  0  0
 37 39  1  0  0  0
 37 47  1  0  0  0
 37 66  1  0  0  0
 37106  1  0  0  0
 38 43  2  0  0  0
 38 46  1  0  0  0
 38 47  1  0  0  0
 39 64  1  0  0  0
 39 67  2  0  0  0
 40 52  1  0  0  0
 40 53  2  0  0  0
 40 58  1  0  0  0
 41107  1  0  0  0
 41108  1  0  0  0
 41109  1  0  0  0
 41 48  1  0  0  0
 42 43  1  0  0  0
 42 66  1  0  0  0
 42110  1  0  0  0
 42111  1  0  0  0
 43 44  1  0  0  0
 44112  1  0  0  0
 45 46  2  0  0  0
 45113  1  0  0  0
 46114  1  0  0  0
 47115  1  0  0  0
 47116  1  0  0  0
 48 56  1  0  0  0
 48 65  1  0  0  0
 48117  1  0  0  0
 49 50  1  0  0  0
 49 53  1  0  0  0
 49 64  1  0  0  0
 49118  1  0  0  0
 50 51  1  0  0  0
 50119  1  0  0  0
 50120  1  0  0  0
 51 52  1  0  0  0
 51121  1  0  0  0
 51122  1  0  0  0
 52123  1  0  0  0
 52124  1  0  0  0
 53 54  1  0  0  0
 54 55  2  0  0  0
 54125  1  0  0  0
 55 57  1  0  0  0
 55126  1  0  0  0
 56 69  2  0  0  0
 57 58  2  0  0  0
 57127  1  0  0  0
 58128  1  0  0  0
 59 60  1  0  0  0
 59 61  1  0  0  0
 59 62  1  0  0  0
 60129  1  0  0  0
 60130  1  0  0  0
 60131  1  0  0  0
 61132  1  0  0  0
 61133  1  0  0  0
 61134  1  0  0  0
 62135  1  0  0  0
 62136  1  0  0  0
 62137  1  0  0  0
 63 65  1  0  0  0
 63138  1  0  0  0
 63139  1  0  0  0
 63140  1  0  0  0
 64141  1  0  0  0
 65142  1  0  0  0
 68 80  1  0  0  0
 71 72  2  0  0  0
 71 73  1  0  0  0
 71143  1  0  0  0
 72 81  1  0  0  0
 72144  1  0  0  0
 73 76  1  0  0  0
 73 82  2  0  0  0
 74 77  1  0  0  0
 74 81  2  0  0  0
 74 82  1  0  0  0
 75 83  1  0  0  0
 75145  1  0  0  0
 75146  1  0  0  0
 75147  1  0  0  0
 76 83  1  0  0  0
 76148  1  0  0  0
 76149  1  0  0  0
 77 78  1  0  0  0
 77150  1  0  0  0
 77151  1  0  0  0
 78 79  1  0  0  0
 78152  1  0  0  0
 78153  1  0  0  0
 79 80  1  0  0  0
 79154  1  0  0  0
 79155  1  0  0  0
 80156  1  0  0  0
 80157  1  0  0  0
M  ISO  4   1 100  68 101  80 101  83 100
M  END
> <chiral flag>
0

> <version>
0

> <s_m_source_file>
/data/baiqing/PycharmProjects/Reinvent-master-3.2/result/LINK_invent/BTK/process_docking_weight1_custom_sum_contain_oxygen_bond_distance_aromatic_linkinvent_7_9_3/rearranged_h_0050.sdf

> <i_m_source_file_index>
87

> <r_mmod_Potential_Energy-OPLS-2005>
-398.970489501953

> <r_mmod_Stretch_Energy-OPLS-2005>
46.7992515563965

> <r_mmod_Bend_Energy-OPLS-2005>
109.162536621094

> <r_mmod_Torsional_Energy-OPLS-2005>
285.193969726562

> <r_mmod_Improper_Torsional_Energy-OPLS-2005>
5.48029804229736

> <r_mmod_Van_der_Waal_Energy-OPLS-2005>
151.624954223633

> <r_mmod_Electrostatic_Energy-OPLS-2005>
-794.160705566406

> <r_mmod_Solvation_Energy-OPLS-2005>
-217.850524902344

> <b_mmod_Minimization_Converged-OPLS-2005>
0

> <r_mmod_RMS_Derivative-OPLS-2005>
4.14294719696045

$$$$
91
                    3D
 Structure written by MMmdl.
178186  0  0  1  0            999 V2000
  -30.6570  -14.5167   20.6394 C   0  0  0  0  0  0
  -30.4323  -12.3424   19.4512 C   0  0  0  0  0  0
  -29.5112  -12.5038   18.2248 C   0  0  0  0  0  0
  -28.0322  -12.3363   18.6249 C   0  0  0  0  0  0
  -27.6485  -13.2096   19.8505 C   0  0  2  0  0  0
  -28.6743  -13.0270   20.9880 C   0  0  0  0  0  0
  -25.2527  -13.8096   20.5614 C   0  0  0  0  0  0
  -24.1805  -13.0410   20.9149 C   0  0  0  0  0  0
  -24.6378  -11.6876   20.8688 C   0  0  0  0  0  0
  -23.9060  -10.4296   21.0351 C   0  0  0  0  0  0
  -24.3619   -9.4243   21.9161 C   0  0  0  0  0  0
  -23.6309   -8.2270   22.0720 C   0  0  0  0  0  0
  -22.4289   -8.0299   21.3519 C   0  0  0  0  0  0
  -21.9876   -9.0267   20.4614 C   0  0  0  0  0  0
  -22.7194  -10.2164   20.3047 C   0  0  0  0  0  0
  -21.6880   -6.0755   22.5324 C   0  0  0  0  0  0
  -21.4028   -6.5647   23.8271 C   0  0  0  0  0  0
  -21.3649   -5.6790   24.9248 C   0  0  0  0  0  0
  -21.6054   -4.3055   24.7245 C   0  0  0  0  0  0
  -21.8827   -3.8155   23.4356 C   0  0  0  0  0  0
  -21.9200   -4.6973   22.3427 C   0  0  0  0  0  0
  -22.7844  -13.5187   21.1784 C   0  0  0  0  0  0
  -22.1630   -4.2148   21.0999 F   0  0  0  0  0  0
  -21.5614   -3.4542   25.7746 F   0  0  0  0  0  0
  -30.0131  -13.3289   20.4630 N   0  0  0  0  0  0
  -26.2946  -12.9321   20.3172 N   0  0  0  0  0  0
  -25.9306  -11.6493   20.5684 N   0  0  0  0  0  0
  -22.0459  -12.8279   22.0394 N   0  0  0  0  0  0
  -25.4183  -15.1790   20.3956 N   0  0  0  0  0  0
  -31.7881  -14.7059   20.1778 O   0  0  0  0  0  0
  -21.6639   -6.8881   21.4277 O   0  0  0  0  0  0
  -22.3547  -14.5500   20.6612 O   0  0  0  0  0  0
  -24.6056  -31.8712   23.2086 C   0  0  0  0  0  0
  -25.8978  -32.4843   23.8373 C   0  0  1  0  0  0
  -27.2368  -27.4555   20.0893 C   0  0  0  0  0  0
  -25.5895  -33.8673   24.2304 N   0  0  0  0  0  0
  -23.3894  -30.4928   21.5464 C   0  0  2  0  0  0
  -24.8339  -28.9623   20.1070 C   0  0  0  0  0  0
  -22.7376  -29.4663   22.4984 C   0  0  0  0  0  0
  -18.0255  -28.1369   22.8488 C   0  0  0  0  0  0
  -24.1465  -36.7364   23.2642 C   0  0  0  0  0  0
  -25.9056  -30.8548   21.3340 C   0  0  0  0  0  0
  -25.9858  -29.4769   20.7058 C   0  0  0  0  0  0
  -27.1762  -28.7272   20.7029 C   0  0  0  0  0  0
  -26.0562  -26.9449   19.4932 C   0  0  0  0  0  0
  -24.8652  -27.6970   19.4941 C   0  0  0  0  0  0
  -23.5924  -29.8260   20.1576 C   0  0  0  0  0  0
  -25.4086  -36.3119   24.0311 C   0  0  1  0  0  0
  -20.5838  -28.3611   23.1375 C   0  0  2  0  0  0
  -20.6749  -26.9356   22.5447 C   0  0  0  0  0  0
  -19.5748  -26.6390   21.5241 C   0  0  0  0  0  0
  -18.1918  -26.7936   22.1621 C   0  0  0  0  0  0
  -19.1498  -28.8815   23.2935 C   0  0  0  0  0  0
  -18.9456  -30.1439   23.8908 C   0  0  0  0  0  0
  -17.6457  -30.6589   24.0568 C   0  0  0  0  0  0
  -25.9032  -34.9469   23.5083 C   0  0  0  0  0  0
  -16.5338  -29.9085   23.6318 C   0  0  0  0  0  0
  -16.7260  -28.6501   23.0345 C   0  0  0  0  0  0
  -26.4445  -31.6607   25.0663 C   0  0  0  0  0  0
  -25.3740  -31.3718   26.1441 C   0  0  0  0  0  0
  -27.0276  -30.3092   24.5887 C   0  0  0  0  0  0
  -27.6008  -32.4318   25.7473 C   0  0  0  0  0  0
  -27.5557  -37.1843   24.8468 C   0  0  0  0  0  0
  -21.4098  -29.3005   22.3805 N   0  0  0  0  0  0
  -26.4273  -37.3796   23.9412 N   0  0  0  0  0  0
  -24.6538  -31.0852   22.0926 N   0  0  0  0  0  0
  -23.4191  -28.8175   23.2978 O   0  0  0  0  0  0
  -28.4620  -26.8181   20.1067 O   0  0  0  0  0  0
  -26.5619  -34.8896   22.4650 O   0  0  0  0  0  0
  -23.5272  -32.1454   23.7509 O   0  0  0  0  0  0
  -29.0541  -24.4401   20.4509 C   0  0  0  0  0  0
  -29.1101  -24.4171   21.8315 C   0  0  0  0  0  0
  -29.5519  -22.4056   21.0497 C   0  0  0  0  0  0
  -29.6518  -27.7738   23.5133 C   0  0  0  0  0  0
  -25.9790  -18.8294   22.0153 C   0  0  0  0  0  0
  -28.4134  -22.1224   24.2205 C   0  0  0  0  0  0
  -28.6861  -25.5496   19.4808 C   0  0  0  0  0  0
  -28.7806  -25.4851   22.8374 C   0  0  0  0  0  0
  -29.5608  -20.8910   21.0235 C   0  0  0  0  0  0
  -29.9011  -15.7024   21.3252 C   0  0  0  0  0  0
  -29.9904  -26.2897   23.3329 C   0  0  0  0  0  0
  -27.2468  -18.4151   21.2519 C   0  0  0  0  0  0
  -29.7051  -22.6480   23.5703 C   0  0  0  0  0  0
  -30.4891  -19.6392   21.3131 C   0  0  0  0  0  0
  -30.6223  -17.1036   21.3833 C   0  0  0  0  0  0
  -28.5236  -18.3087   22.1145 C   0  0  0  0  0  0
  -29.3556  -23.1624   19.9686 N   0  0  0  0  0  0
  -29.4921  -23.1248   22.2007 N   0  0  0  0  0  0
  -29.7425  -18.3242   21.2459 N   0  3  1  0  0  0
  -31.4760  -12.4741   19.1636 H   0  0  0  0  0  0
  -30.3513  -11.3335   19.8623 H   0  0  0  0  0  0
  -29.7881  -11.7931   17.4406 H   0  0  0  0  0  0
  -29.6520  -13.4996   17.8070 H   0  0  0  0  0  0
  -27.8764  -11.2827   18.8636 H   0  0  0  0  0  0
  -27.3788  -12.5602   17.7820 H   0  0  0  0  0  0
  -27.6742  -14.2471   19.5124 H   0  0  0  0  0  0
  -28.6534  -12.0007   21.3519 H   0  0  0  0  0  0
  -28.3993  -13.6375   21.8510 H   0  0  0  0  0  0
  -25.2767   -9.5800   22.4737 H   0  0  0  0  0  0
  -24.0038   -7.4645   22.7430 H   0  0  0  0  0  0
  -21.0800   -8.8845   19.8891 H   0  0  0  0  0  0
  -22.3628  -10.9753   19.6216 H   0  0  0  0  0  0
  -21.2031   -7.6155   23.9836 H   0  0  0  0  0  0
  -21.1432   -6.0463   25.9157 H   0  0  0  0  0  0
  -22.0580   -2.7592   23.2864 H   0  0  0  0  0  0
  -22.4013  -11.9975   22.4920 H   0  0  0  0  0  0
  -21.1168  -13.1477   22.2640 H   0  0  0  0  0  0
  -24.6275  -15.8076   20.4608 H   0  0  0  0  0  0
  -26.2300  -15.5982   19.9663 H   0  0  0  0  0  0
  -26.7003  -32.5520   23.1111 H   0  0  0  0  0  0
  -25.0053  -33.9841   25.0461 H   0  0  0  0  0  0
  -22.6726  -31.3067   21.4095 H   0  0  0  0  0  0
  -23.3699  -35.9747   23.3322 H   0  0  0  0  0  0
  -24.3593  -36.9006   22.2076 H   0  0  0  0  0  0
  -23.7224  -37.6568   23.6660 H   0  0  0  0  0  0
  -25.9593  -31.5977   20.5373 H   0  0  0  0  0  0
  -26.8217  -30.9686   21.9028 H   0  0  0  0  0  0
  -28.0583  -29.1362   21.1652 H   0  0  0  0  0  0
  -26.0087  -25.9797   19.0123 H   0  0  0  0  0  0
  -23.9746  -27.3035   19.0246 H   0  0  0  0  0  0
  -23.6809  -30.6031   19.3955 H   0  0  0  0  0  0
  -22.7209  -29.2348   19.8672 H   0  0  0  0  0  0
  -25.1239  -36.2012   25.0807 H   0  0  0  0  0  0
  -20.9907  -28.3127   24.1517 H   0  0  0  0  0  0
  -20.5714  -26.2185   23.3606 H   0  0  0  0  0  0
  -21.6618  -26.7483   22.1200 H   0  0  0  0  0  0
  -19.6916  -25.6328   21.1243 H   0  0  0  0  0  0
  -19.6700  -27.3234   20.6802 H   0  0  0  0  0  0
  -17.4205  -26.6730   21.3987 H   0  0  0  0  0  0
  -18.0226  -26.0083   22.8996 H   0  0  0  0  0  0
  -19.7942  -30.7272   24.2252 H   0  0  0  0  0  0
  -17.5018  -31.6273   24.5208 H   0  0  0  0  0  0
  -15.5344  -30.3012   23.7662 H   0  0  0  0  0  0
  -15.8647  -28.0866   22.7025 H   0  0  0  0  0  0
  -24.5889  -30.7042   25.7820 H   0  0  0  0  0  0
  -24.8950  -32.2901   26.4857 H   0  0  0  0  0  0
  -25.8155  -30.8942   27.0203 H   0  0  0  0  0  0
  -26.2740  -29.6886   24.0990 H   0  0  0  0  0  0
  -27.4229  -29.7254   25.4230 H   0  0  0  0  0  0
  -27.8443  -30.4549   23.8807 H   0  0  0  0  0  0
  -27.2577  -33.3614   26.2039 H   0  0  0  0  0  0
  -28.3863  -32.6935   25.0355 H   0  0  0  0  0  0
  -28.0578  -31.8436   26.5445 H   0  0  0  0  0  0
  -28.2588  -38.0128   24.7504 H   0  0  0  0  0  0
  -28.1026  -36.2674   24.6269 H   0  0  0  0  0  0
  -27.2311  -37.1465   25.8882 H   0  0  0  0  0  0
  -20.9193  -29.8780   21.7114 H   0  0  0  0  0  0
  -26.0166  -38.2870   24.1452 H   0  0  0  0  0  0
  -30.4929  -28.3252   23.9342 H   0  0  0  0  0  0
  -28.7918  -27.8998   24.1735 H   0  0  0  0  0  0
  -29.4166  -28.2229   22.5492 H   0  0  0  0  0  0
  -25.1438  -18.8802   21.3146 H   0  0  0  0  0  0
  -26.0747  -19.8132   22.4788 H   0  0  0  0  0  0
  -25.7149  -18.1111   22.7900 H   0  0  0  0  0  0
  -28.5563  -21.9447   25.2881 H   0  0  0  0  0  0
  -28.0780  -21.1855   23.7781 H   0  0  0  0  0  0
  -27.6010  -22.8396   24.1201 H   0  0  0  0  0  0
  -27.8828  -25.2171   18.8275 H   0  0  0  0  0  0
  -29.5238  -25.7033   18.8022 H   0  0  0  0  0  0
  -28.2665  -25.0459   23.6907 H   0  0  0  0  0  0
  -28.0250  -26.1454   22.4219 H   0  0  0  0  0  0
  -28.8006  -20.7949   21.7805 H   0  0  0  0  0  0
  -30.5490  -21.2521   21.3067 H   0  0  0  0  0  0
  -28.9585  -15.8134   20.7890 H   0  0  0  0  0  0
  -29.6518  -15.4027   22.3445 H   0  0  0  0  0  0
  -30.3535  -25.8746   24.2766 H   0  0  0  0  0  0
  -30.8144  -26.2078   22.6226 H   0  0  0  0  0  0
  -27.3952  -19.1316   20.4442 H   0  0  0  0  0  0
  -27.0621  -17.4580   20.7709 H   0  0  0  0  0  0
  -30.4882  -21.8871   23.5761 H   0  0  0  0  0  0
  -30.1087  -23.4690   24.1649 H   0  0  0  0  0  0
  -30.9416  -19.6747   22.3133 H   0  0  0  0  0  0
  -31.3218  -19.5905   20.5992 H   0  0  0  0  0  0
  -31.3708  -17.1566   20.5921 H   0  0  0  0  0  0
  -31.1781  -17.1612   22.3235 H   0  0  0  0  0  0
  -28.4831  -17.4197   22.7400 H   0  0  0  0  0  0
  -28.5436  -19.1013   22.8621 H   0  0  0  0  0  0
  -29.3939  -18.2888   20.2989 H   0  0  0  0  0  0
  1 25  1  0  0  0
  1 30  2  0  0  0
  1 80  1  0  0  0
  2  3  1  0  0  0
  2 25  1  0  0  0
  2 90  1  0  0  0
  2 91  1  0  0  0
  3  4  1  0  0  0
  3 92  1  0  0  0
  3 93  1  0  0  0
  4  5  1  0  0  0
  4 94  1  0  0  0
  4 95  1  0  0  0
  5  6  1  0  0  0
  5 26  1  0  0  0
  5 96  1  0  0  0
  6 25  1  0  0  0
  6 97  1  0  0  0
  6 98  1  0  0  0
  7  8  2  0  0  0
  7 26  1  0  0  0
  7 29  1  0  0  0
  8  9  1  0  0  0
  8 22  1  0  0  0
  9 10  1  0  0  0
  9 27  2  0  0  0
 10 11  2  0  0  0
 10 15  1  0  0  0
 11 12  1  0  0  0
 11 99  1  0  0  0
 12 13  2  0  0  0
 12100  1  0  0  0
 13 14  1  0  0  0
 13 31  1  0  0  0
 14 15  2  0  0  0
 14101  1  0  0  0
 15102  1  0  0  0
 16 17  2  0  0  0
 16 21  1  0  0  0
 16 31  1  0  0  0
 17 18  1  0  0  0
 17103  1  0  0  0
 18 19  2  0  0  0
 18104  1  0  0  0
 19 20  1  0  0  0
 19 24  1  0  0  0
 20 21  2  0  0  0
 20105  1  0  0  0
 21 23  1  0  0  0
 22 28  1  0  0  0
 22 32  2  0  0  0
 26 27  1  0  0  0
 28106  1  0  0  0
 28107  1  0  0  0
 29108  1  0  0  0
 29109  1  0  0  0
 33 34  1  0  0  0
 33 66  1  0  0  0
 33 70  2  0  0  0
 34 36  1  0  0  0
 34 59  1  0  0  0
 34110  1  0  0  0
 35 44  2  0  0  0
 35 45  1  0  0  0
 35 68  1  0  0  0
 36 56  1  0  0  0
 36111  1  0  0  0
 37 39  1  0  0  0
 37 47  1  0  0  0
 37 66  1  0  0  0
 37112  1  0  0  0
 38 43  2  0  0  0
 38 46  1  0  0  0
 38 47  1  0  0  0
 39 64  1  0  0  0
 39 67  2  0  0  0
 40 52  1  0  0  0
 40 53  2  0  0  0
 40 58  1  0  0  0
 41113  1  0  0  0
 41114  1  0  0  0
 41115  1  0  0  0
 41 48  1  0  0  0
 42 43  1  0  0  0
 42 66  1  0  0  0
 42116  1  0  0  0
 42117  1  0  0  0
 43 44  1  0  0  0
 44118  1  0  0  0
 45 46  2  0  0  0
 45119  1  0  0  0
 46120  1  0  0  0
 47121  1  0  0  0
 47122  1  0  0  0
 48 56  1  0  0  0
 48 65  1  0  0  0
 48123  1  0  0  0
 49 50  1  0  0  0
 49 53  1  0  0  0
 49 64  1  0  0  0
 49124  1  0  0  0
 50 51  1  0  0  0
 50125  1  0  0  0
 50126  1  0  0  0
 51 52  1  0  0  0
 51127  1  0  0  0
 51128  1  0  0  0
 52129  1  0  0  0
 52130  1  0  0  0
 53 54  1  0  0  0
 54 55  2  0  0  0
 54131  1  0  0  0
 55 57  1  0  0  0
 55132  1  0  0  0
 56 69  2  0  0  0
 57 58  2  0  0  0
 57133  1  0  0  0
 58134  1  0  0  0
 59 60  1  0  0  0
 59 61  1  0  0  0
 59 62  1  0  0  0
 60135  1  0  0  0
 60136  1  0  0  0
 60137  1  0  0  0
 61138  1  0  0  0
 61139  1  0  0  0
 61140  1  0  0  0
 62141  1  0  0  0
 62142  1  0  0  0
 62143  1  0  0  0
 63 65  1  0  0  0
 63144  1  0  0  0
 63145  1  0  0  0
 63146  1  0  0  0
 64147  1  0  0  0
 65148  1  0  0  0
 68 77  1  0  0  0
 71 72  2  0  0  0
 71 77  1  0  0  0
 71 87  1  0  0  0
 72 78  1  0  0  0
 72 88  1  0  0  0
 73 79  1  0  0  0
 73 87  2  0  0  0
 73 88  1  0  0  0
 74 81  1  0  0  0
 74149  1  0  0  0
 74150  1  0  0  0
 74151  1  0  0  0
 75 82  1  0  0  0
 75152  1  0  0  0
 75153  1  0  0  0
 75154  1  0  0  0
 76 83  1  0  0  0
 76155  1  0  0  0
 76156  1  0  0  0
 76157  1  0  0  0
 77158  1  0  0  0
 77159  1  0  0  0
 78 81  1  0  0  0
 78160  1  0  0  0
 78161  1  0  0  0
 79 84  1  0  0  0
 79162  1  0  0  0
 79163  1  0  0  0
 80 85  1  0  0  0
 80164  1  0  0  0
 80165  1  0  0  0
 81166  1  0  0  0
 81167  1  0  0  0
 82 86  1  0  0  0
 82168  1  0  0  0
 82169  1  0  0  0
 83 88  1  0  0  0
 83170  1  0  0  0
 83171  1  0  0  0
 84172  1  0  0  0
 84173  1  0  0  0
 84 89  1  0  0  0
 85 89  1  0  0  0
 85174  1  0  0  0
 85175  1  0  0  0
 86 89  1  0  0  0
 86176  1  0  0  0
 86177  1  0  0  0
 89178  1  0  0  0
M  CHG  1  89   1
M  ISO  4   1 100  68 101  77 101  80 100
M  END
> <chiral flag>
0

> <version>
0

> <s_m_source_file>
/data/baiqing/PycharmProjects/Reinvent-master-3.2/result/LINK_invent/BTK/process_docking_weight1_custom_sum_contain_oxygen_bond_distance_aromatic_linkinvent_7_9_3/rearranged_h_0050.sdf

> <i_m_source_file_index>
88

> <r_mmod_Potential_Energy-OPLS-2005>
172.467880249023

> <r_mmod_Stretch_Energy-OPLS-2005>
50.847728729248

> <r_mmod_Bend_Energy-OPLS-2005>
384.591796875

> <r_mmod_Torsional_Energy-OPLS-2005>
229.865783691406

> <r_mmod_Improper_Torsional_Energy-OPLS-2005>
5.06775617599487

> <r_mmod_Van_der_Waal_Energy-OPLS-2005>
136.324768066406

> <r_mmod_Electrostatic_Energy-OPLS-2005>
-211.538803100586

> <r_mmod_Solvation_Energy-OPLS-2005>
-440.810119628906

> <b_mmod_Minimization_Converged-OPLS-2005>
0

> <r_mmod_RMS_Derivative-OPLS-2005>
7.77121829986572

$$$$
92
                    3D
 Structure written by MMmdl.
159167  0  0  1  0            999 V2000
  -30.7807  -14.3672   20.7200 C   0  0  0  0  0  0
  -30.4229  -12.3080   19.4044 C   0  0  0  0  0  0
  -29.4988  -12.5481   18.1945 C   0  0  0  0  0  0
  -28.0194  -12.3965   18.5932 C   0  0  0  0  0  0
  -27.6678  -13.2054   19.8679 C   0  0  2  0  0  0
  -28.6924  -12.9535   20.9899 C   0  0  0  0  0  0
  -25.2603  -13.8163   20.5556 C   0  0  0  0  0  0
  -24.1837  -13.0462   20.9105 C   0  0  0  0  0  0
  -24.6393  -11.6930   20.8687 C   0  0  0  0  0  0
  -23.9047  -10.4328   21.0406 C   0  0  0  0  0  0
  -24.3612   -9.4240   21.9180 C   0  0  0  0  0  0
  -23.6263   -8.2288   22.0793 C   0  0  0  0  0  0
  -22.4239   -8.0320   21.3592 C   0  0  0  0  0  0
  -21.9870   -9.0276   20.4676 C   0  0  0  0  0  0
  -22.7218  -10.2144   20.3056 C   0  0  0  0  0  0
  -21.6851   -6.0735   22.5293 C   0  0  0  0  0  0
  -21.4025   -6.5657   23.8223 C   0  0  0  0  0  0
  -21.3647   -5.6808   24.9186 C   0  0  0  0  0  0
  -21.6021   -4.3065   24.7240 C   0  0  0  0  0  0
  -21.8808   -3.8157   23.4362 C   0  0  0  0  0  0
  -21.9189   -4.6962   22.3411 C   0  0  0  0  0  0
  -22.7860  -13.5306   21.1715 C   0  0  0  0  0  0
  -22.1641   -4.2147   21.0975 F   0  0  0  0  0  0
  -21.5617   -3.4555   25.7754 F   0  0  0  0  0  0
  -30.0510  -13.2409   20.4797 N   0  0  0  0  0  0
  -26.3031  -12.9311   20.3251 N   0  0  0  0  0  0
  -25.9306  -11.6472   20.5669 N   0  0  0  0  0  0
  -22.0443  -12.8385   22.0301 N   0  0  0  0  0  0
  -25.4246  -15.1865   20.3902 N   0  0  0  0  0  0
  -31.7514  -14.6882   20.0237 O   0  0  0  0  0  0
  -21.6618   -6.8900   21.4272 O   0  0  0  0  0  0
  -22.3584  -14.5584   20.6496 O   0  0  0  0  0  0
  -24.6046  -31.8659   23.2115 C   0  0  0  0  0  0
  -25.8942  -32.4821   23.8412 C   0  0  1  0  0  0
  -27.2688  -27.4596   20.1335 C   0  0  0  0  0  0
  -25.5802  -33.8602   24.2353 N   0  0  0  0  0  0
  -23.4008  -30.4835   21.5411 C   0  0  2  0  0  0
  -24.8598  -28.9385   20.1234 C   0  0  0  0  0  0
  -22.7363  -29.4678   22.4961 C   0  0  0  0  0  0
  -18.0260  -28.1382   22.8473 C   0  0  0  0  0  0
  -24.1470  -36.7323   23.2636 C   0  0  0  0  0  0
  -25.9174  -30.8435   21.3578 C   0  0  0  0  0  0
  -26.0036  -29.4674   20.7323 C   0  0  0  0  0  0
  -27.1972  -28.7257   20.7489 C   0  0  0  0  0  0
  -26.1047  -26.9305   19.5224 C   0  0  0  0  0  0
  -24.9015  -27.6664   19.5210 C   0  0  0  0  0  0
  -23.6193  -29.7996   20.1580 C   0  0  0  0  0  0
  -25.4095  -36.3102   24.0338 C   0  0  1  0  0  0
  -20.5840  -28.3686   23.1322 C   0  0  2  0  0  0
  -20.6799  -26.9439   22.5386 C   0  0  0  0  0  0
  -19.5755  -26.6378   21.5218 C   0  0  0  0  0  0
  -18.1926  -26.7947   22.1571 C   0  0  0  0  0  0
  -19.1482  -28.8849   23.2899 C   0  0  0  0  0  0
  -18.9369  -30.1445   23.8929 C   0  0  0  0  0  0
  -17.6367  -30.6563   24.0588 C   0  0  0  0  0  0
  -25.9007  -34.9456   23.5160 C   0  0  0  0  0  0
  -16.5283  -29.9084   23.6276 C   0  0  0  0  0  0
  -16.7240  -28.6505   23.0301 C   0  0  0  0  0  0
  -26.4435  -31.6573   25.0703 C   0  0  0  0  0  0
  -25.3798  -31.3647   26.1532 C   0  0  0  0  0  0
  -27.0248  -30.3037   24.6000 C   0  0  0  0  0  0
  -27.6020  -32.4289   25.7461 C   0  0  0  0  0  0
  -27.5583  -37.1809   24.8468 C   0  0  0  0  0  0
  -21.4096  -29.3044   22.3701 N   0  0  0  0  0  0
  -26.4284  -37.3787   23.9415 N   0  0  0  0  0  0
  -24.6588  -31.0792   22.0989 N   0  0  0  0  0  0
  -23.4094  -28.8250   23.3055 O   0  0  0  0  0  0
  -28.4947  -26.8297   20.1766 O   0  0  0  0  0  0
  -26.5568  -34.8897   22.4720 O   0  0  0  0  0  0
  -23.5244  -32.1387   23.7510 O   0  0  0  0  0  0
  -29.7530  -20.6331   20.5749 C   0  0  0  0  0  0
  -27.9669  -19.4097   20.9089 C   0  0  0  0  0  0
  -28.3506  -20.7188   20.8153 C   0  0  0  0  0  0
  -30.2625  -14.7220   23.0983 C   0  0  0  0  0  0
  -27.5086  -21.9644   20.9719 C   0  0  0  0  0  0
  -27.9036  -23.0935   19.9985 C   0  0  0  0  0  0
  -28.1686  -24.4385   20.6981 C   0  0  0  0  0  0
  -29.1801  -17.1747   20.7629 C   0  0  0  0  0  0
  -30.3880  -16.6466   21.5696 C   0  0  0  0  0  0
  -28.6660  -25.5011   19.6996 C   0  0  0  0  0  0
  -30.1883  -19.3828   20.5174 N   0  0  0  0  0  0
  -29.0910  -18.6264   20.7524 N   0  0  0  0  0  0
  -30.3287  -15.1814   21.7053 N   0  0  0  0  0  0
  -31.4692  -12.4149   19.1082 H   0  0  0  0  0  0
  -30.3183  -11.2794   19.7545 H   0  0  0  0  0  0
  -29.7472  -11.8551   17.3890 H   0  0  0  0  0  0
  -29.6702  -13.5531   17.7960 H   0  0  0  0  0  0
  -27.8235  -11.3364   18.7585 H   0  0  0  0  0  0
  -27.3744  -12.7082   17.7682 H   0  0  0  0  0  0
  -27.7259  -14.2617   19.6054 H   0  0  0  0  0  0
  -28.6455  -11.9182   21.3292 H   0  0  0  0  0  0
  -28.3841  -13.5461   21.8497 H   0  0  0  0  0  0
  -25.2777   -9.5695   22.4737 H   0  0  0  0  0  0
  -23.9933   -7.4715   22.7561 H   0  0  0  0  0  0
  -21.0780   -8.8821   19.9017 H   0  0  0  0  0  0
  -22.3687  -10.9676   19.6161 H   0  0  0  0  0  0
  -21.2022   -7.6155   23.9733 H   0  0  0  0  0  0
  -21.1459   -6.0528   25.9082 H   0  0  0  0  0  0
  -22.0569   -2.7608   23.2867 H   0  0  0  0  0  0
  -22.4011  -12.0127   22.4862 H   0  0  0  0  0  0
  -21.1071  -13.1567   22.2358 H   0  0  0  0  0  0
  -24.6332  -15.8194   20.4584 H   0  0  0  0  0  0
  -26.2484  -15.6315   20.0099 H   0  0  0  0  0  0
  -26.7049  -32.5609   23.1200 H   0  0  0  0  0  0
  -24.9974  -33.9758   25.0527 H   0  0  0  0  0  0
  -22.6890  -31.2992   21.3888 H   0  0  0  0  0  0
  -23.3704  -35.9679   23.3311 H   0  0  0  0  0  0
  -24.3598  -36.8918   22.2056 H   0  0  0  0  0  0
  -23.7235  -37.6539   23.6652 H   0  0  0  0  0  0
  -25.9972  -31.5942   20.5724 H   0  0  0  0  0  0
  -26.8132  -30.9294   21.9599 H   0  0  0  0  0  0
  -28.0747  -29.1163   21.2457 H   0  0  0  0  0  0
  -26.1161  -25.9589   19.0528 H   0  0  0  0  0  0
  -24.0163  -27.2565   19.0505 H   0  0  0  0  0  0
  -23.7369  -30.5647   19.3869 H   0  0  0  0  0  0
  -22.7495  -29.2074   19.8661 H   0  0  0  0  0  0
  -25.1260  -36.1992   25.0830 H   0  0  0  0  0  0
  -20.9915  -28.3303   24.1440 H   0  0  0  0  0  0
  -20.5821  -26.2295   23.3562 H   0  0  0  0  0  0
  -21.6670  -26.7586   22.1083 H   0  0  0  0  0  0
  -19.6911  -25.6300   21.1260 H   0  0  0  0  0  0
  -19.6709  -27.3215   20.6762 H   0  0  0  0  0  0
  -17.4214  -26.6737   21.3954 H   0  0  0  0  0  0
  -18.0269  -26.0048   22.8919 H   0  0  0  0  0  0
  -19.7832  -30.7284   24.2330 H   0  0  0  0  0  0
  -17.4895  -31.6243   24.5187 H   0  0  0  0  0  0
  -15.5274  -30.2985   23.7561 H   0  0  0  0  0  0
  -15.8658  -28.0852   22.6954 H   0  0  0  0  0  0
  -24.5962  -30.6951   25.7972 H   0  0  0  0  0  0
  -24.8991  -32.2781   26.5040 H   0  0  0  0  0  0
  -25.8236  -30.8859   27.0264 H   0  0  0  0  0  0
  -26.2760  -29.6829   24.1070 H   0  0  0  0  0  0
  -27.4087  -29.7204   25.4371 H   0  0  0  0  0  0
  -27.8556  -30.4381   23.9072 H   0  0  0  0  0  0
  -27.2621  -33.3553   26.2096 H   0  0  0  0  0  0
  -28.3799  -32.6890   25.0278 H   0  0  0  0  0  0
  -28.0728  -31.8399   26.5336 H   0  0  0  0  0  0
  -28.2587  -38.0115   24.7490 H   0  0  0  0  0  0
  -28.1073  -36.2631   24.6307 H   0  0  0  0  0  0
  -27.2303  -37.1491   25.8871 H   0  0  0  0  0  0
  -20.9293  -29.8608   21.6763 H   0  0  0  0  0  0
  -26.0168  -38.2852   24.1449 H   0  0  0  0  0  0
  -30.4558  -21.4436   20.4464 H   0  0  0  0  0  0
  -27.0005  -18.9632   21.1016 H   0  0  0  0  0  0
  -31.0662  -15.1653   23.6836 H   0  0  0  0  0  0
  -29.3090  -15.0102   23.5396 H   0  0  0  0  0  0
  -30.3614  -13.6378   23.1913 H   0  0  0  0  0  0
  -27.5877  -22.3291   21.9968 H   0  0  0  0  0  0
  -26.4488  -21.7357   20.8384 H   0  0  0  0  0  0
  -28.7968  -22.8303   19.4290 H   0  0  0  0  0  0
  -27.1101  -23.2159   19.2573 H   0  0  0  0  0  0
  -28.9116  -24.3099   21.4922 H   0  0  0  0  0  0
  -27.2549  -24.7706   21.1951 H   0  0  0  0  0  0
  -28.2583  -16.7899   21.2027 H   0  0  0  0  0  0
  -29.1935  -16.8227   19.7294 H   0  0  0  0  0  0
  -30.3838  -17.1225   22.5525 H   0  0  0  0  0  0
  -31.3355  -16.9485   21.1126 H   0  0  0  0  0  0
  -28.2079  -25.3858   18.7204 H   0  0  0  0  0  0
  -29.7405  -25.3591   19.5473 H   0  0  0  0  0  0
  1 25  1  0  0  0
  1 30  2  0  0  0
  1 83  1  0  0  0
  2  3  1  0  0  0
  2 25  1  0  0  0
  2 84  1  0  0  0
  2 85  1  0  0  0
  3  4  1  0  0  0
  3 86  1  0  0  0
  3 87  1  0  0  0
  4  5  1  0  0  0
  4 88  1  0  0  0
  4 89  1  0  0  0
  5  6  1  0  0  0
  5 26  1  0  0  0
  5 90  1  0  0  0
  6 25  1  0  0  0
  6 91  1  0  0  0
  6 92  1  0  0  0
  7  8  2  0  0  0
  7 26  1  0  0  0
  7 29  1  0  0  0
  8  9  1  0  0  0
  8 22  1  0  0  0
  9 10  1  0  0  0
  9 27  2  0  0  0
 10 11  2  0  0  0
 10 15  1  0  0  0
 11 12  1  0  0  0
 11 93  1  0  0  0
 12 13  2  0  0  0
 12 94  1  0  0  0
 13 14  1  0  0  0
 13 31  1  0  0  0
 14 15  2  0  0  0
 14 95  1  0  0  0
 15 96  1  0  0  0
 16 17  2  0  0  0
 16 21  1  0  0  0
 16 31  1  0  0  0
 17 18  1  0  0  0
 17 97  1  0  0  0
 18 19  2  0  0  0
 18 98  1  0  0  0
 19 20  1  0  0  0
 19 24  1  0  0  0
 20 21  2  0  0  0
 20 99  1  0  0  0
 21 23  1  0  0  0
 22 28  1  0  0  0
 22 32  2  0  0  0
 26 27  1  0  0  0
 28100  1  0  0  0
 28101  1  0  0  0
 29102  1  0  0  0
 29103  1  0  0  0
 33 34  1  0  0  0
 33 66  1  0  0  0
 33 70  2  0  0  0
 34 36  1  0  0  0
 34 59  1  0  0  0
 34104  1  0  0  0
 35 44  2  0  0  0
 35 45  1  0  0  0
 35 68  1  0  0  0
 36 56  1  0  0  0
 36105  1  0  0  0
 37 39  1  0  0  0
 37 47  1  0  0  0
 37 66  1  0  0  0
 37106  1  0  0  0
 38 43  2  0  0  0
 38 46  1  0  0  0
 38 47  1  0  0  0
 39 64  1  0  0  0
 39 67  2  0  0  0
 40 52  1  0  0  0
 40 53  2  0  0  0
 40 58  1  0  0  0
 41107  1  0  0  0
 41108  1  0  0  0
 41109  1  0  0  0
 41 48  1  0  0  0
 42 43  1  0  0  0
 42 66  1  0  0  0
 42110  1  0  0  0
 42111  1  0  0  0
 43 44  1  0  0  0
 44112  1  0  0  0
 45 46  2  0  0  0
 45113  1  0  0  0
 46114  1  0  0  0
 47115  1  0  0  0
 47116  1  0  0  0
 48 56  1  0  0  0
 48 65  1  0  0  0
 48117  1  0  0  0
 49 50  1  0  0  0
 49 53  1  0  0  0
 49 64  1  0  0  0
 49118  1  0  0  0
 50 51  1  0  0  0
 50119  1  0  0  0
 50120  1  0  0  0
 51 52  1  0  0  0
 51121  1  0  0  0
 51122  1  0  0  0
 52123  1  0  0  0
 52124  1  0  0  0
 53 54  1  0  0  0
 54 55  2  0  0  0
 54125  1  0  0  0
 55 57  1  0  0  0
 55126  1  0  0  0
 56 69  2  0  0  0
 57 58  2  0  0  0
 57127  1  0  0  0
 58128  1  0  0  0
 59 60  1  0  0  0
 59 61  1  0  0  0
 59 62  1  0  0  0
 60129  1  0  0  0
 60130  1  0  0  0
 60131  1  0  0  0
 61132  1  0  0  0
 61133  1  0  0  0
 61134  1  0  0  0
 62135  1  0  0  0
 62136  1  0  0  0
 62137  1  0  0  0
 63 65  1  0  0  0
 63138  1  0  0  0
 63139  1  0  0  0
 63140  1  0  0  0
 64141  1  0  0  0
 65142  1  0  0  0
 68 80  1  0  0  0
 71 73  1  0  0  0
 71 81  2  0  0  0
 71143  1  0  0  0
 72 73  2  0  0  0
 72 82  1  0  0  0
 72144  1  0  0  0
 73 75  1  0  0  0
 74 83  1  0  0  0
 74145  1  0  0  0
 74146  1  0  0  0
 74147  1  0  0  0
 75 76  1  0  0  0
 75148  1  0  0  0
 75149  1  0  0  0
 76 77  1  0  0  0
 76150  1  0  0  0
 76151  1  0  0  0
 77 80  1  0  0  0
 77152  1  0  0  0
 77153  1  0  0  0
 78 79  1  0  0  0
 78 82  1  0  0  0
 78154  1  0  0  0
 78155  1  0  0  0
 79 83  1  0  0  0
 79156  1  0  0  0
 79157  1  0  0  0
 80158  1  0  0  0
 80159  1  0  0  0
 81 82  1  0  0  0
M  ISO  4   1 100  68 101  80 101  83 100
M  END
> <chiral flag>
0

> <version>
0

> <s_m_source_file>
/data/baiqing/PycharmProjects/Reinvent-master-3.2/result/LINK_invent/BTK/process_docking_weight1_custom_sum_contain_oxygen_bond_distance_aromatic_linkinvent_7_9_3/rearranged_h_0050.sdf

> <i_m_source_file_index>
89

> <r_mmod_Potential_Energy-OPLS-2005>
61.5703201293945

> <r_mmod_Stretch_Energy-OPLS-2005>
34.4058876037598

> <r_mmod_Bend_Energy-OPLS-2005>
100.508155822754

> <r_mmod_Torsional_Energy-OPLS-2005>
273.845581054688

> <r_mmod_Improper_Torsional_Energy-OPLS-2005>
4.33873176574707

> <r_mmod_Van_der_Waal_Energy-OPLS-2005>
133.961212158203

> <r_mmod_Electrostatic_Energy-OPLS-2005>
-285.009613037109

> <r_mmod_Solvation_Energy-OPLS-2005>
-212.476272583008

> <b_mmod_Minimization_Converged-OPLS-2005>
0

> <r_mmod_RMS_Derivative-OPLS-2005>
6.26684522628784

$$$$
93
                    3D
 Structure written by MMmdl.
157165  0  0  1  0            999 V2000
  -30.7196  -14.4784   20.6444 C   0  0  0  0  0  0
  -30.4268  -12.3810   19.3569 C   0  0  0  0  0  0
  -29.4524  -12.5765   18.1767 C   0  0  0  0  0  0
  -28.0023  -12.3520   18.6277 C   0  0  0  0  0  0
  -27.6584  -13.1977   19.8788 C   0  0  2  0  0  0
  -28.7142  -12.9755   20.9852 C   0  0  0  0  0  0
  -25.2602  -13.8141   20.5692 C   0  0  0  0  0  0
  -24.1827  -13.0449   20.9168 C   0  0  0  0  0  0
  -24.6363  -11.6906   20.8737 C   0  0  0  0  0  0
  -23.9010  -10.4306   21.0397 C   0  0  0  0  0  0
  -24.3555   -9.4233   21.9196 C   0  0  0  0  0  0
  -23.6259   -8.2260   22.0758 C   0  0  0  0  0  0
  -22.4254   -8.0279   21.3544 C   0  0  0  0  0  0
  -21.9872   -9.0237   20.4638 C   0  0  0  0  0  0
  -22.7172  -10.2134   20.3053 C   0  0  0  0  0  0
  -21.6860   -6.0725   22.5265 C   0  0  0  0  0  0
  -21.4013   -6.5634   23.8193 C   0  0  0  0  0  0
  -21.3649   -5.6793   24.9162 C   0  0  0  0  0  0
  -21.6041   -4.3056   24.7218 C   0  0  0  0  0  0
  -21.8822   -3.8144   23.4345 C   0  0  0  0  0  0
  -21.9204   -4.6956   22.3401 C   0  0  0  0  0  0
  -22.7856  -13.5262   21.1846 C   0  0  0  0  0  0
  -22.1676   -4.2143   21.0981 F   0  0  0  0  0  0
  -21.5614   -3.4537   25.7735 F   0  0  0  0  0  0
  -30.0380  -13.3150   20.4317 N   0  0  0  0  0  0
  -26.3019  -12.9291   20.3434 N   0  0  0  0  0  0
  -25.9294  -11.6459   20.5793 N   0  0  0  0  0  0
  -22.0470  -12.8249   22.0364 N   0  0  0  0  0  0
  -25.4408  -15.1843   20.4065 N   0  0  0  0  0  0
  -31.8081  -14.7219   20.1182 O   0  0  0  0  0  0
  -21.6654   -6.8853   21.4224 O   0  0  0  0  0  0
  -22.3581  -14.5598   20.6726 O   0  0  0  0  0  0
  -24.6100  -31.8648   23.2108 C   0  0  0  0  0  0
  -25.8991  -32.4824   23.8410 C   0  0  1  0  0  0
  -27.2555  -27.4364   20.1183 C   0  0  0  0  0  0
  -25.5871  -33.8625   24.2344 N   0  0  0  0  0  0
  -23.3981  -30.4850   21.5482 C   0  0  2  0  0  0
  -24.8543  -28.9512   20.1052 C   0  0  0  0  0  0
  -22.7397  -29.4600   22.5000 C   0  0  0  0  0  0
  -18.0252  -28.1370   22.8483 C   0  0  0  0  0  0
  -24.1448  -36.7302   23.2645 C   0  0  0  0  0  0
  -25.9166  -30.8404   21.3494 C   0  0  0  0  0  0
  -26.0023  -29.4664   20.7154 C   0  0  0  0  0  0
  -27.1956  -28.7107   20.7319 C   0  0  0  0  0  0
  -26.0897  -26.9317   19.4974 C   0  0  0  0  0  0
  -24.8953  -27.6839   19.4884 C   0  0  0  0  0  0
  -23.6049  -29.8091   20.1619 C   0  0  0  0  0  0
  -25.4075  -36.3119   24.0348 C   0  0  1  0  0  0
  -20.5837  -28.3623   23.1352 C   0  0  2  0  0  0
  -20.6740  -26.9366   22.5435 C   0  0  0  0  0  0
  -19.5718  -26.6383   21.5224 C   0  0  0  0  0  0
  -18.1897  -26.7918   22.1629 C   0  0  0  0  0  0
  -19.1513  -28.8825   23.2901 C   0  0  0  0  0  0
  -18.9458  -30.1445   23.8877 C   0  0  0  0  0  0
  -17.6464  -30.6566   24.0597 C   0  0  0  0  0  0
  -25.9017  -34.9473   23.5150 C   0  0  0  0  0  0
  -16.5345  -29.9080   23.6343 C   0  0  0  0  0  0
  -16.7252  -28.6528   23.0299 C   0  0  0  0  0  0
  -26.4434  -31.6600   25.0725 C   0  0  0  0  0  0
  -25.3751  -31.3610   26.1513 C   0  0  0  0  0  0
  -27.0261  -30.3103   24.5944 C   0  0  0  0  0  0
  -27.6011  -32.4309   25.7492 C   0  0  0  0  0  0
  -27.5522  -37.1807   24.8473 C   0  0  0  0  0  0
  -21.4123  -29.2984   22.3777 N   0  0  0  0  0  0
  -26.4245  -37.3817   23.9427 N   0  0  0  0  0  0
  -24.6610  -31.0759   22.0984 N   0  0  0  0  0  0
  -23.4193  -28.8147   23.3025 O   0  0  0  0  0  0
  -28.4417  -26.7307   20.2162 O   0  0  0  0  0  0
  -26.5579  -34.8909   22.4700 O   0  0  0  0  0  0
  -23.5309  -32.1372   23.7530 O   0  0  0  0  0  0
  -28.0672  -22.4214   20.7083 C   0  0  0  0  0  0
  -30.1168  -23.5467   19.3657 C   0  0  0  0  0  0
  -29.1634  -21.6339   20.2620 C   0  0  0  0  0  0
  -28.9830  -24.3147   19.7413 C   0  0  0  0  0  0
  -31.4038  -19.7812   21.1595 C   0  0  0  0  0  0
  -29.0923  -20.0945   20.2545 C   0  0  0  0  0  0
  -28.8205  -25.7559   19.2349 C   0  0  0  0  0  0
  -30.5146  -16.7835   21.7296 C   0  0  0  0  0  0
  -29.8930  -17.8320   20.7572 C   0  0  0  0  0  0
  -30.2076  -22.2145   19.6121 N   0  0  0  0  0  0
  -27.9663  -23.7538   20.4455 N   0  0  0  0  0  0
  -30.0898  -15.3987   21.4032 N   0  0  0  0  0  0
  -30.0054  -19.2852   21.1273 N   0  3  1  0  0  0
  -31.4450  -12.5526   19.0061 H   0  0  0  0  0  0
  -30.3971  -11.3491   19.7097 H   0  0  0  0  0  0
  -29.6947  -11.9112   17.3476 H   0  0  0  0  0  0
  -29.5463  -13.5937   17.7895 H   0  0  0  0  0  0
  -27.8761  -11.2908   18.8477 H   0  0  0  0  0  0
  -27.3073  -12.5787   17.8189 H   0  0  0  0  0  0
  -27.6998  -14.2439   19.5790 H   0  0  0  0  0  0
  -28.7147  -11.9307   21.2981 H   0  0  0  0  0  0
  -28.4601  -13.5455   21.8810 H   0  0  0  0  0  0
  -25.2663   -9.5765   22.4799 H   0  0  0  0  0  0
  -23.9974   -7.4674   22.7503 H   0  0  0  0  0  0
  -21.0792   -8.8738   19.8942 H   0  0  0  0  0  0
  -22.3587  -10.9679   19.6187 H   0  0  0  0  0  0
  -21.1997   -7.6146   23.9689 H   0  0  0  0  0  0
  -21.1447   -6.0529   25.9060 H   0  0  0  0  0  0
  -22.0598   -2.7609   23.2857 H   0  0  0  0  0  0
  -22.4018  -11.9847   22.4696 H   0  0  0  0  0  0
  -21.1102  -13.1320   22.2570 H   0  0  0  0  0  0
  -24.6750  -15.8457   20.4683 H   0  0  0  0  0  0
  -26.3087  -15.6109   20.1069 H   0  0  0  0  0  0
  -26.7060  -32.5568   23.1183 H   0  0  0  0  0  0
  -25.0121  -33.9835   25.0557 H   0  0  0  0  0  0
  -22.6835  -31.3002   21.4081 H   0  0  0  0  0  0
  -23.3718  -35.9621   23.3344 H   0  0  0  0  0  0
  -24.3526  -36.8879   22.2048 H   0  0  0  0  0  0
  -23.7168  -37.6506   23.6638 H   0  0  0  0  0  0
  -25.9830  -31.5863   20.5564 H   0  0  0  0  0  0
  -26.8234  -30.9368   21.9349 H   0  0  0  0  0  0
  -28.0752  -29.0972   21.2287 H   0  0  0  0  0  0
  -26.0822  -25.9469   19.0493 H   0  0  0  0  0  0
  -24.0184  -27.2781   19.0049 H   0  0  0  0  0  0
  -23.6923  -30.5821   19.3972 H   0  0  0  0  0  0
  -22.7340  -29.2158   19.8797 H   0  0  0  0  0  0
  -25.1225  -36.2004   25.0839 H   0  0  0  0  0  0
  -20.9932  -28.3181   24.1475 H   0  0  0  0  0  0
  -20.5653  -26.2214   23.3601 H   0  0  0  0  0  0
  -21.6606  -26.7401   22.1205 H   0  0  0  0  0  0
  -19.6884  -25.6323   21.1176 H   0  0  0  0  0  0
  -19.6671  -27.3271   20.6824 H   0  0  0  0  0  0
  -17.4171  -26.6698   21.4022 H   0  0  0  0  0  0
  -18.0266  -26.0036   22.9007 H   0  0  0  0  0  0
  -19.7946  -30.7280   24.2185 H   0  0  0  0  0  0
  -17.5023  -31.6225   24.5233 H   0  0  0  0  0  0
  -15.5358  -30.2985   23.7674 H   0  0  0  0  0  0
  -15.8648  -28.0901   22.6923 H   0  0  0  0  0  0
  -24.5996  -30.6848   25.7891 H   0  0  0  0  0  0
  -24.8857  -32.2704   26.5015 H   0  0  0  0  0  0
  -25.8215  -30.8818   27.0240 H   0  0  0  0  0  0
  -26.2792  -29.6945   24.0936 H   0  0  0  0  0  0
  -27.4069  -29.7230   25.4294 H   0  0  0  0  0  0
  -27.8557  -30.4521   23.9017 H   0  0  0  0  0  0
  -27.2666  -33.3652   26.2002 H   0  0  0  0  0  0
  -28.3872  -32.6795   25.0356 H   0  0  0  0  0  0
  -28.0586  -31.8454   26.5474 H   0  0  0  0  0  0
  -28.2584  -38.0067   24.7520 H   0  0  0  0  0  0
  -28.0980  -36.2610   24.6323 H   0  0  0  0  0  0
  -27.2239  -37.1462   25.8878 H   0  0  0  0  0  0
  -20.9281  -29.8770   21.7058 H   0  0  0  0  0  0
  -26.0132  -38.2875   24.1532 H   0  0  0  0  0  0
  -27.2214  -21.9595   21.1979 H   0  0  0  0  0  0
  -30.9362  -23.9876   18.8155 H   0  0  0  0  0  0
  -31.4456  -20.8212   21.4840 H   0  0  0  0  0  0
  -31.8648  -19.7204   20.1732 H   0  0  0  0  0  0
  -32.0153  -19.2154   21.8639 H   0  0  0  0  0  0
  -29.2429  -19.7859   19.2192 H   0  0  0  0  0  0
  -28.0672  -19.8117   20.4937 H   0  0  0  0  0  0
  -28.1800  -25.7617   18.3542 H   0  0  0  0  0  0
  -29.7973  -26.0841   18.8765 H   0  0  0  0  0  0
  -30.1885  -16.9923   22.7496 H   0  0  0  0  0  0
  -31.6050  -16.8545   21.7368 H   0  0  0  0  0  0
  -28.8313  -17.5980   20.6699 H   0  0  0  0  0  0
  -30.3198  -17.6943   19.7611 H   0  0  0  0  0  0
  -29.1902  -15.1149   21.7646 H   0  0  0  0  0  0
  -29.6473  -19.3865   22.0655 H   0  0  0  0  0  0
  1 25  1  0  0  0
  1 30  2  0  0  0
  1 82  1  0  0  0
  2  3  1  0  0  0
  2 25  1  0  0  0
  2 84  1  0  0  0
  2 85  1  0  0  0
  3  4  1  0  0  0
  3 86  1  0  0  0
  3 87  1  0  0  0
  4  5  1  0  0  0
  4 88  1  0  0  0
  4 89  1  0  0  0
  5  6  1  0  0  0
  5 26  1  0  0  0
  5 90  1  0  0  0
  6 25  1  0  0  0
  6 91  1  0  0  0
  6 92  1  0  0  0
  7  8  2  0  0  0
  7 26  1  0  0  0
  7 29  1  0  0  0
  8  9  1  0  0  0
  8 22  1  0  0  0
  9 10  1  0  0  0
  9 27  2  0  0  0
 10 11  2  0  0  0
 10 15  1  0  0  0
 11 12  1  0  0  0
 11 93  1  0  0  0
 12 13  2  0  0  0
 12 94  1  0  0  0
 13 14  1  0  0  0
 13 31  1  0  0  0
 14 15  2  0  0  0
 14 95  1  0  0  0
 15 96  1  0  0  0
 16 17  2  0  0  0
 16 21  1  0  0  0
 16 31  1  0  0  0
 17 18  1  0  0  0
 17 97  1  0  0  0
 18 19  2  0  0  0
 18 98  1  0  0  0
 19 20  1  0  0  0
 19 24  1  0  0  0
 20 21  2  0  0  0
 20 99  1  0  0  0
 21 23  1  0  0  0
 22 28  1  0  0  0
 22 32  2  0  0  0
 26 27  1  0  0  0
 28100  1  0  0  0
 28101  1  0  0  0
 29102  1  0  0  0
 29103  1  0  0  0
 33 34  1  0  0  0
 33 66  1  0  0  0
 33 70  2  0  0  0
 34 36  1  0  0  0
 34 59  1  0  0  0
 34104  1  0  0  0
 35 44  2  0  0  0
 35 45  1  0  0  0
 35 68  1  0  0  0
 36 56  1  0  0  0
 36105  1  0  0  0
 37 39  1  0  0  0
 37 47  1  0  0  0
 37 66  1  0  0  0
 37106  1  0  0  0
 38 43  2  0  0  0
 38 46  1  0  0  0
 38 47  1  0  0  0
 39 64  1  0  0  0
 39 67  2  0  0  0
 40 52  1  0  0  0
 40 53  2  0  0  0
 40 58  1  0  0  0
 41107  1  0  0  0
 41108  1  0  0  0
 41109  1  0  0  0
 41 48  1  0  0  0
 42 43  1  0  0  0
 42 66  1  0  0  0
 42110  1  0  0  0
 42111  1  0  0  0
 43 44  1  0  0  0
 44112  1  0  0  0
 45 46  2  0  0  0
 45113  1  0  0  0
 46114  1  0  0  0
 47115  1  0  0  0
 47116  1  0  0  0
 48 56  1  0  0  0
 48 65  1  0  0  0
 48117  1  0  0  0
 49 50  1  0  0  0
 49 53  1  0  0  0
 49 64  1  0  0  0
 49118  1  0  0  0
 50 51  1  0  0  0
 50119  1  0  0  0
 50120  1  0  0  0
 51 52  1  0  0  0
 51121  1  0  0  0
 51122  1  0  0  0
 52123  1  0  0  0
 52124  1  0  0  0
 53 54  1  0  0  0
 54 55  2  0  0  0
 54125  1  0  0  0
 55 57  1  0  0  0
 55126  1  0  0  0
 56 69  2  0  0  0
 57 58  2  0  0  0
 57127  1  0  0  0
 58128  1  0  0  0
 59 60  1  0  0  0
 59 61  1  0  0  0
 59 62  1  0  0  0
 60129  1  0  0  0
 60130  1  0  0  0
 60131  1  0  0  0
 61132  1  0  0  0
 61133  1  0  0  0
 61134  1  0  0  0
 62135  1  0  0  0
 62136  1  0  0  0
 62137  1  0  0  0
 63 65  1  0  0  0
 63138  1  0  0  0
 63139  1  0  0  0
 63140  1  0  0  0
 64141  1  0  0  0
 65142  1  0  0  0
 68 77  1  0  0  0
 71 73  2  0  0  0
 71 81  1  0  0  0
 71143  1  0  0  0
 72 74  1  0  0  0
 72 80  2  0  0  0
 72144  1  0  0  0
 73 76  1  0  0  0
 73 80  1  0  0  0
 74 77  1  0  0  0
 74 81  2  0  0  0
 75145  1  0  0  0
 75146  1  0  0  0
 75147  1  0  0  0
 75 83  1  0  0  0
 76 83  1  0  0  0
 76148  1  0  0  0
 76149  1  0  0  0
 77150  1  0  0  0
 77151  1  0  0  0
 78 79  1  0  0  0
 78 82  1  0  0  0
 78152  1  0  0  0
 78153  1  0  0  0
 79 83  1  0  0  0
 79154  1  0  0  0
 79155  1  0  0  0
 82156  1  0  0  0
 83157  1  0  0  0
M  CHG  1  83   1
M  ISO  4   1 100  68 101  77 101  82 100
M  END
> <chiral flag>
0

> <version>
0

> <s_m_source_file>
/data/baiqing/PycharmProjects/Reinvent-master-3.2/result/LINK_invent/BTK/process_docking_weight1_custom_sum_contain_oxygen_bond_distance_aromatic_linkinvent_7_9_3/rearranged_h_0050.sdf

> <i_m_source_file_index>
90

> <r_mmod_Potential_Energy-OPLS-2005>
-162.292404174805

> <r_mmod_Stretch_Energy-OPLS-2005>
45.4715270996094

> <r_mmod_Bend_Energy-OPLS-2005>
121.607711791992

> <r_mmod_Torsional_Energy-OPLS-2005>
207.968444824219

> <r_mmod_Improper_Torsional_Energy-OPLS-2005>
4.08131504058838

> <r_mmod_Van_der_Waal_Energy-OPLS-2005>
156.37922668457

> <r_mmod_Electrostatic_Energy-OPLS-2005>
-230.298217773438

> <r_mmod_Solvation_Energy-OPLS-2005>
-484.372894287109

> <b_mmod_Minimization_Converged-OPLS-2005>
0

> <r_mmod_RMS_Derivative-OPLS-2005>
4.54292678833008

$$$$
