0
                    3D
 Structure written by MMmdl.
174183  0  0  1  0            999 V2000
  -30.6358  -14.5049   20.5383 C   0  0  0  0  0  0
  -30.4406  -12.3129   19.4321 C   0  0  0  0  0  0
  -29.5066  -12.5073   18.2164 C   0  0  0  0  0  0
  -28.0245  -12.3628   18.6234 C   0  0  0  0  0  0
  -27.6660  -13.1952   19.8817 C   0  0  2  0  0  0
  -28.7073  -12.9546   21.0017 C   0  0  0  0  0  0
  -25.2610  -13.8122   20.5684 C   0  0  0  0  0  0
  -24.1843  -13.0419   20.9166 C   0  0  0  0  0  0
  -24.6394  -11.6885   20.8726 C   0  0  0  0  0  0
  -23.9057  -10.4276   21.0396 C   0  0  0  0  0  0
  -24.3608   -9.4195   21.9170 C   0  0  0  0  0  0
  -23.6285   -8.2238   22.0747 C   0  0  0  0  0  0
  -22.4265   -8.0280   21.3542 C   0  0  0  0  0  0
  -21.9904   -9.0252   20.4641 C   0  0  0  0  0  0
  -22.7235  -10.2128   20.3052 C   0  0  0  0  0  0
  -21.6857   -6.0736   22.5285 C   0  0  0  0  0  0
  -21.4005   -6.5639   23.8215 C   0  0  0  0  0  0
  -21.3658   -5.6789   24.9178 C   0  0  0  0  0  0
  -21.6047   -4.3049   24.7222 C   0  0  0  0  0  0
  -21.8817   -3.8150   23.4347 C   0  0  0  0  0  0
  -21.9189   -4.6972   22.3403 C   0  0  0  0  0  0
  -22.7873  -13.5234   21.1839 C   0  0  0  0  0  0
  -22.1661   -4.2169   21.0983 F   0  0  0  0  0  0
  -21.5635   -3.4518   25.7727 F   0  0  0  0  0  0
  -30.0409  -13.2828   20.4627 N   0  0  0  0  0  0
  -26.3046  -12.9271   20.3383 N   0  0  0  0  0  0
  -25.9315  -11.6446   20.5755 N   0  0  0  0  0  0
  -22.0519  -12.8220   22.0392 N   0  0  0  0  0  0
  -25.4323  -15.1845   20.4124 N   0  0  0  0  0  0
  -31.7602  -14.7399   20.0859 O   0  0  0  0  0  0
  -21.6639   -6.8877   21.4240 O   0  0  0  0  0  0
  -22.3557  -14.5543   20.6705 O   0  0  0  0  0  0
  -24.6152  -31.8666   23.2075 C   0  0  0  0  0  0
  -25.9042  -32.4814   23.8376 C   0  0  1  0  0  0
  -27.2425  -27.4245   20.1054 C   0  0  0  0  0  0
  -25.5894  -33.8613   24.2315 N   0  0  0  0  0  0
  -23.4041  -30.4870   21.5482 C   0  0  2  0  0  0
  -24.8517  -28.9441   20.1213 C   0  0  0  0  0  0
  -22.7410  -29.4655   22.4999 C   0  0  0  0  0  0
  -18.0274  -28.1382   22.8495 C   0  0  0  0  0  0
  -24.1488  -36.7313   23.2639 C   0  0  0  0  0  0
  -25.9320  -30.8290   21.3599 C   0  0  0  0  0  0
  -26.0109  -29.4603   20.7128 C   0  0  0  0  0  0
  -27.2094  -28.7103   20.6943 C   0  0  0  0  0  0
  -26.0647  -26.9186   19.5127 C   0  0  0  0  0  0
  -24.8739  -27.6731   19.5184 C   0  0  0  0  0  0
  -23.6130  -29.8116   20.1657 C   0  0  0  0  0  0
  -25.4110  -36.3109   24.0335 C   0  0  1  0  0  0
  -20.5862  -28.3667   23.1323 C   0  0  2  0  0  0
  -20.6769  -26.9405   22.5422 C   0  0  0  0  0  0
  -19.5749  -26.6390   21.5217 C   0  0  0  0  0  0
  -18.1923  -26.7930   22.1622 C   0  0  0  0  0  0
  -19.1522  -28.8844   23.2903 C   0  0  0  0  0  0
  -18.9450  -30.1448   23.8915 C   0  0  0  0  0  0
  -17.6453  -30.6586   24.0569 C   0  0  0  0  0  0
  -25.9035  -34.9474   23.5125 C   0  0  0  0  0  0
  -16.5345  -29.9090   23.6326 C   0  0  0  0  0  0
  -16.7264  -28.6507   23.0350 C   0  0  0  0  0  0
  -26.4476  -31.6597   25.0707 C   0  0  0  0  0  0
  -25.3746  -31.3701   26.1457 C   0  0  0  0  0  0
  -27.0305  -30.3041   24.6077 C   0  0  0  0  0  0
  -27.6050  -32.4323   25.7467 C   0  0  0  0  0  0
  -27.5584  -37.1810   24.8466 C   0  0  0  0  0  0
  -21.4138  -29.3029   22.3731 N   0  0  0  0  0  0
  -26.4301  -37.3792   23.9408 N   0  0  0  0  0  0
  -24.6689  -31.0758   22.0971 N   0  0  0  0  0  0
  -23.4178  -28.8214   23.3057 O   0  0  0  0  0  0
  -28.4342  -26.7298   20.0667 O   0  0  0  0  0  0
  -26.5600  -34.8929   22.4688 O   0  0  0  0  0  0
  -23.5341  -32.1422   23.7463 O   0  0  0  0  0  0
  -31.2741  -21.9715   17.7267 C   0  0  0  0  0  0
  -30.0132  -21.5665   19.7451 C   0  0  0  0  0  0
  -31.2264  -19.7374   18.6801 C   0  0  0  0  0  0
  -30.5052  -22.5119   18.7921 C   0  0  0  0  0  0
  -31.6332  -20.6147   17.6658 C   0  0  0  0  0  0
  -30.3969  -20.1920   19.7255 C   0  0  0  0  0  0
  -30.0875  -25.6944   17.3411 C   0  0  0  0  0  0
  -31.2313  -24.9473   18.0198 C   0  0  0  0  0  0
  -29.2556  -24.4386   17.5927 C   0  0  0  0  0  0
  -30.1836  -24.0568   18.7828 C   0  0  0  0  0  0
  -32.4456  -20.1039   16.4916 C   0  0  0  0  0  0
  -30.4490  -24.0690   21.4579 C   0  0  0  0  0  0
  -29.5445  -16.7942   18.7984 C   0  0  0  0  0  0
  -30.4914  -17.9450   20.9240 C   0  0  0  0  0  0
  -28.4436  -25.3286   20.4083 C   0  0  0  0  0  0
  -29.8756  -24.7372   20.1906 C   0  0  2  0  0  0
  -29.5852  -16.8286   20.3390 C   0  0  2  0  0  0
  -29.9448  -19.3026   20.7265 N   0  0  0  0  0  0
  -29.7880  -15.4844   20.9171 N   0  0  0  0  0  0
  -31.4834  -12.4355   19.1333 H   0  0  0  0  0  0
  -30.3593  -11.2971   19.8212 H   0  0  0  0  0  0
  -29.7504  -11.7880   17.4341 H   0  0  0  0  0  0
  -29.6696  -13.4949   17.7816 H   0  0  0  0  0  0
  -27.8336  -11.3055   18.8116 H   0  0  0  0  0  0
  -27.3785  -12.6427   17.7911 H   0  0  0  0  0  0
  -27.7053  -14.2444   19.5878 H   0  0  0  0  0  0
  -28.6865  -11.9101   21.3143 H   0  0  0  0  0  0
  -28.4697  -13.5262   21.8999 H   0  0  0  0  0  0
  -25.2756   -9.5674   22.4741 H   0  0  0  0  0  0
  -24.0001   -7.4619   22.7458 H   0  0  0  0  0  0
  -21.0834   -8.8772   19.8936 H   0  0  0  0  0  0
  -22.3696  -10.9666   19.6163 H   0  0  0  0  0  0
  -21.1997   -7.6144   23.9723 H   0  0  0  0  0  0
  -21.1486   -6.0518   25.9078 H   0  0  0  0  0  0
  -22.0601   -2.7617   23.2843 H   0  0  0  0  0  0
  -22.4128  -11.9877   22.4792 H   0  0  0  0  0  0
  -21.1146  -13.1265   22.2601 H   0  0  0  0  0  0
  -24.6612  -15.8347   20.5191 H   0  0  0  0  0  0
  -26.2856  -15.6273   20.0968 H   0  0  0  0  0  0
  -26.7116  -32.5530   23.1141 H   0  0  0  0  0  0
  -25.0060  -33.9775   25.0471 H   0  0  0  0  0  0
  -22.6933  -31.3032   21.4049 H   0  0  0  0  0  0
  -23.3745  -35.9651   23.3316 H   0  0  0  0  0  0
  -24.3579  -36.8914   22.2050 H   0  0  0  0  0  0
  -23.7244  -37.6524   23.6644 H   0  0  0  0  0  0
  -26.0423  -31.5919   20.5879 H   0  0  0  0  0  0
  -26.8203  -30.8869   21.9771 H   0  0  0  0  0  0
  -28.1098  -29.1116   21.1389 H   0  0  0  0  0  0
  -26.0630  -25.9543   19.0253 H   0  0  0  0  0  0
  -23.9843  -27.2718   19.0537 H   0  0  0  0  0  0
  -23.7202  -30.5818   19.4010 H   0  0  0  0  0  0
  -22.7376  -29.2281   19.8739 H   0  0  0  0  0  0
  -25.1287  -36.1978   25.0828 H   0  0  0  0  0  0
  -20.9949  -28.3236   24.1445 H   0  0  0  0  0  0
  -20.5687  -26.2273   23.3606 H   0  0  0  0  0  0
  -21.6640  -26.7465   22.1205 H   0  0  0  0  0  0
  -19.6914  -25.6304   21.1241 H   0  0  0  0  0  0
  -19.6693  -27.3211   20.6756 H   0  0  0  0  0  0
  -17.4199  -26.6688   21.4018 H   0  0  0  0  0  0
  -18.0319  -26.0065   22.9011 H   0  0  0  0  0  0
  -19.7924  -30.7262   24.2293 H   0  0  0  0  0  0
  -17.5006  -31.6269   24.5169 H   0  0  0  0  0  0
  -15.5346  -30.3001   23.7637 H   0  0  0  0  0  0
  -15.8661  -28.0832   22.7056 H   0  0  0  0  0  0
  -24.5910  -30.7062   25.7793 H   0  0  0  0  0  0
  -24.8950  -32.2855   26.4930 H   0  0  0  0  0  0
  -25.8101  -30.8849   27.0200 H   0  0  0  0  0  0
  -26.2838  -29.6798   24.1155 H   0  0  0  0  0  0
  -27.4107  -29.7284   25.4526 H   0  0  0  0  0  0
  -27.8660  -30.4365   23.9198 H   0  0  0  0  0  0
  -27.2663  -33.3606   26.2080 H   0  0  0  0  0  0
  -28.3835  -32.6913   25.0279 H   0  0  0  0  0  0
  -28.0747  -31.8430   26.5352 H   0  0  0  0  0  0
  -28.2612  -38.0099   24.7506 H   0  0  0  0  0  0
  -28.1070  -36.2629   24.6302 H   0  0  0  0  0  0
  -27.2301  -37.1474   25.8871 H   0  0  0  0  0  0
  -20.9311  -29.8724   21.6922 H   0  0  0  0  0  0
  -26.0191  -38.2875   24.1398 H   0  0  0  0  0  0
  -31.5927  -22.5699   16.8909 H   0  0  0  0  0  0
  -29.3241  -21.8868   20.5070 H   0  0  0  0  0  0
  -31.5303  -18.7043   18.6108 H   0  0  0  0  0  0
  -30.2532  -25.9303   16.2892 H   0  0  0  0  0  0
  -29.7496  -26.5672   17.9004 H   0  0  0  0  0  0
  -31.8741  -25.5739   18.6390 H   0  0  0  0  0  0
  -31.8560  -24.4885   17.2616 H   0  0  0  0  0  0
  -29.3302  -23.7459   16.7523 H   0  0  0  0  0  0
  -28.2068  -24.6237   17.8150 H   0  0  0  0  0  0
  -33.2998  -20.7553   16.3035 H   0  0  0  0  0  0
  -31.8298  -20.0798   15.5914 H   0  0  0  0  0  0
  -32.8200  -19.0951   16.6717 H   0  0  0  0  0  0
  -31.4133  -23.5983   21.2642 H   0  0  0  0  0  0
  -29.7766  -23.3381   21.9004 H   0  0  0  0  0  0
  -30.6147  -24.8188   22.2330 H   0  0  0  0  0  0
  -29.2165  -17.7530   18.3963 H   0  0  0  0  0  0
  -28.8416  -16.0452   18.4325 H   0  0  0  0  0  0
  -30.5210  -16.5712   18.3672 H   0  0  0  0  0  0
  -31.5170  -17.8541   20.5660 H   0  0  0  0  0  0
  -30.5543  -17.7996   22.0036 H   0  0  0  0  0  0
  -28.1823  -25.2667   21.4656 H   0  0  0  0  0  0
  -27.6869  -24.7406   19.8929 H   0  0  0  0  0  0
  -30.4686  -25.6509   20.2129 H   0  0  0  0  0  0
  -28.5702  -17.0722   20.6576 H   0  0  0  0  0  0
  -29.3686  -19.6782   21.4756 H   0  0  0  0  0  0
  -28.9712  -15.1263   21.3892 H   0  0  0  0  0  0
  1 25  1  0  0  0
  1 30  2  0  0  0
  1 89  1  0  0  0
  2  3  1  0  0  0
  2 25  1  0  0  0
  2 90  1  0  0  0
  2 91  1  0  0  0
  3  4  1  0  0  0
  3 92  1  0  0  0
  3 93  1  0  0  0
  4  5  1  0  0  0
  4 94  1  0  0  0
  4 95  1  0  0  0
  5  6  1  0  0  0
  5 26  1  0  0  0
  5 96  1  0  0  0
  6 25  1  0  0  0
  6 97  1  0  0  0
  6 98  1  0  0  0
  7  8  2  0  0  0
  7 26  1  0  0  0
  7 29  1  0  0  0
  8  9  1  0  0  0
  8 22  1  0  0  0
  9 10  1  0  0  0
  9 27  2  0  0  0
 10 11  2  0  0  0
 10 15  1  0  0  0
 11 12  1  0  0  0
 11 99  1  0  0  0
 12 13  2  0  0  0
 12100  1  0  0  0
 13 14  1  0  0  0
 13 31  1  0  0  0
 14 15  2  0  0  0
 14101  1  0  0  0
 15102  1  0  0  0
 16 17  2  0  0  0
 16 21  1  0  0  0
 16 31  1  0  0  0
 17 18  1  0  0  0
 17103  1  0  0  0
 18 19  2  0  0  0
 18104  1  0  0  0
 19 20  1  0  0  0
 19 24  1  0  0  0
 20 21  2  0  0  0
 20105  1  0  0  0
 21 23  1  0  0  0
 22 28  1  0  0  0
 22 32  2  0  0  0
 26 27  1  0  0  0
 28106  1  0  0  0
 28107  1  0  0  0
 29108  1  0  0  0
 29109  1  0  0  0
 33 34  1  0  0  0
 33 66  1  0  0  0
 33 70  2  0  0  0
 34 36  1  0  0  0
 34 59  1  0  0  0
 34110  1  0  0  0
 35 44  2  0  0  0
 35 45  1  0  0  0
 35 68  1  0  0  0
 36 56  1  0  0  0
 36111  1  0  0  0
 37 39  1  0  0  0
 37 47  1  0  0  0
 37 66  1  0  0  0
 37112  1  0  0  0
 38 43  2  0  0  0
 38 46  1  0  0  0
 38 47  1  0  0  0
 39 64  1  0  0  0
 39 67  2  0  0  0
 40 52  1  0  0  0
 40 53  2  0  0  0
 40 58  1  0  0  0
 41113  1  0  0  0
 41114  1  0  0  0
 41115  1  0  0  0
 41 48  1  0  0  0
 42 43  1  0  0  0
 42 66  1  0  0  0
 42116  1  0  0  0
 42117  1  0  0  0
 43 44  1  0  0  0
 44118  1  0  0  0
 45 46  2  0  0  0
 45119  1  0  0  0
 46120  1  0  0  0
 47121  1  0  0  0
 47122  1  0  0  0
 48 56  1  0  0  0
 48 65  1  0  0  0
 48123  1  0  0  0
 49 50  1  0  0  0
 49 53  1  0  0  0
 49 64  1  0  0  0
 49124  1  0  0  0
 50 51  1  0  0  0
 50125  1  0  0  0
 50126  1  0  0  0
 51 52  1  0  0  0
 51127  1  0  0  0
 51128  1  0  0  0
 52129  1  0  0  0
 52130  1  0  0  0
 53 54  1  0  0  0
 54 55  2  0  0  0
 54131  1  0  0  0
 55 57  1  0  0  0
 55132  1  0  0  0
 56 69  2  0  0  0
 57 58  2  0  0  0
 57133  1  0  0  0
 58134  1  0  0  0
 59 60  1  0  0  0
 59 61  1  0  0  0
 59 62  1  0  0  0
 60135  1  0  0  0
 60136  1  0  0  0
 60137  1  0  0  0
 61138  1  0  0  0
 61139  1  0  0  0
 61140  1  0  0  0
 62141  1  0  0  0
 62142  1  0  0  0
 62143  1  0  0  0
 63 65  1  0  0  0
 63144  1  0  0  0
 63145  1  0  0  0
 63146  1  0  0  0
 64147  1  0  0  0
 65148  1  0  0  0
 68 85  1  0  0  0
 71 74  2  0  0  0
 71 75  1  0  0  0
 71149  1  0  0  0
 72 74  1  0  0  0
 72 76  2  0  0  0
 72150  1  0  0  0
 73 75  2  0  0  0
 73 76  1  0  0  0
 73151  1  0  0  0
 74 80  1  0  0  0
 75 81  1  0  0  0
 76 88  1  0  0  0
 77 78  1  0  0  0
 77 79  1  0  0  0
 77152  1  0  0  0
 77153  1  0  0  0
 78 80  1  0  0  0
 78154  1  0  0  0
 78155  1  0  0  0
 79 80  1  0  0  0
 79156  1  0  0  0
 79157  1  0  0  0
 80 86  1  0  0  0
 81158  1  0  0  0
 81159  1  0  0  0
 81160  1  0  0  0
 82161  1  0  0  0
 82162  1  0  0  0
 82163  1  0  0  0
 82 86  1  0  0  0
 83164  1  0  0  0
 83165  1  0  0  0
 83166  1  0  0  0
 83 87  1  0  0  0
 84 87  1  0  0  0
 84 88  1  0  0  0
 84167  1  0  0  0
 84168  1  0  0  0
 85 86  1  0  0  0
 85169  1  0  0  0
 85170  1  0  0  0
 86171  1  0  0  0
 87 89  1  0  0  0
 87172  1  0  0  0
 88173  1  0  0  0
 89174  1  0  0  0
M  ISO  4   1 100  68 101  85 101  89 100
M  END
> <chiral flag>
0

> <version>
0

> <s_m_source_file>
/data/baiqing/PycharmProjects/Reinvent-master-3.2/result/LINK_invent/BTK/process_docking_weight1_custom_sum_contain_oxygen_bond_distance_aromatic_linkinvent_7_9_3/rearranged_h_0159.sdf

> <i_m_source_file_index>
1

> <r_mmod_Potential_Energy-OPLS-2005>
57.9768867492676

> <r_mmod_Stretch_Energy-OPLS-2005>
57.4444580078125

> <r_mmod_Bend_Energy-OPLS-2005>
177.483673095703

> <r_mmod_Torsional_Energy-OPLS-2005>
273.097869873047

> <r_mmod_Improper_Torsional_Energy-OPLS-2005>
8.64348793029785

> <r_mmod_Van_der_Waal_Energy-OPLS-2005>
169.147994995117

> <r_mmod_Electrostatic_Energy-OPLS-2005>
-433.41015625

> <r_mmod_Solvation_Energy-OPLS-2005>
-209.775543212891

> <b_mmod_Minimization_Converged-OPLS-2005>
0

> <r_mmod_RMS_Derivative-OPLS-2005>
1.65325701236725

$$$$
1
                    3D
 Structure written by MMmdl.
160169  0  0  1  0            999 V2000
  -30.4233  -15.3195   20.3929 C   0  0  0  0  0  0
  -30.4403  -12.8591   19.5213 C   0  0  0  0  0  0
  -29.5258  -12.6111   18.2924 C   0  0  0  0  0  0
  -28.0830  -12.3080   18.7317 C   0  0  0  0  0  0
  -27.6104  -13.2725   19.8481 C   0  0  2  0  0  0
  -28.6603  -13.4032   20.9735 C   0  0  0  0  0  0
  -25.2278  -13.8119   20.5934 C   0  0  0  0  0  0
  -24.1637  -13.0288   20.9311 C   0  0  0  0  0  0
  -24.6357  -11.6819   20.8774 C   0  0  0  0  0  0
  -23.9072  -10.4190   21.0405 C   0  0  0  0  0  0
  -24.3614   -9.4105   21.9180 C   0  0  0  0  0  0
  -23.6269   -8.2154   22.0746 C   0  0  0  0  0  0
  -22.4252   -8.0224   21.3532 C   0  0  0  0  0  0
  -21.9902   -9.0193   20.4627 C   0  0  0  0  0  0
  -22.7259  -10.2048   20.3044 C   0  0  0  0  0  0
  -21.6821   -6.0718   22.5293 C   0  0  0  0  0  0
  -21.3985   -6.5625   23.8231 C   0  0  0  0  0  0
  -21.3662   -5.6784   24.9197 C   0  0  0  0  0  0
  -21.6054   -4.3050   24.7244 C   0  0  0  0  0  0
  -21.8812   -3.8140   23.4367 C   0  0  0  0  0  0
  -21.9174   -4.6949   22.3418 C   0  0  0  0  0  0
  -22.7659  -13.5040   21.1930 C   0  0  0  0  0  0
  -22.1645   -4.2147   21.0993 F   0  0  0  0  0  0
  -21.5644   -3.4531   25.7750 F   0  0  0  0  0  0
  -29.8650  -13.9938   20.3507 N   0  0  0  0  0  0
  -26.2788  -12.9459   20.3413 N   0  0  0  0  0  0
  -25.9310  -11.6546   20.5809 N   0  0  0  0  0  0
  -22.0317  -12.8052   22.0512 N   0  0  0  0  0  0
  -25.3664  -15.1861   20.4674 N   0  0  0  0  0  0
  -31.6303  -15.2946   20.0982 O   0  0  0  0  0  0
  -21.6595   -6.8848   21.4258 O   0  0  0  0  0  0
  -22.3335  -14.5337   20.6760 O   0  0  0  0  0  0
  -24.6635  -31.8212   23.1674 C   0  0  0  0  0  0
  -25.9305  -32.4583   23.8162 C   0  0  1  0  0  0
  -27.2359  -26.9228   20.1779 C   0  0  0  0  0  0
  -25.5959  -33.8402   24.2063 N   0  0  0  0  0  0
  -23.4800  -30.4278   21.5175 C   0  0  2  0  0  0
  -24.9381  -28.8133   20.1065 C   0  0  0  0  0  0
  -22.7681  -29.4410   22.4785 C   0  0  0  0  0  0
  -18.0319  -28.1410   22.8468 C   0  0  0  0  0  0
  -24.1490  -36.7212   23.2649 C   0  0  0  0  0  0
  -26.0483  -30.6242   21.3991 C   0  0  0  0  0  0
  -26.1176  -29.2131   20.7439 C   0  0  0  0  0  0
  -27.2554  -28.2874   20.7587 C   0  0  0  0  0  0
  -26.0326  -26.6783   19.4788 C   0  0  0  0  0  0
  -24.9209  -27.5666   19.4530 C   0  0  0  0  0  0
  -23.7205  -29.7390   20.1442 C   0  0  0  0  0  0
  -25.4130  -36.2968   24.0302 C   0  0  1  0  0  0
  -20.5947  -28.3748   23.1195 C   0  0  2  0  0  0
  -20.6792  -26.9427   22.5412 C   0  0  0  0  0  0
  -19.5770  -26.6371   21.5218 C   0  0  0  0  0  0
  -18.1951  -26.7941   22.1620 C   0  0  0  0  0  0
  -19.1583  -28.8902   23.2814 C   0  0  0  0  0  0
  -18.9490  -30.1489   23.8848 C   0  0  0  0  0  0
  -17.6484  -30.6599   24.0552 C   0  0  0  0  0  0
  -25.9090  -34.9351   23.5009 C   0  0  0  0  0  0
  -16.5374  -29.9084   23.6347 C   0  0  0  0  0  0
  -16.7298  -28.6508   23.0361 C   0  0  0  0  0  0
  -26.4541  -31.6541   25.0705 C   0  0  0  0  0  0
  -25.3666  -31.3809   26.1364 C   0  0  0  0  0  0
  -27.0435  -30.2906   24.6454 C   0  0  0  0  0  0
  -27.6029  -32.4360   25.7509 C   0  0  0  0  0  0
  -27.5571  -37.1760   24.8460 C   0  0  0  0  0  0
  -21.4347  -29.3023   22.3540 N   0  0  0  0  0  0
  -26.4270  -37.3706   23.9411 N   0  0  0  0  0  0
  -24.7522  -30.9858   22.0816 N   0  0  0  0  0  0
  -23.4219  -28.7996   23.3045 O   0  0  0  0  0  0
  -28.2472  -25.8311   20.3317 O   0  0  0  0  0  0
  -26.5716  -34.8887   22.4615 O   0  0  0  0  0  0
  -23.5702  -32.1183   23.6758 O   0  0  0  0  0  0
  -28.5116  -22.7562   20.6433 C   0  0  0  0  0  0
  -27.5886  -17.2846   19.7641 C   0  0  0  0  0  0
  -28.6344  -17.9130   18.8293 C   0  0  0  0  0  0
  -28.3988  -17.9293   22.2414 C   0  0  2  0  0  0
  -29.2841  -19.2318   22.0204 C   0  0  1  0  0  0
  -28.3650  -16.8642   21.0540 C   0  0  1  0  0  0
  -29.7344  -18.1715   19.8376 C   0  0  2  0  0  0
  -29.1319  -19.6997   20.5589 C   0  0  2  0  0  0
  -26.9668  -18.2675   22.7015 C   0  0  0  0  0  0
  -29.1403  -20.2952   23.1182 C   0  0  0  0  0  0
  -28.3245  -24.2711   19.7763 C   0  0  0  0  0  0
  -29.6973  -16.6435   20.5008 N   0  0  0  0  0  0
  -28.0162  -22.7813   21.7702 O   0  0  0  0  0  0
  -29.1873  -21.2979   20.1001 O   0  0  0  0  0  0
  -31.4460  -13.0809   19.1607 H   0  0  0  0  0  0
  -30.5566  -11.9488   20.1135 H   0  0  0  0  0  0
  -29.9098  -11.7936   17.6829 H   0  0  0  0  0  0
  -29.5321  -13.4975   17.6548 H   0  0  0  0  0  0
  -28.0588  -11.2872   19.1160 H   0  0  0  0  0  0
  -27.4044  -12.3321   17.8802 H   0  0  0  0  0  0
  -27.5280  -14.2437   19.3641 H   0  0  0  0  0  0
  -28.8688  -12.4269   21.4139 H   0  0  0  0  0  0
  -28.3018  -13.9951   21.8089 H   0  0  0  0  0  0
  -25.2754   -9.5581   22.4764 H   0  0  0  0  0  0
  -23.9968   -7.4548   22.7469 H   0  0  0  0  0  0
  -21.0842   -8.8742   19.8927 H   0  0  0  0  0  0
  -22.3749  -10.9602   19.6158 H   0  0  0  0  0  0
  -21.1951   -7.6132   23.9744 H   0  0  0  0  0  0
  -21.1506   -6.0505   25.9106 H   0  0  0  0  0  0
  -22.0584   -2.7598   23.2870 H   0  0  0  0  0  0
  -22.3895  -11.9733   22.4962 H   0  0  0  0  0  0
  -21.0920  -13.1058   22.2681 H   0  0  0  0  0  0
  -24.5893  -15.8140   20.6388 H   0  0  0  0  0  0
  -26.2297  -15.6728   20.2738 H   0  0  0  0  0  0
  -26.7389  -32.5119   23.0889 H   0  0  0  0  0  0
  -25.0047  -33.9473   25.0176 H   0  0  0  0  0  0
  -22.7946  -31.2598   21.3439 H   0  0  0  0  0  0
  -23.3760  -35.9531   23.3273 H   0  0  0  0  0  0
  -24.3564  -36.8898   22.2068 H   0  0  0  0  0  0
  -23.7228  -37.6387   23.6727 H   0  0  0  0  0  0
  -26.2304  -31.3624   20.6170 H   0  0  0  0  0  0
  -26.9090  -30.6828   22.0535 H   0  0  0  0  0  0
  -28.1461  -28.5892   21.2902 H   0  0  0  0  0  0
  -25.9072  -25.7255   18.9842 H   0  0  0  0  0  0
  -24.0254  -27.2551   18.9331 H   0  0  0  0  0  0
  -23.8731  -30.5064   19.3840 H   0  0  0  0  0  0
  -22.8304  -29.1907   19.8300 H   0  0  0  0  0  0
  -25.1323  -36.1773   25.0791 H   0  0  0  0  0  0
  -21.0026  -28.3351   24.1320 H   0  0  0  0  0  0
  -20.5664  -26.2365   23.3651 H   0  0  0  0  0  0
  -21.6658  -26.7394   22.1224 H   0  0  0  0  0  0
  -19.6924  -25.6268   21.1283 H   0  0  0  0  0  0
  -19.6714  -27.3156   20.6730 H   0  0  0  0  0  0
  -17.4221  -26.6688   21.4020 H   0  0  0  0  0  0
  -18.0332  -26.0096   22.9031 H   0  0  0  0  0  0
  -19.7960  -30.7319   24.2199 H   0  0  0  0  0  0
  -17.5027  -31.6269   24.5165 H   0  0  0  0  0  0
  -15.5370  -30.2965   23.7690 H   0  0  0  0  0  0
  -15.8699  -28.0800   22.7104 H   0  0  0  0  0  0
  -24.5876  -30.7110   25.7699 H   0  0  0  0  0  0
  -24.8808  -32.3008   26.4633 H   0  0  0  0  0  0
  -25.7897  -30.9107   27.0251 H   0  0  0  0  0  0
  -26.3100  -29.6587   24.1432 H   0  0  0  0  0  0
  -27.3924  -29.7273   25.5120 H   0  0  0  0  0  0
  -27.9060  -30.4083   23.9892 H   0  0  0  0  0  0
  -27.2593  -33.3714   26.1942 H   0  0  0  0  0  0
  -28.3910  -32.6842   25.0387 H   0  0  0  0  0  0
  -28.0616  -31.8587   26.5546 H   0  0  0  0  0  0
  -28.2560  -38.0086   24.7524 H   0  0  0  0  0  0
  -28.1098  -36.2612   24.6261 H   0  0  0  0  0  0
  -27.2295  -37.1373   25.8865 H   0  0  0  0  0  0
  -20.9616  -29.8705   21.6659 H   0  0  0  0  0  0
  -26.0126  -38.2767   24.1425 H   0  0  0  0  0  0
  -27.1693  -16.4378   19.2307 H   0  0  0  0  0  0
  -26.7594  -17.9536   19.9858 H   0  0  0  0  0  0
  -28.2832  -18.8078   18.3145 H   0  0  0  0  0  0
  -28.9685  -17.2029   18.0695 H   0  0  0  0  0  0
  -28.8594  -17.4062   23.0825 H   0  0  0  0  0  0
  -30.3250  -18.9206   22.1157 H   0  0  0  0  0  0
  -27.9096  -15.9643   21.4479 H   0  0  0  0  0  0
  -30.6951  -18.3333   19.3504 H   0  0  0  0  0  0
  -28.0513  -19.6512   20.4450 H   0  0  0  0  0  0
  -26.4896  -18.9869   22.0369 H   0  0  0  0  0  0
  -26.9596  -18.6922   23.7052 H   0  0  0  0  0  0
  -26.3330  -17.3808   22.7372 H   0  0  0  0  0  0
  -28.1314  -20.6933   23.1907 H   0  0  0  0  0  0
  -29.8249  -21.1261   22.9441 H   0  0  0  0  0  0
  -29.3901  -19.8723   24.0911 H   0  0  0  0  0  0
  -27.4396  -24.1258   19.1591 H   0  0  0  0  0  0
  -29.1468  -24.2739   19.0604 H   0  0  0  0  0  0
  1 25  1  0  0  0
  1 30  2  0  0  0
  1 82  1  0  0  0
  2  3  1  0  0  0
  2 25  1  0  0  0
  2 85  1  0  0  0
  2 86  1  0  0  0
  3  4  1  0  0  0
  3 87  1  0  0  0
  3 88  1  0  0  0
  4  5  1  0  0  0
  4 89  1  0  0  0
  4 90  1  0  0  0
  5  6  1  0  0  0
  5 26  1  0  0  0
  5 91  1  0  0  0
  6 25  1  0  0  0
  6 92  1  0  0  0
  6 93  1  0  0  0
  7  8  2  0  0  0
  7 26  1  0  0  0
  7 29  1  0  0  0
  8  9  1  0  0  0
  8 22  1  0  0  0
  9 10  1  0  0  0
  9 27  2  0  0  0
 10 11  2  0  0  0
 10 15  1  0  0  0
 11 12  1  0  0  0
 11 94  1  0  0  0
 12 13  2  0  0  0
 12 95  1  0  0  0
 13 14  1  0  0  0
 13 31  1  0  0  0
 14 15  2  0  0  0
 14 96  1  0  0  0
 15 97  1  0  0  0
 16 17  2  0  0  0
 16 21  1  0  0  0
 16 31  1  0  0  0
 17 18  1  0  0  0
 17 98  1  0  0  0
 18 19  2  0  0  0
 18 99  1  0  0  0
 19 20  1  0  0  0
 19 24  1  0  0  0
 20 21  2  0  0  0
 20100  1  0  0  0
 21 23  1  0  0  0
 22 28  1  0  0  0
 22 32  2  0  0  0
 26 27  1  0  0  0
 28101  1  0  0  0
 28102  1  0  0  0
 29103  1  0  0  0
 29104  1  0  0  0
 33 34  1  0  0  0
 33 66  1  0  0  0
 33 70  2  0  0  0
 34 36  1  0  0  0
 34 59  1  0  0  0
 34105  1  0  0  0
 35 44  2  0  0  0
 35 45  1  0  0  0
 35 68  1  0  0  0
 36 56  1  0  0  0
 36106  1  0  0  0
 37 39  1  0  0  0
 37 47  1  0  0  0
 37 66  1  0  0  0
 37107  1  0  0  0
 38 43  2  0  0  0
 38 46  1  0  0  0
 38 47  1  0  0  0
 39 64  1  0  0  0
 39 67  2  0  0  0
 40 52  1  0  0  0
 40 53  2  0  0  0
 40 58  1  0  0  0
 41108  1  0  0  0
 41109  1  0  0  0
 41110  1  0  0  0
 41 48  1  0  0  0
 42 43  1  0  0  0
 42 66  1  0  0  0
 42111  1  0  0  0
 42112  1  0  0  0
 43 44  1  0  0  0
 44113  1  0  0  0
 45 46  2  0  0  0
 45114  1  0  0  0
 46115  1  0  0  0
 47116  1  0  0  0
 47117  1  0  0  0
 48 56  1  0  0  0
 48 65  1  0  0  0
 48118  1  0  0  0
 49 50  1  0  0  0
 49 53  1  0  0  0
 49 64  1  0  0  0
 49119  1  0  0  0
 50 51  1  0  0  0
 50120  1  0  0  0
 50121  1  0  0  0
 51 52  1  0  0  0
 51122  1  0  0  0
 51123  1  0  0  0
 52124  1  0  0  0
 52125  1  0  0  0
 53 54  1  0  0  0
 54 55  2  0  0  0
 54126  1  0  0  0
 55 57  1  0  0  0
 55127  1  0  0  0
 56 69  2  0  0  0
 57 58  2  0  0  0
 57128  1  0  0  0
 58129  1  0  0  0
 59 60  1  0  0  0
 59 61  1  0  0  0
 59 62  1  0  0  0
 60130  1  0  0  0
 60131  1  0  0  0
 60132  1  0  0  0
 61133  1  0  0  0
 61134  1  0  0  0
 61135  1  0  0  0
 62136  1  0  0  0
 62137  1  0  0  0
 62138  1  0  0  0
 63 65  1  0  0  0
 63139  1  0  0  0
 63140  1  0  0  0
 63141  1  0  0  0
 64142  1  0  0  0
 65143  1  0  0  0
 68 81  1  0  0  0
 71 81  1  0  0  0
 71 83  2  0  0  0
 71 84  1  0  0  0
 72 73  1  0  0  0
 72144  1  0  0  0
 72145  1  0  0  0
 72 76  1  0  0  0
 73146  1  0  0  0
 73147  1  0  0  0
 73 77  1  0  0  0
 74 75  1  0  0  0
 74 76  1  0  0  0
 74 79  1  0  0  0
 74148  1  0  0  0
 75 78  1  0  0  0
 75 80  1  0  0  0
 75149  1  0  0  0
 76 82  1  0  0  0
 76150  1  0  0  0
 77 78  1  0  0  0
 77 82  1  0  0  0
 77151  1  0  0  0
 78 84  1  0  0  0
 78152  1  0  0  0
 79153  1  0  0  0
 79154  1  0  0  0
 79155  1  0  0  0
 80156  1  0  0  0
 80157  1  0  0  0
 80158  1  0  0  0
 81159  1  0  0  0
 81160  1  0  0  0
M  ISO  4   1 100  68 101  81 101  82 100
M  END
> <chiral flag>
0

> <version>
0

> <s_m_source_file>
/data/baiqing/PycharmProjects/Reinvent-master-3.2/result/LINK_invent/BTK/process_docking_weight1_custom_sum_contain_oxygen_bond_distance_aromatic_linkinvent_7_9_3/rearranged_h_0159.sdf

> <i_m_source_file_index>
2

> <r_mmod_Potential_Energy-OPLS-2005>
1843.48107910156

> <r_mmod_Stretch_Energy-OPLS-2005>
707.265441894531

> <r_mmod_Bend_Energy-OPLS-2005>
615.945373535156

> <r_mmod_Torsional_Energy-OPLS-2005>
395.249725341797

> <r_mmod_Improper_Torsional_Energy-OPLS-2005>
6.87881803512573

> <r_mmod_Van_der_Waal_Energy-OPLS-2005>
125.248062133789

> <r_mmod_Electrostatic_Energy-OPLS-2005>
-282.176635742188

> <r_mmod_Solvation_Energy-OPLS-2005>
-209.402786254883

> <b_mmod_Minimization_Converged-OPLS-2005>
0

> <r_mmod_RMS_Derivative-OPLS-2005>
3.42737078666687

$$$$
2
                    3D
 Structure written by MMmdl.
168178  0  0  1  0            999 V2000
  -30.6828  -14.6520   20.5091 C   0  0  0  0  0  0
  -30.4235  -12.4088   19.4592 C   0  0  0  0  0  0
  -29.5012  -12.5081   18.2259 C   0  0  0  0  0  0
  -28.0254  -12.3503   18.6395 C   0  0  0  0  0  0
  -27.6488  -13.2281   19.8638 C   0  0  2  0  0  0
  -28.6972  -13.1045   20.9911 C   0  0  0  0  0  0
  -25.2529  -13.8198   20.5704 C   0  0  0  0  0  0
  -24.1811  -13.0444   20.9202 C   0  0  0  0  0  0
  -24.6399  -11.6921   20.8751 C   0  0  0  0  0  0
  -23.9074  -10.4295   21.0407 C   0  0  0  0  0  0
  -24.3622   -9.4208   21.9183 C   0  0  0  0  0  0
  -23.6294   -8.2245   22.0755 C   0  0  0  0  0  0
  -22.4276   -8.0284   21.3545 C   0  0  0  0  0  0
  -21.9914   -9.0259   20.4647 C   0  0  0  0  0  0
  -22.7246  -10.2137   20.3056 C   0  0  0  0  0  0
  -21.6853   -6.0736   22.5278 C   0  0  0  0  0  0
  -21.4015   -6.5640   23.8212 C   0  0  0  0  0  0
  -21.3660   -5.6794   24.9174 C   0  0  0  0  0  0
  -21.6044   -4.3056   24.7225 C   0  0  0  0  0  0
  -21.8818   -3.8147   23.4346 C   0  0  0  0  0  0
  -21.9192   -4.6963   22.3401 C   0  0  0  0  0  0
  -22.7830  -13.5225   21.1855 C   0  0  0  0  0  0
  -22.1659   -4.2148   21.0979 F   0  0  0  0  0  0
  -21.5629   -3.4539   25.7737 F   0  0  0  0  0  0
  -30.0005  -13.4597   20.4133 N   0  0  0  0  0  0
  -26.2975  -12.9405   20.3358 N   0  0  0  0  0  0
  -25.9336  -11.6547   20.5789 N   0  0  0  0  0  0
  -22.0478  -12.8214   22.0414 N   0  0  0  0  0  0
  -25.4215  -15.1918   20.4100 N   0  0  0  0  0  0
  -31.8552  -14.7078   20.1250 O   0  0  0  0  0  0
  -21.6641   -6.8880   21.4240 O   0  0  0  0  0  0
  -22.3510  -14.5527   20.6700 O   0  0  0  0  0  0
  -24.6293  -31.8610   23.2070 C   0  0  0  0  0  0
  -25.9136  -32.4786   23.8388 C   0  0  1  0  0  0
  -27.2045  -27.2940   20.1056 C   0  0  0  0  0  0
  -25.5947  -33.8589   24.2302 N   0  0  0  0  0  0
  -23.4228  -30.4913   21.5509 C   0  0  2  0  0  0
  -24.8662  -28.9609   20.1062 C   0  0  0  0  0  0
  -22.7493  -29.4637   22.4928 C   0  0  0  0  0  0
  -18.0291  -28.1387   22.8487 C   0  0  0  0  0  0
  -24.1491  -36.7294   23.2636 C   0  0  0  0  0  0
  -25.9713  -30.7812   21.3887 C   0  0  0  0  0  0
  -26.0407  -29.4116   20.7228 C   0  0  0  0  0  0
  -27.2124  -28.5884   20.7217 C   0  0  0  0  0  0
  -26.0095  -26.9372   19.4271 C   0  0  0  0  0  0
  -24.8546  -27.7287   19.4493 C   0  0  0  0  0  0
  -23.6375  -29.8424   20.1619 C   0  0  0  0  0  0
  -25.4116  -36.3088   24.0328 C   0  0  1  0  0  0
  -20.5895  -28.3698   23.1270 C   0  0  2  0  0  0
  -20.6782  -26.9418   22.5403 C   0  0  0  0  0  0
  -19.5754  -26.6386   21.5210 C   0  0  0  0  0  0
  -18.1934  -26.7931   22.1626 C   0  0  0  0  0  0
  -19.1545  -28.8859   23.2875 C   0  0  0  0  0  0
  -18.9465  -30.1459   23.8894 C   0  0  0  0  0  0
  -17.6465  -30.6588   24.0563 C   0  0  0  0  0  0
  -25.9055  -34.9456   23.5110 C   0  0  0  0  0  0
  -16.5356  -29.9086   23.6332 C   0  0  0  0  0  0
  -16.7278  -28.6502   23.0355 C   0  0  0  0  0  0
  -26.4508  -31.6594   25.0761 C   0  0  0  0  0  0
  -25.3730  -31.3736   26.1478 C   0  0  0  0  0  0
  -27.0354  -30.3009   24.6242 C   0  0  0  0  0  0
  -27.6065  -32.4332   25.7528 C   0  0  0  0  0  0
  -27.5582  -37.1805   24.8466 C   0  0  0  0  0  0
  -21.4203  -29.3054   22.3665 N   0  0  0  0  0  0
  -26.4295  -37.3782   23.9408 N   0  0  0  0  0  0
  -24.6935  -31.0604   22.1045 N   0  0  0  0  0  0
  -23.4212  -28.8151   23.2993 O   0  0  0  0  0  0
  -28.2661  -26.3589   20.1954 O   0  0  0  0  0  0
  -26.5615  -34.8917   22.4672 O   0  0  0  0  0  0
  -23.5448  -32.1426   23.7374 O   0  0  0  0  0  0
  -30.5483  -22.0351   19.8623 C   0  0  0  0  0  0
  -30.0035  -23.3685   19.8076 C   0  0  0  0  0  0
  -28.6852  -23.6260   20.2736 C   0  0  0  0  0  0
  -28.0213  -22.4845   20.8339 C   0  0  0  0  0  0
  -29.7809  -20.9726   20.4280 C   0  0  0  0  0  0
  -32.3124  -22.0804   17.8875 C   0  0  0  0  0  0
  -32.1975  -20.6435   18.3175 C   0  0  0  0  0  0
  -29.2723  -17.7841   21.9408 C   0  0  0  0  0  0
  -29.1358  -16.2465   21.7667 C   0  0  0  0  0  0
  -30.4084  -17.1205   19.9812 C   0  0  0  0  0  0
  -31.9323  -21.7531   19.3187 C   0  0  0  0  0  0
  -29.5936  -18.3368   20.5512 C   0  0  2  0  0  0
  -30.8068  -24.5162   19.2090 C   0  0  0  0  0  0
  -26.6038  -22.5578   21.3777 C   0  0  0  0  0  0
  -27.8700  -24.9441   19.9274 C   0  0  0  0  0  0
  -28.5490  -21.2264   20.9087 N   0  0  0  0  0  0
  -29.9803  -15.8414   20.6339 N   0  0  0  0  0  0
  -30.3147  -19.6473   20.5360 N   0  0  0  0  0  0
  -31.4660  -12.5077   19.1522 H   0  0  0  0  0  0
  -30.3475  -11.4224   19.9194 H   0  0  0  0  0  0
  -29.7674  -11.7465   17.4916 H   0  0  0  0  0  0
  -29.6449  -13.4716   17.7342 H   0  0  0  0  0  0
  -27.8629  -11.2984   18.8770 H   0  0  0  0  0  0
  -27.3700  -12.5753   17.7973 H   0  0  0  0  0  0
  -27.6613  -14.2617   19.5173 H   0  0  0  0  0  0
  -28.7215  -12.0853   21.3795 H   0  0  0  0  0  0
  -28.4399  -13.7299   21.8430 H   0  0  0  0  0  0
  -25.2766   -9.5682   22.4760 H   0  0  0  0  0  0
  -24.0001   -7.4636   22.7475 H   0  0  0  0  0  0
  -21.0846   -8.8781   19.8953 H   0  0  0  0  0  0
  -22.3705  -10.9676   19.6167 H   0  0  0  0  0  0
  -21.2009   -7.6149   23.9713 H   0  0  0  0  0  0
  -21.1483   -6.0525   25.9076 H   0  0  0  0  0  0
  -22.0597   -2.7609   23.2846 H   0  0  0  0  0  0
  -22.4102  -11.9882   22.4807 H   0  0  0  0  0  0
  -21.1095  -13.1235   22.2619 H   0  0  0  0  0  0
  -24.6544  -15.8462   20.5188 H   0  0  0  0  0  0
  -26.2746  -15.6314   20.0889 H   0  0  0  0  0  0
  -26.7200  -32.5447   23.1129 H   0  0  0  0  0  0
  -25.0101  -33.9741   25.0451 H   0  0  0  0  0  0
  -22.7176  -31.3139   21.4149 H   0  0  0  0  0  0
  -23.3756  -35.9624   23.3304 H   0  0  0  0  0  0
  -24.3579  -36.8911   22.2049 H   0  0  0  0  0  0
  -23.7240  -37.6496   23.6655 H   0  0  0  0  0  0
  -26.1137  -31.5474   20.6255 H   0  0  0  0  0  0
  -26.8480  -30.8210   22.0233 H   0  0  0  0  0  0
  -28.1030  -28.9210   21.2364 H   0  0  0  0  0  0
  -25.9044  -26.0156   18.8767 H   0  0  0  0  0  0
  -23.9610  -27.3847   18.9463 H   0  0  0  0  0  0
  -23.7600  -30.6268   19.4142 H   0  0  0  0  0  0
  -22.7558  -29.2781   19.8527 H   0  0  0  0  0  0
  -25.1293  -36.1944   25.0820 H   0  0  0  0  0  0
  -20.9988  -28.3274   24.1392 H   0  0  0  0  0  0
  -20.5689  -26.2308   23.3606 H   0  0  0  0  0  0
  -21.6649  -26.7450   22.1192 H   0  0  0  0  0  0
  -19.6917  -25.6297   21.1241 H   0  0  0  0  0  0
  -19.6686  -27.3194   20.6738 H   0  0  0  0  0  0
  -17.4202  -26.6678   21.4030 H   0  0  0  0  0  0
  -18.0336  -26.0072   22.9023 H   0  0  0  0  0  0
  -19.7941  -30.7275   24.2264 H   0  0  0  0  0  0
  -17.5020  -31.6268   24.5166 H   0  0  0  0  0  0
  -15.5356  -30.2987   23.7658 H   0  0  0  0  0  0
  -15.8678  -28.0817   22.7077 H   0  0  0  0  0  0
  -24.5920  -30.7066   25.7809 H   0  0  0  0  0  0
  -24.8902  -32.2901   26.4880 H   0  0  0  0  0  0
  -25.8050  -30.8937   27.0268 H   0  0  0  0  0  0
  -26.2943  -29.6760   24.1246 H   0  0  0  0  0  0
  -27.4010  -29.7266   25.4765 H   0  0  0  0  0  0
  -27.8835  -30.4281   23.9511 H   0  0  0  0  0  0
  -27.2677  -33.3639   26.2092 H   0  0  0  0  0  0
  -28.3880  -32.6881   25.0358 H   0  0  0  0  0  0
  -28.0728  -31.8468   26.5455 H   0  0  0  0  0  0
  -28.2599  -38.0102   24.7512 H   0  0  0  0  0  0
  -28.1078  -36.2633   24.6296 H   0  0  0  0  0  0
  -27.2298  -37.1457   25.8868 H   0  0  0  0  0  0
  -20.9378  -29.8799   21.6896 H   0  0  0  0  0  0
  -26.0179  -38.2858   24.1409 H   0  0  0  0  0  0
  -31.5407  -22.4530   17.2164 H   0  0  0  0  0  0
  -33.3158  -22.4592   17.7015 H   0  0  0  0  0  0
  -33.1273  -20.0847   18.4079 H   0  0  0  0  0  0
  -31.3533  -20.0835   17.9181 H   0  0  0  0  0  0
  -30.0990  -17.9915   22.6221 H   0  0  0  0  0  0
  -28.3776  -18.2368   22.3705 H   0  0  0  0  0  0
  -28.1001  -15.9954   21.5362 H   0  0  0  0  0  0
  -29.4099  -15.7244   22.6850 H   0  0  0  0  0  0
  -31.4713  -17.2665   20.1829 H   0  0  0  0  0  0
  -30.2989  -17.0491   18.8981 H   0  0  0  0  0  0
  -32.6838  -21.9198   20.0888 H   0  0  0  0  0  0
  -28.6648  -18.4375   19.9868 H   0  0  0  0  0  0
  -31.8785  -24.3842   19.3522 H   0  0  0  0  0  0
  -30.5584  -25.4656   19.6803 H   0  0  0  0  0  0
  -30.6083  -24.6052   18.1410 H   0  0  0  0  0  0
  -25.8905  -22.7373   20.5731 H   0  0  0  0  0  0
  -26.5137  -23.3563   22.1144 H   0  0  0  0  0  0
  -26.3129  -21.6303   21.8723 H   0  0  0  0  0  0
  -26.9001  -24.8114   20.3971 H   0  0  0  0  0  0
  -27.7086  -24.8648   18.8515 H   0  0  0  0  0  0
  -31.2686  -19.5825   20.2005 H   0  0  0  0  0  0
  1 25  1  0  0  0
  1 30  2  0  0  0
  1 87  1  0  0  0
  2  3  1  0  0  0
  2 25  1  0  0  0
  2 89  1  0  0  0
  2 90  1  0  0  0
  3  4  1  0  0  0
  3 91  1  0  0  0
  3 92  1  0  0  0
  4  5  1  0  0  0
  4 93  1  0  0  0
  4 94  1  0  0  0
  5  6  1  0  0  0
  5 26  1  0  0  0
  5 95  1  0  0  0
  6 25  1  0  0  0
  6 96  1  0  0  0
  6 97  1  0  0  0
  7  8  2  0  0  0
  7 26  1  0  0  0
  7 29  1  0  0  0
  8  9  1  0  0  0
  8 22  1  0  0  0
  9 10  1  0  0  0
  9 27  2  0  0  0
 10 11  2  0  0  0
 10 15  1  0  0  0
 11 12  1  0  0  0
 11 98  1  0  0  0
 12 13  2  0  0  0
 12 99  1  0  0  0
 13 14  1  0  0  0
 13 31  1  0  0  0
 14 15  2  0  0  0
 14100  1  0  0  0
 15101  1  0  0  0
 16 17  2  0  0  0
 16 21  1  0  0  0
 16 31  1  0  0  0
 17 18  1  0  0  0
 17102  1  0  0  0
 18 19  2  0  0  0
 18103  1  0  0  0
 19 20  1  0  0  0
 19 24  1  0  0  0
 20 21  2  0  0  0
 20104  1  0  0  0
 21 23  1  0  0  0
 22 28  1  0  0  0
 22 32  2  0  0  0
 26 27  1  0  0  0
 28105  1  0  0  0
 28106  1  0  0  0
 29107  1  0  0  0
 29108  1  0  0  0
 33 34  1  0  0  0
 33 66  1  0  0  0
 33 70  2  0  0  0
 34 36  1  0  0  0
 34 59  1  0  0  0
 34109  1  0  0  0
 35 44  2  0  0  0
 35 45  1  0  0  0
 35 68  1  0  0  0
 36 56  1  0  0  0
 36110  1  0  0  0
 37 39  1  0  0  0
 37 47  1  0  0  0
 37 66  1  0  0  0
 37111  1  0  0  0
 38 43  2  0  0  0
 38 46  1  0  0  0
 38 47  1  0  0  0
 39 64  1  0  0  0
 39 67  2  0  0  0
 40 52  1  0  0  0
 40 53  2  0  0  0
 40 58  1  0  0  0
 41112  1  0  0  0
 41113  1  0  0  0
 41114  1  0  0  0
 41 48  1  0  0  0
 42 43  1  0  0  0
 42 66  1  0  0  0
 42115  1  0  0  0
 42116  1  0  0  0
 43 44  1  0  0  0
 44117  1  0  0  0
 45 46  2  0  0  0
 45118  1  0  0  0
 46119  1  0  0  0
 47120  1  0  0  0
 47121  1  0  0  0
 48 56  1  0  0  0
 48 65  1  0  0  0
 48122  1  0  0  0
 49 50  1  0  0  0
 49 53  1  0  0  0
 49 64  1  0  0  0
 49123  1  0  0  0
 50 51  1  0  0  0
 50124  1  0  0  0
 50125  1  0  0  0
 51 52  1  0  0  0
 51126  1  0  0  0
 51127  1  0  0  0
 52128  1  0  0  0
 52129  1  0  0  0
 53 54  1  0  0  0
 54 55  2  0  0  0
 54130  1  0  0  0
 55 57  1  0  0  0
 55131  1  0  0  0
 56 69  2  0  0  0
 57 58  2  0  0  0
 57132  1  0  0  0
 58133  1  0  0  0
 59 60  1  0  0  0
 59 61  1  0  0  0
 59 62  1  0  0  0
 60134  1  0  0  0
 60135  1  0  0  0
 60136  1  0  0  0
 61137  1  0  0  0
 61138  1  0  0  0
 61139  1  0  0  0
 62140  1  0  0  0
 62141  1  0  0  0
 62142  1  0  0  0
 63 65  1  0  0  0
 63143  1  0  0  0
 63144  1  0  0  0
 63145  1  0  0  0
 64146  1  0  0  0
 65147  1  0  0  0
 68 85  1  0  0  0
 71 72  2  0  0  0
 71 75  1  0  0  0
 71 81  1  0  0  0
 72 73  1  0  0  0
 72 83  1  0  0  0
 73 74  2  0  0  0
 73 85  1  0  0  0
 74 84  1  0  0  0
 74 86  1  0  0  0
 75 86  2  0  0  0
 75 88  1  0  0  0
 76 77  1  0  0  0
 76 81  1  0  0  0
 76148  1  0  0  0
 76149  1  0  0  0
 77 81  1  0  0  0
 77150  1  0  0  0
 77151  1  0  0  0
 78 79  1  0  0  0
 78 82  1  0  0  0
 78152  1  0  0  0
 78153  1  0  0  0
 79 87  1  0  0  0
 79154  1  0  0  0
 79155  1  0  0  0
 80 82  1  0  0  0
 80 87  1  0  0  0
 80156  1  0  0  0
 80157  1  0  0  0
 81158  1  0  0  0
 82 88  1  0  0  0
 82159  1  0  0  0
 83160  1  0  0  0
 83161  1  0  0  0
 83162  1  0  0  0
 84163  1  0  0  0
 84164  1  0  0  0
 84165  1  0  0  0
 85166  1  0  0  0
 85167  1  0  0  0
 88168  1  0  0  0
M  ISO  4   1 100  68 101  85 101  87 100
M  END
> <chiral flag>
0

> <version>
0

> <s_m_source_file>
/data/baiqing/PycharmProjects/Reinvent-master-3.2/result/LINK_invent/BTK/process_docking_weight1_custom_sum_contain_oxygen_bond_distance_aromatic_linkinvent_7_9_3/rearranged_h_0159.sdf

> <i_m_source_file_index>
3

> <r_mmod_Potential_Energy-OPLS-2005>
153.69206237793

> <r_mmod_Stretch_Energy-OPLS-2005>
89.6861572265625

> <r_mmod_Bend_Energy-OPLS-2005>
195.573806762695

> <r_mmod_Torsional_Energy-OPLS-2005>
348.891204833984

> <r_mmod_Improper_Torsional_Energy-OPLS-2005>
16.9604759216309

> <r_mmod_Van_der_Waal_Energy-OPLS-2005>
161.336868286133

> <r_mmod_Electrostatic_Energy-OPLS-2005>
-502.936981201172

> <r_mmod_Solvation_Energy-OPLS-2005>
-219.953430175781

> <b_mmod_Minimization_Converged-OPLS-2005>
0

> <r_mmod_RMS_Derivative-OPLS-2005>
0.296774506568909

$$$$
3
                    3D
 Structure written by MMmdl.
172182  0  0  1  0            999 V2000
  -30.7226  -14.4495   20.5855 C   0  0  0  0  0  0
  -30.4130  -12.2941   19.4267 C   0  0  0  0  0  0
  -29.4929  -12.5017   18.2082 C   0  0  0  0  0  0
  -28.0104  -12.3777   18.6121 C   0  0  0  0  0  0
  -27.6590  -13.1994   19.8824 C   0  0  2  0  0  0
  -28.7004  -12.9771   20.9983 C   0  0  0  0  0  0
  -25.2585  -13.8138   20.5684 C   0  0  0  0  0  0
  -24.1829  -13.0426   20.9165 C   0  0  0  0  0  0
  -24.6370  -11.6888   20.8737 C   0  0  0  0  0  0
  -23.9037  -10.4282   21.0408 C   0  0  0  0  0  0
  -24.3599   -9.4204   21.9185 C   0  0  0  0  0  0
  -23.6283   -8.2237   22.0757 C   0  0  0  0  0  0
  -22.4266   -8.0270   21.3543 C   0  0  0  0  0  0
  -21.9897   -9.0242   20.4646 C   0  0  0  0  0  0
  -22.7216  -10.2125   20.3055 C   0  0  0  0  0  0
  -21.6853   -6.0726   22.5270 C   0  0  0  0  0  0
  -21.4014   -6.5632   23.8203 C   0  0  0  0  0  0
  -21.3661   -5.6789   24.9169 C   0  0  0  0  0  0
  -21.6046   -4.3050   24.7222 C   0  0  0  0  0  0
  -21.8822   -3.8138   23.4343 C   0  0  0  0  0  0
  -21.9196   -4.6954   22.3397 C   0  0  0  0  0  0
  -22.7858  -13.5235   21.1822 C   0  0  0  0  0  0
  -22.1662   -4.2145   21.0973 F   0  0  0  0  0  0
  -21.5633   -3.4537   25.7738 F   0  0  0  0  0  0
  -30.0305  -13.2835   20.4465 N   0  0  0  0  0  0
  -26.3007  -12.9281   20.3409 N   0  0  0  0  0  0
  -25.9296  -11.6448   20.5794 N   0  0  0  0  0  0
  -22.0497  -12.8235   22.0377 N   0  0  0  0  0  0
  -25.4317  -15.1854   20.4075 N   0  0  0  0  0  0
  -31.8357  -14.6191   20.0773 O   0  0  0  0  0  0
  -21.6630   -6.8869   21.4232 O   0  0  0  0  0  0
  -22.3556  -14.5552   20.6683 O   0  0  0  0  0  0
  -24.6131  -31.8684   23.2113 C   0  0  0  0  0  0
  -25.9034  -32.4827   23.8404 C   0  0  1  0  0  0
  -27.2361  -27.4586   20.0881 C   0  0  0  0  0  0
  -25.5893  -33.8624   24.2339 N   0  0  0  0  0  0
  -23.4008  -30.4912   21.5513 C   0  0  2  0  0  0
  -24.8501  -28.9598   20.1127 C   0  0  0  0  0  0
  -22.7397  -29.4661   22.4999 C   0  0  0  0  0  0
  -18.0269  -28.1382   22.8501 C   0  0  0  0  0  0
  -24.1484  -36.7315   23.2637 C   0  0  0  0  0  0
  -25.9274  -30.8409   21.3619 C   0  0  0  0  0  0
  -26.0076  -29.4764   20.7101 C   0  0  0  0  0  0
  -27.2072  -28.7299   20.7004 C   0  0  0  0  0  0
  -26.0698  -26.9508   19.4849 C   0  0  0  0  0  0
  -24.8741  -27.6945   19.4982 C   0  0  0  0  0  0
  -23.6085  -29.8213   20.1659 C   0  0  0  0  0  0
  -25.4107  -36.3114   24.0339 C   0  0  1  0  0  0
  -20.5851  -28.3662   23.1337 C   0  0  2  0  0  0
  -20.6753  -26.9399   22.5432 C   0  0  0  0  0  0
  -19.5737  -26.6388   21.5221 C   0  0  0  0  0  0
  -18.1905  -26.7938   22.1617 C   0  0  0  0  0  0
  -19.1514  -28.8842   23.2915 C   0  0  0  0  0  0
  -18.9443  -30.1448   23.8918 C   0  0  0  0  0  0
  -17.6442  -30.6590   24.0574 C   0  0  0  0  0  0
  -25.9035  -34.9478   23.5135 C   0  0  0  0  0  0
  -16.5337  -29.9090   23.6328 C   0  0  0  0  0  0
  -16.7260  -28.6511   23.0353 C   0  0  0  0  0  0
  -26.4469  -31.6594   25.0723 C   0  0  0  0  0  0
  -25.3746  -31.3663   26.1468 C   0  0  0  0  0  0
  -27.0311  -30.3051   24.6077 C   0  0  0  0  0  0
  -27.6045  -32.4307   25.7487 C   0  0  0  0  0  0
  -27.5587  -37.1807   24.8460 C   0  0  0  0  0  0
  -21.4126  -29.3030   22.3742 N   0  0  0  0  0  0
  -26.4290  -37.3797   23.9414 N   0  0  0  0  0  0
  -24.6650  -31.0802   22.1005 N   0  0  0  0  0  0
  -23.4175  -28.8201   23.3038 O   0  0  0  0  0  0
  -28.3661  -26.6803   20.0950 O   0  0  0  0  0  0
  -26.5586  -34.8924   22.4692 O   0  0  0  0  0  0
  -23.5331  -32.1416   23.7528 O   0  0  0  0  0  0
  -29.3248  -23.7121   22.2298 C   0  0  0  0  0  0
  -29.4988  -22.4689   19.7285 C   0  0  0  0  0  0
  -28.9613  -24.4397   21.0763 C   0  0  0  0  0  0
  -29.8978  -21.7571   20.8824 C   0  0  0  0  0  0
  -29.7836  -22.3723   22.1511 C   0  0  0  0  0  0
  -29.0259  -23.7964   19.8185 C   0  0  0  0  0  0
  -28.7367  -18.7510   19.7972 C   0  0  0  0  0  0
  -30.0686  -15.7375   22.5434 C   0  0  0  0  0  0
  -30.3094  -17.8924   21.4801 C   0  0  2  0  0  0
  -29.5556  -19.1745   21.0345 C   0  0  1  0  0  0
  -28.7397  -17.2142   19.7550 C   0  0  2  0  0  0
  -30.0692  -16.8207   20.4180 C   0  0  2  0  0  0
  -29.7916  -17.2281   22.7546 C   0  0  2  0  0  0
  -28.5788  -16.6763   18.3241 C   0  0  0  0  0  0
  -29.8492  -22.1549   24.5452 C   0  0  0  0  0  0
  -30.5131  -20.3619   20.7501 C   0  0  0  0  0  0
  -28.4592  -25.8717   21.2726 C   0  0  0  0  0  0
  -30.0366  -15.5021   21.0929 N   0  0  0  0  0  0
  -30.4440  -17.7307   23.9048 O   0  0  0  0  0  0
  -30.1434  -21.6297   23.2561 O   0  0  0  0  0  0
  -28.6440  -24.4346   18.6863 F   0  0  0  0  0  0
  -31.4602  -12.3753   19.1297 H   0  0  0  0  0  0
  -30.2976  -11.2843   19.8238 H   0  0  0  0  0  0
  -29.7275  -11.7752   17.4295 H   0  0  0  0  0  0
  -29.6783  -13.4837   17.7723 H   0  0  0  0  0  0
  -27.8019  -11.3219   18.7860 H   0  0  0  0  0  0
  -27.3702  -12.6786   17.7813 H   0  0  0  0  0  0
  -27.6968  -14.2501   19.6127 H   0  0  0  0  0  0
  -28.6745  -11.9427   21.3419 H   0  0  0  0  0  0
  -28.4489  -13.5777   21.8690 H   0  0  0  0  0  0
  -25.2745   -9.5681   22.4761 H   0  0  0  0  0  0
  -23.9994   -7.4630   22.7481 H   0  0  0  0  0  0
  -21.0831   -8.8755   19.8949 H   0  0  0  0  0  0
  -22.3675  -10.9666   19.6166 H   0  0  0  0  0  0
  -21.1998   -7.6137   23.9707 H   0  0  0  0  0  0
  -21.1487   -6.0517   25.9075 H   0  0  0  0  0  0
  -22.0600   -2.7602   23.2845 H   0  0  0  0  0  0
  -22.4118  -11.9885   22.4737 H   0  0  0  0  0  0
  -21.1122  -13.1272   22.2592 H   0  0  0  0  0  0
  -24.6676  -15.8429   20.5138 H   0  0  0  0  0  0
  -26.2869  -15.6189   20.0848 H   0  0  0  0  0  0
  -26.7113  -32.5553   23.1182 H   0  0  0  0  0  0
  -25.0074  -33.9796   25.0503 H   0  0  0  0  0  0
  -22.6890  -31.3071   21.4110 H   0  0  0  0  0  0
  -23.3752  -35.9642   23.3290 H   0  0  0  0  0  0
  -24.3584  -36.8938   22.2052 H   0  0  0  0  0  0
  -23.7223  -37.6510   23.6662 H   0  0  0  0  0  0
  -26.0336  -31.6068   20.5919 H   0  0  0  0  0  0
  -26.8176  -30.8980   21.9767 H   0  0  0  0  0  0
  -28.1018  -29.1205   21.1651 H   0  0  0  0  0  0
  -26.0880  -25.9754   19.0189 H   0  0  0  0  0  0
  -23.9839  -27.2886   19.0369 H   0  0  0  0  0  0
  -23.7114  -30.5938   19.4035 H   0  0  0  0  0  0
  -22.7343  -29.2368   19.8734 H   0  0  0  0  0  0
  -25.1280  -36.1982   25.0832 H   0  0  0  0  0  0
  -20.9949  -28.3229   24.1456 H   0  0  0  0  0  0
  -20.5655  -26.2270   23.3618 H   0  0  0  0  0  0
  -21.6630  -26.7440   22.1236 H   0  0  0  0  0  0
  -19.6896  -25.6302   21.1235 H   0  0  0  0  0  0
  -19.6685  -27.3216   20.6765 H   0  0  0  0  0  0
  -17.4190  -26.6727   21.3992 H   0  0  0  0  0  0
  -18.0272  -26.0067   22.8993 H   0  0  0  0  0  0
  -19.7914  -30.7268   24.2293 H   0  0  0  0  0  0
  -17.4993  -31.6268   24.5173 H   0  0  0  0  0  0
  -15.5337  -30.2995   23.7645 H   0  0  0  0  0  0
  -15.8663  -28.0838   22.7050 H   0  0  0  0  0  0
  -24.6001  -30.6903   25.7820 H   0  0  0  0  0  0
  -24.8841  -32.2790   26.4861 H   0  0  0  0  0  0
  -25.8136  -30.8912   27.0252 H   0  0  0  0  0  0
  -26.2857  -29.6801   24.1149 H   0  0  0  0  0  0
  -27.4115  -29.7285   25.4518 H   0  0  0  0  0  0
  -27.8666  -30.4383   23.9201 H   0  0  0  0  0  0
  -27.2674  -33.3594   26.2100 H   0  0  0  0  0  0
  -28.3844  -32.6879   25.0309 H   0  0  0  0  0  0
  -28.0731  -31.8409   26.5374 H   0  0  0  0  0  0
  -28.2587  -38.0121   24.7545 H   0  0  0  0  0  0
  -28.1100  -36.2658   24.6239 H   0  0  0  0  0  0
  -27.2314  -37.1408   25.8863 H   0  0  0  0  0  0
  -20.9286  -29.8756   21.6968 H   0  0  0  0  0  0
  -26.0178  -38.2871   24.1443 H   0  0  0  0  0  0
  -29.2456  -24.2169   23.1807 H   0  0  0  0  0  0
  -29.5672  -22.0026   18.7566 H   0  0  0  0  0  0
  -29.1990  -19.1415   18.8897 H   0  0  0  0  0  0
  -27.7220  -19.1518   19.8247 H   0  0  0  0  0  0
  -29.3456  -15.1305   23.0861 H   0  0  0  0  0  0
  -31.0580  -15.4746   22.9258 H   0  0  0  0  0  0
  -31.3857  -18.0565   21.5594 H   0  0  0  0  0  0
  -28.8797  -19.4625   21.8410 H   0  0  0  0  0  0
  -27.9169  -16.8525   20.3740 H   0  0  0  0  0  0
  -30.8683  -16.8891   19.6759 H   0  0  0  0  0  0
  -28.7138  -17.3762   22.8480 H   0  0  0  0  0  0
  -29.3178  -17.1106   17.6507 H   0  0  0  0  0  0
  -27.5913  -16.9122   17.9258 H   0  0  0  0  0  0
  -28.7066  -15.5982   18.2731 H   0  0  0  0  0  0
  -30.0934  -21.4118   25.3041 H   0  0  0  0  0  0
  -28.7886  -22.3899   24.6505 H   0  0  0  0  0  0
  -30.4395  -23.0472   24.7577 H   0  0  0  0  0  0
  -31.3450  -20.3268   21.4541 H   0  0  0  0  0  0
  -30.9809  -20.2547   19.7710 H   0  0  0  0  0  0
  -29.1346  -26.3807   21.9616 H   0  0  0  0  0  0
  -27.5003  -25.7975   21.7908 H   0  0  0  0  0  0
  -31.3839  -17.6638   23.7670 H   0  0  0  0  0  0
  1 25  1  0  0  0
  1 30  2  0  0  0
  1 88  1  0  0  0
  2  3  1  0  0  0
  2 25  1  0  0  0
  2 92  1  0  0  0
  2 93  1  0  0  0
  3  4  1  0  0  0
  3 94  1  0  0  0
  3 95  1  0  0  0
  4  5  1  0  0  0
  4 96  1  0  0  0
  4 97  1  0  0  0
  5  6  1  0  0  0
  5 26  1  0  0  0
  5 98  1  0  0  0
  6 25  1  0  0  0
  6 99  1  0  0  0
  6100  1  0  0  0
  7  8  2  0  0  0
  7 26  1  0  0  0
  7 29  1  0  0  0
  8  9  1  0  0  0
  8 22  1  0  0  0
  9 10  1  0  0  0
  9 27  2  0  0  0
 10 11  2  0  0  0
 10 15  1  0  0  0
 11 12  1  0  0  0
 11101  1  0  0  0
 12 13  2  0  0  0
 12102  1  0  0  0
 13 14  1  0  0  0
 13 31  1  0  0  0
 14 15  2  0  0  0
 14103  1  0  0  0
 15104  1  0  0  0
 16 17  2  0  0  0
 16 21  1  0  0  0
 16 31  1  0  0  0
 17 18  1  0  0  0
 17105  1  0  0  0
 18 19  2  0  0  0
 18106  1  0  0  0
 19 20  1  0  0  0
 19 24  1  0  0  0
 20 21  2  0  0  0
 20107  1  0  0  0
 21 23  1  0  0  0
 22 28  1  0  0  0
 22 32  2  0  0  0
 26 27  1  0  0  0
 28108  1  0  0  0
 28109  1  0  0  0
 29110  1  0  0  0
 29111  1  0  0  0
 33 34  1  0  0  0
 33 66  1  0  0  0
 33 70  2  0  0  0
 34 36  1  0  0  0
 34 59  1  0  0  0
 34112  1  0  0  0
 35 44  2  0  0  0
 35 45  1  0  0  0
 35 68  1  0  0  0
 36 56  1  0  0  0
 36113  1  0  0  0
 37 39  1  0  0  0
 37 47  1  0  0  0
 37 66  1  0  0  0
 37114  1  0  0  0
 38 43  2  0  0  0
 38 46  1  0  0  0
 38 47  1  0  0  0
 39 64  1  0  0  0
 39 67  2  0  0  0
 40 52  1  0  0  0
 40 53  2  0  0  0
 40 58  1  0  0  0
 41115  1  0  0  0
 41116  1  0  0  0
 41117  1  0  0  0
 41 48  1  0  0  0
 42 43  1  0  0  0
 42 66  1  0  0  0
 42118  1  0  0  0
 42119  1  0  0  0
 43 44  1  0  0  0
 44120  1  0  0  0
 45 46  2  0  0  0
 45121  1  0  0  0
 46122  1  0  0  0
 47123  1  0  0  0
 47124  1  0  0  0
 48 56  1  0  0  0
 48 65  1  0  0  0
 48125  1  0  0  0
 49 50  1  0  0  0
 49 53  1  0  0  0
 49 64  1  0  0  0
 49126  1  0  0  0
 50 51  1  0  0  0
 50127  1  0  0  0
 50128  1  0  0  0
 51 52  1  0  0  0
 51129  1  0  0  0
 51130  1  0  0  0
 52131  1  0  0  0
 52132  1  0  0  0
 53 54  1  0  0  0
 54 55  2  0  0  0
 54133  1  0  0  0
 55 57  1  0  0  0
 55134  1  0  0  0
 56 69  2  0  0  0
 57 58  2  0  0  0
 57135  1  0  0  0
 58136  1  0  0  0
 59 60  1  0  0  0
 59 61  1  0  0  0
 59 62  1  0  0  0
 60137  1  0  0  0
 60138  1  0  0  0
 60139  1  0  0  0
 61140  1  0  0  0
 61141  1  0  0  0
 61142  1  0  0  0
 62143  1  0  0  0
 62144  1  0  0  0
 62145  1  0  0  0
 63 65  1  0  0  0
 63146  1  0  0  0
 63147  1  0  0  0
 63148  1  0  0  0
 64149  1  0  0  0
 65150  1  0  0  0
 68 87  1  0  0  0
 71 73  2  0  0  0
 71 75  1  0  0  0
 71151  1  0  0  0
 72 74  1  0  0  0
 72 76  2  0  0  0
 72152  1  0  0  0
 73 76  1  0  0  0
 73 87  1  0  0  0
 74 75  2  0  0  0
 74 86  1  0  0  0
 75 90  1  0  0  0
 76 91  1  0  0  0
 77 80  1  0  0  0
 77 81  1  0  0  0
 77153  1  0  0  0
 77154  1  0  0  0
 78 83  1  0  0  0
 78 88  1  0  0  0
 78155  1  0  0  0
 78156  1  0  0  0
 79 80  1  0  0  0
 79 82  1  0  0  0
 79 83  1  0  0  0
 79157  1  0  0  0
 80 86  1  0  0  0
 80158  1  0  0  0
 81 82  1  0  0  0
 81 84  1  0  0  0
 81159  1  0  0  0
 82 88  1  0  0  0
 82160  1  0  0  0
 83 89  1  0  0  0
 83161  1  0  0  0
 84162  1  0  0  0
 84163  1  0  0  0
 84164  1  0  0  0
 85 90  1  0  0  0
 85165  1  0  0  0
 85166  1  0  0  0
 85167  1  0  0  0
 86168  1  0  0  0
 86169  1  0  0  0
 87170  1  0  0  0
 87171  1  0  0  0
 89172  1  0  0  0
M  ISO  4   1 100  68 101  87 101  88 100
M  END
> <chiral flag>
0

> <version>
0

> <s_m_source_file>
/data/baiqing/PycharmProjects/Reinvent-master-3.2/result/LINK_invent/BTK/process_docking_weight1_custom_sum_contain_oxygen_bond_distance_aromatic_linkinvent_7_9_3/rearranged_h_0159.sdf

> <i_m_source_file_index>
4

> <r_mmod_Potential_Energy-OPLS-2005>
228.482666015625

> <r_mmod_Stretch_Energy-OPLS-2005>
38.3124198913574

> <r_mmod_Bend_Energy-OPLS-2005>
140.445755004883

> <r_mmod_Torsional_Energy-OPLS-2005>
437.310729980469

> <r_mmod_Improper_Torsional_Energy-OPLS-2005>
9.45125007629395

> <r_mmod_Van_der_Waal_Energy-OPLS-2005>
140.485488891602

> <r_mmod_Electrostatic_Energy-OPLS-2005>
-342.905059814453

> <r_mmod_Solvation_Energy-OPLS-2005>
-205.285263061523

> <b_mmod_Minimization_Converged-OPLS-2005>
0

> <r_mmod_RMS_Derivative-OPLS-2005>
1.39379811286926

$$$$
4
                    3D
 Structure written by MMmdl.
168177  0  0  1  0            999 V2000
  -30.6842  -14.7809   20.4473 C   0  0  0  0  0  0
  -30.4101  -12.4876   19.4793 C   0  0  0  0  0  0
  -29.4985  -12.5013   18.2368 C   0  0  0  0  0  0
  -28.0304  -12.3111   18.6566 C   0  0  0  0  0  0
  -27.6282  -13.2324   19.8377 C   0  0  2  0  0  0
  -28.6791  -13.2414   20.9731 C   0  0  0  0  0  0
  -25.2451  -13.8181   20.5693 C   0  0  0  0  0  0
  -24.1764  -13.0425   20.9236 C   0  0  0  0  0  0
  -24.6369  -11.6908   20.8776 C   0  0  0  0  0  0
  -23.9053  -10.4285   21.0421 C   0  0  0  0  0  0
  -24.3610   -9.4203   21.9197 C   0  0  0  0  0  0
  -23.6292   -8.2232   22.0753 C   0  0  0  0  0  0
  -22.4278   -8.0267   21.3536 C   0  0  0  0  0  0
  -21.9911   -9.0243   20.4641 C   0  0  0  0  0  0
  -22.7230  -10.2127   20.3063 C   0  0  0  0  0  0
  -21.6847   -6.0728   22.5281 C   0  0  0  0  0  0
  -21.4005   -6.5634   23.8215 C   0  0  0  0  0  0
  -21.3661   -5.6787   24.9178 C   0  0  0  0  0  0
  -21.6051   -4.3051   24.7223 C   0  0  0  0  0  0
  -21.8819   -3.8140   23.4343 C   0  0  0  0  0  0
  -21.9188   -4.6956   22.3403 C   0  0  0  0  0  0
  -22.7791  -13.5219   21.1877 C   0  0  0  0  0  0
  -22.1662   -4.2143   21.0979 F   0  0  0  0  0  0
  -21.5632   -3.4536   25.7734 F   0  0  0  0  0  0
  -29.9667  -13.5970   20.3667 N   0  0  0  0  0  0
  -26.2872  -12.9390   20.3268 N   0  0  0  0  0  0
  -25.9301  -11.6536   20.5789 N   0  0  0  0  0  0
  -22.0418  -12.8228   22.0427 N   0  0  0  0  0  0
  -25.4086  -15.1898   20.4046 N   0  0  0  0  0  0
  -31.8889  -14.7184   20.1822 O   0  0  0  0  0  0
  -21.6636   -6.8870   21.4241 O   0  0  0  0  0  0
  -22.3494  -14.5528   20.6711 O   0  0  0  0  0  0
  -24.6328  -31.8542   23.1994 C   0  0  0  0  0  0
  -25.9155  -32.4741   23.8336 C   0  0  1  0  0  0
  -27.2067  -27.2496   20.1394 C   0  0  0  0  0  0
  -25.5941  -33.8548   24.2248 N   0  0  0  0  0  0
  -23.4305  -30.4786   21.5423 C   0  0  2  0  0  0
  -24.8794  -28.9308   20.1048 C   0  0  0  0  0  0
  -22.7516  -29.4601   22.4903 C   0  0  0  0  0  0
  -18.0292  -28.1388   22.8480 C   0  0  0  0  0  0
  -24.1492  -36.7283   23.2638 C   0  0  0  0  0  0
  -25.9788  -30.7633   21.3846 C   0  0  0  0  0  0
  -26.0520  -29.3872   20.7230 C   0  0  0  0  0  0
  -27.2237  -28.5590   20.7312 C   0  0  0  0  0  0
  -26.0241  -26.8780   19.4663 C   0  0  0  0  0  0
  -24.8720  -27.6846   19.4620 C   0  0  0  0  0  0
  -23.6498  -29.8169   20.1568 C   0  0  0  0  0  0
  -25.4119  -36.3058   24.0322 C   0  0  1  0  0  0
  -20.5899  -28.3703   23.1260 C   0  0  2  0  0  0
  -20.6784  -26.9418   22.5407 C   0  0  0  0  0  0
  -19.5758  -26.6383   21.5211 C   0  0  0  0  0  0
  -18.1938  -26.7934   22.1619 C   0  0  0  0  0  0
  -19.1548  -28.8866   23.2863 C   0  0  0  0  0  0
  -18.9465  -30.1465   23.8877 C   0  0  0  0  0  0
  -17.6465  -30.6589   24.0558 C   0  0  0  0  0  0
  -25.9062  -34.9430   23.5084 C   0  0  0  0  0  0
  -16.5354  -29.9079   23.6337 C   0  0  0  0  0  0
  -16.7280  -28.6500   23.0356 C   0  0  0  0  0  0
  -26.4518  -31.6575   25.0738 C   0  0  0  0  0  0
  -25.3735  -31.3729   26.1453 C   0  0  0  0  0  0
  -27.0381  -30.2982   24.6265 C   0  0  0  0  0  0
  -27.6051  -32.4340   25.7518 C   0  0  0  0  0  0
  -27.5582  -37.1794   24.8460 C   0  0  0  0  0  0
  -21.4220  -29.3044   22.3646 N   0  0  0  0  0  0
  -26.4286  -37.3766   23.9409 N   0  0  0  0  0  0
  -24.6993  -31.0501   22.0977 N   0  0  0  0  0  0
  -23.4211  -28.8142   23.3006 O   0  0  0  0  0  0
  -28.2321  -26.2760   20.2143 O   0  0  0  0  0  0
  -26.5639  -34.8903   22.4654 O   0  0  0  0  0  0
  -23.5476  -32.1371   23.7284 O   0  0  0  0  0  0
  -29.1524  -22.9425   19.7393 C   0  0  0  0  0  0
  -27.9663  -22.5309   21.7906 C   0  0  0  0  0  0
  -28.3714  -23.4977   20.8020 C   0  0  0  0  0  0
  -29.4632  -21.5213   19.6577 C   0  0  0  0  0  0
  -28.3326  -21.1299   21.7456 C   0  0  0  0  0  0
  -29.0681  -20.5581   20.6549 C   0  0  0  0  0  0
  -30.5409  -18.6024   21.3093 C   0  0  0  0  0  0
  -28.3517  -18.0913   20.4606 C   0  0  0  0  0  0
  -31.0754  -17.2153   20.7960 C   0  0  0  0  0  0
  -28.7820  -16.5570   20.2573 C   0  0  0  0  0  0
  -29.6459  -23.8942   18.6549 C   0  0  0  0  0  0
  -27.0943  -23.0099   22.9618 C   0  0  0  0  0  0
  -30.2471  -21.0173   18.4465 C   0  0  0  0  0  0
  -27.9101  -20.2421   22.9185 C   0  0  0  0  0  0
  -27.8270  -25.0205   20.9456 C   0  0  0  0  0  0
  -29.4057  -19.1311   20.5435 N   0  0  0  0  0  0
  -30.1273  -16.0589   20.6790 N   0  0  0  0  0  0
  -31.4524  -12.5747   19.1683 H   0  0  0  0  0  0
  -30.3417  -11.5295   19.9977 H   0  0  0  0  0  0
  -29.7944  -11.7172   17.5384 H   0  0  0  0  0  0
  -29.6127  -13.4467   17.7049 H   0  0  0  0  0  0
  -27.9026  -11.2665   18.9423 H   0  0  0  0  0  0
  -27.3681  -12.4765   17.8056 H   0  0  0  0  0  0
  -27.5925  -14.2293   19.4054 H   0  0  0  0  0  0
  -28.7385  -12.2658   21.4585 H   0  0  0  0  0  0
  -28.4118  -13.9526   21.7547 H   0  0  0  0  0  0
  -25.2740   -9.5690   22.4793 H   0  0  0  0  0  0
  -23.9991   -7.4626   22.7483 H   0  0  0  0  0  0
  -21.0835   -8.8772   19.8957 H   0  0  0  0  0  0
  -22.3681  -10.9678   19.6188 H   0  0  0  0  0  0
  -21.2000   -7.6141   23.9718 H   0  0  0  0  0  0
  -21.1486   -6.0514   25.9084 H   0  0  0  0  0  0
  -22.0598   -2.7600   23.2839 H   0  0  0  0  0  0
  -22.3998  -11.9885   22.4832 H   0  0  0  0  0  0
  -21.1039  -13.1283   22.2613 H   0  0  0  0  0  0
  -24.6362  -15.8378   20.5138 H   0  0  0  0  0  0
  -26.2446  -15.6265   20.0419 H   0  0  0  0  0  0
  -26.7225  -32.5386   23.1076 H   0  0  0  0  0  0
  -25.0070  -33.9681   25.0383 H   0  0  0  0  0  0
  -22.7266  -31.3010   21.3978 H   0  0  0  0  0  0
  -23.3753  -35.9616   23.3283 H   0  0  0  0  0  0
  -24.3580  -36.8932   22.2056 H   0  0  0  0  0  0
  -23.7248  -37.6477   23.6682 H   0  0  0  0  0  0
  -26.1256  -31.5261   20.6187 H   0  0  0  0  0  0
  -26.8530  -30.8058   22.0228 H   0  0  0  0  0  0
  -28.1151  -28.8950   21.2426 H   0  0  0  0  0  0
  -25.9726  -25.9176   18.9718 H   0  0  0  0  0  0
  -23.9779  -27.3331   18.9649 H   0  0  0  0  0  0
  -23.7716  -30.5949   19.4025 H   0  0  0  0  0  0
  -22.7680  -29.2505   19.8517 H   0  0  0  0  0  0
  -25.1301  -36.1896   25.0816 H   0  0  0  0  0  0
  -20.9989  -28.3284   24.1382 H   0  0  0  0  0  0
  -20.5688  -26.2311   23.3615 H   0  0  0  0  0  0
  -21.6649  -26.7447   22.1192 H   0  0  0  0  0  0
  -19.6917  -25.6292   21.1249 H   0  0  0  0  0  0
  -19.6695  -27.3185   20.6734 H   0  0  0  0  0  0
  -17.4213  -26.6687   21.4016 H   0  0  0  0  0  0
  -18.0326  -26.0073   22.9008 H   0  0  0  0  0  0
  -19.7942  -30.7291   24.2232 H   0  0  0  0  0  0
  -17.5017  -31.6267   24.5158 H   0  0  0  0  0  0
  -15.5355  -30.2971   23.7676 H   0  0  0  0  0  0
  -15.8679  -28.0813   22.7079 H   0  0  0  0  0  0
  -24.5898  -30.7095   25.7777 H   0  0  0  0  0  0
  -24.8945  -32.2901   26.4890 H   0  0  0  0  0  0
  -25.8048  -30.8889   27.0227 H   0  0  0  0  0  0
  -26.2983  -29.6710   24.1273 H   0  0  0  0  0  0
  -27.4019  -29.7269   25.4819 H   0  0  0  0  0  0
  -27.8883  -30.4237   23.9552 H   0  0  0  0  0  0
  -27.2628  -33.3635   26.2083 H   0  0  0  0  0  0
  -28.3866  -32.6921   25.0357 H   0  0  0  0  0  0
  -28.0718  -31.8485   26.5450 H   0  0  0  0  0  0
  -28.2580  -38.0109   24.7519 H   0  0  0  0  0  0
  -28.1092  -36.2637   24.6261 H   0  0  0  0  0  0
  -27.2298  -37.1413   25.8861 H   0  0  0  0  0  0
  -20.9412  -29.8753   21.6834 H   0  0  0  0  0  0
  -26.0157  -38.2836   24.1415 H   0  0  0  0  0  0
  -31.3518  -19.3320   21.2764 H   0  0  0  0  0  0
  -30.2776  -18.5018   22.3610 H   0  0  0  0  0  0
  -27.7446  -18.1359   21.3623 H   0  0  0  0  0  0
  -27.6655  -18.3693   19.6589 H   0  0  0  0  0  0
  -31.8930  -16.9276   21.4600 H   0  0  0  0  0  0
  -31.5314  -17.3687   19.8161 H   0  0  0  0  0  0
  -28.6942  -16.3290   19.1935 H   0  0  0  0  0  0
  -28.0302  -15.9552   20.7605 H   0  0  0  0  0  0
  -29.8494  -24.8839   19.0573 H   0  0  0  0  0  0
  -28.8999  -23.9929   17.8665 H   0  0  0  0  0  0
  -30.5842  -23.5717   18.2064 H   0  0  0  0  0  0
  -26.4023  -23.8049   22.6940 H   0  0  0  0  0  0
  -27.7224  -23.3707   23.7768 H   0  0  0  0  0  0
  -26.4418  -22.2340   23.3568 H   0  0  0  0  0  0
  -29.8871  -21.4773   17.5265 H   0  0  0  0  0  0
  -30.1604  -19.9426   18.2945 H   0  0  0  0  0  0
  -31.3053  -21.2510   18.5615 H   0  0  0  0  0  0
  -28.0617  -20.7478   23.8718 H   0  0  0  0  0  0
  -28.4760  -19.3222   23.0051 H   0  0  0  0  0  0
  -26.8573  -19.9724   22.8275 H   0  0  0  0  0  0
  -27.9960  -25.2944   21.9877 H   0  0  0  0  0  0
  -26.7481  -24.9043   20.8562 H   0  0  0  0  0  0
  1 25  1  0  0  0
  1 30  2  0  0  0
  1 87  1  0  0  0
  2  3  1  0  0  0
  2 25  1  0  0  0
  2 88  1  0  0  0
  2 89  1  0  0  0
  3  4  1  0  0  0
  3 90  1  0  0  0
  3 91  1  0  0  0
  4  5  1  0  0  0
  4 92  1  0  0  0
  4 93  1  0  0  0
  5  6  1  0  0  0
  5 26  1  0  0  0
  5 94  1  0  0  0
  6 25  1  0  0  0
  6 95  1  0  0  0
  6 96  1  0  0  0
  7  8  2  0  0  0
  7 26  1  0  0  0
  7 29  1  0  0  0
  8  9  1  0  0  0
  8 22  1  0  0  0
  9 10  1  0  0  0
  9 27  2  0  0  0
 10 11  2  0  0  0
 10 15  1  0  0  0
 11 12  1  0  0  0
 11 97  1  0  0  0
 12 13  2  0  0  0
 12 98  1  0  0  0
 13 14  1  0  0  0
 13 31  1  0  0  0
 14 15  2  0  0  0
 14 99  1  0  0  0
 15100  1  0  0  0
 16 17  2  0  0  0
 16 21  1  0  0  0
 16 31  1  0  0  0
 17 18  1  0  0  0
 17101  1  0  0  0
 18 19  2  0  0  0
 18102  1  0  0  0
 19 20  1  0  0  0
 19 24  1  0  0  0
 20 21  2  0  0  0
 20103  1  0  0  0
 21 23  1  0  0  0
 22 28  1  0  0  0
 22 32  2  0  0  0
 26 27  1  0  0  0
 28104  1  0  0  0
 28105  1  0  0  0
 29106  1  0  0  0
 29107  1  0  0  0
 33 34  1  0  0  0
 33 66  1  0  0  0
 33 70  2  0  0  0
 34 36  1  0  0  0
 34 59  1  0  0  0
 34108  1  0  0  0
 35 44  2  0  0  0
 35 45  1  0  0  0
 35 68  1  0  0  0
 36 56  1  0  0  0
 36109  1  0  0  0
 37 39  1  0  0  0
 37 47  1  0  0  0
 37 66  1  0  0  0
 37110  1  0  0  0
 38 43  2  0  0  0
 38 46  1  0  0  0
 38 47  1  0  0  0
 39 64  1  0  0  0
 39 67  2  0  0  0
 40 52  1  0  0  0
 40 53  2  0  0  0
 40 58  1  0  0  0
 41111  1  0  0  0
 41112  1  0  0  0
 41113  1  0  0  0
 41 48  1  0  0  0
 42 43  1  0  0  0
 42 66  1  0  0  0
 42114  1  0  0  0
 42115  1  0  0  0
 43 44  1  0  0  0
 44116  1  0  0  0
 45 46  2  0  0  0
 45117  1  0  0  0
 46118  1  0  0  0
 47119  1  0  0  0
 47120  1  0  0  0
 48 56  1  0  0  0
 48 65  1  0  0  0
 48121  1  0  0  0
 49 50  1  0  0  0
 49 53  1  0  0  0
 49 64  1  0  0  0
 49122  1  0  0  0
 50 51  1  0  0  0
 50123  1  0  0  0
 50124  1  0  0  0
 51 52  1  0  0  0
 51125  1  0  0  0
 51126  1  0  0  0
 52127  1  0  0  0
 52128  1  0  0  0
 53 54  1  0  0  0
 54 55  2  0  0  0
 54129  1  0  0  0
 55 57  1  0  0  0
 55130  1  0  0  0
 56 69  2  0  0  0
 57 58  2  0  0  0
 57131  1  0  0  0
 58132  1  0  0  0
 59 60  1  0  0  0
 59 61  1  0  0  0
 59 62  1  0  0  0
 60133  1  0  0  0
 60134  1  0  0  0
 60135  1  0  0  0
 61136  1  0  0  0
 61137  1  0  0  0
 61138  1  0  0  0
 62139  1  0  0  0
 62140  1  0  0  0
 62141  1  0  0  0
 63 65  1  0  0  0
 63142  1  0  0  0
 63143  1  0  0  0
 63144  1  0  0  0
 64145  1  0  0  0
 65146  1  0  0  0
 68 85  1  0  0  0
 71 73  2  0  0  0
 71 74  1  0  0  0
 71 81  1  0  0  0
 72 73  1  0  0  0
 72 75  2  0  0  0
 72 82  1  0  0  0
 73 85  1  0  0  0
 74 76  2  0  0  0
 74 83  1  0  0  0
 75 76  1  0  0  0
 75 84  1  0  0  0
 76 86  1  0  0  0
 77 79  1  0  0  0
 77 86  1  0  0  0
 77147  1  0  0  0
 77148  1  0  0  0
 78 80  1  0  0  0
 78 86  1  0  0  0
 78149  1  0  0  0
 78150  1  0  0  0
 79 87  1  0  0  0
 79151  1  0  0  0
 79152  1  0  0  0
 80 87  1  0  0  0
 80153  1  0  0  0
 80154  1  0  0  0
 81155  1  0  0  0
 81156  1  0  0  0
 81157  1  0  0  0
 82158  1  0  0  0
 82159  1  0  0  0
 82160  1  0  0  0
 83161  1  0  0  0
 83162  1  0  0  0
 83163  1  0  0  0
 84164  1  0  0  0
 84165  1  0  0  0
 84166  1  0  0  0
 85167  1  0  0  0
 85168  1  0  0  0
M  ISO  4   1 100  68 101  85 101  87 100
M  END
> <chiral flag>
0

> <version>
0

> <s_m_source_file>
/data/baiqing/PycharmProjects/Reinvent-master-3.2/result/LINK_invent/BTK/process_docking_weight1_custom_sum_contain_oxygen_bond_distance_aromatic_linkinvent_7_9_3/rearranged_h_0159.sdf

> <i_m_source_file_index>
5

> <r_mmod_Potential_Energy-OPLS-2005>
484.810302734375

> <r_mmod_Stretch_Energy-OPLS-2005>
142.623458862305

> <r_mmod_Bend_Energy-OPLS-2005>
236.468170166016

> <r_mmod_Torsional_Energy-OPLS-2005>
382.280303955078

> <r_mmod_Improper_Torsional_Energy-OPLS-2005>
8.2242956161499

> <r_mmod_Van_der_Waal_Energy-OPLS-2005>
176.872909545898

> <r_mmod_Electrostatic_Energy-OPLS-2005>
-368.127777099609

> <r_mmod_Solvation_Energy-OPLS-2005>
-204.880096435547

> <b_mmod_Minimization_Converged-OPLS-2005>
0

> <r_mmod_RMS_Derivative-OPLS-2005>
1.11748886108398

$$$$
5
                    3D
 Structure written by MMmdl.
171180  0  0  1  0            999 V2000
  -30.6559  -14.6190   20.5297 C   0  0  0  0  0  0
  -30.4352  -12.3907   19.4434 C   0  0  0  0  0  0
  -29.5039  -12.5083   18.2178 C   0  0  0  0  0  0
  -28.0278  -12.3462   18.6328 C   0  0  0  0  0  0
  -27.6528  -13.2180   19.8610 C   0  0  2  0  0  0
  -28.6994  -13.0759   20.9887 C   0  0  0  0  0  0
  -25.2558  -13.8176   20.5684 C   0  0  0  0  0  0
  -24.1826  -13.0440   20.9189 C   0  0  0  0  0  0
  -24.6393  -11.6912   20.8729 C   0  0  0  0  0  0
  -23.9060  -10.4295   21.0397 C   0  0  0  0  0  0
  -24.3613   -9.4212   21.9177 C   0  0  0  0  0  0
  -23.6293   -8.2245   22.0750 C   0  0  0  0  0  0
  -22.4274   -8.0278   21.3543 C   0  0  0  0  0  0
  -21.9906   -9.0250   20.4644 C   0  0  0  0  0  0
  -22.7231  -10.2131   20.3050 C   0  0  0  0  0  0
  -21.6854   -6.0731   22.5278 C   0  0  0  0  0  0
  -21.4014   -6.5636   23.8209 C   0  0  0  0  0  0
  -21.3660   -5.6789   24.9173 C   0  0  0  0  0  0
  -21.6046   -4.3051   24.7225 C   0  0  0  0  0  0
  -21.8821   -3.8142   23.4347 C   0  0  0  0  0  0
  -21.9193   -4.6959   22.3403 C   0  0  0  0  0  0
  -22.7848  -13.5231   21.1852 C   0  0  0  0  0  0
  -22.1663   -4.2143   21.0983 F   0  0  0  0  0  0
  -21.5630   -3.4536   25.7738 F   0  0  0  0  0  0
  -30.0139  -13.4137   20.4201 N   0  0  0  0  0  0
  -26.2987  -12.9359   20.3315 N   0  0  0  0  0  0
  -25.9322  -11.6512   20.5749 N   0  0  0  0  0  0
  -22.0490  -12.8223   22.0409 N   0  0  0  0  0  0
  -25.4276  -15.1896   20.4103 N   0  0  0  0  0  0
  -31.8187  -14.7597   20.1474 O   0  0  0  0  0  0
  -21.6643   -6.8873   21.4238 O   0  0  0  0  0  0
  -22.3533  -14.5537   20.6701 O   0  0  0  0  0  0
  -24.6283  -31.8619   23.2082 C   0  0  0  0  0  0
  -25.9136  -32.4787   23.8390 C   0  0  1  0  0  0
  -27.2098  -27.3127   20.1025 C   0  0  0  0  0  0
  -25.5958  -33.8587   24.2311 N   0  0  0  0  0  0
  -23.4205  -30.4930   21.5515 C   0  0  2  0  0  0
  -24.8635  -28.9630   20.1084 C   0  0  0  0  0  0
  -22.7487  -29.4644   22.4935 C   0  0  0  0  0  0
  -18.0290  -28.1381   22.8487 C   0  0  0  0  0  0
  -24.1491  -36.7288   23.2637 C   0  0  0  0  0  0
  -25.9675  -30.7891   21.3855 C   0  0  0  0  0  0
  -26.0378  -29.4210   20.7196 C   0  0  0  0  0  0
  -27.2136  -28.6071   20.7137 C   0  0  0  0  0  0
  -26.0085  -26.9349   19.4456 C   0  0  0  0  0  0
  -24.8518  -27.7244   19.4633 C   0  0  0  0  0  0
  -23.6340  -29.8428   20.1629 C   0  0  0  0  0  0
  -25.4114  -36.3084   24.0335 C   0  0  1  0  0  0
  -20.5894  -28.3691   23.1273 C   0  0  2  0  0  0
  -20.6780  -26.9412   22.5403 C   0  0  0  0  0  0
  -19.5753  -26.6383   21.5209 C   0  0  0  0  0  0
  -18.1934  -26.7926   22.1622 C   0  0  0  0  0  0
  -19.1543  -28.8852   23.2877 C   0  0  0  0  0  0
  -18.9463  -30.1456   23.8892 C   0  0  0  0  0  0
  -17.6462  -30.6583   24.0559 C   0  0  0  0  0  0
  -25.9057  -34.9453   23.5114 C   0  0  0  0  0  0
  -16.5353  -29.9077   23.6334 C   0  0  0  0  0  0
  -16.7277  -28.6495   23.0355 C   0  0  0  0  0  0
  -26.4513  -31.6588   25.0755 C   0  0  0  0  0  0
  -25.3745  -31.3721   26.1482 C   0  0  0  0  0  0
  -27.0355  -30.3006   24.6222 C   0  0  0  0  0  0
  -27.6077  -32.4319   25.7518 C   0  0  0  0  0  0
  -27.5582  -37.1798   24.8463 C   0  0  0  0  0  0
  -21.4198  -29.3049   22.3670 N   0  0  0  0  0  0
  -26.4289  -37.3782   23.9415 N   0  0  0  0  0  0
  -24.6910  -31.0636   22.1042 N   0  0  0  0  0  0
  -23.4211  -28.8164   23.2996 O   0  0  0  0  0  0
  -28.2917  -26.4059   20.1745 O   0  0  0  0  0  0
  -26.5606  -34.8916   22.4669 O   0  0  0  0  0  0
  -23.5446  -32.1419   23.7407 O   0  0  0  0  0  0
  -29.6982  -23.2292   19.2070 C   0  0  0  0  0  0
  -28.5035  -22.8517   21.2536 C   0  0  0  0  0  0
  -29.8141  -20.9736   20.2795 C   0  0  0  0  0  0
  -28.8096  -23.7321   20.1821 C   0  0  0  0  0  0
  -30.1953  -21.8934   19.2487 C   0  0  0  0  0  0
  -28.9938  -21.5026   21.3194 C   0  0  0  0  0  0
  -31.4969  -19.1790   21.2144 C   0  0  0  0  0  0
  -29.3662  -18.2455   20.5123 C   0  0  0  0  0  0
  -30.3264  -19.4718   20.2709 C   0  0  1  0  0  0
  -31.6340  -17.6371   21.2486 C   0  0  2  0  0  0
  -30.1737  -17.1252   21.2794 C   0  0  2  0  0  0
  -31.1303  -21.4715   18.1258 C   0  0  0  0  0  0
  -27.8486  -21.1139   23.4059 C   0  0  0  0  0  0
  -34.6708  -17.2755   23.3432 C   0  0  0  0  0  0
  -27.9257  -24.9946   19.8971 C   0  0  0  0  0  0
  -32.4986  -17.1532   22.4268 C   0  0  0  0  0  0
  -29.8911  -15.6787   20.9359 N   0  0  0  0  0  0
  -28.6899  -20.6487   22.3589 O   0  0  0  0  0  0
  -33.8152  -17.6677   22.2806 O   0  0  0  0  0  0
  -31.4759  -12.5123   19.1380 H   0  0  0  0  0  0
  -30.3680  -11.3954   19.8855 H   0  0  0  0  0  0
  -29.7673  -11.7580   17.4710 H   0  0  0  0  0  0
  -29.6457  -13.4789   17.7391 H   0  0  0  0  0  0
  -27.8646  -11.2931   18.8645 H   0  0  0  0  0  0
  -27.3718  -12.5755   17.7924 H   0  0  0  0  0  0
  -27.6710  -14.2536   19.5206 H   0  0  0  0  0  0
  -28.7094  -12.0552   21.3742 H   0  0  0  0  0  0
  -28.4460  -13.7114   21.8384 H   0  0  0  0  0  0
  -25.2761   -9.5691   22.4746 H   0  0  0  0  0  0
  -24.0007   -7.4635   22.7468 H   0  0  0  0  0  0
  -21.0838   -8.8762   19.8952 H   0  0  0  0  0  0
  -22.3686  -10.9663   19.6155 H   0  0  0  0  0  0
  -21.2005   -7.6144   23.9710 H   0  0  0  0  0  0
  -21.1483   -6.0521   25.9076 H   0  0  0  0  0  0
  -22.0600   -2.7604   23.2848 H   0  0  0  0  0  0
  -22.4111  -11.9891   22.4803 H   0  0  0  0  0  0
  -21.1105  -13.1243   22.2609 H   0  0  0  0  0  0
  -24.6610  -15.8448   20.5188 H   0  0  0  0  0  0
  -26.2779  -15.6285   20.0807 H   0  0  0  0  0  0
  -26.7201  -32.5450   23.1134 H   0  0  0  0  0  0
  -25.0140  -33.9731   25.0480 H   0  0  0  0  0  0
  -22.7145  -31.3151   21.4163 H   0  0  0  0  0  0
  -23.3759  -35.9616   23.3294 H   0  0  0  0  0  0
  -24.3590  -36.8907   22.2053 H   0  0  0  0  0  0
  -23.7235  -37.6488   23.6654 H   0  0  0  0  0  0
  -26.1085  -31.5572   20.6237 H   0  0  0  0  0  0
  -26.8452  -30.8277   22.0192 H   0  0  0  0  0  0
  -28.1073  -28.9490   21.2167 H   0  0  0  0  0  0
  -25.8997  -26.0033   18.9139 H   0  0  0  0  0  0
  -23.9558  -27.3713   18.9708 H   0  0  0  0  0  0
  -23.7555  -30.6262   19.4139 H   0  0  0  0  0  0
  -22.7528  -29.2770   19.8553 H   0  0  0  0  0  0
  -25.1292  -36.1939   25.0827 H   0  0  0  0  0  0
  -20.9995  -28.3263   24.1390 H   0  0  0  0  0  0
  -20.5686  -26.2299   23.3603 H   0  0  0  0  0  0
  -21.6647  -26.7440   22.1192 H   0  0  0  0  0  0
  -19.6914  -25.6294   21.1239 H   0  0  0  0  0  0
  -19.6692  -27.3193   20.6738 H   0  0  0  0  0  0
  -17.4206  -26.6681   21.4019 H   0  0  0  0  0  0
  -18.0329  -26.0064   22.9014 H   0  0  0  0  0  0
  -19.7940  -30.7275   24.2256 H   0  0  0  0  0  0
  -17.5015  -31.6263   24.5161 H   0  0  0  0  0  0
  -15.5353  -30.2973   23.7664 H   0  0  0  0  0  0
  -15.8679  -28.0813   22.7068 H   0  0  0  0  0  0
  -24.5939  -30.7046   25.7816 H   0  0  0  0  0  0
  -24.8915  -32.2882   26.4891 H   0  0  0  0  0  0
  -25.8081  -30.8922   27.0266 H   0  0  0  0  0  0
  -26.2936  -29.6753   24.1244 H   0  0  0  0  0  0
  -27.4039  -29.7266   25.4735 H   0  0  0  0  0  0
  -27.8818  -30.4278   23.9468 H   0  0  0  0  0  0
  -27.2697  -33.3624   26.2089 H   0  0  0  0  0  0
  -28.3891  -32.6866   25.0346 H   0  0  0  0  0  0
  -28.0745  -31.8447   26.5437 H   0  0  0  0  0  0
  -28.2591  -38.0103   24.7526 H   0  0  0  0  0  0
  -28.1086  -36.2636   24.6268 H   0  0  0  0  0  0
  -27.2304  -37.1423   25.8866 H   0  0  0  0  0  0
  -20.9372  -29.8790   21.6901 H   0  0  0  0  0  0
  -26.0171  -38.2857   24.1421 H   0  0  0  0  0  0
  -29.9386  -23.8585   18.3608 H   0  0  0  0  0  0
  -27.8102  -23.2179   21.9957 H   0  0  0  0  0  0
  -31.2640  -19.5518   22.2128 H   0  0  0  0  0  0
  -32.4158  -19.6691   20.8914 H   0  0  0  0  0  0
  -28.9795  -17.8821   19.5596 H   0  0  0  0  0  0
  -28.4965  -18.5281   21.1042 H   0  0  0  0  0  0
  -30.7142  -19.2745   19.2740 H   0  0  0  0  0  0
  -32.0979  -17.3282   20.3110 H   0  0  0  0  0  0
  -29.8549  -17.2084   22.3202 H   0  0  0  0  0  0
  -31.4396  -22.3236   17.5198 H   0  0  0  0  0  0
  -30.6386  -20.7578   17.4641 H   0  0  0  0  0  0
  -32.0377  -21.0156   18.5237 H   0  0  0  0  0  0
  -27.7227  -20.3214   24.1437 H   0  0  0  0  0  0
  -26.8570  -21.3753   23.0340 H   0  0  0  0  0  0
  -28.2821  -21.9732   23.9193 H   0  0  0  0  0  0
  -35.6619  -17.7050   23.1952 H   0  0  0  0  0  0
  -34.7793  -16.1908   23.3858 H   0  0  0  0  0  0
  -34.2952  -17.6260   24.3056 H   0  0  0  0  0  0
  -26.9909  -24.7773   20.4169 H   0  0  0  0  0  0
  -27.7133  -24.9259   18.8296 H   0  0  0  0  0  0
  -32.5297  -16.0634   22.4527 H   0  0  0  0  0  0
  -32.0673  -17.4856   23.3728 H   0  0  0  0  0  0
  -28.9416  -15.4007   21.1352 H   0  0  0  0  0  0
  1 25  1  0  0  0
  1 30  2  0  0  0
  1 87  1  0  0  0
  2  3  1  0  0  0
  2 25  1  0  0  0
  2 90  1  0  0  0
  2 91  1  0  0  0
  3  4  1  0  0  0
  3 92  1  0  0  0
  3 93  1  0  0  0
  4  5  1  0  0  0
  4 94  1  0  0  0
  4 95  1  0  0  0
  5  6  1  0  0  0
  5 26  1  0  0  0
  5 96  1  0  0  0
  6 25  1  0  0  0
  6 97  1  0  0  0
  6 98  1  0  0  0
  7  8  2  0  0  0
  7 26  1  0  0  0
  7 29  1  0  0  0
  8  9  1  0  0  0
  8 22  1  0  0  0
  9 10  1  0  0  0
  9 27  2  0  0  0
 10 11  2  0  0  0
 10 15  1  0  0  0
 11 12  1  0  0  0
 11 99  1  0  0  0
 12 13  2  0  0  0
 12100  1  0  0  0
 13 14  1  0  0  0
 13 31  1  0  0  0
 14 15  2  0  0  0
 14101  1  0  0  0
 15102  1  0  0  0
 16 17  2  0  0  0
 16 21  1  0  0  0
 16 31  1  0  0  0
 17 18  1  0  0  0
 17103  1  0  0  0
 18 19  2  0  0  0
 18104  1  0  0  0
 19 20  1  0  0  0
 19 24  1  0  0  0
 20 21  2  0  0  0
 20105  1  0  0  0
 21 23  1  0  0  0
 22 28  1  0  0  0
 22 32  2  0  0  0
 26 27  1  0  0  0
 28106  1  0  0  0
 28107  1  0  0  0
 29108  1  0  0  0
 29109  1  0  0  0
 33 34  1  0  0  0
 33 66  1  0  0  0
 33 70  2  0  0  0
 34 36  1  0  0  0
 34 59  1  0  0  0
 34110  1  0  0  0
 35 44  2  0  0  0
 35 45  1  0  0  0
 35 68  1  0  0  0
 36 56  1  0  0  0
 36111  1  0  0  0
 37 39  1  0  0  0
 37 47  1  0  0  0
 37 66  1  0  0  0
 37112  1  0  0  0
 38 43  2  0  0  0
 38 46  1  0  0  0
 38 47  1  0  0  0
 39 64  1  0  0  0
 39 67  2  0  0  0
 40 52  1  0  0  0
 40 53  2  0  0  0
 40 58  1  0  0  0
 41113  1  0  0  0
 41114  1  0  0  0
 41115  1  0  0  0
 41 48  1  0  0  0
 42 43  1  0  0  0
 42 66  1  0  0  0
 42116  1  0  0  0
 42117  1  0  0  0
 43 44  1  0  0  0
 44118  1  0  0  0
 45 46  2  0  0  0
 45119  1  0  0  0
 46120  1  0  0  0
 47121  1  0  0  0
 47122  1  0  0  0
 48 56  1  0  0  0
 48 65  1  0  0  0
 48123  1  0  0  0
 49 50  1  0  0  0
 49 53  1  0  0  0
 49 64  1  0  0  0
 49124  1  0  0  0
 50 51  1  0  0  0
 50125  1  0  0  0
 50126  1  0  0  0
 51 52  1  0  0  0
 51127  1  0  0  0
 51128  1  0  0  0
 52129  1  0  0  0
 52130  1  0  0  0
 53 54  1  0  0  0
 54 55  2  0  0  0
 54131  1  0  0  0
 55 57  1  0  0  0
 55132  1  0  0  0
 56 69  2  0  0  0
 57 58  2  0  0  0
 57133  1  0  0  0
 58134  1  0  0  0
 59 60  1  0  0  0
 59 61  1  0  0  0
 59 62  1  0  0  0
 60135  1  0  0  0
 60136  1  0  0  0
 60137  1  0  0  0
 61138  1  0  0  0
 61139  1  0  0  0
 61140  1  0  0  0
 62141  1  0  0  0
 62142  1  0  0  0
 62143  1  0  0  0
 63 65  1  0  0  0
 63144  1  0  0  0
 63145  1  0  0  0
 63146  1  0  0  0
 64147  1  0  0  0
 65148  1  0  0  0
 68 85  1  0  0  0
 71 74  2  0  0  0
 71 75  1  0  0  0
 71149  1  0  0  0
 72 74  1  0  0  0
 72 76  2  0  0  0
 72150  1  0  0  0
 73 75  2  0  0  0
 73 76  1  0  0  0
 73 79  1  0  0  0
 74 85  1  0  0  0
 75 82  1  0  0  0
 76 88  1  0  0  0
 77 79  1  0  0  0
 77 80  1  0  0  0
 77151  1  0  0  0
 77152  1  0  0  0
 78 79  1  0  0  0
 78 81  1  0  0  0
 78153  1  0  0  0
 78154  1  0  0  0
 79155  1  0  0  0
 80 81  1  0  0  0
 80 86  1  0  0  0
 80156  1  0  0  0
 81 87  1  0  0  0
 81157  1  0  0  0
 82158  1  0  0  0
 82159  1  0  0  0
 82160  1  0  0  0
 83 88  1  0  0  0
 83161  1  0  0  0
 83162  1  0  0  0
 83163  1  0  0  0
 84 89  1  0  0  0
 84164  1  0  0  0
 84165  1  0  0  0
 84166  1  0  0  0
 85167  1  0  0  0
 85168  1  0  0  0
 86 89  1  0  0  0
 86169  1  0  0  0
 86170  1  0  0  0
 87171  1  0  0  0
M  ISO  4   1 100  68 101  85 101  87 100
M  END
> <chiral flag>
0

> <version>
0

> <s_m_source_file>
/data/baiqing/PycharmProjects/Reinvent-master-3.2/result/LINK_invent/BTK/process_docking_weight1_custom_sum_contain_oxygen_bond_distance_aromatic_linkinvent_7_9_3/rearranged_h_0159.sdf

> <i_m_source_file_index>
6

> <r_mmod_Potential_Energy-OPLS-2005>
182.098571777344

> <r_mmod_Stretch_Energy-OPLS-2005>
83.0650177001953

> <r_mmod_Bend_Energy-OPLS-2005>
197.045989990234

> <r_mmod_Torsional_Energy-OPLS-2005>
263.615844726562

> <r_mmod_Improper_Torsional_Energy-OPLS-2005>
6.50966310501099

> <r_mmod_Van_der_Waal_Energy-OPLS-2005>
159.903137207031

> <r_mmod_Electrostatic_Energy-OPLS-2005>
-362.251037597656

> <r_mmod_Solvation_Energy-OPLS-2005>
-217.735992431641

> <b_mmod_Minimization_Converged-OPLS-2005>
0

> <r_mmod_RMS_Derivative-OPLS-2005>
0.583973109722137

$$$$
6
                    3D
 Structure written by MMmdl.
166175  0  0  1  0            999 V2000
  -30.6522  -14.7282   20.4540 C   0  0  0  0  0  0
  -30.4172  -12.4462   19.4716 C   0  0  0  0  0  0
  -29.5013  -12.5013   18.2316 C   0  0  0  0  0  0
  -28.0304  -12.3272   18.6510 C   0  0  0  0  0  0
  -27.6368  -13.2367   19.8462 C   0  0  2  0  0  0
  -28.6825  -13.1973   20.9808 C   0  0  0  0  0  0
  -25.2503  -13.8217   20.5712 C   0  0  0  0  0  0
  -24.1790  -13.0452   20.9209 C   0  0  0  0  0  0
  -24.6390  -11.6931   20.8751 C   0  0  0  0  0  0
  -23.9078  -10.4299   21.0415 C   0  0  0  0  0  0
  -24.3627   -9.4208   21.9189 C   0  0  0  0  0  0
  -23.6302   -8.2244   22.0753 C   0  0  0  0  0  0
  -22.4284   -8.0285   21.3545 C   0  0  0  0  0  0
  -21.9925   -9.0261   20.4647 C   0  0  0  0  0  0
  -22.7253  -10.2140   20.3061 C   0  0  0  0  0  0
  -21.6852   -6.0739   22.5279 C   0  0  0  0  0  0
  -21.4010   -6.5640   23.8213 C   0  0  0  0  0  0
  -21.3662   -5.6793   24.9176 C   0  0  0  0  0  0
  -21.6047   -4.3057   24.7226 C   0  0  0  0  0  0
  -21.8816   -3.8148   23.4348 C   0  0  0  0  0  0
  -21.9191   -4.6966   22.3403 C   0  0  0  0  0  0
  -22.7811  -13.5225   21.1875 C   0  0  0  0  0  0
  -22.1656   -4.2150   21.0982 F   0  0  0  0  0  0
  -21.5636   -3.4541   25.7741 F   0  0  0  0  0  0
  -29.9810  -13.5273   20.3860 N   0  0  0  0  0  0
  -26.2920  -12.9426   20.3298 N   0  0  0  0  0  0
  -25.9322  -11.6564   20.5770 N   0  0  0  0  0  0
  -22.0467  -12.8200   22.0427 N   0  0  0  0  0  0
  -25.4245  -15.1936   20.4154 N   0  0  0  0  0  0
  -31.8537  -14.7609   20.1682 O   0  0  0  0  0  0
  -21.6642   -6.8884   21.4244 O   0  0  0  0  0  0
  -22.3496  -14.5539   20.6742 O   0  0  0  0  0  0
  -24.6309  -31.8555   23.1994 C   0  0  0  0  0  0
  -25.9134  -32.4754   23.8344 C   0  0  1  0  0  0
  -27.2190  -27.2767   20.1251 C   0  0  0  0  0  0
  -25.5943  -33.8554   24.2272 N   0  0  0  0  0  0
  -23.4279  -30.4771   21.5426 C   0  0  2  0  0  0
  -24.8773  -28.9271   20.1108 C   0  0  0  0  0  0
  -22.7500  -29.4596   22.4921 C   0  0  0  0  0  0
  -18.0286  -28.1389   22.8483 C   0  0  0  0  0  0
  -24.1486  -36.7269   23.2633 C   0  0  0  0  0  0
  -25.9733  -30.7729   21.3789 C   0  0  0  0  0  0
  -26.0495  -29.3970   20.7195 C   0  0  0  0  0  0
  -27.2283  -28.5838   20.7162 C   0  0  0  0  0  0
  -26.0298  -26.8715   19.4868 C   0  0  0  0  0  0
  -24.8711  -27.6710   19.4840 C   0  0  0  0  0  0
  -23.6458  -29.8101   20.1596 C   0  0  0  0  0  0
  -25.4109  -36.3060   24.0328 C   0  0  1  0  0  0
  -20.5892  -28.3697   23.1268 C   0  0  2  0  0  0
  -20.6772  -26.9414   22.5410 C   0  0  0  0  0  0
  -19.5752  -26.6379   21.5211 C   0  0  0  0  0  0
  -18.1925  -26.7932   22.1612 C   0  0  0  0  0  0
  -19.1544  -28.8859   23.2866 C   0  0  0  0  0  0
  -18.9463  -30.1459   23.8887 C   0  0  0  0  0  0
  -17.6464  -30.6588   24.0558 C   0  0  0  0  0  0
  -25.9059  -34.9436   23.5101 C   0  0  0  0  0  0
  -16.5352  -29.9083   23.6341 C   0  0  0  0  0  0
  -16.7273  -28.6500   23.0363 C   0  0  0  0  0  0
  -26.4505  -31.6577   25.0731 C   0  0  0  0  0  0
  -25.3726  -31.3732   26.1451 C   0  0  0  0  0  0
  -27.0349  -30.2985   24.6226 C   0  0  0  0  0  0
  -27.6072  -32.4306   25.7495 C   0  0  0  0  0  0
  -27.5592  -37.1766   24.8443 C   0  0  0  0  0  0
  -21.4209  -29.3043   22.3661 N   0  0  0  0  0  0
  -26.4272  -37.3775   23.9435 N   0  0  0  0  0  0
  -24.6961  -31.0527   22.0965 N   0  0  0  0  0  0
  -23.4196  -28.8140   23.3021 O   0  0  0  0  0  0
  -28.2787  -26.3474   20.1480 O   0  0  0  0  0  0
  -26.5626  -34.8909   22.4670 O   0  0  0  0  0  0
  -23.5461  -32.1374   23.7291 O   0  0  0  0  0  0
  -27.7178  -22.5569   21.2168 C   0  0  0  0  0  0
  -29.1712  -20.6830   20.4100 C   0  0  0  0  0  0
  -28.0480  -21.1656   21.1518 C   0  0  0  0  0  0
  -28.4467  -23.6017   20.5855 C   0  0  0  0  0  0
  -29.8727  -21.7240   19.6908 C   0  0  0  0  0  0
  -29.5548  -23.1408   19.8103 C   0  0  0  0  0  0
  -29.7747  -18.3309   21.7291 C   0  0  0  0  0  0
  -28.9324  -18.1126   19.4709 C   0  0  0  0  0  0
  -30.4896  -16.9212   21.5995 C   0  0  0  0  0  0
  -29.6391  -16.6938   19.3538 C   0  0  0  0  0  0
  -29.6582  -19.1328   20.3964 C   0  0  0  0  0  0
  -27.1512  -20.2216   21.9324 C   0  0  0  0  0  0
  -31.0110  -21.3094   18.7603 C   0  0  0  0  0  0
  -30.4257  -24.1868   19.1230 C   0  0  0  0  0  0
  -28.0177  -25.1083   20.9456 C   0  0  0  0  0  0
  -29.9557  -15.9334   20.6067 N   0  0  0  0  0  0
  -31.4612  -12.5454   19.1704 H   0  0  0  0  0  0
  -30.3402  -11.4760   19.9647 H   0  0  0  0  0  0
  -29.7806  -11.7250   17.5178 H   0  0  0  0  0  0
  -29.6300  -13.4545   17.7160 H   0  0  0  0  0  0
  -27.8925  -11.2810   18.9257 H   0  0  0  0  0  0
  -27.3689  -12.5072   17.8027 H   0  0  0  0  0  0
  -27.6233  -14.2540   19.4554 H   0  0  0  0  0  0
  -28.7133  -12.2140   21.4528 H   0  0  0  0  0  0
  -28.4239  -13.9122   21.7641 H   0  0  0  0  0  0
  -25.2771   -9.5681   22.4767 H   0  0  0  0  0  0
  -24.0011   -7.4633   22.7469 H   0  0  0  0  0  0
  -21.0858   -8.8783   19.8950 H   0  0  0  0  0  0
  -22.3715  -10.9684   19.6173 H   0  0  0  0  0  0
  -21.1992   -7.6146   23.9718 H   0  0  0  0  0  0
  -21.1489   -6.0523   25.9082 H   0  0  0  0  0  0
  -22.0590   -2.7611   23.2850 H   0  0  0  0  0  0
  -22.4092  -11.9854   22.4790 H   0  0  0  0  0  0
  -21.1093  -13.1223   22.2655 H   0  0  0  0  0  0
  -24.6699  -15.8592   20.5388 H   0  0  0  0  0  0
  -26.2949  -15.6286   20.1358 H   0  0  0  0  0  0
  -26.7204  -32.5410   23.1093 H   0  0  0  0  0  0
  -25.0111  -33.9697   25.0434 H   0  0  0  0  0  0
  -22.7234  -31.2985   21.3951 H   0  0  0  0  0  0
  -23.3782  -35.9562   23.3212 H   0  0  0  0  0  0
  -24.3601  -36.8981   22.2067 H   0  0  0  0  0  0
  -23.7184  -37.6421   23.6713 H   0  0  0  0  0  0
  -26.1122  -31.5360   20.6124 H   0  0  0  0  0  0
  -26.8490  -30.8197   22.0140 H   0  0  0  0  0  0
  -28.1261  -28.9346   21.2061 H   0  0  0  0  0  0
  -25.9895  -25.9018   19.0102 H   0  0  0  0  0  0
  -23.9731  -27.3056   19.0046 H   0  0  0  0  0  0
  -23.7654  -30.5846   19.4012 H   0  0  0  0  0  0
  -22.7658  -29.2394   19.8581 H   0  0  0  0  0  0
  -25.1283  -36.1897   25.0818 H   0  0  0  0  0  0
  -20.9980  -28.3276   24.1390 H   0  0  0  0  0  0
  -20.5673  -26.2309   23.3618 H   0  0  0  0  0  0
  -21.6638  -26.7431   22.1207 H   0  0  0  0  0  0
  -19.6913  -25.6287   21.1249 H   0  0  0  0  0  0
  -19.6699  -27.3178   20.6733 H   0  0  0  0  0  0
  -17.4206  -26.6697   21.3997 H   0  0  0  0  0  0
  -18.0305  -26.0063   22.8994 H   0  0  0  0  0  0
  -19.7940  -30.7274   24.2255 H   0  0  0  0  0  0
  -17.5019  -31.6275   24.5154 H   0  0  0  0  0  0
  -15.5357  -30.2983   23.7674 H   0  0  0  0  0  0
  -15.8669  -28.0814   22.7100 H   0  0  0  0  0  0
  -24.5893  -30.7095   25.7767 H   0  0  0  0  0  0
  -24.8929  -32.2908   26.4867 H   0  0  0  0  0  0
  -25.8032  -30.8904   27.0231 H   0  0  0  0  0  0
  -26.2933  -29.6724   24.1243 H   0  0  0  0  0  0
  -27.4009  -29.7256   25.4757 H   0  0  0  0  0  0
  -27.8825  -30.4242   23.9483 H   0  0  0  0  0  0
  -27.2708  -33.3630   26.2037 H   0  0  0  0  0  0
  -28.3902  -32.6818   25.0329 H   0  0  0  0  0  0
  -28.0713  -31.8442   26.5438 H   0  0  0  0  0  0
  -28.2524  -38.0145   24.7618 H   0  0  0  0  0  0
  -28.1177  -36.2688   24.6106 H   0  0  0  0  0  0
  -27.2337  -37.1211   25.8844 H   0  0  0  0  0  0
  -20.9397  -29.8776   21.6874 H   0  0  0  0  0  0
  -26.0144  -38.2828   24.1516 H   0  0  0  0  0  0
  -26.8723  -22.8458   21.8261 H   0  0  0  0  0  0
  -30.3258  -18.9341   22.4516 H   0  0  0  0  0  0
  -28.7932  -18.1626   22.1658 H   0  0  0  0  0  0
  -27.9053  -17.9720   19.8077 H   0  0  0  0  0  0
  -28.8562  -18.5401   18.4707 H   0  0  0  0  0  0
  -30.4838  -16.4439   22.5806 H   0  0  0  0  0  0
  -31.5421  -17.1013   21.3717 H   0  0  0  0  0  0
  -30.5747  -16.8339   18.8078 H   0  0  0  0  0  0
  -29.0284  -16.0550   18.7140 H   0  0  0  0  0  0
  -30.6903  -19.1609   20.0540 H   0  0  0  0  0  0
  -26.1833  -20.6786   22.1398 H   0  0  0  0  0  0
  -27.6076  -19.9743   22.8908 H   0  0  0  0  0  0
  -26.9515  -19.3040   21.3823 H   0  0  0  0  0  0
  -30.7896  -20.3695   18.2560 H   0  0  0  0  0  0
  -31.9396  -21.1952   19.3204 H   0  0  0  0  0  0
  -31.1800  -22.0189   17.9521 H   0  0  0  0  0  0
  -30.3985  -25.1419   19.6439 H   0  0  0  0  0  0
  -30.0904  -24.3491   18.0983 H   0  0  0  0  0  0
  -31.4760  -23.8983   19.1037 H   0  0  0  0  0  0
  -28.4811  -25.3035   21.9131 H   0  0  0  0  0  0
  -26.9518  -25.0611   21.1726 H   0  0  0  0  0  0
  1 25  1  0  0  0
  1 30  2  0  0  0
  1 86  1  0  0  0
  2  3  1  0  0  0
  2 25  1  0  0  0
  2 87  1  0  0  0
  2 88  1  0  0  0
  3  4  1  0  0  0
  3 89  1  0  0  0
  3 90  1  0  0  0
  4  5  1  0  0  0
  4 91  1  0  0  0
  4 92  1  0  0  0
  5  6  1  0  0  0
  5 26  1  0  0  0
  5 93  1  0  0  0
  6 25  1  0  0  0
  6 94  1  0  0  0
  6 95  1  0  0  0
  7  8  2  0  0  0
  7 26  1  0  0  0
  7 29  1  0  0  0
  8  9  1  0  0  0
  8 22  1  0  0  0
  9 10  1  0  0  0
  9 27  2  0  0  0
 10 11  2  0  0  0
 10 15  1  0  0  0
 11 12  1  0  0  0
 11 96  1  0  0  0
 12 13  2  0  0  0
 12 97  1  0  0  0
 13 14  1  0  0  0
 13 31  1  0  0  0
 14 15  2  0  0  0
 14 98  1  0  0  0
 15 99  1  0  0  0
 16 17  2  0  0  0
 16 21  1  0  0  0
 16 31  1  0  0  0
 17 18  1  0  0  0
 17100  1  0  0  0
 18 19  2  0  0  0
 18101  1  0  0  0
 19 20  1  0  0  0
 19 24  1  0  0  0
 20 21  2  0  0  0
 20102  1  0  0  0
 21 23  1  0  0  0
 22 28  1  0  0  0
 22 32  2  0  0  0
 26 27  1  0  0  0
 28103  1  0  0  0
 28104  1  0  0  0
 29105  1  0  0  0
 29106  1  0  0  0
 33 34  1  0  0  0
 33 66  1  0  0  0
 33 70  2  0  0  0
 34 36  1  0  0  0
 34 59  1  0  0  0
 34107  1  0  0  0
 35 44  2  0  0  0
 35 45  1  0  0  0
 35 68  1  0  0  0
 36 56  1  0  0  0
 36108  1  0  0  0
 37 39  1  0  0  0
 37 47  1  0  0  0
 37 66  1  0  0  0
 37109  1  0  0  0
 38 43  2  0  0  0
 38 46  1  0  0  0
 38 47  1  0  0  0
 39 64  1  0  0  0
 39 67  2  0  0  0
 40 52  1  0  0  0
 40 53  2  0  0  0
 40 58  1  0  0  0
 41110  1  0  0  0
 41111  1  0  0  0
 41112  1  0  0  0
 41 48  1  0  0  0
 42 43  1  0  0  0
 42 66  1  0  0  0
 42113  1  0  0  0
 42114  1  0  0  0
 43 44  1  0  0  0
 44115  1  0  0  0
 45 46  2  0  0  0
 45116  1  0  0  0
 46117  1  0  0  0
 47118  1  0  0  0
 47119  1  0  0  0
 48 56  1  0  0  0
 48 65  1  0  0  0
 48120  1  0  0  0
 49 50  1  0  0  0
 49 53  1  0  0  0
 49 64  1  0  0  0
 49121  1  0  0  0
 50 51  1  0  0  0
 50122  1  0  0  0
 50123  1  0  0  0
 51 52  1  0  0  0
 51124  1  0  0  0
 51125  1  0  0  0
 52126  1  0  0  0
 52127  1  0  0  0
 53 54  1  0  0  0
 54 55  2  0  0  0
 54128  1  0  0  0
 55 57  1  0  0  0
 55129  1  0  0  0
 56 69  2  0  0  0
 57 58  2  0  0  0
 57130  1  0  0  0
 58131  1  0  0  0
 59 60  1  0  0  0
 59 61  1  0  0  0
 59 62  1  0  0  0
 60132  1  0  0  0
 60133  1  0  0  0
 60134  1  0  0  0
 61135  1  0  0  0
 61136  1  0  0  0
 61137  1  0  0  0
 62138  1  0  0  0
 62139  1  0  0  0
 62140  1  0  0  0
 63 65  1  0  0  0
 63141  1  0  0  0
 63142  1  0  0  0
 63143  1  0  0  0
 64144  1  0  0  0
 65145  1  0  0  0
 68 85  1  0  0  0
 71 73  2  0  0  0
 71 74  1  0  0  0
 71146  1  0  0  0
 72 73  1  0  0  0
 72 75  2  0  0  0
 72 81  1  0  0  0
 73 82  1  0  0  0
 74 76  2  0  0  0
 74 85  1  0  0  0
 75 76  1  0  0  0
 75 83  1  0  0  0
 76 84  1  0  0  0
 77 79  1  0  0  0
 77 81  1  0  0  0
 77147  1  0  0  0
 77148  1  0  0  0
 78 80  1  0  0  0
 78 81  1  0  0  0
 78149  1  0  0  0
 78150  1  0  0  0
 79 86  1  0  0  0
 79151  1  0  0  0
 79152  1  0  0  0
 80 86  1  0  0  0
 80153  1  0  0  0
 80154  1  0  0  0
 81155  1  0  0  0
 82156  1  0  0  0
 82157  1  0  0  0
 82158  1  0  0  0
 83159  1  0  0  0
 83160  1  0  0  0
 83161  1  0  0  0
 84162  1  0  0  0
 84163  1  0  0  0
 84164  1  0  0  0
 85165  1  0  0  0
 85166  1  0  0  0
M  ISO  4   1 100  68 101  85 101  86 100
M  END
> <chiral flag>
0

> <version>
0

> <s_m_source_file>
/data/baiqing/PycharmProjects/Reinvent-master-3.2/result/LINK_invent/BTK/process_docking_weight1_custom_sum_contain_oxygen_bond_distance_aromatic_linkinvent_7_9_3/rearranged_h_0159.sdf

> <i_m_source_file_index>
7

> <r_mmod_Potential_Energy-OPLS-2005>
446.351623535156

> <r_mmod_Stretch_Energy-OPLS-2005>
124.27417755127

> <r_mmod_Bend_Energy-OPLS-2005>
205.510818481445

> <r_mmod_Torsional_Energy-OPLS-2005>
358.532348632812

> <r_mmod_Improper_Torsional_Energy-OPLS-2005>
10.4083204269409

> <r_mmod_Van_der_Waal_Energy-OPLS-2005>
151.095321655273

> <r_mmod_Electrostatic_Energy-OPLS-2005>
-299.850402832031

> <r_mmod_Solvation_Energy-OPLS-2005>
-187.347534179688

> <b_mmod_Minimization_Converged-OPLS-2005>
0

> <r_mmod_RMS_Derivative-OPLS-2005>
1.20266628265381

$$$$
7
                    3D
 Structure written by MMmdl.
175184  0  0  1  0            999 V2000
  -30.6116  -14.6984   20.4854 C   0  0  0  0  0  0
  -30.4415  -12.4253   19.4769 C   0  0  0  0  0  0
  -29.5154  -12.4918   18.2456 C   0  0  0  0  0  0
  -28.0362  -12.3439   18.6477 C   0  0  0  0  0  0
  -27.6485  -13.2250   19.8657 C   0  0  2  0  0  0
  -28.6937  -13.1196   21.0009 C   0  0  0  0  0  0
  -25.2530  -13.8086   20.5622 C   0  0  0  0  0  0
  -24.1821  -13.0355   20.9181 C   0  0  0  0  0  0
  -24.6409  -11.6858   20.8742 C   0  0  0  0  0  0
  -23.9108  -10.4231   21.0398 C   0  0  0  0  0  0
  -24.3635   -9.4143   21.9161 C   0  0  0  0  0  0
  -23.6270   -8.2198   22.0700 C   0  0  0  0  0  0
  -22.4270   -8.0253   21.3474 C   0  0  0  0  0  0
  -21.9944   -9.0255   20.4594 C   0  0  0  0  0  0
  -22.7301  -10.2112   20.3032 C   0  0  0  0  0  0
  -21.6831   -6.0746   22.5278 C   0  0  0  0  0  0
  -21.3996   -6.5630   23.8222 C   0  0  0  0  0  0
  -21.3661   -5.6760   24.9171 C   0  0  0  0  0  0
  -21.6068   -4.3035   24.7195 C   0  0  0  0  0  0
  -21.8801   -3.8140   23.4313 C   0  0  0  0  0  0
  -21.9152   -4.6967   22.3374 C   0  0  0  0  0  0
  -22.7847  -13.5174   21.1871 C   0  0  0  0  0  0
  -22.1607   -4.2176   21.0944 F   0  0  0  0  0  0
  -21.5638   -3.4509   25.7704 F   0  0  0  0  0  0
  -30.0011  -13.4698   20.4308 N   0  0  0  0  0  0
  -26.2970  -12.9304   20.3349 N   0  0  0  0  0  0
  -25.9358  -11.6469   20.5801 N   0  0  0  0  0  0
  -22.0453  -12.8204   22.0450 N   0  0  0  0  0  0
  -25.4278  -15.1725   20.3938 N   0  0  0  0  0  0
  -31.7923  -14.8128   20.1367 O   0  0  0  0  0  0
  -21.6584   -6.8887   21.4234 O   0  0  0  0  0  0
  -22.3535  -14.5434   20.6689 O   0  0  0  0  0  0
  -24.6205  -31.8607   23.2044 C   0  0  0  0  0  0
  -25.9068  -32.4777   23.8363 C   0  0  1  0  0  0
  -27.2303  -27.3463   20.1348 C   0  0  0  0  0  0
  -25.5930  -33.8569   24.2319 N   0  0  0  0  0  0
  -23.4148  -30.4855   21.5441 C   0  0  2  0  0  0
  -24.8699  -28.9412   20.1175 C   0  0  0  0  0  0
  -22.7410  -29.4669   22.4960 C   0  0  0  0  0  0
  -18.0275  -28.1405   22.8487 C   0  0  0  0  0  0
  -24.1481  -36.7304   23.2638 C   0  0  0  0  0  0
  -25.9497  -30.8029   21.3741 C   0  0  0  0  0  0
  -26.0302  -29.4320   20.7216 C   0  0  0  0  0  0
  -27.2140  -28.6434   20.7267 C   0  0  0  0  0  0
  -26.0365  -26.9014   19.5158 C   0  0  0  0  0  0
  -24.8699  -27.6781   19.5094 C   0  0  0  0  0  0
  -23.6340  -29.8110   20.1604 C   0  0  0  0  0  0
  -25.4098  -36.3088   24.0323 C   0  0  1  0  0  0
  -20.5883  -28.3692   23.1335 C   0  0  2  0  0  0
  -20.6837  -26.9406   22.5450 C   0  0  0  0  0  0
  -19.5781  -26.6503   21.5175 C   0  0  0  0  0  0
  -18.1965  -26.7937   22.1621 C   0  0  0  0  0  0
  -19.1520  -28.8850   23.2916 C   0  0  0  0  0  0
  -18.9433  -30.1454   23.8953 C   0  0  0  0  0  0
  -17.6474  -30.6610   24.0622 C   0  0  0  0  0  0
  -25.9025  -34.9444   23.5113 C   0  0  0  0  0  0
  -16.5362  -29.9111   23.6379 C   0  0  0  0  0  0
  -16.7264  -28.6530   23.0370 C   0  0  0  0  0  0
  -26.4468  -31.6585   25.0747 C   0  0  0  0  0  0
  -25.3724  -31.3726   26.1519 C   0  0  0  0  0  0
  -27.0322  -30.3013   24.6196 C   0  0  0  0  0  0
  -27.5999  -32.4348   25.7519 C   0  0  0  0  0  0
  -27.5579  -37.1801   24.8461 C   0  0  0  0  0  0
  -21.4138  -29.3076   22.3721 N   0  0  0  0  0  0
  -26.4311  -37.3776   23.9378 N   0  0  0  0  0  0
  -24.6791  -31.0644   22.0979 N   0  0  0  0  0  0
  -23.4138  -28.8162   23.2994 O   0  0  0  0  0  0
  -28.3594  -26.5224   20.1936 O   0  0  0  0  0  0
  -26.5610  -34.8897   22.4697 O   0  0  0  0  0  0
  -23.5393  -32.1378   23.7418 O   0  0  0  0  0  0
  -27.4898  -17.7792   18.9136 C   0  0  0  0  0  0
  -28.8770  -18.1131   20.8513 C   0  0  0  0  0  0
  -27.5681  -18.0294   20.2938 C   0  0  0  0  0  0
  -28.6659  -17.5438   18.1748 C   0  0  0  0  0  0
  -29.8719  -17.2635   18.8692 C   0  0  0  0  0  0
  -29.8275  -17.1782   20.2888 C   0  0  0  0  0  0
  -30.2830  -20.3817   20.4442 C   0  0  0  0  0  0
  -28.2034  -20.5439   21.8040 C   0  0  0  0  0  0
  -29.6992  -21.6616   19.7297 C   0  0  0  0  0  0
  -29.3294  -19.5488   21.3734 C   0  0  1  0  0  0
  -28.6113  -22.0410   21.9353 C   0  0  2  0  0  0
  -26.2737  -18.2671   21.0778 C   0  0  0  0  0  0
  -28.5581  -17.5524   16.6669 C   0  0  0  0  0  0
  -31.1746  -17.0635   18.1131 C   0  0  0  0  0  0
  -27.4904  -22.8256   22.6569 C   0  0  0  0  0  0
  -29.2923  -24.0915   20.5418 C   0  0  0  0  0  0
  -28.1329  -25.0743   20.1053 C   0  0  0  0  0  0
  -29.8313  -15.7913   20.8047 N   0  0  0  0  0  0
  -28.9011  -22.6156   20.5816 N   0  3  1  0  0  0
  -31.4789  -12.5517   19.1644 H   0  0  0  0  0  0
  -30.3871  -11.4470   19.9549 H   0  0  0  0  0  0
  -29.7903  -11.7126   17.5356 H   0  0  0  0  0  0
  -29.6592  -13.4420   17.7323 H   0  0  0  0  0  0
  -27.8569  -11.2934   18.8822 H   0  0  0  0  0  0
  -27.3986  -12.5738   17.7994 H   0  0  0  0  0  0
  -27.6522  -14.2563   19.5115 H   0  0  0  0  0  0
  -28.7265  -12.1099   21.4141 H   0  0  0  0  0  0
  -28.4304  -13.7736   21.8342 H   0  0  0  0  0  0
  -25.2779   -9.5613   22.4763 H   0  0  0  0  0  0
  -23.9967   -7.4582   22.7452 H   0  0  0  0  0  0
  -21.0868   -8.8839   19.8886 H   0  0  0  0  0  0
  -22.3796  -10.9674   19.6151 H   0  0  0  0  0  0
  -21.1984   -7.6139   23.9758 H   0  0  0  0  0  0
  -21.1510   -6.0458   25.9081 H   0  0  0  0  0  0
  -22.0585   -2.7610   23.2779 H   0  0  0  0  0  0
  -22.4019  -11.9875   22.4887 H   0  0  0  0  0  0
  -21.0992  -13.1168   22.2518 H   0  0  0  0  0  0
  -24.6637  -15.8278   20.5041 H   0  0  0  0  0  0
  -26.2924  -15.6119   20.1005 H   0  0  0  0  0  0
  -26.7119  -32.5486   23.1113 H   0  0  0  0  0  0
  -25.0030  -33.9679   25.0425 H   0  0  0  0  0  0
  -22.7145  -31.3067   21.3923 H   0  0  0  0  0  0
  -23.3753  -35.9650   23.3311 H   0  0  0  0  0  0
  -24.3560  -36.8910   22.2059 H   0  0  0  0  0  0
  -23.7245  -37.6500   23.6656 H   0  0  0  0  0  0
  -26.0760  -31.5680   20.6049 H   0  0  0  0  0  0
  -26.8269  -30.8556   22.0008 H   0  0  0  0  0  0
  -28.1021  -29.0060   21.2293 H   0  0  0  0  0  0
  -25.9664  -25.9332   19.0418 H   0  0  0  0  0  0
  -23.9784  -27.2880   19.0402 H   0  0  0  0  0  0
  -23.7380  -30.5738   19.3917 H   0  0  0  0  0  0
  -22.7588  -29.2241   19.8749 H   0  0  0  0  0  0
  -25.1288  -36.1951   25.0827 H   0  0  0  0  0  0
  -20.9993  -28.3278   24.1453 H   0  0  0  0  0  0
  -20.5670  -26.2266   23.3651 H   0  0  0  0  0  0
  -21.6782  -26.7484   22.1382 H   0  0  0  0  0  0
  -19.6952  -25.6480   21.1045 H   0  0  0  0  0  0
  -19.6714  -27.3451   20.6799 H   0  0  0  0  0  0
  -17.4157  -26.6646   21.4089 H   0  0  0  0  0  0
  -18.0439  -26.0138   22.9117 H   0  0  0  0  0  0
  -19.7817  -30.7335   24.2400 H   0  0  0  0  0  0
  -17.5074  -31.6255   24.5384 H   0  0  0  0  0  0
  -15.5331  -30.2990   23.7708 H   0  0  0  0  0  0
  -15.8670  -28.0898   22.7044 H   0  0  0  0  0  0
  -24.5880  -30.7096   25.7879 H   0  0  0  0  0  0
  -24.8973  -32.2898   26.4989 H   0  0  0  0  0  0
  -25.8089  -30.8897   27.0264 H   0  0  0  0  0  0
  -26.2909  -29.6784   24.1200 H   0  0  0  0  0  0
  -27.3973  -29.7282   25.4712 H   0  0  0  0  0  0
  -27.8780  -30.4283   23.9445 H   0  0  0  0  0  0
  -27.2549  -33.3608   26.2111 H   0  0  0  0  0  0
  -28.3805  -32.6955   25.0379 H   0  0  0  0  0  0
  -28.0679  -31.8499   26.5438 H   0  0  0  0  0  0
  -28.2602  -38.0090   24.7498 H   0  0  0  0  0  0
  -28.1073  -36.2619   24.6315 H   0  0  0  0  0  0
  -27.2297  -37.1479   25.8869 H   0  0  0  0  0  0
  -20.9390  -29.8733   21.6847 H   0  0  0  0  0  0
  -26.0208  -38.2863   24.1389 H   0  0  0  0  0  0
  -26.5330  -17.8607   18.4083 H   0  0  0  0  0  0
  -31.1029  -20.7396   21.0705 H   0  0  0  0  0  0
  -30.7699  -19.7467   19.7086 H   0  0  0  0  0  0
  -27.7324  -20.1944   22.7224 H   0  0  0  0  0  0
  -27.4398  -20.5819   21.0370 H   0  0  0  0  0  0
  -30.5180  -22.1803   19.2319 H   0  0  0  0  0  0
  -29.0362  -21.3450   18.9232 H   0  0  0  0  0  0
  -29.9106  -19.3165   22.2711 H   0  0  0  0  0  0
  -29.5080  -22.0960   22.5546 H   0  0  0  0  0  0
  -25.9197  -19.2916   21.1058 H   0  0  0  0  0  0
  -26.3694  -17.9047   22.1003 H   0  0  0  0  0  0
  -25.4469  -17.7263   20.6122 H   0  0  0  0  0  0
  -28.1018  -16.6290   16.3077 H   0  0  0  0  0  0
  -29.5174  -17.6781   16.1742 H   0  0  0  0  0  0
  -27.9248  -18.3880   16.3604 H   0  0  0  0  0  0
  -31.4231  -17.9647   17.5484 H   0  0  0  0  0  0
  -31.1074  -16.2222   17.4210 H   0  0  0  0  0  0
  -32.0113  -16.9008   18.7885 H   0  0  0  0  0  0
  -26.5650  -22.8285   22.0786 H   0  0  0  0  0  0
  -27.7731  -23.8609   22.8497 H   0  0  0  0  0  0
  -27.2735  -22.3772   23.6297 H   0  0  0  0  0  0
  -29.6594  -24.3912   21.5211 H   0  0  0  0  0  0
  -30.1227  -24.2499   19.8539 H   0  0  0  0  0  0
  -27.2519  -24.8413   20.7107 H   0  0  0  0  0  0
  -27.8777  -24.8455   19.0711 H   0  0  0  0  0  0
  -28.9885  -15.5421   21.2960 H   0  0  0  0  0  0
  -28.0163  -22.6087   20.1016 H   0  0  0  0  0  0
  1 25  1  0  0  0
  1 30  2  0  0  0
  1 88  1  0  0  0
  2  3  1  0  0  0
  2 25  1  0  0  0
  2 90  1  0  0  0
  2 91  1  0  0  0
  3  4  1  0  0  0
  3 92  1  0  0  0
  3 93  1  0  0  0
  4  5  1  0  0  0
  4 94  1  0  0  0
  4 95  1  0  0  0
  5  6  1  0  0  0
  5 26  1  0  0  0
  5 96  1  0  0  0
  6 25  1  0  0  0
  6 97  1  0  0  0
  6 98  1  0  0  0
  7  8  2  0  0  0
  7 26  1  0  0  0
  7 29  1  0  0  0
  8  9  1  0  0  0
  8 22  1  0  0  0
  9 10  1  0  0  0
  9 27  2  0  0  0
 10 11  2  0  0  0
 10 15  1  0  0  0
 11 12  1  0  0  0
 11 99  1  0  0  0
 12 13  2  0  0  0
 12100  1  0  0  0
 13 14  1  0  0  0
 13 31  1  0  0  0
 14 15  2  0  0  0
 14101  1  0  0  0
 15102  1  0  0  0
 16 17  2  0  0  0
 16 21  1  0  0  0
 16 31  1  0  0  0
 17 18  1  0  0  0
 17103  1  0  0  0
 18 19  2  0  0  0
 18104  1  0  0  0
 19 20  1  0  0  0
 19 24  1  0  0  0
 20 21  2  0  0  0
 20105  1  0  0  0
 21 23  1  0  0  0
 22 28  1  0  0  0
 22 32  2  0  0  0
 26 27  1  0  0  0
 28106  1  0  0  0
 28107  1  0  0  0
 29108  1  0  0  0
 29109  1  0  0  0
 33 34  1  0  0  0
 33 66  1  0  0  0
 33 70  2  0  0  0
 34 36  1  0  0  0
 34 59  1  0  0  0
 34110  1  0  0  0
 35 44  2  0  0  0
 35 45  1  0  0  0
 35 68  1  0  0  0
 36 56  1  0  0  0
 36111  1  0  0  0
 37 39  1  0  0  0
 37 47  1  0  0  0
 37 66  1  0  0  0
 37112  1  0  0  0
 38 43  2  0  0  0
 38 46  1  0  0  0
 38 47  1  0  0  0
 39 64  1  0  0  0
 39 67  2  0  0  0
 40 52  1  0  0  0
 40 53  2  0  0  0
 40 58  1  0  0  0
 41113  1  0  0  0
 41114  1  0  0  0
 41115  1  0  0  0
 41 48  1  0  0  0
 42 43  1  0  0  0
 42 66  1  0  0  0
 42116  1  0  0  0
 42117  1  0  0  0
 43 44  1  0  0  0
 44118  1  0  0  0
 45 46  2  0  0  0
 45119  1  0  0  0
 46120  1  0  0  0
 47121  1  0  0  0
 47122  1  0  0  0
 48 56  1  0  0  0
 48 65  1  0  0  0
 48123  1  0  0  0
 49 50  1  0  0  0
 49 53  1  0  0  0
 49 64  1  0  0  0
 49124  1  0  0  0
 50 51  1  0  0  0
 50125  1  0  0  0
 50126  1  0  0  0
 51 52  1  0  0  0
 51127  1  0  0  0
 51128  1  0  0  0
 52129  1  0  0  0
 52130  1  0  0  0
 53 54  1  0  0  0
 54 55  2  0  0  0
 54131  1  0  0  0
 55 57  1  0  0  0
 55132  1  0  0  0
 56 69  2  0  0  0
 57 58  2  0  0  0
 57133  1  0  0  0
 58134  1  0  0  0
 59 60  1  0  0  0
 59 61  1  0  0  0
 59 62  1  0  0  0
 60135  1  0  0  0
 60136  1  0  0  0
 60137  1  0  0  0
 61138  1  0  0  0
 61139  1  0  0  0
 61140  1  0  0  0
 62141  1  0  0  0
 62142  1  0  0  0
 62143  1  0  0  0
 63 65  1  0  0  0
 63144  1  0  0  0
 63145  1  0  0  0
 63146  1  0  0  0
 64147  1  0  0  0
 65148  1  0  0  0
 68 87  1  0  0  0
 71 73  2  0  0  0
 71 74  1  0  0  0
 71149  1  0  0  0
 72 73  1  0  0  0
 72 76  2  0  0  0
 72 80  1  0  0  0
 73 82  1  0  0  0
 74 75  2  0  0  0
 74 83  1  0  0  0
 75 76  1  0  0  0
 75 84  1  0  0  0
 76 88  1  0  0  0
 77 79  1  0  0  0
 77 80  1  0  0  0
 77150  1  0  0  0
 77151  1  0  0  0
 78 80  1  0  0  0
 78 81  1  0  0  0
 78152  1  0  0  0
 78153  1  0  0  0
 79 89  1  0  0  0
 79154  1  0  0  0
 79155  1  0  0  0
 80156  1  0  0  0
 81 85  1  0  0  0
 81 89  1  0  0  0
 81157  1  0  0  0
 82158  1  0  0  0
 82159  1  0  0  0
 82160  1  0  0  0
 83161  1  0  0  0
 83162  1  0  0  0
 83163  1  0  0  0
 84164  1  0  0  0
 84165  1  0  0  0
 84166  1  0  0  0
 85167  1  0  0  0
 85168  1  0  0  0
 85169  1  0  0  0
 86 87  1  0  0  0
 86170  1  0  0  0
 86171  1  0  0  0
 86 89  1  0  0  0
 87172  1  0  0  0
 87173  1  0  0  0
 88174  1  0  0  0
 89175  1  0  0  0
M  CHG  1  89   1
M  ISO  4   1 100  68 101  87 101  88 100
M  END
> <chiral flag>
0

> <version>
0

> <s_m_source_file>
/data/baiqing/PycharmProjects/Reinvent-master-3.2/result/LINK_invent/BTK/process_docking_weight1_custom_sum_contain_oxygen_bond_distance_aromatic_linkinvent_7_9_3/rearranged_h_0159.sdf

> <i_m_source_file_index>
8

> <r_mmod_Potential_Energy-OPLS-2005>
345.012084960938

> <r_mmod_Stretch_Energy-OPLS-2005>
89.9003982543945

> <r_mmod_Bend_Energy-OPLS-2005>
164.260116577148

> <r_mmod_Torsional_Energy-OPLS-2005>
549.576416015625

> <r_mmod_Improper_Torsional_Energy-OPLS-2005>
31.0743427276611

> <r_mmod_Van_der_Waal_Energy-OPLS-2005>
165.835861206055

> <r_mmod_Electrostatic_Energy-OPLS-2005>
-303.311737060547

> <r_mmod_Solvation_Energy-OPLS-2005>
-407.639251708984

> <b_mmod_Minimization_Converged-OPLS-2005>
0

> <r_mmod_RMS_Derivative-OPLS-2005>
7.50539827346802

$$$$
8
                    3D
 Structure written by MMmdl.
161170  0  0  1  0            999 V2000
  -30.6157  -14.7599   20.4427 C   0  0  0  0  0  0
  -30.4244  -12.4606   19.4735 C   0  0  0  0  0  0
  -29.5027  -12.5014   18.2361 C   0  0  0  0  0  0
  -28.0302  -12.3293   18.6564 C   0  0  0  0  0  0
  -27.6367  -13.2395   19.8518 C   0  0  2  0  0  0
  -28.6854  -13.1923   20.9832 C   0  0  0  0  0  0
  -25.2453  -13.8166   20.5722 C   0  0  0  0  0  0
  -24.1755  -13.0392   20.9186 C   0  0  0  0  0  0
  -24.6385  -11.6892   20.8746 C   0  0  0  0  0  0
  -23.9076  -10.4266   21.0402 C   0  0  0  0  0  0
  -24.3618   -9.4178   21.9185 C   0  0  0  0  0  0
  -23.6297   -8.2209   22.0750 C   0  0  0  0  0  0
  -22.4280   -8.0258   21.3535 C   0  0  0  0  0  0
  -21.9915   -9.0230   20.4631 C   0  0  0  0  0  0
  -22.7245  -10.2113   20.3045 C   0  0  0  0  0  0
  -21.6841   -6.0730   22.5283 C   0  0  0  0  0  0
  -21.4004   -6.5636   23.8217 C   0  0  0  0  0  0
  -21.3664   -5.6789   24.9179 C   0  0  0  0  0  0
  -21.6055   -4.3053   24.7224 C   0  0  0  0  0  0
  -21.8816   -3.8147   23.4347 C   0  0  0  0  0  0
  -21.9182   -4.6958   22.3404 C   0  0  0  0  0  0
  -22.7772  -13.5157   21.1858 C   0  0  0  0  0  0
  -22.1647   -4.2152   21.0976 F   0  0  0  0  0  0
  -21.5641   -3.4533   25.7733 F   0  0  0  0  0  0
  -29.9802  -13.5378   20.3868 N   0  0  0  0  0  0
  -26.2927  -12.9428   20.3353 N   0  0  0  0  0  0
  -25.9330  -11.6550   20.5787 N   0  0  0  0  0  0
  -22.0448  -12.8146   22.0434 N   0  0  0  0  0  0
  -25.3979  -15.1890   20.4247 N   0  0  0  0  0  0
  -31.8180  -14.8295   20.1651 O   0  0  0  0  0  0
  -21.6634   -6.8864   21.4239 O   0  0  0  0  0  0
  -22.3437  -14.5463   20.6721 O   0  0  0  0  0  0
  -24.6312  -31.8526   23.1958 C   0  0  0  0  0  0
  -25.9142  -32.4739   23.8313 C   0  0  1  0  0  0
  -27.2144  -27.2458   20.1383 C   0  0  0  0  0  0
  -25.5938  -33.8542   24.2233 N   0  0  0  0  0  0
  -23.4300  -30.4763   21.5361 C   0  0  2  0  0  0
  -24.8778  -28.9192   20.1077 C   0  0  0  0  0  0
  -22.7505  -29.4593   22.4859 C   0  0  0  0  0  0
  -18.0302  -28.1401   22.8465 C   0  0  0  0  0  0
  -24.1490  -36.7281   23.2645 C   0  0  0  0  0  0
  -25.9778  -30.7619   21.3773 C   0  0  0  0  0  0
  -26.0498  -29.3829   20.7215 C   0  0  0  0  0  0
  -27.2241  -28.5594   20.7220 C   0  0  0  0  0  0
  -26.0256  -26.8543   19.4916 C   0  0  0  0  0  0
  -24.8715  -27.6637   19.4807 C   0  0  0  0  0  0
  -23.6507  -29.8106   20.1516 C   0  0  0  0  0  0
  -25.4120  -36.3053   24.0311 C   0  0  1  0  0  0
  -20.5909  -28.3714   23.1251 C   0  0  2  0  0  0
  -20.6798  -26.9428   22.5403 C   0  0  0  0  0  0
  -19.5768  -26.6384   21.5216 C   0  0  0  0  0  0
  -18.1941  -26.7948   22.1612 C   0  0  0  0  0  0
  -19.1553  -28.8876   23.2860 C   0  0  0  0  0  0
  -18.9479  -30.1476   23.8886 C   0  0  0  0  0  0
  -17.6474  -30.6599   24.0557 C   0  0  0  0  0  0
  -25.9052  -34.9428   23.5071 C   0  0  0  0  0  0
  -16.5366  -29.9089   23.6330 C   0  0  0  0  0  0
  -16.7288  -28.6510   23.0344 C   0  0  0  0  0  0
  -26.4510  -31.6584   25.0714 C   0  0  0  0  0  0
  -25.3727  -31.3751   26.1426 C   0  0  0  0  0  0
  -27.0377  -30.3002   24.6225 C   0  0  0  0  0  0
  -27.6051  -32.4336   25.7497 C   0  0  0  0  0  0
  -27.5572  -37.1806   24.8457 C   0  0  0  0  0  0
  -21.4205  -29.3067   22.3627 N   0  0  0  0  0  0
  -26.4284  -37.3760   23.9389 N   0  0  0  0  0  0
  -24.6987  -31.0494   22.0922 N   0  0  0  0  0  0
  -23.4197  -28.8129   23.2970 O   0  0  0  0  0  0
  -28.2967  -26.3358   20.1499 O   0  0  0  0  0  0
  -26.5616  -34.8908   22.4631 O   0  0  0  0  0  0
  -23.5454  -32.1344   23.7235 O   0  0  0  0  0  0
  -28.0116  -18.4264   20.3970 C   0  0  0  0  0  0
  -30.0295  -19.6375   20.4979 C   0  0  0  0  0  0
  -30.0022  -17.0283   19.4687 C   0  0  0  0  0  0
  -29.9555  -17.0172   21.5038 C   0  0  0  0  0  0
  -28.8614  -20.6686   20.1027 C   0  0  2  0  0  0
  -29.5210  -18.1259   20.4760 C   0  0  0  0  0  0
  -29.5143  -22.2448   22.0970 C   0  0  0  0  0  0
  -26.3630  -20.2021   19.9108 C   0  0  0  0  0  0
  -28.6745  -23.5624   20.0197 C   0  0  0  0  0  0
  -28.0761  -24.9366   20.6800 C   0  0  0  0  0  0
  -28.6382  -22.1375   20.8383 C   0  0  1  0  0  0
  -27.7181  -19.7424   20.2185 N   0  0  0  0  0  0
  -29.8442  -15.9245   20.4799 N   0  0  0  0  0  0
  -27.1674  -17.5300   20.4667 O   0  0  0  0  0  0
  -31.4670  -12.5761   19.1741 H   0  0  0  0  0  0
  -30.3609  -11.4917   19.9702 H   0  0  0  0  0  0
  -29.7844  -11.7201   17.5296 H   0  0  0  0  0  0
  -29.6271  -13.4503   17.7124 H   0  0  0  0  0  0
  -27.8924  -11.2822   18.9323 H   0  0  0  0  0  0
  -27.3684  -12.5095   17.8081 H   0  0  0  0  0  0
  -27.6244  -14.2607   19.4675 H   0  0  0  0  0  0
  -28.7250  -12.2045   21.4434 H   0  0  0  0  0  0
  -28.4291  -13.8941   21.7782 H   0  0  0  0  0  0
  -25.2749   -9.5652   22.4784 H   0  0  0  0  0  0
  -24.0002   -7.4582   22.7461 H   0  0  0  0  0  0
  -21.0852   -8.8722   19.8943 H   0  0  0  0  0  0
  -22.3678  -10.9646   19.6161 H   0  0  0  0  0  0
  -21.1993   -7.6143   23.9721 H   0  0  0  0  0  0
  -21.1501   -6.0521   25.9086 H   0  0  0  0  0  0
  -22.0601   -2.7613   23.2834 H   0  0  0  0  0  0
  -22.4097  -11.9826   22.4834 H   0  0  0  0  0  0
  -21.1057  -13.1142   22.2633 H   0  0  0  0  0  0
  -24.6225  -15.8218   20.5818 H   0  0  0  0  0  0
  -26.2715  -15.6937   20.2839 H   0  0  0  0  0  0
  -26.7202  -32.5364   23.1046 H   0  0  0  0  0  0
  -25.0127  -33.9692   25.0406 H   0  0  0  0  0  0
  -22.7297  -31.2997   21.3846 H   0  0  0  0  0  0
  -23.3744  -35.9622   23.3287 H   0  0  0  0  0  0
  -24.3594  -36.8921   22.2071 H   0  0  0  0  0  0
  -23.7261  -37.6484   23.6674 H   0  0  0  0  0  0
  -26.1245  -31.5225   20.6082 H   0  0  0  0  0  0
  -26.8545  -30.8066   22.0133 H   0  0  0  0  0  0
  -28.1221  -28.9058   21.2135 H   0  0  0  0  0  0
  -25.9821  -25.8937   18.9975 H   0  0  0  0  0  0
  -23.9751  -27.3075   18.9904 H   0  0  0  0  0  0
  -23.7796  -30.5864   19.3952 H   0  0  0  0  0  0
  -22.7680  -29.2482   19.8396 H   0  0  0  0  0  0
  -25.1326  -36.1888   25.0808 H   0  0  0  0  0  0
  -21.0024  -28.3291   24.1362 H   0  0  0  0  0  0
  -20.5732  -26.2317   23.3612 H   0  0  0  0  0  0
  -21.6664  -26.7460   22.1187 H   0  0  0  0  0  0
  -19.6930  -25.6292   21.1253 H   0  0  0  0  0  0
  -19.6718  -27.3184   20.6735 H   0  0  0  0  0  0
  -17.4231  -26.6692   21.3999 H   0  0  0  0  0  0
  -18.0321  -26.0117   22.9028 H   0  0  0  0  0  0
  -19.7958  -30.7291   24.2246 H   0  0  0  0  0  0
  -17.5033  -31.6279   24.5168 H   0  0  0  0  0  0
  -15.5370  -30.2995   23.7683 H   0  0  0  0  0  0
  -15.8678  -28.0834   22.7073 H   0  0  0  0  0  0
  -24.5896  -30.7106   25.7753 H   0  0  0  0  0  0
  -24.8951  -32.2945   26.4821 H   0  0  0  0  0  0
  -25.8058  -30.8945   27.0209 H   0  0  0  0  0  0
  -26.2975  -29.6732   24.1250 H   0  0  0  0  0  0
  -27.4060  -29.7286   25.4756 H   0  0  0  0  0  0
  -27.8836  -30.4281   23.9467 H   0  0  0  0  0  0
  -27.2637  -33.3637   26.2053 H   0  0  0  0  0  0
  -28.3896  -32.6908   25.0360 H   0  0  0  0  0  0
  -28.0682  -31.8483   26.5455 H   0  0  0  0  0  0
  -28.2593  -38.0110   24.7512 H   0  0  0  0  0  0
  -28.1081  -36.2639   24.6275 H   0  0  0  0  0  0
  -27.2290  -37.1440   25.8867 H   0  0  0  0  0  0
  -20.9363  -29.8800   21.6855 H   0  0  0  0  0  0
  -26.0143  -38.2819   24.1412 H   0  0  0  0  0  0
  -30.4309  -19.8542   21.4862 H   0  0  0  0  0  0
  -30.8671  -19.7703   19.8131 H   0  0  0  0  0  0
  -31.0314  -17.1806   19.1364 H   0  0  0  0  0  0
  -29.3505  -16.9207   18.6005 H   0  0  0  0  0  0
  -29.2628  -16.9059   22.3396 H   0  0  0  0  0  0
  -30.9708  -17.1586   21.8813 H   0  0  0  0  0  0
  -28.9501  -20.8657   19.0331 H   0  0  0  0  0  0
  -29.3572  -21.3932   22.7597 H   0  0  0  0  0  0
  -29.2818  -23.1331   22.6837 H   0  0  0  0  0  0
  -30.5733  -22.2848   21.8387 H   0  0  0  0  0  0
  -25.8398  -19.4956   19.2632 H   0  0  0  0  0  0
  -26.3705  -21.1642   19.3990 H   0  0  0  0  0  0
  -25.7835  -20.3051   20.8289 H   0  0  0  0  0  0
  -29.7084  -23.7527   19.7371 H   0  0  0  0  0  0
  -28.1508  -23.4155   19.0748 H   0  0  0  0  0  0
  -28.4769  -24.9909   21.6910 H   0  0  0  0  0  0
  -27.0094  -24.7756   20.8404 H   0  0  0  0  0  0
  -27.6210  -22.1099   21.2295 H   0  0  0  0  0  0
  1 25  1  0  0  0
  1 30  2  0  0  0
  1 83  1  0  0  0
  2  3  1  0  0  0
  2 25  1  0  0  0
  2 85  1  0  0  0
  2 86  1  0  0  0
  3  4  1  0  0  0
  3 87  1  0  0  0
  3 88  1  0  0  0
  4  5  1  0  0  0
  4 89  1  0  0  0
  4 90  1  0  0  0
  5  6  1  0  0  0
  5 26  1  0  0  0
  5 91  1  0  0  0
  6 25  1  0  0  0
  6 92  1  0  0  0
  6 93  1  0  0  0
  7  8  2  0  0  0
  7 26  1  0  0  0
  7 29  1  0  0  0
  8  9  1  0  0  0
  8 22  1  0  0  0
  9 10  1  0  0  0
  9 27  2  0  0  0
 10 11  2  0  0  0
 10 15  1  0  0  0
 11 12  1  0  0  0
 11 94  1  0  0  0
 12 13  2  0  0  0
 12 95  1  0  0  0
 13 14  1  0  0  0
 13 31  1  0  0  0
 14 15  2  0  0  0
 14 96  1  0  0  0
 15 97  1  0  0  0
 16 17  2  0  0  0
 16 21  1  0  0  0
 16 31  1  0  0  0
 17 18  1  0  0  0
 17 98  1  0  0  0
 18 19  2  0  0  0
 18 99  1  0  0  0
 19 20  1  0  0  0
 19 24  1  0  0  0
 20 21  2  0  0  0
 20100  1  0  0  0
 21 23  1  0  0  0
 22 28  1  0  0  0
 22 32  2  0  0  0
 26 27  1  0  0  0
 28101  1  0  0  0
 28102  1  0  0  0
 29103  1  0  0  0
 29104  1  0  0  0
 33 34  1  0  0  0
 33 66  1  0  0  0
 33 70  2  0  0  0
 34 36  1  0  0  0
 34 59  1  0  0  0
 34105  1  0  0  0
 35 44  2  0  0  0
 35 45  1  0  0  0
 35 68  1  0  0  0
 36 56  1  0  0  0
 36106  1  0  0  0
 37 39  1  0  0  0
 37 47  1  0  0  0
 37 66  1  0  0  0
 37107  1  0  0  0
 38 43  2  0  0  0
 38 46  1  0  0  0
 38 47  1  0  0  0
 39 64  1  0  0  0
 39 67  2  0  0  0
 40 52  1  0  0  0
 40 53  2  0  0  0
 40 58  1  0  0  0
 41108  1  0  0  0
 41109  1  0  0  0
 41110  1  0  0  0
 41 48  1  0  0  0
 42 43  1  0  0  0
 42 66  1  0  0  0
 42111  1  0  0  0
 42112  1  0  0  0
 43 44  1  0  0  0
 44113  1  0  0  0
 45 46  2  0  0  0
 45114  1  0  0  0
 46115  1  0  0  0
 47116  1  0  0  0
 47117  1  0  0  0
 48 56  1  0  0  0
 48 65  1  0  0  0
 48118  1  0  0  0
 49 50  1  0  0  0
 49 53  1  0  0  0
 49 64  1  0  0  0
 49119  1  0  0  0
 50 51  1  0  0  0
 50120  1  0  0  0
 50121  1  0  0  0
 51 52  1  0  0  0
 51122  1  0  0  0
 51123  1  0  0  0
 52124  1  0  0  0
 52125  1  0  0  0
 53 54  1  0  0  0
 54 55  2  0  0  0
 54126  1  0  0  0
 55 57  1  0  0  0
 55127  1  0  0  0
 56 69  2  0  0  0
 57 58  2  0  0  0
 57128  1  0  0  0
 58129  1  0  0  0
 59 60  1  0  0  0
 59 61  1  0  0  0
 59 62  1  0  0  0
 60130  1  0  0  0
 60131  1  0  0  0
 60132  1  0  0  0
 61133  1  0  0  0
 61134  1  0  0  0
 61135  1  0  0  0
 62136  1  0  0  0
 62137  1  0  0  0
 62138  1  0  0  0
 63 65  1  0  0  0
 63139  1  0  0  0
 63140  1  0  0  0
 63141  1  0  0  0
 64142  1  0  0  0
 65143  1  0  0  0
 68 80  1  0  0  0
 71 82  1  0  0  0
 71 84  2  0  0  0
 71 76  1  0  0  0
 72144  1  0  0  0
 72145  1  0  0  0
 72 75  1  0  0  0
 72 76  1  0  0  0
 73 76  1  0  0  0
 73 83  1  0  0  0
 73146  1  0  0  0
 73147  1  0  0  0
 74 76  1  0  0  0
 74 83  1  0  0  0
 74148  1  0  0  0
 74149  1  0  0  0
 75 81  1  0  0  0
 75 82  1  0  0  0
 75150  1  0  0  0
 77151  1  0  0  0
 77152  1  0  0  0
 77153  1  0  0  0
 77 81  1  0  0  0
 78 82  1  0  0  0
 78154  1  0  0  0
 78155  1  0  0  0
 78156  1  0  0  0
 79 80  1  0  0  0
 79 81  1  0  0  0
 79157  1  0  0  0
 79158  1  0  0  0
 80159  1  0  0  0
 80160  1  0  0  0
 81161  1  0  0  0
M  ISO  4   1 100  68 101  80 101  83 100
M  END
> <chiral flag>
0

> <version>
0

> <s_m_source_file>
/data/baiqing/PycharmProjects/Reinvent-master-3.2/result/LINK_invent/BTK/process_docking_weight1_custom_sum_contain_oxygen_bond_distance_aromatic_linkinvent_7_9_3/rearranged_h_0159.sdf

> <i_m_source_file_index>
9

> <r_mmod_Potential_Energy-OPLS-2005>
394.218994140625

> <r_mmod_Stretch_Energy-OPLS-2005>
140.730972290039

> <r_mmod_Bend_Energy-OPLS-2005>
217.289733886719

> <r_mmod_Torsional_Energy-OPLS-2005>
342.709991455078

> <r_mmod_Improper_Torsional_Energy-OPLS-2005>
16.0162353515625

> <r_mmod_Van_der_Waal_Energy-OPLS-2005>
114.617340087891

> <r_mmod_Electrostatic_Energy-OPLS-2005>
-328.767913818359

> <r_mmod_Solvation_Energy-OPLS-2005>
-202.941207885742

> <b_mmod_Minimization_Converged-OPLS-2005>
0

> <r_mmod_RMS_Derivative-OPLS-2005>
2.49584865570068

$$$$
9
                    3D
 Structure written by MMmdl.
174184  0  0  1  0            999 V2000
  -30.7122  -14.4141   20.6199 C   0  0  0  0  0  0
  -30.4308  -12.2826   19.4178 C   0  0  0  0  0  0
  -29.4983  -12.5196   18.2106 C   0  0  0  0  0  0
  -28.0182  -12.3827   18.6185 C   0  0  0  0  0  0
  -27.6721  -13.1984   19.8918 C   0  0  2  0  0  0
  -28.7117  -12.9272   21.0072 C   0  0  0  0  0  0
  -25.2560  -13.8088   20.5618 C   0  0  0  0  0  0
  -24.1829  -13.0385   20.9170 C   0  0  0  0  0  0
  -24.6401  -11.6865   20.8748 C   0  0  0  0  0  0
  -23.9065  -10.4264   21.0414 C   0  0  0  0  0  0
  -24.3616   -9.4182   21.9192 C   0  0  0  0  0  0
  -23.6287   -8.2223   22.0759 C   0  0  0  0  0  0
  -22.4270   -8.0272   21.3547 C   0  0  0  0  0  0
  -21.9910   -9.0243   20.4647 C   0  0  0  0  0  0
  -22.7241  -10.2118   20.3058 C   0  0  0  0  0  0
  -21.6847   -6.0731   22.5280 C   0  0  0  0  0  0
  -21.4007   -6.5636   23.8213 C   0  0  0  0  0  0
  -21.3658   -5.6791   24.9177 C   0  0  0  0  0  0
  -21.6044   -4.3055   24.7226 C   0  0  0  0  0  0
  -21.8821   -3.8143   23.4350 C   0  0  0  0  0  0
  -21.9191   -4.6959   22.3405 C   0  0  0  0  0  0
  -22.7851  -13.5195   21.1833 C   0  0  0  0  0  0
  -22.1662   -4.2144   21.0984 F   0  0  0  0  0  0
  -21.5632   -3.4540   25.7740 F   0  0  0  0  0  0
  -30.0595  -13.2288   20.4810 N   0  0  0  0  0  0
  -26.3064  -12.9290   20.3429 N   0  0  0  0  0  0
  -25.9337  -11.6455   20.5810 N   0  0  0  0  0  0
  -22.0492  -12.8203   22.0403 N   0  0  0  0  0  0
  -25.4136  -15.1777   20.3859 N   0  0  0  0  0  0
  -31.7602  -14.6928   20.0295 O   0  0  0  0  0  0
  -21.6631   -6.8873   21.4243 O   0  0  0  0  0  0
  -22.3542  -14.5511   20.6692 O   0  0  0  0  0  0
  -24.6084  -31.8713   23.2131 C   0  0  0  0  0  0
  -25.8997  -32.4848   23.8417 C   0  0  1  0  0  0
  -27.2660  -27.4801   20.0966 C   0  0  0  0  0  0
  -25.5867  -33.8646   24.2346 N   0  0  0  0  0  0
  -23.3957  -30.4912   21.5510 C   0  0  2  0  0  0
  -24.8501  -28.9584   20.1203 C   0  0  0  0  0  0
  -22.7380  -29.4662   22.5011 C   0  0  0  0  0  0
  -18.0264  -28.1369   22.8497 C   0  0  0  0  0  0
  -24.1486  -36.7333   23.2637 C   0  0  0  0  0  0
  -25.9168  -30.8504   21.3601 C   0  0  0  0  0  0
  -26.0007  -29.4829   20.7197 C   0  0  0  0  0  0
  -27.2046  -28.7504   20.7206 C   0  0  0  0  0  0
  -26.0952  -26.9625   19.5024 C   0  0  0  0  0  0
  -24.8885  -27.6903   19.5135 C   0  0  0  0  0  0
  -23.6059  -29.8172   20.1670 C   0  0  0  0  0  0
  -25.4104  -36.3133   24.0343 C   0  0  1  0  0  0
  -20.5851  -28.3649   23.1336 C   0  0  2  0  0  0
  -20.6755  -26.9390   22.5424 C   0  0  0  0  0  0
  -19.5739  -26.6381   21.5215 C   0  0  0  0  0  0
  -18.1914  -26.7919   22.1622 C   0  0  0  0  0  0
  -19.1511  -28.8824   23.2916 C   0  0  0  0  0  0
  -18.9443  -30.1434   23.8921 C   0  0  0  0  0  0
  -17.6447  -30.6579   24.0566 C   0  0  0  0  0  0
  -25.9022  -34.9494   23.5143 C   0  0  0  0  0  0
  -16.5338  -29.9084   23.6322 C   0  0  0  0  0  0
  -16.7254  -28.6499   23.0346 C   0  0  0  0  0  0
  -26.4451  -31.6610   25.0718 C   0  0  0  0  0  0
  -25.3739  -31.3697   26.1482 C   0  0  0  0  0  0
  -27.0278  -30.3064   24.6049 C   0  0  0  0  0  0
  -27.6032  -32.4323   25.7476 C   0  0  0  0  0  0
  -27.5584  -37.1820   24.8462 C   0  0  0  0  0  0
  -21.4114  -29.3021   22.3747 N   0  0  0  0  0  0
  -26.4295  -37.3811   23.9409 N   0  0  0  0  0  0
  -24.6577  -31.0846   22.1010 N   0  0  0  0  0  0
  -23.4172  -28.8216   23.3045 O   0  0  0  0  0  0
  -28.4049  -26.7054   20.0083 O   0  0  0  0  0  0
  -26.5590  -34.8937   22.4708 O   0  0  0  0  0  0
  -23.5289  -32.1442   23.7554 O   0  0  0  0  0  0
  -29.8361  -20.1181   21.6810 C   0  0  0  0  0  0
  -31.5078  -18.2041   20.4167 C   0  0  0  0  0  0
  -29.4665  -18.7699   21.5980 C   0  0  0  0  0  0
  -31.0464  -20.5375   21.0754 C   0  0  0  0  0  0
  -30.2616  -17.8367   20.9495 C   0  0  0  0  0  0
  -31.9077  -19.5704   20.4755 C   0  0  0  0  0  0
  -28.1638  -18.1799   22.0502 C   0  0  0  0  0  0
  -28.1039  -16.8390   21.2944 C   0  0  0  0  0  0
  -30.9727  -22.5296   19.5407 C   0  0  0  0  0  0
  -30.7099  -22.9557   21.9983 C   0  0  0  0  0  0
  -31.2754  -24.0238   19.3397 C   0  0  0  0  0  0
  -31.0295  -24.4427   21.7440 C   0  0  0  0  0  0
  -31.3715  -22.0338   20.9446 C   0  0  1  0  0  0
  -29.5180  -16.5371   20.7356 C   0  0  2  0  0  0
  -33.9463  -19.0916   19.2872 C   0  0  0  0  0  0
  -30.7797  -26.3142   20.1162 C   0  0  0  0  0  0
  -29.6034  -27.1559   20.6396 C   0  0  0  0  0  0
  -30.0571  -15.3252   21.3494 N   0  0  0  0  0  0
  -30.6136  -24.8585   20.3758 N   0  3  1  0  0  0
  -33.0825  -20.0299   19.9168 O   0  0  0  0  0  0
  -31.4749  -12.3858   19.1168 H   0  0  0  0  0  0
  -30.3296  -11.2588   19.7814 H   0  0  0  0  0  0
  -29.7307  -11.8140   17.4119 H   0  0  0  0  0  0
  -29.6752  -13.5147   17.7991 H   0  0  0  0  0  0
  -27.8176  -11.3246   18.7923 H   0  0  0  0  0  0
  -27.3719  -12.6832   17.7928 H   0  0  0  0  0  0
  -27.7314  -14.2532   19.6247 H   0  0  0  0  0  0
  -28.6727  -11.8789   21.3068 H   0  0  0  0  0  0
  -28.4642  -13.4853   21.9110 H   0  0  0  0  0  0
  -25.2766   -9.5650   22.4762 H   0  0  0  0  0  0
  -23.9990   -7.4611   22.7477 H   0  0  0  0  0  0
  -21.0845   -8.8768   19.8948 H   0  0  0  0  0  0
  -22.3714  -10.9660   19.6165 H   0  0  0  0  0  0
  -21.2001   -7.6144   23.9716 H   0  0  0  0  0  0
  -21.1479   -6.0521   25.9081 H   0  0  0  0  0  0
  -22.0603   -2.7605   23.2851 H   0  0  0  0  0  0
  -22.4103  -11.9863   22.4793 H   0  0  0  0  0  0
  -21.1114  -13.1232   22.2615 H   0  0  0  0  0  0
  -24.6357  -15.8223   20.4752 H   0  0  0  0  0  0
  -26.2512  -15.6124   20.0253 H   0  0  0  0  0  0
  -26.7076  -32.5593   23.1202 H   0  0  0  0  0  0
  -25.0026  -33.9824   25.0496 H   0  0  0  0  0  0
  -22.6820  -31.3058   21.4106 H   0  0  0  0  0  0
  -23.3744  -35.9670   23.3313 H   0  0  0  0  0  0
  -24.3578  -36.8932   22.2047 H   0  0  0  0  0  0
  -23.7245  -37.6547   23.6640 H   0  0  0  0  0  0
  -26.0155  -31.6121   20.5855 H   0  0  0  0  0  0
  -26.8082  -30.9169   21.9712 H   0  0  0  0  0  0
  -28.0680  -29.1895   21.1974 H   0  0  0  0  0  0
  -26.1230  -25.9940   19.0229 H   0  0  0  0  0  0
  -24.0044  -27.2754   19.0488 H   0  0  0  0  0  0
  -23.7073  -30.5891   19.4032 H   0  0  0  0  0  0
  -22.7340  -29.2287   19.8758 H   0  0  0  0  0  0
  -25.1281  -36.2008   25.0836 H   0  0  0  0  0  0
  -20.9940  -28.3207   24.1458 H   0  0  0  0  0  0
  -20.5657  -26.2253   23.3604 H   0  0  0  0  0  0
  -21.6629  -26.7442   22.1220 H   0  0  0  0  0  0
  -19.6902  -25.6297   21.1230 H   0  0  0  0  0  0
  -19.6681  -27.3203   20.6756 H   0  0  0  0  0  0
  -17.4189  -26.6675   21.4018 H   0  0  0  0  0  0
  -18.0311  -26.0050   22.9006 H   0  0  0  0  0  0
  -19.7919  -30.7243   24.2302 H   0  0  0  0  0  0
  -17.5003  -31.6264   24.5158 H   0  0  0  0  0  0
  -15.5338  -30.2996   23.7631 H   0  0  0  0  0  0
  -15.8655  -28.0828   22.7047 H   0  0  0  0  0  0
  -24.5893  -30.7066   25.7823 H   0  0  0  0  0  0
  -24.8952  -32.2848   26.4978 H   0  0  0  0  0  0
  -25.8109  -30.8830   27.0211 H   0  0  0  0  0  0
  -26.2806  -29.6836   24.1115 H   0  0  0  0  0  0
  -27.4086  -29.7284   25.4481 H   0  0  0  0  0  0
  -27.8624  -30.4411   23.9163 H   0  0  0  0  0  0
  -27.2646  -33.3598   26.2113 H   0  0  0  0  0  0
  -28.3808  -32.6932   25.0283 H   0  0  0  0  0  0
  -28.0742  -31.8415   26.5345 H   0  0  0  0  0  0
  -28.2612  -38.0110   24.7515 H   0  0  0  0  0  0
  -28.1072  -36.2645   24.6282 H   0  0  0  0  0  0
  -27.2302  -37.1465   25.8865 H   0  0  0  0  0  0
  -20.9265  -29.8735   21.6971 H   0  0  0  0  0  0
  -26.0193  -38.2895   24.1404 H   0  0  0  0  0  0
  -29.1470  -20.8104   22.1381 H   0  0  0  0  0  0
  -32.0909  -17.4498   19.9090 H   0  0  0  0  0  0
  -27.3185  -18.8263   21.8119 H   0  0  0  0  0  0
  -28.1923  -18.0258   23.1295 H   0  0  0  0  0  0
  -27.4410  -16.9832   20.4415 H   0  0  0  0  0  0
  -27.6734  -16.0393   21.8985 H   0  0  0  0  0  0
  -31.4997  -21.9554   18.7775 H   0  0  0  0  0  0
  -29.9100  -22.3484   19.3736 H   0  0  0  0  0  0
  -29.6255  -22.8563   21.9826 H   0  0  0  0  0  0
  -31.0362  -22.6733   23.0001 H   0  0  0  0  0  0
  -30.9327  -24.3206   18.3475 H   0  0  0  0  0  0
  -32.3531  -24.1947   19.3621 H   0  0  0  0  0  0
  -32.0979  -24.6217   21.8757 H   0  0  0  0  0  0
  -30.5188  -25.0505   22.4915 H   0  0  0  0  0  0
  -32.4515  -22.1456   21.0574 H   0  0  0  0  0  0
  -29.4348  -16.3870   19.6555 H   0  0  0  0  0  0
  -34.8263  -19.6104   18.9068 H   0  0  0  0  0  0
  -33.4613  -18.6075   18.4385 H   0  0  0  0  0  0
  -34.2899  -18.3301   19.9890 H   0  0  0  0  0  0
  -31.7208  -26.6677   20.5396 H   0  0  0  0  0  0
  -30.8487  -26.4931   19.0423 H   0  0  0  0  0  0
  -29.8109  -28.1967   20.3896 H   0  0  0  0  0  0
  -29.5094  -27.0860   21.7239 H   0  0  0  0  0  0
  -29.4163  -14.9064   22.0050 H   0  0  0  0  0  0
  -29.6209  -24.6846   20.2902 H   0  0  0  0  0  0
  1 25  1  0  0  0
  1 30  2  0  0  0
  1 88  1  0  0  0
  2  3  1  0  0  0
  2 25  1  0  0  0
  2 91  1  0  0  0
  2 92  1  0  0  0
  3  4  1  0  0  0
  3 93  1  0  0  0
  3 94  1  0  0  0
  4  5  1  0  0  0
  4 95  1  0  0  0
  4 96  1  0  0  0
  5  6  1  0  0  0
  5 26  1  0  0  0
  5 97  1  0  0  0
  6 25  1  0  0  0
  6 98  1  0  0  0
  6 99  1  0  0  0
  7  8  2  0  0  0
  7 26  1  0  0  0
  7 29  1  0  0  0
  8  9  1  0  0  0
  8 22  1  0  0  0
  9 10  1  0  0  0
  9 27  2  0  0  0
 10 11  2  0  0  0
 10 15  1  0  0  0
 11 12  1  0  0  0
 11100  1  0  0  0
 12 13  2  0  0  0
 12101  1  0  0  0
 13 14  1  0  0  0
 13 31  1  0  0  0
 14 15  2  0  0  0
 14102  1  0  0  0
 15103  1  0  0  0
 16 17  2  0  0  0
 16 21  1  0  0  0
 16 31  1  0  0  0
 17 18  1  0  0  0
 17104  1  0  0  0
 18 19  2  0  0  0
 18105  1  0  0  0
 19 20  1  0  0  0
 19 24  1  0  0  0
 20 21  2  0  0  0
 20106  1  0  0  0
 21 23  1  0  0  0
 22 28  1  0  0  0
 22 32  2  0  0  0
 26 27  1  0  0  0
 28107  1  0  0  0
 28108  1  0  0  0
 29109  1  0  0  0
 29110  1  0  0  0
 33 34  1  0  0  0
 33 66  1  0  0  0
 33 70  2  0  0  0
 34 36  1  0  0  0
 34 59  1  0  0  0
 34111  1  0  0  0
 35 44  2  0  0  0
 35 45  1  0  0  0
 35 68  1  0  0  0
 36 56  1  0  0  0
 36112  1  0  0  0
 37 39  1  0  0  0
 37 47  1  0  0  0
 37 66  1  0  0  0
 37113  1  0  0  0
 38 43  2  0  0  0
 38 46  1  0  0  0
 38 47  1  0  0  0
 39 64  1  0  0  0
 39 67  2  0  0  0
 40 52  1  0  0  0
 40 53  2  0  0  0
 40 58  1  0  0  0
 41114  1  0  0  0
 41115  1  0  0  0
 41116  1  0  0  0
 41 48  1  0  0  0
 42 43  1  0  0  0
 42 66  1  0  0  0
 42117  1  0  0  0
 42118  1  0  0  0
 43 44  1  0  0  0
 44119  1  0  0  0
 45 46  2  0  0  0
 45120  1  0  0  0
 46121  1  0  0  0
 47122  1  0  0  0
 47123  1  0  0  0
 48 56  1  0  0  0
 48 65  1  0  0  0
 48124  1  0  0  0
 49 50  1  0  0  0
 49 53  1  0  0  0
 49 64  1  0  0  0
 49125  1  0  0  0
 50 51  1  0  0  0
 50126  1  0  0  0
 50127  1  0  0  0
 51 52  1  0  0  0
 51128  1  0  0  0
 51129  1  0  0  0
 52130  1  0  0  0
 52131  1  0  0  0
 53 54  1  0  0  0
 54 55  2  0  0  0
 54132  1  0  0  0
 55 57  1  0  0  0
 55133  1  0  0  0
 56 69  2  0  0  0
 57 58  2  0  0  0
 57134  1  0  0  0
 58135  1  0  0  0
 59 60  1  0  0  0
 59 61  1  0  0  0
 59 62  1  0  0  0
 60136  1  0  0  0
 60137  1  0  0  0
 60138  1  0  0  0
 61139  1  0  0  0
 61140  1  0  0  0
 61141  1  0  0  0
 62142  1  0  0  0
 62143  1  0  0  0
 62144  1  0  0  0
 63 65  1  0  0  0
 63145  1  0  0  0
 63146  1  0  0  0
 63147  1  0  0  0
 64148  1  0  0  0
 65149  1  0  0  0
 68 87  1  0  0  0
 71 73  2  0  0  0
 71 74  1  0  0  0
 71150  1  0  0  0
 72 75  2  0  0  0
 72 76  1  0  0  0
 72151  1  0  0  0
 73 75  1  0  0  0
 73 77  1  0  0  0
 74 76  2  0  0  0
 74 83  1  0  0  0
 75 84  1  0  0  0
 76 90  1  0  0  0
 77 78  1  0  0  0
 77152  1  0  0  0
 77153  1  0  0  0
 78 84  1  0  0  0
 78154  1  0  0  0
 78155  1  0  0  0
 79 81  1  0  0  0
 79 83  1  0  0  0
 79156  1  0  0  0
 79157  1  0  0  0
 80 82  1  0  0  0
 80 83  1  0  0  0
 80158  1  0  0  0
 80159  1  0  0  0
 81 89  1  0  0  0
 81160  1  0  0  0
 81161  1  0  0  0
 82 89  1  0  0  0
 82162  1  0  0  0
 82163  1  0  0  0
 83164  1  0  0  0
 84 88  1  0  0  0
 84165  1  0  0  0
 85 90  1  0  0  0
 85166  1  0  0  0
 85167  1  0  0  0
 85168  1  0  0  0
 86 87  1  0  0  0
 86169  1  0  0  0
 86170  1  0  0  0
 86 89  1  0  0  0
 87171  1  0  0  0
 87172  1  0  0  0
 88173  1  0  0  0
 89174  1  0  0  0
M  CHG  1  89   1
M  ISO  4   1 100  68 101  87 101  88 100
M  END
> <chiral flag>
0

> <version>
0

> <s_m_source_file>
/data/baiqing/PycharmProjects/Reinvent-master-3.2/result/LINK_invent/BTK/process_docking_weight1_custom_sum_contain_oxygen_bond_distance_aromatic_linkinvent_7_9_3/rearranged_h_0159.sdf

> <i_m_source_file_index>
10

> <r_mmod_Potential_Energy-OPLS-2005>
-108.905334472656

> <r_mmod_Stretch_Energy-OPLS-2005>
38.5977325439453

> <r_mmod_Bend_Energy-OPLS-2005>
149.67790222168

> <r_mmod_Torsional_Energy-OPLS-2005>
287.767761230469

> <r_mmod_Improper_Torsional_Energy-OPLS-2005>
9.20229911804199

> <r_mmod_Van_der_Waal_Energy-OPLS-2005>
159.428497314453

> <r_mmod_Electrostatic_Energy-OPLS-2005>
-345.393737792969

> <r_mmod_Solvation_Energy-OPLS-2005>
-414.974273681641

> <b_mmod_Minimization_Converged-OPLS-2005>
0

> <r_mmod_RMS_Derivative-OPLS-2005>
0.663025379180908

$$$$
10
                    3D
 Structure written by MMmdl.
173182  0  0  1  0            999 V2000
  -30.7296  -14.4421   20.5980 C   0  0  0  0  0  0
  -30.4189  -12.2968   19.4193 C   0  0  0  0  0  0
  -29.4891  -12.5044   18.2070 C   0  0  0  0  0  0
  -28.0108  -12.3728   18.6213 C   0  0  0  0  0  0
  -27.6635  -13.2075   19.8838 C   0  0  2  0  0  0
  -28.7082  -12.9681   20.9990 C   0  0  0  0  0  0
  -25.2519  -13.8090   20.5621 C   0  0  0  0  0  0
  -24.1813  -13.0384   20.9199 C   0  0  0  0  0  0
  -24.6407  -11.6873   20.8773 C   0  0  0  0  0  0
  -23.9078  -10.4269   21.0434 C   0  0  0  0  0  0
  -24.3623   -9.4179   21.9206 C   0  0  0  0  0  0
  -23.6296   -8.2216   22.0758 C   0  0  0  0  0  0
  -22.4277   -8.0273   21.3544 C   0  0  0  0  0  0
  -21.9925   -9.0252   20.4644 C   0  0  0  0  0  0
  -22.7257  -10.2127   20.3071 C   0  0  0  0  0  0
  -21.6839   -6.0743   22.5287 C   0  0  0  0  0  0
  -21.4000   -6.5643   23.8223 C   0  0  0  0  0  0
  -21.3659   -5.6792   24.9182 C   0  0  0  0  0  0
  -21.6045   -4.3062   24.7221 C   0  0  0  0  0  0
  -21.8815   -3.8160   23.4348 C   0  0  0  0  0  0
  -21.9187   -4.6974   22.3413 C   0  0  0  0  0  0
  -22.7838  -13.5188   21.1868 C   0  0  0  0  0  0
  -22.1656   -4.2169   21.0989 F   0  0  0  0  0  0
  -21.5638   -3.4543   25.7733 F   0  0  0  0  0  0
  -30.0395  -13.2767   20.4520 N   0  0  0  0  0  0
  -26.3030  -12.9318   20.3428 N   0  0  0  0  0  0
  -25.9345  -11.6474   20.5841 N   0  0  0  0  0  0
  -22.0476  -12.8190   22.0430 N   0  0  0  0  0  0
  -25.4065  -15.1751   20.3807 N   0  0  0  0  0  0
  -31.8388  -14.6006   20.0807 O   0  0  0  0  0  0
  -21.6624   -6.8884   21.4253 O   0  0  0  0  0  0
  -22.3519  -14.5503   20.6732 O   0  0  0  0  0  0
  -24.6114  -31.8703   23.2112 C   0  0  0  0  0  0
  -25.9043  -32.4820   23.8381 C   0  0  1  0  0  0
  -27.2400  -27.4599   20.1007 C   0  0  0  0  0  0
  -25.5937  -33.8620   24.2337 N   0  0  0  0  0  0
  -23.3985  -30.4912   21.5518 C   0  0  2  0  0  0
  -24.8455  -28.9555   20.1219 C   0  0  0  0  0  0
  -22.7391  -29.4658   22.5012 C   0  0  0  0  0  0
  -18.0269  -28.1373   22.8468 C   0  0  0  0  0  0
  -24.1496  -36.7299   23.2639 C   0  0  0  0  0  0
  -25.9221  -30.8437   21.3589 C   0  0  0  0  0  0
  -26.0012  -29.4754   20.7165 C   0  0  0  0  0  0
  -27.2023  -28.7340   20.7051 C   0  0  0  0  0  0
  -26.0700  -26.9436   19.5034 C   0  0  0  0  0  0
  -24.8716  -27.6859   19.5162 C   0  0  0  0  0  0
  -23.6054  -29.8206   20.1668 C   0  0  0  0  0  0
  -25.4123  -36.3101   24.0336 C   0  0  1  0  0  0
  -20.5852  -28.3649   23.1336 C   0  0  2  0  0  0
  -20.6785  -26.9397   22.5422 C   0  0  0  0  0  0
  -19.5771  -26.6377   21.5206 C   0  0  0  0  0  0
  -18.1926  -26.7911   22.1598 C   0  0  0  0  0  0
  -19.1519  -28.8826   23.2889 C   0  0  0  0  0  0
  -18.9452  -30.1429   23.8911 C   0  0  0  0  0  0
  -17.6459  -30.6588   24.0549 C   0  0  0  0  0  0
  -25.9055  -34.9469   23.5130 C   0  0  0  0  0  0
  -16.5350  -29.9084   23.6323 C   0  0  0  0  0  0
  -16.7261  -28.6499   23.0338 C   0  0  0  0  0  0
  -26.4491  -31.6588   25.0689 C   0  0  0  0  0  0
  -25.3759  -31.3694   26.1436 C   0  0  0  0  0  0
  -27.0323  -30.3047   24.6012 C   0  0  0  0  0  0
  -27.6056  -32.4305   25.7471 C   0  0  0  0  0  0
  -27.5586  -37.1806   24.8465 C   0  0  0  0  0  0
  -21.4134  -29.3011   22.3746 N   0  0  0  0  0  0
  -26.4307  -37.3780   23.9403 N   0  0  0  0  0  0
  -24.6615  -31.0829   22.0989 N   0  0  0  0  0  0
  -23.4164  -28.8211   23.3059 O   0  0  0  0  0  0
  -28.4310  -26.7824   20.0093 O   0  0  0  0  0  0
  -26.5573  -34.8922   22.4663 O   0  0  0  0  0  0
  -23.5320  -32.1448   23.7538 O   0  0  0  0  0  0
  -31.5769  -17.3481   20.9674 C   0  0  0  0  0  0
  -31.4061  -18.7569   20.9763 C   0  0  0  0  0  0
  -30.1007  -19.0146   21.3311 C   0  0  0  0  0  0
  -30.3757  -16.7749   21.2791 C   0  0  0  0  0  0
  -30.0189  -21.5240   22.0599 C   0  0  0  0  0  0
  -29.0494  -20.7848   19.8839 C   0  0  0  0  0  0
  -29.1246  -22.7915   21.9985 C   0  0  0  0  0  0
  -28.1656  -22.0365   19.8613 C   0  0  0  0  0  0
  -29.3523  -20.3399   21.3258 C   0  0  1  0  0  0
  -32.4830  -19.7408   20.5914 C   0  0  0  0  0  0
  -27.7767  -16.3567   22.8739 C   0  0  0  0  0  0
  -27.0561  -17.8727   20.9772 C   0  0  0  0  0  0
  -27.9703  -24.4031   20.4414 C   0  0  0  0  0  0
  -28.6445  -25.7049   20.9227 C   0  0  0  0  0  0
  -28.0798  -17.6511   22.1009 C   0  0  0  0  0  0
  -29.4683  -17.7866   21.6139 N   0  0  0  0  0  0
  -30.0904  -15.4327   21.2622 N   0  0  0  0  0  0
  -28.7928  -23.1680   20.5922 N   0  3  1  0  0  0
  -31.4627  -12.3845   19.1112 H   0  0  0  0  0  0
  -30.3157  -11.2831   19.8094 H   0  0  0  0  0  0
  -29.7204  -11.7773   17.4274 H   0  0  0  0  0  0
  -29.6657  -13.4889   17.7697 H   0  0  0  0  0  0
  -27.8164  -11.3172   18.8140 H   0  0  0  0  0  0
  -27.3602  -12.6537   17.7933 H   0  0  0  0  0  0
  -27.7120  -14.2595   19.6005 H   0  0  0  0  0  0
  -28.6811  -11.9243   21.3156 H   0  0  0  0  0  0
  -28.4815  -13.5341   21.9002 H   0  0  0  0  0  0
  -25.2769   -9.5646   22.4783 H   0  0  0  0  0  0
  -24.0006   -7.4597   22.7468 H   0  0  0  0  0  0
  -21.0863   -8.8780   19.8934 H   0  0  0  0  0  0
  -22.3738  -10.9678   19.6180 H   0  0  0  0  0  0
  -21.1976   -7.6138   23.9733 H   0  0  0  0  0  0
  -21.1489   -6.0517   25.9086 H   0  0  0  0  0  0
  -22.0594   -2.7621   23.2840 H   0  0  0  0  0  0
  -22.4084  -11.9843   22.4809 H   0  0  0  0  0  0
  -21.1098  -13.1221   22.2651 H   0  0  0  0  0  0
  -24.6250  -15.8140   20.4711 H   0  0  0  0  0  0
  -26.2416  -15.6160   20.0209 H   0  0  0  0  0  0
  -26.7118  -32.5566   23.1152 H   0  0  0  0  0  0
  -25.0145  -33.9764   25.0523 H   0  0  0  0  0  0
  -22.6862  -31.3080   21.4142 H   0  0  0  0  0  0
  -23.3751  -35.9632   23.3305 H   0  0  0  0  0  0
  -24.3612  -36.8908   22.2051 H   0  0  0  0  0  0
  -23.7248  -37.6512   23.6651 H   0  0  0  0  0  0
  -26.0279  -31.6073   20.5879 H   0  0  0  0  0  0
  -26.8141  -30.9029   21.9704 H   0  0  0  0  0  0
  -28.1007  -29.1403   21.1451 H   0  0  0  0  0  0
  -26.0824  -25.9861   19.0019 H   0  0  0  0  0  0
  -23.9856  -27.2802   19.0479 H   0  0  0  0  0  0
  -23.7082  -30.5958   19.4063 H   0  0  0  0  0  0
  -22.7309  -29.2362   19.8747 H   0  0  0  0  0  0
  -25.1299  -36.1973   25.0825 H   0  0  0  0  0  0
  -20.9928  -28.3214   24.1465 H   0  0  0  0  0  0
  -20.5745  -26.2229   23.3587 H   0  0  0  0  0  0
  -21.6654  -26.7492   22.1189 H   0  0  0  0  0  0
  -19.6951  -25.6291   21.1231 H   0  0  0  0  0  0
  -19.6747  -27.3199   20.6744 H   0  0  0  0  0  0
  -17.4215  -26.6652   21.3983 H   0  0  0  0  0  0
  -18.0328  -26.0063   22.9007 H   0  0  0  0  0  0
  -19.7938  -30.7207   24.2320 H   0  0  0  0  0  0
  -17.5024  -31.6282   24.5123 H   0  0  0  0  0  0
  -15.5349  -30.2981   23.7661 H   0  0  0  0  0  0
  -15.8649  -28.0824   22.7058 H   0  0  0  0  0  0
  -24.5917  -30.7072   25.7765 H   0  0  0  0  0  0
  -24.8962  -32.2848   26.4908 H   0  0  0  0  0  0
  -25.8088  -30.8834   27.0184 H   0  0  0  0  0  0
  -26.2833  -29.6803   24.1117 H   0  0  0  0  0  0
  -27.4194  -29.7304   25.4444 H   0  0  0  0  0  0
  -27.8631  -30.4409   23.9075 H   0  0  0  0  0  0
  -27.2670  -33.3594   26.2077 H   0  0  0  0  0  0
  -28.3853  -32.6887   25.0294 H   0  0  0  0  0  0
  -28.0727  -31.8407   26.5367 H   0  0  0  0  0  0
  -28.2591  -38.0112   24.7523 H   0  0  0  0  0  0
  -28.1084  -36.2643   24.6282 H   0  0  0  0  0  0
  -27.2289  -37.1447   25.8860 H   0  0  0  0  0  0
  -20.9298  -29.8672   21.6924 H   0  0  0  0  0  0
  -26.0193  -38.2855   24.1415 H   0  0  0  0  0  0
  -32.4892  -16.8331   20.7021 H   0  0  0  0  0  0
  -30.2082  -21.2608   23.1016 H   0  0  0  0  0  0
  -30.9876  -21.7605   21.6232 H   0  0  0  0  0  0
  -29.9727  -20.9796   19.3385 H   0  0  0  0  0  0
  -28.5502  -19.9863   19.3349 H   0  0  0  0  0  0
  -29.6362  -23.6152   22.4978 H   0  0  0  0  0  0
  -28.2005  -22.6201   22.5549 H   0  0  0  0  0  0
  -27.1948  -21.8128   20.3046 H   0  0  0  0  0  0
  -27.9739  -22.3147   18.8240 H   0  0  0  0  0  0
  -28.3956  -20.2205   21.8284 H   0  0  0  0  0  0
  -33.3566  -19.2221   20.1956 H   0  0  0  0  0  0
  -32.8064  -20.3217   21.4544 H   0  0  0  0  0  0
  -32.1352  -20.4247   19.8186 H   0  0  0  0  0  0
  -26.8490  -16.4597   23.4375 H   0  0  0  0  0  0
  -28.5631  -16.1138   23.5894 H   0  0  0  0  0  0
  -27.6276  -15.5160   22.2027 H   0  0  0  0  0  0
  -26.0428  -17.7036   21.3402 H   0  0  0  0  0  0
  -27.2389  -17.2063   20.1358 H   0  0  0  0  0  0
  -27.0696  -18.8884   20.5943 H   0  0  0  0  0  0
  -27.7769  -24.5157   19.3737 H   0  0  0  0  0  0
  -26.9965  -24.2848   20.9178 H   0  0  0  0  0  0
  -29.7254  -25.5691   20.9706 H   0  0  0  0  0  0
  -28.3227  -25.9670   21.9329 H   0  0  0  0  0  0
  -27.9383  -18.4285   22.8506 H   0  0  0  0  0  0
  -29.1923  -15.1720   21.6378 H   0  0  0  0  0  0
  -29.6701  -23.3517   20.1234 H   0  0  0  0  0  0
  1 25  1  0  0  0
  1 30  2  0  0  0
  1 87  1  0  0  0
  2  3  1  0  0  0
  2 25  1  0  0  0
  2 89  1  0  0  0
  2 90  1  0  0  0
  3  4  1  0  0  0
  3 91  1  0  0  0
  3 92  1  0  0  0
  4  5  1  0  0  0
  4 93  1  0  0  0
  4 94  1  0  0  0
  5  6  1  0  0  0
  5 26  1  0  0  0
  5 95  1  0  0  0
  6 25  1  0  0  0
  6 96  1  0  0  0
  6 97  1  0  0  0
  7  8  2  0  0  0
  7 26  1  0  0  0
  7 29  1  0  0  0
  8  9  1  0  0  0
  8 22  1  0  0  0
  9 10  1  0  0  0
  9 27  2  0  0  0
 10 11  2  0  0  0
 10 15  1  0  0  0
 11 12  1  0  0  0
 11 98  1  0  0  0
 12 13  2  0  0  0
 12 99  1  0  0  0
 13 14  1  0  0  0
 13 31  1  0  0  0
 14 15  2  0  0  0
 14100  1  0  0  0
 15101  1  0  0  0
 16 17  2  0  0  0
 16 21  1  0  0  0
 16 31  1  0  0  0
 17 18  1  0  0  0
 17102  1  0  0  0
 18 19  2  0  0  0
 18103  1  0  0  0
 19 20  1  0  0  0
 19 24  1  0  0  0
 20 21  2  0  0  0
 20104  1  0  0  0
 21 23  1  0  0  0
 22 28  1  0  0  0
 22 32  2  0  0  0
 26 27  1  0  0  0
 28105  1  0  0  0
 28106  1  0  0  0
 29107  1  0  0  0
 29108  1  0  0  0
 33 34  1  0  0  0
 33 66  1  0  0  0
 33 70  2  0  0  0
 34 36  1  0  0  0
 34 59  1  0  0  0
 34109  1  0  0  0
 35 44  2  0  0  0
 35 45  1  0  0  0
 35 68  1  0  0  0
 36 56  1  0  0  0
 36110  1  0  0  0
 37 39  1  0  0  0
 37 47  1  0  0  0
 37 66  1  0  0  0
 37111  1  0  0  0
 38 43  2  0  0  0
 38 46  1  0  0  0
 38 47  1  0  0  0
 39 64  1  0  0  0
 39 67  2  0  0  0
 40 52  1  0  0  0
 40 53  2  0  0  0
 40 58  1  0  0  0
 41112  1  0  0  0
 41113  1  0  0  0
 41114  1  0  0  0
 41 48  1  0  0  0
 42 43  1  0  0  0
 42 66  1  0  0  0
 42115  1  0  0  0
 42116  1  0  0  0
 43 44  1  0  0  0
 44117  1  0  0  0
 45 46  2  0  0  0
 45118  1  0  0  0
 46119  1  0  0  0
 47120  1  0  0  0
 47121  1  0  0  0
 48 56  1  0  0  0
 48 65  1  0  0  0
 48122  1  0  0  0
 49 50  1  0  0  0
 49 53  1  0  0  0
 49 64  1  0  0  0
 49123  1  0  0  0
 50 51  1  0  0  0
 50124  1  0  0  0
 50125  1  0  0  0
 51 52  1  0  0  0
 51126  1  0  0  0
 51127  1  0  0  0
 52128  1  0  0  0
 52129  1  0  0  0
 53 54  1  0  0  0
 54 55  2  0  0  0
 54130  1  0  0  0
 55 57  1  0  0  0
 55131  1  0  0  0
 56 69  2  0  0  0
 57 58  2  0  0  0
 57132  1  0  0  0
 58133  1  0  0  0
 59 60  1  0  0  0
 59 61  1  0  0  0
 59 62  1  0  0  0
 60134  1  0  0  0
 60135  1  0  0  0
 60136  1  0  0  0
 61137  1  0  0  0
 61138  1  0  0  0
 61139  1  0  0  0
 62140  1  0  0  0
 62141  1  0  0  0
 62142  1  0  0  0
 63 65  1  0  0  0
 63143  1  0  0  0
 63144  1  0  0  0
 63145  1  0  0  0
 64146  1  0  0  0
 65147  1  0  0  0
 68 84  1  0  0  0
 71 72  1  0  0  0
 71 74  2  0  0  0
 71148  1  0  0  0
 72 73  2  0  0  0
 72 80  1  0  0  0
 73 86  1  0  0  0
 73 79  1  0  0  0
 74 86  1  0  0  0
 74 87  1  0  0  0
 75 77  1  0  0  0
 75 79  1  0  0  0
 75149  1  0  0  0
 75150  1  0  0  0
 76 78  1  0  0  0
 76 79  1  0  0  0
 76151  1  0  0  0
 76152  1  0  0  0
 77 88  1  0  0  0
 77153  1  0  0  0
 77154  1  0  0  0
 78 88  1  0  0  0
 78155  1  0  0  0
 78156  1  0  0  0
 79157  1  0  0  0
 80158  1  0  0  0
 80159  1  0  0  0
 80160  1  0  0  0
 81161  1  0  0  0
 81162  1  0  0  0
 81163  1  0  0  0
 81 85  1  0  0  0
 82 85  1  0  0  0
 82164  1  0  0  0
 82165  1  0  0  0
 82166  1  0  0  0
 83 84  1  0  0  0
 83167  1  0  0  0
 83168  1  0  0  0
 83 88  1  0  0  0
 84169  1  0  0  0
 84170  1  0  0  0
 85 86  1  0  0  0
 85171  1  0  0  0
 87172  1  0  0  0
 88173  1  0  0  0
M  CHG  1  88   1
M  ISO  4   1 100  68 101  84 101  87 100
M  END
> <chiral flag>
0

> <version>
0

> <s_m_source_file>
/data/baiqing/PycharmProjects/Reinvent-master-3.2/result/LINK_invent/BTK/process_docking_weight1_custom_sum_contain_oxygen_bond_distance_aromatic_linkinvent_7_9_3/rearranged_h_0159.sdf

> <i_m_source_file_index>
11

> <r_mmod_Potential_Energy-OPLS-2005>
-77.5267486572266

> <r_mmod_Stretch_Energy-OPLS-2005>
40.0042304992676

> <r_mmod_Bend_Energy-OPLS-2005>
123.617111206055

> <r_mmod_Torsional_Energy-OPLS-2005>
305.118194580078

> <r_mmod_Improper_Torsional_Energy-OPLS-2005>
3.82469701766968

> <r_mmod_Van_der_Waal_Energy-OPLS-2005>
139.454299926758

> <r_mmod_Electrostatic_Energy-OPLS-2005>
-269.723327636719

> <r_mmod_Solvation_Energy-OPLS-2005>
-429.263214111328

> <b_mmod_Minimization_Converged-OPLS-2005>
0

> <r_mmod_RMS_Derivative-OPLS-2005>
2.50378131866455

$$$$
11
                    3D
 Structure written by MMmdl.
165174  0  0  1  0            999 V2000
  -30.6392  -14.6580   20.4857 C   0  0  0  0  0  0
  -30.4295  -12.4027   19.4617 C   0  0  0  0  0  0
  -29.5071  -12.5032   18.2280 C   0  0  0  0  0  0
  -28.0312  -12.3381   18.6404 C   0  0  0  0  0  0
  -27.6474  -13.2236   19.8563 C   0  0  2  0  0  0
  -28.6909  -13.1168   20.9904 C   0  0  0  0  0  0
  -25.2531  -13.8188   20.5686 C   0  0  0  0  0  0
  -24.1811  -13.0443   20.9197 C   0  0  0  0  0  0
  -24.6390  -11.6918   20.8740 C   0  0  0  0  0  0
  -23.9064  -10.4294   21.0402 C   0  0  0  0  0  0
  -24.3614   -9.4211   21.9181 C   0  0  0  0  0  0
  -23.6287   -8.2247   22.0755 C   0  0  0  0  0  0
  -22.4269   -8.0283   21.3549 C   0  0  0  0  0  0
  -21.9903   -9.0260   20.4651 C   0  0  0  0  0  0
  -22.7235  -10.2136   20.3055 C   0  0  0  0  0  0
  -21.6855   -6.0733   22.5277 C   0  0  0  0  0  0
  -21.4016   -6.5634   23.8213 C   0  0  0  0  0  0
  -21.3659   -5.6787   24.9174 C   0  0  0  0  0  0
  -21.6043   -4.3052   24.7223 C   0  0  0  0  0  0
  -21.8821   -3.8144   23.4345 C   0  0  0  0  0  0
  -21.9195   -4.6960   22.3402 C   0  0  0  0  0  0
  -22.7831  -13.5231   21.1855 C   0  0  0  0  0  0
  -22.1662   -4.2146   21.0979 F   0  0  0  0  0  0
  -21.5628   -3.4536   25.7736 F   0  0  0  0  0  0
  -30.0017  -13.4462   20.4164 N   0  0  0  0  0  0
  -26.2961  -12.9383   20.3295 N   0  0  0  0  0  0
  -25.9318  -11.6532   20.5748 N   0  0  0  0  0  0
  -22.0470  -12.8231   22.0413 N   0  0  0  0  0  0
  -25.4219  -15.1911   20.4093 N   0  0  0  0  0  0
  -31.8173  -14.7718   20.1387 O   0  0  0  0  0  0
  -21.6638   -6.8875   21.4240 O   0  0  0  0  0  0
  -22.3518  -14.5538   20.6700 O   0  0  0  0  0  0
  -24.6267  -31.8586   23.2013 C   0  0  0  0  0  0
  -25.9111  -32.4769   23.8342 C   0  0  1  0  0  0
  -27.2259  -27.3132   20.1048 C   0  0  0  0  0  0
  -25.5923  -33.8570   24.2270 N   0  0  0  0  0  0
  -23.4199  -30.4821   21.5442 C   0  0  2  0  0  0
  -24.8652  -28.9350   20.1087 C   0  0  0  0  0  0
  -22.7473  -29.4617   22.4931 C   0  0  0  0  0  0
  -18.0288  -28.1382   22.8485 C   0  0  0  0  0  0
  -24.1487  -36.7287   23.2639 C   0  0  0  0  0  0
  -25.9614  -30.7860   21.3734 C   0  0  0  0  0  0
  -26.0335  -29.4130   20.7141 C   0  0  0  0  0  0
  -27.2124  -28.6103   20.7077 C   0  0  0  0  0  0
  -26.0256  -26.8788   19.4977 C   0  0  0  0  0  0
  -24.8626  -27.6728   19.4957 C   0  0  0  0  0  0
  -23.6340  -29.8166   20.1591 C   0  0  0  0  0  0
  -25.4112  -36.3078   24.0330 C   0  0  1  0  0  0
  -20.5888  -28.3685   23.1283 C   0  0  2  0  0  0
  -20.6774  -26.9406   22.5415 C   0  0  0  0  0  0
  -19.5753  -26.6384   21.5210 C   0  0  0  0  0  0
  -18.1931  -26.7928   22.1620 C   0  0  0  0  0  0
  -19.1540  -28.8851   23.2882 C   0  0  0  0  0  0
  -18.9463  -30.1452   23.8900 C   0  0  0  0  0  0
  -17.6462  -30.6584   24.0565 C   0  0  0  0  0  0
  -25.9049  -34.9448   23.5101 C   0  0  0  0  0  0
  -16.5353  -29.9082   23.6331 C   0  0  0  0  0  0
  -16.7275  -28.6499   23.0352 C   0  0  0  0  0  0
  -26.4494  -31.6586   25.0719 C   0  0  0  0  0  0
  -25.3727  -31.3736   26.1451 C   0  0  0  0  0  0
  -27.0331  -30.3004   24.6187 C   0  0  0  0  0  0
  -27.6056  -32.4322   25.7487 C   0  0  0  0  0  0
  -27.5578  -37.1795   24.8463 C   0  0  0  0  0  0
  -21.4186  -29.3034   22.3672 N   0  0  0  0  0  0
  -26.4288  -37.3774   23.9411 N   0  0  0  0  0  0
  -24.6880  -31.0591   22.0963 N   0  0  0  0  0  0
  -23.4192  -28.8162   23.3017 O   0  0  0  0  0  0
  -28.3552  -26.4802   20.1733 O   0  0  0  0  0  0
  -26.5621  -34.8919   22.4670 O   0  0  0  0  0  0
  -23.5429  -32.1389   23.7340 O   0  0  0  0  0  0
  -30.0251  -22.0522   20.9400 C   0  0  0  0  0  0
  -29.7680  -23.4201   20.6251 C   0  0  0  0  0  0
  -27.7692  -22.7421   19.4540 C   0  0  0  0  0  0
  -28.6435  -23.8152   19.8484 C   0  0  0  0  0  0
  -28.0028  -21.3671   19.8502 C   0  0  0  0  0  0
  -29.1890  -20.9677   20.5479 C   0  0  0  0  0  0
  -30.7151  -17.8032   22.0135 C   0  0  0  0  0  0
  -30.6454  -19.3313   21.8242 C   0  0  0  0  0  0
  -29.2403  -18.3116   20.2037 C   0  0  0  0  0  0
  -30.2974  -17.2217   20.6590 C   0  0  2  0  0  0
  -30.7717  -24.4618   21.0937 C   0  0  0  0  0  0
  -26.5619  -23.0573   18.5661 C   0  0  0  0  0  0
  -26.9361  -20.3120   19.5641 C   0  0  0  0  0  0
  -28.5199  -25.3057   19.2921 C   0  0  0  0  0  0
  -29.5476  -19.6001   20.8976 N   0  0  0  0  0  0
  -29.8765  -15.7709   20.7451 N   0  0  0  0  0  0
  -31.4726  -12.5152   19.1614 H   0  0  0  0  0  0
  -30.3551  -11.4157   19.9209 H   0  0  0  0  0  0
  -29.7768  -11.7458   17.4908 H   0  0  0  0  0  0
  -29.6481  -13.4694   17.7405 H   0  0  0  0  0  0
  -27.8748  -11.2871   18.8872 H   0  0  0  0  0  0
  -27.3762  -12.5525   17.7948 H   0  0  0  0  0  0
  -27.6557  -14.2523   19.4959 H   0  0  0  0  0  0
  -28.7052  -12.1104   21.4115 H   0  0  0  0  0  0
  -28.4381  -13.7858   21.8141 H   0  0  0  0  0  0
  -25.2759   -9.5688   22.4756 H   0  0  0  0  0  0
  -23.9998   -7.4639   22.7475 H   0  0  0  0  0  0
  -21.0835   -8.8780   19.8956 H   0  0  0  0  0  0
  -22.3693  -10.9675   19.6163 H   0  0  0  0  0  0
  -21.2007   -7.6141   23.9713 H   0  0  0  0  0  0
  -21.1477   -6.0516   25.9076 H   0  0  0  0  0  0
  -22.0599   -2.7606   23.2848 H   0  0  0  0  0  0
  -22.4074  -11.9892   22.4810 H   0  0  0  0  0  0
  -21.1095  -13.1274   22.2618 H   0  0  0  0  0  0
  -24.6499  -15.8409   20.5123 H   0  0  0  0  0  0
  -26.2641  -15.6313   20.0624 H   0  0  0  0  0  0
  -26.7176  -32.5432   23.1084 H   0  0  0  0  0  0
  -25.0063  -33.9710   25.0411 H   0  0  0  0  0  0
  -22.7143  -31.3031   21.4013 H   0  0  0  0  0  0
  -23.3751  -35.9617   23.3305 H   0  0  0  0  0  0
  -24.3576  -36.8907   22.2054 H   0  0  0  0  0  0
  -23.7238  -37.6488   23.6660 H   0  0  0  0  0  0
  -26.0963  -31.5503   20.6067 H   0  0  0  0  0  0
  -26.8403  -30.8320   22.0048 H   0  0  0  0  0  0
  -28.1094  -28.9719   21.1906 H   0  0  0  0  0  0
  -25.9439  -25.8994   19.0538 H   0  0  0  0  0  0
  -23.9611  -27.2937   19.0344 H   0  0  0  0  0  0
  -23.7539  -30.5929   19.4027 H   0  0  0  0  0  0
  -22.7534  -29.2471   19.8565 H   0  0  0  0  0  0
  -25.1292  -36.1925   25.0822 H   0  0  0  0  0  0
  -20.9985  -28.3264   24.1402 H   0  0  0  0  0  0
  -20.5669  -26.2291   23.3614 H   0  0  0  0  0  0
  -21.6645  -26.7432   22.1213 H   0  0  0  0  0  0
  -19.6912  -25.6294   21.1241 H   0  0  0  0  0  0
  -19.6695  -27.3196   20.6741 H   0  0  0  0  0  0
  -17.4201  -26.6681   21.4019 H   0  0  0  0  0  0
  -18.0330  -26.0068   22.9016 H   0  0  0  0  0  0
  -19.7939  -30.7266   24.2274 H   0  0  0  0  0  0
  -17.5017  -31.6263   24.5167 H   0  0  0  0  0  0
  -15.5353  -30.2981   23.7655 H   0  0  0  0  0  0
  -15.8677  -28.0815   22.7070 H   0  0  0  0  0  0
  -24.5898  -30.7086   25.7786 H   0  0  0  0  0  0
  -24.8922  -32.2907   26.4867 H   0  0  0  0  0  0
  -25.8051  -30.8921   27.0231 H   0  0  0  0  0  0
  -26.2901  -29.6756   24.1217 H   0  0  0  0  0  0
  -27.4023  -29.7264   25.4696 H   0  0  0  0  0  0
  -27.8777  -30.4278   23.9413 H   0  0  0  0  0  0
  -27.2666  -33.3623   26.2061 H   0  0  0  0  0  0
  -28.3863  -32.6881   25.0311 H   0  0  0  0  0  0
  -28.0728  -31.8451   26.5404 H   0  0  0  0  0  0
  -28.2597  -38.0091   24.7510 H   0  0  0  0  0  0
  -28.1071  -36.2622   24.6284 H   0  0  0  0  0  0
  -27.2300  -37.1446   25.8868 H   0  0  0  0  0  0
  -20.9363  -29.8740   21.6869 H   0  0  0  0  0  0
  -26.0169  -38.2848   24.1418 H   0  0  0  0  0  0
  -30.9245  -21.8470   21.5005 H   0  0  0  0  0  0
  -30.0052  -17.5030   22.7861 H   0  0  0  0  0  0
  -31.7045  -17.4706   22.3296 H   0  0  0  0  0  0
  -31.5802  -19.6883   21.3876 H   0  0  0  0  0  0
  -30.5035  -19.8416   22.7784 H   0  0  0  0  0  0
  -28.2458  -17.9739   20.4923 H   0  0  0  0  0  0
  -29.2463  -18.4365   19.1198 H   0  0  0  0  0  0
  -31.1522  -17.2970   19.9834 H   0  0  0  0  0  0
  -31.4758  -24.0475   21.8162 H   0  0  0  0  0  0
  -30.2664  -25.2980   21.5773 H   0  0  0  0  0  0
  -31.3474  -24.8464   20.2514 H   0  0  0  0  0  0
  -26.7794  -23.7879   17.7931 H   0  0  0  0  0  0
  -25.7283  -23.4209   19.1671 H   0  0  0  0  0  0
  -26.2205  -22.1969   17.9938 H   0  0  0  0  0  0
  -25.9307  -20.7258   19.5142 H   0  0  0  0  0  0
  -26.8776  -19.5921   20.3770 H   0  0  0  0  0  0
  -27.1476  -19.7842   18.6342 H   0  0  0  0  0  0
  -27.8833  -25.3850   18.4200 H   0  0  0  0  0  0
  -29.4926  -25.4835   18.8337 H   0  0  0  0  0  0
  -28.9115  -15.5965   20.9800 H   0  0  0  0  0  0
  1 25  1  0  0  0
  1 30  2  0  0  0
  1 86  1  0  0  0
  2  3  1  0  0  0
  2 25  1  0  0  0
  2 87  1  0  0  0
  2 88  1  0  0  0
  3  4  1  0  0  0
  3 89  1  0  0  0
  3 90  1  0  0  0
  4  5  1  0  0  0
  4 91  1  0  0  0
  4 92  1  0  0  0
  5  6  1  0  0  0
  5 26  1  0  0  0
  5 93  1  0  0  0
  6 25  1  0  0  0
  6 94  1  0  0  0
  6 95  1  0  0  0
  7  8  2  0  0  0
  7 26  1  0  0  0
  7 29  1  0  0  0
  8  9  1  0  0  0
  8 22  1  0  0  0
  9 10  1  0  0  0
  9 27  2  0  0  0
 10 11  2  0  0  0
 10 15  1  0  0  0
 11 12  1  0  0  0
 11 96  1  0  0  0
 12 13  2  0  0  0
 12 97  1  0  0  0
 13 14  1  0  0  0
 13 31  1  0  0  0
 14 15  2  0  0  0
 14 98  1  0  0  0
 15 99  1  0  0  0
 16 17  2  0  0  0
 16 21  1  0  0  0
 16 31  1  0  0  0
 17 18  1  0  0  0
 17100  1  0  0  0
 18 19  2  0  0  0
 18101  1  0  0  0
 19 20  1  0  0  0
 19 24  1  0  0  0
 20 21  2  0  0  0
 20102  1  0  0  0
 21 23  1  0  0  0
 22 28  1  0  0  0
 22 32  2  0  0  0
 26 27  1  0  0  0
 28103  1  0  0  0
 28104  1  0  0  0
 29105  1  0  0  0
 29106  1  0  0  0
 33 34  1  0  0  0
 33 66  1  0  0  0
 33 70  2  0  0  0
 34 36  1  0  0  0
 34 59  1  0  0  0
 34107  1  0  0  0
 35 44  2  0  0  0
 35 45  1  0  0  0
 35 68  1  0  0  0
 36 56  1  0  0  0
 36108  1  0  0  0
 37 39  1  0  0  0
 37 47  1  0  0  0
 37 66  1  0  0  0
 37109  1  0  0  0
 38 43  2  0  0  0
 38 46  1  0  0  0
 38 47  1  0  0  0
 39 64  1  0  0  0
 39 67  2  0  0  0
 40 52  1  0  0  0
 40 53  2  0  0  0
 40 58  1  0  0  0
 41110  1  0  0  0
 41111  1  0  0  0
 41112  1  0  0  0
 41 48  1  0  0  0
 42 43  1  0  0  0
 42 66  1  0  0  0
 42113  1  0  0  0
 42114  1  0  0  0
 43 44  1  0  0  0
 44115  1  0  0  0
 45 46  2  0  0  0
 45116  1  0  0  0
 46117  1  0  0  0
 47118  1  0  0  0
 47119  1  0  0  0
 48 56  1  0  0  0
 48 65  1  0  0  0
 48120  1  0  0  0
 49 50  1  0  0  0
 49 53  1  0  0  0
 49 64  1  0  0  0
 49121  1  0  0  0
 50 51  1  0  0  0
 50122  1  0  0  0
 50123  1  0  0  0
 51 52  1  0  0  0
 51124  1  0  0  0
 51125  1  0  0  0
 52126  1  0  0  0
 52127  1  0  0  0
 53 54  1  0  0  0
 54 55  2  0  0  0
 54128  1  0  0  0
 55 57  1  0  0  0
 55129  1  0  0  0
 56 69  2  0  0  0
 57 58  2  0  0  0
 57130  1  0  0  0
 58131  1  0  0  0
 59 60  1  0  0  0
 59 61  1  0  0  0
 59 62  1  0  0  0
 60132  1  0  0  0
 60133  1  0  0  0
 60134  1  0  0  0
 61135  1  0  0  0
 61136  1  0  0  0
 61137  1  0  0  0
 62138  1  0  0  0
 62139  1  0  0  0
 62140  1  0  0  0
 63 65  1  0  0  0
 63141  1  0  0  0
 63142  1  0  0  0
 63143  1  0  0  0
 64144  1  0  0  0
 65145  1  0  0  0
 68 84  1  0  0  0
 71 72  2  0  0  0
 71 76  1  0  0  0
 71146  1  0  0  0
 72 74  1  0  0  0
 72 81  1  0  0  0
 73 74  2  0  0  0
 73 75  1  0  0  0
 73 82  1  0  0  0
 74 84  1  0  0  0
 75 76  2  0  0  0
 75 83  1  0  0  0
 76 85  1  0  0  0
 77 78  1  0  0  0
 77 80  1  0  0  0
 77147  1  0  0  0
 77148  1  0  0  0
 78 85  1  0  0  0
 78149  1  0  0  0
 78150  1  0  0  0
 79 80  1  0  0  0
 79 85  1  0  0  0
 79151  1  0  0  0
 79152  1  0  0  0
 80 86  1  0  0  0
 80153  1  0  0  0
 81154  1  0  0  0
 81155  1  0  0  0
 81156  1  0  0  0
 82157  1  0  0  0
 82158  1  0  0  0
 82159  1  0  0  0
 83160  1  0  0  0
 83161  1  0  0  0
 83162  1  0  0  0
 84163  1  0  0  0
 84164  1  0  0  0
 86165  1  0  0  0
M  ISO  4   1 100  68 101  84 101  86 100
M  END
> <chiral flag>
0

> <version>
0

> <s_m_source_file>
/data/baiqing/PycharmProjects/Reinvent-master-3.2/result/LINK_invent/BTK/process_docking_weight1_custom_sum_contain_oxygen_bond_distance_aromatic_linkinvent_7_9_3/rearranged_h_0159.sdf

> <i_m_source_file_index>
12

> <r_mmod_Potential_Energy-OPLS-2005>
140.072631835938

> <r_mmod_Stretch_Energy-OPLS-2005>
92.9463806152344

> <r_mmod_Bend_Energy-OPLS-2005>
200.833435058594

> <r_mmod_Torsional_Energy-OPLS-2005>
258.597351074219

> <r_mmod_Improper_Torsional_Energy-OPLS-2005>
6.76869297027588

> <r_mmod_Van_der_Waal_Energy-OPLS-2005>
159.332656860352

> <r_mmod_Electrostatic_Energy-OPLS-2005>
-405.216857910156

> <r_mmod_Solvation_Energy-OPLS-2005>
-226.84733581543

> <b_mmod_Minimization_Converged-OPLS-2005>
0

> <r_mmod_RMS_Derivative-OPLS-2005>
0.686623990535736

$$$$
12
                    3D
 Structure written by MMmdl.
170179  0  0  1  0            999 V2000
  -30.7309  -14.6106   20.5425 C   0  0  0  0  0  0
  -30.4077  -12.3898   19.4714 C   0  0  0  0  0  0
  -29.4981  -12.4977   18.2317 C   0  0  0  0  0  0
  -28.0248  -12.3175   18.6394 C   0  0  0  0  0  0
  -27.6389  -13.2064   19.8468 C   0  0  2  0  0  0
  -28.6846  -13.1354   20.9900 C   0  0  0  0  0  0
  -25.2501  -13.8126   20.5661 C   0  0  0  0  0  0
  -24.1784  -13.0424   20.9221 C   0  0  0  0  0  0
  -24.6363  -11.6897   20.8754 C   0  0  0  0  0  0
  -23.9041  -10.4281   21.0408 C   0  0  0  0  0  0
  -24.3606   -9.4203   21.9185 C   0  0  0  0  0  0
  -23.6279   -8.2243   22.0757 C   0  0  0  0  0  0
  -22.4253   -8.0293   21.3552 C   0  0  0  0  0  0
  -21.9895   -9.0246   20.4635 C   0  0  0  0  0  0
  -22.7227  -10.2128   20.3047 C   0  0  0  0  0  0
  -21.6844   -6.0737   22.5284 C   0  0  0  0  0  0
  -21.3998   -6.5634   23.8219 C   0  0  0  0  0  0
  -21.3660   -5.6785   24.9175 C   0  0  0  0  0  0
  -21.6059   -4.3045   24.7219 C   0  0  0  0  0  0
  -21.8820   -3.8144   23.4330 C   0  0  0  0  0  0
  -21.9180   -4.6968   22.3402 C   0  0  0  0  0  0
  -22.7811  -13.5211   21.1872 C   0  0  0  0  0  0
  -22.1644   -4.2177   21.0976 F   0  0  0  0  0  0
  -21.5642   -3.4521   25.7716 F   0  0  0  0  0  0
  -30.0044  -13.4478   20.4256 N   0  0  0  0  0  0
  -26.2910  -12.9302   20.3250 N   0  0  0  0  0  0
  -25.9278  -11.6470   20.5746 N   0  0  0  0  0  0
  -22.0445  -12.8202   22.0417 N   0  0  0  0  0  0
  -25.4136  -15.1847   20.4014 N   0  0  0  0  0  0
  -31.8776  -14.6577   20.0884 O   0  0  0  0  0  0
  -21.6640   -6.8881   21.4244 O   0  0  0  0  0  0
  -22.3508  -14.5522   20.6701 O   0  0  0  0  0  0
  -24.6265  -31.8662   23.2122 C   0  0  0  0  0  0
  -25.9137  -32.4803   23.8434 C   0  0  1  0  0  0
  -27.2041  -27.3272   20.0977 C   0  0  0  0  0  0
  -25.5967  -33.8604   24.2350 N   0  0  0  0  0  0
  -23.4175  -30.4970   21.5556 C   0  0  2  0  0  0
  -24.8601  -28.9758   20.1065 C   0  0  0  0  0  0
  -22.7495  -29.4643   22.4956 C   0  0  0  0  0  0
  -18.0283  -28.1382   22.8471 C   0  0  0  0  0  0
  -24.1476  -36.7273   23.2613 C   0  0  0  0  0  0
  -25.9644  -30.7927   21.3934 C   0  0  0  0  0  0
  -26.0324  -29.4273   20.7260 C   0  0  0  0  0  0
  -27.2063  -28.6127   20.7235 C   0  0  0  0  0  0
  -26.0102  -26.9674   19.4133 C   0  0  0  0  0  0
  -24.8516  -27.7495   19.4422 C   0  0  0  0  0  0
  -23.6304  -29.8539   20.1645 C   0  0  0  0  0  0
  -25.4090  -36.3088   24.0336 C   0  0  1  0  0  0
  -20.5888  -28.3681   23.1264 C   0  0  2  0  0  0
  -20.6780  -26.9410   22.5385 C   0  0  0  0  0  0
  -19.5760  -26.6385   21.5189 C   0  0  0  0  0  0
  -18.1928  -26.7927   22.1595 C   0  0  0  0  0  0
  -19.1541  -28.8845   23.2863 C   0  0  0  0  0  0
  -18.9464  -30.1443   23.8899 C   0  0  0  0  0  0
  -17.6467  -30.6572   24.0563 C   0  0  0  0  0  0
  -25.9054  -34.9463   23.5133 C   0  0  0  0  0  0
  -16.5352  -29.9068   23.6351 C   0  0  0  0  0  0
  -16.7270  -28.6486   23.0358 C   0  0  0  0  0  0
  -26.4510  -31.6583   25.0790 C   0  0  0  0  0  0
  -25.3735  -31.3719   26.1506 C   0  0  0  0  0  0
  -27.0337  -30.2983   24.6264 C   0  0  0  0  0  0
  -27.6084  -32.4291   25.7561 C   0  0  0  0  0  0
  -27.5619  -37.1737   24.8409 C   0  0  0  0  0  0
  -21.4208  -29.3048   22.3687 N   0  0  0  0  0  0
  -26.4234  -37.3819   23.9500 N   0  0  0  0  0  0
  -24.6874  -31.0684   22.1083 N   0  0  0  0  0  0
  -23.4221  -28.8160   23.3012 O   0  0  0  0  0  0
  -28.2804  -26.4156   20.1851 O   0  0  0  0  0  0
  -26.5618  -34.8928   22.4692 O   0  0  0  0  0  0
  -23.5429  -32.1471   23.7433 O   0  0  0  0  0  0
  -29.5000  -23.5269   21.2264 C   0  0  0  0  0  0
  -28.8087  -21.2599   19.7214 C   0  0  0  0  0  0
  -28.6784  -23.7181   20.0892 C   0  0  0  0  0  0
  -29.9463  -22.2242   21.6247 C   0  0  0  0  0  0
  -28.3458  -22.5466   19.3424 C   0  0  0  0  0  0
  -29.5912  -21.0575   20.8784 C   0  0  0  0  0  0
  -31.4966  -17.8970   20.9163 C   0  0  0  0  0  0
  -29.1382  -17.7063   20.0305 C   0  0  0  0  0  0
  -31.1475  -16.6954   21.8428 C   0  0  0  0  0  0
  -28.9713  -16.4531   20.9511 C   0  0  0  0  0  0
  -30.2782  -18.7059   20.3982 C   0  0  0  0  0  0
  -27.4161  -22.6233   18.1379 C   0  0  0  0  0  0
  -30.2469  -22.7764   24.1046 C   0  0  0  0  0  0
  -32.2630  -22.5802   22.5701 C   0  0  0  0  0  0
  -27.9517  -25.0526   19.7193 C   0  0  0  0  0  0
  -30.8373  -22.0874   22.8620 C   0  0  0  0  0  0
  -30.2370  -15.7237   21.1958 N   0  0  0  0  0  0
  -29.9499  -19.7759   21.3285 O   0  0  0  0  0  0
  -31.4544  -12.4588   19.1736 H   0  0  0  0  0  0
  -30.3069  -11.4073   19.9361 H   0  0  0  0  0  0
  -29.7776  -11.7482   17.4898 H   0  0  0  0  0  0
  -29.6358  -13.4686   17.7534 H   0  0  0  0  0  0
  -27.8715  -11.2656   18.8819 H   0  0  0  0  0  0
  -27.3723  -12.5305   17.7923 H   0  0  0  0  0  0
  -27.6208  -14.2056   19.4245 H   0  0  0  0  0  0
  -28.6977  -12.1386   21.4350 H   0  0  0  0  0  0
  -28.4217  -13.8175   21.7998 H   0  0  0  0  0  0
  -25.2775   -9.5666   22.4725 H   0  0  0  0  0  0
  -23.9984   -7.4630   22.7472 H   0  0  0  0  0  0
  -21.0843   -8.8752   19.8928 H   0  0  0  0  0  0
  -22.3706  -10.9642   19.6111 H   0  0  0  0  0  0
  -21.1979   -7.6136   23.9722 H   0  0  0  0  0  0
  -21.1478   -6.0509   25.9075 H   0  0  0  0  0  0
  -22.0594   -2.7614   23.2813 H   0  0  0  0  0  0
  -22.4055  -11.9859   22.4798 H   0  0  0  0  0  0
  -21.1041  -13.1198   22.2601 H   0  0  0  0  0  0
  -24.6393  -15.8288   20.5203 H   0  0  0  0  0  0
  -26.2503  -15.6279   20.0494 H   0  0  0  0  0  0
  -26.7191  -32.5474   23.1165 H   0  0  0  0  0  0
  -25.0156  -33.9756   25.0527 H   0  0  0  0  0  0
  -22.7087  -31.3170   21.4230 H   0  0  0  0  0  0
  -23.3839  -35.9490   23.3058 H   0  0  0  0  0  0
  -24.3647  -36.9124   22.2087 H   0  0  0  0  0  0
  -23.7080  -37.6335   23.6778 H   0  0  0  0  0  0
  -26.1077  -31.5606   20.6324 H   0  0  0  0  0  0
  -26.8406  -30.8256   22.0290 H   0  0  0  0  0  0
  -28.0969  -28.9504   21.2338 H   0  0  0  0  0  0
  -25.9026  -26.0588   18.8417 H   0  0  0  0  0  0
  -23.9607  -27.4097   18.9322 H   0  0  0  0  0  0
  -23.7511  -30.6427   19.4207 H   0  0  0  0  0  0
  -22.7499  -29.2881   19.8528 H   0  0  0  0  0  0
  -25.1222  -36.1905   25.0814 H   0  0  0  0  0  0
  -20.9933  -28.3236   24.1399 H   0  0  0  0  0  0
  -20.5660  -26.2302   23.3586 H   0  0  0  0  0  0
  -21.6654  -26.7421   22.1185 H   0  0  0  0  0  0
  -19.6917  -25.6280   21.1257 H   0  0  0  0  0  0
  -19.6712  -27.3189   20.6716 H   0  0  0  0  0  0
  -17.4200  -26.6667   21.3996 H   0  0  0  0  0  0
  -18.0325  -26.0052   22.8971 H   0  0  0  0  0  0
  -19.7939  -30.7269   24.2272 H   0  0  0  0  0  0
  -17.5012  -31.6262   24.5130 H   0  0  0  0  0  0
  -15.5357  -30.2966   23.7674 H   0  0  0  0  0  0
  -15.8659  -28.0803   22.7086 H   0  0  0  0  0  0
  -24.5907  -30.7072   25.7836 H   0  0  0  0  0  0
  -24.8936  -32.2884   26.4955 H   0  0  0  0  0  0
  -25.8036  -30.8881   27.0280 H   0  0  0  0  0  0
  -26.2904  -29.6764   24.1262 H   0  0  0  0  0  0
  -27.3968  -29.7223   25.4792 H   0  0  0  0  0  0
  -27.8818  -30.4253   23.9533 H   0  0  0  0  0  0
  -27.2717  -33.3621   26.2104 H   0  0  0  0  0  0
  -28.3918  -32.6797   25.0392 H   0  0  0  0  0  0
  -28.0711  -31.8437   26.5518 H   0  0  0  0  0  0
  -28.2363  -38.0299   24.7848 H   0  0  0  0  0  0
  -28.1389  -36.2883   24.5687 H   0  0  0  0  0  0
  -27.2440  -37.0678   25.8801 H   0  0  0  0  0  0
  -20.9392  -29.8803   21.6921 H   0  0  0  0  0  0
  -26.0096  -38.2824   24.1753 H   0  0  0  0  0  0
  -29.7566  -24.3890   21.8253 H   0  0  0  0  0  0
  -28.5035  -20.4056   19.1356 H   0  0  0  0  0  0
  -32.0378  -17.5039   20.0560 H   0  0  0  0  0  0
  -32.1982  -18.5636   21.4190 H   0  0  0  0  0  0
  -28.1888  -18.2355   19.9505 H   0  0  0  0  0  0
  -29.3448  -17.3309   19.0259 H   0  0  0  0  0  0
  -30.6860  -17.0690   22.7591 H   0  0  0  0  0  0
  -32.0659  -16.2015   22.1668 H   0  0  0  0  0  0
  -28.2155  -15.8151   20.5233 H   0  0  0  0  0  0
  -28.5530  -16.7692   21.9090 H   0  0  0  0  0  0
  -30.5988  -19.1946   19.4762 H   0  0  0  0  0  0
  -27.1909  -21.6353   17.7344 H   0  0  0  0  0  0
  -27.8665  -23.2092   17.3366 H   0  0  0  0  0  0
  -26.4627  -23.0770   18.4099 H   0  0  0  0  0  0
  -29.2466  -22.4016   24.3240 H   0  0  0  0  0  0
  -30.1817  -23.8588   23.9911 H   0  0  0  0  0  0
  -30.8654  -22.5828   24.9822 H   0  0  0  0  0  0
  -32.7000  -22.0381   21.7304 H   0  0  0  0  0  0
  -32.9155  -22.4276   23.4308 H   0  0  0  0  0  0
  -32.2825  -23.6428   22.3248 H   0  0  0  0  0  0
  -26.9615  -24.7943   20.0978 H   0  0  0  0  0  0
  -27.9102  -25.1199   18.6321 H   0  0  0  0  0  0
  -30.9181  -21.0307   23.1171 H   0  0  0  0  0  0
  1 25  1  0  0  0
  1 30  2  0  0  0
  1 87  1  0  0  0
  2  3  1  0  0  0
  2 25  1  0  0  0
  2 89  1  0  0  0
  2 90  1  0  0  0
  3  4  1  0  0  0
  3 91  1  0  0  0
  3 92  1  0  0  0
  4  5  1  0  0  0
  4 93  1  0  0  0
  4 94  1  0  0  0
  5  6  1  0  0  0
  5 26  1  0  0  0
  5 95  1  0  0  0
  6 25  1  0  0  0
  6 96  1  0  0  0
  6 97  1  0  0  0
  7  8  2  0  0  0
  7 26  1  0  0  0
  7 29  1  0  0  0
  8  9  1  0  0  0
  8 22  1  0  0  0
  9 10  1  0  0  0
  9 27  2  0  0  0
 10 11  2  0  0  0
 10 15  1  0  0  0
 11 12  1  0  0  0
 11 98  1  0  0  0
 12 13  2  0  0  0
 12 99  1  0  0  0
 13 14  1  0  0  0
 13 31  1  0  0  0
 14 15  2  0  0  0
 14100  1  0  0  0
 15101  1  0  0  0
 16 17  2  0  0  0
 16 21  1  0  0  0
 16 31  1  0  0  0
 17 18  1  0  0  0
 17102  1  0  0  0
 18 19  2  0  0  0
 18103  1  0  0  0
 19 20  1  0  0  0
 19 24  1  0  0  0
 20 21  2  0  0  0
 20104  1  0  0  0
 21 23  1  0  0  0
 22 28  1  0  0  0
 22 32  2  0  0  0
 26 27  1  0  0  0
 28105  1  0  0  0
 28106  1  0  0  0
 29107  1  0  0  0
 29108  1  0  0  0
 33 34  1  0  0  0
 33 66  1  0  0  0
 33 70  2  0  0  0
 34 36  1  0  0  0
 34 59  1  0  0  0
 34109  1  0  0  0
 35 44  2  0  0  0
 35 45  1  0  0  0
 35 68  1  0  0  0
 36 56  1  0  0  0
 36110  1  0  0  0
 37 39  1  0  0  0
 37 47  1  0  0  0
 37 66  1  0  0  0
 37111  1  0  0  0
 38 43  2  0  0  0
 38 46  1  0  0  0
 38 47  1  0  0  0
 39 64  1  0  0  0
 39 67  2  0  0  0
 40 52  1  0  0  0
 40 53  2  0  0  0
 40 58  1  0  0  0
 41112  1  0  0  0
 41113  1  0  0  0
 41114  1  0  0  0
 41 48  1  0  0  0
 42 43  1  0  0  0
 42 66  1  0  0  0
 42115  1  0  0  0
 42116  1  0  0  0
 43 44  1  0  0  0
 44117  1  0  0  0
 45 46  2  0  0  0
 45118  1  0  0  0
 46119  1  0  0  0
 47120  1  0  0  0
 47121  1  0  0  0
 48 56  1  0  0  0
 48 65  1  0  0  0
 48122  1  0  0  0
 49 50  1  0  0  0
 49 53  1  0  0  0
 49 64  1  0  0  0
 49123  1  0  0  0
 50 51  1  0  0  0
 50124  1  0  0  0
 50125  1  0  0  0
 51 52  1  0  0  0
 51126  1  0  0  0
 51127  1  0  0  0
 52128  1  0  0  0
 52129  1  0  0  0
 53 54  1  0  0  0
 54 55  2  0  0  0
 54130  1  0  0  0
 55 57  1  0  0  0
 55131  1  0  0  0
 56 69  2  0  0  0
 57 58  2  0  0  0
 57132  1  0  0  0
 58133  1  0  0  0
 59 60  1  0  0  0
 59 61  1  0  0  0
 59 62  1  0  0  0
 60134  1  0  0  0
 60135  1  0  0  0
 60136  1  0  0  0
 61137  1  0  0  0
 61138  1  0  0  0
 61139  1  0  0  0
 62140  1  0  0  0
 62141  1  0  0  0
 62142  1  0  0  0
 63 65  1  0  0  0
 63143  1  0  0  0
 63144  1  0  0  0
 63145  1  0  0  0
 64146  1  0  0  0
 65147  1  0  0  0
 68 85  1  0  0  0
 71 73  2  0  0  0
 71 74  1  0  0  0
 71148  1  0  0  0
 72 75  2  0  0  0
 72 76  1  0  0  0
 72149  1  0  0  0
 73 75  1  0  0  0
 73 85  1  0  0  0
 74 76  2  0  0  0
 74 86  1  0  0  0
 75 82  1  0  0  0
 76 88  1  0  0  0
 77 79  1  0  0  0
 77 81  1  0  0  0
 77150  1  0  0  0
 77151  1  0  0  0
 78 80  1  0  0  0
 78 81  1  0  0  0
 78152  1  0  0  0
 78153  1  0  0  0
 79 87  1  0  0  0
 79154  1  0  0  0
 79155  1  0  0  0
 80 87  1  0  0  0
 80156  1  0  0  0
 80157  1  0  0  0
 81 88  1  0  0  0
 81158  1  0  0  0
 82159  1  0  0  0
 82160  1  0  0  0
 82161  1  0  0  0
 83162  1  0  0  0
 83163  1  0  0  0
 83164  1  0  0  0
 83 86  1  0  0  0
 84 86  1  0  0  0
 84165  1  0  0  0
 84166  1  0  0  0
 84167  1  0  0  0
 85168  1  0  0  0
 85169  1  0  0  0
 86170  1  0  0  0
M  ISO  4   1 100  68 101  85 101  87 100
M  END
> <chiral flag>
0

> <version>
0

> <s_m_source_file>
/data/baiqing/PycharmProjects/Reinvent-master-3.2/result/LINK_invent/BTK/process_docking_weight1_custom_sum_contain_oxygen_bond_distance_aromatic_linkinvent_7_9_3/rearranged_h_0159.sdf

> <i_m_source_file_index>
13

> <r_mmod_Potential_Energy-OPLS-2005>
333.539031982422

> <r_mmod_Stretch_Energy-OPLS-2005>
75.1363296508789

> <r_mmod_Bend_Energy-OPLS-2005>
181.101043701172

> <r_mmod_Torsional_Energy-OPLS-2005>
322.646728515625

> <r_mmod_Improper_Torsional_Energy-OPLS-2005>
4.7459659576416

> <r_mmod_Van_der_Waal_Energy-OPLS-2005>
173.182968139648

> <r_mmod_Electrostatic_Energy-OPLS-2005>
-280.512023925781

> <r_mmod_Solvation_Energy-OPLS-2005>
-196.93327331543

> <b_mmod_Minimization_Converged-OPLS-2005>
0

> <r_mmod_RMS_Derivative-OPLS-2005>
2.67386722564697

$$$$
13
                    3D
 Structure written by MMmdl.
172181  0  0  1  0            999 V2000
  -30.5513  -14.9438   20.4034 C   0  0  0  0  0  0
  -30.4448  -12.5520   19.4914 C   0  0  0  0  0  0
  -29.5285  -12.5124   18.2457 C   0  0  0  0  0  0
  -28.0553  -12.3071   18.6584 C   0  0  0  0  0  0
  -27.6237  -13.2420   19.8184 C   0  0  2  0  0  0
  -28.6554  -13.2761   20.9586 C   0  0  0  0  0  0
  -25.2473  -13.8152   20.5652 C   0  0  0  0  0  0
  -24.1767  -13.0416   20.9213 C   0  0  0  0  0  0
  -24.6364  -11.6896   20.8739 C   0  0  0  0  0  0
  -23.9027  -10.4286   21.0407 C   0  0  0  0  0  0
  -24.3583   -9.4212   21.9197 C   0  0  0  0  0  0
  -23.6288   -8.2223   22.0751 C   0  0  0  0  0  0
  -22.4271   -8.0262   21.3537 C   0  0  0  0  0  0
  -21.9894   -9.0231   20.4642 C   0  0  0  0  0  0
  -22.7202  -10.2122   20.3053 C   0  0  0  0  0  0
  -21.6858   -6.0754   22.5306 C   0  0  0  0  0  0
  -21.4010   -6.5666   23.8233 C   0  0  0  0  0  0
  -21.3653   -5.6817   24.9191 C   0  0  0  0  0  0
  -21.6035   -4.3079   24.7245 C   0  0  0  0  0  0
  -21.8815   -3.8170   23.4367 C   0  0  0  0  0  0
  -21.9177   -4.6984   22.3426 C   0  0  0  0  0  0
  -22.7807  -13.5237   21.1932 C   0  0  0  0  0  0
  -22.1652   -4.2161   21.1008 F   0  0  0  0  0  0
  -21.5612   -3.4568   25.7761 F   0  0  0  0  0  0
  -29.9489  -13.6363   20.3748 N   0  0  0  0  0  0
  -26.2844  -12.9364   20.3094 N   0  0  0  0  0  0
  -25.9275  -11.6512   20.5657 N   0  0  0  0  0  0
  -22.0439  -12.8200   22.0462 N   0  0  0  0  0  0
  -25.4273  -15.1857   20.4121 N   0  0  0  0  0  0
  -31.7626  -15.0666   20.2104 O   0  0  0  0  0  0
  -21.6630   -6.8871   21.4254 O   0  0  0  0  0  0
  -22.3519  -14.5577   20.6846 O   0  0  0  0  0  0
  -24.6420  -31.8465   23.1916 C   0  0  0  0  0  0
  -25.9210  -32.4706   23.8302 C   0  0  1  0  0  0
  -27.2247  -27.1437   20.1624 C   0  0  0  0  0  0
  -25.5964  -33.8507   24.2216 N   0  0  0  0  0  0
  -23.4458  -30.4650   21.5353 C   0  0  2  0  0  0
  -24.8982  -28.8916   20.1155 C   0  0  0  0  0  0
  -22.7575  -29.4556   22.4886 C   0  0  0  0  0  0
  -18.0310  -28.1407   22.8497 C   0  0  0  0  0  0
  -24.1491  -36.7238   23.2643 C   0  0  0  0  0  0
  -26.0017  -30.7249   21.3885 C   0  0  0  0  0  0
  -26.0758  -29.3352   20.7319 C   0  0  0  0  0  0
  -27.2377  -28.4778   20.7389 C   0  0  0  0  0  0
  -26.0184  -26.7951   19.5152 C   0  0  0  0  0  0
  -24.8838  -27.6338   19.4929 C   0  0  0  0  0  0
  -23.6737  -29.7921   20.1556 C   0  0  0  0  0  0
  -25.4127  -36.3026   24.0322 C   0  0  1  0  0  0
  -20.5925  -28.3721   23.1261 C   0  0  2  0  0  0
  -20.6800  -26.9426   22.5418 C   0  0  0  0  0  0
  -19.5758  -26.6382   21.5241 C   0  0  0  0  0  0
  -18.1933  -26.7954   22.1632 C   0  0  0  0  0  0
  -19.1567  -28.8884   23.2864 C   0  0  0  0  0  0
  -18.9472  -30.1493   23.8863 C   0  0  0  0  0  0
  -17.6461  -30.6597   24.0557 C   0  0  0  0  0  0
  -25.9077  -34.9404   23.5070 C   0  0  0  0  0  0
  -16.5356  -29.9075   23.6352 C   0  0  0  0  0  0
  -16.7289  -28.6505   23.0360 C   0  0  0  0  0  0
  -26.4537  -31.6576   25.0740 C   0  0  0  0  0  0
  -25.3715  -31.3761   26.1429 C   0  0  0  0  0  0
  -27.0424  -30.2975   24.6337 C   0  0  0  0  0  0
  -27.6062  -32.4354   25.7510 C   0  0  0  0  0  0
  -27.5581  -37.1773   24.8464 C   0  0  0  0  0  0
  -21.4269  -29.3038   22.3629 N   0  0  0  0  0  0
  -26.4285  -37.3747   23.9417 N   0  0  0  0  0  0
  -24.7161  -31.0343   22.0926 N   0  0  0  0  0  0
  -23.4234  -28.8108   23.3027 O   0  0  0  0  0  0
  -28.2825  -26.1671   20.2367 O   0  0  0  0  0  0
  -26.5640  -34.8900   22.4636 O   0  0  0  0  0  0
  -23.5541  -32.1310   23.7151 O   0  0  0  0  0  0
  -33.4231  -19.2243   18.6325 C   0  0  0  0  0  0
  -33.5652  -19.6530   21.0201 C   0  0  0  0  0  0
  -34.1934  -19.5303   19.7703 C   0  0  0  0  0  0
  -32.0264  -19.0541   18.7295 C   0  0  0  0  0  0
  -31.3806  -19.2172   19.9880 C   0  0  0  0  0  0
  -32.1656  -19.4902   21.1429 C   0  0  0  0  0  0
  -30.5156  -23.7384   19.9449 C   0  0  0  0  0  0
  -30.7548  -22.2560   19.7793 C   0  0  0  0  0  0
  -29.1406  -23.4412   20.5264 C   0  0  1  0  0  0
  -35.6950  -19.7233   19.6564 C   0  0  0  0  0  0
  -31.2615  -18.6679   17.4707 C   0  0  0  0  0  0
  -32.2638  -19.7864   23.5362 C   0  0  0  0  0  0
  -28.0521  -24.6315   20.0599 C   0  0  0  0  0  0
  -29.1544  -20.5500   20.6724 C   0  0  0  0  0  0
  -29.6869  -17.5786   20.9469 C   0  0  0  0  0  0
  -29.8578  -19.0662   20.1576 C   0  0  2  0  0  0
  -29.3265  -21.9568   19.9332 N   0  3  2  0  0  0
  -31.5053  -19.6074   22.3473 O   0  0  0  0  0  0
  -29.5811  -16.1208   20.4310 O   0  0  0  0  0  0
  -31.4827  -12.7166   19.1950 H   0  0  0  0  0  0
  -30.4204  -11.5938   20.0119 H   0  0  0  0  0  0
  -29.8405  -11.7111   17.5758 H   0  0  0  0  0  0
  -29.6263  -13.4396   17.6785 H   0  0  0  0  0  0
  -27.9434  -11.2671   18.9655 H   0  0  0  0  0  0
  -27.3957  -12.4446   17.8007 H   0  0  0  0  0  0
  -27.5871  -14.2416   19.3869 H   0  0  0  0  0  0
  -28.7211  -12.3079   21.4582 H   0  0  0  0  0  0
  -28.3673  -14.0049   21.7190 H   0  0  0  0  0  0
  -25.2700   -9.5706   22.4793 H   0  0  0  0  0  0
  -24.0027   -7.4602   22.7451 H   0  0  0  0  0  0
  -21.0823   -8.8705   19.8949 H   0  0  0  0  0  0
  -22.3624  -10.9651   19.6156 H   0  0  0  0  0  0
  -21.2018   -7.6178   23.9738 H   0  0  0  0  0  0
  -21.1466   -6.0553   25.9090 H   0  0  0  0  0  0
  -22.0596   -2.7636   23.2860 H   0  0  0  0  0  0
  -22.4060  -11.9856   22.4829 H   0  0  0  0  0  0
  -21.1035  -13.1190   22.2666 H   0  0  0  0  0  0
  -24.6798  -15.8563   20.5481 H   0  0  0  0  0  0
  -26.2991  -15.6137   20.1237 H   0  0  0  0  0  0
  -26.7282  -32.5329   23.1046 H   0  0  0  0  0  0
  -25.0160  -33.9632   25.0393 H   0  0  0  0  0  0
  -22.7445  -31.2877   21.3808 H   0  0  0  0  0  0
  -23.3777  -35.9542   23.3274 H   0  0  0  0  0  0
  -24.3577  -36.8895   22.2061 H   0  0  0  0  0  0
  -23.7210  -37.6413   23.6695 H   0  0  0  0  0  0
  -26.1575  -31.4813   20.6177 H   0  0  0  0  0  0
  -26.8710  -30.7771   22.0328 H   0  0  0  0  0  0
  -28.1304  -28.8162   21.2478 H   0  0  0  0  0  0
  -25.9223  -25.8266   19.0472 H   0  0  0  0  0  0
  -23.9839  -27.2855   19.0044 H   0  0  0  0  0  0
  -23.8065  -30.5647   19.3972 H   0  0  0  0  0  0
  -22.7900  -29.2301   19.8487 H   0  0  0  0  0  0
  -25.1311  -36.1855   25.0813 H   0  0  0  0  0  0
  -21.0012  -28.3302   24.1387 H   0  0  0  0  0  0
  -20.5742  -26.2314   23.3630 H   0  0  0  0  0  0
  -21.6653  -26.7463   22.1170 H   0  0  0  0  0  0
  -19.6908  -25.6285   21.1280 H   0  0  0  0  0  0
  -19.6703  -27.3187   20.6770 H   0  0  0  0  0  0
  -17.4222  -26.6755   21.4007 H   0  0  0  0  0  0
  -18.0275  -26.0095   22.9013 H   0  0  0  0  0  0
  -19.7934  -30.7344   24.2194 H   0  0  0  0  0  0
  -17.4994  -31.6274   24.5155 H   0  0  0  0  0  0
  -15.5345  -30.2942   23.7711 H   0  0  0  0  0  0
  -15.8699  -28.0809   22.7078 H   0  0  0  0  0  0
  -24.5881  -30.7136   25.7741 H   0  0  0  0  0  0
  -24.8919  -32.2939   26.4838 H   0  0  0  0  0  0
  -25.7981  -30.8928   27.0225 H   0  0  0  0  0  0
  -26.3069  -29.6674   24.1329 H   0  0  0  0  0  0
  -27.4021  -29.7307   25.4937 H   0  0  0  0  0  0
  -27.8975  -30.4226   23.9689 H   0  0  0  0  0  0
  -27.2661  -33.3670   26.2054 H   0  0  0  0  0  0
  -28.3886  -32.6904   25.0345 H   0  0  0  0  0  0
  -28.0734  -31.8513   26.5452 H   0  0  0  0  0  0
  -28.2577  -38.0094   24.7538 H   0  0  0  0  0  0
  -28.1098  -36.2618   24.6257 H   0  0  0  0  0  0
  -27.2294  -37.1378   25.8866 H   0  0  0  0  0  0
  -20.9485  -29.8710   21.6769 H   0  0  0  0  0  0
  -26.0148  -38.2811   24.1432 H   0  0  0  0  0  0
  -33.9162  -19.1100   17.6760 H   0  0  0  0  0  0
  -34.1803  -19.8788   21.8802 H   0  0  0  0  0  0
  -30.4718  -24.2589   18.9866 H   0  0  0  0  0  0
  -31.1966  -24.2360   20.6363 H   0  0  0  0  0  0
  -31.3667  -21.9012   20.6072 H   0  0  0  0  0  0
  -31.1694  -21.9633   18.8135 H   0  0  0  0  0  0
  -29.2098  -23.3705   21.6130 H   0  0  0  0  0  0
  -36.2265  -18.9936   20.2678 H   0  0  0  0  0  0
  -35.9830  -20.7209   19.9924 H   0  0  0  0  0  0
  -36.0390  -19.6129   18.6270 H   0  0  0  0  0  0
  -31.9283  -18.5211   16.6183 H   0  0  0  0  0  0
  -30.5401  -19.4366   17.1931 H   0  0  0  0  0  0
  -30.7297  -17.7293   17.6225 H   0  0  0  0  0  0
  -31.5906  -19.7634   24.3940 H   0  0  0  0  0  0
  -32.7651  -20.7534   23.5399 H   0  0  0  0  0  0
  -32.9981  -18.9913   23.6742 H   0  0  0  0  0  0
  -27.1072  -24.4121   20.5592 H   0  0  0  0  0  0
  -27.8386  -24.4806   19.0016 H   0  0  0  0  0  0
  -29.4288  -20.7238   21.7114 H   0  0  0  0  0  0
  -28.0772  -20.3869   20.7104 H   0  0  0  0  0  0
  -28.7347  -17.6839   21.4638 H   0  0  0  0  0  0
  -30.4090  -17.5363   21.7610 H   0  0  0  0  0  0
  -29.4008  -18.9005   19.1859 H   0  0  0  0  0  0
  -28.9125  -21.9156   19.0143 H   0  0  0  0  0  0
  1 25  1  0  0  0
  1 30  2  0  0  0
  1 89  1  0  0  0
  2  3  1  0  0  0
  2 25  1  0  0  0
  2 90  1  0  0  0
  2 91  1  0  0  0
  3  4  1  0  0  0
  3 92  1  0  0  0
  3 93  1  0  0  0
  4  5  1  0  0  0
  4 94  1  0  0  0
  4 95  1  0  0  0
  5  6  1  0  0  0
  5 26  1  0  0  0
  5 96  1  0  0  0
  6 25  1  0  0  0
  6 97  1  0  0  0
  6 98  1  0  0  0
  7  8  2  0  0  0
  7 26  1  0  0  0
  7 29  1  0  0  0
  8  9  1  0  0  0
  8 22  1  0  0  0
  9 10  1  0  0  0
  9 27  2  0  0  0
 10 11  2  0  0  0
 10 15  1  0  0  0
 11 12  1  0  0  0
 11 99  1  0  0  0
 12 13  2  0  0  0
 12100  1  0  0  0
 13 14  1  0  0  0
 13 31  1  0  0  0
 14 15  2  0  0  0
 14101  1  0  0  0
 15102  1  0  0  0
 16 17  2  0  0  0
 16 21  1  0  0  0
 16 31  1  0  0  0
 17 18  1  0  0  0
 17103  1  0  0  0
 18 19  2  0  0  0
 18104  1  0  0  0
 19 20  1  0  0  0
 19 24  1  0  0  0
 20 21  2  0  0  0
 20105  1  0  0  0
 21 23  1  0  0  0
 22 28  1  0  0  0
 22 32  2  0  0  0
 26 27  1  0  0  0
 28106  1  0  0  0
 28107  1  0  0  0
 29108  1  0  0  0
 29109  1  0  0  0
 33 34  1  0  0  0
 33 66  1  0  0  0
 33 70  2  0  0  0
 34 36  1  0  0  0
 34 59  1  0  0  0
 34110  1  0  0  0
 35 44  2  0  0  0
 35 45  1  0  0  0
 35 68  1  0  0  0
 36 56  1  0  0  0
 36111  1  0  0  0
 37 39  1  0  0  0
 37 47  1  0  0  0
 37 66  1  0  0  0
 37112  1  0  0  0
 38 43  2  0  0  0
 38 46  1  0  0  0
 38 47  1  0  0  0
 39 64  1  0  0  0
 39 67  2  0  0  0
 40 52  1  0  0  0
 40 53  2  0  0  0
 40 58  1  0  0  0
 41113  1  0  0  0
 41114  1  0  0  0
 41115  1  0  0  0
 41 48  1  0  0  0
 42 43  1  0  0  0
 42 66  1  0  0  0
 42116  1  0  0  0
 42117  1  0  0  0
 43 44  1  0  0  0
 44118  1  0  0  0
 45 46  2  0  0  0
 45119  1  0  0  0
 46120  1  0  0  0
 47121  1  0  0  0
 47122  1  0  0  0
 48 56  1  0  0  0
 48 65  1  0  0  0
 48123  1  0  0  0
 49 50  1  0  0  0
 49 53  1  0  0  0
 49 64  1  0  0  0
 49124  1  0  0  0
 50 51  1  0  0  0
 50125  1  0  0  0
 50126  1  0  0  0
 51 52  1  0  0  0
 51127  1  0  0  0
 51128  1  0  0  0
 52129  1  0  0  0
 52130  1  0  0  0
 53 54  1  0  0  0
 54 55  2  0  0  0
 54131  1  0  0  0
 55 57  1  0  0  0
 55132  1  0  0  0
 56 69  2  0  0  0
 57 58  2  0  0  0
 57133  1  0  0  0
 58134  1  0  0  0
 59 60  1  0  0  0
 59 61  1  0  0  0
 59 62  1  0  0  0
 60135  1  0  0  0
 60136  1  0  0  0
 60137  1  0  0  0
 61138  1  0  0  0
 61139  1  0  0  0
 61140  1  0  0  0
 62141  1  0  0  0
 62142  1  0  0  0
 62143  1  0  0  0
 63 65  1  0  0  0
 63144  1  0  0  0
 63145  1  0  0  0
 63146  1  0  0  0
 64147  1  0  0  0
 65148  1  0  0  0
 68 83  1  0  0  0
 71 73  2  0  0  0
 71 74  1  0  0  0
 71149  1  0  0  0
 72 73  1  0  0  0
 72 76  2  0  0  0
 72150  1  0  0  0
 73 80  1  0  0  0
 74 75  2  0  0  0
 74 81  1  0  0  0
 75 76  1  0  0  0
 75 86  1  0  0  0
 76 88  1  0  0  0
 77 78  1  0  0  0
 77 79  1  0  0  0
 77151  1  0  0  0
 77152  1  0  0  0
 78 87  1  0  0  0
 78153  1  0  0  0
 78154  1  0  0  0
 79 83  1  0  0  0
 79 87  1  0  0  0
 79155  1  0  0  0
 80156  1  0  0  0
 80157  1  0  0  0
 80158  1  0  0  0
 81159  1  0  0  0
 81160  1  0  0  0
 81161  1  0  0  0
 82 88  1  0  0  0
 82162  1  0  0  0
 82163  1  0  0  0
 82164  1  0  0  0
 83165  1  0  0  0
 83166  1  0  0  0
 84167  1  0  0  0
 84168  1  0  0  0
 84 86  1  0  0  0
 84 87  1  0  0  0
 85 86  1  0  0  0
 85 89  1  0  0  0
 85169  1  0  0  0
 85170  1  0  0  0
 86171  1  0  0  0
 87172  1  0  0  0
M  CHG  1  87   1
M  ISO  4   1 100  68 101  83 101  89 100
M  END
> <chiral flag>
0

> <version>
0

> <s_m_source_file>
/data/baiqing/PycharmProjects/Reinvent-master-3.2/result/LINK_invent/BTK/process_docking_weight1_custom_sum_contain_oxygen_bond_distance_aromatic_linkinvent_7_9_3/rearranged_h_0159.sdf

> <i_m_source_file_index>
14

> <r_mmod_Potential_Energy-OPLS-2005>
436.465148925781

> <r_mmod_Stretch_Energy-OPLS-2005>
316.308197021484

> <r_mmod_Bend_Energy-OPLS-2005>
333.084991455078

> <r_mmod_Torsional_Energy-OPLS-2005>
235.231491088867

> <r_mmod_Improper_Torsional_Energy-OPLS-2005>
4.85503005981445

> <r_mmod_Van_der_Waal_Energy-OPLS-2005>
133.618194580078

> <r_mmod_Electrostatic_Energy-OPLS-2005>
-336.276275634766

> <r_mmod_Solvation_Energy-OPLS-2005>
-438.467620849609

> <b_mmod_Minimization_Converged-OPLS-2005>
0

> <r_mmod_RMS_Derivative-OPLS-2005>
3.65800380706787

$$$$
14
                    3D
 Structure written by MMmdl.
176186  0  0  1  0            999 V2000
  -30.6995  -14.5732   20.6077 C   0  0  0  0  0  0
  -30.4312  -12.3868   19.4563 C   0  0  0  0  0  0
  -29.5125  -12.5322   18.2264 C   0  0  0  0  0  0
  -28.0326  -12.3683   18.6294 C   0  0  0  0  0  0
  -27.6530  -13.2284   19.8660 C   0  0  2  0  0  0
  -28.6922  -13.0778   20.9998 C   0  0  0  0  0  0
  -25.2524  -13.8191   20.5615 C   0  0  0  0  0  0
  -24.1819  -13.0443   20.9176 C   0  0  0  0  0  0
  -24.6416  -11.6933   20.8728 C   0  0  0  0  0  0
  -23.9064  -10.4314   21.0433 C   0  0  0  0  0  0
  -24.3644   -9.4243   21.9214 C   0  0  0  0  0  0
  -23.6342   -8.2257   22.0776 C   0  0  0  0  0  0
  -22.4322   -8.0284   21.3547 C   0  0  0  0  0  0
  -21.9948   -9.0269   20.4648 C   0  0  0  0  0  0
  -22.7249  -10.2151   20.3069 C   0  0  0  0  0  0
  -21.6878   -6.0743   22.5303 C   0  0  0  0  0  0
  -21.3993   -6.5648   23.8235 C   0  0  0  0  0  0
  -21.3671   -5.6784   24.9194 C   0  0  0  0  0  0
  -21.6059   -4.3055   24.7228 C   0  0  0  0  0  0
  -21.8826   -3.8157   23.4352 C   0  0  0  0  0  0
  -21.9193   -4.6961   22.3410 C   0  0  0  0  0  0
  -22.7825  -13.5237   21.1829 C   0  0  0  0  0  0
  -22.1674   -4.2173   21.0959 F   0  0  0  0  0  0
  -21.5666   -3.4526   25.7729 F   0  0  0  0  0  0
  -30.0186  -13.3964   20.4533 N   0  0  0  0  0  0
  -26.2982  -12.9416   20.3276 N   0  0  0  0  0  0
  -25.9343  -11.6550   20.5740 N   0  0  0  0  0  0
  -22.0427  -12.8300   22.0387 N   0  0  0  0  0  0
  -25.4152  -15.1911   20.3923 N   0  0  0  0  0  0
  -31.8133  -14.7291   20.0875 O   0  0  0  0  0  0
  -21.6685   -6.8889   21.4268 O   0  0  0  0  0  0
  -22.3520  -14.5541   20.6645 O   0  0  0  0  0  0
  -24.6182  -31.8613   23.1991 C   0  0  0  0  0  0
  -25.9054  -32.4774   23.8348 C   0  0  1  0  0  0
  -27.2471  -27.3823   20.1431 C   0  0  0  0  0  0
  -25.5899  -33.8586   24.2262 N   0  0  0  0  0  0
  -23.4081  -30.4814   21.5351 C   0  0  2  0  0  0
  -24.8637  -28.9278   20.1159 C   0  0  0  0  0  0
  -22.7400  -29.4647   22.4906 C   0  0  0  0  0  0
  -18.0280  -28.1366   22.8473 C   0  0  0  0  0  0
  -24.1479  -36.7301   23.2642 C   0  0  0  0  0  0
  -25.9387  -30.8158   21.3539 C   0  0  0  0  0  0
  -26.0222  -29.4413   20.7134 C   0  0  0  0  0  0
  -27.2177  -28.6820   20.7110 C   0  0  0  0  0  0
  -26.0757  -26.8938   19.5297 C   0  0  0  0  0  0
  -24.8890  -27.6568   19.5142 C   0  0  0  0  0  0
  -23.6218  -29.7940   20.1579 C   0  0  0  0  0  0
  -25.4111  -36.3095   24.0325 C   0  0  1  0  0  0
  -20.5855  -28.3653   23.1268 C   0  0  2  0  0  0
  -20.6743  -26.9387   22.5368 C   0  0  0  0  0  0
  -19.5723  -26.6378   21.5163 C   0  0  0  0  0  0
  -18.1909  -26.7910   22.1582 C   0  0  0  0  0  0
  -19.1520  -28.8827   23.2877 C   0  0  0  0  0  0
  -18.9459  -30.1415   23.8889 C   0  0  0  0  0  0
  -17.6483  -30.6570   24.0547 C   0  0  0  0  0  0
  -25.9043  -34.9454   23.5101 C   0  0  0  0  0  0
  -16.5370  -29.9075   23.6343 C   0  0  0  0  0  0
  -16.7266  -28.6479   23.0376 C   0  0  0  0  0  0
  -26.4462  -31.6591   25.0715 C   0  0  0  0  0  0
  -25.3738  -31.3723   26.1475 C   0  0  0  0  0  0
  -27.0300  -30.3029   24.6115 C   0  0  0  0  0  0
  -27.6024  -32.4322   25.7477 C   0  0  0  0  0  0
  -27.5580  -37.1811   24.8480 C   0  0  0  0  0  0
  -21.4117  -29.3050   22.3678 N   0  0  0  0  0  0
  -26.4290  -37.3779   23.9431 N   0  0  0  0  0  0
  -24.6739  -31.0715   22.0854 N   0  0  0  0  0  0
  -23.4147  -28.8179   23.2948 O   0  0  0  0  0  0
  -28.3998  -26.6081   20.1343 O   0  0  0  0  0  0
  -26.5606  -34.8924   22.4664 O   0  0  0  0  0  0
  -23.5381  -32.1365   23.7372 O   0  0  0  0  0  0
  -30.8686  -20.4104   18.2698 C   0  0  0  0  0  0
  -30.5827  -21.5522   19.2807 C   0  0  0  0  0  0
  -28.7574  -19.2511   18.9138 C   0  0  0  0  0  0
  -31.0135  -18.4407   19.9152 C   0  0  0  0  0  0
  -29.2217  -19.3917   21.3692 C   0  0  0  0  0  0
  -30.8793  -17.6930   22.3517 C   0  0  0  0  0  0
  -29.3481  -16.7034   20.8188 C   0  0  0  0  0  0
  -30.2726  -19.0455   18.6854 C   0  0  2  0  0  0
  -28.5806  -20.1530   20.1428 C   0  0  1  0  0  0
  -29.0970  -21.5974   19.7207 C   0  0  1  0  0  0
  -30.9299  -16.1506   22.4707 C   0  0  1  0  0  0
  -30.0778  -18.0754   21.0932 C   0  0  2  0  0  0
  -30.4109  -15.6480   23.8303 C   0  0  0  0  0  0
  -29.2779  -25.5819   22.1163 C   0  0  0  0  0  0
  -28.8924  -24.1382   20.0146 C   0  0  0  0  0  0
  -28.3908  -25.3514   20.8807 C   0  0  2  0  0  0
  -30.1407  -15.5673   21.3748 N   0  0  0  0  0  0
  -28.7661  -22.7568   20.6286 N   0  3  0  0  0  0
  -31.4746  -12.5009   19.1519 H   0  0  0  0  0  0
  -30.3547  -11.3865   19.8840 H   0  0  0  0  0  0
  -29.7821  -11.7971   17.4659 H   0  0  0  0  0  0
  -29.6671  -13.5147   17.7732 H   0  0  0  0  0  0
  -27.8605  -11.3143   18.8477 H   0  0  0  0  0  0
  -27.3890  -12.6148   17.7832 H   0  0  0  0  0  0
  -27.6794  -14.2667   19.5390 H   0  0  0  0  0  0
  -28.6899  -12.0601   21.3878 H   0  0  0  0  0  0
  -28.4287  -13.7212   21.8417 H   0  0  0  0  0  0
  -25.2780   -9.5764   22.4775 H   0  0  0  0  0  0
  -24.0077   -7.4662   22.7511 H   0  0  0  0  0  0
  -21.0879   -8.8742   19.8971 H   0  0  0  0  0  0
  -22.3684  -10.9686   19.6176 H   0  0  0  0  0  0
  -21.1948   -7.6153   23.9737 H   0  0  0  0  0  0
  -21.1524   -6.0510   25.9083 H   0  0  0  0  0  0
  -22.0601   -2.7631   23.2823 H   0  0  0  0  0  0
  -22.3991  -11.9988   22.4868 H   0  0  0  0  0  0
  -21.1044  -13.1397   22.2535 H   0  0  0  0  0  0
  -24.6317  -15.8276   20.4744 H   0  0  0  0  0  0
  -26.2463  -15.6329   20.0215 H   0  0  0  0  0  0
  -26.7113  -32.5446   23.1103 H   0  0  0  0  0  0
  -25.0199  -33.9758   25.0502 H   0  0  0  0  0  0
  -22.7046  -31.3006   21.3795 H   0  0  0  0  0  0
  -23.3748  -35.9624   23.3319 H   0  0  0  0  0  0
  -24.3597  -36.8907   22.2060 H   0  0  0  0  0  0
  -23.7204  -37.6513   23.6641 H   0  0  0  0  0  0
  -26.0633  -31.5684   20.5762 H   0  0  0  0  0  0
  -26.8263  -30.8752   21.9726 H   0  0  0  0  0  0
  -28.1147  -29.0809   21.1690 H   0  0  0  0  0  0
  -26.0872  -25.9218   19.0596 H   0  0  0  0  0  0
  -24.0056  -27.2557   19.0375 H   0  0  0  0  0  0
  -23.7205  -30.5548   19.3831 H   0  0  0  0  0  0
  -22.7488  -29.2054   19.8718 H   0  0  0  0  0  0
  -25.1276  -36.1966   25.0810 H   0  0  0  0  0  0
  -20.9983  -28.3220   24.1362 H   0  0  0  0  0  0
  -20.5597  -26.2261   23.3554 H   0  0  0  0  0  0
  -21.6626  -26.7379   22.1183 H   0  0  0  0  0  0
  -19.6887  -25.6296   21.1172 H   0  0  0  0  0  0
  -19.6664  -27.3191   20.6696 H   0  0  0  0  0  0
  -17.4183  -26.6660   21.3995 H   0  0  0  0  0  0
  -18.0320  -26.0045   22.8956 H   0  0  0  0  0  0
  -19.7960  -30.7209   24.2254 H   0  0  0  0  0  0
  -17.5057  -31.6245   24.5166 H   0  0  0  0  0  0
  -15.5368  -30.2983   23.7681 H   0  0  0  0  0  0
  -15.8641  -28.0788   22.7140 H   0  0  0  0  0  0
  -24.5893  -30.7036   25.7886 H   0  0  0  0  0  0
  -24.8953  -32.2900   26.4940 H   0  0  0  0  0  0
  -25.8150  -30.8941   27.0229 H   0  0  0  0  0  0
  -26.2835  -29.6743   24.1224 H   0  0  0  0  0  0
  -27.4137  -29.7306   25.4587 H   0  0  0  0  0  0
  -27.8634  -30.4375   23.9198 H   0  0  0  0  0  0
  -27.2655  -33.3643   26.2017 H   0  0  0  0  0  0
  -28.3889  -32.6827   25.0348 H   0  0  0  0  0  0
  -28.0596  -31.8441   26.5456 H   0  0  0  0  0  0
  -28.2602  -38.0103   24.7566 H   0  0  0  0  0  0
  -28.1056  -36.2653   24.6240 H   0  0  0  0  0  0
  -27.2318  -37.1402   25.8881 H   0  0  0  0  0  0
  -20.9248  -29.8875   21.7005 H   0  0  0  0  0  0
  -26.0176  -38.2853   24.1430 H   0  0  0  0  0  0
  -31.9428  -20.3231   18.1024 H   0  0  0  0  0  0
  -30.4519  -20.6878   17.3009 H   0  0  0  0  0  0
  -30.8641  -22.4853   18.7923 H   0  0  0  0  0  0
  -31.2308  -21.4683   20.1545 H   0  0  0  0  0  0
  -28.2154  -18.3183   19.0509 H   0  0  0  0  0  0
  -28.3037  -19.6978   18.0296 H   0  0  0  0  0  0
  -31.7425  -19.1700   20.2739 H   0  0  0  0  0  0
  -31.6192  -17.5832   19.6141 H   0  0  0  0  0  0
  -28.4369  -19.1553   22.0893 H   0  0  0  0  0  0
  -29.8574  -20.1070   21.8895 H   0  0  0  0  0  0
  -31.8896  -18.0972   22.3245 H   0  0  0  0  0  0
  -30.4263  -18.1221   23.2470 H   0  0  0  0  0  0
  -29.1488  -16.5333   19.7616 H   0  0  0  0  0  0
  -28.3758  -16.6977   21.3149 H   0  0  0  0  0  0
  -30.3916  -18.3446   17.8589 H   0  0  0  0  0  0
  -27.5097  -20.2415   20.3316 H   0  0  0  0  0  0
  -28.5265  -21.8300   18.8203 H   0  0  0  0  0  0
  -31.9745  -15.8400   22.3929 H   0  0  0  0  0  0
  -29.3998  -16.0131   24.0326 H   0  0  0  0  0  0
  -31.0575  -15.9737   24.6471 H   0  0  0  0  0  0
  -30.3747  -14.5584   23.8625 H   0  0  0  0  0  0
  -29.3560  -24.6823   22.7293 H   0  0  0  0  0  0
  -28.8791  -26.3747   22.7545 H   0  0  0  0  0  0
  -30.2931  -25.8680   21.8342 H   0  0  0  0  0  0
  -29.9353  -24.3108   19.7467 H   0  0  0  0  0  0
  -28.3295  -24.1480   19.0810 H   0  0  0  0  0  0
  -27.3802  -25.1343   21.2318 H   0  0  0  0  0  0
  -29.3369  -22.7021   21.4551 H   0  0  0  0  0  0
  -27.8086  -22.6439   20.9240 H   0  0  0  0  0  0
  1 25  1  0  0  0
  1 30  2  0  0  0
  1 87  1  0  0  0
  2  3  1  0  0  0
  2 25  1  0  0  0
  2 89  1  0  0  0
  2 90  1  0  0  0
  3  4  1  0  0  0
  3 91  1  0  0  0
  3 92  1  0  0  0
  4  5  1  0  0  0
  4 93  1  0  0  0
  4 94  1  0  0  0
  5  6  1  0  0  0
  5 26  1  0  0  0
  5 95  1  0  0  0
  6 25  1  0  0  0
  6 96  1  0  0  0
  6 97  1  0  0  0
  7  8  2  0  0  0
  7 26  1  0  0  0
  7 29  1  0  0  0
  8  9  1  0  0  0
  8 22  1  0  0  0
  9 10  1  0  0  0
  9 27  2  0  0  0
 10 11  2  0  0  0
 10 15  1  0  0  0
 11 12  1  0  0  0
 11 98  1  0  0  0
 12 13  2  0  0  0
 12 99  1  0  0  0
 13 14  1  0  0  0
 13 31  1  0  0  0
 14 15  2  0  0  0
 14100  1  0  0  0
 15101  1  0  0  0
 16 17  2  0  0  0
 16 21  1  0  0  0
 16 31  1  0  0  0
 17 18  1  0  0  0
 17102  1  0  0  0
 18 19  2  0  0  0
 18103  1  0  0  0
 19 20  1  0  0  0
 19 24  1  0  0  0
 20 21  2  0  0  0
 20104  1  0  0  0
 21 23  1  0  0  0
 22 28  1  0  0  0
 22 32  2  0  0  0
 26 27  1  0  0  0
 28105  1  0  0  0
 28106  1  0  0  0
 29107  1  0  0  0
 29108  1  0  0  0
 33 34  1  0  0  0
 33 66  1  0  0  0
 33 70  2  0  0  0
 34 36  1  0  0  0
 34 59  1  0  0  0
 34109  1  0  0  0
 35 44  2  0  0  0
 35 45  1  0  0  0
 35 68  1  0  0  0
 36 56  1  0  0  0
 36110  1  0  0  0
 37 39  1  0  0  0
 37 47  1  0  0  0
 37 66  1  0  0  0
 37111  1  0  0  0
 38 43  2  0  0  0
 38 46  1  0  0  0
 38 47  1  0  0  0
 39 64  1  0  0  0
 39 67  2  0  0  0
 40 52  1  0  0  0
 40 53  2  0  0  0
 40 58  1  0  0  0
 41112  1  0  0  0
 41113  1  0  0  0
 41114  1  0  0  0
 41 48  1  0  0  0
 42 43  1  0  0  0
 42 66  1  0  0  0
 42115  1  0  0  0
 42116  1  0  0  0
 43 44  1  0  0  0
 44117  1  0  0  0
 45 46  2  0  0  0
 45118  1  0  0  0
 46119  1  0  0  0
 47120  1  0  0  0
 47121  1  0  0  0
 48 56  1  0  0  0
 48 65  1  0  0  0
 48122  1  0  0  0
 49 50  1  0  0  0
 49 53  1  0  0  0
 49 64  1  0  0  0
 49123  1  0  0  0
 50 51  1  0  0  0
 50124  1  0  0  0
 50125  1  0  0  0
 51 52  1  0  0  0
 51126  1  0  0  0
 51127  1  0  0  0
 52128  1  0  0  0
 52129  1  0  0  0
 53 54  1  0  0  0
 54 55  2  0  0  0
 54130  1  0  0  0
 55 57  1  0  0  0
 55131  1  0  0  0
 56 69  2  0  0  0
 57 58  2  0  0  0
 57132  1  0  0  0
 58133  1  0  0  0
 59 60  1  0  0  0
 59 61  1  0  0  0
 59 62  1  0  0  0
 60134  1  0  0  0
 60135  1  0  0  0
 60136  1  0  0  0
 61137  1  0  0  0
 61138  1  0  0  0
 61139  1  0  0  0
 62140  1  0  0  0
 62141  1  0  0  0
 62142  1  0  0  0
 63 65  1  0  0  0
 63143  1  0  0  0
 63144  1  0  0  0
 63145  1  0  0  0
 64146  1  0  0  0
 65147  1  0  0  0
 68 86  1  0  0  0
 71 72  1  0  0  0
 71148  1  0  0  0
 71149  1  0  0  0
 71 78  1  0  0  0
 72 80  1  0  0  0
 72150  1  0  0  0
 72151  1  0  0  0
 73 78  1  0  0  0
 73 79  1  0  0  0
 73152  1  0  0  0
 73153  1  0  0  0
 74 78  1  0  0  0
 74154  1  0  0  0
 74155  1  0  0  0
 74 82  1  0  0  0
 75 82  1  0  0  0
 75156  1  0  0  0
 75157  1  0  0  0
 75 79  1  0  0  0
 76 81  1  0  0  0
 76 82  1  0  0  0
 76158  1  0  0  0
 76159  1  0  0  0
 77 82  1  0  0  0
 77 87  1  0  0  0
 77160  1  0  0  0
 77161  1  0  0  0
 78162  1  0  0  0
 79 80  1  0  0  0
 79163  1  0  0  0
 80 88  1  0  0  0
 80164  1  0  0  0
 81 83  1  0  0  0
 81 87  1  0  0  0
 81165  1  0  0  0
 83166  1  0  0  0
 83167  1  0  0  0
 83168  1  0  0  0
 84169  1  0  0  0
 84170  1  0  0  0
 84171  1  0  0  0
 84 86  1  0  0  0
 85 86  1  0  0  0
 85 88  1  0  0  0
 85172  1  0  0  0
 85173  1  0  0  0
 86174  1  0  0  0
 88175  1  0  0  0
 88176  1  0  0  0
M  CHG  1  88   1
M  ISO  4   1 100  68 101  86 101  87 100
M  END
> <chiral flag>
0

> <version>
0

> <s_m_source_file>
/data/baiqing/PycharmProjects/Reinvent-master-3.2/result/LINK_invent/BTK/process_docking_weight1_custom_sum_contain_oxygen_bond_distance_aromatic_linkinvent_7_9_3/rearranged_h_0159.sdf

> <i_m_source_file_index>
15

> <r_mmod_Potential_Energy-OPLS-2005>
257.289367675781

> <r_mmod_Stretch_Energy-OPLS-2005>
69.8932571411133

> <r_mmod_Bend_Energy-OPLS-2005>
167.988861083984

> <r_mmod_Torsional_Energy-OPLS-2005>
472.395965576172

> <r_mmod_Improper_Torsional_Energy-OPLS-2005>
5.90571641921997

> <r_mmod_Van_der_Waal_Energy-OPLS-2005>
129.583953857422

> <r_mmod_Electrostatic_Energy-OPLS-2005>
-203.784881591797

> <r_mmod_Solvation_Energy-OPLS-2005>
-411.553405761719

> <b_mmod_Minimization_Converged-OPLS-2005>
0

> <r_mmod_RMS_Derivative-OPLS-2005>
5.81585741043091

$$$$
15
                    3D
 Structure written by MMmdl.
154163  0  0  1  0            999 V2000
  -30.4726  -15.2004   20.3776 C   0  0  0  0  0  0
  -30.4369  -12.7605   19.5298 C   0  0  0  0  0  0
  -29.5358  -12.5703   18.2851 C   0  0  0  0  0  0
  -28.0793  -12.3082   18.7064 C   0  0  0  0  0  0
  -27.6159  -13.2737   19.8266 C   0  0  2  0  0  0
  -28.6497  -13.4240   20.9637 C   0  0  0  0  0  0
  -25.2404  -13.8251   20.5744 C   0  0  0  0  0  0
  -24.1753  -13.0440   20.9255 C   0  0  0  0  0  0
  -24.6405  -11.6938   20.8759 C   0  0  0  0  0  0
  -23.9099  -10.4296   21.0409 C   0  0  0  0  0  0
  -24.3642   -9.4209   21.9185 C   0  0  0  0  0  0
  -23.6309   -8.2247   22.0755 C   0  0  0  0  0  0
  -22.4286   -8.0288   21.3548 C   0  0  0  0  0  0
  -21.9929   -9.0265   20.4649 C   0  0  0  0  0  0
  -22.7268  -10.2141   20.3058 C   0  0  0  0  0  0
  -21.6856   -6.0745   22.5283 C   0  0  0  0  0  0
  -21.4019   -6.5646   23.8217 C   0  0  0  0  0  0
  -21.3659   -5.6797   24.9175 C   0  0  0  0  0  0
  -21.6043   -4.3057   24.7225 C   0  0  0  0  0  0
  -21.8817   -3.8154   23.4341 C   0  0  0  0  0  0
  -21.9195   -4.6974   22.3402 C   0  0  0  0  0  0
  -22.7767  -13.5196   21.1900 C   0  0  0  0  0  0
  -22.1662   -4.2162   21.0978 F   0  0  0  0  0  0
  -21.5624   -3.4539   25.7733 F   0  0  0  0  0  0
  -29.8937  -13.9056   20.3445 N   0  0  0  0  0  0
  -26.2834  -12.9527   20.3220 N   0  0  0  0  0  0
  -25.9343  -11.6632   20.5722 N   0  0  0  0  0  0
  -22.0419  -12.8181   22.0448 N   0  0  0  0  0  0
  -25.4035  -15.1986   20.4188 N   0  0  0  0  0  0
  -31.6886  -15.1974   20.1416 O   0  0  0  0  0  0
  -21.6644   -6.8890   21.4244 O   0  0  0  0  0  0
  -22.3451  -14.5493   20.6731 O   0  0  0  0  0  0
  -24.6600  -31.8284   23.1751 C   0  0  0  0  0  0
  -25.9301  -32.4611   23.8199 C   0  0  1  0  0  0
  -27.2156  -26.9646   20.1788 C   0  0  0  0  0  0
  -25.5986  -33.8424   24.2111 N   0  0  0  0  0  0
  -23.4723  -30.4427   21.5232 C   0  0  2  0  0  0
  -24.9263  -28.8405   20.1107 C   0  0  0  0  0  0
  -22.7654  -29.4466   22.4792 C   0  0  0  0  0  0
  -18.0326  -28.1408   22.8473 C   0  0  0  0  0  0
  -24.1492  -36.7208   23.2636 C   0  0  0  0  0  0
  -26.0398  -30.6474   21.4004 C   0  0  0  0  0  0
  -26.1096  -29.2412   20.7440 C   0  0  0  0  0  0
  -27.2505  -28.3235   20.7567 C   0  0  0  0  0  0
  -26.0058  -26.7151   19.4900 C   0  0  0  0  0  0
  -24.8984  -27.5973   19.4626 C   0  0  0  0  0  0
  -23.7105  -29.7634   20.1475 C   0  0  0  0  0  0
  -25.4127  -36.2976   24.0303 C   0  0  1  0  0  0
  -20.5948  -28.3748   23.1195 C   0  0  2  0  0  0
  -20.6801  -26.9435   22.5395 C   0  0  0  0  0  0
  -19.5771  -26.6385   21.5209 C   0  0  0  0  0  0
  -18.1959  -26.7942   22.1629 C   0  0  0  0  0  0
  -19.1586  -28.8901   23.2823 C   0  0  0  0  0  0
  -18.9491  -30.1493   23.8853 C   0  0  0  0  0  0
  -17.6483  -30.6598   24.0556 C   0  0  0  0  0  0
  -25.9095  -34.9358   23.5021 C   0  0  0  0  0  0
  -16.5375  -29.9081   23.6345 C   0  0  0  0  0  0
  -16.7307  -28.6502   23.0364 C   0  0  0  0  0  0
  -26.4564  -31.6534   25.0706 C   0  0  0  0  0  0
  -25.3705  -31.3780   26.1376 C   0  0  0  0  0  0
  -27.0444  -30.2903   24.6409 C   0  0  0  0  0  0
  -27.6072  -32.4327   25.7505 C   0  0  0  0  0  0
  -27.5582  -37.1747   24.8455 C   0  0  0  0  0  0
  -21.4326  -29.3044   22.3544 N   0  0  0  0  0  0
  -26.4269  -37.3718   23.9427 N   0  0  0  0  0  0
  -24.7449  -30.9988   22.0865 N   0  0  0  0  0  0
  -23.4221  -28.8036   23.3020 O   0  0  0  0  0  0
  -28.2007  -25.8551   20.2736 O   0  0  0  0  0  0
  -26.5694  -34.8889   22.4610 O   0  0  0  0  0  0
  -23.5681  -32.1231   23.6873 O   0  0  0  0  0  0
  -29.2690  -21.9452   19.2476 C   0  0  0  0  0  0
  -28.6917  -20.3471   21.4281 C   0  0  0  0  0  0
  -29.6408  -20.5111   19.3325 C   0  0  0  0  0  0
  -29.3717  -19.5942   20.3909 C   0  0  0  0  0  0
  -28.3123  -21.7900   21.3630 C   0  0  0  0  0  0
  -28.5645  -22.7292   20.2597 C   0  0  0  0  0  0
  -30.4411  -19.7581   18.2883 C   0  0  0  0  0  0
  -30.5398  -18.2519   18.7287 C   0  0  0  0  0  0
  -30.1079  -18.0592   20.2117 C   0  0  2  0  0  0
  -27.5612  -22.3247   22.5687 C   0  0  0  0  0  0
  -27.8254  -24.2911   20.0180 C   0  0  0  0  0  0
  -29.7301  -16.4713   20.4644 N   0  0  0  0  0  0
  -31.4639  -12.9422   19.2102 H   0  0  0  0  0  0
  -30.4753  -11.8458   20.1233 H   0  0  0  0  0  0
  -29.9038  -11.7488   17.6693 H   0  0  0  0  0  0
  -29.5831  -13.4654   17.6629 H   0  0  0  0  0  0
  -28.0198  -11.2794   19.0626 H   0  0  0  0  0  0
  -27.4148  -12.3728   17.8442 H   0  0  0  0  0  0
  -27.5397  -14.2478   19.3422 H   0  0  0  0  0  0
  -28.7983  -12.4847   21.4981 H   0  0  0  0  0  0
  -28.3019  -14.1494   21.7007 H   0  0  0  0  0  0
  -25.2785   -9.5686   22.4763 H   0  0  0  0  0  0
  -24.0019   -7.4641   22.7471 H   0  0  0  0  0  0
  -21.0861   -8.8797   19.8954 H   0  0  0  0  0  0
  -22.3731  -10.9686   19.6170 H   0  0  0  0  0  0
  -21.2015   -7.6155   23.9727 H   0  0  0  0  0  0
  -21.1478   -6.0521   25.9081 H   0  0  0  0  0  0
  -22.0594   -2.7617   23.2837 H   0  0  0  0  0  0
  -22.4047  -11.9857   22.4856 H   0  0  0  0  0  0
  -21.1030  -13.1203   22.2644 H   0  0  0  0  0  0
  -24.6307  -15.8460   20.5316 H   0  0  0  0  0  0
  -26.2421  -15.6429   20.0687 H   0  0  0  0  0  0
  -26.7368  -32.5166   23.0917 H   0  0  0  0  0  0
  -25.0106  -33.9503   25.0242 H   0  0  0  0  0  0
  -22.7833  -31.2735   21.3570 H   0  0  0  0  0  0
  -23.3778  -35.9512   23.3238 H   0  0  0  0  0  0
  -24.3581  -36.8910   22.2064 H   0  0  0  0  0  0
  -23.7217  -37.6368   23.6722 H   0  0  0  0  0  0
  -26.2160  -31.3925   20.6234 H   0  0  0  0  0  0
  -26.9011  -30.7030   22.0538 H   0  0  0  0  0  0
  -28.1438  -28.6255   21.2854 H   0  0  0  0  0  0
  -25.8713  -25.7687   18.9886 H   0  0  0  0  0  0
  -24.0006  -27.2871   18.9456 H   0  0  0  0  0  0
  -23.8625  -30.5340   19.3909 H   0  0  0  0  0  0
  -22.8208  -29.2163   19.8304 H   0  0  0  0  0  0
  -25.1314  -36.1766   25.0792 H   0  0  0  0  0  0
  -21.0042  -28.3346   24.1315 H   0  0  0  0  0  0
  -20.5687  -26.2360   23.3625 H   0  0  0  0  0  0
  -21.6664  -26.7416   22.1199 H   0  0  0  0  0  0
  -19.6923  -25.6285   21.1269 H   0  0  0  0  0  0
  -19.6707  -27.3169   20.6718 H   0  0  0  0  0  0
  -17.4221  -26.6684   21.4038 H   0  0  0  0  0  0
  -18.0365  -26.0093   22.9039 H   0  0  0  0  0  0
  -19.7963  -30.7332   24.2198 H   0  0  0  0  0  0
  -17.5029  -31.6273   24.5165 H   0  0  0  0  0  0
  -15.5373  -30.2966   23.7688 H   0  0  0  0  0  0
  -15.8712  -28.0804   22.7101 H   0  0  0  0  0  0
  -24.5882  -30.7134   25.7690 H   0  0  0  0  0  0
  -24.8900  -32.2979   26.4711 H   0  0  0  0  0  0
  -25.7945  -30.9002   27.0217 H   0  0  0  0  0  0
  -26.3097  -29.6597   24.1389 H   0  0  0  0  0  0
  -27.3956  -29.7247   25.5051 H   0  0  0  0  0  0
  -27.9054  -30.4087   23.9828 H   0  0  0  0  0  0
  -27.2663  -33.3678   26.1963 H   0  0  0  0  0  0
  -28.3951  -32.6803   25.0376 H   0  0  0  0  0  0
  -28.0665  -31.8524   26.5520 H   0  0  0  0  0  0
  -28.2525  -38.0117   24.7592 H   0  0  0  0  0  0
  -28.1154  -36.2648   24.6163 H   0  0  0  0  0  0
  -27.2317  -37.1247   25.8858 H   0  0  0  0  0  0
  -20.9567  -29.8729   21.6677 H   0  0  0  0  0  0
  -26.0114  -38.2763   24.1488 H   0  0  0  0  0  0
  -29.5177  -22.4607   18.3300 H   0  0  0  0  0  0
  -28.4534  -19.8067   22.3345 H   0  0  0  0  0  0
  -31.4355  -20.2017   18.2299 H   0  0  0  0  0  0
  -29.9813  -19.8549   17.3040 H   0  0  0  0  0  0
  -31.5245  -17.8294   18.5248 H   0  0  0  0  0  0
  -29.8379  -17.6944   18.1070 H   0  0  0  0  0  0
  -31.0078  -18.1779   20.8166 H   0  0  0  0  0  0
  -27.9409  -21.8791   23.4886 H   0  0  0  0  0  0
  -26.4991  -22.0912   22.4911 H   0  0  0  0  0  0
  -27.6689  -23.4050   22.6656 H   0  0  0  0  0  0
  -26.8547  -24.1775   20.5013 H   0  0  0  0  0  0
  -27.5907  -24.2677   18.9537 H   0  0  0  0  0  0
  -28.7490  -16.3295   20.6542 H   0  0  0  0  0  0
  1 25  1  0  0  0
  1 30  2  0  0  0
  1 82  1  0  0  0
  2  3  1  0  0  0
  2 25  1  0  0  0
  2 83  1  0  0  0
  2 84  1  0  0  0
  3  4  1  0  0  0
  3 85  1  0  0  0
  3 86  1  0  0  0
  4  5  1  0  0  0
  4 87  1  0  0  0
  4 88  1  0  0  0
  5  6  1  0  0  0
  5 26  1  0  0  0
  5 89  1  0  0  0
  6 25  1  0  0  0
  6 90  1  0  0  0
  6 91  1  0  0  0
  7  8  2  0  0  0
  7 26  1  0  0  0
  7 29  1  0  0  0
  8  9  1  0  0  0
  8 22  1  0  0  0
  9 10  1  0  0  0
  9 27  2  0  0  0
 10 11  2  0  0  0
 10 15  1  0  0  0
 11 12  1  0  0  0
 11 92  1  0  0  0
 12 13  2  0  0  0
 12 93  1  0  0  0
 13 14  1  0  0  0
 13 31  1  0  0  0
 14 15  2  0  0  0
 14 94  1  0  0  0
 15 95  1  0  0  0
 16 17  2  0  0  0
 16 21  1  0  0  0
 16 31  1  0  0  0
 17 18  1  0  0  0
 17 96  1  0  0  0
 18 19  2  0  0  0
 18 97  1  0  0  0
 19 20  1  0  0  0
 19 24  1  0  0  0
 20 21  2  0  0  0
 20 98  1  0  0  0
 21 23  1  0  0  0
 22 28  1  0  0  0
 22 32  2  0  0  0
 26 27  1  0  0  0
 28 99  1  0  0  0
 28100  1  0  0  0
 29101  1  0  0  0
 29102  1  0  0  0
 33 34  1  0  0  0
 33 66  1  0  0  0
 33 70  2  0  0  0
 34 36  1  0  0  0
 34 59  1  0  0  0
 34103  1  0  0  0
 35 44  2  0  0  0
 35 45  1  0  0  0
 35 68  1  0  0  0
 36 56  1  0  0  0
 36104  1  0  0  0
 37 39  1  0  0  0
 37 47  1  0  0  0
 37 66  1  0  0  0
 37105  1  0  0  0
 38 43  2  0  0  0
 38 46  1  0  0  0
 38 47  1  0  0  0
 39 64  1  0  0  0
 39 67  2  0  0  0
 40 52  1  0  0  0
 40 53  2  0  0  0
 40 58  1  0  0  0
 41106  1  0  0  0
 41107  1  0  0  0
 41108  1  0  0  0
 41 48  1  0  0  0
 42 43  1  0  0  0
 42 66  1  0  0  0
 42109  1  0  0  0
 42110  1  0  0  0
 43 44  1  0  0  0
 44111  1  0  0  0
 45 46  2  0  0  0
 45112  1  0  0  0
 46113  1  0  0  0
 47114  1  0  0  0
 47115  1  0  0  0
 48 56  1  0  0  0
 48 65  1  0  0  0
 48116  1  0  0  0
 49 50  1  0  0  0
 49 53  1  0  0  0
 49 64  1  0  0  0
 49117  1  0  0  0
 50 51  1  0  0  0
 50118  1  0  0  0
 50119  1  0  0  0
 51 52  1  0  0  0
 51120  1  0  0  0
 51121  1  0  0  0
 52122  1  0  0  0
 52123  1  0  0  0
 53 54  1  0  0  0
 54 55  2  0  0  0
 54124  1  0  0  0
 55 57  1  0  0  0
 55125  1  0  0  0
 56 69  2  0  0  0
 57 58  2  0  0  0
 57126  1  0  0  0
 58127  1  0  0  0
 59 60  1  0  0  0
 59 61  1  0  0  0
 59 62  1  0  0  0
 60128  1  0  0  0
 60129  1  0  0  0
 60130  1  0  0  0
 61131  1  0  0  0
 61132  1  0  0  0
 61133  1  0  0  0
 62134  1  0  0  0
 62135  1  0  0  0
 62136  1  0  0  0
 63 65  1  0  0  0
 63137  1  0  0  0
 63138  1  0  0  0
 63139  1  0  0  0
 64140  1  0  0  0
 65141  1  0  0  0
 68 81  1  0  0  0
 71 73  2  0  0  0
 71 76  1  0  0  0
 71142  1  0  0  0
 72 74  2  0  0  0
 72 75  1  0  0  0
 72143  1  0  0  0
 73 74  1  0  0  0
 73 77  1  0  0  0
 74 79  1  0  0  0
 75 76  2  0  0  0
 75 80  1  0  0  0
 76 81  1  0  0  0
 77 78  1  0  0  0
 77144  1  0  0  0
 77145  1  0  0  0
 78 79  1  0  0  0
 78146  1  0  0  0
 78147  1  0  0  0
 79 82  1  0  0  0
 79148  1  0  0  0
 80149  1  0  0  0
 80150  1  0  0  0
 80151  1  0  0  0
 81152  1  0  0  0
 81153  1  0  0  0
 82154  1  0  0  0
M  ISO  4   1 100  68 101  81 101  82 100
M  END
> <chiral flag>
0

> <version>
0

> <s_m_source_file>
/data/baiqing/PycharmProjects/Reinvent-master-3.2/result/LINK_invent/BTK/process_docking_weight1_custom_sum_contain_oxygen_bond_distance_aromatic_linkinvent_7_9_3/rearranged_h_0159.sdf

> <i_m_source_file_index>
16

> <r_mmod_Potential_Energy-OPLS-2005>
1079.21374511719

> <r_mmod_Stretch_Energy-OPLS-2005>
448.723480224609

> <r_mmod_Bend_Energy-OPLS-2005>
460.648742675781

> <r_mmod_Torsional_Energy-OPLS-2005>
231.27326965332

> <r_mmod_Improper_Torsional_Energy-OPLS-2005>
8.9614200592041

> <r_mmod_Van_der_Waal_Energy-OPLS-2005>
126.317337036133

> <r_mmod_Electrostatic_Energy-OPLS-2005>
-388.280609130859

> <r_mmod_Solvation_Energy-OPLS-2005>
-209.894607543945

> <b_mmod_Minimization_Converged-OPLS-2005>
0

> <r_mmod_RMS_Derivative-OPLS-2005>
0.859245538711548

$$$$
16
                    3D
 Structure written by MMmdl.
160169  0  0  1  0            999 V2000
  -30.5735  -14.9803   20.5351 C   0  0  0  0  0  0
  -30.4361  -12.6257   19.5379 C   0  0  0  0  0  0
  -29.5364  -12.5877   18.2746 C   0  0  0  0  0  0
  -28.0610  -12.3644   18.6587 C   0  0  0  0  0  0
  -27.6321  -13.2700   19.8450 C   0  0  2  0  0  0
  -28.6667  -13.2915   20.9920 C   0  0  0  0  0  0
  -25.2446  -13.8240   20.5716 C   0  0  0  0  0  0
  -24.1733  -13.0422   20.9188 C   0  0  0  0  0  0
  -24.6399  -11.6924   20.8692 C   0  0  0  0  0  0
  -23.9076  -10.4279   21.0340 C   0  0  0  0  0  0
  -24.3616   -9.4216   21.9129 C   0  0  0  0  0  0
  -23.6296   -8.2255   22.0737 C   0  0  0  0  0  0
  -22.4289   -8.0264   21.3515 C   0  0  0  0  0  0
  -21.9912   -9.0226   20.4635 C   0  0  0  0  0  0
  -22.7241  -10.2105   20.3006 C   0  0  0  0  0  0
  -21.6852   -6.0741   22.5284 C   0  0  0  0  0  0
  -21.4030   -6.5637   23.8214 C   0  0  0  0  0  0
  -21.3681   -5.6775   24.9183 C   0  0  0  0  0  0
  -21.6027   -4.3046   24.7209 C   0  0  0  0  0  0
  -21.8821   -3.8144   23.4336 C   0  0  0  0  0  0
  -21.9188   -4.6971   22.3397 C   0  0  0  0  0  0
  -22.7771  -13.5195   21.1846 C   0  0  0  0  0  0
  -22.1651   -4.2133   21.0994 F   0  0  0  0  0  0
  -21.5627   -3.4550   25.7749 F   0  0  0  0  0  0
  -29.9489  -13.7264   20.4326 N   0  0  0  0  0  0
  -26.2894  -12.9512   20.3254 N   0  0  0  0  0  0
  -25.9328  -11.6605   20.5636 N   0  0  0  0  0  0
  -22.0425  -12.8157   22.0462 N   0  0  0  0  0  0
  -25.4051  -15.1968   20.4209 N   0  0  0  0  0  0
  -31.7390  -15.0283   20.1166 O   0  0  0  0  0  0
  -21.6643   -6.8870   21.4236 O   0  0  0  0  0  0
  -22.3417  -14.5452   20.6709 O   0  0  0  0  0  0
  -24.6529  -31.8368   23.1754 C   0  0  0  0  0  0
  -25.9243  -32.4660   23.8235 C   0  0  1  0  0  0
  -27.2491  -27.0719   20.1938 C   0  0  0  0  0  0
  -25.5891  -33.8466   24.2129 N   0  0  0  0  0  0
  -23.4656  -30.4463   21.5213 C   0  0  2  0  0  0
  -24.9226  -28.8486   20.1100 C   0  0  0  0  0  0
  -22.7640  -29.4521   22.4803 C   0  0  0  0  0  0
  -18.0312  -28.1395   22.8478 C   0  0  0  0  0  0
  -24.1452  -36.7253   23.2648 C   0  0  0  0  0  0
  -26.0238  -30.6838   21.3905 C   0  0  0  0  0  0
  -26.0980  -29.2881   20.7333 C   0  0  0  0  0  0
  -27.2590  -28.4205   20.7507 C   0  0  0  0  0  0
  -26.0496  -26.7481   19.5157 C   0  0  0  0  0  0
  -24.9139  -27.5934   19.4776 C   0  0  0  0  0  0
  -23.6986  -29.7578   20.1481 C   0  0  0  0  0  0
  -25.4088  -36.3022   24.0319 C   0  0  1  0  0  0
  -20.5960  -28.3771   23.1157 C   0  0  2  0  0  0
  -20.6766  -26.9432   22.5398 C   0  0  0  0  0  0
  -19.5748  -26.6362   21.5209 C   0  0  0  0  0  0
  -18.1947  -26.7924   22.1643 C   0  0  0  0  0  0
  -19.1584  -28.8898   23.2811 C   0  0  0  0  0  0
  -18.9495  -30.1464   23.8874 C   0  0  0  0  0  0
  -17.6504  -30.6586   24.0568 C   0  0  0  0  0  0
  -25.9049  -34.9386   23.5056 C   0  0  0  0  0  0
  -16.5387  -29.9103   23.6326 C   0  0  0  0  0  0
  -16.7311  -28.6497   23.0377 C   0  0  0  0  0  0
  -26.4469  -31.6591   25.0764 C   0  0  0  0  0  0
  -25.3594  -31.3891   26.1443 C   0  0  0  0  0  0
  -27.0355  -30.2945   24.6488 C   0  0  0  0  0  0
  -27.5954  -32.4411   25.7576 C   0  0  0  0  0  0
  -27.5545  -37.1798   24.8462 C   0  0  0  0  0  0
  -21.4321  -29.3074   22.3489 N   0  0  0  0  0  0
  -26.4249  -37.3742   23.9405 N   0  0  0  0  0  0
  -24.7330  -31.0172   22.0795 N   0  0  0  0  0  0
  -23.4244  -28.8052   23.2961 O   0  0  0  0  0  0
  -28.2993  -26.0670   20.3283 O   0  0  0  0  0  0
  -26.5722  -34.8900   22.4684 O   0  0  0  0  0  0
  -23.5616  -32.1264   23.6878 O   0  0  0  0  0  0
  -29.9135  -18.2925   22.2671 C   0  0  0  0  0  0
  -27.9320  -19.2998   20.9237 C   0  0  0  0  0  0
  -29.6724  -16.7226   22.2242 C   0  0  0  0  0  0
  -29.9040  -17.5791   20.0914 C   0  0  0  0  0  0
  -29.9849  -20.5072   20.6925 C   0  0  0  0  0  0
  -27.6497  -20.8754   20.8417 C   0  0  1  0  0  0
  -29.4456  -18.9442   20.9368 C   0  0  1  0  0  0
  -27.0212  -21.4624   22.1301 C   0  0  0  0  0  0
  -29.0506  -23.1893   20.7603 C   0  0  0  0  0  0
  -28.1317  -24.4999   20.1186 C   0  0  0  0  0  0
  -29.8738  -16.2108   20.8397 N   0  0  0  0  0  0
  -28.8880  -21.6044   20.4224 N   0  3  2  0  0  0
  -31.4771  -12.7662   19.2405 H   0  0  0  0  0  0
  -30.4063  -11.6646   20.0620 H   0  0  0  0  0  0
  -29.8744  -11.8167   17.5810 H   0  0  0  0  0  0
  -29.6284  -13.5348   17.7404 H   0  0  0  0  0  0
  -27.9319  -11.3133   18.9192 H   0  0  0  0  0  0
  -27.4235  -12.5427   17.7929 H   0  0  0  0  0  0
  -27.5901  -14.2803   19.4296 H   0  0  0  0  0  0
  -28.7549  -12.3067   21.4530 H   0  0  0  0  0  0
  -28.3497  -13.9771   21.7787 H   0  0  0  0  0  0
  -25.2754   -9.5711   22.4705 H   0  0  0  0  0  0
  -23.9993   -7.4666   22.7468 H   0  0  0  0  0  0
  -21.0832   -8.8736   19.8954 H   0  0  0  0  0  0
  -22.3668  -10.9620   19.6109 H   0  0  0  0  0  0
  -21.2042   -7.6147   23.9708 H   0  0  0  0  0  0
  -21.1499   -6.0534   25.9075 H   0  0  0  0  0  0
  -22.0577   -2.7607   23.2857 H   0  0  0  0  0  0
  -22.4083  -11.9862   22.4873 H   0  0  0  0  0  0
  -21.1021  -13.1134   22.2588 H   0  0  0  0  0  0
  -24.6342  -15.8467   20.5300 H   0  0  0  0  0  0
  -26.2635  -15.6506   20.1371 H   0  0  0  0  0  0
  -26.7332  -32.5228   23.0989 H   0  0  0  0  0  0
  -24.9886  -33.9566   25.0174 H   0  0  0  0  0  0
  -22.7753  -31.2743   21.3498 H   0  0  0  0  0  0
  -23.3715  -35.9586   23.3311 H   0  0  0  0  0  0
  -24.3504  -36.8911   22.2056 H   0  0  0  0  0  0
  -23.7224  -37.6446   23.6697 H   0  0  0  0  0  0
  -26.1994  -31.4249   20.6127 H   0  0  0  0  0  0
  -26.8865  -30.7393   22.0442 H   0  0  0  0  0  0
  -28.1525  -28.7533   21.2619 H   0  0  0  0  0  0
  -25.9558  -25.7864   19.0444 H   0  0  0  0  0  0
  -24.0154  -27.2457   18.9862 H   0  0  0  0  0  0
  -23.8509  -30.5267   19.3886 H   0  0  0  0  0  0
  -22.8138  -29.2015   19.8344 H   0  0  0  0  0  0
  -25.1269  -36.1839   25.0814 H   0  0  0  0  0  0
  -21.0069  -28.3370   24.1287 H   0  0  0  0  0  0
  -20.5588  -26.2409   23.3669 H   0  0  0  0  0  0
  -21.6629  -26.7349   22.1252 H   0  0  0  0  0  0
  -19.6891  -25.6261   21.1272 H   0  0  0  0  0  0
  -19.6644  -27.3137   20.6709 H   0  0  0  0  0  0
  -17.4192  -26.6674   21.4055 H   0  0  0  0  0  0
  -18.0343  -26.0072   22.9049 H   0  0  0  0  0  0
  -19.7958  -30.7256   24.2275 H   0  0  0  0  0  0
  -17.5054  -31.6267   24.5165 H   0  0  0  0  0  0
  -15.5384  -30.3019   23.7595 H   0  0  0  0  0  0
  -15.8716  -28.0776   22.7162 H   0  0  0  0  0  0
  -24.5733  -30.7265   25.7783 H   0  0  0  0  0  0
  -24.8801  -32.3116   26.4707 H   0  0  0  0  0  0
  -25.7783  -30.9166   27.0334 H   0  0  0  0  0  0
  -26.3009  -29.6686   24.1387 H   0  0  0  0  0  0
  -27.3760  -29.7247   25.5147 H   0  0  0  0  0  0
  -27.8982  -30.4120   23.9939 H   0  0  0  0  0  0
  -27.2462  -33.3711   26.2070 H   0  0  0  0  0  0
  -28.3780  -32.7028   25.0449 H   0  0  0  0  0  0
  -28.0612  -31.8653   26.5591 H   0  0  0  0  0  0
  -28.2579  -38.0079   24.7472 H   0  0  0  0  0  0
  -28.1035  -36.2619   24.6299 H   0  0  0  0  0  0
  -27.2280  -37.1435   25.8875 H   0  0  0  0  0  0
  -20.9548  -29.8827   21.6686 H   0  0  0  0  0  0
  -26.0123  -38.2811   24.1401 H   0  0  0  0  0  0
  -30.9968  -18.4371   22.3269 H   0  0  0  0  0  0
  -29.5105  -18.7743   23.1592 H   0  0  0  0  0  0
  -27.4695  -18.8086   20.0666 H   0  0  0  0  0  0
  -27.4245  -18.8542   21.7828 H   0  0  0  0  0  0
  -28.6502  -16.4987   22.5406 H   0  0  0  0  0  0
  -30.3230  -16.2178   22.9526 H   0  0  0  0  0  0
  -30.9264  -17.7228   19.7330 H   0  0  0  0  0  0
  -29.2944  -17.4691   19.1980 H   0  0  0  0  0  0
  -30.7486  -20.5389   19.9122 H   0  0  0  0  0  0
  -30.4938  -20.8009   21.6110 H   0  0  0  0  0  0
  -26.9230  -21.0290   20.0429 H   0  0  0  0  0  0
  -27.7601  -21.6345   22.9190 H   0  0  0  0  0  0
  -26.2600  -20.7974   22.5388 H   0  0  0  0  0  0
  -26.5227  -22.4104   21.9345 H   0  0  0  0  0  0
  -29.0158  -23.2887   21.8452 H   0  0  0  0  0  0
  -30.0875  -23.4158   20.5269 H   0  0  0  0  0  0
  -27.1028  -24.2898   20.3897 H   0  0  0  0  0  0
  -28.1594  -24.3773   19.0344 H   0  0  0  0  0  0
  -28.8294  -21.6001   19.4146 H   0  0  0  0  0  0
  1 25  1  0  0  0
  1 30  2  0  0  0
  1 81  1  0  0  0
  2  3  1  0  0  0
  2 25  1  0  0  0
  2 83  1  0  0  0
  2 84  1  0  0  0
  3  4  1  0  0  0
  3 85  1  0  0  0
  3 86  1  0  0  0
  4  5  1  0  0  0
  4 87  1  0  0  0
  4 88  1  0  0  0
  5  6  1  0  0  0
  5 26  1  0  0  0
  5 89  1  0  0  0
  6 25  1  0  0  0
  6 90  1  0  0  0
  6 91  1  0  0  0
  7  8  2  0  0  0
  7 26  1  0  0  0
  7 29  1  0  0  0
  8  9  1  0  0  0
  8 22  1  0  0  0
  9 10  1  0  0  0
  9 27  2  0  0  0
 10 11  2  0  0  0
 10 15  1  0  0  0
 11 12  1  0  0  0
 11 92  1  0  0  0
 12 13  2  0  0  0
 12 93  1  0  0  0
 13 14  1  0  0  0
 13 31  1  0  0  0
 14 15  2  0  0  0
 14 94  1  0  0  0
 15 95  1  0  0  0
 16 17  2  0  0  0
 16 21  1  0  0  0
 16 31  1  0  0  0
 17 18  1  0  0  0
 17 96  1  0  0  0
 18 19  2  0  0  0
 18 97  1  0  0  0
 19 20  1  0  0  0
 19 24  1  0  0  0
 20 21  2  0  0  0
 20 98  1  0  0  0
 21 23  1  0  0  0
 22 28  1  0  0  0
 22 32  2  0  0  0
 26 27  1  0  0  0
 28 99  1  0  0  0
 28100  1  0  0  0
 29101  1  0  0  0
 29102  1  0  0  0
 33 34  1  0  0  0
 33 66  1  0  0  0
 33 70  2  0  0  0
 34 36  1  0  0  0
 34 59  1  0  0  0
 34103  1  0  0  0
 35 44  2  0  0  0
 35 45  1  0  0  0
 35 68  1  0  0  0
 36 56  1  0  0  0
 36104  1  0  0  0
 37 39  1  0  0  0
 37 47  1  0  0  0
 37 66  1  0  0  0
 37105  1  0  0  0
 38 43  2  0  0  0
 38 46  1  0  0  0
 38 47  1  0  0  0
 39 64  1  0  0  0
 39 67  2  0  0  0
 40 52  1  0  0  0
 40 53  2  0  0  0
 40 58  1  0  0  0
 41106  1  0  0  0
 41107  1  0  0  0
 41108  1  0  0  0
 41 48  1  0  0  0
 42 43  1  0  0  0
 42 66  1  0  0  0
 42109  1  0  0  0
 42110  1  0  0  0
 43 44  1  0  0  0
 44111  1  0  0  0
 45 46  2  0  0  0
 45112  1  0  0  0
 46113  1  0  0  0
 47114  1  0  0  0
 47115  1  0  0  0
 48 56  1  0  0  0
 48 65  1  0  0  0
 48116  1  0  0  0
 49 50  1  0  0  0
 49 53  1  0  0  0
 49 64  1  0  0  0
 49117  1  0  0  0
 50 51  1  0  0  0
 50118  1  0  0  0
 50119  1  0  0  0
 51 52  1  0  0  0
 51120  1  0  0  0
 51121  1  0  0  0
 52122  1  0  0  0
 52123  1  0  0  0
 53 54  1  0  0  0
 54 55  2  0  0  0
 54124  1  0  0  0
 55 57  1  0  0  0
 55125  1  0  0  0
 56 69  2  0  0  0
 57 58  2  0  0  0
 57126  1  0  0  0
 58127  1  0  0  0
 59 60  1  0  0  0
 59 61  1  0  0  0
 59 62  1  0  0  0
 60128  1  0  0  0
 60129  1  0  0  0
 60130  1  0  0  0
 61131  1  0  0  0
 61132  1  0  0  0
 61133  1  0  0  0
 62134  1  0  0  0
 62135  1  0  0  0
 62136  1  0  0  0
 63 65  1  0  0  0
 63137  1  0  0  0
 63138  1  0  0  0
 63139  1  0  0  0
 64140  1  0  0  0
 65141  1  0  0  0
 68 80  1  0  0  0
 71 73  1  0  0  0
 71142  1  0  0  0
 71143  1  0  0  0
 71 77  1  0  0  0
 72 76  1  0  0  0
 72 77  1  0  0  0
 72144  1  0  0  0
 72145  1  0  0  0
 73 81  1  0  0  0
 73146  1  0  0  0
 73147  1  0  0  0
 74 77  1  0  0  0
 74 81  1  0  0  0
 74148  1  0  0  0
 74149  1  0  0  0
 75 77  1  0  0  0
 75 82  1  0  0  0
 75150  1  0  0  0
 75151  1  0  0  0
 76 78  1  0  0  0
 76 82  1  0  0  0
 76152  1  0  0  0
 78153  1  0  0  0
 78154  1  0  0  0
 78155  1  0  0  0
 79 80  1  0  0  0
 79156  1  0  0  0
 79157  1  0  0  0
 79 82  1  0  0  0
 80158  1  0  0  0
 80159  1  0  0  0
 82160  1  0  0  0
M  CHG  1  82   1
M  ISO  4   1 100  68 101  80 101  81 100
M  END
> <chiral flag>
0

> <version>
0

> <s_m_source_file>
/data/baiqing/PycharmProjects/Reinvent-master-3.2/result/LINK_invent/BTK/process_docking_weight1_custom_sum_contain_oxygen_bond_distance_aromatic_linkinvent_7_9_3/rearranged_h_0159.sdf

> <i_m_source_file_index>
17

> <r_mmod_Potential_Energy-OPLS-2005>
876.5771484375

> <r_mmod_Stretch_Energy-OPLS-2005>
320.778106689453

> <r_mmod_Bend_Energy-OPLS-2005>
364.217681884766

> <r_mmod_Torsional_Energy-OPLS-2005>
422.442047119141

> <r_mmod_Improper_Torsional_Energy-OPLS-2005>
9.23464202880859

> <r_mmod_Van_der_Waal_Energy-OPLS-2005>
100.875503540039

> <r_mmod_Electrostatic_Energy-OPLS-2005>
-154.674789428711

> <r_mmod_Solvation_Energy-OPLS-2005>
-420.432250976562

> <b_mmod_Minimization_Converged-OPLS-2005>
0

> <r_mmod_RMS_Derivative-OPLS-2005>
9.34340953826904

$$$$
17
                    3D
 Structure written by MMmdl.
161170  0  0  1  0            999 V2000
  -30.5889  -14.7478   20.4775 C   0  0  0  0  0  0
  -30.4421  -12.4651   19.4499 C   0  0  0  0  0  0
  -29.5051  -12.4941   18.2220 C   0  0  0  0  0  0
  -28.0323  -12.3184   18.6457 C   0  0  0  0  0  0
  -27.6393  -13.2225   19.8445 C   0  0  2  0  0  0
  -28.6889  -13.1422   20.9720 C   0  0  0  0  0  0
  -25.2513  -13.8176   20.5698 C   0  0  0  0  0  0
  -24.1799  -13.0426   20.9233 C   0  0  0  0  0  0
  -24.6381  -11.6911   20.8763 C   0  0  0  0  0  0
  -23.9057  -10.4287   21.0419 C   0  0  0  0  0  0
  -24.3616   -9.4202   21.9191 C   0  0  0  0  0  0
  -23.6297   -8.2231   22.0750 C   0  0  0  0  0  0
  -22.4275   -8.0273   21.3543 C   0  0  0  0  0  0
  -21.9911   -9.0245   20.4643 C   0  0  0  0  0  0
  -22.7233  -10.2132   20.3063 C   0  0  0  0  0  0
  -21.6843   -6.0737   22.5274 C   0  0  0  0  0  0
  -21.4000   -6.5642   23.8210 C   0  0  0  0  0  0
  -21.3653   -5.6795   24.9178 C   0  0  0  0  0  0
  -21.6053   -4.3062   24.7228 C   0  0  0  0  0  0
  -21.8816   -3.8151   23.4343 C   0  0  0  0  0  0
  -21.9195   -4.6968   22.3402 C   0  0  0  0  0  0
  -22.7825  -13.5216   21.1897 C   0  0  0  0  0  0
  -22.1662   -4.2152   21.0983 F   0  0  0  0  0  0
  -21.5636   -3.4544   25.7741 F   0  0  0  0  0  0
  -29.9818  -13.5162   20.3833 N   0  0  0  0  0  0
  -26.2920  -12.9358   20.3265 N   0  0  0  0  0  0
  -25.9305  -11.6515   20.5750 N   0  0  0  0  0  0
  -22.0472  -12.8194   22.0457 N   0  0  0  0  0  0
  -25.4194  -15.1894   20.4094 N   0  0  0  0  0  0
  -31.7861  -14.8707   20.2060 O   0  0  0  0  0  0
  -21.6636   -6.8874   21.4233 O   0  0  0  0  0  0
  -22.3509  -14.5518   20.6751 O   0  0  0  0  0  0
  -24.6325  -31.8519   23.1980 C   0  0  0  0  0  0
  -25.9140  -32.4724   23.8331 C   0  0  1  0  0  0
  -27.2114  -27.2492   20.1372 C   0  0  0  0  0  0
  -25.5897  -33.8542   24.2213 N   0  0  0  0  0  0
  -23.4296  -30.4741   21.5432 C   0  0  2  0  0  0
  -24.8740  -28.9190   20.1117 C   0  0  0  0  0  0
  -22.7482  -29.4596   22.4933 C   0  0  0  0  0  0
  -18.0252  -28.1385   22.8477 C   0  0  0  0  0  0
  -24.1478  -36.7320   23.2639 C   0  0  0  0  0  0
  -25.9751  -30.7643   21.3770 C   0  0  0  0  0  0
  -26.0483  -29.3867   20.7176 C   0  0  0  0  0  0
  -27.2237  -28.5670   20.7103 C   0  0  0  0  0  0
  -26.0196  -26.8550   19.4947 C   0  0  0  0  0  0
  -24.8649  -27.6629   19.4864 C   0  0  0  0  0  0
  -23.6446  -29.8062   20.1607 C   0  0  0  0  0  0
  -25.4102  -36.3059   24.0300 C   0  0  1  0  0  0
  -20.5866  -28.3716   23.1266 C   0  0  2  0  0  0
  -20.6770  -26.9438   22.5408 C   0  0  0  0  0  0
  -19.5757  -26.6382   21.5209 C   0  0  0  0  0  0
  -18.1927  -26.7925   22.1608 C   0  0  0  0  0  0
  -19.1510  -28.8861   23.2866 C   0  0  0  0  0  0
  -18.9436  -30.1451   23.8916 C   0  0  0  0  0  0
  -17.6448  -30.6611   24.0555 C   0  0  0  0  0  0
  -25.9043  -34.9429   23.5065 C   0  0  0  0  0  0
  -16.5335  -29.9118   23.6338 C   0  0  0  0  0  0
  -16.7240  -28.6519   23.0378 C   0  0  0  0  0  0
  -26.4475  -31.6589   25.0759 C   0  0  0  0  0  0
  -25.3667  -31.3799   26.1465 C   0  0  0  0  0  0
  -27.0328  -30.2977   24.6325 C   0  0  0  0  0  0
  -27.5990  -32.4369   25.7538 C   0  0  0  0  0  0
  -27.5570  -37.1779   24.8432 C   0  0  0  0  0  0
  -21.4191  -29.3068   22.3655 N   0  0  0  0  0  0
  -26.4273  -37.3759   23.9395 N   0  0  0  0  0  0
  -24.6986  -31.0466   22.0965 N   0  0  0  0  0  0
  -23.4154  -28.8132   23.3052 O   0  0  0  0  0  0
  -28.3017  -26.3475   20.1673 O   0  0  0  0  0  0
  -26.5656  -34.8913   22.4661 O   0  0  0  0  0  0
  -23.5471  -32.1357   23.7263 O   0  0  0  0  0  0
  -29.3423  -19.8383   20.7703 C   0  0  0  0  0  0
  -30.1883  -20.9468   18.8003 C   0  0  0  0  0  0
  -29.4502  -21.0792   20.0233 C   0  0  0  0  0  0
  -29.8691  -18.5721   20.3031 C   0  0  0  0  0  0
  -30.5497  -19.6397   18.3546 C   0  0  0  0  0  0
  -32.0508  -22.1596   17.3583 C   0  0  0  0  0  0
  -31.6446  -23.1398   18.4136 C   0  0  0  0  0  0
  -30.6368  -22.1068   17.9348 C   0  0  0  0  0  0
  -31.5653  -18.1954   16.6984 C   0  0  0  0  0  0
  -30.0883  -17.2623   21.1766 C   0  0  0  0  0  0
  -28.0656  -24.9059   20.5688 C   0  0  0  0  0  0
  -28.9188  -23.6679   19.9491 C   0  0  0  0  0  0
  -30.4007  -18.5063   19.0776 N   0  0  0  0  0  0
  -29.7767  -15.8436   20.7091 N   0  0  0  0  0  0
  -28.8662  -22.2888   20.5492 O   0  0  0  0  0  0
  -31.1151  -19.4890   17.1015 O   0  0  0  0  0  0
  -31.4754  -12.6210   19.1348 H   0  0  0  0  0  0
  -30.4187  -11.4880   19.9350 H   0  0  0  0  0  0
  -29.7828  -11.7071   17.5193 H   0  0  0  0  0  0
  -29.6233  -13.4377   17.6867 H   0  0  0  0  0  0
  -27.8920  -11.2710   18.9161 H   0  0  0  0  0  0
  -27.3681  -12.5014   17.7994 H   0  0  0  0  0  0
  -27.6343  -14.2431   19.4621 H   0  0  0  0  0  0
  -28.7366  -12.1341   21.3864 H   0  0  0  0  0  0
  -28.4239  -13.7986   21.8019 H   0  0  0  0  0  0
  -25.2747   -9.5682   22.4778 H   0  0  0  0  0  0
  -24.0006   -7.4615   22.7455 H   0  0  0  0  0  0
  -21.0845   -8.8761   19.8936 H   0  0  0  0  0  0
  -22.3678  -10.9683   19.6187 H   0  0  0  0  0  0
  -21.1972   -7.6152   23.9711 H   0  0  0  0  0  0
  -21.1479   -6.0531   25.9079 H   0  0  0  0  0  0
  -22.0604   -2.7612   23.2848 H   0  0  0  0  0  0
  -22.4092  -11.9857   22.4840 H   0  0  0  0  0  0
  -21.1085  -13.1205   22.2667 H   0  0  0  0  0  0
  -24.6450  -15.8368   20.5095 H   0  0  0  0  0  0
  -26.2550  -15.6294   20.0460 H   0  0  0  0  0  0
  -26.7221  -32.5349   23.1087 H   0  0  0  0  0  0
  -24.9891  -33.9651   25.0253 H   0  0  0  0  0  0
  -22.7296  -31.2996   21.3998 H   0  0  0  0  0  0
  -23.3711  -35.9677   23.3254 H   0  0  0  0  0  0
  -24.3588  -36.9036   22.2074 H   0  0  0  0  0  0
  -23.7249  -37.6498   23.6737 H   0  0  0  0  0  0
  -26.1085  -31.5232   20.6057 H   0  0  0  0  0  0
  -26.8531  -30.8158   22.0091 H   0  0  0  0  0  0
  -28.1284  -28.9212   21.1829 H   0  0  0  0  0  0
  -25.9653  -25.8976   18.9982 H   0  0  0  0  0  0
  -23.9654  -27.3021   19.0081 H   0  0  0  0  0  0
  -23.7652  -30.5805   19.4017 H   0  0  0  0  0  0
  -22.7634  -29.2333   19.8638 H   0  0  0  0  0  0
  -25.1275  -36.1894   25.0782 H   0  0  0  0  0  0
  -20.9912  -28.3296   24.1411 H   0  0  0  0  0  0
  -20.5691  -26.2326   23.3606 H   0  0  0  0  0  0
  -21.6650  -26.7516   22.1211 H   0  0  0  0  0  0
  -19.6950  -25.6283   21.1281 H   0  0  0  0  0  0
  -19.6708  -27.3160   20.6714 H   0  0  0  0  0  0
  -17.4203  -26.6620   21.4010 H   0  0  0  0  0  0
  -18.0361  -26.0067   22.9003 H   0  0  0  0  0  0
  -19.7914  -30.7217   24.2349 H   0  0  0  0  0  0
  -17.5022  -31.6308   24.5130 H   0  0  0  0  0  0
  -15.5342  -30.3041   23.7688 H   0  0  0  0  0  0
  -15.8606  -28.0840   22.7157 H   0  0  0  0  0  0
  -24.5799  -30.7201   25.7794 H   0  0  0  0  0  0
  -24.8895  -32.2990   26.4867 H   0  0  0  0  0  0
  -25.7928  -30.8964   27.0261 H   0  0  0  0  0  0
  -26.2949  -29.6696   24.1302 H   0  0  0  0  0  0
  -27.3888  -29.7297   25.4933 H   0  0  0  0  0  0
  -27.8886  -30.4213   23.9685 H   0  0  0  0  0  0
  -27.2576  -33.3688   26.2068 H   0  0  0  0  0  0
  -28.3825  -32.6907   25.0389 H   0  0  0  0  0  0
  -28.0633  -31.8540   26.5490 H   0  0  0  0  0  0
  -28.2513  -38.0141   24.7553 H   0  0  0  0  0  0
  -28.1137  -36.2664   24.6170 H   0  0  0  0  0  0
  -27.2311  -37.1348   25.8838 H   0  0  0  0  0  0
  -20.9379  -29.8784   21.6846 H   0  0  0  0  0  0
  -26.0130  -38.2812   24.1436 H   0  0  0  0  0  0
  -28.8822  -19.8679   21.7479 H   0  0  0  0  0  0
  -32.7851  -21.4146   17.6635 H   0  0  0  0  0  0
  -32.1892  -22.5610   16.3568 H   0  0  0  0  0  0
  -31.5102  -24.1715   18.0908 H   0  0  0  0  0  0
  -32.0854  -23.0137   19.4012 H   0  0  0  0  0  0
  -29.8378  -22.4259   17.2683 H   0  0  0  0  0  0
  -32.0183  -18.2529   15.7094 H   0  0  0  0  0  0
  -30.7402  -17.4834   16.6400 H   0  0  0  0  0  0
  -32.3235  -17.8053   17.3797 H   0  0  0  0  0  0
  -29.5354  -17.4101   22.1040 H   0  0  0  0  0  0
  -31.1363  -17.2720   21.4772 H   0  0  0  0  0  0
  -28.2486  -24.8909   21.6443 H   0  0  0  0  0  0
  -27.0098  -24.6467   20.4869 H   0  0  0  0  0  0
  -29.9531  -23.9812   20.0283 H   0  0  0  0  0  0
  -28.6618  -23.6031   18.8939 H   0  0  0  0  0  0
  -28.7976  -15.6163   20.7686 H   0  0  0  0  0  0
  1 25  1  0  0  0
  1 30  2  0  0  0
  1 84  1  0  0  0
  2  3  1  0  0  0
  2 25  1  0  0  0
  2 87  1  0  0  0
  2 88  1  0  0  0
  3  4  1  0  0  0
  3 89  1  0  0  0
  3 90  1  0  0  0
  4  5  1  0  0  0
  4 91  1  0  0  0
  4 92  1  0  0  0
  5  6  1  0  0  0
  5 26  1  0  0  0
  5 93  1  0  0  0
  6 25  1  0  0  0
  6 94  1  0  0  0
  6 95  1  0  0  0
  7  8  2  0  0  0
  7 26  1  0  0  0
  7 29  1  0  0  0
  8  9  1  0  0  0
  8 22  1  0  0  0
  9 10  1  0  0  0
  9 27  2  0  0  0
 10 11  2  0  0  0
 10 15  1  0  0  0
 11 12  1  0  0  0
 11 96  1  0  0  0
 12 13  2  0  0  0
 12 97  1  0  0  0
 13 14  1  0  0  0
 13 31  1  0  0  0
 14 15  2  0  0  0
 14 98  1  0  0  0
 15 99  1  0  0  0
 16 17  2  0  0  0
 16 21  1  0  0  0
 16 31  1  0  0  0
 17 18  1  0  0  0
 17100  1  0  0  0
 18 19  2  0  0  0
 18101  1  0  0  0
 19 20  1  0  0  0
 19 24  1  0  0  0
 20 21  2  0  0  0
 20102  1  0  0  0
 21 23  1  0  0  0
 22 28  1  0  0  0
 22 32  2  0  0  0
 26 27  1  0  0  0
 28103  1  0  0  0
 28104  1  0  0  0
 29105  1  0  0  0
 29106  1  0  0  0
 33 34  1  0  0  0
 33 66  1  0  0  0
 33 70  2  0  0  0
 34 36  1  0  0  0
 34 59  1  0  0  0
 34107  1  0  0  0
 35 44  2  0  0  0
 35 45  1  0  0  0
 35 68  1  0  0  0
 36 56  1  0  0  0
 36108  1  0  0  0
 37 39  1  0  0  0
 37 47  1  0  0  0
 37 66  1  0  0  0
 37109  1  0  0  0
 38 43  2  0  0  0
 38 46  1  0  0  0
 38 47  1  0  0  0
 39 64  1  0  0  0
 39 67  2  0  0  0
 40 52  1  0  0  0
 40 53  2  0  0  0
 40 58  1  0  0  0
 41110  1  0  0  0
 41111  1  0  0  0
 41112  1  0  0  0
 41 48  1  0  0  0
 42 43  1  0  0  0
 42 66  1  0  0  0
 42113  1  0  0  0
 42114  1  0  0  0
 43 44  1  0  0  0
 44115  1  0  0  0
 45 46  2  0  0  0
 45116  1  0  0  0
 46117  1  0  0  0
 47118  1  0  0  0
 47119  1  0  0  0
 48 56  1  0  0  0
 48 65  1  0  0  0
 48120  1  0  0  0
 49 50  1  0  0  0
 49 53  1  0  0  0
 49 64  1  0  0  0
 49121  1  0  0  0
 50 51  1  0  0  0
 50122  1  0  0  0
 50123  1  0  0  0
 51 52  1  0  0  0
 51124  1  0  0  0
 51125  1  0  0  0
 52126  1  0  0  0
 52127  1  0  0  0
 53 54  1  0  0  0
 54 55  2  0  0  0
 54128  1  0  0  0
 55 57  1  0  0  0
 55129  1  0  0  0
 56 69  2  0  0  0
 57 58  2  0  0  0
 57130  1  0  0  0
 58131  1  0  0  0
 59 60  1  0  0  0
 59 61  1  0  0  0
 59 62  1  0  0  0
 60132  1  0  0  0
 60133  1  0  0  0
 60134  1  0  0  0
 61135  1  0  0  0
 61136  1  0  0  0
 61137  1  0  0  0
 62138  1  0  0  0
 62139  1  0  0  0
 62140  1  0  0  0
 63 65  1  0  0  0
 63141  1  0  0  0
 63142  1  0  0  0
 63143  1  0  0  0
 64144  1  0  0  0
 65145  1  0  0  0
 68 81  1  0  0  0
 71 73  2  0  0  0
 71 74  1  0  0  0
 71146  1  0  0  0
 72 73  1  0  0  0
 72 75  2  0  0  0
 72 78  1  0  0  0
 73 85  1  0  0  0
 74 80  1  0  0  0
 74 83  2  0  0  0
 75 83  1  0  0  0
 75 86  1  0  0  0
 76 77  1  0  0  0
 76 78  1  0  0  0
 76147  1  0  0  0
 76148  1  0  0  0
 77 78  1  0  0  0
 77149  1  0  0  0
 77150  1  0  0  0
 78151  1  0  0  0
 79 86  1  0  0  0
 79152  1  0  0  0
 79153  1  0  0  0
 79154  1  0  0  0
 80 84  1  0  0  0
 80155  1  0  0  0
 80156  1  0  0  0
 81 82  1  0  0  0
 81157  1  0  0  0
 81158  1  0  0  0
 82 85  1  0  0  0
 82159  1  0  0  0
 82160  1  0  0  0
 84161  1  0  0  0
M  ISO  4   1 100  68 101  81 101  84 100
M  END
> <chiral flag>
0

> <version>
0

> <s_m_source_file>
/data/baiqing/PycharmProjects/Reinvent-master-3.2/result/LINK_invent/BTK/process_docking_weight1_custom_sum_contain_oxygen_bond_distance_aromatic_linkinvent_7_9_3/rearranged_h_0159.sdf

> <i_m_source_file_index>
18

> <r_mmod_Potential_Energy-OPLS-2005>
-56.0588531494141

> <r_mmod_Stretch_Energy-OPLS-2005>
129.935180664062

> <r_mmod_Bend_Energy-OPLS-2005>
198.88298034668

> <r_mmod_Torsional_Energy-OPLS-2005>
247.283615112305

> <r_mmod_Improper_Torsional_Energy-OPLS-2005>
5.05873918533325

> <r_mmod_Van_der_Waal_Energy-OPLS-2005>
154.396621704102

> <r_mmod_Electrostatic_Energy-OPLS-2005>
-655.342651367188

> <r_mmod_Solvation_Energy-OPLS-2005>
-226.940887451172

> <b_mmod_Minimization_Converged-OPLS-2005>
0

> <r_mmod_RMS_Derivative-OPLS-2005>
2.83047676086426

$$$$
18
                    3D
 Structure written by MMmdl.
169179  0  0  1  0            999 V2000
  -30.7311  -14.5750   20.5690 C   0  0  0  0  0  0
  -30.4131  -12.3750   19.4563 C   0  0  0  0  0  0
  -29.4957  -12.5000   18.2243 C   0  0  0  0  0  0
  -28.0255  -12.3142   18.6387 C   0  0  0  0  0  0
  -27.6445  -13.2024   19.8491 C   0  0  2  0  0  0
  -28.6863  -13.1133   20.9915 C   0  0  0  0  0  0
  -25.2544  -13.8121   20.5676 C   0  0  0  0  0  0
  -24.1801  -13.0408   20.9177 C   0  0  0  0  0  0
  -24.6362  -11.6881   20.8751 C   0  0  0  0  0  0
  -23.9027  -10.4277   21.0431 C   0  0  0  0  0  0
  -24.3592   -9.4197   21.9200 C   0  0  0  0  0  0
  -23.6275   -8.2230   22.0754 C   0  0  0  0  0  0
  -22.4254   -8.0273   21.3553 C   0  0  0  0  0  0
  -21.9884   -9.0244   20.4658 C   0  0  0  0  0  0
  -22.7206  -10.2123   20.3074 C   0  0  0  0  0  0
  -21.6842   -6.0722   22.5270 C   0  0  0  0  0  0
  -21.4014   -6.5623   23.8204 C   0  0  0  0  0  0
  -21.3664   -5.6781   24.9169 C   0  0  0  0  0  0
  -21.6048   -4.3040   24.7223 C   0  0  0  0  0  0
  -21.8820   -3.8135   23.4342 C   0  0  0  0  0  0
  -21.9190   -4.6954   22.3401 C   0  0  0  0  0  0
  -22.7840  -13.5233   21.1845 C   0  0  0  0  0  0
  -22.1666   -4.2144   21.0980 F   0  0  0  0  0  0
  -21.5634   -3.4519   25.7735 F   0  0  0  0  0  0
  -30.0107  -13.4148   20.4326 N   0  0  0  0  0  0
  -26.2937  -12.9277   20.3249 N   0  0  0  0  0  0
  -25.9276  -11.6456   20.5738 N   0  0  0  0  0  0
  -22.0473  -12.8246   22.0406 N   0  0  0  0  0  0
  -25.4255  -15.1842   20.4129 N   0  0  0  0  0  0
  -31.8765  -14.6432   20.1096 O   0  0  0  0  0  0
  -21.6627   -6.8868   21.4234 O   0  0  0  0  0  0
  -22.3543  -14.5539   20.6688 O   0  0  0  0  0  0
  -24.6234  -31.8627   23.2120 C   0  0  0  0  0  0
  -25.9105  -32.4776   23.8412 C   0  0  1  0  0  0
  -27.2051  -27.3422   20.0940 C   0  0  0  0  0  0
  -25.5928  -33.8584   24.2302 N   0  0  0  0  0  0
  -23.4118  -30.4943   21.5553 C   0  0  2  0  0  0
  -24.8520  -28.9673   20.1126 C   0  0  0  0  0  0
  -22.7448  -29.4631   22.4961 C   0  0  0  0  0  0
  -18.0271  -28.1379   22.8469 C   0  0  0  0  0  0
  -24.1487  -36.7316   23.2635 C   0  0  0  0  0  0
  -25.9561  -30.7956   21.3888 C   0  0  0  0  0  0
  -26.0219  -29.4289   20.7269 C   0  0  0  0  0  0
  -27.1953  -28.6225   20.7246 C   0  0  0  0  0  0
  -26.0099  -26.9493   19.4368 C   0  0  0  0  0  0
  -24.8462  -27.7272   19.4684 C   0  0  0  0  0  0
  -23.6234  -29.8458   20.1653 C   0  0  0  0  0  0
  -25.4099  -36.3072   24.0330 C   0  0  1  0  0  0
  -20.5867  -28.3672   23.1284 C   0  0  2  0  0  0
  -20.6767  -26.9393   22.5404 C   0  0  0  0  0  0
  -19.5747  -26.6367   21.5203 C   0  0  0  0  0  0
  -18.1923  -26.7913   22.1606 C   0  0  0  0  0  0
  -19.1519  -28.8852   23.2869 C   0  0  0  0  0  0
  -18.9448  -30.1450   23.8873 C   0  0  0  0  0  0
  -17.6444  -30.6579   24.0561 C   0  0  0  0  0  0
  -25.9047  -34.9446   23.5106 C   0  0  0  0  0  0
  -16.5338  -29.9072   23.6338 C   0  0  0  0  0  0
  -16.7260  -28.6504   23.0335 C   0  0  0  0  0  0
  -26.4528  -31.6597   25.0773 C   0  0  0  0  0  0
  -25.3794  -31.3758   26.1538 C   0  0  0  0  0  0
  -27.0398  -30.3012   24.6263 C   0  0  0  0  0  0
  -27.6080  -32.4383   25.7503 C   0  0  0  0  0  0
  -27.5601  -37.1766   24.8426 C   0  0  0  0  0  0
  -21.4179  -29.3036   22.3702 N   0  0  0  0  0  0
  -26.4265  -37.3786   23.9441 N   0  0  0  0  0  0
  -24.6825  -31.0662   22.1072 N   0  0  0  0  0  0
  -23.4203  -28.8144   23.3010 O   0  0  0  0  0  0
  -28.3277  -26.5021   20.1746 O   0  0  0  0  0  0
  -26.5607  -34.8912   22.4666 O   0  0  0  0  0  0
  -23.5399  -32.1444   23.7452 O   0  0  0  0  0  0
  -29.7092  -21.5828   20.1693 C   0  0  0  0  0  0
  -28.6644  -22.3373   22.2016 C   0  0  0  0  0  0
  -29.4766  -22.8576   19.5829 C   0  0  0  0  0  0
  -28.8161  -23.9077   20.2960 C   0  0  0  0  0  0
  -28.4169  -23.6166   21.6301 C   0  0  0  0  0  0
  -29.2843  -21.2865   21.4822 C   0  0  0  0  0  0
  -29.9068  -23.0480   18.1366 C   0  0  0  0  0  0
  -29.0082  -24.0235   17.3747 C   0  0  0  0  0  0
  -28.8979  -25.3511   18.1263 C   0  0  0  0  0  0
  -28.7280  -17.8665   21.0186 C   0  0  0  0  0  0
  -30.6031  -17.8661   22.5465 C   0  0  0  0  0  0
  -29.1097  -16.4379   20.5055 C   0  0  0  0  0  0
  -31.1375  -16.5274   21.9686 C   0  0  0  0  0  0
  -28.3028  -25.1777   19.5349 C   0  0  2  0  0  0
  -29.8913  -18.7452   21.5041 C   0  0  0  0  0  0
  -27.6488  -24.6396   22.4502 C   0  0  0  0  0  0
  -30.1875  -15.6775   21.1979 N   0  0  0  0  0  0
  -29.4299  -20.0181   22.1089 N   0  0  0  0  0  0
  -31.4575  -12.4568   19.1488 H   0  0  0  0  0  0
  -30.3181  -11.3853   19.9050 H   0  0  0  0  0  0
  -29.7693  -11.7607   17.4702 H   0  0  0  0  0  0
  -29.6290  -13.4781   17.7576 H   0  0  0  0  0  0
  -27.8774  -11.2615   18.8852 H   0  0  0  0  0  0
  -27.3658  -12.5245   17.7969 H   0  0  0  0  0  0
  -27.6407  -14.2100   19.4436 H   0  0  0  0  0  0
  -28.6905  -12.1166   21.4335 H   0  0  0  0  0  0
  -28.4272  -13.7967   21.8010 H   0  0  0  0  0  0
  -25.2748   -9.5664   22.4763 H   0  0  0  0  0  0
  -23.9988   -7.4613   22.7457 H   0  0  0  0  0  0
  -21.0817   -8.8753   19.8972 H   0  0  0  0  0  0
  -22.3664  -10.9657   19.6178 H   0  0  0  0  0  0
  -21.2004   -7.6131   23.9688 H   0  0  0  0  0  0
  -21.1495   -6.0521   25.9063 H   0  0  0  0  0  0
  -22.0603   -2.7600   23.2829 H   0  0  0  0  0  0
  -22.4073  -11.9892   22.4803 H   0  0  0  0  0  0
  -21.1110  -13.1313   22.2642 H   0  0  0  0  0  0
  -24.6592  -15.8366   20.5342 H   0  0  0  0  0  0
  -26.2801  -15.6298   20.1059 H   0  0  0  0  0  0
  -26.7152  -32.5444   23.1145 H   0  0  0  0  0  0
  -25.0073  -33.9751   25.0445 H   0  0  0  0  0  0
  -22.7021  -31.3139   21.4227 H   0  0  0  0  0  0
  -23.3752  -35.9633   23.3193 H   0  0  0  0  0  0
  -24.3618  -36.9051   22.2073 H   0  0  0  0  0  0
  -23.7235  -37.6481   23.6741 H   0  0  0  0  0  0
  -26.0947  -31.5621   20.6247 H   0  0  0  0  0  0
  -26.8364  -30.8294   22.0211 H   0  0  0  0  0  0
  -28.0871  -28.9659   21.2312 H   0  0  0  0  0  0
  -25.8961  -26.0396   18.8742 H   0  0  0  0  0  0
  -23.9517  -27.3683   18.9778 H   0  0  0  0  0  0
  -23.7439  -30.6309   19.4174 H   0  0  0  0  0  0
  -22.7419  -29.2796   19.8566 H   0  0  0  0  0  0
  -25.1253  -36.1892   25.0813 H   0  0  0  0  0  0
  -20.9944  -28.3243   24.1412 H   0  0  0  0  0  0
  -20.5678  -26.2262   23.3595 H   0  0  0  0  0  0
  -21.6638  -26.7458   22.1180 H   0  0  0  0  0  0
  -19.6913  -25.6275   21.1237 H   0  0  0  0  0  0
  -19.6688  -27.3175   20.6726 H   0  0  0  0  0  0
  -17.4182  -26.6643   21.4009 H   0  0  0  0  0  0
  -18.0341  -26.0070   22.9017 H   0  0  0  0  0  0
  -19.7931  -30.7283   24.2219 H   0  0  0  0  0  0
  -17.5006  -31.6258   24.5163 H   0  0  0  0  0  0
  -15.5335  -30.2958   23.7722 H   0  0  0  0  0  0
  -15.8650  -28.0848   22.7034 H   0  0  0  0  0  0
  -24.5814  -30.7291   25.7876 H   0  0  0  0  0  0
  -24.9185  -32.2948   26.5153 H   0  0  0  0  0  0
  -25.8122  -30.8751   27.0202 H   0  0  0  0  0  0
  -26.2988  -29.6711   24.1325 H   0  0  0  0  0  0
  -27.4118  -29.7322   25.4793 H   0  0  0  0  0  0
  -27.8842  -30.4273   23.9489 H   0  0  0  0  0  0
  -27.2627  -33.3602   26.2200 H   0  0  0  0  0  0
  -28.3788  -32.7117   25.0282 H   0  0  0  0  0  0
  -28.0888  -31.8486   26.5318 H   0  0  0  0  0  0
  -28.2496  -38.0183   24.7630 H   0  0  0  0  0  0
  -28.1209  -36.2728   24.5995 H   0  0  0  0  0  0
  -27.2364  -37.1111   25.8831 H   0  0  0  0  0  0
  -20.9338  -29.8777   21.6941 H   0  0  0  0  0  0
  -26.0119  -38.2819   24.1558 H   0  0  0  0  0  0
  -30.1917  -20.8182   19.5778 H   0  0  0  0  0  0
  -28.3260  -22.1501   23.2112 H   0  0  0  0  0  0
  -29.9140  -22.0856   17.6221 H   0  0  0  0  0  0
  -30.9363  -23.4077   18.1305 H   0  0  0  0  0  0
  -28.0142  -23.5907   17.2531 H   0  0  0  0  0  0
  -29.4003  -24.1824   16.3697 H   0  0  0  0  0  0
  -28.2996  -26.0582   17.5511 H   0  0  0  0  0  0
  -29.8922  -25.7888   18.2068 H   0  0  0  0  0  0
  -28.0182  -17.7481   21.8401 H   0  0  0  0  0  0
  -28.1760  -18.3903   20.2358 H   0  0  0  0  0  0
  -31.4403  -18.4159   22.9811 H   0  0  0  0  0  0
  -29.9286  -17.6500   23.3778 H   0  0  0  0  0  0
  -29.3576  -16.5043   19.4443 H   0  0  0  0  0  0
  -28.1952  -15.8609   20.5762 H   0  0  0  0  0  0
  -31.5434  -15.9292   22.7866 H   0  0  0  0  0  0
  -31.9921  -16.7797   21.3379 H   0  0  0  0  0  0
  -27.2931  -24.8129   19.4090 H   0  0  0  0  0  0
  -30.5774  -18.9480   20.6823 H   0  0  0  0  0  0
  -27.3510  -24.2362   23.4185 H   0  0  0  0  0  0
  -26.7395  -24.9491   21.9340 H   0  0  0  0  0  0
  -28.2596  -25.5238   22.6328 H   0  0  0  0  0  0
  -29.0754  -19.9446   23.0584 H   0  0  0  0  0  0
  1 25  1  0  0  0
  1 30  2  0  0  0
  1 87  1  0  0  0
  2  3  1  0  0  0
  2 25  1  0  0  0
  2 89  1  0  0  0
  2 90  1  0  0  0
  3  4  1  0  0  0
  3 91  1  0  0  0
  3 92  1  0  0  0
  4  5  1  0  0  0
  4 93  1  0  0  0
  4 94  1  0  0  0
  5  6  1  0  0  0
  5 26  1  0  0  0
  5 95  1  0  0  0
  6 25  1  0  0  0
  6 96  1  0  0  0
  6 97  1  0  0  0
  7  8  2  0  0  0
  7 26  1  0  0  0
  7 29  1  0  0  0
  8  9  1  0  0  0
  8 22  1  0  0  0
  9 10  1  0  0  0
  9 27  2  0  0  0
 10 11  2  0  0  0
 10 15  1  0  0  0
 11 12  1  0  0  0
 11 98  1  0  0  0
 12 13  2  0  0  0
 12 99  1  0  0  0
 13 14  1  0  0  0
 13 31  1  0  0  0
 14 15  2  0  0  0
 14100  1  0  0  0
 15101  1  0  0  0
 16 17  2  0  0  0
 16 21  1  0  0  0
 16 31  1  0  0  0
 17 18  1  0  0  0
 17102  1  0  0  0
 18 19  2  0  0  0
 18103  1  0  0  0
 19 20  1  0  0  0
 19 24  1  0  0  0
 20 21  2  0  0  0
 20104  1  0  0  0
 21 23  1  0  0  0
 22 28  1  0  0  0
 22 32  2  0  0  0
 26 27  1  0  0  0
 28105  1  0  0  0
 28106  1  0  0  0
 29107  1  0  0  0
 29108  1  0  0  0
 33 34  1  0  0  0
 33 66  1  0  0  0
 33 70  2  0  0  0
 34 36  1  0  0  0
 34 59  1  0  0  0
 34109  1  0  0  0
 35 44  2  0  0  0
 35 45  1  0  0  0
 35 68  1  0  0  0
 36 56  1  0  0  0
 36110  1  0  0  0
 37 39  1  0  0  0
 37 47  1  0  0  0
 37 66  1  0  0  0
 37111  1  0  0  0
 38 43  2  0  0  0
 38 46  1  0  0  0
 38 47  1  0  0  0
 39 64  1  0  0  0
 39 67  2  0  0  0
 40 52  1  0  0  0
 40 53  2  0  0  0
 40 58  1  0  0  0
 41112  1  0  0  0
 41113  1  0  0  0
 41114  1  0  0  0
 41 48  1  0  0  0
 42 43  1  0  0  0
 42 66  1  0  0  0
 42115  1  0  0  0
 42116  1  0  0  0
 43 44  1  0  0  0
 44117  1  0  0  0
 45 46  2  0  0  0
 45118  1  0  0  0
 46119  1  0  0  0
 47120  1  0  0  0
 47121  1  0  0  0
 48 56  1  0  0  0
 48 65  1  0  0  0
 48122  1  0  0  0
 49 50  1  0  0  0
 49 53  1  0  0  0
 49 64  1  0  0  0
 49123  1  0  0  0
 50 51  1  0  0  0
 50124  1  0  0  0
 50125  1  0  0  0
 51 52  1  0  0  0
 51126  1  0  0  0
 51127  1  0  0  0
 52128  1  0  0  0
 52129  1  0  0  0
 53 54  1  0  0  0
 54 55  2  0  0  0
 54130  1  0  0  0
 55 57  1  0  0  0
 55131  1  0  0  0
 56 69  2  0  0  0
 57 58  2  0  0  0
 57132  1  0  0  0
 58133  1  0  0  0
 59 60  1  0  0  0
 59 61  1  0  0  0
 59 62  1  0  0  0
 60134  1  0  0  0
 60135  1  0  0  0
 60136  1  0  0  0
 61137  1  0  0  0
 61138  1  0  0  0
 61139  1  0  0  0
 62140  1  0  0  0
 62141  1  0  0  0
 62142  1  0  0  0
 63 65  1  0  0  0
 63143  1  0  0  0
 63144  1  0  0  0
 63145  1  0  0  0
 64146  1  0  0  0
 65147  1  0  0  0
 68 84  1  0  0  0
 71 73  2  0  0  0
 71 76  1  0  0  0
 71148  1  0  0  0
 72 75  1  0  0  0
 72 76  2  0  0  0
 72149  1  0  0  0
 73 74  1  0  0  0
 73 77  1  0  0  0
 74 75  2  0  0  0
 74 84  1  0  0  0
 75 86  1  0  0  0
 76 88  1  0  0  0
 77 78  1  0  0  0
 77150  1  0  0  0
 77151  1  0  0  0
 78 79  1  0  0  0
 78152  1  0  0  0
 78153  1  0  0  0
 79 84  1  0  0  0
 79154  1  0  0  0
 79155  1  0  0  0
 80 82  1  0  0  0
 80 85  1  0  0  0
 80156  1  0  0  0
 80157  1  0  0  0
 81 83  1  0  0  0
 81 85  1  0  0  0
 81158  1  0  0  0
 81159  1  0  0  0
 82 87  1  0  0  0
 82160  1  0  0  0
 82161  1  0  0  0
 83 87  1  0  0  0
 83162  1  0  0  0
 83163  1  0  0  0
 84164  1  0  0  0
 85 88  1  0  0  0
 85165  1  0  0  0
 86166  1  0  0  0
 86167  1  0  0  0
 86168  1  0  0  0
 88169  1  0  0  0
M  ISO  4   1 100  68 101  84 101  87 100
M  END
> <chiral flag>
0

> <version>
0

> <s_m_source_file>
/data/baiqing/PycharmProjects/Reinvent-master-3.2/result/LINK_invent/BTK/process_docking_weight1_custom_sum_contain_oxygen_bond_distance_aromatic_linkinvent_7_9_3/rearranged_h_0159.sdf

> <i_m_source_file_index>
19

> <r_mmod_Potential_Energy-OPLS-2005>
278.926818847656

> <r_mmod_Stretch_Energy-OPLS-2005>
67.0318069458008

> <r_mmod_Bend_Energy-OPLS-2005>
177.042755126953

> <r_mmod_Torsional_Energy-OPLS-2005>
319.274353027344

> <r_mmod_Improper_Torsional_Energy-OPLS-2005>
6.78009033203125

> <r_mmod_Van_der_Waal_Energy-OPLS-2005>
165.019683837891

> <r_mmod_Electrostatic_Energy-OPLS-2005>
-296.170684814453

> <r_mmod_Solvation_Energy-OPLS-2005>
-200.729446411133

> <b_mmod_Minimization_Converged-OPLS-2005>
0

> <r_mmod_RMS_Derivative-OPLS-2005>
2.3615927696228

$$$$
19
                    3D
 Structure written by MMmdl.
168177  0  0  1  0            999 V2000
  -30.7284  -14.6165   20.5415 C   0  0  0  0  0  0
  -30.4095  -12.3939   19.4706 C   0  0  0  0  0  0
  -29.4974  -12.4933   18.2323 C   0  0  0  0  0  0
  -28.0263  -12.3079   18.6440 C   0  0  0  0  0  0
  -27.6378  -13.2035   19.8455 C   0  0  2  0  0  0
  -28.6845  -13.1401   20.9885 C   0  0  0  0  0  0
  -25.2511  -13.8130   20.5657 C   0  0  0  0  0  0
  -24.1790  -13.0416   20.9225 C   0  0  0  0  0  0
  -24.6361  -11.6895   20.8758 C   0  0  0  0  0  0
  -23.9036  -10.4280   21.0413 C   0  0  0  0  0  0
  -24.3608   -9.4204   21.9184 C   0  0  0  0  0  0
  -23.6283   -8.2250   22.0762 C   0  0  0  0  0  0
  -22.4253   -8.0296   21.3558 C   0  0  0  0  0  0
  -21.9896   -9.0251   20.4640 C   0  0  0  0  0  0
  -22.7227  -10.2129   20.3048 C   0  0  0  0  0  0
  -21.6844   -6.0742   22.5285 C   0  0  0  0  0  0
  -21.4006   -6.5640   23.8213 C   0  0  0  0  0  0
  -21.3658   -5.6792   24.9171 C   0  0  0  0  0  0
  -21.6064   -4.3051   24.7216 C   0  0  0  0  0  0
  -21.8819   -3.8142   23.4328 C   0  0  0  0  0  0
  -21.9184   -4.6974   22.3397 C   0  0  0  0  0  0
  -22.7812  -13.5226   21.1856 C   0  0  0  0  0  0
  -22.1641   -4.2180   21.0974 F   0  0  0  0  0  0
  -21.5637   -3.4518   25.7714 F   0  0  0  0  0  0
  -30.0039  -13.4539   20.4229 N   0  0  0  0  0  0
  -26.2911  -12.9293   20.3251 N   0  0  0  0  0  0
  -25.9272  -11.6465   20.5751 N   0  0  0  0  0  0
  -22.0438  -12.8211   22.0424 N   0  0  0  0  0  0
  -25.4138  -15.1849   20.4022 N   0  0  0  0  0  0
  -31.8772  -14.6667   20.0945 O   0  0  0  0  0  0
  -21.6638   -6.8879   21.4241 O   0  0  0  0  0  0
  -22.3509  -14.5521   20.6685 O   0  0  0  0  0  0
  -24.6253  -31.8654   23.2123 C   0  0  0  0  0  0
  -25.9128  -32.4798   23.8430 C   0  0  1  0  0  0
  -27.2049  -27.3272   20.0958 C   0  0  0  0  0  0
  -25.5959  -33.8601   24.2346 N   0  0  0  0  0  0
  -23.4167  -30.4957   21.5560 C   0  0  2  0  0  0
  -24.8599  -28.9736   20.1063 C   0  0  0  0  0  0
  -22.7484  -29.4632   22.4965 C   0  0  0  0  0  0
  -18.0276  -28.1375   22.8472 C   0  0  0  0  0  0
  -24.1482  -36.7287   23.2623 C   0  0  0  0  0  0
  -25.9627  -30.7914   21.3936 C   0  0  0  0  0  0
  -26.0311  -29.4250   20.7279 C   0  0  0  0  0  0
  -27.2044  -28.6096   20.7283 C   0  0  0  0  0  0
  -26.0147  -26.9702   19.4052 C   0  0  0  0  0  0
  -24.8551  -27.7506   19.4356 C   0  0  0  0  0  0
  -23.6288  -29.8499   20.1655 C   0  0  0  0  0  0
  -25.4098  -36.3090   24.0336 C   0  0  1  0  0  0
  -20.5876  -28.3672   23.1274 C   0  0  2  0  0  0
  -20.6772  -26.9404   22.5387 C   0  0  0  0  0  0
  -19.5745  -26.6379   21.5191 C   0  0  0  0  0  0
  -18.1918  -26.7924   22.1600 C   0  0  0  0  0  0
  -19.1529  -28.8845   23.2866 C   0  0  0  0  0  0
  -18.9458  -30.1441   23.8897 C   0  0  0  0  0  0
  -17.6457  -30.6576   24.0555 C   0  0  0  0  0  0
  -25.9048  -34.9462   23.5130 C   0  0  0  0  0  0
  -16.5343  -29.9065   23.6350 C   0  0  0  0  0  0
  -16.7257  -28.6483   23.0363 C   0  0  0  0  0  0
  -26.4507  -31.6581   25.0787 C   0  0  0  0  0  0
  -25.3739  -31.3719   26.1504 C   0  0  0  0  0  0
  -27.0339  -30.2989   24.6260 C   0  0  0  0  0  0
  -27.6071  -32.4299   25.7563 C   0  0  0  0  0  0
  -27.5605  -37.1767   24.8431 C   0  0  0  0  0  0
  -21.4198  -29.3047   22.3714 N   0  0  0  0  0  0
  -26.4257  -37.3803   23.9463 N   0  0  0  0  0  0
  -24.6860  -31.0676   22.1088 N   0  0  0  0  0  0
  -23.4219  -28.8140   23.3016 O   0  0  0  0  0  0
  -28.2815  -26.4173   20.1819 O   0  0  0  0  0  0
  -26.5607  -34.8924   22.4691 O   0  0  0  0  0  0
  -23.5417  -32.1467   23.7437 O   0  0  0  0  0  0
  -29.4389  -23.5327   21.2632 C   0  0  0  0  0  0
  -28.8753  -21.2745   19.6951 C   0  0  0  0  0  0
  -28.6900  -23.7272   20.0799 C   0  0  0  0  0  0
  -29.8774  -22.2319   21.6749 C   0  0  0  0  0  0
  -28.4159  -22.5587   19.3037 C   0  0  0  0  0  0
  -29.5860  -21.0677   20.8980 C   0  0  0  0  0  0
  -31.5003  -17.9065   20.9843 C   0  0  0  0  0  0
  -29.1852  -17.7297   19.9977 C   0  0  0  0  0  0
  -31.1172  -16.6882   21.8768 C   0  0  0  0  0  0
  -28.9742  -16.4715   20.9013 C   0  0  0  0  0  0
  -30.3048  -18.7246   20.4292 C   0  0  0  0  0  0
  -27.5478  -22.6333   18.0549 C   0  0  0  0  0  0
  -29.8487  -22.5386   24.2039 C   0  0  0  0  0  0
  -27.9644  -25.0588   19.6970 C   0  0  0  0  0  0
  -30.6655  -22.1076   22.9770 C   0  0  2  0  0  0
  -30.2235  -15.7289   21.1897 N   0  0  0  0  0  0
  -31.8581  -22.8694   22.9399 O   0  0  0  0  0  0
  -29.9310  -19.7841   21.3548 O   0  0  0  0  0  0
  -31.4556  -12.4680   19.1710 H   0  0  0  0  0  0
  -30.3149  -11.4124   19.9399 H   0  0  0  0  0  0
  -29.7787  -11.7414   17.4936 H   0  0  0  0  0  0
  -29.6294  -13.4627   17.7493 H   0  0  0  0  0  0
  -27.8818  -11.2569   18.8980 H   0  0  0  0  0  0
  -27.3697  -12.5060   17.7967 H   0  0  0  0  0  0
  -27.6169  -14.1989   19.4156 H   0  0  0  0  0  0
  -28.7001  -12.1455   21.4385 H   0  0  0  0  0  0
  -28.4189  -13.8271   21.7931 H   0  0  0  0  0  0
  -25.2775   -9.5666   22.4720 H   0  0  0  0  0  0
  -23.9984   -7.4638   22.7480 H   0  0  0  0  0  0
  -21.0834   -8.8755   19.8930 H   0  0  0  0  0  0
  -22.3705  -10.9642   19.6114 H   0  0  0  0  0  0
  -21.1990   -7.6141   23.9721 H   0  0  0  0  0  0
  -21.1474   -6.0513   25.9073 H   0  0  0  0  0  0
  -22.0595   -2.7614   23.2807 H   0  0  0  0  0  0
  -22.4053  -11.9882   22.4818 H   0  0  0  0  0  0
  -21.1042  -13.1215   22.2589 H   0  0  0  0  0  0
  -24.6392  -15.8274   20.5210 H   0  0  0  0  0  0
  -26.2534  -15.6304   20.0596 H   0  0  0  0  0  0
  -26.7177  -32.5471   23.1158 H   0  0  0  0  0  0
  -25.0155  -33.9750   25.0530 H   0  0  0  0  0  0
  -22.7072  -31.3147   21.4222 H   0  0  0  0  0  0
  -23.3805  -35.9548   23.3149 H   0  0  0  0  0  0
  -24.3628  -36.9053   22.2074 H   0  0  0  0  0  0
  -23.7147  -37.6407   23.6732 H   0  0  0  0  0  0
  -26.1020  -31.5577   20.6301 H   0  0  0  0  0  0
  -26.8399  -30.8280   22.0272 H   0  0  0  0  0  0
  -28.0927  -28.9444   21.2442 H   0  0  0  0  0  0
  -25.9128  -26.0680   18.8232 H   0  0  0  0  0  0
  -23.9667  -27.4155   18.9171 H   0  0  0  0  0  0
  -23.7434  -30.6364   19.4180 H   0  0  0  0  0  0
  -22.7501  -29.2781   19.8583 H   0  0  0  0  0  0
  -25.1245  -36.1927   25.0817 H   0  0  0  0  0  0
  -20.9906  -28.3220   24.1413 H   0  0  0  0  0  0
  -20.5647  -26.2293   23.3586 H   0  0  0  0  0  0
  -21.6640  -26.7416   22.1186 H   0  0  0  0  0  0
  -19.6904  -25.6272   21.1264 H   0  0  0  0  0  0
  -19.6704  -27.3179   20.6718 H   0  0  0  0  0  0
  -17.4188  -26.6665   21.3996 H   0  0  0  0  0  0
  -18.0311  -26.0043   22.8969 H   0  0  0  0  0  0
  -19.7933  -30.7266   24.2269 H   0  0  0  0  0  0
  -17.5007  -31.6270   24.5111 H   0  0  0  0  0  0
  -15.5348  -30.2965   23.7680 H   0  0  0  0  0  0
  -15.8645  -28.0795   22.7100 H   0  0  0  0  0  0
  -24.5925  -30.7048   25.7850 H   0  0  0  0  0  0
  -24.8923  -32.2877   26.4938 H   0  0  0  0  0  0
  -25.8048  -30.8907   27.0292 H   0  0  0  0  0  0
  -26.2914  -29.6767   24.1250 H   0  0  0  0  0  0
  -27.3972  -29.7221   25.4791 H   0  0  0  0  0  0
  -27.8825  -30.4268   23.9533 H   0  0  0  0  0  0
  -27.2690  -33.3621   26.2115 H   0  0  0  0  0  0
  -28.3906  -32.6822   25.0395 H   0  0  0  0  0  0
  -28.0708  -31.8444   26.5521 H   0  0  0  0  0  0
  -28.2442  -38.0243   24.7708 H   0  0  0  0  0  0
  -28.1278  -36.2796   24.5911 H   0  0  0  0  0  0
  -27.2386  -37.0964   25.8833 H   0  0  0  0  0  0
  -20.9383  -29.8835   21.6973 H   0  0  0  0  0  0
  -26.0130  -38.2838   24.1607 H   0  0  0  0  0  0
  -29.6374  -24.3868   21.8955 H   0  0  0  0  0  0
  -28.6154  -20.4236   19.0831 H   0  0  0  0  0  0
  -32.0741  -17.5273   20.1390 H   0  0  0  0  0  0
  -32.1826  -18.5644   21.5244 H   0  0  0  0  0  0
  -28.2406  -18.2585   19.8746 H   0  0  0  0  0  0
  -29.4435  -17.3606   19.0026 H   0  0  0  0  0  0
  -30.6286  -17.0482   22.7842 H   0  0  0  0  0  0
  -32.0243  -16.1858   22.2196 H   0  0  0  0  0  0
  -28.2338  -15.8428   20.4345 H   0  0  0  0  0  0
  -28.5189  -16.7838   21.8437 H   0  0  0  0  0  0
  -30.6666  -19.2254   19.5290 H   0  0  0  0  0  0
  -27.3293  -21.6420   17.6561 H   0  0  0  0  0  0
  -28.0431  -23.2021   17.2683 H   0  0  0  0  0  0
  -26.5876  -23.1008   18.2732 H   0  0  0  0  0  0
  -28.9339  -21.9505   24.2869 H   0  0  0  0  0  0
  -29.5590  -23.5895   24.1662 H   0  0  0  0  0  0
  -30.4141  -22.3876   25.1246 H   0  0  0  0  0  0
  -26.9691  -24.7906   20.0550 H   0  0  0  0  0  0
  -27.9427  -25.1324   18.6097 H   0  0  0  0  0  0
  -30.9625  -21.0678   23.1258 H   0  0  0  0  0  0
  -31.6182  -23.7718   22.7600 H   0  0  0  0  0  0
  1 25  1  0  0  0
  1 30  2  0  0  0
  1 86  1  0  0  0
  2  3  1  0  0  0
  2 25  1  0  0  0
  2 89  1  0  0  0
  2 90  1  0  0  0
  3  4  1  0  0  0
  3 91  1  0  0  0
  3 92  1  0  0  0
  4  5  1  0  0  0
  4 93  1  0  0  0
  4 94  1  0  0  0
  5  6  1  0  0  0
  5 26  1  0  0  0
  5 95  1  0  0  0
  6 25  1  0  0  0
  6 96  1  0  0  0
  6 97  1  0  0  0
  7  8  2  0  0  0
  7 26  1  0  0  0
  7 29  1  0  0  0
  8  9  1  0  0  0
  8 22  1  0  0  0
  9 10  1  0  0  0
  9 27  2  0  0  0
 10 11  2  0  0  0
 10 15  1  0  0  0
 11 12  1  0  0  0
 11 98  1  0  0  0
 12 13  2  0  0  0
 12 99  1  0  0  0
 13 14  1  0  0  0
 13 31  1  0  0  0
 14 15  2  0  0  0
 14100  1  0  0  0
 15101  1  0  0  0
 16 17  2  0  0  0
 16 21  1  0  0  0
 16 31  1  0  0  0
 17 18  1  0  0  0
 17102  1  0  0  0
 18 19  2  0  0  0
 18103  1  0  0  0
 19 20  1  0  0  0
 19 24  1  0  0  0
 20 21  2  0  0  0
 20104  1  0  0  0
 21 23  1  0  0  0
 22 28  1  0  0  0
 22 32  2  0  0  0
 26 27  1  0  0  0
 28105  1  0  0  0
 28106  1  0  0  0
 29107  1  0  0  0
 29108  1  0  0  0
 33 34  1  0  0  0
 33 66  1  0  0  0
 33 70  2  0  0  0
 34 36  1  0  0  0
 34 59  1  0  0  0
 34109  1  0  0  0
 35 44  2  0  0  0
 35 45  1  0  0  0
 35 68  1  0  0  0
 36 56  1  0  0  0
 36110  1  0  0  0
 37 39  1  0  0  0
 37 47  1  0  0  0
 37 66  1  0  0  0
 37111  1  0  0  0
 38 43  2  0  0  0
 38 46  1  0  0  0
 38 47  1  0  0  0
 39 64  1  0  0  0
 39 67  2  0  0  0
 40 52  1  0  0  0
 40 53  2  0  0  0
 40 58  1  0  0  0
 41112  1  0  0  0
 41113  1  0  0  0
 41114  1  0  0  0
 41 48  1  0  0  0
 42 43  1  0  0  0
 42 66  1  0  0  0
 42115  1  0  0  0
 42116  1  0  0  0
 43 44  1  0  0  0
 44117  1  0  0  0
 45 46  2  0  0  0
 45118  1  0  0  0
 46119  1  0  0  0
 47120  1  0  0  0
 47121  1  0  0  0
 48 56  1  0  0  0
 48 65  1  0  0  0
 48122  1  0  0  0
 49 50  1  0  0  0
 49 53  1  0  0  0
 49 64  1  0  0  0
 49123  1  0  0  0
 50 51  1  0  0  0
 50124  1  0  0  0
 50125  1  0  0  0
 51 52  1  0  0  0
 51126  1  0  0  0
 51127  1  0  0  0
 52128  1  0  0  0
 52129  1  0  0  0
 53 54  1  0  0  0
 54 55  2  0  0  0
 54130  1  0  0  0
 55 57  1  0  0  0
 55131  1  0  0  0
 56 69  2  0  0  0
 57 58  2  0  0  0
 57132  1  0  0  0
 58133  1  0  0  0
 59 60  1  0  0  0
 59 61  1  0  0  0
 59 62  1  0  0  0
 60134  1  0  0  0
 60135  1  0  0  0
 60136  1  0  0  0
 61137  1  0  0  0
 61138  1  0  0  0
 61139  1  0  0  0
 62140  1  0  0  0
 62141  1  0  0  0
 62142  1  0  0  0
 63 65  1  0  0  0
 63143  1  0  0  0
 63144  1  0  0  0
 63145  1  0  0  0
 64146  1  0  0  0
 65147  1  0  0  0
 68 84  1  0  0  0
 71 73  2  0  0  0
 71 74  1  0  0  0
 71148  1  0  0  0
 72 75  2  0  0  0
 72 76  1  0  0  0
 72149  1  0  0  0
 73 75  1  0  0  0
 73 84  1  0  0  0
 74 76  2  0  0  0
 74 85  1  0  0  0
 75 82  1  0  0  0
 76 88  1  0  0  0
 77 79  1  0  0  0
 77 81  1  0  0  0
 77150  1  0  0  0
 77151  1  0  0  0
 78 80  1  0  0  0
 78 81  1  0  0  0
 78152  1  0  0  0
 78153  1  0  0  0
 79 86  1  0  0  0
 79154  1  0  0  0
 79155  1  0  0  0
 80 86  1  0  0  0
 80156  1  0  0  0
 80157  1  0  0  0
 81 88  1  0  0  0
 81158  1  0  0  0
 82159  1  0  0  0
 82160  1  0  0  0
 82161  1  0  0  0
 83162  1  0  0  0
 83163  1  0  0  0
 83164  1  0  0  0
 83 85  1  0  0  0
 84165  1  0  0  0
 84166  1  0  0  0
 85 87  1  0  0  0
 85167  1  0  0  0
 87168  1  0  0  0
M  ISO  4   1 100  68 101  84 101  86 100
M  END
> <chiral flag>
0

> <version>
0

> <s_m_source_file>
/data/baiqing/PycharmProjects/Reinvent-master-3.2/result/LINK_invent/BTK/process_docking_weight1_custom_sum_contain_oxygen_bond_distance_aromatic_linkinvent_7_9_3/rearranged_h_0159.sdf

> <i_m_source_file_index>
20

> <r_mmod_Potential_Energy-OPLS-2005>
306.756103515625

> <r_mmod_Stretch_Energy-OPLS-2005>
74.6258697509766

> <r_mmod_Bend_Energy-OPLS-2005>
177.01530456543

> <r_mmod_Torsional_Energy-OPLS-2005>
325.174987792969

> <r_mmod_Improper_Torsional_Energy-OPLS-2005>
4.96137619018555

> <r_mmod_Van_der_Waal_Energy-OPLS-2005>
172.210983276367

> <r_mmod_Electrostatic_Energy-OPLS-2005>
-284.723754882812

> <r_mmod_Solvation_Energy-OPLS-2005>
-217.722198486328

> <b_mmod_Minimization_Converged-OPLS-2005>
0

> <r_mmod_RMS_Derivative-OPLS-2005>
2.99394845962524

$$$$
20
                    3D
 Structure written by MMmdl.
168177  0  0  1  0            999 V2000
  -30.6581  -14.8202   20.5018 C   0  0  0  0  0  0
  -30.4307  -12.5229   19.4864 C   0  0  0  0  0  0
  -29.5067  -12.4886   18.2491 C   0  0  0  0  0  0
  -28.0438  -12.2758   18.6744 C   0  0  0  0  0  0
  -27.6313  -13.2105   19.8362 C   0  0  2  0  0  0
  -28.6784  -13.2303   20.9787 C   0  0  0  0  0  0
  -25.2456  -13.8110   20.5666 C   0  0  0  0  0  0
  -24.1765  -13.0397   20.9226 C   0  0  0  0  0  0
  -24.6356  -11.6881   20.8794 C   0  0  0  0  0  0
  -23.9039  -10.4279   21.0450 C   0  0  0  0  0  0
  -24.3607   -9.4200   21.9219 C   0  0  0  0  0  0
  -23.6293   -8.2231   22.0764 C   0  0  0  0  0  0
  -22.4270   -8.0284   21.3554 C   0  0  0  0  0  0
  -21.9904   -9.0255   20.4650 C   0  0  0  0  0  0
  -22.7222  -10.2138   20.3085 C   0  0  0  0  0  0
  -21.6842   -6.0738   22.5287 C   0  0  0  0  0  0
  -21.4008   -6.5641   23.8215 C   0  0  0  0  0  0
  -21.3651   -5.6799   24.9181 C   0  0  0  0  0  0
  -21.6040   -4.3060   24.7226 C   0  0  0  0  0  0
  -21.8817   -3.8155   23.4352 C   0  0  0  0  0  0
  -21.9200   -4.6968   22.3406 C   0  0  0  0  0  0
  -22.7797  -13.5202   21.1878 C   0  0  0  0  0  0
  -22.1685   -4.2170   21.0977 F   0  0  0  0  0  0
  -21.5629   -3.4531   25.7724 F   0  0  0  0  0  0
  -29.9651  -13.6199   20.3855 N   0  0  0  0  0  0
  -26.2873  -12.9302   20.3243 N   0  0  0  0  0  0
  -25.9268  -11.6480   20.5791 N   0  0  0  0  0  0
  -22.0464  -12.8208   22.0445 N   0  0  0  0  0  0
  -25.4034  -15.1830   20.4031 N   0  0  0  0  0  0
  -31.8559  -14.8092   20.1992 O   0  0  0  0  0  0
  -21.6656   -6.8867   21.4238 O   0  0  0  0  0  0
  -22.3480  -14.5511   20.6714 O   0  0  0  0  0  0
  -24.6312  -31.8532   23.1954 C   0  0  0  0  0  0
  -25.9135  -32.4740   23.8309 C   0  0  1  0  0  0
  -27.2376  -27.2460   20.1613 C   0  0  0  0  0  0
  -25.5927  -33.8544   24.2240 N   0  0  0  0  0  0
  -23.4317  -30.4706   21.5383 C   0  0  2  0  0  0
  -24.8869  -28.9121   20.1131 C   0  0  0  0  0  0
  -22.7516  -29.4583   22.4915 C   0  0  0  0  0  0
  -18.0294  -28.1398   22.8497 C   0  0  0  0  0  0
  -24.1489  -36.7260   23.2646 C   0  0  0  0  0  0
  -25.9767  -30.7663   21.3769 C   0  0  0  0  0  0
  -26.0557  -29.3859   20.7216 C   0  0  0  0  0  0
  -27.2324  -28.5682   20.7274 C   0  0  0  0  0  0
  -26.0464  -26.8417   19.5173 C   0  0  0  0  0  0
  -24.8892  -27.6499   19.4965 C   0  0  0  0  0  0
  -23.6545  -29.7972   20.1564 C   0  0  0  0  0  0
  -25.4119  -36.3056   24.0322 C   0  0  1  0  0  0
  -20.5904  -28.3699   23.1291 C   0  0  2  0  0  0
  -20.6787  -26.9416   22.5433 C   0  0  0  0  0  0
  -19.5753  -26.6392   21.5246 C   0  0  0  0  0  0
  -18.1929  -26.7944   22.1641 C   0  0  0  0  0  0
  -19.1549  -28.8871   23.2883 C   0  0  0  0  0  0
  -18.9462  -30.1478   23.8891 C   0  0  0  0  0  0
  -17.6459  -30.6597   24.0569 C   0  0  0  0  0  0
  -25.9058  -34.9430   23.5083 C   0  0  0  0  0  0
  -16.5351  -29.9091   23.6344 C   0  0  0  0  0  0
  -16.7282  -28.6515   23.0357 C   0  0  0  0  0  0
  -26.4505  -31.6573   25.0703 C   0  0  0  0  0  0
  -25.3721  -31.3719   26.1411 C   0  0  0  0  0  0
  -27.0372  -30.2989   24.6215 C   0  0  0  0  0  0
  -27.6052  -32.4325   25.7479 C   0  0  0  0  0  0
  -27.5573  -37.1780   24.8463 C   0  0  0  0  0  0
  -21.4224  -29.3027   22.3663 N   0  0  0  0  0  0
  -26.4283  -37.3759   23.9413 N   0  0  0  0  0  0
  -24.6984  -31.0486   22.0929 N   0  0  0  0  0  0
  -23.4201  -28.8146   23.3039 O   0  0  0  0  0  0
  -28.3424  -26.3589   20.2536 O   0  0  0  0  0  0
  -26.5641  -34.8914   22.4661 O   0  0  0  0  0  0
  -23.5454  -32.1356   23.7239 O   0  0  0  0  0  0
  -30.7450  -19.5929   18.6700 C   0  0  0  0  0  0
  -32.2400  -21.4771   18.7231 C   0  0  0  0  0  0
  -30.1612  -19.9956   19.8927 C   0  0  0  0  0  0
  -31.7704  -20.3334   18.0699 C   0  0  0  0  0  0
  -31.5536  -21.9990   19.8328 C   0  0  0  0  0  0
  -30.3053  -21.4322   20.2543 C   0  0  0  0  0  0
  -28.4979  -17.9441   20.3689 C   0  0  0  0  0  0
  -28.6581  -16.4957   20.9275 C   0  0  0  0  0  0
  -30.7692  -17.4253   20.7452 C   0  0  0  0  0  0
  -29.7654  -18.7043   20.7632 C   0  0  2  0  0  0
  -32.4715  -19.8175   16.8321 C   0  0  0  0  0  0
  -32.2888  -23.1247   20.5485 C   0  0  0  0  0  0
  -29.4651  -24.2808   22.3247 C   0  0  0  0  0  0
  -28.1576  -24.8550   20.2163 C   0  0  0  0  0  0
  -29.3125  -23.8854   20.8437 C   0  0  2  0  0  0
  -30.0573  -16.0794   20.7547 N   0  0  0  0  0  0
  -29.2637  -22.3421   20.7424 N   0  0  0  0  0  0
  -31.4661  -12.6502   19.1630 H   0  0  0  0  0  0
  -30.4077  -11.5651   20.0098 H   0  0  0  0  0  0
  -29.8132  -11.6876   17.5746 H   0  0  0  0  0  0
  -29.6012  -13.4193   17.6873 H   0  0  0  0  0  0
  -27.9389  -11.2350   18.9842 H   0  0  0  0  0  0
  -27.3745  -12.4106   17.8243 H   0  0  0  0  0  0
  -27.5903  -14.1842   19.3600 H   0  0  0  0  0  0
  -28.7542  -12.2515   21.4530 H   0  0  0  0  0  0
  -28.3854  -13.9187   21.7722 H   0  0  0  0  0  0
  -25.2755   -9.5681   22.4790 H   0  0  0  0  0  0
  -24.0014   -7.4603   22.7458 H   0  0  0  0  0  0
  -21.0858   -8.8780   19.8924 H   0  0  0  0  0  0
  -22.3708  -10.9698   19.6207 H   0  0  0  0  0  0
  -21.2008   -7.6154   23.9721 H   0  0  0  0  0  0
  -21.1470   -6.0533   25.9084 H   0  0  0  0  0  0
  -22.0604   -2.7616   23.2843 H   0  0  0  0  0  0
  -22.4106  -11.9872   22.4815 H   0  0  0  0  0  0
  -21.1086  -13.1214   22.2662 H   0  0  0  0  0  0
  -24.6315  -15.8262   20.5320 H   0  0  0  0  0  0
  -26.2422  -15.6358   20.0640 H   0  0  0  0  0  0
  -26.7203  -32.5404   23.1053 H   0  0  0  0  0  0
  -25.0028  -33.9679   25.0352 H   0  0  0  0  0  0
  -22.7272  -31.2911   21.3863 H   0  0  0  0  0  0
  -23.3762  -35.9579   23.3298 H   0  0  0  0  0  0
  -24.3571  -36.8898   22.2061 H   0  0  0  0  0  0
  -23.7230  -37.6448   23.6683 H   0  0  0  0  0  0
  -26.1163  -31.5303   20.6105 H   0  0  0  0  0  0
  -26.8516  -30.8171   22.0135 H   0  0  0  0  0  0
  -28.1265  -28.9267   21.2185 H   0  0  0  0  0  0
  -25.9886  -25.8724   19.0436 H   0  0  0  0  0  0
  -23.9938  -27.2820   19.0167 H   0  0  0  0  0  0
  -23.7770  -30.5707   19.3965 H   0  0  0  0  0  0
  -22.7745  -29.2258   19.8538 H   0  0  0  0  0  0
  -25.1310  -36.1883   25.0810 H   0  0  0  0  0  0
  -20.9990  -28.3281   24.1413 H   0  0  0  0  0  0
  -20.5733  -26.2292   23.3630 H   0  0  0  0  0  0
  -21.6642  -26.7464   22.1200 H   0  0  0  0  0  0
  -19.6910  -25.6306   21.1263 H   0  0  0  0  0  0
  -19.6696  -27.3215   20.6785 H   0  0  0  0  0  0
  -17.4213  -26.6721   21.4030 H   0  0  0  0  0  0
  -18.0294  -26.0090   22.9033 H   0  0  0  0  0  0
  -19.7929  -30.7314   24.2243 H   0  0  0  0  0  0
  -17.5000  -31.6272   24.5165 H   0  0  0  0  0  0
  -15.5345  -30.2976   23.7683 H   0  0  0  0  0  0
  -15.8687  -28.0836   22.7057 H   0  0  0  0  0  0
  -24.5897  -30.7078   25.7715 H   0  0  0  0  0  0
  -24.8907  -32.2884   26.4830 H   0  0  0  0  0  0
  -25.8019  -30.8882   27.0189 H   0  0  0  0  0  0
  -26.2969  -29.6707   24.1242 H   0  0  0  0  0  0
  -27.4046  -29.7282   25.4755 H   0  0  0  0  0  0
  -27.8846  -30.4253   23.9474 H   0  0  0  0  0  0
  -27.2654  -33.3625   26.2045 H   0  0  0  0  0  0
  -28.3862  -32.6886   25.0309 H   0  0  0  0  0  0
  -28.0722  -31.8460   26.5399 H   0  0  0  0  0  0
  -28.2586  -38.0087   24.7532 H   0  0  0  0  0  0
  -28.1082  -36.2616   24.6270 H   0  0  0  0  0  0
  -27.2290  -37.1402   25.8867 H   0  0  0  0  0  0
  -20.9418  -29.8677   21.6805 H   0  0  0  0  0  0
  -26.0155  -38.2822   24.1441 H   0  0  0  0  0  0
  -30.5249  -18.6151   18.2671 H   0  0  0  0  0  0
  -33.1340  -21.9704   18.3670 H   0  0  0  0  0  0
  -27.5906  -18.4362   20.7189 H   0  0  0  0  0  0
  -28.4358  -17.8868   19.2807 H   0  0  0  0  0  0
  -27.9504  -15.8479   20.4469 H   0  0  0  0  0  0
  -28.4355  -16.4827   21.9966 H   0  0  0  0  0  0
  -31.4423  -17.4742   21.6022 H   0  0  0  0  0  0
  -31.4201  -17.4284   19.8742 H   0  0  0  0  0  0
  -29.6617  -19.0368   21.7975 H   0  0  0  0  0  0
  -32.3933  -18.7323   16.7614 H   0  0  0  0  0  0
  -33.5317  -20.0753   16.8526 H   0  0  0  0  0  0
  -32.0287  -20.2525   15.9361 H   0  0  0  0  0  0
  -33.3374  -22.8520   20.6768 H   0  0  0  0  0  0
  -31.9067  -23.3000   21.5493 H   0  0  0  0  0  0
  -32.2750  -24.0507   19.9733 H   0  0  0  0  0  0
  -29.7507  -25.3297   22.4172 H   0  0  0  0  0  0
  -30.2126  -23.6906   22.8535 H   0  0  0  0  0  0
  -28.5239  -24.1600   22.8619 H   0  0  0  0  0  0
  -27.2181  -24.6202   20.7193 H   0  0  0  0  0  0
  -28.0139  -24.5755   19.1720 H   0  0  0  0  0  0
  -30.1880  -24.2262   20.3094 H   0  0  0  0  0  0
  -28.3602  -21.9222   20.9435 H   0  0  0  0  0  0
  1 25  1  0  0  0
  1 30  2  0  0  0
  1 86  1  0  0  0
  2  3  1  0  0  0
  2 25  1  0  0  0
  2 88  1  0  0  0
  2 89  1  0  0  0
  3  4  1  0  0  0
  3 90  1  0  0  0
  3 91  1  0  0  0
  4  5  1  0  0  0
  4 92  1  0  0  0
  4 93  1  0  0  0
  5  6  1  0  0  0
  5 26  1  0  0  0
  5 94  1  0  0  0
  6 25  1  0  0  0
  6 95  1  0  0  0
  6 96  1  0  0  0
  7  8  2  0  0  0
  7 26  1  0  0  0
  7 29  1  0  0  0
  8  9  1  0  0  0
  8 22  1  0  0  0
  9 10  1  0  0  0
  9 27  2  0  0  0
 10 11  2  0  0  0
 10 15  1  0  0  0
 11 12  1  0  0  0
 11 97  1  0  0  0
 12 13  2  0  0  0
 12 98  1  0  0  0
 13 14  1  0  0  0
 13 31  1  0  0  0
 14 15  2  0  0  0
 14 99  1  0  0  0
 15100  1  0  0  0
 16 17  2  0  0  0
 16 21  1  0  0  0
 16 31  1  0  0  0
 17 18  1  0  0  0
 17101  1  0  0  0
 18 19  2  0  0  0
 18102  1  0  0  0
 19 20  1  0  0  0
 19 24  1  0  0  0
 20 21  2  0  0  0
 20103  1  0  0  0
 21 23  1  0  0  0
 22 28  1  0  0  0
 22 32  2  0  0  0
 26 27  1  0  0  0
 28104  1  0  0  0
 28105  1  0  0  0
 29106  1  0  0  0
 29107  1  0  0  0
 33 34  1  0  0  0
 33 66  1  0  0  0
 33 70  2  0  0  0
 34 36  1  0  0  0
 34 59  1  0  0  0
 34108  1  0  0  0
 35 44  2  0  0  0
 35 45  1  0  0  0
 35 68  1  0  0  0
 36 56  1  0  0  0
 36109  1  0  0  0
 37 39  1  0  0  0
 37 47  1  0  0  0
 37 66  1  0  0  0
 37110  1  0  0  0
 38 43  2  0  0  0
 38 46  1  0  0  0
 38 47  1  0  0  0
 39 64  1  0  0  0
 39 67  2  0  0  0
 40 52  1  0  0  0
 40 53  2  0  0  0
 40 58  1  0  0  0
 41111  1  0  0  0
 41112  1  0  0  0
 41113  1  0  0  0
 41 48  1  0  0  0
 42 43  1  0  0  0
 42 66  1  0  0  0
 42114  1  0  0  0
 42115  1  0  0  0
 43 44  1  0  0  0
 44116  1  0  0  0
 45 46  2  0  0  0
 45117  1  0  0  0
 46118  1  0  0  0
 47119  1  0  0  0
 47120  1  0  0  0
 48 56  1  0  0  0
 48 65  1  0  0  0
 48121  1  0  0  0
 49 50  1  0  0  0
 49 53  1  0  0  0
 49 64  1  0  0  0
 49122  1  0  0  0
 50 51  1  0  0  0
 50123  1  0  0  0
 50124  1  0  0  0
 51 52  1  0  0  0
 51125  1  0  0  0
 51126  1  0  0  0
 52127  1  0  0  0
 52128  1  0  0  0
 53 54  1  0  0  0
 54 55  2  0  0  0
 54129  1  0  0  0
 55 57  1  0  0  0
 55130  1  0  0  0
 56 69  2  0  0  0
 57 58  2  0  0  0
 57131  1  0  0  0
 58132  1  0  0  0
 59 60  1  0  0  0
 59 61  1  0  0  0
 59 62  1  0  0  0
 60133  1  0  0  0
 60134  1  0  0  0
 60135  1  0  0  0
 61136  1  0  0  0
 61137  1  0  0  0
 61138  1  0  0  0
 62139  1  0  0  0
 62140  1  0  0  0
 62141  1  0  0  0
 63 65  1  0  0  0
 63142  1  0  0  0
 63143  1  0  0  0
 63144  1  0  0  0
 64145  1  0  0  0
 65146  1  0  0  0
 68 84  1  0  0  0
 71 73  2  0  0  0
 71 74  1  0  0  0
 71147  1  0  0  0
 72 74  2  0  0  0
 72 75  1  0  0  0
 72148  1  0  0  0
 73 76  1  0  0  0
 73 80  1  0  0  0
 74 81  1  0  0  0
 75 76  2  0  0  0
 75 82  1  0  0  0
 76 87  1  0  0  0
 77 78  1  0  0  0
 77 80  1  0  0  0
 77149  1  0  0  0
 77150  1  0  0  0
 78 86  1  0  0  0
 78151  1  0  0  0
 78152  1  0  0  0
 79 80  1  0  0  0
 79 86  1  0  0  0
 79153  1  0  0  0
 79154  1  0  0  0
 80155  1  0  0  0
 81156  1  0  0  0
 81157  1  0  0  0
 81158  1  0  0  0
 82159  1  0  0  0
 82160  1  0  0  0
 82161  1  0  0  0
 83162  1  0  0  0
 83163  1  0  0  0
 83164  1  0  0  0
 83 85  1  0  0  0
 84 85  1  0  0  0
 84165  1  0  0  0
 84166  1  0  0  0
 85 87  1  0  0  0
 85167  1  0  0  0
 87168  1  0  0  0
M  ISO  4   1 100  68 101  84 101  86 100
M  END
> <chiral flag>
0

> <version>
0

> <s_m_source_file>
/data/baiqing/PycharmProjects/Reinvent-master-3.2/result/LINK_invent/BTK/process_docking_weight1_custom_sum_contain_oxygen_bond_distance_aromatic_linkinvent_7_9_3/rearranged_h_0159.sdf

> <i_m_source_file_index>
21

> <r_mmod_Potential_Energy-OPLS-2005>
583.428955078125

> <r_mmod_Stretch_Energy-OPLS-2005>
167.666244506836

> <r_mmod_Bend_Energy-OPLS-2005>
269.864166259766

> <r_mmod_Torsional_Energy-OPLS-2005>
435.805511474609

> <r_mmod_Improper_Torsional_Energy-OPLS-2005>
9.10362434387207

> <r_mmod_Van_der_Waal_Energy-OPLS-2005>
150.76432800293

> <r_mmod_Electrostatic_Energy-OPLS-2005>
-352.934326171875

> <r_mmod_Solvation_Energy-OPLS-2005>
-208.338348388672

> <b_mmod_Minimization_Converged-OPLS-2005>
0

> <r_mmod_RMS_Derivative-OPLS-2005>
2.9002525806427

$$$$
21
                    3D
 Structure written by MMmdl.
158167  0  0  1  0            999 V2000
  -30.5829  -15.0002   20.3909 C   0  0  0  0  0  0
  -30.4215  -12.6340   19.4786 C   0  0  0  0  0  0
  -29.5077  -12.5230   18.2407 C   0  0  0  0  0  0
  -28.0466  -12.3044   18.6708 C   0  0  0  0  0  0
  -27.6149  -13.2592   19.8159 C   0  0  2  0  0  0
  -28.6640  -13.3577   20.9410 C   0  0  0  0  0  0
  -25.2417  -13.8244   20.5723 C   0  0  0  0  0  0
  -24.1752  -13.0445   20.9244 C   0  0  0  0  0  0
  -24.6388  -11.6938   20.8759 C   0  0  0  0  0  0
  -23.9084  -10.4297   21.0400 C   0  0  0  0  0  0
  -24.3638   -9.4215   21.9177 C   0  0  0  0  0  0
  -23.6302   -8.2255   22.0759 C   0  0  0  0  0  0
  -22.4279   -8.0292   21.3552 C   0  0  0  0  0  0
  -21.9917   -9.0263   20.4651 C   0  0  0  0  0  0
  -22.7252  -10.2143   20.3046 C   0  0  0  0  0  0
  -21.6867   -6.0727   22.5273 C   0  0  0  0  0  0
  -21.4021   -6.5629   23.8211 C   0  0  0  0  0  0
  -21.3665   -5.6786   24.9173 C   0  0  0  0  0  0
  -21.6048   -4.3048   24.7219 C   0  0  0  0  0  0
  -21.8822   -3.8138   23.4346 C   0  0  0  0  0  0
  -21.9200   -4.6954   22.3395 C   0  0  0  0  0  0
  -22.7770  -13.5200   21.1892 C   0  0  0  0  0  0
  -22.1662   -4.2135   21.0974 F   0  0  0  0  0  0
  -21.5633   -3.4534   25.7737 F   0  0  0  0  0  0
  -29.9172  -13.7750   20.3019 N   0  0  0  0  0  0
  -26.2833  -12.9487   20.3204 N   0  0  0  0  0  0
  -25.9318  -11.6609   20.5720 N   0  0  0  0  0  0
  -22.0426  -12.8195   22.0445 N   0  0  0  0  0  0
  -25.4071  -15.1976   20.4147 N   0  0  0  0  0  0
  -31.8092  -14.9018   20.3102 O   0  0  0  0  0  0
  -21.6656   -6.8880   21.4240 O   0  0  0  0  0  0
  -22.3440  -14.5492   20.6719 O   0  0  0  0  0  0
  -24.6459  -31.8415   23.1845 C   0  0  0  0  0  0
  -25.9221  -32.4677   23.8247 C   0  0  1  0  0  0
  -27.2105  -27.1056   20.1699 C   0  0  0  0  0  0
  -25.5959  -33.8486   24.2164 N   0  0  0  0  0  0
  -23.4494  -30.4583   21.5318 C   0  0  2  0  0  0
  -24.8959  -28.8682   20.1218 C   0  0  0  0  0  0
  -22.7576  -29.4543   22.4876 C   0  0  0  0  0  0
  -18.0310  -28.1389   22.8475 C   0  0  0  0  0  0
  -24.1493  -36.7248   23.2640 C   0  0  0  0  0  0
  -26.0061  -30.7060   21.3854 C   0  0  0  0  0  0
  -26.0755  -29.3104   20.7347 C   0  0  0  0  0  0
  -27.2381  -28.4480   20.7316 C   0  0  0  0  0  0
  -26.0033  -26.7583   19.5333 C   0  0  0  0  0  0
  -24.8738  -27.6072   19.5042 C   0  0  0  0  0  0
  -23.6766  -29.7776   20.1556 C   0  0  0  0  0  0
  -25.4128  -36.3027   24.0308 C   0  0  1  0  0  0
  -20.5915  -28.3718   23.1236 C   0  0  2  0  0  0
  -20.6792  -26.9424   22.5406 C   0  0  0  0  0  0
  -19.5770  -26.6378   21.5211 C   0  0  0  0  0  0
  -18.1948  -26.7929   22.1620 C   0  0  0  0  0  0
  -19.1563  -28.8876   23.2843 C   0  0  0  0  0  0
  -18.9481  -30.1467   23.8872 C   0  0  0  0  0  0
  -17.6475  -30.6588   24.0555 C   0  0  0  0  0  0
  -25.9080  -34.9401   23.5047 C   0  0  0  0  0  0
  -16.5366  -29.9074   23.6332 C   0  0  0  0  0  0
  -16.7293  -28.6491   23.0361 C   0  0  0  0  0  0
  -26.4530  -31.6561   25.0702 C   0  0  0  0  0  0
  -25.3707  -31.3754   26.1391 C   0  0  0  0  0  0
  -27.0402  -30.2952   24.6302 C   0  0  0  0  0  0
  -27.6054  -32.4328   25.7501 C   0  0  0  0  0  0
  -27.5576  -37.1781   24.8461 C   0  0  0  0  0  0
  -21.4269  -29.3039   22.3614 N   0  0  0  0  0  0
  -26.4287  -37.3742   23.9405 N   0  0  0  0  0  0
  -24.7207  -31.0245   22.0889 N   0  0  0  0  0  0
  -23.4209  -28.8101   23.3044 O   0  0  0  0  0  0
  -28.2845  -26.1444   20.1121 O   0  0  0  0  0  0
  -26.5674  -34.8904   22.4629 O   0  0  0  0  0  0
  -23.5574  -32.1304   23.7051 O   0  0  0  0  0  0
  -29.0114  -20.4023   20.4353 C   0  0  0  0  0  0
  -30.1807  -22.1948   19.2295 C   0  0  0  0  0  0
  -30.0194  -19.3559   20.0650 C   0  0  0  0  0  0
  -31.0744  -19.9131   19.3138 C   0  0  0  0  0  0
  -29.0770  -21.8566   20.0286 C   0  0  0  0  0  0
  -31.1723  -21.2532   18.8727 C   0  0  0  0  0  0
  -32.2193  -18.9784   19.1120 C   0  0  0  0  0  0
  -31.9599  -17.7985   20.0351 C   0  0  0  0  0  0
  -30.4829  -17.7979   20.5439 C   0  0  2  0  0  0
  -32.4294  -22.9199   17.6663 C   0  0  0  0  0  0
  -28.0151  -23.1152   20.2307 C   0  0  0  0  0  0
  -28.2893  -24.7169   20.7565 C   0  0  0  0  0  0
  -29.9285  -16.2941   20.3563 N   0  0  0  0  0  0
  -32.2835  -21.5800   18.1213 O   0  0  0  0  0  0
  -31.4520  -12.7805   19.1536 H   0  0  0  0  0  0
  -30.4188  -11.7055   20.0521 H   0  0  0  0  0  0
  -29.8371  -11.7062   17.5961 H   0  0  0  0  0  0
  -29.5833  -13.4348   17.6454 H   0  0  0  0  0  0
  -27.9549  -11.2695   19.0012 H   0  0  0  0  0  0
  -27.3795  -12.4105   17.8141 H   0  0  0  0  0  0
  -27.5530  -14.2450   19.3547 H   0  0  0  0  0  0
  -28.7783  -12.4065   21.4618 H   0  0  0  0  0  0
  -28.3584  -14.0921   21.6879 H   0  0  0  0  0  0
  -25.2787   -9.5691   22.4758 H   0  0  0  0  0  0
  -24.0014   -7.4644   22.7473 H   0  0  0  0  0  0
  -21.0857   -8.8780   19.8944 H   0  0  0  0  0  0
  -22.3713  -10.9682   19.6155 H   0  0  0  0  0  0
  -21.2012   -7.6134   23.9709 H   0  0  0  0  0  0
  -21.1484   -6.0511   25.9078 H   0  0  0  0  0  0
  -22.0598   -2.7592   23.2850 H   0  0  0  0  0  0
  -22.4062  -11.9881   22.4860 H   0  0  0  0  0  0
  -21.1027  -13.1212   22.2619 H   0  0  0  0  0  0
  -24.6415  -15.8518   20.5343 H   0  0  0  0  0  0
  -26.2538  -15.6413   20.0847 H   0  0  0  0  0  0
  -26.7283  -32.5270   23.0974 H   0  0  0  0  0  0
  -25.0081  -33.9598   25.0293 H   0  0  0  0  0  0
  -22.7523  -31.2836   21.3725 H   0  0  0  0  0  0
  -23.3766  -35.9567   23.3284 H   0  0  0  0  0  0
  -24.3568  -36.8904   22.2056 H   0  0  0  0  0  0
  -23.7240  -37.6428   23.6696 H   0  0  0  0  0  0
  -26.1608  -31.4547   20.6073 H   0  0  0  0  0  0
  -26.8767  -30.7615   22.0279 H   0  0  0  0  0  0
  -28.1481  -28.7924   21.2012 H   0  0  0  0  0  0
  -25.9289  -25.7914   19.0544 H   0  0  0  0  0  0
  -23.9731  -27.2653   19.0142 H   0  0  0  0  0  0
  -23.8177  -30.5450   19.3942 H   0  0  0  0  0  0
  -22.7905  -29.2207   19.8467 H   0  0  0  0  0  0
  -25.1323  -36.1842   25.0799 H   0  0  0  0  0  0
  -20.9999  -28.3305   24.1358 H   0  0  0  0  0  0
  -20.5683  -26.2337   23.3626 H   0  0  0  0  0  0
  -21.6661  -26.7430   22.1203 H   0  0  0  0  0  0
  -19.6930  -25.6282   21.1259 H   0  0  0  0  0  0
  -19.6699  -27.3177   20.6729 H   0  0  0  0  0  0
  -17.4219  -26.6675   21.4017 H   0  0  0  0  0  0
  -18.0342  -26.0069   22.9013 H   0  0  0  0  0  0
  -19.7954  -30.7294   24.2227 H   0  0  0  0  0  0
  -17.5027  -31.6270   24.5156 H   0  0  0  0  0  0
  -15.5362  -30.2971   23.7676 H   0  0  0  0  0  0
  -15.8690  -28.0799   22.7100 H   0  0  0  0  0  0
  -24.5901  -30.7090   25.7700 H   0  0  0  0  0  0
  -24.8885  -32.2942   26.4740 H   0  0  0  0  0  0
  -25.7984  -30.8972   27.0216 H   0  0  0  0  0  0
  -26.3029  -29.6659   24.1309 H   0  0  0  0  0  0
  -27.4005  -29.7261   25.4884 H   0  0  0  0  0  0
  -27.8936  -30.4170   23.9630 H   0  0  0  0  0  0
  -27.2644  -33.3645   26.2025 H   0  0  0  0  0  0
  -28.3909  -32.6864   25.0369 H   0  0  0  0  0  0
  -28.0684  -31.8494   26.5469 H   0  0  0  0  0  0
  -28.2583  -38.0088   24.7524 H   0  0  0  0  0  0
  -28.1090  -36.2622   24.6282 H   0  0  0  0  0  0
  -27.2294  -37.1413   25.8862 H   0  0  0  0  0  0
  -20.9496  -29.8734   21.6765 H   0  0  0  0  0  0
  -26.0153  -38.2804   24.1415 H   0  0  0  0  0  0
  -28.1911  -20.1002   21.0723 H   0  0  0  0  0  0
  -30.2445  -23.2197   18.8922 H   0  0  0  0  0  0
  -33.1730  -19.4555   19.3466 H   0  0  0  0  0  0
  -32.2449  -18.6684   18.0662 H   0  0  0  0  0  0
  -32.6407  -17.8344   20.8872 H   0  0  0  0  0  0
  -32.2504  -16.9525   19.4257 H   0  0  0  0  0  0
  -30.5216  -17.8927   21.6298 H   0  0  0  0  0  0
  -33.3428  -23.0053   17.0782 H   0  0  0  0  0  0
  -32.5114  -23.6182   18.5003 H   0  0  0  0  0  0
  -31.6000  -23.2189   17.0241 H   0  0  0  0  0  0
  -27.2863  -22.7111   20.9344 H   0  0  0  0  0  0
  -27.4525  -23.1869   19.3000 H   0  0  0  0  0  0
  -29.2451  -24.6728   21.2796 H   0  0  0  0  0  0
  -27.5751  -24.8416   21.5708 H   0  0  0  0  0  0
  -28.9228  -16.2356   20.2987 H   0  0  0  0  0  0
  1 25  1  0  0  0
  1 30  2  0  0  0
  1 83  1  0  0  0
  2  3  1  0  0  0
  2 25  1  0  0  0
  2 85  1  0  0  0
  2 86  1  0  0  0
  3  4  1  0  0  0
  3 87  1  0  0  0
  3 88  1  0  0  0
  4  5  1  0  0  0
  4 89  1  0  0  0
  4 90  1  0  0  0
  5  6  1  0  0  0
  5 26  1  0  0  0
  5 91  1  0  0  0
  6 25  1  0  0  0
  6 92  1  0  0  0
  6 93  1  0  0  0
  7  8  2  0  0  0
  7 26  1  0  0  0
  7 29  1  0  0  0
  8  9  1  0  0  0
  8 22  1  0  0  0
  9 10  1  0  0  0
  9 27  2  0  0  0
 10 11  2  0  0  0
 10 15  1  0  0  0
 11 12  1  0  0  0
 11 94  1  0  0  0
 12 13  2  0  0  0
 12 95  1  0  0  0
 13 14  1  0  0  0
 13 31  1  0  0  0
 14 15  2  0  0  0
 14 96  1  0  0  0
 15 97  1  0  0  0
 16 17  2  0  0  0
 16 21  1  0  0  0
 16 31  1  0  0  0
 17 18  1  0  0  0
 17 98  1  0  0  0
 18 19  2  0  0  0
 18 99  1  0  0  0
 19 20  1  0  0  0
 19 24  1  0  0  0
 20 21  2  0  0  0
 20100  1  0  0  0
 21 23  1  0  0  0
 22 28  1  0  0  0
 22 32  2  0  0  0
 26 27  1  0  0  0
 28101  1  0  0  0
 28102  1  0  0  0
 29103  1  0  0  0
 29104  1  0  0  0
 33 34  1  0  0  0
 33 66  1  0  0  0
 33 70  2  0  0  0
 34 36  1  0  0  0
 34 59  1  0  0  0
 34105  1  0  0  0
 35 44  2  0  0  0
 35 45  1  0  0  0
 35 68  1  0  0  0
 36 56  1  0  0  0
 36106  1  0  0  0
 37 39  1  0  0  0
 37 47  1  0  0  0
 37 66  1  0  0  0
 37107  1  0  0  0
 38 43  2  0  0  0
 38 46  1  0  0  0
 38 47  1  0  0  0
 39 64  1  0  0  0
 39 67  2  0  0  0
 40 52  1  0  0  0
 40 53  2  0  0  0
 40 58  1  0  0  0
 41108  1  0  0  0
 41109  1  0  0  0
 41110  1  0  0  0
 41 48  1  0  0  0
 42 43  1  0  0  0
 42 66  1  0  0  0
 42111  1  0  0  0
 42112  1  0  0  0
 43 44  1  0  0  0
 44113  1  0  0  0
 45 46  2  0  0  0
 45114  1  0  0  0
 46115  1  0  0  0
 47116  1  0  0  0
 47117  1  0  0  0
 48 56  1  0  0  0
 48 65  1  0  0  0
 48118  1  0  0  0
 49 50  1  0  0  0
 49 53  1  0  0  0
 49 64  1  0  0  0
 49119  1  0  0  0
 50 51  1  0  0  0
 50120  1  0  0  0
 50121  1  0  0  0
 51 52  1  0  0  0
 51122  1  0  0  0
 51123  1  0  0  0
 52124  1  0  0  0
 52125  1  0  0  0
 53 54  1  0  0  0
 54 55  2  0  0  0
 54126  1  0  0  0
 55 57  1  0  0  0
 55127  1  0  0  0
 56 69  2  0  0  0
 57 58  2  0  0  0
 57128  1  0  0  0
 58129  1  0  0  0
 59 60  1  0  0  0
 59 61  1  0  0  0
 59 62  1  0  0  0
 60130  1  0  0  0
 60131  1  0  0  0
 60132  1  0  0  0
 61133  1  0  0  0
 61134  1  0  0  0
 61135  1  0  0  0
 62136  1  0  0  0
 62137  1  0  0  0
 62138  1  0  0  0
 63 65  1  0  0  0
 63139  1  0  0  0
 63140  1  0  0  0
 63141  1  0  0  0
 64142  1  0  0  0
 65143  1  0  0  0
 68 82  1  0  0  0
 71 73  2  0  0  0
 71 75  1  0  0  0
 71144  1  0  0  0
 72 75  2  0  0  0
 72 76  1  0  0  0
 72145  1  0  0  0
 73 74  1  0  0  0
 73 79  1  0  0  0
 74 76  2  0  0  0
 74 77  1  0  0  0
 75 81  1  0  0  0
 76 84  1  0  0  0
 77 78  1  0  0  0
 77146  1  0  0  0
 77147  1  0  0  0
 78 79  1  0  0  0
 78148  1  0  0  0
 78149  1  0  0  0
 79 83  1  0  0  0
 79150  1  0  0  0
 80 84  1  0  0  0
 80151  1  0  0  0
 80152  1  0  0  0
 80153  1  0  0  0
 81 82  1  0  0  0
 81154  1  0  0  0
 81155  1  0  0  0
 82156  1  0  0  0
 82157  1  0  0  0
 83158  1  0  0  0
M  ISO  4   1 100  68 101  82 101  83 100
M  END
> <chiral flag>
0

> <version>
0

> <s_m_source_file>
/data/baiqing/PycharmProjects/Reinvent-master-3.2/result/LINK_invent/BTK/process_docking_weight1_custom_sum_contain_oxygen_bond_distance_aromatic_linkinvent_7_9_3/rearranged_h_0159.sdf

> <i_m_source_file_index>
22

> <r_mmod_Potential_Energy-OPLS-2005>
761.7392578125

> <r_mmod_Stretch_Energy-OPLS-2005>
319.66015625

> <r_mmod_Bend_Energy-OPLS-2005>
424.813293457031

> <r_mmod_Torsional_Energy-OPLS-2005>
262.718017578125

> <r_mmod_Improper_Torsional_Energy-OPLS-2005>
8.5413293838501

> <r_mmod_Van_der_Waal_Energy-OPLS-2005>
144.925384521484

> <r_mmod_Electrostatic_Energy-OPLS-2005>
-407.308715820312

> <r_mmod_Solvation_Energy-OPLS-2005>
-215.858749389648

> <b_mmod_Minimization_Converged-OPLS-2005>
0

> <r_mmod_RMS_Derivative-OPLS-2005>
1.51445996761322

$$$$
22
                    3D
 Structure written by MMmdl.
168177  0  0  1  0            999 V2000
  -30.6438  -14.5411   20.5261 C   0  0  0  0  0  0
  -30.4334  -12.3344   19.4284 C   0  0  0  0  0  0
  -29.4995  -12.5036   18.2101 C   0  0  0  0  0  0
  -28.0202  -12.3578   18.6240 C   0  0  0  0  0  0
  -27.6603  -13.2049   19.8737 C   0  0  2  0  0  0
  -28.7057  -13.0023   20.9954 C   0  0  0  0  0  0
  -25.2609  -13.8148   20.5673 C   0  0  0  0  0  0
  -24.1856  -13.0427   20.9168 C   0  0  0  0  0  0
  -24.6405  -11.6896   20.8742 C   0  0  0  0  0  0
  -23.9068  -10.4292   21.0414 C   0  0  0  0  0  0
  -24.3614   -9.4208   21.9196 C   0  0  0  0  0  0
  -23.6283   -8.2244   22.0766 C   0  0  0  0  0  0
  -22.4271   -8.0281   21.3546 C   0  0  0  0  0  0
  -21.9908   -9.0256   20.4647 C   0  0  0  0  0  0
  -22.7244  -10.2133   20.3058 C   0  0  0  0  0  0
  -21.6848   -6.0737   22.5276 C   0  0  0  0  0  0
  -21.4009   -6.5644   23.8213 C   0  0  0  0  0  0
  -21.3660   -5.6797   24.9173 C   0  0  0  0  0  0
  -21.6044   -4.3059   24.7228 C   0  0  0  0  0  0
  -21.8814   -3.8152   23.4343 C   0  0  0  0  0  0
  -21.9187   -4.6966   22.3404 C   0  0  0  0  0  0
  -22.7883  -13.5241   21.1837 C   0  0  0  0  0  0
  -22.1654   -4.2156   21.0976 F   0  0  0  0  0  0
  -21.5634   -3.4541   25.7738 F   0  0  0  0  0  0
  -30.0273  -13.3281   20.4353 N   0  0  0  0  0  0
  -26.3024  -12.9307   20.3366 N   0  0  0  0  0  0
  -25.9330  -11.6470   20.5771 N   0  0  0  0  0  0
  -22.0518  -12.8238   22.0391 N   0  0  0  0  0  0
  -25.4328  -15.1864   20.4077 N   0  0  0  0  0  0
  -31.7896  -14.7390   20.1143 O   0  0  0  0  0  0
  -21.6627   -6.8879   21.4240 O   0  0  0  0  0  0
  -22.3580  -14.5563   20.6709 O   0  0  0  0  0  0
  -24.6239  -31.8644   23.2063 C   0  0  0  0  0  0
  -25.9125  -32.4791   23.8378 C   0  0  1  0  0  0
  -27.2296  -27.3835   20.0841 C   0  0  0  0  0  0
  -25.5980  -33.8594   24.2317 N   0  0  0  0  0  0
  -23.4121  -30.4935   21.5444 C   0  0  2  0  0  0
  -24.8526  -28.9480   20.1127 C   0  0  0  0  0  0
  -22.7431  -29.4713   22.4925 C   0  0  0  0  0  0
  -18.0297  -28.1417   22.8496 C   0  0  0  0  0  0
  -24.1503  -36.7285   23.2642 C   0  0  0  0  0  0
  -25.9471  -30.8095   21.3693 C   0  0  0  0  0  0
  -26.0176  -29.4421   20.7110 C   0  0  0  0  0  0
  -27.2057  -28.6660   20.6962 C   0  0  0  0  0  0
  -26.0339  -26.9056   19.5045 C   0  0  0  0  0  0
  -24.8567  -27.6776   19.5120 C   0  0  0  0  0  0
  -23.6221  -29.8287   20.1584 C   0  0  0  0  0  0
  -25.4134  -36.3084   24.0329 C   0  0  1  0  0  0
  -20.5888  -28.3745   23.1245 C   0  0  2  0  0  0
  -20.6816  -26.9473   22.5392 C   0  0  0  0  0  0
  -19.5780  -26.6407   21.5216 C   0  0  0  0  0  0
  -18.1943  -26.7972   22.1600 C   0  0  0  0  0  0
  -19.1547  -28.8894   23.2874 C   0  0  0  0  0  0
  -18.9482  -30.1489   23.8900 C   0  0  0  0  0  0
  -17.6485  -30.6610   24.0591 C   0  0  0  0  0  0
  -25.9061  -34.9455   23.5104 C   0  0  0  0  0  0
  -16.5380  -29.9112   23.6360 C   0  0  0  0  0  0
  -16.7285  -28.6532   23.0377 C   0  0  0  0  0  0
  -26.4534  -31.6596   25.0735 C   0  0  0  0  0  0
  -25.3774  -31.3699   26.1452 C   0  0  0  0  0  0
  -27.0441  -30.3046   24.6192 C   0  0  0  0  0  0
  -27.6094  -32.4337   25.7503 C   0  0  0  0  0  0
  -27.5592  -37.1807   24.8476 C   0  0  0  0  0  0
  -21.4161  -29.3101   22.3627 N   0  0  0  0  0  0
  -26.4309  -37.3780   23.9414 N   0  0  0  0  0  0
  -24.6786  -31.0718   22.0971 N   0  0  0  0  0  0
  -23.4165  -28.8269   23.3015 O   0  0  0  0  0  0
  -28.3913  -26.6204   20.0988 O   0  0  0  0  0  0
  -26.5591  -34.8912   22.4647 O   0  0  0  0  0  0
  -23.5416  -32.1425   23.7426 O   0  0  0  0  0  0
  -29.2761  -22.1918   20.9478 C   0  0  0  0  0  0
  -29.1493  -23.5843   20.7008 C   0  0  0  0  0  0
  -27.9675  -23.0889   18.6342 C   0  0  0  0  0  0
  -28.5254  -24.0668   19.5180 C   0  0  0  0  0  0
  -28.0708  -21.6829   18.9117 C   0  0  0  0  0  0
  -28.7862  -21.2100   20.0524 C   0  0  0  0  0  0
  -29.8680  -17.6026   19.4159 C   0  0  0  0  0  0
  -29.0316  -17.7753   21.7477 C   0  0  0  0  0  0
  -29.9479  -19.1574   19.3609 C   0  0  0  0  0  0
  -29.1469  -19.3239   21.6597 C   0  0  0  0  0  0
  -30.0480  -17.0279   20.8449 C   0  0  0  0  0  0
  -29.7307  -24.5467   21.7214 C   0  0  0  0  0  0
  -27.2786  -23.5647   17.3527 C   0  0  0  0  0  0
  -27.3835  -20.6768   17.9842 C   0  0  0  0  0  0
  -28.6074  -25.5797   19.1070 C   0  0  0  0  0  0
  -29.0063  -19.8128   20.2818 N   0  0  0  0  0  0
  -29.8342  -15.5575   20.9116 N   0  0  0  0  0  0
  -31.4770  -12.4476   19.1274 H   0  0  0  0  0  0
  -30.3482  -11.3271   19.8392 H   0  0  0  0  0  0
  -29.7453  -11.7704   17.4413 H   0  0  0  0  0  0
  -29.6577  -13.4826   17.7560 H   0  0  0  0  0  0
  -27.8365  -11.3023   18.8282 H   0  0  0  0  0  0
  -27.3689  -12.6226   17.7906 H   0  0  0  0  0  0
  -27.6959  -14.2484   19.5626 H   0  0  0  0  0  0
  -28.6994  -11.9685   21.3445 H   0  0  0  0  0  0
  -28.4718  -13.6067   21.8737 H   0  0  0  0  0  0
  -25.2752   -9.5672   22.4779 H   0  0  0  0  0  0
  -23.9988   -7.4634   22.7498 H   0  0  0  0  0  0
  -21.0838   -8.8771   19.8956 H   0  0  0  0  0  0
  -22.3711  -10.9668   19.6167 H   0  0  0  0  0  0
  -21.2000   -7.6143   23.9712 H   0  0  0  0  0  0
  -21.1488   -6.0529   25.9074 H   0  0  0  0  0  0
  -22.0593   -2.7607   23.2842 H   0  0  0  0  0  0
  -22.4105  -11.9857   22.4722 H   0  0  0  0  0  0
  -21.1152  -13.1307   22.2637 H   0  0  0  0  0  0
  -24.6647  -15.8392   20.5148 H   0  0  0  0  0  0
  -26.2759  -15.6240   20.0570 H   0  0  0  0  0  0
  -26.7207  -32.5450   23.1139 H   0  0  0  0  0  0
  -25.0319  -33.9775   25.0590 H   0  0  0  0  0  0
  -22.7079  -31.3157   21.4028 H   0  0  0  0  0  0
  -23.3783  -35.9593   23.3281 H   0  0  0  0  0  0
  -24.3606  -36.8937   22.2064 H   0  0  0  0  0  0
  -23.7235  -37.6468   23.6684 H   0  0  0  0  0  0
  -26.0848  -31.5779   20.6068 H   0  0  0  0  0  0
  -26.8238  -30.8467   22.0031 H   0  0  0  0  0  0
  -28.1062  -29.0492   21.1554 H   0  0  0  0  0  0
  -25.9849  -25.9218   19.0660 H   0  0  0  0  0  0
  -23.9546  -27.2825   19.0646 H   0  0  0  0  0  0
  -23.7470  -30.6062   19.4033 H   0  0  0  0  0  0
  -22.7388  -29.2660   19.8510 H   0  0  0  0  0  0
  -25.1319  -36.1947   25.0822 H   0  0  0  0  0  0
  -21.0005  -28.3369   24.1354 H   0  0  0  0  0  0
  -20.5783  -26.2384   23.3621 H   0  0  0  0  0  0
  -21.6685  -26.7545   22.1157 H   0  0  0  0  0  0
  -19.6962  -25.6307   21.1276 H   0  0  0  0  0  0
  -19.6709  -27.3200   20.6732 H   0  0  0  0  0  0
  -17.4241  -26.6782   21.3963 H   0  0  0  0  0  0
  -18.0289  -26.0074   22.8940 H   0  0  0  0  0  0
  -19.7957  -30.7319   24.2253 H   0  0  0  0  0  0
  -17.5039  -31.6280   24.5212 H   0  0  0  0  0  0
  -15.5390  -30.3030   23.7669 H   0  0  0  0  0  0
  -15.8689  -28.0848   22.7111 H   0  0  0  0  0  0
  -24.6018  -30.6969   25.7775 H   0  0  0  0  0  0
  -24.8890  -32.2842   26.4830 H   0  0  0  0  0  0
  -25.8112  -30.8939   27.0254 H   0  0  0  0  0  0
  -26.3031  -29.6693   24.1326 H   0  0  0  0  0  0
  -27.4307  -29.7404   25.4693 H   0  0  0  0  0  0
  -27.8801  -30.4386   23.9323 H   0  0  0  0  0  0
  -27.2756  -33.3689   26.2010 H   0  0  0  0  0  0
  -28.3949  -32.6808   25.0348 H   0  0  0  0  0  0
  -28.0707  -31.8497   26.5478 H   0  0  0  0  0  0
  -28.2598  -38.0114   24.7556 H   0  0  0  0  0  0
  -28.1108  -36.2656   24.6277 H   0  0  0  0  0  0
  -27.2311  -37.1419   25.8876 H   0  0  0  0  0  0
  -20.9346  -29.8784   21.6796 H   0  0  0  0  0  0
  -26.0181  -38.2850   24.1406 H   0  0  0  0  0  0
  -29.7972  -21.8803   21.8414 H   0  0  0  0  0  0
  -30.6273  -17.1843   18.7537 H   0  0  0  0  0  0
  -28.9063  -17.2845   19.0094 H   0  0  0  0  0  0
  -28.0160  -17.4842   21.4715 H   0  0  0  0  0  0
  -29.1597  -17.4649   22.7853 H   0  0  0  0  0  0
  -29.7761  -19.4860   18.3356 H   0  0  0  0  0  0
  -30.9598  -19.4768   19.6147 H   0  0  0  0  0  0
  -30.1151  -19.6307   22.0584 H   0  0  0  0  0  0
  -28.3848  -19.7787   22.2948 H   0  0  0  0  0  0
  -31.0590  -17.2472   21.1935 H   0  0  0  0  0  0
  -30.2139  -24.0218   22.5459 H   0  0  0  0  0  0
  -28.9350  -25.1586   22.1472 H   0  0  0  0  0  0
  -30.4715  -25.2019   21.2630 H   0  0  0  0  0  0
  -28.0112  -23.9977   16.6698 H   0  0  0  0  0  0
  -26.5283  -24.3211   17.5788 H   0  0  0  0  0  0
  -26.7533  -22.7932   16.7964 H   0  0  0  0  0  0
  -26.3303  -20.9283   17.8610 H   0  0  0  0  0  0
  -27.3872  -19.6567   18.3655 H   0  0  0  0  0  0
  -27.8572  -20.6618   17.0024 H   0  0  0  0  0  0
  -28.0437  -25.8119   18.2063 H   0  0  0  0  0  0
  -29.6391  -25.7178   18.7818 H   0  0  0  0  0  0
  -28.9214  -15.2596   21.2208 H   0  0  0  0  0  0
  1 25  1  0  0  0
  1 30  2  0  0  0
  1 87  1  0  0  0
  2  3  1  0  0  0
  2 25  1  0  0  0
  2 88  1  0  0  0
  2 89  1  0  0  0
  3  4  1  0  0  0
  3 90  1  0  0  0
  3 91  1  0  0  0
  4  5  1  0  0  0
  4 92  1  0  0  0
  4 93  1  0  0  0
  5  6  1  0  0  0
  5 26  1  0  0  0
  5 94  1  0  0  0
  6 25  1  0  0  0
  6 95  1  0  0  0
  6 96  1  0  0  0
  7  8  2  0  0  0
  7 26  1  0  0  0
  7 29  1  0  0  0
  8  9  1  0  0  0
  8 22  1  0  0  0
  9 10  1  0  0  0
  9 27  2  0  0  0
 10 11  2  0  0  0
 10 15  1  0  0  0
 11 12  1  0  0  0
 11 97  1  0  0  0
 12 13  2  0  0  0
 12 98  1  0  0  0
 13 14  1  0  0  0
 13 31  1  0  0  0
 14 15  2  0  0  0
 14 99  1  0  0  0
 15100  1  0  0  0
 16 17  2  0  0  0
 16 21  1  0  0  0
 16 31  1  0  0  0
 17 18  1  0  0  0
 17101  1  0  0  0
 18 19  2  0  0  0
 18102  1  0  0  0
 19 20  1  0  0  0
 19 24  1  0  0  0
 20 21  2  0  0  0
 20103  1  0  0  0
 21 23  1  0  0  0
 22 28  1  0  0  0
 22 32  2  0  0  0
 26 27  1  0  0  0
 28104  1  0  0  0
 28105  1  0  0  0
 29106  1  0  0  0
 29107  1  0  0  0
 33 34  1  0  0  0
 33 66  1  0  0  0
 33 70  2  0  0  0
 34 36  1  0  0  0
 34 59  1  0  0  0
 34108  1  0  0  0
 35 44  2  0  0  0
 35 45  1  0  0  0
 35 68  1  0  0  0
 36 56  1  0  0  0
 36109  1  0  0  0
 37 39  1  0  0  0
 37 47  1  0  0  0
 37 66  1  0  0  0
 37110  1  0  0  0
 38 43  2  0  0  0
 38 46  1  0  0  0
 38 47  1  0  0  0
 39 64  1  0  0  0
 39 67  2  0  0  0
 40 52  1  0  0  0
 40 53  2  0  0  0
 40 58  1  0  0  0
 41111  1  0  0  0
 41112  1  0  0  0
 41113  1  0  0  0
 41 48  1  0  0  0
 42 43  1  0  0  0
 42 66  1  0  0  0
 42114  1  0  0  0
 42115  1  0  0  0
 43 44  1  0  0  0
 44116  1  0  0  0
 45 46  2  0  0  0
 45117  1  0  0  0
 46118  1  0  0  0
 47119  1  0  0  0
 47120  1  0  0  0
 48 56  1  0  0  0
 48 65  1  0  0  0
 48121  1  0  0  0
 49 50  1  0  0  0
 49 53  1  0  0  0
 49 64  1  0  0  0
 49122  1  0  0  0
 50 51  1  0  0  0
 50123  1  0  0  0
 50124  1  0  0  0
 51 52  1  0  0  0
 51125  1  0  0  0
 51126  1  0  0  0
 52127  1  0  0  0
 52128  1  0  0  0
 53 54  1  0  0  0
 54 55  2  0  0  0
 54129  1  0  0  0
 55 57  1  0  0  0
 55130  1  0  0  0
 56 69  2  0  0  0
 57 58  2  0  0  0
 57131  1  0  0  0
 58132  1  0  0  0
 59 60  1  0  0  0
 59 61  1  0  0  0
 59 62  1  0  0  0
 60133  1  0  0  0
 60134  1  0  0  0
 60135  1  0  0  0
 61136  1  0  0  0
 61137  1  0  0  0
 61138  1  0  0  0
 62139  1  0  0  0
 62140  1  0  0  0
 62141  1  0  0  0
 63 65  1  0  0  0
 63142  1  0  0  0
 63143  1  0  0  0
 63144  1  0  0  0
 64145  1  0  0  0
 65146  1  0  0  0
 68 85  1  0  0  0
 71 72  2  0  0  0
 71 76  1  0  0  0
 71147  1  0  0  0
 72 74  1  0  0  0
 72 82  1  0  0  0
 73 74  2  0  0  0
 73 75  1  0  0  0
 73 83  1  0  0  0
 74 85  1  0  0  0
 75 76  2  0  0  0
 75 84  1  0  0  0
 76 86  1  0  0  0
 77 79  1  0  0  0
 77 81  1  0  0  0
 77148  1  0  0  0
 77149  1  0  0  0
 78 80  1  0  0  0
 78 81  1  0  0  0
 78150  1  0  0  0
 78151  1  0  0  0
 79 86  1  0  0  0
 79152  1  0  0  0
 79153  1  0  0  0
 80 86  1  0  0  0
 80154  1  0  0  0
 80155  1  0  0  0
 81 87  1  0  0  0
 81156  1  0  0  0
 82157  1  0  0  0
 82158  1  0  0  0
 82159  1  0  0  0
 83160  1  0  0  0
 83161  1  0  0  0
 83162  1  0  0  0
 84163  1  0  0  0
 84164  1  0  0  0
 84165  1  0  0  0
 85166  1  0  0  0
 85167  1  0  0  0
 87168  1  0  0  0
M  ISO  4   1 100  68 101  85 101  87 100
M  END
> <chiral flag>
0

> <version>
0

> <s_m_source_file>
/data/baiqing/PycharmProjects/Reinvent-master-3.2/result/LINK_invent/BTK/process_docking_weight1_custom_sum_contain_oxygen_bond_distance_aromatic_linkinvent_7_9_3/rearranged_h_0159.sdf

> <i_m_source_file_index>
23

> <r_mmod_Potential_Energy-OPLS-2005>
43.0804061889648

> <r_mmod_Stretch_Energy-OPLS-2005>
59.3717880249023

> <r_mmod_Bend_Energy-OPLS-2005>
123.987693786621

> <r_mmod_Torsional_Energy-OPLS-2005>
247.579879760742

> <r_mmod_Improper_Torsional_Energy-OPLS-2005>
9.05451679229736

> <r_mmod_Van_der_Waal_Energy-OPLS-2005>
166.106369018555

> <r_mmod_Electrostatic_Energy-OPLS-2005>
-376.523620605469

> <r_mmod_Solvation_Energy-OPLS-2005>
-209.73876953125

> <b_mmod_Minimization_Converged-OPLS-2005>
0

> <r_mmod_RMS_Derivative-OPLS-2005>
2.19613552093506

$$$$
23
                    3D
 Structure written by MMmdl.
167176  0  0  1  0            999 V2000
  -30.6495  -14.8728   20.4405 C   0  0  0  0  0  0
  -30.4117  -12.5525   19.4825 C   0  0  0  0  0  0
  -29.5001  -12.5193   18.2394 C   0  0  0  0  0  0
  -28.0346  -12.3232   18.6635 C   0  0  0  0  0  0
  -27.6238  -13.2549   19.8350 C   0  0  2  0  0  0
  -28.6728  -13.2906   20.9665 C   0  0  0  0  0  0
  -25.2430  -13.8229   20.5730 C   0  0  0  0  0  0
  -24.1757  -13.0442   20.9241 C   0  0  0  0  0  0
  -24.6385  -11.6930   20.8771 C   0  0  0  0  0  0
  -23.9076  -10.4292   21.0415 C   0  0  0  0  0  0
  -24.3622   -9.4205   21.9193 C   0  0  0  0  0  0
  -23.6296   -8.2237   22.0755 C   0  0  0  0  0  0
  -22.4278   -8.0275   21.3543 C   0  0  0  0  0  0
  -21.9916   -9.0255   20.4647 C   0  0  0  0  0  0
  -22.7250  -10.2133   20.3060 C   0  0  0  0  0  0
  -21.6855   -6.0727   22.5277 C   0  0  0  0  0  0
  -21.4015   -6.5634   23.8209 C   0  0  0  0  0  0
  -21.3662   -5.6791   24.9175 C   0  0  0  0  0  0
  -21.6047   -4.3052   24.7227 C   0  0  0  0  0  0
  -21.8819   -3.8140   23.4350 C   0  0  0  0  0  0
  -21.9191   -4.6954   22.3405 C   0  0  0  0  0  0
  -22.7777  -13.5209   21.1891 C   0  0  0  0  0  0
  -22.1663   -4.2138   21.0982 F   0  0  0  0  0  0
  -21.5629   -3.4538   25.7741 F   0  0  0  0  0  0
  -29.9451  -13.6766   20.3461 N   0  0  0  0  0  0
  -26.2864  -12.9483   20.3276 N   0  0  0  0  0  0
  -25.9323  -11.6604   20.5770 N   0  0  0  0  0  0
  -22.0428  -12.8193   22.0443 N   0  0  0  0  0  0
  -25.4083  -15.1953   20.4145 N   0  0  0  0  0  0
  -31.8615  -14.7985   20.2081 O   0  0  0  0  0  0
  -21.6641   -6.8873   21.4240 O   0  0  0  0  0  0
  -22.3461  -14.5513   20.6733 O   0  0  0  0  0  0
  -24.6416  -31.8481   23.1936 C   0  0  0  0  0  0
  -25.9201  -32.4715   23.8308 C   0  0  1  0  0  0
  -27.2029  -27.1632   20.1392 C   0  0  0  0  0  0
  -25.5966  -33.8519   24.2224 N   0  0  0  0  0  0
  -23.4426  -30.4722   21.5388 C   0  0  2  0  0  0
  -24.8901  -28.9141   20.1058 C   0  0  0  0  0  0
  -22.7561  -29.4568   22.4869 C   0  0  0  0  0  0
  -18.0303  -28.1391   22.8481 C   0  0  0  0  0  0
  -24.1492  -36.7259   23.2639 C   0  0  0  0  0  0
  -25.9990  -30.7290   21.3925 C   0  0  0  0  0  0
  -26.0677  -29.3456   20.7301 C   0  0  0  0  0  0
  -27.2256  -28.4833   20.7372 C   0  0  0  0  0  0
  -26.0055  -26.8459   19.4541 C   0  0  0  0  0  0
  -24.8706  -27.6768   19.4527 C   0  0  0  0  0  0
  -23.6670  -29.8119   20.1544 C   0  0  0  0  0  0
  -25.4121  -36.3040   24.0321 C   0  0  1  0  0  0
  -20.5915  -28.3712   23.1243 C   0  0  2  0  0  0
  -20.6789  -26.9421   22.5400 C   0  0  0  0  0  0
  -19.5760  -26.6380   21.5211 C   0  0  0  0  0  0
  -18.1940  -26.7931   22.1621 C   0  0  0  0  0  0
  -19.1558  -28.8869   23.2854 C   0  0  0  0  0  0
  -18.9475  -30.1469   23.8875 C   0  0  0  0  0  0
  -17.6471  -30.6591   24.0552 C   0  0  0  0  0  0
  -25.9072  -34.9415   23.5073 C   0  0  0  0  0  0
  -16.5361  -29.9079   23.6336 C   0  0  0  0  0  0
  -16.7286  -28.6497   23.0360 C   0  0  0  0  0  0
  -26.4528  -31.6569   25.0736 C   0  0  0  0  0  0
  -25.3721  -31.3753   26.1436 C   0  0  0  0  0  0
  -27.0389  -30.2967   24.6303 C   0  0  0  0  0  0
  -27.6064  -32.4331   25.7519 C   0  0  0  0  0  0
  -27.5578  -37.1786   24.8462 C   0  0  0  0  0  0
  -21.4254  -29.3049   22.3621 N   0  0  0  0  0  0
  -26.4284  -37.3754   23.9412 N   0  0  0  0  0  0
  -24.7139  -31.0370   22.0964 N   0  0  0  0  0  0
  -23.4223  -28.8103   23.2995 O   0  0  0  0  0  0
  -28.2267  -26.1563   20.2386 O   0  0  0  0  0  0
  -26.5639  -34.8902   22.4642 O   0  0  0  0  0  0
  -23.5539  -32.1346   23.7172 O   0  0  0  0  0  0
  -29.7075  -23.0355   21.2208 C   0  0  0  0  0  0
  -28.6128  -23.2909   20.3298 C   0  0  0  0  0  0
  -29.9868  -21.6719   21.2688 C   0  0  0  0  0  0
  -28.2879  -21.9816   19.8981 C   0  0  0  0  0  0
  -28.9364  -18.3628   21.4666 C   0  0  0  0  0  0
  -30.1790  -18.7023   19.3681 C   0  0  0  0  0  0
  -28.9107  -16.7733   21.1387 C   0  0  0  0  0  0
  -30.8734  -17.3318   19.8401 C   0  0  0  0  0  0
  -29.0613  -19.3665   20.2501 C   0  0  0  0  0  0
  -30.4440  -24.0927   22.0061 C   0  0  0  0  0  0
  -31.0554  -20.9819   22.0588 C   0  0  0  0  0  0
  -27.7048  -21.2946   17.5319 C   0  0  0  0  0  0
  -27.8437  -24.6911   19.9421 C   0  0  0  0  0  0
  -27.1924  -21.6220   18.9388 C   0  0  0  0  0  0
  -29.1039  -20.9372   20.4689 N   0  0  0  0  0  0
  -30.0587  -16.1752   20.3738 N   0  0  0  0  0  0
  -31.4505  -12.6596   19.1676 H   0  0  0  0  0  0
  -30.3661  -11.6047   20.0210 H   0  0  0  0  0  0
  -29.8062  -11.7206   17.5621 H   0  0  0  0  0  0
  -29.6017  -13.4529   17.6831 H   0  0  0  0  0  0
  -27.9191  -11.2808   18.9641 H   0  0  0  0  0  0
  -27.3692  -12.4704   17.8119 H   0  0  0  0  0  0
  -27.5858  -14.2582   19.4091 H   0  0  0  0  0  0
  -28.7531  -12.3226   21.4636 H   0  0  0  0  0  0
  -28.3842  -14.0077   21.7346 H   0  0  0  0  0  0
  -25.2758   -9.5682   22.4781 H   0  0  0  0  0  0
  -23.9998   -7.4626   22.7475 H   0  0  0  0  0  0
  -21.0842   -8.8783   19.8958 H   0  0  0  0  0  0
  -22.3708  -10.9675   19.6170 H   0  0  0  0  0  0
  -21.2011   -7.6143   23.9711 H   0  0  0  0  0  0
  -21.1490   -6.0521   25.9079 H   0  0  0  0  0  0
  -22.0595   -2.7600   23.2853 H   0  0  0  0  0  0
  -22.4046  -11.9854   22.4823 H   0  0  0  0  0  0
  -21.1050  -13.1223   22.2657 H   0  0  0  0  0  0
  -24.6389  -15.8466   20.5244 H   0  0  0  0  0  0
  -26.2556  -15.6352   20.0805 H   0  0  0  0  0  0
  -26.7265  -32.5330   23.1036 H   0  0  0  0  0  0
  -25.0126  -33.9641   25.0378 H   0  0  0  0  0  0
  -22.7431  -31.2977   21.3905 H   0  0  0  0  0  0
  -23.3762  -35.9581   23.3279 H   0  0  0  0  0  0
  -24.3587  -36.8908   22.2059 H   0  0  0  0  0  0
  -23.7231  -37.6445   23.6683 H   0  0  0  0  0  0
  -26.1553  -31.4869   20.6236 H   0  0  0  0  0  0
  -26.8699  -30.7745   22.0348 H   0  0  0  0  0  0
  -28.1166  -28.8010   21.2606 H   0  0  0  0  0  0
  -25.8914  -25.9123   18.9259 H   0  0  0  0  0  0
  -23.9754  -27.3468   18.9436 H   0  0  0  0  0  0
  -23.8010  -30.5901   19.4024 H   0  0  0  0  0  0
  -22.7826  -29.2536   19.8429 H   0  0  0  0  0  0
  -25.1305  -36.1873   25.0813 H   0  0  0  0  0  0
  -21.0006  -28.3295   24.1364 H   0  0  0  0  0  0
  -20.5691  -26.2324   23.3615 H   0  0  0  0  0  0
  -21.6656  -26.7436   22.1195 H   0  0  0  0  0  0
  -19.6921  -25.6285   21.1256 H   0  0  0  0  0  0
  -19.6699  -27.3175   20.6730 H   0  0  0  0  0  0
  -17.4215  -26.6679   21.4018 H   0  0  0  0  0  0
  -18.0336  -26.0079   22.9023 H   0  0  0  0  0  0
  -19.7950  -30.7289   24.2241 H   0  0  0  0  0  0
  -17.5023  -31.6271   24.5151 H   0  0  0  0  0  0
  -15.5359  -30.2969   23.7678 H   0  0  0  0  0  0
  -15.8689  -28.0805   22.7089 H   0  0  0  0  0  0
  -24.5906  -30.7093   25.7764 H   0  0  0  0  0  0
  -24.8902  -32.2932   26.4813 H   0  0  0  0  0  0
  -25.8015  -30.8965   27.0245 H   0  0  0  0  0  0
  -26.3002  -29.6696   24.1296 H   0  0  0  0  0  0
  -27.3990  -29.7260   25.4873 H   0  0  0  0  0  0
  -27.8920  -30.4204   23.9628 H   0  0  0  0  0  0
  -27.2660  -33.3650   26.2047 H   0  0  0  0  0  0
  -28.3903  -32.6861   25.0369 H   0  0  0  0  0  0
  -28.0697  -31.8488   26.5478 H   0  0  0  0  0  0
  -28.2576  -38.0102   24.7528 H   0  0  0  0  0  0
  -28.1093  -36.2632   24.6263 H   0  0  0  0  0  0
  -27.2302  -37.1403   25.8865 H   0  0  0  0  0  0
  -20.9455  -29.8781   21.6821 H   0  0  0  0  0  0
  -26.0151  -38.2822   24.1417 H   0  0  0  0  0  0
  -29.7533  -18.5441   22.1633 H   0  0  0  0  0  0
  -28.0322  -18.6160   22.0212 H   0  0  0  0  0  0
  -29.7549  -18.5323   18.3781 H   0  0  0  0  0  0
  -30.9662  -19.4373   19.1997 H   0  0  0  0  0  0
  -28.0035  -16.5486   20.5794 H   0  0  0  0  0  0
  -28.8206  -16.2374   22.0837 H   0  0  0  0  0  0
  -31.5971  -17.5798   20.6187 H   0  0  0  0  0  0
  -31.4738  -16.9790   18.9990 H   0  0  0  0  0  0
  -28.1397  -19.1909   19.6979 H   0  0  0  0  0  0
  -29.9656  -25.0669   21.9090 H   0  0  0  0  0  0
  -31.4720  -24.1833   21.6552 H   0  0  0  0  0  0
  -30.4650  -23.8360   23.0658 H   0  0  0  0  0  0
  -31.8592  -21.6703   22.3190 H   0  0  0  0  0  0
  -31.5065  -20.1625   21.5001 H   0  0  0  0  0  0
  -30.6535  -20.5821   22.9899 H   0  0  0  0  0  0
  -26.8766  -21.0668   16.8607 H   0  0  0  0  0  0
  -28.3730  -20.4340   17.5377 H   0  0  0  0  0  0
  -28.2516  -22.1379   17.1095 H   0  0  0  0  0  0
  -26.8575  -24.5366   20.3811 H   0  0  0  0  0  0
  -27.7083  -24.6352   18.8615 H   0  0  0  0  0  0
  -26.4830  -22.4466   18.8676 H   0  0  0  0  0  0
  -26.6095  -20.7872   19.3283 H   0  0  0  0  0  0
  1 25  1  0  0  0
  1 30  2  0  0  0
  1 86  1  0  0  0
  2  3  1  0  0  0
  2 25  1  0  0  0
  2 87  1  0  0  0
  2 88  1  0  0  0
  3  4  1  0  0  0
  3 89  1  0  0  0
  3 90  1  0  0  0
  4  5  1  0  0  0
  4 91  1  0  0  0
  4 92  1  0  0  0
  5  6  1  0  0  0
  5 26  1  0  0  0
  5 93  1  0  0  0
  6 25  1  0  0  0
  6 94  1  0  0  0
  6 95  1  0  0  0
  7  8  2  0  0  0
  7 26  1  0  0  0
  7 29  1  0  0  0
  8  9  1  0  0  0
  8 22  1  0  0  0
  9 10  1  0  0  0
  9 27  2  0  0  0
 10 11  2  0  0  0
 10 15  1  0  0  0
 11 12  1  0  0  0
 11 96  1  0  0  0
 12 13  2  0  0  0
 12 97  1  0  0  0
 13 14  1  0  0  0
 13 31  1  0  0  0
 14 15  2  0  0  0
 14 98  1  0  0  0
 15 99  1  0  0  0
 16 17  2  0  0  0
 16 21  1  0  0  0
 16 31  1  0  0  0
 17 18  1  0  0  0
 17100  1  0  0  0
 18 19  2  0  0  0
 18101  1  0  0  0
 19 20  1  0  0  0
 19 24  1  0  0  0
 20 21  2  0  0  0
 20102  1  0  0  0
 21 23  1  0  0  0
 22 28  1  0  0  0
 22 32  2  0  0  0
 26 27  1  0  0  0
 28103  1  0  0  0
 28104  1  0  0  0
 29105  1  0  0  0
 29106  1  0  0  0
 33 34  1  0  0  0
 33 66  1  0  0  0
 33 70  2  0  0  0
 34 36  1  0  0  0
 34 59  1  0  0  0
 34107  1  0  0  0
 35 44  2  0  0  0
 35 45  1  0  0  0
 35 68  1  0  0  0
 36 56  1  0  0  0
 36108  1  0  0  0
 37 39  1  0  0  0
 37 47  1  0  0  0
 37 66  1  0  0  0
 37109  1  0  0  0
 38 43  2  0  0  0
 38 46  1  0  0  0
 38 47  1  0  0  0
 39 64  1  0  0  0
 39 67  2  0  0  0
 40 52  1  0  0  0
 40 53  2  0  0  0
 40 58  1  0  0  0
 41110  1  0  0  0
 41111  1  0  0  0
 41112  1  0  0  0
 41 48  1  0  0  0
 42 43  1  0  0  0
 42 66  1  0  0  0
 42113  1  0  0  0
 42114  1  0  0  0
 43 44  1  0  0  0
 44115  1  0  0  0
 45 46  2  0  0  0
 45116  1  0  0  0
 46117  1  0  0  0
 47118  1  0  0  0
 47119  1  0  0  0
 48 56  1  0  0  0
 48 65  1  0  0  0
 48120  1  0  0  0
 49 50  1  0  0  0
 49 53  1  0  0  0
 49 64  1  0  0  0
 49121  1  0  0  0
 50 51  1  0  0  0
 50122  1  0  0  0
 50123  1  0  0  0
 51 52  1  0  0  0
 51124  1  0  0  0
 51125  1  0  0  0
 52126  1  0  0  0
 52127  1  0  0  0
 53 54  1  0  0  0
 54 55  2  0  0  0
 54128  1  0  0  0
 55 57  1  0  0  0
 55129  1  0  0  0
 56 69  2  0  0  0
 57 58  2  0  0  0
 57130  1  0  0  0
 58131  1  0  0  0
 59 60  1  0  0  0
 59 61  1  0  0  0
 59 62  1  0  0  0
 60132  1  0  0  0
 60133  1  0  0  0
 60134  1  0  0  0
 61135  1  0  0  0
 61136  1  0  0  0
 61137  1  0  0  0
 62138  1  0  0  0
 62139  1  0  0  0
 62140  1  0  0  0
 63 65  1  0  0  0
 63141  1  0  0  0
 63142  1  0  0  0
 63143  1  0  0  0
 64144  1  0  0  0
 65145  1  0  0  0
 68 83  1  0  0  0
 71 72  1  0  0  0
 71 73  2  0  0  0
 71 80  1  0  0  0
 72 74  2  0  0  0
 72 83  1  0  0  0
 73 81  1  0  0  0
 73 85  1  0  0  0
 74 84  1  0  0  0
 74 85  1  0  0  0
 75 77  1  0  0  0
 75 79  1  0  0  0
 75146  1  0  0  0
 75147  1  0  0  0
 76 78  1  0  0  0
 76 79  1  0  0  0
 76148  1  0  0  0
 76149  1  0  0  0
 77 86  1  0  0  0
 77150  1  0  0  0
 77151  1  0  0  0
 78 86  1  0  0  0
 78152  1  0  0  0
 78153  1  0  0  0
 79 85  1  0  0  0
 79154  1  0  0  0
 80155  1  0  0  0
 80156  1  0  0  0
 80157  1  0  0  0
 81158  1  0  0  0
 81159  1  0  0  0
 81160  1  0  0  0
 82 84  1  0  0  0
 82161  1  0  0  0
 82162  1  0  0  0
 82163  1  0  0  0
 83164  1  0  0  0
 83165  1  0  0  0
 84166  1  0  0  0
 84167  1  0  0  0
M  ISO  4   1 100  68 101  83 101  86 100
M  END
> <chiral flag>
0

> <version>
0

> <s_m_source_file>
/data/baiqing/PycharmProjects/Reinvent-master-3.2/result/LINK_invent/BTK/process_docking_weight1_custom_sum_contain_oxygen_bond_distance_aromatic_linkinvent_7_9_3/rearranged_h_0159.sdf

> <i_m_source_file_index>
24

> <r_mmod_Potential_Energy-OPLS-2005>
608.904418945312

> <r_mmod_Stretch_Energy-OPLS-2005>
199.077896118164

> <r_mmod_Bend_Energy-OPLS-2005>
267.864410400391

> <r_mmod_Torsional_Energy-OPLS-2005>
347.143280029297

> <r_mmod_Improper_Torsional_Energy-OPLS-2005>
13.3519144058228

> <r_mmod_Van_der_Waal_Energy-OPLS-2005>
121.89444732666

> <r_mmod_Electrostatic_Energy-OPLS-2005>
-298.527496337891

> <r_mmod_Solvation_Energy-OPLS-2005>
-206.789367675781

> <b_mmod_Minimization_Converged-OPLS-2005>
0

> <r_mmod_RMS_Derivative-OPLS-2005>
0.828444600105286

$$$$
24
                    3D
 Structure written by MMmdl.
166175  0  0  1  0            999 V2000
  -30.7030  -14.6080   20.4807 C   0  0  0  0  0  0
  -30.4307  -12.3761   19.4460 C   0  0  0  0  0  0
  -29.5038  -12.4823   18.2175 C   0  0  0  0  0  0
  -28.0290  -12.3249   18.6399 C   0  0  0  0  0  0
  -27.6501  -13.2116   19.8573 C   0  0  2  0  0  0
  -28.7067  -13.1188   20.9832 C   0  0  0  0  0  0
  -25.2585  -13.8131   20.5733 C   0  0  0  0  0  0
  -24.1829  -13.0422   20.9211 C   0  0  0  0  0  0
  -24.6387  -11.6890   20.8762 C   0  0  0  0  0  0
  -23.9049  -10.4273   21.0409 C   0  0  0  0  0  0
  -24.3606   -9.4191   21.9185 C   0  0  0  0  0  0
  -23.6275   -8.2230   22.0750 C   0  0  0  0  0  0
  -22.4260   -8.0269   21.3539 C   0  0  0  0  0  0
  -21.9888   -9.0252   20.4647 C   0  0  0  0  0  0
  -22.7227  -10.2126   20.3058 C   0  0  0  0  0  0
  -21.6843   -6.0733   22.5270 C   0  0  0  0  0  0
  -21.4022   -6.5634   23.8208 C   0  0  0  0  0  0
  -21.3659   -5.6777   24.9158 C   0  0  0  0  0  0
  -21.6034   -4.3044   24.7217 C   0  0  0  0  0  0
  -21.8817   -3.8147   23.4334 C   0  0  0  0  0  0
  -21.9194   -4.6966   22.3393 C   0  0  0  0  0  0
  -22.7851  -13.5246   21.1830 C   0  0  0  0  0  0
  -22.1660   -4.2158   21.0977 F   0  0  0  0  0  0
  -21.5629   -3.4529   25.7727 F   0  0  0  0  0  0
  -30.0191  -13.4266   20.3950 N   0  0  0  0  0  0
  -26.2998  -12.9302   20.3361 N   0  0  0  0  0  0
  -25.9321  -11.6470   20.5795 N   0  0  0  0  0  0
  -22.0449  -12.8270   22.0363 N   0  0  0  0  0  0
  -25.4351  -15.1841   20.4156 N   0  0  0  0  0  0
  -31.8944  -14.6875   20.1698 O   0  0  0  0  0  0
  -21.6615   -6.8873   21.4232 O   0  0  0  0  0  0
  -22.3566  -14.5561   20.6675 O   0  0  0  0  0  0
  -24.6254  -31.8638   23.2085 C   0  0  0  0  0  0
  -25.9120  -32.4801   23.8392 C   0  0  1  0  0  0
  -27.2080  -27.3405   20.1005 C   0  0  0  0  0  0
  -25.5949  -33.8601   24.2300 N   0  0  0  0  0  0
  -23.4157  -30.4941   21.5500 C   0  0  2  0  0  0
  -24.8557  -28.9584   20.1106 C   0  0  0  0  0  0
  -22.7460  -29.4658   22.4934 C   0  0  0  0  0  0
  -18.0289  -28.1398   22.8475 C   0  0  0  0  0  0
  -24.1487  -36.7305   23.2630 C   0  0  0  0  0  0
  -25.9574  -30.8006   21.3766 C   0  0  0  0  0  0
  -26.0279  -29.4329   20.7125 C   0  0  0  0  0  0
  -27.2088  -28.6349   20.6999 C   0  0  0  0  0  0
  -26.0087  -26.9211   19.4737 C   0  0  0  0  0  0
  -24.8450  -27.7046   19.4883 C   0  0  0  0  0  0
  -23.6289  -29.8414   20.1613 C   0  0  0  0  0  0
  -25.4112  -36.3086   24.0312 C   0  0  1  0  0  0
  -20.5883  -28.3703   23.1274 C   0  0  2  0  0  0
  -20.6786  -26.9429   22.5398 C   0  0  0  0  0  0
  -19.5766  -26.6389   21.5200 C   0  0  0  0  0  0
  -18.1940  -26.7939   22.1609 C   0  0  0  0  0  0
  -19.1539  -28.8863   23.2871 C   0  0  0  0  0  0
  -18.9467  -30.1462   23.8897 C   0  0  0  0  0  0
  -17.6473  -30.6599   24.0566 C   0  0  0  0  0  0
  -25.9046  -34.9464   23.5092 C   0  0  0  0  0  0
  -16.5362  -29.9103   23.6335 C   0  0  0  0  0  0
  -16.7276  -28.6520   23.0349 C   0  0  0  0  0  0
  -26.4499  -31.6620   25.0767 C   0  0  0  0  0  0
  -25.3733  -31.3800   26.1504 C   0  0  0  0  0  0
  -27.0331  -30.3040   24.6224 C   0  0  0  0  0  0
  -27.6052  -32.4354   25.7559 C   0  0  0  0  0  0
  -27.5572  -37.1813   24.8455 C   0  0  0  0  0  0
  -21.4175  -29.3074   22.3678 N   0  0  0  0  0  0
  -26.4287  -37.3781   23.9396 N   0  0  0  0  0  0
  -24.6853  -31.0671   22.1022 N   0  0  0  0  0  0
  -23.4195  -28.8183   23.2987 O   0  0  0  0  0  0
  -28.3157  -26.4831   20.1564 O   0  0  0  0  0  0
  -26.5594  -34.8919   22.4645 O   0  0  0  0  0  0
  -23.5425  -32.1435   23.7418 O   0  0  0  0  0  0
  -31.1872  -23.1537   21.3126 C   0  0  0  0  0  0
  -30.9367  -21.8300   20.9048 C   0  0  0  0  0  0
  -30.2835  -24.2000   21.0276 C   0  0  0  0  0  0
  -29.7556  -21.4876   20.2165 C   0  0  0  0  0  0
  -28.7992  -22.5447   19.9838 C   0  0  0  0  0  0
  -29.0681  -23.9213   20.3489 C   0  0  0  0  0  0
  -30.4065  -16.7697   21.6772 C   0  0  0  0  0  0
  -29.5215  -16.4603   19.4346 C   0  0  0  0  0  0
  -30.5789  -18.2609   21.1818 C   0  0  0  0  0  0
  -28.6687  -17.7340   19.7265 C   0  0  0  0  0  0
  -30.6646  -25.6066   21.4569 C   0  0  0  0  0  0
  -27.4783  -22.2041   19.2960 C   0  0  0  0  0  0
  -29.6688  -20.0494   19.5849 C   0  0  0  0  0  0
  -28.0234  -25.0455   20.0170 C   0  0  0  0  0  0
  -29.9858  -15.7664   20.6568 N   0  0  0  0  0  0
  -29.4012  -18.8267   20.4462 N   0  3  0  0  0  0
  -31.4751  -12.4723   19.1425 H   0  0  0  0  0  0
  -30.3452  -11.3938   19.9129 H   0  0  0  0  0  0
  -29.7670  -11.7208   17.4827 H   0  0  0  0  0  0
  -29.6472  -13.4450   17.7231 H   0  0  0  0  0  0
  -27.8719  -11.2742   18.8892 H   0  0  0  0  0  0
  -27.3715  -12.5386   17.7960 H   0  0  0  0  0  0
  -27.6393  -14.2338   19.4918 H   0  0  0  0  0  0
  -28.7194  -12.1200   21.4209 H   0  0  0  0  0  0
  -28.4683  -13.8093   21.7939 H   0  0  0  0  0  0
  -25.2756   -9.5676   22.4753 H   0  0  0  0  0  0
  -23.9985   -7.4626   22.7489 H   0  0  0  0  0  0
  -21.0805   -8.8784   19.8960 H   0  0  0  0  0  0
  -22.3690  -10.9671   19.6165 H   0  0  0  0  0  0
  -21.2009   -7.6135   23.9718 H   0  0  0  0  0  0
  -21.1485   -6.0498   25.9062 H   0  0  0  0  0  0
  -22.0601   -2.7616   23.2823 H   0  0  0  0  0  0
  -22.4041  -11.9945   22.4789 H   0  0  0  0  0  0
  -21.1077  -13.1350   22.2543 H   0  0  0  0  0  0
  -24.6736  -15.8448   20.5237 H   0  0  0  0  0  0
  -26.2894  -15.6107   20.0868 H   0  0  0  0  0  0
  -26.7189  -32.5468   23.1144 H   0  0  0  0  0  0
  -25.0132  -33.9769   25.0469 H   0  0  0  0  0  0
  -22.7084  -31.3146   21.4128 H   0  0  0  0  0  0
  -23.3736  -35.9651   23.3306 H   0  0  0  0  0  0
  -24.3574  -36.8919   22.2042 H   0  0  0  0  0  0
  -23.7266  -37.6518   23.6653 H   0  0  0  0  0  0
  -26.0858  -31.5687   20.6126 H   0  0  0  0  0  0
  -26.8393  -30.8441   22.0048 H   0  0  0  0  0  0
  -28.1082  -28.9889   21.1835 H   0  0  0  0  0  0
  -25.9241  -25.9695   18.9724 H   0  0  0  0  0  0
  -23.9422  -27.3329   19.0236 H   0  0  0  0  0  0
  -23.7620  -30.6254   19.4142 H   0  0  0  0  0  0
  -22.7454  -29.2822   19.8481 H   0  0  0  0  0  0
  -25.1295  -36.1930   25.0803 H   0  0  0  0  0  0
  -20.9966  -28.3277   24.1398 H   0  0  0  0  0  0
  -20.5694  -26.2312   23.3594 H   0  0  0  0  0  0
  -21.6659  -26.7473   22.1195 H   0  0  0  0  0  0
  -19.6935  -25.6291   21.1258 H   0  0  0  0  0  0
  -19.6715  -27.3177   20.6709 H   0  0  0  0  0  0
  -17.4205  -26.6662   21.4018 H   0  0  0  0  0  0
  -18.0360  -26.0094   22.9021 H   0  0  0  0  0  0
  -19.7946  -30.7268   24.2269 H   0  0  0  0  0  0
  -17.5042  -31.6285   24.5162 H   0  0  0  0  0  0
  -15.5370  -30.3017   23.7670 H   0  0  0  0  0  0
  -15.8667  -28.0853   22.7069 H   0  0  0  0  0  0
  -24.5878  -30.7167   25.7872 H   0  0  0  0  0  0
  -24.8962  -32.2992   26.4916 H   0  0  0  0  0  0
  -25.8061  -30.9007   27.0293 H   0  0  0  0  0  0
  -26.2914  -29.6827   24.1188 H   0  0  0  0  0  0
  -27.3956  -29.7272   25.4744 H   0  0  0  0  0  0
  -27.8817  -30.4327   23.9500 H   0  0  0  0  0  0
  -27.2640  -33.3636   26.2160 H   0  0  0  0  0  0
  -28.3876  -32.6946   25.0415 H   0  0  0  0  0  0
  -28.0703  -31.8468   26.5477 H   0  0  0  0  0  0
  -28.2583  -38.0112   24.7480 H   0  0  0  0  0  0
  -28.1065  -36.2637   24.6297 H   0  0  0  0  0  0
  -27.2283  -37.1488   25.8857 H   0  0  0  0  0  0
  -20.9331  -29.8842   21.6944 H   0  0  0  0  0  0
  -26.0156  -38.2845   24.1419 H   0  0  0  0  0  0
  -32.1161  -23.3666   21.8252 H   0  0  0  0  0  0
  -31.6962  -21.0824   21.0865 H   0  0  0  0  0  0
  -29.6589  -16.7447   22.4706 H   0  0  0  0  0  0
  -31.3363  -16.4554   22.1576 H   0  0  0  0  0  0
  -30.3830  -16.7315   18.8202 H   0  0  0  0  0  0
  -28.9420  -15.7818   18.8123 H   0  0  0  0  0  0
  -31.4585  -18.3034   20.5352 H   0  0  0  0  0  0
  -30.8044  -18.9085   22.0295 H   0  0  0  0  0  0
  -27.8267  -17.4444   20.3570 H   0  0  0  0  0  0
  -28.2126  -18.0865   18.8009 H   0  0  0  0  0  0
  -31.6241  -25.6308   21.9730 H   0  0  0  0  0  0
  -29.9156  -26.0232   22.1319 H   0  0  0  0  0  0
  -30.7556  -26.2586   20.5880 H   0  0  0  0  0  0
  -27.1473  -21.1915   19.5252 H   0  0  0  0  0  0
  -27.5736  -22.3033   18.2144 H   0  0  0  0  0  0
  -26.6635  -22.8481   19.6235 H   0  0  0  0  0  0
  -30.5882  -19.8749   19.0244 H   0  0  0  0  0  0
  -28.9190  -20.0991   18.7977 H   0  0  0  0  0  0
  -27.1585  -24.8205   20.6442 H   0  0  0  0  0  0
  -27.7399  -24.8769   18.9788 H   0  0  0  0  0  0
  -28.7495  -19.1496   21.1454 H   0  0  0  0  0  0
  1 25  1  0  0  0
  1 30  2  0  0  0
  1 85  1  0  0  0
  2  3  1  0  0  0
  2 25  1  0  0  0
  2 87  1  0  0  0
  2 88  1  0  0  0
  3  4  1  0  0  0
  3 89  1  0  0  0
  3 90  1  0  0  0
  4  5  1  0  0  0
  4 91  1  0  0  0
  4 92  1  0  0  0
  5  6  1  0  0  0
  5 26  1  0  0  0
  5 93  1  0  0  0
  6 25  1  0  0  0
  6 94  1  0  0  0
  6 95  1  0  0  0
  7  8  2  0  0  0
  7 26  1  0  0  0
  7 29  1  0  0  0
  8  9  1  0  0  0
  8 22  1  0  0  0
  9 10  1  0  0  0
  9 27  2  0  0  0
 10 11  2  0  0  0
 10 15  1  0  0  0
 11 12  1  0  0  0
 11 96  1  0  0  0
 12 13  2  0  0  0
 12 97  1  0  0  0
 13 14  1  0  0  0
 13 31  1  0  0  0
 14 15  2  0  0  0
 14 98  1  0  0  0
 15 99  1  0  0  0
 16 17  2  0  0  0
 16 21  1  0  0  0
 16 31  1  0  0  0
 17 18  1  0  0  0
 17100  1  0  0  0
 18 19  2  0  0  0
 18101  1  0  0  0
 19 20  1  0  0  0
 19 24  1  0  0  0
 20 21  2  0  0  0
 20102  1  0  0  0
 21 23  1  0  0  0
 22 28  1  0  0  0
 22 32  2  0  0  0
 26 27  1  0  0  0
 28103  1  0  0  0
 28104  1  0  0  0
 29105  1  0  0  0
 29106  1  0  0  0
 33 34  1  0  0  0
 33 66  1  0  0  0
 33 70  2  0  0  0
 34 36  1  0  0  0
 34 59  1  0  0  0
 34107  1  0  0  0
 35 44  2  0  0  0
 35 45  1  0  0  0
 35 68  1  0  0  0
 36 56  1  0  0  0
 36108  1  0  0  0
 37 39  1  0  0  0
 37 47  1  0  0  0
 37 66  1  0  0  0
 37109  1  0  0  0
 38 43  2  0  0  0
 38 46  1  0  0  0
 38 47  1  0  0  0
 39 64  1  0  0  0
 39 67  2  0  0  0
 40 52  1  0  0  0
 40 53  2  0  0  0
 40 58  1  0  0  0
 41110  1  0  0  0
 41111  1  0  0  0
 41112  1  0  0  0
 41 48  1  0  0  0
 42 43  1  0  0  0
 42 66  1  0  0  0
 42113  1  0  0  0
 42114  1  0  0  0
 43 44  1  0  0  0
 44115  1  0  0  0
 45 46  2  0  0  0
 45116  1  0  0  0
 46117  1  0  0  0
 47118  1  0  0  0
 47119  1  0  0  0
 48 56  1  0  0  0
 48 65  1  0  0  0
 48120  1  0  0  0
 49 50  1  0  0  0
 49 53  1  0  0  0
 49 64  1  0  0  0
 49121  1  0  0  0
 50 51  1  0  0  0
 50122  1  0  0  0
 50123  1  0  0  0
 51 52  1  0  0  0
 51124  1  0  0  0
 51125  1  0  0  0
 52126  1  0  0  0
 52127  1  0  0  0
 53 54  1  0  0  0
 54 55  2  0  0  0
 54128  1  0  0  0
 55 57  1  0  0  0
 55129  1  0  0  0
 56 69  2  0  0  0
 57 58  2  0  0  0
 57130  1  0  0  0
 58131  1  0  0  0
 59 60  1  0  0  0
 59 61  1  0  0  0
 59 62  1  0  0  0
 60132  1  0  0  0
 60133  1  0  0  0
 60134  1  0  0  0
 61135  1  0  0  0
 61136  1  0  0  0
 61137  1  0  0  0
 62138  1  0  0  0
 62139  1  0  0  0
 62140  1  0  0  0
 63 65  1  0  0  0
 63141  1  0  0  0
 63142  1  0  0  0
 63143  1  0  0  0
 64144  1  0  0  0
 65145  1  0  0  0
 68 84  1  0  0  0
 71 72  2  0  0  0
 71 73  1  0  0  0
 71146  1  0  0  0
 72 74  1  0  0  0
 72147  1  0  0  0
 73 76  2  0  0  0
 73 81  1  0  0  0
 74 75  2  0  0  0
 74 83  1  0  0  0
 75 76  1  0  0  0
 75 82  1  0  0  0
 76 84  1  0  0  0
 77 79  1  0  0  0
 77 85  1  0  0  0
 77148  1  0  0  0
 77149  1  0  0  0
 78 80  1  0  0  0
 78 85  1  0  0  0
 78150  1  0  0  0
 78151  1  0  0  0
 79 86  1  0  0  0
 79152  1  0  0  0
 79153  1  0  0  0
 80 86  1  0  0  0
 80154  1  0  0  0
 80155  1  0  0  0
 81156  1  0  0  0
 81157  1  0  0  0
 81158  1  0  0  0
 82159  1  0  0  0
 82160  1  0  0  0
 82161  1  0  0  0
 83162  1  0  0  0
 83163  1  0  0  0
 83 86  1  0  0  0
 84164  1  0  0  0
 84165  1  0  0  0
 86166  1  0  0  0
M  CHG  1  86   1
M  ISO  4   1 100  68 101  84 101  85 100
M  END
> <chiral flag>
0

> <version>
0

> <s_m_source_file>
/data/baiqing/PycharmProjects/Reinvent-master-3.2/result/LINK_invent/BTK/process_docking_weight1_custom_sum_contain_oxygen_bond_distance_aromatic_linkinvent_7_9_3/rearranged_h_0159.sdf

> <i_m_source_file_index>
25

> <r_mmod_Potential_Energy-OPLS-2005>
198.576416015625

> <r_mmod_Stretch_Energy-OPLS-2005>
78.6894836425781

> <r_mmod_Bend_Energy-OPLS-2005>
143.009063720703

> <r_mmod_Torsional_Energy-OPLS-2005>
400.973968505859

> <r_mmod_Improper_Torsional_Energy-OPLS-2005>
10.6801948547363

> <r_mmod_Van_der_Waal_Energy-OPLS-2005>
168.845306396484

> <r_mmod_Electrostatic_Energy-OPLS-2005>
-209.205093383789

> <r_mmod_Solvation_Energy-OPLS-2005>
-441.222198486328

> <b_mmod_Minimization_Converged-OPLS-2005>
0

> <r_mmod_RMS_Derivative-OPLS-2005>
2.52638339996338

$$$$
25
                    3D
 Structure written by MMmdl.
170179  0  0  1  0            999 V2000
  -30.5267  -14.9874   20.2977 C   0  0  0  0  0  0
  -30.4694  -12.5630   19.5249 C   0  0  0  0  0  0
  -29.5484  -12.2499   18.3184 C   0  0  0  0  0  0
  -28.0498  -12.2205   18.6900 C   0  0  0  0  0  0
  -27.6244  -13.2219   19.8008 C   0  0  2  0  0  0
  -28.6678  -13.3239   20.9224 C   0  0  0  0  0  0
  -25.2542  -13.8170   20.5674 C   0  0  0  0  0  0
  -24.1816  -13.0467   20.9203 C   0  0  0  0  0  0
  -24.6376  -11.6923   20.8773 C   0  0  0  0  0  0
  -23.9066  -10.4303   21.0432 C   0  0  0  0  0  0
  -24.3639   -9.4211   21.9193 C   0  0  0  0  0  0
  -23.6304   -8.2249   22.0757 C   0  0  0  0  0  0
  -22.4280   -8.0298   21.3561 C   0  0  0  0  0  0
  -21.9930   -9.0264   20.4654 C   0  0  0  0  0  0
  -22.7252  -10.2147   20.3060 C   0  0  0  0  0  0
  -21.6859   -6.0745   22.5282 C   0  0  0  0  0  0
  -21.4011   -6.5630   23.8221 C   0  0  0  0  0  0
  -21.3656   -5.6781   24.9175 C   0  0  0  0  0  0
  -21.6053   -4.3047   24.7219 C   0  0  0  0  0  0
  -21.8827   -3.8148   23.4330 C   0  0  0  0  0  0
  -21.9202   -4.6971   22.3393 C   0  0  0  0  0  0
  -22.7842  -13.5254   21.1845 C   0  0  0  0  0  0
  -22.1669   -4.2161   21.0967 F   0  0  0  0  0  0
  -21.5641   -3.4520   25.7724 F   0  0  0  0  0  0
  -29.9317  -13.7231   20.2933 N   0  0  0  0  0  0
  -26.2895  -12.9340   20.3146 N   0  0  0  0  0  0
  -25.9294  -11.6521   20.5789 N   0  0  0  0  0  0
  -22.0473  -12.8272   22.0386 N   0  0  0  0  0  0
  -25.4383  -15.1878   20.4081 N   0  0  0  0  0  0
  -31.7620  -15.0017   20.2665 O   0  0  0  0  0  0
  -21.6640   -6.8893   21.4250 O   0  0  0  0  0  0
  -22.3543  -14.5550   20.6652 O   0  0  0  0  0  0
  -24.6425  -31.8437   23.1919 C   0  0  0  0  0  0
  -25.9188  -32.4716   23.8303 C   0  0  1  0  0  0
  -27.2164  -27.1383   20.1745 C   0  0  0  0  0  0
  -25.5934  -33.8523   24.2212 N   0  0  0  0  0  0
  -23.4463  -30.4622   21.5394 C   0  0  2  0  0  0
  -24.8956  -28.8920   20.1093 C   0  0  0  0  0  0
  -22.7567  -29.4524   22.4905 C   0  0  0  0  0  0
  -18.0291  -28.1381   22.8474 C   0  0  0  0  0  0
  -24.1481  -36.7268   23.2643 C   0  0  0  0  0  0
  -26.0010  -30.7193   21.3896 C   0  0  0  0  0  0
  -26.0711  -29.3321   20.7298 C   0  0  0  0  0  0
  -27.2331  -28.4744   20.7387 C   0  0  0  0  0  0
  -26.0222  -26.8028   19.4956 C   0  0  0  0  0  0
  -24.8866  -27.6438   19.4683 C   0  0  0  0  0  0
  -23.6697  -29.7930   20.1570 C   0  0  0  0  0  0
  -25.4120  -36.3068   24.0318 C   0  0  1  0  0  0
  -20.5900  -28.3695   23.1250 C   0  0  2  0  0  0
  -20.6776  -26.9402   22.5407 C   0  0  0  0  0  0
  -19.5757  -26.6363   21.5211 C   0  0  0  0  0  0
  -18.1933  -26.7923   22.1613 C   0  0  0  0  0  0
  -19.1547  -28.8861   23.2844 C   0  0  0  0  0  0
  -18.9466  -30.1458   23.8863 C   0  0  0  0  0  0
  -17.6465  -30.6587   24.0543 C   0  0  0  0  0  0
  -25.9061  -34.9427   23.5080 C   0  0  0  0  0  0
  -16.5354  -29.9072   23.6342 C   0  0  0  0  0  0
  -16.7274  -28.6485   23.0374 C   0  0  0  0  0  0
  -26.4494  -31.6600   25.0756 C   0  0  0  0  0  0
  -25.3669  -31.3781   26.1448 C   0  0  0  0  0  0
  -27.0356  -30.3003   24.6338 C   0  0  0  0  0  0
  -27.6019  -32.4371   25.7548 C   0  0  0  0  0  0
  -27.5580  -37.1802   24.8460 C   0  0  0  0  0  0
  -21.4261  -29.3029   22.3652 N   0  0  0  0  0  0
  -26.4297  -37.3773   23.9400 N   0  0  0  0  0  0
  -24.7166  -31.0290   22.0959 N   0  0  0  0  0  0
  -23.4206  -28.8067   23.3055 O   0  0  0  0  0  0
  -28.2628  -26.1516   20.2987 O   0  0  0  0  0  0
  -26.5652  -34.8917   22.4664 O   0  0  0  0  0  0
  -23.5543  -32.1307   23.7142 O   0  0  0  0  0  0
  -29.7651  -17.7045   20.5321 C   0  0  0  0  0  0
  -28.6575  -17.6152   18.0330 C   0  0  0  0  0  0
  -29.7841  -16.3654   19.8581 C   0  0  0  0  0  0
  -29.2133  -19.0004   19.9892 C   0  0  0  0  0  0
  -29.2776  -16.4574   18.5274 C   0  0  0  0  0  0
  -28.6208  -18.8454   18.7042 C   0  0  0  0  0  0
  -28.2033  -21.7497   20.4970 C   0  0  0  0  0  0
  -30.4855  -21.3765   20.1047 C   0  0  0  0  0  0
  -28.8038  -23.2580   20.6814 C   0  0  1  0  0  0
  -29.3026  -20.5298   20.6644 C   0  0  2  0  0  0
  -30.2710  -22.9567   20.2158 C   0  0  0  0  0  0
  -29.4668  -15.3909   17.4679 C   0  0  0  0  0  0
  -27.9769  -19.9635   17.9033 C   0  0  0  0  0  0
  -29.4986  -20.3108   22.1739 C   0  0  0  0  0  0
  -31.2704  -23.5519   21.2315 C   0  0  0  0  0  0
  -30.5568  -23.5999   18.8455 C   0  0  0  0  0  0
  -27.9901  -24.6313   20.1077 C   0  0  0  0  0  0
  -31.4851  -12.7436   19.1690 H   0  0  0  0  0  0
  -30.5462  -11.6919   20.1777 H   0  0  0  0  0  0
  -29.8165  -11.2574   17.9509 H   0  0  0  0  0  0
  -29.7518  -12.8726   17.4587 H   0  0  0  0  0  0
  -27.8675  -11.2050   19.0444 H   0  0  0  0  0  0
  -27.4289  -12.3291   17.7984 H   0  0  0  0  0  0
  -27.5712  -14.1992   19.3259 H   0  0  0  0  0  0
  -28.7688  -12.3742   21.4516 H   0  0  0  0  0  0
  -28.3674  -14.0684   21.6616 H   0  0  0  0  0  0
  -25.2812   -9.5665   22.4743 H   0  0  0  0  0  0
  -24.0038   -7.4624   22.7450 H   0  0  0  0  0  0
  -21.0884   -8.8753   19.8934 H   0  0  0  0  0  0
  -22.3729  -10.9672   19.6145 H   0  0  0  0  0  0
  -21.1988   -7.6136   23.9725 H   0  0  0  0  0  0
  -21.1475   -6.0500   25.9080 H   0  0  0  0  0  0
  -22.0613   -2.7607   23.2811 H   0  0  0  0  0  0
  -22.4084  -11.9946   22.4810 H   0  0  0  0  0  0
  -21.1068  -13.1280   22.2495 H   0  0  0  0  0  0
  -24.6882  -15.8591   20.5227 H   0  0  0  0  0  0
  -26.3114  -15.6142   20.1211 H   0  0  0  0  0  0
  -26.7252  -32.5296   23.1024 H   0  0  0  0  0  0
  -25.0060  -33.9647   25.0350 H   0  0  0  0  0  0
  -22.7473  -31.2879   21.3910 H   0  0  0  0  0  0
  -23.3772  -35.9570   23.3294 H   0  0  0  0  0  0
  -24.3562  -36.8917   22.2061 H   0  0  0  0  0  0
  -23.7194  -37.6445   23.6681 H   0  0  0  0  0  0
  -26.1578  -31.4745   20.6185 H   0  0  0  0  0  0
  -26.8713  -30.7649   22.0328 H   0  0  0  0  0  0
  -28.1295  -28.8095   21.2398 H   0  0  0  0  0  0
  -25.9310  -25.8463   19.0021 H   0  0  0  0  0  0
  -23.9945  -27.3103   18.9553 H   0  0  0  0  0  0
  -23.8005  -30.5710   19.4042 H   0  0  0  0  0  0
  -22.7829  -29.2352   19.8509 H   0  0  0  0  0  0
  -25.1310  -36.1923   25.0812 H   0  0  0  0  0  0
  -20.9958  -28.3269   24.1382 H   0  0  0  0  0  0
  -20.5674  -26.2299   23.3618 H   0  0  0  0  0  0
  -21.6643  -26.7412   22.1207 H   0  0  0  0  0  0
  -19.6919  -25.6262   21.1274 H   0  0  0  0  0  0
  -19.6719  -27.3145   20.6723 H   0  0  0  0  0  0
  -17.4209  -26.6669   21.4008 H   0  0  0  0  0  0
  -18.0322  -26.0059   22.9003 H   0  0  0  0  0  0
  -19.7937  -30.7282   24.2223 H   0  0  0  0  0  0
  -17.5016  -31.6277   24.5126 H   0  0  0  0  0  0
  -15.5351  -30.2966   23.7690 H   0  0  0  0  0  0
  -15.8668  -28.0788   22.7135 H   0  0  0  0  0  0
  -24.5848  -30.7131   25.7767 H   0  0  0  0  0  0
  -24.8843  -32.2953   26.4838 H   0  0  0  0  0  0
  -25.7936  -30.8978   27.0262 H   0  0  0  0  0  0
  -26.2976  -29.6757   24.1292 H   0  0  0  0  0  0
  -27.3909  -29.7282   25.4919 H   0  0  0  0  0  0
  -27.8908  -30.4264   23.9697 H   0  0  0  0  0  0
  -27.2606  -33.3684   26.2086 H   0  0  0  0  0  0
  -28.3852  -32.6922   25.0397 H   0  0  0  0  0  0
  -28.0660  -31.8529   26.5507 H   0  0  0  0  0  0
  -28.2596  -38.0105   24.7531 H   0  0  0  0  0  0
  -28.1084  -36.2635   24.6273 H   0  0  0  0  0  0
  -27.2287  -37.1430   25.8861 H   0  0  0  0  0  0
  -20.9479  -29.8743   21.6827 H   0  0  0  0  0  0
  -26.0177  -38.2848   24.1418 H   0  0  0  0  0  0
  -30.2378  -17.7318   21.5028 H   0  0  0  0  0  0
  -28.2479  -17.5771   17.0328 H   0  0  0  0  0  0
  -27.7761  -21.7990   19.5091 H   0  0  0  0  0  0
  -27.3455  -21.5864   21.1508 H   0  0  0  0  0  0
  -30.5823  -21.1184   19.0501 H   0  0  0  0  0  0
  -31.4335  -21.0599   20.5409 H   0  0  0  0  0  0
  -28.8308  -23.3931   21.7642 H   0  0  0  0  0  0
  -30.4161  -14.8747   17.5834 H   0  0  0  0  0  0
  -29.5092  -15.8346   16.4716 H   0  0  0  0  0  0
  -28.6260  -14.7034   17.4528 H   0  0  0  0  0  0
  -27.7878  -19.6769   16.8679 H   0  0  0  0  0  0
  -28.6256  -20.8328   17.8427 H   0  0  0  0  0  0
  -27.0084  -20.2255   18.3289 H   0  0  0  0  0  0
  -28.7051  -19.6780   22.5756 H   0  0  0  0  0  0
  -29.4936  -21.2435   22.7378 H   0  0  0  0  0  0
  -30.4479  -19.8144   22.3727 H   0  0  0  0  0  0
  -31.1496  -23.1192   22.2255 H   0  0  0  0  0  0
  -31.1425  -24.6314   21.3274 H   0  0  0  0  0  0
  -32.3030  -23.3784   20.9257 H   0  0  0  0  0  0
  -29.8176  -23.2987   18.1033 H   0  0  0  0  0  0
  -31.5383  -23.3158   18.4637 H   0  0  0  0  0  0
  -30.5474  -24.6885   18.9063 H   0  0  0  0  0  0
  -26.9800  -24.4846   20.4913 H   0  0  0  0  0  0
  -27.8971  -24.5030   19.0293 H   0  0  0  0  0  0
  1 25  1  0  0  0
  1 30  2  0  0  0
  1 73  1  0  0  0
  2  3  1  0  0  0
  2 25  1  0  0  0
  2 88  1  0  0  0
  2 89  1  0  0  0
  3  4  1  0  0  0
  3 90  1  0  0  0
  3 91  1  0  0  0
  4  5  1  0  0  0
  4 92  1  0  0  0
  4 93  1  0  0  0
  5  6  1  0  0  0
  5 26  1  0  0  0
  5 94  1  0  0  0
  6 25  1  0  0  0
  6 95  1  0  0  0
  6 96  1  0  0  0
  7  8  2  0  0  0
  7 26  1  0  0  0
  7 29  1  0  0  0
  8  9  1  0  0  0
  8 22  1  0  0  0
  9 10  1  0  0  0
  9 27  2  0  0  0
 10 11  2  0  0  0
 10 15  1  0  0  0
 11 12  1  0  0  0
 11 97  1  0  0  0
 12 13  2  0  0  0
 12 98  1  0  0  0
 13 14  1  0  0  0
 13 31  1  0  0  0
 14 15  2  0  0  0
 14 99  1  0  0  0
 15100  1  0  0  0
 16 17  2  0  0  0
 16 21  1  0  0  0
 16 31  1  0  0  0
 17 18  1  0  0  0
 17101  1  0  0  0
 18 19  2  0  0  0
 18102  1  0  0  0
 19 20  1  0  0  0
 19 24  1  0  0  0
 20 21  2  0  0  0
 20103  1  0  0  0
 21 23  1  0  0  0
 22 28  1  0  0  0
 22 32  2  0  0  0
 26 27  1  0  0  0
 28104  1  0  0  0
 28105  1  0  0  0
 29106  1  0  0  0
 29107  1  0  0  0
 33 34  1  0  0  0
 33 66  1  0  0  0
 33 70  2  0  0  0
 34 36  1  0  0  0
 34 59  1  0  0  0
 34108  1  0  0  0
 35 44  2  0  0  0
 35 45  1  0  0  0
 35 68  1  0  0  0
 36 56  1  0  0  0
 36109  1  0  0  0
 37 39  1  0  0  0
 37 47  1  0  0  0
 37 66  1  0  0  0
 37110  1  0  0  0
 38 43  2  0  0  0
 38 46  1  0  0  0
 38 47  1  0  0  0
 39 64  1  0  0  0
 39 67  2  0  0  0
 40 52  1  0  0  0
 40 53  2  0  0  0
 40 58  1  0  0  0
 41111  1  0  0  0
 41112  1  0  0  0
 41113  1  0  0  0
 41 48  1  0  0  0
 42 43  1  0  0  0
 42 66  1  0  0  0
 42114  1  0  0  0
 42115  1  0  0  0
 43 44  1  0  0  0
 44116  1  0  0  0
 45 46  2  0  0  0
 45117  1  0  0  0
 46118  1  0  0  0
 47119  1  0  0  0
 47120  1  0  0  0
 48 56  1  0  0  0
 48 65  1  0  0  0
 48121  1  0  0  0
 49 50  1  0  0  0
 49 53  1  0  0  0
 49 64  1  0  0  0
 49122  1  0  0  0
 50 51  1  0  0  0
 50123  1  0  0  0
 50124  1  0  0  0
 51 52  1  0  0  0
 51125  1  0  0  0
 51126  1  0  0  0
 52127  1  0  0  0
 52128  1  0  0  0
 53 54  1  0  0  0
 54 55  2  0  0  0
 54129  1  0  0  0
 55 57  1  0  0  0
 55130  1  0  0  0
 56 69  2  0  0  0
 57 58  2  0  0  0
 57131  1  0  0  0
 58132  1  0  0  0
 59 60  1  0  0  0
 59 61  1  0  0  0
 59 62  1  0  0  0
 60133  1  0  0  0
 60134  1  0  0  0
 60135  1  0  0  0
 61136  1  0  0  0
 61137  1  0  0  0
 61138  1  0  0  0
 62139  1  0  0  0
 62140  1  0  0  0
 62141  1  0  0  0
 63 65  1  0  0  0
 63142  1  0  0  0
 63143  1  0  0  0
 63144  1  0  0  0
 64145  1  0  0  0
 65146  1  0  0  0
 68 87  1  0  0  0
 71 73  2  0  0  0
 71 74  1  0  0  0
 71147  1  0  0  0
 72 75  2  0  0  0
 72 76  1  0  0  0
 72148  1  0  0  0
 73 75  1  0  0  0
 74 76  2  0  0  0
 74 80  1  0  0  0
 75 82  1  0  0  0
 76 83  1  0  0  0
 77 79  1  0  0  0
 77 80  1  0  0  0
 77149  1  0  0  0
 77150  1  0  0  0
 78 80  1  0  0  0
 78 81  1  0  0  0
 78151  1  0  0  0
 78152  1  0  0  0
 79 81  1  0  0  0
 79 87  1  0  0  0
 79153  1  0  0  0
 80 84  1  0  0  0
 81 85  1  0  0  0
 81 86  1  0  0  0
 82154  1  0  0  0
 82155  1  0  0  0
 82156  1  0  0  0
 83157  1  0  0  0
 83158  1  0  0  0
 83159  1  0  0  0
 84160  1  0  0  0
 84161  1  0  0  0
 84162  1  0  0  0
 85163  1  0  0  0
 85164  1  0  0  0
 85165  1  0  0  0
 86166  1  0  0  0
 86167  1  0  0  0
 86168  1  0  0  0
 87169  1  0  0  0
 87170  1  0  0  0
M  ISO  4   1 100  68 101  73 100  87 101
M  END
> <chiral flag>
0

> <version>
0

> <s_m_source_file>
/data/baiqing/PycharmProjects/Reinvent-master-3.2/result/LINK_invent/BTK/process_docking_weight1_custom_sum_contain_oxygen_bond_distance_aromatic_linkinvent_7_9_3/rearranged_h_0159.sdf

> <i_m_source_file_index>
26

> <r_mmod_Potential_Energy-OPLS-2005>
814.130065917969

> <r_mmod_Stretch_Energy-OPLS-2005>
272.10400390625

> <r_mmod_Bend_Energy-OPLS-2005>
309.495239257812

> <r_mmod_Torsional_Energy-OPLS-2005>
311.603668212891

> <r_mmod_Improper_Torsional_Energy-OPLS-2005>
14.7202215194702

> <r_mmod_Van_der_Waal_Energy-OPLS-2005>
150.632934570312

> <r_mmod_Electrostatic_Energy-OPLS-2005>
-302.052276611328

> <r_mmod_Solvation_Energy-OPLS-2005>
-175.126861572266

> <b_mmod_Minimization_Converged-OPLS-2005>
0

> <r_mmod_RMS_Derivative-OPLS-2005>
3.28136968612671

$$$$
26
                    3D
 Structure written by MMmdl.
172181  0  0  1  0            999 V2000
  -30.6631  -14.5109   20.4835 C   0  0  0  0  0  0
  -30.4284  -12.2912   19.4507 C   0  0  0  0  0  0
  -29.5062  -12.4460   18.2236 C   0  0  0  0  0  0
  -28.0200  -12.3422   18.6245 C   0  0  0  0  0  0
  -27.6585  -13.2037   19.8650 C   0  0  2  0  0  0
  -28.6986  -13.0164   20.9926 C   0  0  0  0  0  0
  -25.2589  -13.8161   20.5667 C   0  0  0  0  0  0
  -24.1842  -13.0442   20.9180 C   0  0  0  0  0  0
  -24.6388  -11.6907   20.8737 C   0  0  0  0  0  0
  -23.9054  -10.4295   21.0410 C   0  0  0  0  0  0
  -24.3611   -9.4211   21.9186 C   0  0  0  0  0  0
  -23.6290   -8.2243   22.0756 C   0  0  0  0  0  0
  -22.4272   -8.0281   21.3545 C   0  0  0  0  0  0
  -21.9906   -9.0255   20.4647 C   0  0  0  0  0  0
  -22.7230  -10.2135   20.3058 C   0  0  0  0  0  0
  -21.6852   -6.0736   22.5280 C   0  0  0  0  0  0
  -21.4013   -6.5640   23.8213 C   0  0  0  0  0  0
  -21.3659   -5.6793   24.9175 C   0  0  0  0  0  0
  -21.6043   -4.3055   24.7227 C   0  0  0  0  0  0
  -21.8819   -3.8148   23.4347 C   0  0  0  0  0  0
  -21.9192   -4.6963   22.3402 C   0  0  0  0  0  0
  -22.7865  -13.5246   21.1845 C   0  0  0  0  0  0
  -22.1661   -4.2151   21.0979 F   0  0  0  0  0  0
  -21.5629   -3.4539   25.7740 F   0  0  0  0  0  0
  -30.0282  -13.3080   20.4344 N   0  0  0  0  0  0
  -26.3008  -12.9318   20.3315 N   0  0  0  0  0  0
  -25.9312  -11.6488   20.5765 N   0  0  0  0  0  0
  -22.0498  -12.8239   22.0397 N   0  0  0  0  0  0
  -25.4315  -15.1880   20.4072 N   0  0  0  0  0  0
  -31.8427  -14.6528   20.1454 O   0  0  0  0  0  0
  -21.6635   -6.8877   21.4240 O   0  0  0  0  0  0
  -22.3554  -14.5552   20.6696 O   0  0  0  0  0  0
  -24.6131  -31.8692   23.2108 C   0  0  0  0  0  0
  -25.9031  -32.4830   23.8401 C   0  0  1  0  0  0
  -27.2372  -27.4400   20.1083 C   0  0  0  0  0  0
  -25.5904  -33.8627   24.2340 N   0  0  0  0  0  0
  -23.4023  -30.4905   21.5496 C   0  0  2  0  0  0
  -24.8527  -28.9547   20.1175 C   0  0  0  0  0  0
  -22.7409  -29.4655   22.4990 C   0  0  0  0  0  0
  -18.0270  -28.1374   22.8487 C   0  0  0  0  0  0
  -24.1489  -36.7314   23.2638 C   0  0  0  0  0  0
  -25.9290  -30.8349   21.3655 C   0  0  0  0  0  0
  -26.0088  -29.4661   20.7218 C   0  0  0  0  0  0
  -27.2049  -28.7136   20.7227 C   0  0  0  0  0  0
  -26.0738  -26.9474   19.4855 C   0  0  0  0  0  0
  -24.8784  -27.6919   19.4985 C   0  0  0  0  0  0
  -23.6133  -29.8204   20.1646 C   0  0  0  0  0  0
  -25.4109  -36.3115   24.0343 C   0  0  1  0  0  0
  -20.5860  -28.3657   23.1319 C   0  0  2  0  0  0
  -20.6765  -26.9395   22.5415 C   0  0  0  0  0  0
  -19.5747  -26.6385   21.5206 C   0  0  0  0  0  0
  -18.1920  -26.7920   22.1616 C   0  0  0  0  0  0
  -19.1520  -28.8831   23.2900 C   0  0  0  0  0  0
  -18.9452  -30.1436   23.8912 C   0  0  0  0  0  0
  -17.6458  -30.6581   24.0560 C   0  0  0  0  0  0
  -25.9035  -34.9481   23.5137 C   0  0  0  0  0  0
  -16.5349  -29.9082   23.6324 C   0  0  0  0  0  0
  -16.7262  -28.6500   23.0345 C   0  0  0  0  0  0
  -26.4465  -31.6601   25.0718 C   0  0  0  0  0  0
  -25.3741  -31.3699   26.1475 C   0  0  0  0  0  0
  -27.0297  -30.3049   24.6070 C   0  0  0  0  0  0
  -27.6047  -32.4311   25.7477 C   0  0  0  0  0  0
  -27.5582  -37.1812   24.8465 C   0  0  0  0  0  0
  -21.4138  -29.3026   22.3730 N   0  0  0  0  0  0
  -26.4300  -37.3794   23.9406 N   0  0  0  0  0  0
  -24.6658  -31.0797   22.1007 N   0  0  0  0  0  0
  -23.4181  -28.8201   23.3035 O   0  0  0  0  0  0
  -28.3747  -26.6664   20.0668 O   0  0  0  0  0  0
  -26.5586  -34.8931   22.4688 O   0  0  0  0  0  0
  -23.5326  -32.1439   23.7507 O   0  0  0  0  0  0
  -29.5393  -18.0160   21.0782 C   0  0  0  0  0  0
  -29.9498  -16.9091   20.2737 C   0  0  0  0  0  0
  -30.3190  -17.1790   18.9267 C   0  0  0  0  0  0
  -29.5811  -19.3277   20.5201 C   0  0  0  0  0  0
  -30.4096  -18.5246   18.5057 C   0  0  0  0  0  0
  -30.1696  -21.6827   21.3628 C   0  0  0  0  0  0
  -27.8733  -21.2248   20.4597 C   0  0  0  0  0  0
  -29.6339  -23.0011   21.9675 C   0  0  0  0  0  0
  -27.3937  -22.5527   21.0835 C   0  0  0  0  0  0
  -29.0704  -20.6063   21.2160 C   0  0  1  0  0  0
  -29.0455  -17.8050   22.5066 C   0  0  0  0  0  0
  -30.9128  -18.9136   17.1282 C   0  0  0  0  0  0
  -29.4956  -15.9702   17.1004 C   0  0  0  0  0  0
  -27.9837  -24.8626   21.7429 C   0  0  0  0  0  0
  -28.8006  -26.1162   21.3210 C   0  0  0  0  0  0
  -30.0452  -19.5584   19.2782 N   0  0  0  0  0  0
  -29.8631  -15.5623   20.7723 N   0  0  0  0  0  0
  -28.4849  -23.5613   21.1959 N   0  3  1  0  0  0
  -30.5539  -16.1632   18.0341 O   0  0  0  0  0  0
  -31.4745  -12.3865   19.1534 H   0  0  0  0  0  0
  -30.3299  -11.2941   19.8826 H   0  0  0  0  0  0
  -29.7430  -11.6838   17.4799 H   0  0  0  0  0  0
  -29.6986  -13.4007   17.7429 H   0  0  0  0  0  0
  -27.8151  -11.2922   18.8345 H   0  0  0  0  0  0
  -27.3828  -12.6103   17.7811 H   0  0  0  0  0  0
  -27.6920  -14.2440   19.5425 H   0  0  0  0  0  0
  -28.6741  -11.9922   21.3682 H   0  0  0  0  0  0
  -28.4673  -13.6501   21.8504 H   0  0  0  0  0  0
  -25.2759   -9.5686   22.4759 H   0  0  0  0  0  0
  -24.0001   -7.4635   22.7474 H   0  0  0  0  0  0
  -21.0840   -8.8772   19.8952 H   0  0  0  0  0  0
  -22.3692  -10.9673   19.6165 H   0  0  0  0  0  0
  -21.2005   -7.6148   23.9718 H   0  0  0  0  0  0
  -21.1480   -6.0523   25.9079 H   0  0  0  0  0  0
  -22.0598   -2.7610   23.2847 H   0  0  0  0  0  0
  -22.4106  -11.9893   22.4780 H   0  0  0  0  0  0
  -21.1117  -13.1270   22.2599 H   0  0  0  0  0  0
  -24.6617  -15.8398   20.5126 H   0  0  0  0  0  0
  -26.2779  -15.6285   20.0707 H   0  0  0  0  0  0
  -26.7103  -32.5556   23.1173 H   0  0  0  0  0  0
  -25.0083  -33.9789   25.0506 H   0  0  0  0  0  0
  -22.6906  -31.3064   21.4086 H   0  0  0  0  0  0
  -23.3751  -35.9645   23.3314 H   0  0  0  0  0  0
  -24.3591  -36.8911   22.2050 H   0  0  0  0  0  0
  -23.7241  -37.6526   23.6641 H   0  0  0  0  0  0
  -26.0384  -31.5969   20.5927 H   0  0  0  0  0  0
  -26.8177  -30.8934   21.9821 H   0  0  0  0  0  0
  -28.0974  -29.1103   21.1861 H   0  0  0  0  0  0
  -26.0921  -25.9813   19.0008 H   0  0  0  0  0  0
  -23.9919  -27.2928   19.0247 H   0  0  0  0  0  0
  -23.7214  -30.5945   19.4035 H   0  0  0  0  0  0
  -22.7383  -29.2382   19.8698 H   0  0  0  0  0  0
  -25.1284  -36.1987   25.0837 H   0  0  0  0  0  0
  -20.9948  -28.3226   24.1441 H   0  0  0  0  0  0
  -20.5672  -26.2265   23.3604 H   0  0  0  0  0  0
  -21.6638  -26.7443   22.1208 H   0  0  0  0  0  0
  -19.6913  -25.6302   21.1223 H   0  0  0  0  0  0
  -19.6692  -27.3211   20.6748 H   0  0  0  0  0  0
  -17.4195  -26.6674   21.4011 H   0  0  0  0  0  0
  -18.0314  -26.0055   22.9006 H   0  0  0  0  0  0
  -19.7934  -30.7235   24.2301 H   0  0  0  0  0  0
  -17.5017  -31.6265   24.5155 H   0  0  0  0  0  0
  -15.5347  -30.2986   23.7644 H   0  0  0  0  0  0
  -15.8663  -28.0823   22.7049 H   0  0  0  0  0  0
  -24.5914  -30.7043   25.7818 H   0  0  0  0  0  0
  -24.8934  -32.2851   26.4935 H   0  0  0  0  0  0
  -25.8106  -30.8865   27.0223 H   0  0  0  0  0  0
  -26.2831  -29.6816   24.1135 H   0  0  0  0  0  0
  -27.4090  -29.7276   25.4511 H   0  0  0  0  0  0
  -27.8655  -30.4381   23.9201 H   0  0  0  0  0  0
  -27.2668  -33.3595   26.2091 H   0  0  0  0  0  0
  -28.3835  -32.6896   25.0293 H   0  0  0  0  0  0
  -28.0735  -31.8414   26.5362 H   0  0  0  0  0  0
  -28.2604  -38.0105   24.7513 H   0  0  0  0  0  0
  -28.1074  -36.2640   24.6289 H   0  0  0  0  0  0
  -27.2302  -37.1460   25.8868 H   0  0  0  0  0  0
  -20.9303  -29.8753   21.6958 H   0  0  0  0  0  0
  -26.0196  -38.2875   24.1406 H   0  0  0  0  0  0
  -30.9790  -21.2948   21.9823 H   0  0  0  0  0  0
  -30.6125  -21.9006   20.3907 H   0  0  0  0  0  0
  -28.1407  -21.4069   19.4179 H   0  0  0  0  0  0
  -27.0480  -20.5123   20.4369 H   0  0  0  0  0  0
  -30.4444  -23.7289   22.0100 H   0  0  0  0  0  0
  -29.3263  -22.8252   22.9999 H   0  0  0  0  0  0
  -26.9696  -22.3645   22.0714 H   0  0  0  0  0  0
  -26.5858  -22.9571   20.4714 H   0  0  0  0  0  0
  -28.7218  -20.3596   22.2172 H   0  0  0  0  0  0
  -29.2282  -16.8000   22.8841 H   0  0  0  0  0  0
  -27.9729  -17.9914   22.5672 H   0  0  0  0  0  0
  -29.5518  -18.4857   23.1916 H   0  0  0  0  0  0
  -31.5432  -18.1350   16.6996 H   0  0  0  0  0  0
  -31.5065  -19.8269   17.1781 H   0  0  0  0  0  0
  -30.0754  -19.0934   16.4545 H   0  0  0  0  0  0
  -29.8090  -15.2623   16.3330 H   0  0  0  0  0  0
  -29.1967  -16.8855   16.5910 H   0  0  0  0  0  0
  -28.6155  -15.5611   17.5976 H   0  0  0  0  0  0
  -26.9411  -25.0181   21.4647 H   0  0  0  0  0  0
  -27.9769  -24.7940   22.8318 H   0  0  0  0  0  0
  -29.8639  -25.8863   21.2598 H   0  0  0  0  0  0
  -28.7158  -26.8758   22.1000 H   0  0  0  0  0  0
  -28.9937  -15.3225   21.2183 H   0  0  0  0  0  0
  -28.8037  -23.7463   20.2546 H   0  0  0  0  0  0
  1 25  1  0  0  0
  1 30  2  0  0  0
  1 87  1  0  0  0
  2  3  1  0  0  0
  2 25  1  0  0  0
  2 90  1  0  0  0
  2 91  1  0  0  0
  3  4  1  0  0  0
  3 92  1  0  0  0
  3 93  1  0  0  0
  4  5  1  0  0  0
  4 94  1  0  0  0
  4 95  1  0  0  0
  5  6  1  0  0  0
  5 26  1  0  0  0
  5 96  1  0  0  0
  6 25  1  0  0  0
  6 97  1  0  0  0
  6 98  1  0  0  0
  7  8  2  0  0  0
  7 26  1  0  0  0
  7 29  1  0  0  0
  8  9  1  0  0  0
  8 22  1  0  0  0
  9 10  1  0  0  0
  9 27  2  0  0  0
 10 11  2  0  0  0
 10 15  1  0  0  0
 11 12  1  0  0  0
 11 99  1  0  0  0
 12 13  2  0  0  0
 12100  1  0  0  0
 13 14  1  0  0  0
 13 31  1  0  0  0
 14 15  2  0  0  0
 14101  1  0  0  0
 15102  1  0  0  0
 16 17  2  0  0  0
 16 21  1  0  0  0
 16 31  1  0  0  0
 17 18  1  0  0  0
 17103  1  0  0  0
 18 19  2  0  0  0
 18104  1  0  0  0
 19 20  1  0  0  0
 19 24  1  0  0  0
 20 21  2  0  0  0
 20105  1  0  0  0
 21 23  1  0  0  0
 22 28  1  0  0  0
 22 32  2  0  0  0
 26 27  1  0  0  0
 28106  1  0  0  0
 28107  1  0  0  0
 29108  1  0  0  0
 29109  1  0  0  0
 33 34  1  0  0  0
 33 66  1  0  0  0
 33 70  2  0  0  0
 34 36  1  0  0  0
 34 59  1  0  0  0
 34110  1  0  0  0
 35 44  2  0  0  0
 35 45  1  0  0  0
 35 68  1  0  0  0
 36 56  1  0  0  0
 36111  1  0  0  0
 37 39  1  0  0  0
 37 47  1  0  0  0
 37 66  1  0  0  0
 37112  1  0  0  0
 38 43  2  0  0  0
 38 46  1  0  0  0
 38 47  1  0  0  0
 39 64  1  0  0  0
 39 67  2  0  0  0
 40 52  1  0  0  0
 40 53  2  0  0  0
 40 58  1  0  0  0
 41113  1  0  0  0
 41114  1  0  0  0
 41115  1  0  0  0
 41 48  1  0  0  0
 42 43  1  0  0  0
 42 66  1  0  0  0
 42116  1  0  0  0
 42117  1  0  0  0
 43 44  1  0  0  0
 44118  1  0  0  0
 45 46  2  0  0  0
 45119  1  0  0  0
 46120  1  0  0  0
 47121  1  0  0  0
 47122  1  0  0  0
 48 56  1  0  0  0
 48 65  1  0  0  0
 48123  1  0  0  0
 49 50  1  0  0  0
 49 53  1  0  0  0
 49 64  1  0  0  0
 49124  1  0  0  0
 50 51  1  0  0  0
 50125  1  0  0  0
 50126  1  0  0  0
 51 52  1  0  0  0
 51127  1  0  0  0
 51128  1  0  0  0
 52129  1  0  0  0
 52130  1  0  0  0
 53 54  1  0  0  0
 54 55  2  0  0  0
 54131  1  0  0  0
 55 57  1  0  0  0
 55132  1  0  0  0
 56 69  2  0  0  0
 57 58  2  0  0  0
 57133  1  0  0  0
 58134  1  0  0  0
 59 60  1  0  0  0
 59 61  1  0  0  0
 59 62  1  0  0  0
 60135  1  0  0  0
 60136  1  0  0  0
 60137  1  0  0  0
 61138  1  0  0  0
 61139  1  0  0  0
 61140  1  0  0  0
 62141  1  0  0  0
 62142  1  0  0  0
 62143  1  0  0  0
 63 65  1  0  0  0
 63144  1  0  0  0
 63145  1  0  0  0
 63146  1  0  0  0
 64147  1  0  0  0
 65148  1  0  0  0
 68 85  1  0  0  0
 71 72  2  0  0  0
 71 74  1  0  0  0
 71 81  1  0  0  0
 72 73  1  0  0  0
 72 87  1  0  0  0
 73 75  2  0  0  0
 73 89  1  0  0  0
 74 86  2  0  0  0
 74 80  1  0  0  0
 75 82  1  0  0  0
 75 86  1  0  0  0
 76 78  1  0  0  0
 76 80  1  0  0  0
 76149  1  0  0  0
 76150  1  0  0  0
 77 79  1  0  0  0
 77 80  1  0  0  0
 77151  1  0  0  0
 77152  1  0  0  0
 78 88  1  0  0  0
 78153  1  0  0  0
 78154  1  0  0  0
 79 88  1  0  0  0
 79155  1  0  0  0
 79156  1  0  0  0
 80157  1  0  0  0
 81158  1  0  0  0
 81159  1  0  0  0
 81160  1  0  0  0
 82161  1  0  0  0
 82162  1  0  0  0
 82163  1  0  0  0
 83 89  1  0  0  0
 83164  1  0  0  0
 83165  1  0  0  0
 83166  1  0  0  0
 84 85  1  0  0  0
 84167  1  0  0  0
 84168  1  0  0  0
 84 88  1  0  0  0
 85169  1  0  0  0
 85170  1  0  0  0
 87171  1  0  0  0
 88172  1  0  0  0
M  CHG  1  88   1
M  ISO  4   1 100  68 101  85 101  87 100
M  END
> <chiral flag>
0

> <version>
0

> <s_m_source_file>
/data/baiqing/PycharmProjects/Reinvent-master-3.2/result/LINK_invent/BTK/process_docking_weight1_custom_sum_contain_oxygen_bond_distance_aromatic_linkinvent_7_9_3/rearranged_h_0159.sdf

> <i_m_source_file_index>
27

> <r_mmod_Potential_Energy-OPLS-2005>
-240.416717529297

> <r_mmod_Stretch_Energy-OPLS-2005>
43.3825721740723

> <r_mmod_Bend_Energy-OPLS-2005>
101.699028015137

> <r_mmod_Torsional_Energy-OPLS-2005>
315.193267822266

> <r_mmod_Improper_Torsional_Energy-OPLS-2005>
4.81523895263672

> <r_mmod_Van_der_Waal_Energy-OPLS-2005>
157.49528503418

> <r_mmod_Electrostatic_Energy-OPLS-2005>
-441.609405517578

> <r_mmod_Solvation_Energy-OPLS-2005>
-439.884155273438

> <b_mmod_Minimization_Converged-OPLS-2005>
0

> <r_mmod_RMS_Derivative-OPLS-2005>
0.735499143600464

$$$$
27
                    3D
 Structure written by MMmdl.
166175  0  0  1  0            999 V2000
  -30.6403  -14.7971   20.4516 C   0  0  0  0  0  0
  -30.4265  -12.5019   19.4722 C   0  0  0  0  0  0
  -29.5095  -12.5249   18.2302 C   0  0  0  0  0  0
  -28.0380  -12.3318   18.6409 C   0  0  0  0  0  0
  -27.6346  -13.2412   19.8350 C   0  0  2  0  0  0
  -28.6795  -13.2120   20.9690 C   0  0  0  0  0  0
  -25.2462  -13.8220   20.5690 C   0  0  0  0  0  0
  -24.1773  -13.0448   20.9214 C   0  0  0  0  0  0
  -24.6380  -11.6931   20.8709 C   0  0  0  0  0  0
  -23.9059  -10.4303   21.0382 C   0  0  0  0  0  0
  -24.3640   -9.4209   21.9141 C   0  0  0  0  0  0
  -23.6329   -8.2237   22.0715 C   0  0  0  0  0  0
  -22.4295   -8.0288   21.3529 C   0  0  0  0  0  0
  -21.9906   -9.0255   20.4634 C   0  0  0  0  0  0
  -22.7223  -10.2143   20.3036 C   0  0  0  0  0  0
  -21.6852   -6.0735   22.5279 C   0  0  0  0  0  0
  -21.4015   -6.5633   23.8213 C   0  0  0  0  0  0
  -21.3667   -5.6779   24.9169 C   0  0  0  0  0  0
  -21.6054   -4.3044   24.7214 C   0  0  0  0  0  0
  -21.8827   -3.8149   23.4331 C   0  0  0  0  0  0
  -21.9188   -4.6963   22.3397 C   0  0  0  0  0  0
  -22.7790  -13.5233   21.1862 C   0  0  0  0  0  0
  -22.1662   -4.2152   21.0969 F   0  0  0  0  0  0
  -21.5622   -3.4538   25.7734 F   0  0  0  0  0  0
  -29.9687  -13.5882   20.3753 N   0  0  0  0  0  0
  -26.2892  -12.9445   20.3202 N   0  0  0  0  0  0
  -25.9313  -11.6580   20.5662 N   0  0  0  0  0  0
  -22.0425  -12.8273   22.0439 N   0  0  0  0  0  0
  -25.4084  -15.1948   20.4121 N   0  0  0  0  0  0
  -31.8407  -14.8032   20.1603 O   0  0  0  0  0  0
  -21.6644   -6.8892   21.4246 O   0  0  0  0  0  0
  -22.3454  -14.5505   20.6647 O   0  0  0  0  0  0
  -24.6249  -31.8536   23.1954 C   0  0  0  0  0  0
  -25.9044  -32.4768   23.8331 C   0  0  1  0  0  0
  -27.2258  -27.2544   20.1521 C   0  0  0  0  0  0
  -25.5806  -33.8568   24.2209 N   0  0  0  0  0  0
  -23.4277  -30.4705   21.5374 C   0  0  2  0  0  0
  -24.8766  -28.9065   20.1200 C   0  0  0  0  0  0
  -22.7484  -29.4573   22.4905 C   0  0  0  0  0  0
  -18.0291  -28.1405   22.8491 C   0  0  0  0  0  0
  -24.1468  -36.7319   23.2653 C   0  0  0  0  0  0
  -25.9700  -30.7659   21.3776 C   0  0  0  0  0  0
  -26.0440  -29.3829   20.7288 C   0  0  0  0  0  0
  -27.2193  -28.5697   20.7344 C   0  0  0  0  0  0
  -26.0420  -26.8428   19.5112 C   0  0  0  0  0  0
  -24.8775  -27.6418   19.5049 C   0  0  0  0  0  0
  -23.6482  -29.7935   20.1572 C   0  0  0  0  0  0
  -25.4102  -36.3105   24.0327 C   0  0  1  0  0  0
  -20.5880  -28.3702   23.1283 C   0  0  2  0  0  0
  -20.6751  -26.9406   22.5436 C   0  0  0  0  0  0
  -19.5746  -26.6383   21.5224 C   0  0  0  0  0  0
  -18.1926  -26.7949   22.1617 C   0  0  0  0  0  0
  -19.1539  -28.8872   23.2893 C   0  0  0  0  0  0
  -18.9465  -30.1458   23.8941 C   0  0  0  0  0  0
  -17.6464  -30.6602   24.0579 C   0  0  0  0  0  0
  -25.9034  -34.9461   23.5090 C   0  0  0  0  0  0
  -16.5360  -29.9100   23.6325 C   0  0  0  0  0  0
  -16.7279  -28.6513   23.0364 C   0  0  0  0  0  0
  -26.4401  -31.6659   25.0763 C   0  0  0  0  0  0
  -25.3584  -31.3913   26.1484 C   0  0  0  0  0  0
  -27.0247  -30.3062   24.6313 C   0  0  0  0  0  0
  -27.5970  -32.4430   25.7488 C   0  0  0  0  0  0
  -27.5582  -37.1800   24.8441 C   0  0  0  0  0  0
  -21.4196  -29.3037   22.3661 N   0  0  0  0  0  0
  -26.4294  -37.3788   23.9400 N   0  0  0  0  0  0
  -24.6925  -31.0502   22.0931 N   0  0  0  0  0  0
  -23.4193  -28.8102   23.3001 O   0  0  0  0  0  0
  -28.3555  -26.4103   20.1782 O   0  0  0  0  0  0
  -26.5673  -34.8938   22.4711 O   0  0  0  0  0  0
  -23.5392  -32.1354   23.7236 O   0  0  0  0  0  0
  -27.9221  -22.7583   21.3483 C   0  0  0  0  0  0
  -28.9127  -22.0235   20.6265 C   0  0  0  0  0  0
  -27.6752  -24.1693   21.2003 C   0  0  0  0  0  0
  -29.5916  -22.8069   19.6372 C   0  0  0  0  0  0
  -29.3314  -24.2298   19.4644 C   0  0  0  0  0  0
  -28.3886  -24.9715   20.2556 C   0  0  0  0  0  0
  -28.9208  -16.5740   21.3005 C   0  0  0  0  0  0
  -30.3054  -17.0920   19.3773 C   0  0  0  0  0  0
  -28.9800  -18.1230   21.6881 C   0  0  0  0  0  0
  -30.4124  -18.6076   19.8483 C   0  0  0  0  0  0
  -26.6715  -24.8096   22.1470 C   0  0  0  0  0  0
  -30.6594  -22.1150   18.7880 C   0  0  0  0  0  0
  -30.1532  -25.0146   18.4479 C   0  0  0  0  0  0
  -29.4148  -20.5896   21.1906 C   0  0  0  0  0  0
  -29.9485  -16.0256   20.3745 N   0  0  0  0  0  0
  -29.2391  -19.1539   20.6087 N   0  3  0  0  0  0
  -31.4652  -12.6235   19.1635 H   0  0  0  0  0  0
  -30.3822  -11.5371   19.9811 H   0  0  0  0  0  0
  -29.8110  -11.7589   17.5135 H   0  0  0  0  0  0
  -29.6143  -13.4808   17.7118 H   0  0  0  0  0  0
  -27.9011  -11.2843   18.9113 H   0  0  0  0  0  0
  -27.3945  -12.5044   17.7796 H   0  0  0  0  0  0
  -27.6186  -14.2577   19.4370 H   0  0  0  0  0  0
  -28.7342  -12.2205   21.4235 H   0  0  0  0  0  0
  -28.3952  -13.8930   21.7691 H   0  0  0  0  0  0
  -25.2808   -9.5686   22.4667 H   0  0  0  0  0  0
  -24.0040   -7.4630   22.7460 H   0  0  0  0  0  0
  -21.0795   -8.8783   19.8989 H   0  0  0  0  0  0
  -22.3657  -10.9672   19.6146 H   0  0  0  0  0  0
  -21.2000   -7.6131   23.9721 H   0  0  0  0  0  0
  -21.1481   -6.0492   25.9070 H   0  0  0  0  0  0
  -22.0596   -2.7612   23.2807 H   0  0  0  0  0  0
  -22.4058  -12.0031   22.4964 H   0  0  0  0  0  0
  -21.1013  -13.1270   22.2565 H   0  0  0  0  0  0
  -24.6334  -15.8403   20.5118 H   0  0  0  0  0  0
  -26.2385  -15.6353   20.0373 H   0  0  0  0  0  0
  -26.7120  -32.5419   23.1099 H   0  0  0  0  0  0
  -24.9766  -33.9694   25.0218 H   0  0  0  0  0  0
  -22.7278  -31.2933   21.3818 H   0  0  0  0  0  0
  -23.3731  -35.9646   23.3300 H   0  0  0  0  0  0
  -24.3562  -36.8973   22.2070 H   0  0  0  0  0  0
  -23.7204  -37.6502   23.6711 H   0  0  0  0  0  0
  -26.1062  -31.5220   20.6041 H   0  0  0  0  0  0
  -26.8472  -30.8212   22.0100 H   0  0  0  0  0  0
  -28.1186  -28.9289   21.2126 H   0  0  0  0  0  0
  -26.0092  -25.8723   19.0362 H   0  0  0  0  0  0
  -23.9788  -27.2663   19.0355 H   0  0  0  0  0  0
  -23.7801  -30.5607   19.3937 H   0  0  0  0  0  0
  -22.7685  -29.2218   19.8541 H   0  0  0  0  0  0
  -25.1288  -36.1969   25.0823 H   0  0  0  0  0  0
  -21.0006  -28.3278   24.1387 H   0  0  0  0  0  0
  -20.5612  -26.2305   23.3642 H   0  0  0  0  0  0
  -21.6626  -26.7399   22.1269 H   0  0  0  0  0  0
  -19.6888  -25.6287   21.1266 H   0  0  0  0  0  0
  -19.6696  -27.3189   20.6759 H   0  0  0  0  0  0
  -17.4184  -26.6732   21.4013 H   0  0  0  0  0  0
  -18.0313  -26.0098   22.9024 H   0  0  0  0  0  0
  -19.7945  -30.7255   24.2344 H   0  0  0  0  0  0
  -17.5025  -31.6293   24.5158 H   0  0  0  0  0  0
  -15.5355  -30.3026   23.7615 H   0  0  0  0  0  0
  -15.8689  -28.0840   22.7074 H   0  0  0  0  0  0
  -24.5707  -30.7309   25.7840 H   0  0  0  0  0  0
  -24.8809  -32.3131   26.4831 H   0  0  0  0  0  0
  -25.7813  -30.9141   27.0329 H   0  0  0  0  0  0
  -26.2874  -29.6861   24.1207 H   0  0  0  0  0  0
  -27.3733  -29.7317   25.4905 H   0  0  0  0  0  0
  -27.8831  -30.4325   23.9712 H   0  0  0  0  0  0
  -27.2570  -33.3718   26.2097 H   0  0  0  0  0  0
  -28.3708  -32.7043   25.0254 H   0  0  0  0  0  0
  -28.0728  -31.8566   26.5357 H   0  0  0  0  0  0
  -28.2596  -38.0105   24.7507 H   0  0  0  0  0  0
  -28.1079  -36.2634   24.6232 H   0  0  0  0  0  0
  -27.2321  -37.1431   25.8852 H   0  0  0  0  0  0
  -20.9370  -29.8777   21.6897 H   0  0  0  0  0  0
  -26.0177  -38.2856   24.1445 H   0  0  0  0  0  0
  -27.3890  -22.2460   22.1372 H   0  0  0  0  0  0
  -27.9500  -16.3730   20.8482 H   0  0  0  0  0  0
  -28.9426  -16.0042   22.2312 H   0  0  0  0  0  0
  -31.2351  -16.8367   18.8663 H   0  0  0  0  0  0
  -29.5451  -17.0481   18.5959 H   0  0  0  0  0  0
  -29.7669  -18.2402   22.4376 H   0  0  0  0  0  0
  -28.0556  -18.3781   22.2067 H   0  0  0  0  0  0
  -30.6050  -19.2386   18.9806 H   0  0  0  0  0  0
  -31.2988  -18.7027   20.4770 H   0  0  0  0  0  0
  -26.4749  -24.1761   23.0129 H   0  0  0  0  0  0
  -25.7166  -24.9708   21.6459 H   0  0  0  0  0  0
  -27.0265  -25.7682   22.5280 H   0  0  0  0  0  0
  -30.1914  -21.5559   17.9748 H   0  0  0  0  0  0
  -31.2609  -21.4268   19.3795 H   0  0  0  0  0  0
  -31.3715  -22.8011   18.3367 H   0  0  0  0  0  0
  -30.0960  -24.5468   17.4659 H   0  0  0  0  0  0
  -31.1966  -25.0486   18.7635 H   0  0  0  0  0  0
  -29.8308  -26.0480   18.3236 H   0  0  0  0  0  0
  -28.9288  -20.5530   22.1669 H   0  0  0  0  0  0
  -30.4649  -20.7057   21.4549 H   0  0  0  0  0  0
  -28.4387  -19.1758   19.9944 H   0  0  0  0  0  0
  1 25  1  0  0  0
  1 30  2  0  0  0
  1 85  1  0  0  0
  2  3  1  0  0  0
  2 25  1  0  0  0
  2 87  1  0  0  0
  2 88  1  0  0  0
  3  4  1  0  0  0
  3 89  1  0  0  0
  3 90  1  0  0  0
  4  5  1  0  0  0
  4 91  1  0  0  0
  4 92  1  0  0  0
  5  6  1  0  0  0
  5 26  1  0  0  0
  5 93  1  0  0  0
  6 25  1  0  0  0
  6 94  1  0  0  0
  6 95  1  0  0  0
  7  8  2  0  0  0
  7 26  1  0  0  0
  7 29  1  0  0  0
  8  9  1  0  0  0
  8 22  1  0  0  0
  9 10  1  0  0  0
  9 27  2  0  0  0
 10 11  2  0  0  0
 10 15  1  0  0  0
 11 12  1  0  0  0
 11 96  1  0  0  0
 12 13  2  0  0  0
 12 97  1  0  0  0
 13 14  1  0  0  0
 13 31  1  0  0  0
 14 15  2  0  0  0
 14 98  1  0  0  0
 15 99  1  0  0  0
 16 17  2  0  0  0
 16 21  1  0  0  0
 16 31  1  0  0  0
 17 18  1  0  0  0
 17100  1  0  0  0
 18 19  2  0  0  0
 18101  1  0  0  0
 19 20  1  0  0  0
 19 24  1  0  0  0
 20 21  2  0  0  0
 20102  1  0  0  0
 21 23  1  0  0  0
 22 28  1  0  0  0
 22 32  2  0  0  0
 26 27  1  0  0  0
 28103  1  0  0  0
 28104  1  0  0  0
 29105  1  0  0  0
 29106  1  0  0  0
 33 34  1  0  0  0
 33 66  1  0  0  0
 33 70  2  0  0  0
 34 36  1  0  0  0
 34 59  1  0  0  0
 34107  1  0  0  0
 35 44  2  0  0  0
 35 45  1  0  0  0
 35 68  1  0  0  0
 36 56  1  0  0  0
 36108  1  0  0  0
 37 39  1  0  0  0
 37 47  1  0  0  0
 37 66  1  0  0  0
 37109  1  0  0  0
 38 43  2  0  0  0
 38 46  1  0  0  0
 38 47  1  0  0  0
 39 64  1  0  0  0
 39 67  2  0  0  0
 40 52  1  0  0  0
 40 53  2  0  0  0
 40 58  1  0  0  0
 41110  1  0  0  0
 41111  1  0  0  0
 41112  1  0  0  0
 41 48  1  0  0  0
 42 43  1  0  0  0
 42 66  1  0  0  0
 42113  1  0  0  0
 42114  1  0  0  0
 43 44  1  0  0  0
 44115  1  0  0  0
 45 46  2  0  0  0
 45116  1  0  0  0
 46117  1  0  0  0
 47118  1  0  0  0
 47119  1  0  0  0
 48 56  1  0  0  0
 48 65  1  0  0  0
 48120  1  0  0  0
 49 50  1  0  0  0
 49 53  1  0  0  0
 49 64  1  0  0  0
 49121  1  0  0  0
 50 51  1  0  0  0
 50122  1  0  0  0
 50123  1  0  0  0
 51 52  1  0  0  0
 51124  1  0  0  0
 51125  1  0  0  0
 52126  1  0  0  0
 52127  1  0  0  0
 53 54  1  0  0  0
 54 55  2  0  0  0
 54128  1  0  0  0
 55 57  1  0  0  0
 55129  1  0  0  0
 56 69  2  0  0  0
 57 58  2  0  0  0
 57130  1  0  0  0
 58131  1  0  0  0
 59 60  1  0  0  0
 59 61  1  0  0  0
 59 62  1  0  0  0
 60132  1  0  0  0
 60133  1  0  0  0
 60134  1  0  0  0
 61135  1  0  0  0
 61136  1  0  0  0
 61137  1  0  0  0
 62138  1  0  0  0
 62139  1  0  0  0
 62140  1  0  0  0
 63 65  1  0  0  0
 63141  1  0  0  0
 63142  1  0  0  0
 63143  1  0  0  0
 64144  1  0  0  0
 65145  1  0  0  0
 68 76  1  0  0  0
 71 72  2  0  0  0
 71 73  1  0  0  0
 71146  1  0  0  0
 72 74  1  0  0  0
 72 84  1  0  0  0
 73 76  2  0  0  0
 73 81  1  0  0  0
 74 75  2  0  0  0
 74 82  1  0  0  0
 75 76  1  0  0  0
 75 83  1  0  0  0
 77 79  1  0  0  0
 77 85  1  0  0  0
 77147  1  0  0  0
 77148  1  0  0  0
 78 80  1  0  0  0
 78 85  1  0  0  0
 78149  1  0  0  0
 78150  1  0  0  0
 79 86  1  0  0  0
 79151  1  0  0  0
 79152  1  0  0  0
 80 86  1  0  0  0
 80153  1  0  0  0
 80154  1  0  0  0
 81155  1  0  0  0
 81156  1  0  0  0
 81157  1  0  0  0
 82158  1  0  0  0
 82159  1  0  0  0
 82160  1  0  0  0
 83161  1  0  0  0
 83162  1  0  0  0
 83163  1  0  0  0
 84164  1  0  0  0
 84165  1  0  0  0
 84 86  1  0  0  0
 86166  1  0  0  0
M  CHG  1  86   1
M  ISO  4   1 100  68 101  76 101  85 100
M  END
> <chiral flag>
0

> <version>
0

> <s_m_source_file>
/data/baiqing/PycharmProjects/Reinvent-master-3.2/result/LINK_invent/BTK/process_docking_weight1_custom_sum_contain_oxygen_bond_distance_aromatic_linkinvent_7_9_3/rearranged_h_0159.sdf

> <i_m_source_file_index>
28

> <r_mmod_Potential_Energy-OPLS-2005>
321.440368652344

> <r_mmod_Stretch_Energy-OPLS-2005>
134.230560302734

> <r_mmod_Bend_Energy-OPLS-2005>
227.612152099609

> <r_mmod_Torsional_Energy-OPLS-2005>
379.254425048828

> <r_mmod_Improper_Torsional_Energy-OPLS-2005>
18.6866626739502

> <r_mmod_Van_der_Waal_Energy-OPLS-2005>
143.371170043945

> <r_mmod_Electrostatic_Energy-OPLS-2005>
-239.201568603516

> <r_mmod_Solvation_Energy-OPLS-2005>
-439.2275390625

> <b_mmod_Minimization_Converged-OPLS-2005>
0

> <r_mmod_RMS_Derivative-OPLS-2005>
4.44500017166138

$$$$
28
                    3D
 Structure written by MMmdl.
172181  0  0  1  0            999 V2000
  -30.7340  -14.4076   20.5347 C   0  0  0  0  0  0
  -30.4049  -12.2549   19.4156 C   0  0  0  0  0  0
  -29.4895  -12.4824   18.1967 C   0  0  0  0  0  0
  -28.0051  -12.3726   18.6032 C   0  0  0  0  0  0
  -27.6583  -13.2073   19.8675 C   0  0  2  0  0  0
  -28.7009  -12.9995   20.9889 C   0  0  0  0  0  0
  -25.2599  -13.8173   20.5667 C   0  0  0  0  0  0
  -24.1847  -13.0451   20.9159 C   0  0  0  0  0  0
  -24.6398  -11.6911   20.8733 C   0  0  0  0  0  0
  -23.9061  -10.4293   21.0396 C   0  0  0  0  0  0
  -24.3622   -9.4216   21.9175 C   0  0  0  0  0  0
  -23.6310   -8.2243   22.0747 C   0  0  0  0  0  0
  -22.4288   -8.0282   21.3537 C   0  0  0  0  0  0
  -21.9917   -9.0249   20.4635 C   0  0  0  0  0  0
  -22.7236  -10.2130   20.3043 C   0  0  0  0  0  0
  -21.6854   -6.0744   22.5285 C   0  0  0  0  0  0
  -21.4005   -6.5649   23.8218 C   0  0  0  0  0  0
  -21.3659   -5.6800   24.9178 C   0  0  0  0  0  0
  -21.6050   -4.3060   24.7222 C   0  0  0  0  0  0
  -21.8819   -3.8149   23.4340 C   0  0  0  0  0  0
  -21.9192   -4.6971   22.3405 C   0  0  0  0  0  0
  -22.7874  -13.5251   21.1830 C   0  0  0  0  0  0
  -22.1663   -4.2160   21.0980 F   0  0  0  0  0  0
  -21.5637   -3.4538   25.7734 F   0  0  0  0  0  0
  -30.0322  -13.2536   20.4232 N   0  0  0  0  0  0
  -26.3017  -12.9329   20.3332 N   0  0  0  0  0  0
  -25.9319  -11.6488   20.5744 N   0  0  0  0  0  0
  -22.0513  -12.8245   22.0383 N   0  0  0  0  0  0
  -25.4359  -15.1882   20.4091 N   0  0  0  0  0  0
  -31.9197  -14.5113   20.2073 O   0  0  0  0  0  0
  -21.6650   -6.8881   21.4239 O   0  0  0  0  0  0
  -22.3560  -14.5561   20.6693 O   0  0  0  0  0  0
  -24.6128  -31.8735   23.2183 C   0  0  0  0  0  0
  -25.9038  -32.4857   23.8452 C   0  0  1  0  0  0
  -27.2203  -27.4600   20.0712 C   0  0  0  0  0  0
  -25.5913  -33.8653   24.2369 N   0  0  0  0  0  0
  -23.3964  -30.5031   21.5615 C   0  0  2  0  0  0
  -24.8361  -28.9857   20.1162 C   0  0  0  0  0  0
  -22.7403  -29.4685   22.5040 C   0  0  0  0  0  0
  -18.0265  -28.1368   22.8500 C   0  0  0  0  0  0
  -24.1485  -36.7331   23.2636 C   0  0  0  0  0  0
  -25.9280  -30.8443   21.3714 C   0  0  0  0  0  0
  -26.0003  -29.4849   20.7113 C   0  0  0  0  0  0
  -27.1949  -28.7292   20.6902 C   0  0  0  0  0  0
  -26.0249  -26.9821   19.4700 C   0  0  0  0  0  0
  -24.8415  -27.7310   19.4955 C   0  0  0  0  0  0
  -23.5994  -29.8480   20.1724 C   0  0  0  0  0  0
  -25.4105  -36.3130   24.0338 C   0  0  1  0  0  0
  -20.5856  -28.3647   23.1342 C   0  0  2  0  0  0
  -20.6760  -26.9388   22.5421 C   0  0  0  0  0  0
  -19.5736  -26.6377   21.5222 C   0  0  0  0  0  0
  -18.1914  -26.7922   22.1620 C   0  0  0  0  0  0
  -19.1514  -28.8824   23.2914 C   0  0  0  0  0  0
  -18.9434  -30.1437   23.8911 C   0  0  0  0  0  0
  -17.6436  -30.6581   24.0553 C   0  0  0  0  0  0
  -25.9035  -34.9494   23.5143 C   0  0  0  0  0  0
  -16.5330  -29.9073   23.6327 C   0  0  0  0  0  0
  -16.7256  -28.6489   23.0359 C   0  0  0  0  0  0
  -26.4461  -31.6629   25.0771 C   0  0  0  0  0  0
  -25.3728  -31.3725   26.1522 C   0  0  0  0  0  0
  -27.0281  -30.3075   24.6132 C   0  0  0  0  0  0
  -27.6044  -32.4334   25.7533 C   0  0  0  0  0  0
  -27.5586  -37.1817   24.8454 C   0  0  0  0  0  0
  -21.4138  -29.3029   22.3770 N   0  0  0  0  0  0
  -26.4296  -37.3811   23.9408 N   0  0  0  0  0  0
  -24.6645  -31.0863   22.1081 N   0  0  0  0  0  0
  -23.4199  -28.8210   23.3043 O   0  0  0  0  0  0
  -28.3950  -26.7278   20.0785 O   0  0  0  0  0  0
  -26.5575  -34.8924   22.4689 O   0  0  0  0  0  0
  -23.5322  -32.1483   23.7589 O   0  0  0  0  0  0
  -29.1080  -23.0890   19.7151 C   0  0  0  0  0  0
  -31.7971  -23.8083   19.5945 C   0  0  0  0  0  0
  -29.4490  -24.4517   19.7047 C   0  0  0  0  0  0
  -30.0731  -22.0722   19.5959 C   0  0  0  0  0  0
  -30.8137  -24.8227   19.6602 C   0  0  0  0  0  0
  -31.4433  -22.4324   19.5319 C   0  0  0  0  0  0
  -29.2561  -17.6276   19.3611 C   0  0  0  0  0  0
  -29.1985  -17.6139   21.8065 C   0  0  0  0  0  0
  -30.0144  -16.3035   19.3382 C   0  0  0  0  0  0
  -29.9806  -16.2808   21.8523 C   0  0  0  0  0  0
  -29.6293  -18.4712   20.5913 C   0  0  0  0  0  0
  -31.2457  -26.2795   19.6561 C   0  0  0  0  0  0
  -28.5575  -20.6132   18.2278 C   0  0  0  0  0  0
  -33.7213  -21.7663   19.1149 C   0  0  0  0  0  0
  -28.2690  -25.3988   19.5780 C   0  0  0  0  0  0
  -29.6039  -20.6161   19.3796 C   0  0  2  0  0  0
  -29.9719  -15.5218   20.5894 N   0  0  0  0  0  0
  -29.0574  -19.8408   20.5367 N   0  0  0  0  0  0
  -29.4306  -20.4970   21.7822 O   0  5  0  0  0  0
  -32.3703  -21.4199   19.3886 O   0  0  0  0  0  0
  -31.4535  -12.3253   19.1204 H   0  0  0  0  0  0
  -30.2698  -11.2492   19.8168 H   0  0  0  0  0  0
  -29.7195  -11.7567   17.4146 H   0  0  0  0  0  0
  -29.6821  -13.4646   17.7629 H   0  0  0  0  0  0
  -27.7879  -11.3189   18.7813 H   0  0  0  0  0  0
  -27.3654  -12.6751   17.7722 H   0  0  0  0  0  0
  -27.6960  -14.2550   19.5692 H   0  0  0  0  0  0
  -28.6557  -11.9796   21.3735 H   0  0  0  0  0  0
  -28.4919  -13.6541   21.8361 H   0  0  0  0  0  0
  -25.2753   -9.5722   22.4761 H   0  0  0  0  0  0
  -24.0029   -7.4640   22.7471 H   0  0  0  0  0  0
  -21.0844   -8.8755   19.8953 H   0  0  0  0  0  0
  -22.3672  -10.9675   19.6164 H   0  0  0  0  0  0
  -21.1986   -7.6159   23.9724 H   0  0  0  0  0  0
  -21.1490   -6.0524   25.9084 H   0  0  0  0  0  0
  -22.0599   -2.7616   23.2831 H   0  0  0  0  0  0
  -22.4104  -11.9898   22.4776 H   0  0  0  0  0  0
  -21.1133  -13.1287   22.2573 H   0  0  0  0  0  0
  -24.6818  -15.8546   20.5308 H   0  0  0  0  0  0
  -26.3102  -15.6218   20.1423 H   0  0  0  0  0  0
  -26.7109  -32.5563   23.1219 H   0  0  0  0  0  0
  -25.0074  -33.9830   25.0521 H   0  0  0  0  0  0
  -22.6823  -31.3193   21.4330 H   0  0  0  0  0  0
  -23.3748  -35.9664   23.3295 H   0  0  0  0  0  0
  -24.3577  -36.8946   22.2048 H   0  0  0  0  0  0
  -23.7226  -37.6534   23.6643 H   0  0  0  0  0  0
  -26.0413  -31.6136   20.6064 H   0  0  0  0  0  0
  -26.8164  -30.8896   21.9900 H   0  0  0  0  0  0
  -28.0944  -29.1136   21.1505 H   0  0  0  0  0  0
  -25.9563  -26.0315   18.9631 H   0  0  0  0  0  0
  -23.9462  -27.3439   19.0288 H   0  0  0  0  0  0
  -23.7024  -30.6281   19.4178 H   0  0  0  0  0  0
  -22.7237  -29.2677   19.8768 H   0  0  0  0  0  0
  -25.1280  -36.2007   25.0835 H   0  0  0  0  0  0
  -20.9929  -28.3179   24.1473 H   0  0  0  0  0  0
  -20.5685  -26.2237   23.3595 H   0  0  0  0  0  0
  -21.6625  -26.7458   22.1187 H   0  0  0  0  0  0
  -19.6889  -25.6288   21.1249 H   0  0  0  0  0  0
  -19.6690  -27.3191   20.6759 H   0  0  0  0  0  0
  -17.4194  -26.6691   21.4009 H   0  0  0  0  0  0
  -18.0297  -26.0062   22.9007 H   0  0  0  0  0  0
  -19.7906  -30.7254   24.2291 H   0  0  0  0  0  0
  -17.4987  -31.6271   24.5132 H   0  0  0  0  0  0
  -15.5329  -30.2969   23.7663 H   0  0  0  0  0  0
  -15.8655  -28.0813   22.7071 H   0  0  0  0  0  0
  -24.5893  -30.7088   25.7849 H   0  0  0  0  0  0
  -24.8934  -32.2880   26.5000 H   0  0  0  0  0  0
  -25.8083  -30.8864   27.0266 H   0  0  0  0  0  0
  -26.2824  -29.6868   24.1155 H   0  0  0  0  0  0
  -27.4017  -29.7281   25.4586 H   0  0  0  0  0  0
  -27.8679  -30.4397   23.9306 H   0  0  0  0  0  0
  -27.2666  -33.3609   26.2171 H   0  0  0  0  0  0
  -28.3834  -32.6938   25.0355 H   0  0  0  0  0  0
  -28.0745  -31.8428   26.5410 H   0  0  0  0  0  0
  -28.2595  -38.0122   24.7521 H   0  0  0  0  0  0
  -28.1089  -36.2658   24.6257 H   0  0  0  0  0  0
  -27.2305  -37.1434   25.8855 H   0  0  0  0  0  0
  -20.9291  -29.8771   21.7020 H   0  0  0  0  0  0
  -26.0194  -38.2894   24.1407 H   0  0  0  0  0  0
  -28.0654  -22.8139   19.7528 H   0  0  0  0  0  0
  -32.8329  -24.1129   19.5530 H   0  0  0  0  0  0
  -28.1781  -17.4585   19.3190 H   0  0  0  0  0  0
  -29.5423  -18.1155   18.4329 H   0  0  0  0  0  0
  -29.3745  -18.1328   22.7493 H   0  0  0  0  0  0
  -28.1257  -17.4163   21.7675 H   0  0  0  0  0  0
  -31.0497  -16.5343   19.0762 H   0  0  0  0  0  0
  -29.6222  -15.6965   18.5203 H   0  0  0  0  0  0
  -29.5770  -15.6591   22.6533 H   0  0  0  0  0  0
  -31.0161  -16.4926   22.1261 H   0  0  0  0  0  0
  -30.7175  -18.5672   20.6171 H   0  0  0  0  0  0
  -32.3292  -26.3783   19.5810 H   0  0  0  0  0  0
  -30.9333  -26.7692   20.5788 H   0  0  0  0  0  0
  -30.8026  -26.8122   18.8146 H   0  0  0  0  0  0
  -28.9713  -21.0927   17.3399 H   0  0  0  0  0  0
  -27.6461  -21.1485   18.4874 H   0  0  0  0  0  0
  -28.2242  -19.6272   17.9191 H   0  0  0  0  0  0
  -34.2968  -20.8564   18.9446 H   0  0  0  0  0  0
  -34.1787  -22.2925   19.9532 H   0  0  0  0  0  0
  -33.7996  -22.3777   18.2146 H   0  0  0  0  0  0
  -27.4422  -24.9164   20.1023 H   0  0  0  0  0  0
  -28.0229  -25.4323   18.5148 H   0  0  0  0  0  0
  -30.4771  -20.0839   19.0000 H   0  0  0  0  0  0
  1 25  1  0  0  0
  1 30  2  0  0  0
  1 87  1  0  0  0
  2  3  1  0  0  0
  2 25  1  0  0  0
  2 91  1  0  0  0
  2 92  1  0  0  0
  3  4  1  0  0  0
  3 93  1  0  0  0
  3 94  1  0  0  0
  4  5  1  0  0  0
  4 95  1  0  0  0
  4 96  1  0  0  0
  5  6  1  0  0  0
  5 26  1  0  0  0
  5 97  1  0  0  0
  6 25  1  0  0  0
  6 98  1  0  0  0
  6 99  1  0  0  0
  7  8  2  0  0  0
  7 26  1  0  0  0
  7 29  1  0  0  0
  8  9  1  0  0  0
  8 22  1  0  0  0
  9 10  1  0  0  0
  9 27  2  0  0  0
 10 11  2  0  0  0
 10 15  1  0  0  0
 11 12  1  0  0  0
 11100  1  0  0  0
 12 13  2  0  0  0
 12101  1  0  0  0
 13 14  1  0  0  0
 13 31  1  0  0  0
 14 15  2  0  0  0
 14102  1  0  0  0
 15103  1  0  0  0
 16 17  2  0  0  0
 16 21  1  0  0  0
 16 31  1  0  0  0
 17 18  1  0  0  0
 17104  1  0  0  0
 18 19  2  0  0  0
 18105  1  0  0  0
 19 20  1  0  0  0
 19 24  1  0  0  0
 20 21  2  0  0  0
 20106  1  0  0  0
 21 23  1  0  0  0
 22 28  1  0  0  0
 22 32  2  0  0  0
 26 27  1  0  0  0
 28107  1  0  0  0
 28108  1  0  0  0
 29109  1  0  0  0
 29110  1  0  0  0
 33 34  1  0  0  0
 33 66  1  0  0  0
 33 70  2  0  0  0
 34 36  1  0  0  0
 34 59  1  0  0  0
 34111  1  0  0  0
 35 44  2  0  0  0
 35 45  1  0  0  0
 35 68  1  0  0  0
 36 56  1  0  0  0
 36112  1  0  0  0
 37 39  1  0  0  0
 37 47  1  0  0  0
 37 66  1  0  0  0
 37113  1  0  0  0
 38 43  2  0  0  0
 38 46  1  0  0  0
 38 47  1  0  0  0
 39 64  1  0  0  0
 39 67  2  0  0  0
 40 52  1  0  0  0
 40 53  2  0  0  0
 40 58  1  0  0  0
 41114  1  0  0  0
 41115  1  0  0  0
 41116  1  0  0  0
 41 48  1  0  0  0
 42 43  1  0  0  0
 42 66  1  0  0  0
 42117  1  0  0  0
 42118  1  0  0  0
 43 44  1  0  0  0
 44119  1  0  0  0
 45 46  2  0  0  0
 45120  1  0  0  0
 46121  1  0  0  0
 47122  1  0  0  0
 47123  1  0  0  0
 48 56  1  0  0  0
 48 65  1  0  0  0
 48124  1  0  0  0
 49 50  1  0  0  0
 49 53  1  0  0  0
 49 64  1  0  0  0
 49125  1  0  0  0
 50 51  1  0  0  0
 50126  1  0  0  0
 50127  1  0  0  0
 51 52  1  0  0  0
 51128  1  0  0  0
 51129  1  0  0  0
 52130  1  0  0  0
 52131  1  0  0  0
 53 54  1  0  0  0
 54 55  2  0  0  0
 54132  1  0  0  0
 55 57  1  0  0  0
 55133  1  0  0  0
 56 69  2  0  0  0
 57 58  2  0  0  0
 57134  1  0  0  0
 58135  1  0  0  0
 59 60  1  0  0  0
 59 61  1  0  0  0
 59 62  1  0  0  0
 60136  1  0  0  0
 60137  1  0  0  0
 60138  1  0  0  0
 61139  1  0  0  0
 61140  1  0  0  0
 61141  1  0  0  0
 62142  1  0  0  0
 62143  1  0  0  0
 62144  1  0  0  0
 63 65  1  0  0  0
 63145  1  0  0  0
 63146  1  0  0  0
 63147  1  0  0  0
 64148  1  0  0  0
 65149  1  0  0  0
 68 85  1  0  0  0
 71 73  2  0  0  0
 71 74  1  0  0  0
 71150  1  0  0  0
 72 75  2  0  0  0
 72 76  1  0  0  0
 72151  1  0  0  0
 73 75  1  0  0  0
 73 85  1  0  0  0
 74 76  2  0  0  0
 74 86  1  0  0  0
 75 82  1  0  0  0
 76 90  1  0  0  0
 77 79  1  0  0  0
 77 81  1  0  0  0
 77152  1  0  0  0
 77153  1  0  0  0
 78 80  1  0  0  0
 78 81  1  0  0  0
 78154  1  0  0  0
 78155  1  0  0  0
 79 87  1  0  0  0
 79156  1  0  0  0
 79157  1  0  0  0
 80 87  1  0  0  0
 80158  1  0  0  0
 80159  1  0  0  0
 81 88  1  0  0  0
 81160  1  0  0  0
 82161  1  0  0  0
 82162  1  0  0  0
 82163  1  0  0  0
 83164  1  0  0  0
 83165  1  0  0  0
 83166  1  0  0  0
 83 86  1  0  0  0
 84 90  1  0  0  0
 84167  1  0  0  0
 84168  1  0  0  0
 84169  1  0  0  0
 85170  1  0  0  0
 85171  1  0  0  0
 86 88  1  0  0  0
 86172  1  0  0  0
 88 89  1  0  0  0
M  CHG  1  89  -1
M  ISO  4   1 100  68 101  85 101  87 100
M  END
> <chiral flag>
0

> <version>
0

> <s_m_source_file>
/data/baiqing/PycharmProjects/Reinvent-master-3.2/result/LINK_invent/BTK/process_docking_weight1_custom_sum_contain_oxygen_bond_distance_aromatic_linkinvent_7_9_3/rearranged_h_0159.sdf

> <i_m_source_file_index>
29

> <r_mmod_Potential_Energy-OPLS-2005>
-129.190521240234

> <r_mmod_Stretch_Energy-OPLS-2005>
44.9988327026367

> <r_mmod_Bend_Energy-OPLS-2005>
139.980102539062

> <r_mmod_Torsional_Energy-OPLS-2005>
361.904266357422

> <r_mmod_Improper_Torsional_Energy-OPLS-2005>
17.0199489593506

> <r_mmod_Van_der_Waal_Energy-OPLS-2005>
198.329711914062

> <r_mmod_Electrostatic_Energy-OPLS-2005>
-320.76611328125

> <r_mmod_Solvation_Energy-OPLS-2005>
-588.508056640625

> <b_mmod_Minimization_Converged-OPLS-2005>
0

> <r_mmod_RMS_Derivative-OPLS-2005>
1.90958714485168

$$$$
29
                    3D
 Structure written by MMmdl.
169178  0  0  1  0            999 V2000
  -30.6864  -14.6943   20.4676 C   0  0  0  0  0  0
  -30.4130  -12.4294   19.4691 C   0  0  0  0  0  0
  -29.4969  -12.4983   18.2311 C   0  0  0  0  0  0
  -28.0254  -12.3274   18.6498 C   0  0  0  0  0  0
  -27.6361  -13.2310   19.8502 C   0  0  2  0  0  0
  -28.6853  -13.1913   20.9831 C   0  0  0  0  0  0
  -25.2501  -13.8205   20.5730 C   0  0  0  0  0  0
  -24.1785  -13.0449   20.9214 C   0  0  0  0  0  0
  -24.6376  -11.6922   20.8753 C   0  0  0  0  0  0
  -23.9062  -10.4296   21.0407 C   0  0  0  0  0  0
  -24.3618   -9.4210   21.9180 C   0  0  0  0  0  0
  -23.6299   -8.2245   22.0746 C   0  0  0  0  0  0
  -22.4280   -8.0280   21.3540 C   0  0  0  0  0  0
  -21.9913   -9.0252   20.4640 C   0  0  0  0  0  0
  -22.7236  -10.2137   20.3050 C   0  0  0  0  0  0
  -21.6854   -6.0735   22.5278 C   0  0  0  0  0  0
  -21.4016   -6.5641   23.8212 C   0  0  0  0  0  0
  -21.3661   -5.6793   24.9175 C   0  0  0  0  0  0
  -21.6042   -4.3055   24.7223 C   0  0  0  0  0  0
  -21.8822   -3.8148   23.4344 C   0  0  0  0  0  0
  -21.9195   -4.6964   22.3401 C   0  0  0  0  0  0
  -22.7810  -13.5230   21.1873 C   0  0  0  0  0  0
  -22.1661   -4.2153   21.0977 F   0  0  0  0  0  0
  -21.5631   -3.4537   25.7736 F   0  0  0  0  0  0
  -29.9888  -13.5102   20.3888 N   0  0  0  0  0  0
  -26.2916  -12.9397   20.3330 N   0  0  0  0  0  0
  -25.9307  -11.6539   20.5784 N   0  0  0  0  0  0
  -22.0465  -12.8207   22.0425 N   0  0  0  0  0  0
  -25.4233  -15.1929   20.4166 N   0  0  0  0  0  0
  -31.8833  -14.7081   20.1655 O   0  0  0  0  0  0
  -21.6643   -6.8876   21.4238 O   0  0  0  0  0  0
  -22.3497  -14.5542   20.6733 O   0  0  0  0  0  0
  -24.6325  -31.8587   23.2048 C   0  0  0  0  0  0
  -25.9160  -32.4776   23.8372 C   0  0  1  0  0  0
  -27.2016  -27.2639   20.1145 C   0  0  0  0  0  0
  -25.5964  -33.8579   24.2290 N   0  0  0  0  0  0
  -23.4271  -30.4887   21.5487 C   0  0  2  0  0  0
  -24.8704  -28.9531   20.1063 C   0  0  0  0  0  0
  -22.7507  -29.4628   22.4912 C   0  0  0  0  0  0
  -18.0297  -28.1398   22.8479 C   0  0  0  0  0  0
  -24.1491  -36.7278   23.2633 C   0  0  0  0  0  0
  -25.9776  -30.7703   21.3897 C   0  0  0  0  0  0
  -26.0458  -29.3971   20.7259 C   0  0  0  0  0  0
  -27.2139  -28.5642   20.7269 C   0  0  0  0  0  0
  -26.0047  -26.9186   19.4342 C   0  0  0  0  0  0
  -24.8553  -27.7201   19.4504 C   0  0  0  0  0  0
  -23.6435  -29.8394   20.1597 C   0  0  0  0  0  0
  -25.4118  -36.3082   24.0327 C   0  0  1  0  0  0
  -20.5903  -28.3709   23.1260 C   0  0  2  0  0  0
  -20.6791  -26.9427   22.5402 C   0  0  0  0  0  0
  -19.5763  -26.6392   21.5211 C   0  0  0  0  0  0
  -18.1943  -26.7936   22.1625 C   0  0  0  0  0  0
  -19.1550  -28.8870   23.2863 C   0  0  0  0  0  0
  -18.9467  -30.1469   23.8886 C   0  0  0  0  0  0
  -17.6466  -30.6593   24.0567 C   0  0  0  0  0  0
  -25.9064  -34.9452   23.5103 C   0  0  0  0  0  0
  -16.5359  -29.9091   23.6338 C   0  0  0  0  0  0
  -16.7281  -28.6513   23.0350 C   0  0  0  0  0  0
  -26.4519  -31.6585   25.0748 C   0  0  0  0  0  0
  -25.3731  -31.3738   26.1457 C   0  0  0  0  0  0
  -27.0354  -30.2996   24.6235 C   0  0  0  0  0  0
  -27.6074  -32.4318   25.7523 C   0  0  0  0  0  0
  -27.5579  -37.1805   24.8467 C   0  0  0  0  0  0
  -21.4210  -29.3060   22.3650 N   0  0  0  0  0  0
  -26.4298  -37.3778   23.9404 N   0  0  0  0  0  0
  -24.6979  -31.0562   22.1031 N   0  0  0  0  0  0
  -23.4207  -28.8140   23.2987 O   0  0  0  0  0  0
  -28.2544  -26.3125   20.2047 O   0  0  0  0  0  0
  -26.5615  -34.8923   22.4661 O   0  0  0  0  0  0
  -23.5479  -32.1409   23.7344 O   0  0  0  0  0  0
  -29.3775  -20.6497   20.4125 C   0  0  0  0  0  0
  -29.8391  -21.5071   19.3525 C   0  0  0  0  0  0
  -28.5662  -21.3112   21.3963 C   0  0  0  0  0  0
  -29.5102  -22.9122   19.2783 C   0  0  0  0  0  0
  -28.2598  -22.7245   21.3291 C   0  0  0  0  0  0
  -28.6571  -23.5467   20.2278 C   0  0  0  0  0  0
  -30.0885  -18.3236   21.7704 C   0  0  0  0  0  0
  -28.8921  -18.0725   19.6782 C   0  0  0  0  0  0
  -30.7440  -16.9011   21.5628 C   0  0  0  0  0  0
  -29.5385  -16.6401   19.4809 C   0  0  0  0  0  0
  -29.7919  -19.0831   20.4424 C   0  0  0  0  0  0
  -30.6770  -20.9011   18.2230 C   0  0  0  0  0  0
  -27.9473  -20.4788   22.5146 C   0  0  0  0  0  0
  -30.0500  -23.7602   18.1286 C   0  0  0  0  0  0
  -27.4497  -23.3751   22.4487 C   0  0  0  0  0  0
  -27.8746  -24.8968   19.8718 C   0  0  0  0  0  0
  -30.0358  -15.9092   20.6885 N   0  0  0  0  0  0
  -31.4573  -12.5175   19.1646 H   0  0  0  0  0  0
  -30.3290  -11.4573   19.9582 H   0  0  0  0  0  0
  -29.6295  -13.4549   17.7223 H   0  0  0  0  0  0
  -29.7736  -11.7260   17.5121 H   0  0  0  0  0  0
  -27.8803  -11.2795   18.9148 H   0  0  0  0  0  0
  -27.3657  -12.5184   17.8024 H   0  0  0  0  0  0
  -27.6161  -14.2459   19.4609 H   0  0  0  0  0  0
  -28.7108  -12.2098   21.4595 H   0  0  0  0  0  0
  -28.4316  -13.9109   21.7638 H   0  0  0  0  0  0
  -25.2758   -9.5693   22.4759 H   0  0  0  0  0  0
  -24.0014   -7.4634   22.7460 H   0  0  0  0  0  0
  -21.0847   -8.8758   19.8945 H   0  0  0  0  0  0
  -22.3682  -10.9673   19.6162 H   0  0  0  0  0  0
  -21.2003   -7.6148   23.9716 H   0  0  0  0  0  0
  -21.1480   -6.0520   25.9079 H   0  0  0  0  0  0
  -22.0600   -2.7609   23.2839 H   0  0  0  0  0  0
  -22.4091  -11.9864   22.4795 H   0  0  0  0  0  0
  -21.1082  -13.1209   22.2646 H   0  0  0  0  0  0
  -24.6650  -15.8550   20.5388 H   0  0  0  0  0  0
  -26.2931  -15.6318   20.1418 H   0  0  0  0  0  0
  -26.7217  -32.5423   23.1103 H   0  0  0  0  0  0
  -25.0140  -33.9719   25.0456 H   0  0  0  0  0  0
  -22.7235  -31.3123   21.4119 H   0  0  0  0  0  0
  -23.3767  -35.9599   23.3301 H   0  0  0  0  0  0
  -24.3577  -36.8889   22.2045 H   0  0  0  0  0  0
  -23.7238  -37.6481   23.6648 H   0  0  0  0  0  0
  -26.1234  -31.5340   20.6244 H   0  0  0  0  0  0
  -26.8544  -30.8119   22.0243 H   0  0  0  0  0  0
  -28.1054  -28.8931   21.2421 H   0  0  0  0  0  0
  -25.8917  -25.9977   18.8853 H   0  0  0  0  0  0
  -23.9613  -27.3802   18.9454 H   0  0  0  0  0  0
  -23.7707  -30.6251   19.4139 H   0  0  0  0  0  0
  -22.7599  -29.2794   19.8482 H   0  0  0  0  0  0
  -25.1305  -36.1932   25.0822 H   0  0  0  0  0  0
  -21.0001  -28.3296   24.1380 H   0  0  0  0  0  0
  -20.5705  -26.2320   23.3609 H   0  0  0  0  0  0
  -21.6653  -26.7461   22.1187 H   0  0  0  0  0  0
  -19.6925  -25.6299   21.1249 H   0  0  0  0  0  0
  -19.6703  -27.3195   20.6734 H   0  0  0  0  0  0
  -17.4211  -26.6679   21.4029 H   0  0  0  0  0  0
  -18.0343  -26.0086   22.9029 H   0  0  0  0  0  0
  -19.7942  -30.7289   24.2253 H   0  0  0  0  0  0
  -17.5023  -31.6273   24.5168 H   0  0  0  0  0  0
  -15.5359  -30.2994   23.7669 H   0  0  0  0  0  0
  -15.8680  -28.0836   22.7066 H   0  0  0  0  0  0
  -24.5929  -30.7058   25.7787 H   0  0  0  0  0  0
  -24.8893  -32.2904   26.4845 H   0  0  0  0  0  0
  -25.8045  -30.8951   27.0257 H   0  0  0  0  0  0
  -26.2936  -29.6762   24.1227 H   0  0  0  0  0  0
  -27.3990  -29.7248   25.4762 H   0  0  0  0  0  0
  -27.8848  -30.4260   23.9517 H   0  0  0  0  0  0
  -27.2687  -33.3627   26.2086 H   0  0  0  0  0  0
  -28.3903  -32.6859   25.0360 H   0  0  0  0  0  0
  -28.0725  -31.8444   26.5452 H   0  0  0  0  0  0
  -28.2612  -38.0088   24.7508 H   0  0  0  0  0  0
  -28.1066  -36.2622   24.6313 H   0  0  0  0  0  0
  -27.2290  -37.1475   25.8869 H   0  0  0  0  0  0
  -20.9389  -29.8796   21.6871 H   0  0  0  0  0  0
  -26.0176  -38.2855   24.1403 H   0  0  0  0  0  0
  -30.7529  -18.9313   22.3862 H   0  0  0  0  0  0
  -29.1856  -18.1707   22.3560 H   0  0  0  0  0  0
  -27.9337  -17.9768   20.1891 H   0  0  0  0  0  0
  -28.6543  -18.4759   18.6938 H   0  0  0  0  0  0
  -30.8926  -16.4430   22.5420 H   0  0  0  0  0  0
  -31.7472  -17.0617   21.1628 H   0  0  0  0  0  0
  -30.3789  -16.7453   18.7911 H   0  0  0  0  0  0
  -28.8220  -16.0117   18.9549 H   0  0  0  0  0  0
  -30.7656  -19.0569   19.9565 H   0  0  0  0  0  0
  -30.3773  -19.8826   17.9861 H   0  0  0  0  0  0
  -31.7330  -20.8945   18.4932 H   0  0  0  0  0  0
  -30.5724  -21.4318   17.2789 H   0  0  0  0  0  0
  -28.6860  -20.2603   23.2856 H   0  0  0  0  0  0
  -27.5503  -19.5481   22.1130 H   0  0  0  0  0  0
  -27.0947  -20.9480   23.0000 H   0  0  0  0  0  0
  -31.0952  -23.5298   17.9222 H   0  0  0  0  0  0
  -30.0256  -24.8256   18.3563 H   0  0  0  0  0  0
  -29.4692  -23.5933   17.2211 H   0  0  0  0  0  0
  -27.7899  -23.0341   23.4268 H   0  0  0  0  0  0
  -26.3895  -23.1440   22.3464 H   0  0  0  0  0  0
  -27.5636  -24.4591   22.4624 H   0  0  0  0  0  0
  -26.8819  -24.7107   20.2813 H   0  0  0  0  0  0
  -27.7293  -24.8694   18.7917 H   0  0  0  0  0  0
  1 25  1  0  0  0
  1 30  2  0  0  0
  1 87  1  0  0  0
  2  3  1  0  0  0
  2 25  1  0  0  0
  2 88  1  0  0  0
  2 89  1  0  0  0
  3  4  1  0  0  0
  3 90  1  0  0  0
  3 91  1  0  0  0
  4  5  1  0  0  0
  4 92  1  0  0  0
  4 93  1  0  0  0
  5  6  1  0  0  0
  5 26  1  0  0  0
  5 94  1  0  0  0
  6 25  1  0  0  0
  6 95  1  0  0  0
  6 96  1  0  0  0
  7  8  2  0  0  0
  7 26  1  0  0  0
  7 29  1  0  0  0
  8  9  1  0  0  0
  8 22  1  0  0  0
  9 10  1  0  0  0
  9 27  2  0  0  0
 10 11  2  0  0  0
 10 15  1  0  0  0
 11 12  1  0  0  0
 11 97  1  0  0  0
 12 13  2  0  0  0
 12 98  1  0  0  0
 13 14  1  0  0  0
 13 31  1  0  0  0
 14 15  2  0  0  0
 14 99  1  0  0  0
 15100  1  0  0  0
 16 17  2  0  0  0
 16 21  1  0  0  0
 16 31  1  0  0  0
 17 18  1  0  0  0
 17101  1  0  0  0
 18 19  2  0  0  0
 18102  1  0  0  0
 19 20  1  0  0  0
 19 24  1  0  0  0
 20 21  2  0  0  0
 20103  1  0  0  0
 21 23  1  0  0  0
 22 28  1  0  0  0
 22 32  2  0  0  0
 26 27  1  0  0  0
 28104  1  0  0  0
 28105  1  0  0  0
 29106  1  0  0  0
 29107  1  0  0  0
 33 34  1  0  0  0
 33 66  1  0  0  0
 33 70  2  0  0  0
 34 36  1  0  0  0
 34 59  1  0  0  0
 34108  1  0  0  0
 35 44  2  0  0  0
 35 45  1  0  0  0
 35 68  1  0  0  0
 36 56  1  0  0  0
 36109  1  0  0  0
 37 39  1  0  0  0
 37 47  1  0  0  0
 37 66  1  0  0  0
 37110  1  0  0  0
 38 43  2  0  0  0
 38 46  1  0  0  0
 38 47  1  0  0  0
 39 64  1  0  0  0
 39 67  2  0  0  0
 40 52  1  0  0  0
 40 53  2  0  0  0
 40 58  1  0  0  0
 41111  1  0  0  0
 41112  1  0  0  0
 41113  1  0  0  0
 41 48  1  0  0  0
 42 43  1  0  0  0
 42 66  1  0  0  0
 42114  1  0  0  0
 42115  1  0  0  0
 43 44  1  0  0  0
 44116  1  0  0  0
 45 46  2  0  0  0
 45117  1  0  0  0
 46118  1  0  0  0
 47119  1  0  0  0
 47120  1  0  0  0
 48 56  1  0  0  0
 48 65  1  0  0  0
 48121  1  0  0  0
 49 50  1  0  0  0
 49 53  1  0  0  0
 49 64  1  0  0  0
 49122  1  0  0  0
 50 51  1  0  0  0
 50123  1  0  0  0
 50124  1  0  0  0
 51 52  1  0  0  0
 51125  1  0  0  0
 51126  1  0  0  0
 52127  1  0  0  0
 52128  1  0  0  0
 53 54  1  0  0  0
 54 55  2  0  0  0
 54129  1  0  0  0
 55 57  1  0  0  0
 55130  1  0  0  0
 56 69  2  0  0  0
 57 58  2  0  0  0
 57131  1  0  0  0
 58132  1  0  0  0
 59 60  1  0  0  0
 59 61  1  0  0  0
 59 62  1  0  0  0
 60133  1  0  0  0
 60134  1  0  0  0
 60135  1  0  0  0
 61136  1  0  0  0
 61137  1  0  0  0
 61138  1  0  0  0
 62139  1  0  0  0
 62140  1  0  0  0
 62141  1  0  0  0
 63 65  1  0  0  0
 63142  1  0  0  0
 63143  1  0  0  0
 63144  1  0  0  0
 64145  1  0  0  0
 65146  1  0  0  0
 68 86  1  0  0  0
 71 72  2  0  0  0
 71 73  1  0  0  0
 71 81  1  0  0  0
 72 74  1  0  0  0
 72 82  1  0  0  0
 73 75  2  0  0  0
 73 83  1  0  0  0
 74 76  2  0  0  0
 74 84  1  0  0  0
 75 76  1  0  0  0
 75 85  1  0  0  0
 76 86  1  0  0  0
 77 79  1  0  0  0
 77 81  1  0  0  0
 77147  1  0  0  0
 77148  1  0  0  0
 78 80  1  0  0  0
 78 81  1  0  0  0
 78149  1  0  0  0
 78150  1  0  0  0
 79 87  1  0  0  0
 79151  1  0  0  0
 79152  1  0  0  0
 80 87  1  0  0  0
 80153  1  0  0  0
 80154  1  0  0  0
 81155  1  0  0  0
 82156  1  0  0  0
 82157  1  0  0  0
 82158  1  0  0  0
 83159  1  0  0  0
 83160  1  0  0  0
 83161  1  0  0  0
 84162  1  0  0  0
 84163  1  0  0  0
 84164  1  0  0  0
 85165  1  0  0  0
 85166  1  0  0  0
 85167  1  0  0  0
 86168  1  0  0  0
 86169  1  0  0  0
M  ISO  4   1 100  68 101  86 101  87 100
M  END
> <chiral flag>
0

> <version>
0

> <s_m_source_file>
/data/baiqing/PycharmProjects/Reinvent-master-3.2/result/LINK_invent/BTK/process_docking_weight1_custom_sum_contain_oxygen_bond_distance_aromatic_linkinvent_7_9_3/rearranged_h_0159.sdf

> <i_m_source_file_index>
30

> <r_mmod_Potential_Energy-OPLS-2005>
458.2353515625

> <r_mmod_Stretch_Energy-OPLS-2005>
124.084083557129

> <r_mmod_Bend_Energy-OPLS-2005>
201.642578125

> <r_mmod_Torsional_Energy-OPLS-2005>
349.277923583984

> <r_mmod_Improper_Torsional_Energy-OPLS-2005>
12.2771148681641

> <r_mmod_Van_der_Waal_Energy-OPLS-2005>
183.091903686523

> <r_mmod_Electrostatic_Energy-OPLS-2005>
-305.520660400391

> <r_mmod_Solvation_Energy-OPLS-2005>
-191.748992919922

> <b_mmod_Minimization_Converged-OPLS-2005>
0

> <r_mmod_RMS_Derivative-OPLS-2005>
1.12328016757965

$$$$
30
                    3D
 Structure written by MMmdl.
173182  0  0  1  0            999 V2000
  -30.7521  -14.4552   20.5750 C   0  0  0  0  0  0
  -30.4234  -12.3064   19.4150 C   0  0  0  0  0  0
  -29.4933  -12.5084   18.2022 C   0  0  0  0  0  0
  -28.0127  -12.3867   18.6191 C   0  0  0  0  0  0
  -27.6673  -13.2160   19.8860 C   0  0  2  0  0  0
  -28.7188  -12.9788   20.9928 C   0  0  0  0  0  0
  -25.2613  -13.8208   20.5706 C   0  0  0  0  0  0
  -24.1856  -13.0465   20.9173 C   0  0  0  0  0  0
  -24.6420  -11.6940   20.8727 C   0  0  0  0  0  0
  -23.9078  -10.4310   21.0367 C   0  0  0  0  0  0
  -24.3611   -9.4228   21.9154 C   0  0  0  0  0  0
  -23.6277   -8.2268   22.0744 C   0  0  0  0  0  0
  -22.4256   -8.0313   21.3536 C   0  0  0  0  0  0
  -21.9899   -9.0281   20.4632 C   0  0  0  0  0  0
  -22.7253  -10.2155   20.3012 C   0  0  0  0  0  0
  -21.6843   -6.0751   22.5268 C   0  0  0  0  0  0
  -21.4016   -6.5653   23.8217 C   0  0  0  0  0  0
  -21.3660   -5.6804   24.9169 C   0  0  0  0  0  0
  -21.6049   -4.3057   24.7213 C   0  0  0  0  0  0
  -21.8816   -3.8159   23.4324 C   0  0  0  0  0  0
  -21.9186   -4.6982   22.3388 C   0  0  0  0  0  0
  -22.7885  -13.5276   21.1838 C   0  0  0  0  0  0
  -22.1638   -4.2169   21.0957 F   0  0  0  0  0  0
  -21.5625   -3.4534   25.7717 F   0  0  0  0  0  0
  -30.0440  -13.2983   20.4357 N   0  0  0  0  0  0
  -26.3077  -12.9376   20.3474 N   0  0  0  0  0  0
  -25.9359  -11.6529   20.5819 N   0  0  0  0  0  0
  -22.0510  -12.8231   22.0378 N   0  0  0  0  0  0
  -25.4346  -15.1909   20.4057 N   0  0  0  0  0  0
  -31.8909  -14.5810   20.1150 O   0  0  0  0  0  0
  -21.6624   -6.8897   21.4241 O   0  0  0  0  0  0
  -22.3565  -14.5583   20.6724 O   0  0  0  0  0  0
  -24.6088  -31.8755   23.2157 C   0  0  0  0  0  0
  -25.8981  -32.4889   23.8429 C   0  0  1  0  0  0
  -27.2467  -27.5008   20.0856 C   0  0  0  0  0  0
  -25.5852  -33.8699   24.2340 N   0  0  0  0  0  0
  -23.3943  -30.4926   21.5605 C   0  0  2  0  0  0
  -24.8451  -28.9688   20.1195 C   0  0  0  0  0  0
  -22.7386  -29.4661   22.5116 C   0  0  0  0  0  0
  -18.0248  -28.1373   22.8529 C   0  0  0  0  0  0
  -24.1481  -36.7351   23.2626 C   0  0  0  0  0  0
  -25.9132  -30.8679   21.3487 C   0  0  0  0  0  0
  -26.0018  -29.5047   20.7004 C   0  0  0  0  0  0
  -27.2099  -28.7809   20.6790 C   0  0  0  0  0  0
  -26.0732  -26.9576   19.5272 C   0  0  0  0  0  0
  -24.8732  -27.6928   19.5285 C   0  0  0  0  0  0
  -23.5996  -29.8228   20.1741 C   0  0  0  0  0  0
  -25.4110  -36.3174   24.0326 C   0  0  1  0  0  0
  -20.5835  -28.3653   23.1392 C   0  0  2  0  0  0
  -20.6756  -26.9418   22.5447 C   0  0  0  0  0  0
  -19.5732  -26.6402   21.5245 C   0  0  0  0  0  0
  -18.1901  -26.7931   22.1635 C   0  0  0  0  0  0
  -19.1496  -28.8834   23.2947 C   0  0  0  0  0  0
  -18.9416  -30.1438   23.8966 C   0  0  0  0  0  0
  -17.6421  -30.6594   24.0571 C   0  0  0  0  0  0
  -25.9032  -34.9529   23.5139 C   0  0  0  0  0  0
  -16.5319  -29.9100   23.6314 C   0  0  0  0  0  0
  -16.7236  -28.6502   23.0371 C   0  0  0  0  0  0
  -26.4408  -31.6647   25.0723 C   0  0  0  0  0  0
  -25.3662  -31.3761   26.1467 C   0  0  0  0  0  0
  -27.0159  -30.3087   24.6003 C   0  0  0  0  0  0
  -27.6002  -32.4325   25.7469 C   0  0  0  0  0  0
  -27.5604  -37.1839   24.8451 C   0  0  0  0  0  0
  -21.4123  -29.3040   22.3857 N   0  0  0  0  0  0
  -26.4314  -37.3844   23.9405 N   0  0  0  0  0  0
  -24.6580  -31.0889   22.1035 N   0  0  0  0  0  0
  -23.4176  -28.8193   23.3133 O   0  0  0  0  0  0
  -28.3765  -26.7266   20.0756 O   0  0  0  0  0  0
  -26.5620  -34.8956   22.4714 O   0  0  0  0  0  0
  -23.5292  -32.1462   23.7589 O   0  0  0  0  0  0
  -29.1667  -20.2691   21.4199 C   0  0  0  0  0  0
  -29.7136  -21.2479   18.8752 C   0  0  0  0  0  0
  -29.4096  -19.3362   20.3834 C   0  0  0  0  0  0
  -29.1551  -21.6589   21.2033 C   0  0  0  0  0  0
  -29.6253  -19.8510   19.0751 C   0  0  0  0  0  0
  -29.4492  -22.1694   19.9167 C   0  0  0  0  0  0
  -29.4991  -17.4807   22.1934 C   0  0  0  0  0  0
  -29.6094  -15.9558   22.2049 C   0  0  0  0  0  0
  -30.2465  -16.8156   20.0905 C   0  0  0  0  0  0
  -29.2801  -17.8337   20.7195 C   0  0  2  0  0  0
  -28.7678  -22.5655   22.3656 C   0  0  0  0  0  0
  -29.6658  -18.9681   17.8381 C   0  0  0  0  0  0
  -29.9278  -26.5743   18.2396 C   0  0  0  0  0  0
  -29.3947  -24.0977   18.1669 C   0  0  0  0  0  0
  -29.5749  -27.3025   19.5550 C   0  0  0  0  0  0
  -29.4131  -23.6816   19.6609 C   0  0  2  0  0  0
  -30.0419  -15.5734   20.8570 N   0  0  0  0  0  0
  -28.9576  -25.4923   17.9453 N   0  3  0  0  0  0
  -30.4964  -24.3159   20.3193 O   0  0  0  0  0  0
  -31.4664  -12.3879   19.1058 H   0  0  0  0  0  0
  -30.3136  -11.2974   19.8131 H   0  0  0  0  0  0
  -29.7183  -11.7696   17.4311 H   0  0  0  0  0  0
  -29.6728  -13.4870   17.7526 H   0  0  0  0  0  0
  -27.8133  -11.3320   18.8072 H   0  0  0  0  0  0
  -27.3584  -12.6758   17.7948 H   0  0  0  0  0  0
  -27.7162  -14.2677   19.6058 H   0  0  0  0  0  0
  -28.6984  -11.9338   21.3061 H   0  0  0  0  0  0
  -28.4917  -13.5388   21.8936 H   0  0  0  0  0  0
  -25.2750   -9.5701   22.4735 H   0  0  0  0  0  0
  -23.9971   -7.4661   22.7466 H   0  0  0  0  0  0
  -21.0817   -8.8813   19.8941 H   0  0  0  0  0  0
  -22.3714  -10.9679   19.6092 H   0  0  0  0  0  0
  -21.2012   -7.6163   23.9721 H   0  0  0  0  0  0
  -21.1478   -6.0524   25.9077 H   0  0  0  0  0  0
  -22.0594   -2.7618   23.2818 H   0  0  0  0  0  0
  -22.4091  -11.9832   22.4671 H   0  0  0  0  0  0
  -21.1150  -13.1281   22.2629 H   0  0  0  0  0  0
  -24.6712  -15.8527   20.5005 H   0  0  0  0  0  0
  -26.2954  -15.6238   20.0959 H   0  0  0  0  0  0
  -26.7083  -32.5635   23.1247 H   0  0  0  0  0  0
  -24.9880  -33.9895   25.0388 H   0  0  0  0  0  0
  -22.6788  -31.3069   21.4246 H   0  0  0  0  0  0
  -23.3757  -35.9674   23.3291 H   0  0  0  0  0  0
  -24.3562  -36.8965   22.2034 H   0  0  0  0  0  0
  -23.7215  -37.6550   23.6640 H   0  0  0  0  0  0
  -25.9914  -31.6341   20.5753 H   0  0  0  0  0  0
  -26.8159  -30.9417   21.9431 H   0  0  0  0  0  0
  -28.0979  -29.2047   21.1286 H   0  0  0  0  0  0
  -26.0839  -25.9739   19.0846 H   0  0  0  0  0  0
  -23.9858  -27.2654   19.0819 H   0  0  0  0  0  0
  -23.6928  -30.5983   19.4132 H   0  0  0  0  0  0
  -22.7300  -29.2293   19.8866 H   0  0  0  0  0  0
  -25.1286  -36.2060   25.0820 H   0  0  0  0  0  0
  -20.9873  -28.3196   24.1519 H   0  0  0  0  0  0
  -20.5675  -26.2262   23.3628 H   0  0  0  0  0  0
  -21.6626  -26.7498   22.1219 H   0  0  0  0  0  0
  -19.6869  -25.6310   21.1271 H   0  0  0  0  0  0
  -19.6657  -27.3223   20.6799 H   0  0  0  0  0  0
  -17.4177  -26.6749   21.4007 H   0  0  0  0  0  0
  -18.0238  -26.0041   22.8987 H   0  0  0  0  0  0
  -19.7878  -30.7244   24.2376 H   0  0  0  0  0  0
  -17.4964  -31.6269   24.5166 H   0  0  0  0  0  0
  -15.5321  -30.3026   23.7573 H   0  0  0  0  0  0
  -15.8637  -28.0815   22.7086 H   0  0  0  0  0  0
  -24.5827  -30.7121   25.7821 H   0  0  0  0  0  0
  -24.8836  -32.2906   26.4910 H   0  0  0  0  0  0
  -25.7970  -30.8934   27.0230 H   0  0  0  0  0  0
  -26.2651  -29.6981   24.0976 H   0  0  0  0  0  0
  -27.3833  -29.7212   25.4423 H   0  0  0  0  0  0
  -27.8531  -30.4392   23.9147 H   0  0  0  0  0  0
  -27.2613  -33.3568   26.2138 H   0  0  0  0  0  0
  -28.3746  -32.6990   25.0272 H   0  0  0  0  0  0
  -28.0724  -31.8389   26.5295 H   0  0  0  0  0  0
  -28.2646  -38.0124   24.7538 H   0  0  0  0  0  0
  -28.1093  -36.2677   24.6222 H   0  0  0  0  0  0
  -27.2331  -37.1394   25.8856 H   0  0  0  0  0  0
  -20.9303  -29.8762   21.7067 H   0  0  0  0  0  0
  -26.0217  -38.2930   24.1422 H   0  0  0  0  0  0
  -28.9193  -19.9302   22.4129 H   0  0  0  0  0  0
  -29.9283  -21.6032   17.8781 H   0  0  0  0  0  0
  -30.4391  -17.9207   22.5342 H   0  0  0  0  0  0
  -28.7051  -17.8332   22.8515 H   0  0  0  0  0  0
  -28.6196  -15.5583   22.4191 H   0  0  0  0  0  0
  -30.2917  -15.6082   22.9844 H   0  0  0  0  0  0
  -31.2809  -17.1495   20.2087 H   0  0  0  0  0  0
  -30.0780  -16.6355   19.0305 H   0  0  0  0  0  0
  -28.2653  -17.5469   20.4393 H   0  0  0  0  0  0
  -28.6725  -22.0052   23.2962 H   0  0  0  0  0  0
  -27.7999  -23.0283   22.1726 H   0  0  0  0  0  0
  -29.4983  -23.3548   22.5396 H   0  0  0  0  0  0
  -29.4697  -19.5540   16.9384 H   0  0  0  0  0  0
  -28.8849  -18.2079   17.8850 H   0  0  0  0  0  0
  -30.6362  -18.4889   17.7137 H   0  0  0  0  0  0
  -30.9521  -26.2016   18.2473 H   0  0  0  0  0  0
  -29.8798  -27.2895   17.4190 H   0  0  0  0  0  0
  -28.6525  -23.4854   17.6542 H   0  0  0  0  0  0
  -30.3509  -23.9137   17.6746 H   0  0  0  0  0  0
  -29.5036  -28.3789   19.3854 H   0  0  0  0  0  0
  -30.3656  -27.1578   20.2905 H   0  0  0  0  0  0
  -28.4837  -24.0410   20.1054 H   0  0  0  0  0  0
  -28.6600  -25.5801   16.9881 H   0  0  0  0  0  0
  -28.1663  -25.6654   18.5468 H   0  0  0  0  0  0
  -31.2731  -23.7943   20.1470 H   0  0  0  0  0  0
  1 25  1  0  0  0
  1 30  2  0  0  0
  1 87  1  0  0  0
  2  3  1  0  0  0
  2 25  1  0  0  0
  2 90  1  0  0  0
  2 91  1  0  0  0
  3  4  1  0  0  0
  3 92  1  0  0  0
  3 93  1  0  0  0
  4  5  1  0  0  0
  4 94  1  0  0  0
  4 95  1  0  0  0
  5  6  1  0  0  0
  5 26  1  0  0  0
  5 96  1  0  0  0
  6 25  1  0  0  0
  6 97  1  0  0  0
  6 98  1  0  0  0
  7  8  2  0  0  0
  7 26  1  0  0  0
  7 29  1  0  0  0
  8  9  1  0  0  0
  8 22  1  0  0  0
  9 10  1  0  0  0
  9 27  2  0  0  0
 10 11  2  0  0  0
 10 15  1  0  0  0
 11 12  1  0  0  0
 11 99  1  0  0  0
 12 13  2  0  0  0
 12100  1  0  0  0
 13 14  1  0  0  0
 13 31  1  0  0  0
 14 15  2  0  0  0
 14101  1  0  0  0
 15102  1  0  0  0
 16 17  2  0  0  0
 16 21  1  0  0  0
 16 31  1  0  0  0
 17 18  1  0  0  0
 17103  1  0  0  0
 18 19  2  0  0  0
 18104  1  0  0  0
 19 20  1  0  0  0
 19 24  1  0  0  0
 20 21  2  0  0  0
 20105  1  0  0  0
 21 23  1  0  0  0
 22 28  1  0  0  0
 22 32  2  0  0  0
 26 27  1  0  0  0
 28106  1  0  0  0
 28107  1  0  0  0
 29108  1  0  0  0
 29109  1  0  0  0
 33 34  1  0  0  0
 33 66  1  0  0  0
 33 70  2  0  0  0
 34 36  1  0  0  0
 34 59  1  0  0  0
 34110  1  0  0  0
 35 44  2  0  0  0
 35 45  1  0  0  0
 35 68  1  0  0  0
 36 56  1  0  0  0
 36111  1  0  0  0
 37 39  1  0  0  0
 37 47  1  0  0  0
 37 66  1  0  0  0
 37112  1  0  0  0
 38 43  2  0  0  0
 38 46  1  0  0  0
 38 47  1  0  0  0
 39 64  1  0  0  0
 39 67  2  0  0  0
 40 52  1  0  0  0
 40 53  2  0  0  0
 40 58  1  0  0  0
 41113  1  0  0  0
 41114  1  0  0  0
 41115  1  0  0  0
 41 48  1  0  0  0
 42 43  1  0  0  0
 42 66  1  0  0  0
 42116  1  0  0  0
 42117  1  0  0  0
 43 44  1  0  0  0
 44118  1  0  0  0
 45 46  2  0  0  0
 45119  1  0  0  0
 46120  1  0  0  0
 47121  1  0  0  0
 47122  1  0  0  0
 48 56  1  0  0  0
 48 65  1  0  0  0
 48123  1  0  0  0
 49 50  1  0  0  0
 49 53  1  0  0  0
 49 64  1  0  0  0
 49124  1  0  0  0
 50 51  1  0  0  0
 50125  1  0  0  0
 50126  1  0  0  0
 51 52  1  0  0  0
 51127  1  0  0  0
 51128  1  0  0  0
 52129  1  0  0  0
 52130  1  0  0  0
 53 54  1  0  0  0
 54 55  2  0  0  0
 54131  1  0  0  0
 55 57  1  0  0  0
 55132  1  0  0  0
 56 69  2  0  0  0
 57 58  2  0  0  0
 57133  1  0  0  0
 58134  1  0  0  0
 59 60  1  0  0  0
 59 61  1  0  0  0
 59 62  1  0  0  0
 60135  1  0  0  0
 60136  1  0  0  0
 60137  1  0  0  0
 61138  1  0  0  0
 61139  1  0  0  0
 61140  1  0  0  0
 62141  1  0  0  0
 62142  1  0  0  0
 62143  1  0  0  0
 63 65  1  0  0  0
 63144  1  0  0  0
 63145  1  0  0  0
 63146  1  0  0  0
 64147  1  0  0  0
 65148  1  0  0  0
 68 85  1  0  0  0
 71 73  2  0  0  0
 71 74  1  0  0  0
 71149  1  0  0  0
 72 75  2  0  0  0
 72 76  1  0  0  0
 72150  1  0  0  0
 73 75  1  0  0  0
 73 80  1  0  0  0
 74 76  2  0  0  0
 74 81  1  0  0  0
 75 82  1  0  0  0
 76 86  1  0  0  0
 77 78  1  0  0  0
 77 80  1  0  0  0
 77151  1  0  0  0
 77152  1  0  0  0
 78 87  1  0  0  0
 78153  1  0  0  0
 78154  1  0  0  0
 79 80  1  0  0  0
 79 87  1  0  0  0
 79155  1  0  0  0
 79156  1  0  0  0
 80157  1  0  0  0
 81158  1  0  0  0
 81159  1  0  0  0
 81160  1  0  0  0
 82161  1  0  0  0
 82162  1  0  0  0
 82163  1  0  0  0
 83 85  1  0  0  0
 83 88  1  0  0  0
 83164  1  0  0  0
 83165  1  0  0  0
 84 86  1  0  0  0
 84 88  1  0  0  0
 84166  1  0  0  0
 84167  1  0  0  0
 85168  1  0  0  0
 85169  1  0  0  0
 86 89  1  0  0  0
 86170  1  0  0  0
 88171  1  0  0  0
 88172  1  0  0  0
 89173  1  0  0  0
M  CHG  1  88   1
M  ISO  4   1 100  68 101  85 101  87 100
M  END
> <chiral flag>
0

> <version>
0

> <s_m_source_file>
/data/baiqing/PycharmProjects/Reinvent-master-3.2/result/LINK_invent/BTK/process_docking_weight1_custom_sum_contain_oxygen_bond_distance_aromatic_linkinvent_7_9_3/rearranged_h_0159.sdf

> <i_m_source_file_index>
31

> <r_mmod_Potential_Energy-OPLS-2005>
50.1911735534668

> <r_mmod_Stretch_Energy-OPLS-2005>
38.3799476623535

> <r_mmod_Bend_Energy-OPLS-2005>
147.511535644531

> <r_mmod_Torsional_Energy-OPLS-2005>
383.030242919922

> <r_mmod_Improper_Torsional_Energy-OPLS-2005>
14.6927442550659

> <r_mmod_Van_der_Waal_Energy-OPLS-2005>
164.718307495117

> <r_mmod_Electrostatic_Energy-OPLS-2005>
-289.911773681641

> <r_mmod_Solvation_Energy-OPLS-2005>
-419.9345703125

> <b_mmod_Minimization_Converged-OPLS-2005>
0

> <r_mmod_RMS_Derivative-OPLS-2005>
4.29122877120972

$$$$
31
                    3D
 Structure written by MMmdl.
165175  0  0  1  0            999 V2000
  -30.6684  -14.7390   20.4311 C   0  0  0  0  0  0
  -30.4137  -12.4513   19.4738 C   0  0  0  0  0  0
  -29.4946  -12.4756   18.2358 C   0  0  0  0  0  0
  -28.0288  -12.2758   18.6655 C   0  0  0  0  0  0
  -27.6306  -13.1881   19.8518 C   0  0  2  0  0  0
  -28.6846  -13.2090   20.9809 C   0  0  0  0  0  0
  -25.2496  -13.8060   20.5777 C   0  0  0  0  0  0
  -24.1760  -13.0370   20.9294 C   0  0  0  0  0  0
  -24.6315  -11.6840   20.8833 C   0  0  0  0  0  0
  -23.9000  -10.4243   21.0458 C   0  0  0  0  0  0
  -24.3572   -9.4158   21.9223 C   0  0  0  0  0  0
  -23.6264   -8.2187   22.0765 C   0  0  0  0  0  0
  -22.4239   -8.0243   21.3554 C   0  0  0  0  0  0
  -21.9875   -9.0215   20.4657 C   0  0  0  0  0  0
  -22.7192  -10.2100   20.3087 C   0  0  0  0  0  0
  -21.6814   -6.0721   22.5288 C   0  0  0  0  0  0
  -21.3979   -6.5633   23.8220 C   0  0  0  0  0  0
  -21.3664   -5.6795   24.9196 C   0  0  0  0  0  0
  -21.6048   -4.3062   24.7247 C   0  0  0  0  0  0
  -21.8808   -3.8146   23.4365 C   0  0  0  0  0  0
  -21.9179   -4.6950   22.3420 C   0  0  0  0  0  0
  -22.7796  -13.5200   21.1929 C   0  0  0  0  0  0
  -22.1642   -4.2136   21.0999 F   0  0  0  0  0  0
  -21.5661   -3.4555   25.7770 F   0  0  0  0  0  0
  -29.9696  -13.5511   20.3622 N   0  0  0  0  0  0
  -26.2877  -12.9178   20.3389 N   0  0  0  0  0  0
  -25.9230  -11.6374   20.5878 N   0  0  0  0  0  0
  -22.0416  -12.8202   22.0465 N   0  0  0  0  0  0
  -25.4199  -15.1779   20.4138 N   0  0  0  0  0  0
  -31.8768  -14.7275   20.1880 O   0  0  0  0  0  0
  -21.6607   -6.8848   21.4243 O   0  0  0  0  0  0
  -22.3501  -14.5515   20.6771 O   0  0  0  0  0  0
  -24.6275  -31.8584   23.2011 C   0  0  0  0  0  0
  -25.9113  -32.4773   23.8353 C   0  0  1  0  0  0
  -27.2331  -27.3045   20.1251 C   0  0  0  0  0  0
  -25.5921  -33.8574   24.2277 N   0  0  0  0  0  0
  -23.4236  -30.4791   21.5437 C   0  0  2  0  0  0
  -24.8734  -28.9294   20.1126 C   0  0  0  0  0  0
  -22.7495  -29.4606   22.4935 C   0  0  0  0  0  0
  -18.0288  -28.1382   22.8487 C   0  0  0  0  0  0
  -24.1491  -36.7285   23.2644 C   0  0  0  0  0  0
  -25.9658  -30.7850   21.3740 C   0  0  0  0  0  0
  -26.0422  -29.4106   20.7151 C   0  0  0  0  0  0
  -27.2265  -28.6125   20.7059 C   0  0  0  0  0  0
  -26.0397  -26.8745   19.5031 C   0  0  0  0  0  0
  -24.8755  -27.6682   19.4957 C   0  0  0  0  0  0
  -23.6412  -29.8117   20.1596 C   0  0  0  0  0  0
  -25.4121  -36.3083   24.0330 C   0  0  1  0  0  0
  -20.5888  -28.3689   23.1285 C   0  0  2  0  0  0
  -20.6775  -26.9409   22.5416 C   0  0  0  0  0  0
  -19.5751  -26.6381   21.5218 C   0  0  0  0  0  0
  -18.1930  -26.7923   22.1627 C   0  0  0  0  0  0
  -19.1539  -28.8855   23.2878 C   0  0  0  0  0  0
  -18.9461  -30.1455   23.8893 C   0  0  0  0  0  0
  -17.6460  -30.6583   24.0560 C   0  0  0  0  0  0
  -25.9053  -34.9449   23.5108 C   0  0  0  0  0  0
  -16.5350  -29.9078   23.6327 C   0  0  0  0  0  0
  -16.7274  -28.6495   23.0350 C   0  0  0  0  0  0
  -26.4499  -31.6584   25.0720 C   0  0  0  0  0  0
  -25.3734  -31.3706   26.1443 C   0  0  0  0  0  0
  -27.0351  -30.3014   24.6174 C   0  0  0  0  0  0
  -27.6056  -32.4330   25.7485 C   0  0  0  0  0  0
  -27.5579  -37.1806   24.8474 C   0  0  0  0  0  0
  -21.4205  -29.3038   22.3678 N   0  0  0  0  0  0
  -26.4303  -37.3775   23.9400 N   0  0  0  0  0  0
  -24.6907  -31.0585   22.0967 N   0  0  0  0  0  0
  -23.4202  -28.8146   23.3033 O   0  0  0  0  0  0
  -28.3500  -26.4501   20.1703 O   0  0  0  0  0  0
  -26.5626  -34.8921   22.4675 O   0  0  0  0  0  0
  -23.5433  -32.1382   23.7320 O   0  0  0  0  0  0
  -28.0871  -18.9529   21.8059 C   0  0  0  0  0  0
  -29.7669  -20.4998   20.1656 C   0  0  0  0  0  0
  -28.9604  -18.2777   20.9279 C   0  0  0  0  0  0
  -29.8451  -19.0605   20.1597 C   0  0  0  0  0  0
  -28.0321  -20.3789   21.8622 C   0  0  0  0  0  0
  -28.8304  -21.1968   20.9995 C   0  0  0  0  0  0
  -30.7682  -18.2195   19.2675 C   0  0  0  0  0  0
  -28.5636  -16.7843   18.9954 C   0  0  0  0  0  0
  -28.8191  -16.7592   20.5436 C   0  0  2  0  0  0
  -30.1313  -16.8102   19.0026 C   0  0  1  0  0  0
  -27.6996  -21.0427   24.2749 C   0  0  0  0  0  0
  -25.6734  -20.4170   22.8814 C   0  0  0  0  0  0
  -28.1112  -24.9805   20.1283 C   0  0  0  0  0  0
  -28.9619  -23.6000   20.0655 C   0  0  0  0  0  0
  -27.0812  -21.0381   22.8696 C   0  0  0  0  0  0
  -30.0271  -15.9553   20.1977 N   0  0  0  0  0  0
  -28.6352  -22.6007   21.0886 O   0  0  0  0  0  0
  -31.4559  -12.5467   19.1650 H   0  0  0  0  0  0
  -30.3441  -11.4913   19.9891 H   0  0  0  0  0  0
  -29.7852  -11.6943   17.5316 H   0  0  0  0  0  0
  -29.6023  -13.4229   17.7055 H   0  0  0  0  0  0
  -27.9064  -11.2305   18.9498 H   0  0  0  0  0  0
  -27.3597  -12.4384   17.8199 H   0  0  0  0  0  0
  -27.5940  -14.1665   19.4143 H   0  0  0  0  0  0
  -28.7385  -12.2402   21.4793 H   0  0  0  0  0  0
  -28.4196  -13.9366   21.7490 H   0  0  0  0  0  0
  -25.2710   -9.5636   22.4805 H   0  0  0  0  0  0
  -23.9986   -7.4554   22.7450 H   0  0  0  0  0  0
  -21.0829   -8.8720   19.8938 H   0  0  0  0  0  0
  -22.3662  -10.9649   19.6202 H   0  0  0  0  0  0
  -21.1929   -7.6131   23.9723 H   0  0  0  0  0  0
  -21.1515   -6.0533   25.9105 H   0  0  0  0  0  0
  -22.0582   -2.7606   23.2882 H   0  0  0  0  0  0
  -22.4017  -11.9846   22.4845 H   0  0  0  0  0  0
  -21.1031  -13.1230   22.2659 H   0  0  0  0  0  0
  -24.6478  -15.8259   20.5252 H   0  0  0  0  0  0
  -26.2545  -15.6152   20.0524 H   0  0  0  0  0  0
  -26.7178  -32.5441   23.1098 H   0  0  0  0  0  0
  -25.0066  -33.9716   25.0420 H   0  0  0  0  0  0
  -22.7185  -31.2989   21.3979 H   0  0  0  0  0  0
  -23.3755  -35.9616   23.3326 H   0  0  0  0  0  0
  -24.3577  -36.8888   22.2057 H   0  0  0  0  0  0
  -23.7246  -37.6494   23.6654 H   0  0  0  0  0  0
  -26.1018  -31.5500   20.6067 H   0  0  0  0  0  0
  -26.8443  -30.8322   22.0061 H   0  0  0  0  0  0
  -28.1246  -28.9810   21.1816 H   0  0  0  0  0  0
  -25.9890  -25.9074   19.0236 H   0  0  0  0  0  0
  -23.9803  -27.2943   19.0185 H   0  0  0  0  0  0
  -23.7634  -30.5872   19.4034 H   0  0  0  0  0  0
  -22.7617  -29.2422   19.8561 H   0  0  0  0  0  0
  -25.1307  -36.1944   25.0827 H   0  0  0  0  0  0
  -20.9977  -28.3262   24.1406 H   0  0  0  0  0  0
  -20.5687  -26.2296   23.3616 H   0  0  0  0  0  0
  -21.6644  -26.7439   22.1206 H   0  0  0  0  0  0
  -19.6916  -25.6294   21.1247 H   0  0  0  0  0  0
  -19.6690  -27.3191   20.6749 H   0  0  0  0  0  0
  -17.4206  -26.6674   21.4025 H   0  0  0  0  0  0
  -18.0323  -26.0063   22.9022 H   0  0  0  0  0  0
  -19.7936  -30.7273   24.2261 H   0  0  0  0  0  0
  -17.5010  -31.6261   24.5164 H   0  0  0  0  0  0
  -15.5350  -30.2978   23.7652 H   0  0  0  0  0  0
  -15.8674  -28.0812   22.7067 H   0  0  0  0  0  0
  -24.5897  -30.7076   25.7758 H   0  0  0  0  0  0
  -24.8933  -32.2864   26.4911 H   0  0  0  0  0  0
  -25.8055  -30.8845   27.0199 H   0  0  0  0  0  0
  -26.2922  -29.6754   24.1214 H   0  0  0  0  0  0
  -27.4078  -29.7283   25.4676 H   0  0  0  0  0  0
  -27.8783  -30.4320   23.9380 H   0  0  0  0  0  0
  -27.2659  -33.3622   26.2080 H   0  0  0  0  0  0
  -28.3845  -32.6916   25.0293 H   0  0  0  0  0  0
  -28.0752  -31.8450   26.5386 H   0  0  0  0  0  0
  -28.2624  -38.0076   24.7486 H   0  0  0  0  0  0
  -28.1046  -36.2607   24.6349 H   0  0  0  0  0  0
  -27.2285  -37.1518   25.8875 H   0  0  0  0  0  0
  -20.9387  -29.8753   21.6874 H   0  0  0  0  0  0
  -26.0187  -38.2858   24.1373 H   0  0  0  0  0  0
  -27.4178  -18.3619   22.4115 H   0  0  0  0  0  0
  -30.4187  -21.0636   19.5152 H   0  0  0  0  0  0
  -31.7444  -18.1188   19.7421 H   0  0  0  0  0  0
  -30.9271  -18.7473   18.3264 H   0  0  0  0  0  0
  -27.7345  -16.1219   19.1869 H   0  0  0  0  0  0
  -28.6212  -15.9753   18.2627 H   0  0  0  0  0  0
  -28.0800  -16.2305   21.1515 H   0  0  0  0  0  0
  -30.6004  -16.2918   18.1606 H   0  0  0  0  0  0
  -28.6470  -21.5832   24.2825 H   0  0  0  0  0  0
  -27.8934  -20.0311   24.6325 H   0  0  0  0  0  0
  -27.0418  -21.5294   24.9951 H   0  0  0  0  0  0
  -25.2398  -20.4142   21.8819 H   0  0  0  0  0  0
  -25.0057  -20.9923   23.5231 H   0  0  0  0  0  0
  -25.6675  -19.3936   23.2551 H   0  0  0  0  0  0
  -28.5728  -25.1880   19.1615 H   0  0  0  0  0  0
  -28.5421  -25.1000   21.1227 H   0  0  0  0  0  0
  -30.0312  -23.8090   20.1294 H   0  0  0  0  0  0
  -28.8059  -23.1250   19.0944 H   0  0  0  0  0  0
  -26.9277  -22.0798   22.5884 H   0  0  0  0  0  0
  1 25  1  0  0  0
  1 30  2  0  0  0
  1 86  1  0  0  0
  2  3  1  0  0  0
  2 25  1  0  0  0
  2 88  1  0  0  0
  2 89  1  0  0  0
  3  4  1  0  0  0
  3 90  1  0  0  0
  3 91  1  0  0  0
  4  5  1  0  0  0
  4 92  1  0  0  0
  4 93  1  0  0  0
  5  6  1  0  0  0
  5 26  1  0  0  0
  5 94  1  0  0  0
  6 25  1  0  0  0
  6 95  1  0  0  0
  6 96  1  0  0  0
  7  8  2  0  0  0
  7 26  1  0  0  0
  7 29  1  0  0  0
  8  9  1  0  0  0
  8 22  1  0  0  0
  9 10  1  0  0  0
  9 27  2  0  0  0
 10 11  2  0  0  0
 10 15  1  0  0  0
 11 12  1  0  0  0
 11 97  1  0  0  0
 12 13  2  0  0  0
 12 98  1  0  0  0
 13 14  1  0  0  0
 13 31  1  0  0  0
 14 15  2  0  0  0
 14 99  1  0  0  0
 15100  1  0  0  0
 16 17  2  0  0  0
 16 21  1  0  0  0
 16 31  1  0  0  0
 17 18  1  0  0  0
 17101  1  0  0  0
 18 19  2  0  0  0
 18102  1  0  0  0
 19 20  1  0  0  0
 19 24  1  0  0  0
 20 21  2  0  0  0
 20103  1  0  0  0
 21 23  1  0  0  0
 22 28  1  0  0  0
 22 32  2  0  0  0
 26 27  1  0  0  0
 28104  1  0  0  0
 28105  1  0  0  0
 29106  1  0  0  0
 29107  1  0  0  0
 33 34  1  0  0  0
 33 66  1  0  0  0
 33 70  2  0  0  0
 34 36  1  0  0  0
 34 59  1  0  0  0
 34108  1  0  0  0
 35 44  2  0  0  0
 35 45  1  0  0  0
 35 68  1  0  0  0
 36 56  1  0  0  0
 36109  1  0  0  0
 37 39  1  0  0  0
 37 47  1  0  0  0
 37 66  1  0  0  0
 37110  1  0  0  0
 38 43  2  0  0  0
 38 46  1  0  0  0
 38 47  1  0  0  0
 39 64  1  0  0  0
 39 67  2  0  0  0
 40 52  1  0  0  0
 40 53  2  0  0  0
 40 58  1  0  0  0
 41111  1  0  0  0
 41112  1  0  0  0
 41113  1  0  0  0
 41 48  1  0  0  0
 42 43  1  0  0  0
 42 66  1  0  0  0
 42114  1  0  0  0
 42115  1  0  0  0
 43 44  1  0  0  0
 44116  1  0  0  0
 45 46  2  0  0  0
 45117  1  0  0  0
 46118  1  0  0  0
 47119  1  0  0  0
 47120  1  0  0  0
 48 56  1  0  0  0
 48 65  1  0  0  0
 48121  1  0  0  0
 49 50  1  0  0  0
 49 53  1  0  0  0
 49 64  1  0  0  0
 49122  1  0  0  0
 50 51  1  0  0  0
 50123  1  0  0  0
 50124  1  0  0  0
 51 52  1  0  0  0
 51125  1  0  0  0
 51126  1  0  0  0
 52127  1  0  0  0
 52128  1  0  0  0
 53 54  1  0  0  0
 54 55  2  0  0  0
 54129  1  0  0  0
 55 57  1  0  0  0
 55130  1  0  0  0
 56 69  2  0  0  0
 57 58  2  0  0  0
 57131  1  0  0  0
 58132  1  0  0  0
 59 60  1  0  0  0
 59 61  1  0  0  0
 59 62  1  0  0  0
 60133  1  0  0  0
 60134  1  0  0  0
 60135  1  0  0  0
 61136  1  0  0  0
 61137  1  0  0  0
 61138  1  0  0  0
 62139  1  0  0  0
 62140  1  0  0  0
 62141  1  0  0  0
 63 65  1  0  0  0
 63142  1  0  0  0
 63143  1  0  0  0
 63144  1  0  0  0
 64145  1  0  0  0
 65146  1  0  0  0
 68 83  1  0  0  0
 71 73  2  0  0  0
 71 75  1  0  0  0
 71147  1  0  0  0
 72 74  2  0  0  0
 72 76  1  0  0  0
 72148  1  0  0  0
 73 74  1  0  0  0
 73 79  1  0  0  0
 74 77  1  0  0  0
 75 76  2  0  0  0
 75 85  1  0  0  0
 76 87  1  0  0  0
 77149  1  0  0  0
 77150  1  0  0  0
 77 80  1  0  0  0
 78 80  1  0  0  0
 78151  1  0  0  0
 78152  1  0  0  0
 78 79  1  0  0  0
 79 86  1  0  0  0
 79153  1  0  0  0
 80 86  1  0  0  0
 80154  1  0  0  0
 81155  1  0  0  0
 81156  1  0  0  0
 81157  1  0  0  0
 81 85  1  0  0  0
 82 85  1  0  0  0
 82158  1  0  0  0
 82159  1  0  0  0
 82160  1  0  0  0
 83 84  1  0  0  0
 83161  1  0  0  0
 83162  1  0  0  0
 84 87  1  0  0  0
 84163  1  0  0  0
 84164  1  0  0  0
 85165  1  0  0  0
M  ISO  4   1 100  68 101  83 101  86 100
M  END
> <chiral flag>
0

> <version>
0

> <s_m_source_file>
/data/baiqing/PycharmProjects/Reinvent-master-3.2/result/LINK_invent/BTK/process_docking_weight1_custom_sum_contain_oxygen_bond_distance_aromatic_linkinvent_7_9_3/rearranged_h_0159.sdf

> <i_m_source_file_index>
32

> <r_mmod_Potential_Energy-OPLS-2005>
769.906494140625

> <r_mmod_Stretch_Energy-OPLS-2005>
102.268608093262

> <r_mmod_Bend_Energy-OPLS-2005>
618.431091308594

> <r_mmod_Torsional_Energy-OPLS-2005>
314.970275878906

> <r_mmod_Improper_Torsional_Energy-OPLS-2005>
22.7719821929932

> <r_mmod_Van_der_Waal_Energy-OPLS-2005>
166.30256652832

> <r_mmod_Electrostatic_Energy-OPLS-2005>
-329.294219970703

> <r_mmod_Solvation_Energy-OPLS-2005>
-204.636734008789

> <b_mmod_Minimization_Converged-OPLS-2005>
0

> <r_mmod_RMS_Derivative-OPLS-2005>
2.29714679718018

$$$$
32
                    3D
 Structure written by MMmdl.
157166  0  0  1  0            999 V2000
  -30.6129  -14.7671   20.4113 C   0  0  0  0  0  0
  -30.4343  -12.4562   19.4835 C   0  0  0  0  0  0
  -29.5116  -12.4688   18.2437 C   0  0  0  0  0  0
  -28.0374  -12.3081   18.6594 C   0  0  0  0  0  0
  -27.6391  -13.2321   19.8414 C   0  0  2  0  0  0
  -28.6846  -13.1949   20.9779 C   0  0  0  0  0  0
  -25.2503  -13.8203   20.5693 C   0  0  0  0  0  0
  -24.1797  -13.0446   20.9217 C   0  0  0  0  0  0
  -24.6389  -11.6926   20.8761 C   0  0  0  0  0  0
  -23.9064  -10.4299   21.0416 C   0  0  0  0  0  0
  -24.3616   -9.4210   21.9189 C   0  0  0  0  0  0
  -23.6294   -8.2241   22.0750 C   0  0  0  0  0  0
  -22.4276   -8.0278   21.3539 C   0  0  0  0  0  0
  -21.9913   -9.0253   20.4643 C   0  0  0  0  0  0
  -22.7238  -10.2136   20.3062 C   0  0  0  0  0  0
  -21.6850   -6.0737   22.5278 C   0  0  0  0  0  0
  -21.4013   -6.5639   23.8212 C   0  0  0  0  0  0
  -21.3662   -5.6790   24.9174 C   0  0  0  0  0  0
  -21.6046   -4.3052   24.7223 C   0  0  0  0  0  0
  -21.8818   -3.8145   23.4343 C   0  0  0  0  0  0
  -21.9188   -4.6964   22.3401 C   0  0  0  0  0  0
  -22.7815  -13.5229   21.1864 C   0  0  0  0  0  0
  -22.1658   -4.2150   21.0979 F   0  0  0  0  0  0
  -21.5629   -3.4534   25.7735 F   0  0  0  0  0  0
  -29.9845  -13.5391   20.3900 N   0  0  0  0  0  0
  -26.2925  -12.9414   20.3252 N   0  0  0  0  0  0
  -25.9319  -11.6559   20.5760 N   0  0  0  0  0  0
  -22.0452  -12.8233   22.0426 N   0  0  0  0  0  0
  -25.4189  -15.1926   20.4102 N   0  0  0  0  0  0
  -31.8226  -14.8190   20.1716 O   0  0  0  0  0  0
  -21.6635   -6.8880   21.4241 O   0  0  0  0  0  0
  -22.3505  -14.5529   20.6695 O   0  0  0  0  0  0
  -24.6323  -31.8553   23.1996 C   0  0  0  0  0  0
  -25.9150  -32.4752   23.8335 C   0  0  1  0  0  0
  -27.2128  -27.2482   20.1369 C   0  0  0  0  0  0
  -25.5944  -33.8557   24.2261 N   0  0  0  0  0  0
  -23.4300  -30.4787   21.5430 C   0  0  2  0  0  0
  -24.8775  -28.9282   20.1102 C   0  0  0  0  0  0
  -22.7511  -29.4598   22.4910 C   0  0  0  0  0  0
  -18.0294  -28.1388   22.8475 C   0  0  0  0  0  0
  -24.1495  -36.7285   23.2637 C   0  0  0  0  0  0
  -25.9779  -30.7633   21.3844 C   0  0  0  0  0  0
  -26.0494  -29.3853   20.7262 C   0  0  0  0  0  0
  -27.2208  -28.5581   20.7291 C   0  0  0  0  0  0
  -26.0265  -26.8804   19.4617 C   0  0  0  0  0  0
  -24.8726  -27.6846   19.4642 C   0  0  0  0  0  0
  -23.6494  -29.8159   20.1582 C   0  0  0  0  0  0
  -25.4122  -36.3070   24.0323 C   0  0  1  0  0  0
  -20.5900  -28.3699   23.1264 C   0  0  2  0  0  0
  -20.6786  -26.9417   22.5405 C   0  0  0  0  0  0
  -19.5761  -26.6380   21.5209 C   0  0  0  0  0  0
  -18.1940  -26.7929   22.1616 C   0  0  0  0  0  0
  -19.1547  -28.8859   23.2865 C   0  0  0  0  0  0
  -18.9465  -30.1462   23.8880 C   0  0  0  0  0  0
  -17.6463  -30.6586   24.0557 C   0  0  0  0  0  0
  -25.9059  -34.9438   23.5091 C   0  0  0  0  0  0
  -16.5356  -29.9080   23.6331 C   0  0  0  0  0  0
  -16.7280  -28.6501   23.0346 C   0  0  0  0  0  0
  -26.4512  -31.6577   25.0726 C   0  0  0  0  0  0
  -25.3728  -31.3733   26.1439 C   0  0  0  0  0  0
  -27.0359  -30.2985   24.6235 C   0  0  0  0  0  0
  -27.6064  -32.4319   25.7498 C   0  0  0  0  0  0
  -27.5585  -37.1798   24.8462 C   0  0  0  0  0  0
  -21.4218  -29.3040   22.3647 N   0  0  0  0  0  0
  -26.4299  -37.3768   23.9406 N   0  0  0  0  0  0
  -24.6990  -31.0510   22.0977 N   0  0  0  0  0  0
  -23.4199  -28.8135   23.3015 O   0  0  0  0  0  0
  -28.2895  -26.3272   20.2008 O   0  0  0  0  0  0
  -26.5631  -34.8913   22.4661 O   0  0  0  0  0  0
  -23.5474  -32.1375   23.7286 O   0  0  0  0  0  0
  -30.7563  -18.7452   18.0966 C   0  0  0  0  0  0
  -30.5222  -17.4622   18.6254 C   0  0  0  0  0  0
  -30.4118  -19.9008   18.8096 C   0  0  0  0  0  0
  -30.0182  -17.3049   19.9507 C   0  0  0  0  0  0
  -29.7482  -19.7601   20.0439 C   0  0  0  0  0  0
  -28.5111  -24.3423   21.6462 C   0  0  0  0  0  0
  -28.9851  -23.6048   20.4131 C   0  0  2  0  0  0
  -27.9747  -24.8503   20.3293 C   0  0  1  0  0  0
  -30.7970  -16.3029   17.6779 C   0  0  0  0  0  0
  -30.8279  -21.2451   18.2293 C   0  0  0  0  0  0
  -28.5877  -22.0591   20.1949 C   0  0  0  0  0  0
  -29.6070  -18.4815   20.5963 N   0  0  0  0  0  0
  -29.8362  -15.9244   20.5015 N   0  0  0  0  0  0
  -29.3364  -20.9027   20.7928 O   0  0  0  0  0  0
  -31.4756  -12.5743   19.1779 H   0  0  0  0  0  0
  -30.3818  -11.4924   19.9920 H   0  0  0  0  0  0
  -29.7935  -11.6675   17.5593 H   0  0  0  0  0  0
  -29.6373  -13.3940   17.6856 H   0  0  0  0  0  0
  -27.8985  -11.2654   18.9475 H   0  0  0  0  0  0
  -27.3793  -12.4746   17.8063 H   0  0  0  0  0  0
  -27.6251  -14.2444   19.4366 H   0  0  0  0  0  0
  -28.7228  -12.2075   21.4397 H   0  0  0  0  0  0
  -28.4183  -13.8951   21.7711 H   0  0  0  0  0  0
  -25.2763   -9.5682   22.4761 H   0  0  0  0  0  0
  -24.0000   -7.4633   22.7472 H   0  0  0  0  0  0
  -21.0838   -8.8778   19.8956 H   0  0  0  0  0  0
  -22.3698  -10.9674   19.6170 H   0  0  0  0  0  0
  -21.2011   -7.6146   23.9720 H   0  0  0  0  0  0
  -21.1486   -6.0516   25.9077 H   0  0  0  0  0  0
  -22.0596   -2.7605   23.2839 H   0  0  0  0  0  0
  -22.4061  -11.9912   22.4851 H   0  0  0  0  0  0
  -21.1068  -13.1266   22.2612 H   0  0  0  0  0  0
  -24.6485  -15.8433   20.5204 H   0  0  0  0  0  0
  -26.2596  -15.6326   20.0590 H   0  0  0  0  0  0
  -26.7218  -32.5397   23.1079 H   0  0  0  0  0  0
  -25.0091  -33.9700   25.0404 H   0  0  0  0  0  0
  -22.7264  -31.3012   21.3981 H   0  0  0  0  0  0
  -23.3759  -35.9616   23.3296 H   0  0  0  0  0  0
  -24.3584  -36.8909   22.2051 H   0  0  0  0  0  0
  -23.7249  -37.6484   23.6666 H   0  0  0  0  0  0
  -26.1237  -31.5252   20.6172 H   0  0  0  0  0  0
  -26.8530  -30.8090   22.0207 H   0  0  0  0  0  0
  -28.1145  -28.9009   21.2311 H   0  0  0  0  0  0
  -25.9616  -25.9495   18.9199 H   0  0  0  0  0  0
  -23.9824  -27.3379   18.9578 H   0  0  0  0  0  0
  -23.7751  -30.5933   19.4035 H   0  0  0  0  0  0
  -22.7675  -29.2506   19.8510 H   0  0  0  0  0  0
  -25.1308  -36.1917   25.0815 H   0  0  0  0  0  0
  -20.9992  -28.3283   24.1387 H   0  0  0  0  0  0
  -20.5688  -26.2313   23.3612 H   0  0  0  0  0  0
  -21.6654  -26.7442   22.1200 H   0  0  0  0  0  0
  -19.6924  -25.6288   21.1248 H   0  0  0  0  0  0
  -19.6702  -27.3181   20.6733 H   0  0  0  0  0  0
  -17.4214  -26.6672   21.4017 H   0  0  0  0  0  0
  -18.0338  -26.0077   22.9016 H   0  0  0  0  0  0
  -19.7942  -30.7282   24.2241 H   0  0  0  0  0  0
  -17.5017  -31.6260   24.5165 H   0  0  0  0  0  0
  -15.5356  -30.2972   23.7668 H   0  0  0  0  0  0
  -15.8683  -28.0817   22.7066 H   0  0  0  0  0  0
  -24.5915  -30.7073   25.7767 H   0  0  0  0  0  0
  -24.8906  -32.2900   26.4842 H   0  0  0  0  0  0
  -25.8035  -30.8925   27.0229 H   0  0  0  0  0  0
  -26.2943  -29.6725   24.1256 H   0  0  0  0  0  0
  -27.4020  -29.7265   25.4772 H   0  0  0  0  0  0
  -27.8840  -30.4248   23.9499 H   0  0  0  0  0  0
  -27.2674  -33.3627   26.2065 H   0  0  0  0  0  0
  -28.3878  -32.6865   25.0325 H   0  0  0  0  0  0
  -28.0731  -31.8447   26.5419 H   0  0  0  0  0  0
  -28.2602  -38.0095   24.7509 H   0  0  0  0  0  0
  -28.1081  -36.2625   24.6293 H   0  0  0  0  0  0
  -27.2299  -37.1449   25.8864 H   0  0  0  0  0  0
  -20.9413  -29.8761   21.6844 H   0  0  0  0  0  0
  -26.0175  -38.2844   24.1397 H   0  0  0  0  0  0
  -31.2069  -18.8460   17.1192 H   0  0  0  0  0  0
  -29.2492  -24.9501   22.1653 H   0  0  0  0  0  0
  -27.8041  -23.8339   22.2988 H   0  0  0  0  0  0
  -29.9977  -23.8268   20.0841 H   0  0  0  0  0  0
  -26.9392  -24.5915   20.1330 H   0  0  0  0  0  0
  -30.7949  -16.6336   16.6382 H   0  0  0  0  0  0
  -30.0181  -15.5493   17.7582 H   0  0  0  0  0  0
  -31.7698  -15.8507   17.8671 H   0  0  0  0  0  0
  -31.7403  -21.1452   17.6403 H   0  0  0  0  0  0
  -31.0448  -21.9665   19.0162 H   0  0  0  0  0  0
  -30.0575  -21.6500   17.5730 H   0  0  0  0  0  0
  -28.4550  -21.9004   19.1270 H   0  0  0  0  0  0
  -27.5744  -21.9529   20.5828 H   0  0  0  0  0  0
  -28.9291  -15.7673   20.9088 H   0  0  0  0  0  0
  1 25  1  0  0  0
  1 30  2  0  0  0
  1 83  1  0  0  0
  2  3  1  0  0  0
  2 25  1  0  0  0
  2 85  1  0  0  0
  2 86  1  0  0  0
  3  4  1  0  0  0
  3 87  1  0  0  0
  3 88  1  0  0  0
  4  5  1  0  0  0
  4 89  1  0  0  0
  4 90  1  0  0  0
  5  6  1  0  0  0
  5 26  1  0  0  0
  5 91  1  0  0  0
  6 25  1  0  0  0
  6 92  1  0  0  0
  6 93  1  0  0  0
  7  8  2  0  0  0
  7 26  1  0  0  0
  7 29  1  0  0  0
  8  9  1  0  0  0
  8 22  1  0  0  0
  9 10  1  0  0  0
  9 27  2  0  0  0
 10 11  2  0  0  0
 10 15  1  0  0  0
 11 12  1  0  0  0
 11 94  1  0  0  0
 12 13  2  0  0  0
 12 95  1  0  0  0
 13 14  1  0  0  0
 13 31  1  0  0  0
 14 15  2  0  0  0
 14 96  1  0  0  0
 15 97  1  0  0  0
 16 17  2  0  0  0
 16 21  1  0  0  0
 16 31  1  0  0  0
 17 18  1  0  0  0
 17 98  1  0  0  0
 18 19  2  0  0  0
 18 99  1  0  0  0
 19 20  1  0  0  0
 19 24  1  0  0  0
 20 21  2  0  0  0
 20100  1  0  0  0
 21 23  1  0  0  0
 22 28  1  0  0  0
 22 32  2  0  0  0
 26 27  1  0  0  0
 28101  1  0  0  0
 28102  1  0  0  0
 29103  1  0  0  0
 29104  1  0  0  0
 33 34  1  0  0  0
 33 66  1  0  0  0
 33 70  2  0  0  0
 34 36  1  0  0  0
 34 59  1  0  0  0
 34105  1  0  0  0
 35 44  2  0  0  0
 35 45  1  0  0  0
 35 68  1  0  0  0
 36 56  1  0  0  0
 36106  1  0  0  0
 37 39  1  0  0  0
 37 47  1  0  0  0
 37 66  1  0  0  0
 37107  1  0  0  0
 38 43  2  0  0  0
 38 46  1  0  0  0
 38 47  1  0  0  0
 39 64  1  0  0  0
 39 67  2  0  0  0
 40 52  1  0  0  0
 40 53  2  0  0  0
 40 58  1  0  0  0
 41108  1  0  0  0
 41109  1  0  0  0
 41110  1  0  0  0
 41 48  1  0  0  0
 42 43  1  0  0  0
 42 66  1  0  0  0
 42111  1  0  0  0
 42112  1  0  0  0
 43 44  1  0  0  0
 44113  1  0  0  0
 45 46  2  0  0  0
 45114  1  0  0  0
 46115  1  0  0  0
 47116  1  0  0  0
 47117  1  0  0  0
 48 56  1  0  0  0
 48 65  1  0  0  0
 48118  1  0  0  0
 49 50  1  0  0  0
 49 53  1  0  0  0
 49 64  1  0  0  0
 49119  1  0  0  0
 50 51  1  0  0  0
 50120  1  0  0  0
 50121  1  0  0  0
 51 52  1  0  0  0
 51122  1  0  0  0
 51123  1  0  0  0
 52124  1  0  0  0
 52125  1  0  0  0
 53 54  1  0  0  0
 54 55  2  0  0  0
 54126  1  0  0  0
 55 57  1  0  0  0
 55127  1  0  0  0
 56 69  2  0  0  0
 57 58  2  0  0  0
 57128  1  0  0  0
 58129  1  0  0  0
 59 60  1  0  0  0
 59 61  1  0  0  0
 59 62  1  0  0  0
 60130  1  0  0  0
 60131  1  0  0  0
 60132  1  0  0  0
 61133  1  0  0  0
 61134  1  0  0  0
 61135  1  0  0  0
 62136  1  0  0  0
 62137  1  0  0  0
 62138  1  0  0  0
 63 65  1  0  0  0
 63139  1  0  0  0
 63140  1  0  0  0
 63141  1  0  0  0
 64142  1  0  0  0
 65143  1  0  0  0
 68 78  1  0  0  0
 71 72  2  0  0  0
 71 73  1  0  0  0
 71144  1  0  0  0
 72 74  1  0  0  0
 72 79  1  0  0  0
 73 75  2  0  0  0
 73 80  1  0  0  0
 74 82  2  0  0  0
 74 83  1  0  0  0
 75 82  1  0  0  0
 75 84  1  0  0  0
 76 77  1  0  0  0
 76 78  1  0  0  0
 76145  1  0  0  0
 76146  1  0  0  0
 77 78  1  0  0  0
 77 81  1  0  0  0
 77147  1  0  0  0
 78148  1  0  0  0
 79149  1  0  0  0
 79150  1  0  0  0
 79151  1  0  0  0
 80152  1  0  0  0
 80153  1  0  0  0
 80154  1  0  0  0
 81 84  1  0  0  0
 81155  1  0  0  0
 81156  1  0  0  0
 83157  1  0  0  0
M  ISO  4   1 100  68 101  78 101  83 100
M  END
> <chiral flag>
0

> <version>
0

> <s_m_source_file>
/data/baiqing/PycharmProjects/Reinvent-master-3.2/result/LINK_invent/BTK/process_docking_weight1_custom_sum_contain_oxygen_bond_distance_aromatic_linkinvent_7_9_3/rearranged_h_0159.sdf

> <i_m_source_file_index>
33

> <r_mmod_Potential_Energy-OPLS-2005>
100.797813415527

> <r_mmod_Stretch_Energy-OPLS-2005>
138.876281738281

> <r_mmod_Bend_Energy-OPLS-2005>
188.053802490234

> <r_mmod_Torsional_Energy-OPLS-2005>
300.367950439453

> <r_mmod_Improper_Torsional_Energy-OPLS-2005>
5.50026416778564

> <r_mmod_Van_der_Waal_Energy-OPLS-2005>
151.154739379883

> <r_mmod_Electrostatic_Energy-OPLS-2005>
-557.516967773438

> <r_mmod_Solvation_Energy-OPLS-2005>
-225.042434692383

> <b_mmod_Minimization_Converged-OPLS-2005>
0

> <r_mmod_RMS_Derivative-OPLS-2005>
0.905681550502777

$$$$
33
                    3D
 Structure written by MMmdl.
172181  0  0  1  0            999 V2000
  -30.7607  -14.5453   20.5071 C   0  0  0  0  0  0
  -30.3954  -12.3472   19.4410 C   0  0  0  0  0  0
  -29.4802  -12.4875   18.2108 C   0  0  0  0  0  0
  -28.0080  -12.3395   18.6318 C   0  0  0  0  0  0
  -27.6479  -13.2034   19.8700 C   0  0  2  0  0  0
  -28.7072  -13.0522   20.9920 C   0  0  0  0  0  0
  -25.2535  -13.8142   20.5718 C   0  0  0  0  0  0
  -24.1808  -13.0418   20.9224 C   0  0  0  0  0  0
  -24.6371  -11.6888   20.8808 C   0  0  0  0  0  0
  -23.9041  -10.4282   21.0451 C   0  0  0  0  0  0
  -24.3587   -9.4204   21.9222 C   0  0  0  0  0  0
  -23.6277   -8.2233   22.0764 C   0  0  0  0  0  0
  -22.4259   -8.0276   21.3543 C   0  0  0  0  0  0
  -21.9897   -9.0250   20.4652 C   0  0  0  0  0  0
  -22.7218  -10.2137   20.3088 C   0  0  0  0  0  0
  -21.6853   -6.0728   22.5284 C   0  0  0  0  0  0
  -21.4021   -6.5636   23.8215 C   0  0  0  0  0  0
  -21.3664   -5.6787   24.9173 C   0  0  0  0  0  0
  -21.6056   -4.3053   24.7238 C   0  0  0  0  0  0
  -21.8818   -3.8146   23.4359 C   0  0  0  0  0  0
  -21.9190   -4.6960   22.3411 C   0  0  0  0  0  0
  -22.7816  -13.5222   21.1851 C   0  0  0  0  0  0
  -22.1644   -4.2144   21.0986 F   0  0  0  0  0  0
  -21.5636   -3.4528   25.7751 F   0  0  0  0  0  0
  -30.0047  -13.4025   20.4050 N   0  0  0  0  0  0
  -26.2966  -12.9304   20.3425 N   0  0  0  0  0  0
  -25.9314  -11.6465   20.5892 N   0  0  0  0  0  0
  -22.0449  -12.8213   22.0406 N   0  0  0  0  0  0
  -25.4195  -15.1854   20.4042 N   0  0  0  0  0  0
  -31.9364  -14.4939   20.1363 O   0  0  0  0  0  0
  -21.6629   -6.8875   21.4238 O   0  0  0  0  0  0
  -22.3509  -14.5518   20.6680 O   0  0  0  0  0  0
  -24.6176  -31.8680   23.2094 C   0  0  0  0  0  0
  -25.9068  -32.4818   23.8387 C   0  0  1  0  0  0
  -27.2192  -27.4006   20.0926 C   0  0  0  0  0  0
  -25.5922  -33.8615   24.2315 N   0  0  0  0  0  0
  -23.4053  -30.4957   21.5518 C   0  0  2  0  0  0
  -24.8475  -28.9679   20.1115 C   0  0  0  0  0  0
  -22.7425  -29.4667   22.4974 C   0  0  0  0  0  0
  -18.0278  -28.1374   22.8494 C   0  0  0  0  0  0
  -24.1490  -36.7305   23.2634 C   0  0  0  0  0  0
  -25.9418  -30.8220   21.3723 C   0  0  0  0  0  0
  -26.0135  -29.4582   20.7118 C   0  0  0  0  0  0
  -27.2007  -28.6825   20.7018 C   0  0  0  0  0  0
  -26.0296  -26.9523   19.4655 C   0  0  0  0  0  0
  -24.8517  -27.7142   19.4858 C   0  0  0  0  0  0
  -23.6133  -29.8379   20.1642 C   0  0  0  0  0  0
  -25.4117  -36.3106   24.0328 C   0  0  1  0  0  0
  -20.5867  -28.3671   23.1299 C   0  0  2  0  0  0
  -20.6770  -26.9402   22.5409 C   0  0  0  0  0  0
  -19.5746  -26.6383   21.5212 C   0  0  0  0  0  0
  -18.1926  -26.7923   22.1622 C   0  0  0  0  0  0
  -19.1525  -28.8836   23.2897 C   0  0  0  0  0  0
  -18.9458  -30.1443   23.8910 C   0  0  0  0  0  0
  -17.6459  -30.6580   24.0563 C   0  0  0  0  0  0
  -25.9050  -34.9473   23.5126 C   0  0  0  0  0  0
  -16.5350  -29.9086   23.6326 C   0  0  0  0  0  0
  -16.7269  -28.6500   23.0357 C   0  0  0  0  0  0
  -26.4468  -31.6603   25.0729 C   0  0  0  0  0  0
  -25.3721  -31.3733   26.1466 C   0  0  0  0  0  0
  -27.0309  -30.3034   24.6159 C   0  0  0  0  0  0
  -27.6032  -32.4328   25.7497 C   0  0  0  0  0  0
  -27.5582  -37.1812   24.8459 C   0  0  0  0  0  0
  -21.4148  -29.3048   22.3704 N   0  0  0  0  0  0
  -26.4301  -37.3793   23.9392 N   0  0  0  0  0  0
  -24.6729  -31.0757   22.1019 N   0  0  0  0  0  0
  -23.4185  -28.8202   23.3026 O   0  0  0  0  0  0
  -28.3641  -26.6128   20.1412 O   0  0  0  0  0  0
  -26.5604  -34.8929   22.4680 O   0  0  0  0  0  0
  -23.5361  -32.1452   23.7476 O   0  0  0  0  0  0
  -29.1544  -19.9992   23.4235 C   0  0  0  0  0  0
  -29.2502  -21.3185   21.3730 C   0  0  0  0  0  0
  -29.2601  -20.0474   22.0171 C   0  0  0  0  0  0
  -29.0655  -21.1793   24.1853 C   0  0  0  0  0  0
  -29.1603  -22.5209   22.1308 C   0  0  0  0  0  0
  -29.0955  -22.4366   23.5416 C   0  0  0  0  0  0
  -30.8940  -18.2257   21.4210 C   0  0  0  0  0  0
  -28.5487  -17.5611   21.6149 C   0  0  0  0  0  0
  -31.1828  -16.9426   20.6208 C   0  0  0  0  0  0
  -28.8331  -16.2554   20.8135 C   0  0  0  0  0  0
  -29.4692  -18.7374   21.2288 C   0  0  0  0  0  0
  -28.9467  -21.0722   25.6949 C   0  0  0  0  0  0
  -30.7396  -24.8118   20.0139 C   0  0  0  0  0  0
  -30.3182  -23.9914   24.7841 C   0  0  0  0  0  0
  -28.2217  -25.2262   19.7486 C   0  0  0  0  0  0
  -29.3306  -24.2447   20.2177 C   0  0  2  0  0  0
  -30.2470  -15.7940   20.8301 N   0  0  0  0  0  0
  -29.1247  -23.8319   21.6051 N   0  0  0  0  0  0
  -29.0479  -23.5943   24.2807 O   0  0  0  0  0  0
  -31.4391  -12.3958   19.1283 H   0  0  0  0  0  0
  -30.2801  -11.3589   19.8899 H   0  0  0  0  0  0
  -29.7314  -11.7345   17.4645 H   0  0  0  0  0  0
  -29.6377  -13.4561   17.7324 H   0  0  0  0  0  0
  -27.8347  -11.2857   18.8513 H   0  0  0  0  0  0
  -27.3504  -12.5872   17.7979 H   0  0  0  0  0  0
  -27.6579  -14.2278   19.5088 H   0  0  0  0  0  0
  -28.7244  -12.0192   21.3410 H   0  0  0  0  0  0
  -28.4876  -13.6277   21.8904 H   0  0  0  0  0  0
  -25.2740   -9.5662   22.4774 H   0  0  0  0  0  0
  -24.0002   -7.4620   22.7473 H   0  0  0  0  0  0
  -21.0833   -8.8753   19.8944 H   0  0  0  0  0  0
  -22.3689  -10.9663   19.6186 H   0  0  0  0  0  0
  -21.2001   -7.6140   23.9718 H   0  0  0  0  0  0
  -21.1489   -6.0517   25.9075 H   0  0  0  0  0  0
  -22.0592   -2.7609   23.2862 H   0  0  0  0  0  0
  -22.4017  -11.9897   22.4856 H   0  0  0  0  0  0
  -21.1081  -13.1263   22.2605 H   0  0  0  0  0  0
  -24.6474  -15.8327   20.5181 H   0  0  0  0  0  0
  -26.2672  -15.6331   20.0814 H   0  0  0  0  0  0
  -26.7144  -32.5506   23.1147 H   0  0  0  0  0  0
  -25.0071  -33.9774   25.0460 H   0  0  0  0  0  0
  -22.6974  -31.3154   21.4153 H   0  0  0  0  0  0
  -23.3756  -35.9633   23.3304 H   0  0  0  0  0  0
  -24.3587  -36.8916   22.2048 H   0  0  0  0  0  0
  -23.7250  -37.6512   23.6652 H   0  0  0  0  0  0
  -26.0719  -31.5941   20.6117 H   0  0  0  0  0  0
  -26.8221  -30.8622   22.0017 H   0  0  0  0  0  0
  -28.0968  -29.0537   21.1782 H   0  0  0  0  0  0
  -25.9688  -26.0062   18.9515 H   0  0  0  0  0  0
  -23.9574  -27.3343   19.0118 H   0  0  0  0  0  0
  -23.7245  -30.6161   19.4090 H   0  0  0  0  0  0
  -22.7359  -29.2618   19.8636 H   0  0  0  0  0  0
  -25.1300  -36.1962   25.0823 H   0  0  0  0  0  0
  -20.9973  -28.3247   24.1412 H   0  0  0  0  0  0
  -20.5689  -26.2278   23.3605 H   0  0  0  0  0  0
  -21.6643  -26.7456   22.1188 H   0  0  0  0  0  0
  -19.6913  -25.6297   21.1236 H   0  0  0  0  0  0
  -19.6685  -27.3199   20.6748 H   0  0  0  0  0  0
  -17.4198  -26.6681   21.4019 H   0  0  0  0  0  0
  -18.0321  -26.0053   22.9004 H   0  0  0  0  0  0
  -19.7937  -30.7255   24.2292 H   0  0  0  0  0  0
  -17.5018  -31.6265   24.5151 H   0  0  0  0  0  0
  -15.5353  -30.2996   23.7646 H   0  0  0  0  0  0
  -15.8668  -28.0822   22.7081 H   0  0  0  0  0  0
  -24.5874  -30.7113   25.7785 H   0  0  0  0  0  0
  -24.8942  -32.2907   26.4911 H   0  0  0  0  0  0
  -25.8046  -30.8879   27.0228 H   0  0  0  0  0  0
  -26.2884  -29.6797   24.1177 H   0  0  0  0  0  0
  -27.4013  -29.7266   25.4643 H   0  0  0  0  0  0
  -27.8739  -30.4316   23.9370 H   0  0  0  0  0  0
  -27.2637  -33.3611   26.2101 H   0  0  0  0  0  0
  -28.3828  -32.6928   25.0326 H   0  0  0  0  0  0
  -28.0724  -31.8452   26.5400 H   0  0  0  0  0  0
  -28.2600  -38.0108   24.7514 H   0  0  0  0  0  0
  -28.1086  -36.2645   24.6285 H   0  0  0  0  0  0
  -27.2299  -37.1449   25.8863 H   0  0  0  0  0  0
  -20.9305  -29.8769   21.6920 H   0  0  0  0  0  0
  -26.0185  -38.2867   24.1403 H   0  0  0  0  0  0
  -29.1711  -19.0479   23.9358 H   0  0  0  0  0  0
  -29.3281  -21.3521   20.2975 H   0  0  0  0  0  0
  -31.5948  -19.0037   21.1136 H   0  0  0  0  0  0
  -31.0928  -18.0423   22.4789 H   0  0  0  0  0  0
  -28.6632  -17.3263   22.6729 H   0  0  0  0  0  0
  -27.5060  -17.8499   21.4748 H   0  0  0  0  0  0
  -32.2129  -16.6873   20.8766 H   0  0  0  0  0  0
  -31.1869  -17.1756   19.5545 H   0  0  0  0  0  0
  -28.5352  -16.3952   19.7738 H   0  0  0  0  0  0
  -28.1527  -15.5279   21.2316 H   0  0  0  0  0  0
  -29.3059  -18.9552   20.1725 H   0  0  0  0  0  0
  -28.2554  -20.2750   25.9690 H   0  0  0  0  0  0
  -28.5786  -21.9965   26.1411 H   0  0  0  0  0  0
  -29.9194  -20.8463   26.1336 H   0  0  0  0  0  0
  -30.8886  -25.1180   18.9769 H   0  0  0  0  0  0
  -31.5041  -24.0723   20.2558 H   0  0  0  0  0  0
  -30.9124  -25.6873   20.6409 H   0  0  0  0  0  0
  -30.1925  -24.8074   25.4948 H   0  0  0  0  0  0
  -30.9653  -24.3427   23.9793 H   0  0  0  0  0  0
  -30.8301  -23.1785   25.3022 H   0  0  0  0  0  0
  -27.2816  -24.8101   20.1142 H   0  0  0  0  0  0
  -28.1740  -25.1996   18.6580 H   0  0  0  0  0  0
  -29.2361  -23.3642   19.5835 H   0  0  0  0  0  0
  -28.9916  -24.5733   22.2888 H   0  0  0  0  0  0
  1 25  1  0  0  0
  1 30  2  0  0  0
  1 87  1  0  0  0
  2  3  1  0  0  0
  2 25  1  0  0  0
  2 90  1  0  0  0
  2 91  1  0  0  0
  3  4  1  0  0  0
  3 92  1  0  0  0
  3 93  1  0  0  0
  4  5  1  0  0  0
  4 94  1  0  0  0
  4 95  1  0  0  0
  5  6  1  0  0  0
  5 26  1  0  0  0
  5 96  1  0  0  0
  6 25  1  0  0  0
  6 97  1  0  0  0
  6 98  1  0  0  0
  7  8  2  0  0  0
  7 26  1  0  0  0
  7 29  1  0  0  0
  8  9  1  0  0  0
  8 22  1  0  0  0
  9 10  1  0  0  0
  9 27  2  0  0  0
 10 11  2  0  0  0
 10 15  1  0  0  0
 11 12  1  0  0  0
 11 99  1  0  0  0
 12 13  2  0  0  0
 12100  1  0  0  0
 13 14  1  0  0  0
 13 31  1  0  0  0
 14 15  2  0  0  0
 14101  1  0  0  0
 15102  1  0  0  0
 16 17  2  0  0  0
 16 21  1  0  0  0
 16 31  1  0  0  0
 17 18  1  0  0  0
 17103  1  0  0  0
 18 19  2  0  0  0
 18104  1  0  0  0
 19 20  1  0  0  0
 19 24  1  0  0  0
 20 21  2  0  0  0
 20105  1  0  0  0
 21 23  1  0  0  0
 22 28  1  0  0  0
 22 32  2  0  0  0
 26 27  1  0  0  0
 28106  1  0  0  0
 28107  1  0  0  0
 29108  1  0  0  0
 29109  1  0  0  0
 33 34  1  0  0  0
 33 66  1  0  0  0
 33 70  2  0  0  0
 34 36  1  0  0  0
 34 59  1  0  0  0
 34110  1  0  0  0
 35 44  2  0  0  0
 35 45  1  0  0  0
 35 68  1  0  0  0
 36 56  1  0  0  0
 36111  1  0  0  0
 37 39  1  0  0  0
 37 47  1  0  0  0
 37 66  1  0  0  0
 37112  1  0  0  0
 38 43  2  0  0  0
 38 46  1  0  0  0
 38 47  1  0  0  0
 39 64  1  0  0  0
 39 67  2  0  0  0
 40 52  1  0  0  0
 40 53  2  0  0  0
 40 58  1  0  0  0
 41113  1  0  0  0
 41114  1  0  0  0
 41115  1  0  0  0
 41 48  1  0  0  0
 42 43  1  0  0  0
 42 66  1  0  0  0
 42116  1  0  0  0
 42117  1  0  0  0
 43 44  1  0  0  0
 44118  1  0  0  0
 45 46  2  0  0  0
 45119  1  0  0  0
 46120  1  0  0  0
 47121  1  0  0  0
 47122  1  0  0  0
 48 56  1  0  0  0
 48 65  1  0  0  0
 48123  1  0  0  0
 49 50  1  0  0  0
 49 53  1  0  0  0
 49 64  1  0  0  0
 49124  1  0  0  0
 50 51  1  0  0  0
 50125  1  0  0  0
 50126  1  0  0  0
 51 52  1  0  0  0
 51127  1  0  0  0
 51128  1  0  0  0
 52129  1  0  0  0
 52130  1  0  0  0
 53 54  1  0  0  0
 54 55  2  0  0  0
 54131  1  0  0  0
 55 57  1  0  0  0
 55132  1  0  0  0
 56 69  2  0  0  0
 57 58  2  0  0  0
 57133  1  0  0  0
 58134  1  0  0  0
 59 60  1  0  0  0
 59 61  1  0  0  0
 59 62  1  0  0  0
 60135  1  0  0  0
 60136  1  0  0  0
 60137  1  0  0  0
 61138  1  0  0  0
 61139  1  0  0  0
 61140  1  0  0  0
 62141  1  0  0  0
 62142  1  0  0  0
 62143  1  0  0  0
 63 65  1  0  0  0
 63144  1  0  0  0
 63145  1  0  0  0
 63146  1  0  0  0
 64147  1  0  0  0
 65148  1  0  0  0
 68 85  1  0  0  0
 71 73  2  0  0  0
 71 74  1  0  0  0
 71149  1  0  0  0
 72 73  1  0  0  0
 72 75  2  0  0  0
 72150  1  0  0  0
 73 81  1  0  0  0
 74 76  2  0  0  0
 74 82  1  0  0  0
 75 76  1  0  0  0
 75 88  1  0  0  0
 76 89  1  0  0  0
 77 79  1  0  0  0
 77 81  1  0  0  0
 77151  1  0  0  0
 77152  1  0  0  0
 78 80  1  0  0  0
 78 81  1  0  0  0
 78153  1  0  0  0
 78154  1  0  0  0
 79 87  1  0  0  0
 79155  1  0  0  0
 79156  1  0  0  0
 80 87  1  0  0  0
 80157  1  0  0  0
 80158  1  0  0  0
 81159  1  0  0  0
 82160  1  0  0  0
 82161  1  0  0  0
 82162  1  0  0  0
 83163  1  0  0  0
 83164  1  0  0  0
 83165  1  0  0  0
 83 86  1  0  0  0
 84 89  1  0  0  0
 84166  1  0  0  0
 84167  1  0  0  0
 84168  1  0  0  0
 85 86  1  0  0  0
 85169  1  0  0  0
 85170  1  0  0  0
 86 88  1  0  0  0
 86171  1  0  0  0
 88172  1  0  0  0
M  ISO  4   1 100  68 101  85 101  87 100
M  END
> <chiral flag>
0

> <version>
0

> <s_m_source_file>
/data/baiqing/PycharmProjects/Reinvent-master-3.2/result/LINK_invent/BTK/process_docking_weight1_custom_sum_contain_oxygen_bond_distance_aromatic_linkinvent_7_9_3/rearranged_h_0159.sdf

> <i_m_source_file_index>
34

> <r_mmod_Potential_Energy-OPLS-2005>
239.471923828125

> <r_mmod_Stretch_Energy-OPLS-2005>
55.0535469055176

> <r_mmod_Bend_Energy-OPLS-2005>
174.229995727539

> <r_mmod_Torsional_Energy-OPLS-2005>
326.314819335938

> <r_mmod_Improper_Torsional_Energy-OPLS-2005>
5.52968883514404

> <r_mmod_Van_der_Waal_Energy-OPLS-2005>
182.092956542969

> <r_mmod_Electrostatic_Energy-OPLS-2005>
-331.1396484375

> <r_mmod_Solvation_Energy-OPLS-2005>
-204.739807128906

> <b_mmod_Minimization_Converged-OPLS-2005>
0

> <r_mmod_RMS_Derivative-OPLS-2005>
2.71667623519897

$$$$
34
                    3D
 Structure written by MMmdl.
171180  0  0  1  0            999 V2000
  -30.7222  -14.5089   20.6037 C   0  0  0  0  0  0
  -30.4128  -12.3396   19.4462 C   0  0  0  0  0  0
  -29.4990  -12.5163   18.2173 C   0  0  0  0  0  0
  -28.0212  -12.3655   18.6215 C   0  0  0  0  0  0
  -27.6532  -13.2201   19.8646 C   0  0  2  0  0  0
  -28.6886  -13.0459   20.9968 C   0  0  0  0  0  0
  -25.2537  -13.8182   20.5704 C   0  0  0  0  0  0
  -24.1808  -13.0433   20.9192 C   0  0  0  0  0  0
  -24.6391  -11.6914   20.8724 C   0  0  0  0  0  0
  -23.9073  -10.4293   21.0393 C   0  0  0  0  0  0
  -24.3625   -9.4212   21.9175 C   0  0  0  0  0  0
  -23.6307   -8.2245   22.0750 C   0  0  0  0  0  0
  -22.4286   -8.0287   21.3542 C   0  0  0  0  0  0
  -21.9922   -9.0264   20.4650 C   0  0  0  0  0  0
  -22.7245  -10.2136   20.3051 C   0  0  0  0  0  0
  -21.6849   -6.0741   22.5281 C   0  0  0  0  0  0
  -21.4016   -6.5633   23.8221 C   0  0  0  0  0  0
  -21.3664   -5.6785   24.9183 C   0  0  0  0  0  0
  -21.6053   -4.3053   24.7218 C   0  0  0  0  0  0
  -21.8809   -3.8140   23.4337 C   0  0  0  0  0  0
  -21.9189   -4.6967   22.3396 C   0  0  0  0  0  0
  -22.7828  -13.5236   21.1856 C   0  0  0  0  0  0
  -22.1656   -4.2156   21.0973 F   0  0  0  0  0  0
  -21.5642   -3.4530   25.7725 F   0  0  0  0  0  0
  -30.0208  -13.3452   20.4540 N   0  0  0  0  0  0
  -26.2970  -12.9388   20.3308 N   0  0  0  0  0  0
  -25.9317  -11.6528   20.5719 N   0  0  0  0  0  0
  -22.0457  -12.8271   22.0422 N   0  0  0  0  0  0
  -25.4180  -15.1917   20.4123 N   0  0  0  0  0  0
  -31.8080  -14.6774   20.0389 O   0  0  0  0  0  0
  -21.6649   -6.8882   21.4243 O   0  0  0  0  0  0
  -22.3523  -14.5533   20.6680 O   0  0  0  0  0  0
  -24.6202  -31.8653   23.2086 C   0  0  0  0  0  0
  -25.9072  -32.4813   23.8394 C   0  0  1  0  0  0
  -27.2236  -27.3807   20.1038 C   0  0  0  0  0  0
  -25.5926  -33.8619   24.2324 N   0  0  0  0  0  0
  -23.4105  -30.4921   21.5495 C   0  0  2  0  0  0
  -24.8542  -28.9558   20.1136 C   0  0  0  0  0  0
  -22.7438  -29.4653   22.4947 C   0  0  0  0  0  0
  -18.0278  -28.1386   22.8479 C   0  0  0  0  0  0
  -24.1481  -36.7300   23.2637 C   0  0  0  0  0  0
  -25.9461  -30.8180   21.3653 C   0  0  0  0  0  0
  -26.0210  -29.4497   20.7093 C   0  0  0  0  0  0
  -27.2108  -28.6738   20.6933 C   0  0  0  0  0  0
  -26.0311  -26.9206   19.4949 C   0  0  0  0  0  0
  -24.8570  -27.6934   19.5026 C   0  0  0  0  0  0
  -23.6224  -29.8320   20.1626 C   0  0  0  0  0  0
  -25.4099  -36.3099   24.0337 C   0  0  1  0  0  0
  -20.5872  -28.3677   23.1305 C   0  0  2  0  0  0
  -20.6773  -26.9406   22.5431 C   0  0  0  0  0  0
  -19.5764  -26.6381   21.5221 C   0  0  0  0  0  0
  -18.1931  -26.7936   22.1607 C   0  0  0  0  0  0
  -19.1529  -28.8847   23.2895 C   0  0  0  0  0  0
  -18.9449  -30.1444   23.8922 C   0  0  0  0  0  0
  -17.6450  -30.6586   24.0569 C   0  0  0  0  0  0
  -25.9042  -34.9467   23.5119 C   0  0  0  0  0  0
  -16.5342  -29.9094   23.6313 C   0  0  0  0  0  0
  -16.7268  -28.6511   23.0336 C   0  0  0  0  0  0
  -26.4488  -31.6603   25.0735 C   0  0  0  0  0  0
  -25.3755  -31.3721   26.1484 C   0  0  0  0  0  0
  -27.0305  -30.3041   24.6112 C   0  0  0  0  0  0
  -27.6053  -32.4325   25.7504 C   0  0  0  0  0  0
  -27.5574  -37.1795   24.8458 C   0  0  0  0  0  0
  -21.4158  -29.3040   22.3703 N   0  0  0  0  0  0
  -26.4275  -37.3792   23.9425 N   0  0  0  0  0  0
  -24.6783  -31.0719   22.1003 N   0  0  0  0  0  0
  -23.4192  -28.8166   23.2982 O   0  0  0  0  0  0
  -28.3643  -26.5831   20.1452 O   0  0  0  0  0  0
  -26.5579  -34.8912   22.4668 O   0  0  0  0  0  0
  -23.5375  -32.1411   23.7453 O   0  0  0  0  0  0
  -29.2741  -19.1814   20.5858 C   0  0  0  0  0  0
  -29.9720  -18.0249   21.0470 C   0  0  0  0  0  0
  -29.9074  -20.4682   20.5837 C   0  0  0  0  0  0
  -31.2620  -18.2193   21.5666 C   0  0  0  0  0  0
  -31.2476  -20.4942   21.0523 C   0  0  0  0  0  0
  -29.3841  -16.5873   20.9779 C   0  0  0  0  0  0
  -32.0419  -17.0633   22.1615 C   0  0  0  0  0  0
  -31.1536  -15.8619   22.5611 C   0  0  1  0  0  0
  -32.1059  -21.7472   21.0003 C   0  0  0  0  0  0
  -29.6014  -14.8744   24.3869 C   0  0  0  0  0  0
  -27.9256  -21.5045   19.2546 C   0  0  0  0  0  0
  -30.4165  -16.0822   23.9042 C   0  0  0  0  0  0
  -29.3603  -24.2836   20.6299 C   0  0  0  0  0  0
  -28.1618  -25.1367   20.1065 C   0  0  0  0  0  0
  -29.2422  -21.7661   20.0067 C   0  0  1  0  0  0
  -31.8799  -19.4157   21.5617 N   0  0  0  0  0  0
  -30.2457  -15.4623   21.4638 N   0  0  0  0  0  0
  -29.0404  -22.8570   21.0175 N   0  3  0  0  0  0
  -31.4622  -12.4208   19.1550 H   0  0  0  0  0  0
  -30.3034  -11.3366   19.8635 H   0  0  0  0  0  0
  -29.7601  -11.7859   17.4491 H   0  0  0  0  0  0
  -29.6591  -13.5006   17.7716 H   0  0  0  0  0  0
  -27.8406  -11.3106   18.8321 H   0  0  0  0  0  0
  -27.3737  -12.6243   17.7813 H   0  0  0  0  0  0
  -27.6838  -14.2637   19.5501 H   0  0  0  0  0  0
  -28.6676  -12.0279   21.3847 H   0  0  0  0  0  0
  -28.4290  -13.6859   21.8363 H   0  0  0  0  0  0
  -25.2765   -9.5724   22.4742 H   0  0  0  0  0  0
  -24.0030   -7.4640   22.7466 H   0  0  0  0  0  0
  -21.0846   -8.8788   19.8963 H   0  0  0  0  0  0
  -22.3695  -10.9684   19.6170 H   0  0  0  0  0  0
  -21.2009   -7.6141   23.9738 H   0  0  0  0  0  0
  -21.1501   -6.0507   25.9099 H   0  0  0  0  0  0
  -22.0586   -2.7606   23.2821 H   0  0  0  0  0  0
  -22.4061  -11.9970   22.4887 H   0  0  0  0  0  0
  -21.1063  -13.1331   22.2539 H   0  0  0  0  0  0
  -24.6456  -15.8372   20.5382 H   0  0  0  0  0  0
  -26.2628  -15.6459   20.0928 H   0  0  0  0  0  0
  -26.7142  -32.5493   23.1155 H   0  0  0  0  0  0
  -25.0137  -33.9793   25.0511 H   0  0  0  0  0  0
  -22.6995  -31.3094   21.4130 H   0  0  0  0  0  0
  -23.3752  -35.9622   23.3284 H   0  0  0  0  0  0
  -24.3580  -36.8929   22.2056 H   0  0  0  0  0  0
  -23.7210  -37.6490   23.6662 H   0  0  0  0  0  0
  -26.0575  -31.5810   20.5935 H   0  0  0  0  0  0
  -26.8352  -30.8740   21.9820 H   0  0  0  0  0  0
  -28.1095  -29.0505   21.1618 H   0  0  0  0  0  0
  -25.9740  -25.9554   19.0140 H   0  0  0  0  0  0
  -23.9573  -27.3097   19.0406 H   0  0  0  0  0  0
  -23.7425  -30.6133   19.4108 H   0  0  0  0  0  0
  -22.7419  -29.2652   19.8571 H   0  0  0  0  0  0
  -25.1271  -36.1963   25.0827 H   0  0  0  0  0  0
  -20.9972  -28.3260   24.1424 H   0  0  0  0  0  0
  -20.5672  -26.2286   23.3625 H   0  0  0  0  0  0
  -21.6643  -26.7445   22.1228 H   0  0  0  0  0  0
  -19.6929  -25.6291   21.1253 H   0  0  0  0  0  0
  -19.6729  -27.3185   20.6751 H   0  0  0  0  0  0
  -17.4216  -26.6688   21.3994 H   0  0  0  0  0  0
  -18.0315  -26.0080   22.9003 H   0  0  0  0  0  0
  -19.7926  -30.7242   24.2316 H   0  0  0  0  0  0
  -17.5010  -31.6263   24.5179 H   0  0  0  0  0  0
  -15.5346  -30.3008   23.7631 H   0  0  0  0  0  0
  -15.8664  -28.0851   22.7027 H   0  0  0  0  0  0
  -24.5941  -30.7044   25.7846 H   0  0  0  0  0  0
  -24.8934  -32.2878   26.4919 H   0  0  0  0  0  0
  -25.8119  -30.8924   27.0255 H   0  0  0  0  0  0
  -26.2841  -29.6810   24.1172 H   0  0  0  0  0  0
  -27.4081  -29.7269   25.4563 H   0  0  0  0  0  0
  -27.8680  -30.4356   23.9253 H   0  0  0  0  0  0
  -27.2678  -33.3630   26.2081 H   0  0  0  0  0  0
  -28.3877  -32.6875   25.0350 H   0  0  0  0  0  0
  -28.0709  -31.8453   26.5430 H   0  0  0  0  0  0
  -28.2578  -38.0106   24.7514 H   0  0  0  0  0  0
  -28.1072  -36.2630   24.6261 H   0  0  0  0  0  0
  -27.2295  -37.1428   25.8860 H   0  0  0  0  0  0
  -20.9314  -29.8784   21.6949 H   0  0  0  0  0  0
  -26.0156  -38.2854   24.1467 H   0  0  0  0  0  0
  -28.2710  -19.0625   20.2035 H   0  0  0  0  0  0
  -29.0864  -16.4059   19.9440 H   0  0  0  0  0  0
  -28.4625  -16.5676   21.5605 H   0  0  0  0  0  0
  -32.6228  -17.4087   23.0182 H   0  0  0  0  0  0
  -32.7722  -16.7456   21.4156 H   0  0  0  0  0  0
  -31.8412  -15.0352   22.7591 H   0  0  0  0  0  0
  -32.0473  -22.2213   20.0207 H   0  0  0  0  0  0
  -33.1579  -21.5113   21.1676 H   0  0  0  0  0  0
  -31.8018  -22.4649   21.7620 H   0  0  0  0  0  0
  -29.2832  -15.0178   25.4202 H   0  0  0  0  0  0
  -30.1868  -13.9554   24.3476 H   0  0  0  0  0  0
  -28.7013  -14.7330   23.7914 H   0  0  0  0  0  0
  -28.0680  -20.7862   18.4462 H   0  0  0  0  0  0
  -27.5418  -22.4165   18.7977 H   0  0  0  0  0  0
  -27.1503  -21.1211   19.9168 H   0  0  0  0  0  0
  -29.7676  -16.9575   23.8469 H   0  0  0  0  0  0
  -31.1612  -16.3154   24.6681 H   0  0  0  0  0  0
  -29.7117  -24.7656   21.5424 H   0  0  0  0  0  0
  -30.2015  -24.3283   19.9373 H   0  0  0  0  0  0
  -27.2948  -24.8939   20.7218 H   0  0  0  0  0  0
  -27.9296  -24.8291   19.0866 H   0  0  0  0  0  0
  -29.9375  -22.1393   19.2533 H   0  0  0  0  0  0
  -28.1065  -22.7957   21.3944 H   0  0  0  0  0  0
  -29.6493  -22.6450   21.7914 H   0  0  0  0  0  0
  1 25  1  0  0  0
  1 30  2  0  0  0
  1 87  1  0  0  0
  2  3  1  0  0  0
  2 25  1  0  0  0
  2 89  1  0  0  0
  2 90  1  0  0  0
  3  4  1  0  0  0
  3 91  1  0  0  0
  3 92  1  0  0  0
  4  5  1  0  0  0
  4 93  1  0  0  0
  4 94  1  0  0  0
  5  6  1  0  0  0
  5 26  1  0  0  0
  5 95  1  0  0  0
  6 25  1  0  0  0
  6 96  1  0  0  0
  6 97  1  0  0  0
  7  8  2  0  0  0
  7 26  1  0  0  0
  7 29  1  0  0  0
  8  9  1  0  0  0
  8 22  1  0  0  0
  9 10  1  0  0  0
  9 27  2  0  0  0
 10 11  2  0  0  0
 10 15  1  0  0  0
 11 12  1  0  0  0
 11 98  1  0  0  0
 12 13  2  0  0  0
 12 99  1  0  0  0
 13 14  1  0  0  0
 13 31  1  0  0  0
 14 15  2  0  0  0
 14100  1  0  0  0
 15101  1  0  0  0
 16 17  2  0  0  0
 16 21  1  0  0  0
 16 31  1  0  0  0
 17 18  1  0  0  0
 17102  1  0  0  0
 18 19  2  0  0  0
 18103  1  0  0  0
 19 20  1  0  0  0
 19 24  1  0  0  0
 20 21  2  0  0  0
 20104  1  0  0  0
 21 23  1  0  0  0
 22 28  1  0  0  0
 22 32  2  0  0  0
 26 27  1  0  0  0
 28105  1  0  0  0
 28106  1  0  0  0
 29107  1  0  0  0
 29108  1  0  0  0
 33 34  1  0  0  0
 33 66  1  0  0  0
 33 70  2  0  0  0
 34 36  1  0  0  0
 34 59  1  0  0  0
 34109  1  0  0  0
 35 44  2  0  0  0
 35 45  1  0  0  0
 35 68  1  0  0  0
 36 56  1  0  0  0
 36110  1  0  0  0
 37 39  1  0  0  0
 37 47  1  0  0  0
 37 66  1  0  0  0
 37111  1  0  0  0
 38 43  2  0  0  0
 38 46  1  0  0  0
 38 47  1  0  0  0
 39 64  1  0  0  0
 39 67  2  0  0  0
 40 52  1  0  0  0
 40 53  2  0  0  0
 40 58  1  0  0  0
 41112  1  0  0  0
 41113  1  0  0  0
 41114  1  0  0  0
 41 48  1  0  0  0
 42 43  1  0  0  0
 42 66  1  0  0  0
 42115  1  0  0  0
 42116  1  0  0  0
 43 44  1  0  0  0
 44117  1  0  0  0
 45 46  2  0  0  0
 45118  1  0  0  0
 46119  1  0  0  0
 47120  1  0  0  0
 47121  1  0  0  0
 48 56  1  0  0  0
 48 65  1  0  0  0
 48122  1  0  0  0
 49 50  1  0  0  0
 49 53  1  0  0  0
 49 64  1  0  0  0
 49123  1  0  0  0
 50 51  1  0  0  0
 50124  1  0  0  0
 50125  1  0  0  0
 51 52  1  0  0  0
 51126  1  0  0  0
 51127  1  0  0  0
 52128  1  0  0  0
 52129  1  0  0  0
 53 54  1  0  0  0
 54 55  2  0  0  0
 54130  1  0  0  0
 55 57  1  0  0  0
 55131  1  0  0  0
 56 69  2  0  0  0
 57 58  2  0  0  0
 57132  1  0  0  0
 58133  1  0  0  0
 59 60  1  0  0  0
 59 61  1  0  0  0
 59 62  1  0  0  0
 60134  1  0  0  0
 60135  1  0  0  0
 60136  1  0  0  0
 61137  1  0  0  0
 61138  1  0  0  0
 61139  1  0  0  0
 62140  1  0  0  0
 62141  1  0  0  0
 62142  1  0  0  0
 63 65  1  0  0  0
 63143  1  0  0  0
 63144  1  0  0  0
 63145  1  0  0  0
 64146  1  0  0  0
 65147  1  0  0  0
 68 84  1  0  0  0
 71 72  2  0  0  0
 71 73  1  0  0  0
 71148  1  0  0  0
 72 74  1  0  0  0
 72 76  1  0  0  0
 73 75  2  0  0  0
 73 85  1  0  0  0
 74 77  1  0  0  0
 74 86  2  0  0  0
 75 79  1  0  0  0
 75 86  1  0  0  0
 76 87  1  0  0  0
 76149  1  0  0  0
 76150  1  0  0  0
 77 78  1  0  0  0
 77151  1  0  0  0
 77152  1  0  0  0
 78 82  1  0  0  0
 78 87  1  0  0  0
 78153  1  0  0  0
 79154  1  0  0  0
 79155  1  0  0  0
 79156  1  0  0  0
 80 82  1  0  0  0
 80157  1  0  0  0
 80158  1  0  0  0
 80159  1  0  0  0
 81160  1  0  0  0
 81161  1  0  0  0
 81162  1  0  0  0
 81 85  1  0  0  0
 82163  1  0  0  0
 82164  1  0  0  0
 83 84  1  0  0  0
 83 88  1  0  0  0
 83165  1  0  0  0
 83166  1  0  0  0
 84167  1  0  0  0
 84168  1  0  0  0
 85 88  1  0  0  0
 85169  1  0  0  0
 88170  1  0  0  0
 88171  1  0  0  0
M  CHG  1  88   1
M  ISO  4   1 100  68 101  84 101  87 100
M  END
> <chiral flag>
0

> <version>
0

> <s_m_source_file>
/data/baiqing/PycharmProjects/Reinvent-master-3.2/result/LINK_invent/BTK/process_docking_weight1_custom_sum_contain_oxygen_bond_distance_aromatic_linkinvent_7_9_3/rearranged_h_0159.sdf

> <i_m_source_file_index>
35

> <r_mmod_Potential_Energy-OPLS-2005>
-48.4724960327148

> <r_mmod_Stretch_Energy-OPLS-2005>
62.2344284057617

> <r_mmod_Bend_Energy-OPLS-2005>
122.370262145996

> <r_mmod_Torsional_Energy-OPLS-2005>
311.663269042969

> <r_mmod_Improper_Torsional_Energy-OPLS-2005>
5.3351526260376

> <r_mmod_Van_der_Waal_Energy-OPLS-2005>
151.829772949219

> <r_mmod_Electrostatic_Energy-OPLS-2005>
-285.068695068359

> <r_mmod_Solvation_Energy-OPLS-2005>
-438.357604980469

> <b_mmod_Minimization_Converged-OPLS-2005>
0

> <r_mmod_RMS_Derivative-OPLS-2005>
2.93865060806274

$$$$
35
                    3D
 Structure written by MMmdl.
162171  0  0  1  0            999 V2000
  -30.4785  -15.0888   20.3943 C   0  0  0  0  0  0
  -30.4421  -12.6854   19.5030 C   0  0  0  0  0  0
  -29.5266  -12.5423   18.2639 C   0  0  0  0  0  0
  -28.0652  -12.3015   18.6876 C   0  0  0  0  0  0
  -27.6184  -13.2557   19.8251 C   0  0  2  0  0  0
  -28.6588  -13.3465   20.9594 C   0  0  0  0  0  0
  -25.2414  -13.8218   20.5711 C   0  0  0  0  0  0
  -24.1750  -13.0430   20.9242 C   0  0  0  0  0  0
  -24.6381  -11.6918   20.8765 C   0  0  0  0  0  0
  -23.9072  -10.4286   21.0418 C   0  0  0  0  0  0
  -24.3619   -9.4203   21.9195 C   0  0  0  0  0  0
  -23.6288   -8.2244   22.0767 C   0  0  0  0  0  0
  -22.4269   -8.0285   21.3555 C   0  0  0  0  0  0
  -21.9909   -9.0257   20.4660 C   0  0  0  0  0  0
  -22.7242  -10.2131   20.3067 C   0  0  0  0  0  0
  -21.6852   -6.0738   22.5279 C   0  0  0  0  0  0
  -21.4017   -6.5643   23.8213 C   0  0  0  0  0  0
  -21.3658   -5.6799   24.9177 C   0  0  0  0  0  0
  -21.6039   -4.3060   24.7227 C   0  0  0  0  0  0
  -21.8816   -3.8150   23.4349 C   0  0  0  0  0  0
  -21.9188   -4.6966   22.3406 C   0  0  0  0  0  0
  -22.7770  -13.5201   21.1888 C   0  0  0  0  0  0
  -22.1657   -4.2151   21.0983 F   0  0  0  0  0  0
  -21.5625   -3.4544   25.7741 F   0  0  0  0  0  0
  -29.9111  -13.8041   20.3430 N   0  0  0  0  0  0
  -26.2829  -12.9457   20.3192 N   0  0  0  0  0  0
  -25.9307  -11.6581   20.5713 N   0  0  0  0  0  0
  -22.0407  -12.8207   22.0448 N   0  0  0  0  0  0
  -25.4037  -15.1955   20.4144 N   0  0  0  0  0  0
  -31.6988  -15.1361   20.1947 O   0  0  0  0  0  0
  -21.6637   -6.8877   21.4241 O   0  0  0  0  0  0
  -22.3462  -14.5500   20.6714 O   0  0  0  0  0  0
  -24.6508  -31.8346   23.1785 C   0  0  0  0  0  0
  -25.9239  -32.4641   23.8210 C   0  0  1  0  0  0
  -27.2186  -27.0457   20.1716 C   0  0  0  0  0  0
  -25.5950  -33.8450   24.2120 N   0  0  0  0  0  0
  -23.4591  -30.4479   21.5261 C   0  0  2  0  0  0
  -24.9088  -28.8511   20.1142 C   0  0  0  0  0  0
  -22.7599  -29.4494   22.4832 C   0  0  0  0  0  0
  -18.0313  -28.1398   22.8472 C   0  0  0  0  0  0
  -24.1495  -36.7235   23.2646 C   0  0  0  0  0  0
  -26.0192  -30.6801   21.3888 C   0  0  0  0  0  0
  -26.0892  -29.2812   20.7334 C   0  0  0  0  0  0
  -27.2431  -28.3977   20.7347 C   0  0  0  0  0  0
  -26.0088  -26.7292   19.5194 C   0  0  0  0  0  0
  -24.8864  -27.5926   19.4895 C   0  0  0  0  0  0
  -23.6906  -29.7663   20.1501 C   0  0  0  0  0  0
  -25.4130  -36.2997   24.0306 C   0  0  1  0  0  0
  -20.5927  -28.3730   23.1220 C   0  0  2  0  0  0
  -20.6793  -26.9425   22.5404 C   0  0  0  0  0  0
  -19.5769  -26.6378   21.5211 C   0  0  0  0  0  0
  -18.1951  -26.7937   22.1620 C   0  0  0  0  0  0
  -19.1570  -28.8883   23.2837 C   0  0  0  0  0  0
  -18.9485  -30.1478   23.8863 C   0  0  0  0  0  0
  -17.6480  -30.6591   24.0558 C   0  0  0  0  0  0
  -25.9084  -34.9377   23.5030 C   0  0  0  0  0  0
  -16.5371  -29.9081   23.6338 C   0  0  0  0  0  0
  -16.7296  -28.6501   23.0357 C   0  0  0  0  0  0
  -26.4534  -31.6545   25.0689 C   0  0  0  0  0  0
  -25.3695  -31.3760   26.1369 C   0  0  0  0  0  0
  -27.0417  -30.2930   24.6338 C   0  0  0  0  0  0
  -27.6037  -32.4336   25.7488 C   0  0  0  0  0  0
  -27.5574  -37.1772   24.8464 C   0  0  0  0  0  0
  -21.4281  -29.3040   22.3579 N   0  0  0  0  0  0
  -26.4286  -37.3719   23.9405 N   0  0  0  0  0  0
  -24.7301  -31.0121   22.0857 N   0  0  0  0  0  0
  -23.4202  -28.8066   23.3032 O   0  0  0  0  0  0
  -28.2864  -26.0512   20.2075 O   0  0  0  0  0  0
  -26.5691  -34.8893   22.4621 O   0  0  0  0  0  0
  -23.5606  -32.1258   23.6953 O   0  0  0  0  0  0
  -31.9845  -23.6150   19.7449 C   0  0  0  0  0  0
  -31.0475  -21.4221   19.6886 C   0  0  0  0  0  0
  -32.1345  -22.2650   19.4857 C   0  0  0  0  0  0
  -30.7444  -24.1506   20.1251 C   0  0  0  0  0  0
  -29.5151  -23.3861   20.1695 C   0  0  0  0  0  0
  -29.7411  -21.8345   20.0788 C   0  0  0  0  0  0
  -29.3579  -18.5112   21.9060 C   0  0  0  0  0  0
  -29.2913  -20.0899   21.7859 C   0  0  0  0  0  0
  -29.2247  -19.1346   19.7034 C   0  0  0  0  0  0
  -29.9108  -17.8964   20.5996 C   0  0  2  0  0  0
  -33.4838  -21.6963   19.0920 C   0  0  0  0  0  0
  -30.8722  -25.6145   20.5322 C   0  0  0  0  0  0
  -28.1910  -24.4446   20.2564 C   0  0  0  0  0  0
  -29.0337  -20.5378   20.3998 N   0  0  0  0  0  0
  -29.6748  -16.2928   20.4680 N   0  0  0  0  0  0
  -31.4671  -12.8760   19.1809 H   0  0  0  0  0  0
  -30.4775  -11.7551   20.0726 H   0  0  0  0  0  0
  -29.8711  -11.7267   17.6266 H   0  0  0  0  0  0
  -29.5885  -13.4501   17.6613 H   0  0  0  0  0  0
  -27.9906  -11.2680   19.0274 H   0  0  0  0  0  0
  -27.3982  -12.3884   17.8292 H   0  0  0  0  0  0
  -27.5582  -14.2416   19.3635 H   0  0  0  0  0  0
  -28.7850  -12.3856   21.4602 H   0  0  0  0  0  0
  -28.3322  -14.0560   21.7218 H   0  0  0  0  0  0
  -25.2758   -9.5682   22.4784 H   0  0  0  0  0  0
  -23.9989   -7.4638   22.7494 H   0  0  0  0  0  0
  -21.0835   -8.8776   19.8976 H   0  0  0  0  0  0
  -22.3689  -10.9674   19.6187 H   0  0  0  0  0  0
  -21.2015   -7.6154   23.9716 H   0  0  0  0  0  0
  -21.1482   -6.0533   25.9079 H   0  0  0  0  0  0
  -22.0593   -2.7612   23.2852 H   0  0  0  0  0  0
  -22.4010  -11.9872   22.4857 H   0  0  0  0  0  0
  -21.1028  -13.1261   22.2642 H   0  0  0  0  0  0
  -24.6260  -15.8370   20.5244 H   0  0  0  0  0  0
  -26.2320  -15.6423   20.0447 H   0  0  0  0  0  0
  -26.7303  -32.5214   23.0929 H   0  0  0  0  0  0
  -25.0043  -33.9548   25.0231 H   0  0  0  0  0  0
  -22.7663  -31.2759   21.3625 H   0  0  0  0  0  0
  -23.3760  -35.9565   23.3284 H   0  0  0  0  0  0
  -24.3580  -36.8898   22.2065 H   0  0  0  0  0  0
  -23.7254  -37.6420   23.6709 H   0  0  0  0  0  0
  -26.1851  -31.4298   20.6144 H   0  0  0  0  0  0
  -26.8849  -30.7325   22.0374 H   0  0  0  0  0  0
  -28.1461  -28.7278   21.2291 H   0  0  0  0  0  0
  -25.9114  -25.7658   19.0405 H   0  0  0  0  0  0
  -23.9862  -27.2590   18.9918 H   0  0  0  0  0  0
  -23.8354  -30.5357   19.3906 H   0  0  0  0  0  0
  -22.8026  -29.2132   19.8383 H   0  0  0  0  0  0
  -25.1326  -36.1806   25.0799 H   0  0  0  0  0  0
  -21.0016  -28.3329   24.1343 H   0  0  0  0  0  0
  -20.5679  -26.2345   23.3633 H   0  0  0  0  0  0
  -21.6660  -26.7421   22.1207 H   0  0  0  0  0  0
  -19.6933  -25.6282   21.1262 H   0  0  0  0  0  0
  -19.6709  -27.3172   20.6728 H   0  0  0  0  0  0
  -17.4220  -26.6679   21.4026 H   0  0  0  0  0  0
  -18.0351  -26.0087   22.9023 H   0  0  0  0  0  0
  -19.7960  -30.7306   24.2215 H   0  0  0  0  0  0
  -17.5032  -31.6268   24.5165 H   0  0  0  0  0  0
  -15.5369  -30.2971   23.7683 H   0  0  0  0  0  0
  -15.8699  -28.0810   22.7087 H   0  0  0  0  0  0
  -24.5883  -30.7102   25.7682 H   0  0  0  0  0  0
  -24.8880  -32.2952   26.4714 H   0  0  0  0  0  0
  -25.7960  -30.8980   27.0197 H   0  0  0  0  0  0
  -26.3055  -29.6624   24.1343 H   0  0  0  0  0  0
  -27.3991  -29.7266   25.4947 H   0  0  0  0  0  0
  -27.8975  -30.4138   23.9695 H   0  0  0  0  0  0
  -27.2605  -33.3662   26.1978 H   0  0  0  0  0  0
  -28.3897  -32.6859   25.0357 H   0  0  0  0  0  0
  -28.0653  -31.8525   26.5481 H   0  0  0  0  0  0
  -28.2573  -38.0083   24.7503 H   0  0  0  0  0  0
  -28.1086  -36.2608   24.6297 H   0  0  0  0  0  0
  -27.2290  -37.1422   25.8867 H   0  0  0  0  0  0
  -20.9513  -29.8730   21.6725 H   0  0  0  0  0  0
  -26.0141  -38.2783   24.1403 H   0  0  0  0  0  0
  -32.8566  -24.2520   19.6745 H   0  0  0  0  0  0
  -31.3077  -20.3808   19.5913 H   0  0  0  0  0  0
  -28.3461  -18.1366   22.0690 H   0  0  0  0  0  0
  -29.9395  -18.2048   22.7761 H   0  0  0  0  0  0
  -30.2376  -20.5056   22.1376 H   0  0  0  0  0  0
  -28.5236  -20.4856   22.4520 H   0  0  0  0  0  0
  -28.2187  -18.8118   19.4301 H   0  0  0  0  0  0
  -29.7359  -19.2379   18.7446 H   0  0  0  0  0  0
  -30.9916  -18.0467   20.5873 H   0  0  0  0  0  0
  -34.1827  -22.4812   18.8016 H   0  0  0  0  0  0
  -33.3813  -21.0120   18.2490 H   0  0  0  0  0  0
  -33.9203  -21.1478   19.9273 H   0  0  0  0  0  0
  -31.8965  -25.8681   20.8081 H   0  0  0  0  0  0
  -30.2853  -25.8365   21.4231 H   0  0  0  0  0  0
  -30.6038  -26.2805   19.7116 H   0  0  0  0  0  0
  -27.6555  -24.1928   21.1714 H   0  0  0  0  0  0
  -27.5265  -24.1432   19.4473 H   0  0  0  0  0  0
  -28.6949  -16.0560   20.5123 H   0  0  0  0  0  0
  1 25  1  0  0  0
  1 30  2  0  0  0
  1 85  1  0  0  0
  2  3  1  0  0  0
  2 25  1  0  0  0
  2 86  1  0  0  0
  2 87  1  0  0  0
  3  4  1  0  0  0
  3 88  1  0  0  0
  3 89  1  0  0  0
  4  5  1  0  0  0
  4 90  1  0  0  0
  4 91  1  0  0  0
  5  6  1  0  0  0
  5 26  1  0  0  0
  5 92  1  0  0  0
  6 25  1  0  0  0
  6 93  1  0  0  0
  6 94  1  0  0  0
  7  8  2  0  0  0
  7 26  1  0  0  0
  7 29  1  0  0  0
  8  9  1  0  0  0
  8 22  1  0  0  0
  9 10  1  0  0  0
  9 27  2  0  0  0
 10 11  2  0  0  0
 10 15  1  0  0  0
 11 12  1  0  0  0
 11 95  1  0  0  0
 12 13  2  0  0  0
 12 96  1  0  0  0
 13 14  1  0  0  0
 13 31  1  0  0  0
 14 15  2  0  0  0
 14 97  1  0  0  0
 15 98  1  0  0  0
 16 17  2  0  0  0
 16 21  1  0  0  0
 16 31  1  0  0  0
 17 18  1  0  0  0
 17 99  1  0  0  0
 18 19  2  0  0  0
 18100  1  0  0  0
 19 20  1  0  0  0
 19 24  1  0  0  0
 20 21  2  0  0  0
 20101  1  0  0  0
 21 23  1  0  0  0
 22 28  1  0  0  0
 22 32  2  0  0  0
 26 27  1  0  0  0
 28102  1  0  0  0
 28103  1  0  0  0
 29104  1  0  0  0
 29105  1  0  0  0
 33 34  1  0  0  0
 33 66  1  0  0  0
 33 70  2  0  0  0
 34 36  1  0  0  0
 34 59  1  0  0  0
 34106  1  0  0  0
 35 44  2  0  0  0
 35 45  1  0  0  0
 35 68  1  0  0  0
 36 56  1  0  0  0
 36107  1  0  0  0
 37 39  1  0  0  0
 37 47  1  0  0  0
 37 66  1  0  0  0
 37108  1  0  0  0
 38 43  2  0  0  0
 38 46  1  0  0  0
 38 47  1  0  0  0
 39 64  1  0  0  0
 39 67  2  0  0  0
 40 52  1  0  0  0
 40 53  2  0  0  0
 40 58  1  0  0  0
 41109  1  0  0  0
 41110  1  0  0  0
 41111  1  0  0  0
 41 48  1  0  0  0
 42 43  1  0  0  0
 42 66  1  0  0  0
 42112  1  0  0  0
 42113  1  0  0  0
 43 44  1  0  0  0
 44114  1  0  0  0
 45 46  2  0  0  0
 45115  1  0  0  0
 46116  1  0  0  0
 47117  1  0  0  0
 47118  1  0  0  0
 48 56  1  0  0  0
 48 65  1  0  0  0
 48119  1  0  0  0
 49 50  1  0  0  0
 49 53  1  0  0  0
 49 64  1  0  0  0
 49120  1  0  0  0
 50 51  1  0  0  0
 50121  1  0  0  0
 50122  1  0  0  0
 51 52  1  0  0  0
 51123  1  0  0  0
 51124  1  0  0  0
 52125  1  0  0  0
 52126  1  0  0  0
 53 54  1  0  0  0
 54 55  2  0  0  0
 54127  1  0  0  0
 55 57  1  0  0  0
 55128  1  0  0  0
 56 69  2  0  0  0
 57 58  2  0  0  0
 57129  1  0  0  0
 58130  1  0  0  0
 59 60  1  0  0  0
 59 61  1  0  0  0
 59 62  1  0  0  0
 60131  1  0  0  0
 60132  1  0  0  0
 60133  1  0  0  0
 61134  1  0  0  0
 61135  1  0  0  0
 61136  1  0  0  0
 62137  1  0  0  0
 62138  1  0  0  0
 62139  1  0  0  0
 63 65  1  0  0  0
 63140  1  0  0  0
 63141  1  0  0  0
 63142  1  0  0  0
 64143  1  0  0  0
 65144  1  0  0  0
 68 83  1  0  0  0
 71 73  2  0  0  0
 71 74  1  0  0  0
 71145  1  0  0  0
 72 73  1  0  0  0
 72 76  2  0  0  0
 72146  1  0  0  0
 73 81  1  0  0  0
 74 75  2  0  0  0
 74 82  1  0  0  0
 75 76  1  0  0  0
 75 83  1  0  0  0
 76 84  1  0  0  0
 77 78  1  0  0  0
 77 80  1  0  0  0
 77147  1  0  0  0
 77148  1  0  0  0
 78 84  1  0  0  0
 78149  1  0  0  0
 78150  1  0  0  0
 79 80  1  0  0  0
 79 84  1  0  0  0
 79151  1  0  0  0
 79152  1  0  0  0
 80 85  1  0  0  0
 80153  1  0  0  0
 81154  1  0  0  0
 81155  1  0  0  0
 81156  1  0  0  0
 82157  1  0  0  0
 82158  1  0  0  0
 82159  1  0  0  0
 83160  1  0  0  0
 83161  1  0  0  0
 85162  1  0  0  0
M  ISO  4   1 100  68 101  83 101  85 100
M  END
> <chiral flag>
0

> <version>
0

> <s_m_source_file>
/data/baiqing/PycharmProjects/Reinvent-master-3.2/result/LINK_invent/BTK/process_docking_weight1_custom_sum_contain_oxygen_bond_distance_aromatic_linkinvent_7_9_3/rearranged_h_0159.sdf

> <i_m_source_file_index>
36

> <r_mmod_Potential_Energy-OPLS-2005>
984.234497070312

> <r_mmod_Stretch_Energy-OPLS-2005>
397.065643310547

> <r_mmod_Bend_Energy-OPLS-2005>
424.493896484375

> <r_mmod_Torsional_Energy-OPLS-2005>
303.371734619141

> <r_mmod_Improper_Torsional_Energy-OPLS-2005>
11.4572687149048

> <r_mmod_Van_der_Waal_Energy-OPLS-2005>
151.025695800781

> <r_mmod_Electrostatic_Energy-OPLS-2005>
-361.041870117188

> <r_mmod_Solvation_Energy-OPLS-2005>
-231.85466003418

> <b_mmod_Minimization_Converged-OPLS-2005>
0

> <r_mmod_RMS_Derivative-OPLS-2005>
1.08826184272766

$$$$
36
                    3D
 Structure written by MMmdl.
166175  0  0  1  0            999 V2000
  -30.7070  -14.4963   20.5132 C   0  0  0  0  0  0
  -30.4263  -12.3103   19.4371 C   0  0  0  0  0  0
  -29.4995  -12.4900   18.2174 C   0  0  0  0  0  0
  -28.0197  -12.3607   18.6315 C   0  0  0  0  0  0
  -27.6581  -13.2121   19.8785 C   0  0  2  0  0  0
  -28.7068  -13.0417   21.0011 C   0  0  0  0  0  0
  -25.2570  -13.8158   20.5730 C   0  0  0  0  0  0
  -24.1832  -13.0434   20.9193 C   0  0  0  0  0  0
  -24.6393  -11.6895   20.8761 C   0  0  0  0  0  0
  -23.9061  -10.4291   21.0426 C   0  0  0  0  0  0
  -24.3601   -9.4207   21.9202 C   0  0  0  0  0  0
  -23.6283   -8.2235   22.0761 C   0  0  0  0  0  0
  -22.4265   -8.0279   21.3546 C   0  0  0  0  0  0
  -21.9904   -9.0257   20.4656 C   0  0  0  0  0  0
  -22.7233  -10.2140   20.3078 C   0  0  0  0  0  0
  -21.6849   -6.0741   22.5286 C   0  0  0  0  0  0
  -21.4009   -6.5647   23.8213 C   0  0  0  0  0  0
  -21.3654   -5.6802   24.9175 C   0  0  0  0  0  0
  -21.6028   -4.3066   24.7240 C   0  0  0  0  0  0
  -21.8823   -3.8156   23.4358 C   0  0  0  0  0  0
  -21.9191   -4.6961   22.3414 C   0  0  0  0  0  0
  -22.7846  -13.5224   21.1842 C   0  0  0  0  0  0
  -22.1663   -4.2145   21.0992 F   0  0  0  0  0  0
  -21.5623   -3.4561   25.7755 F   0  0  0  0  0  0
  -30.0297  -13.3227   20.4257 N   0  0  0  0  0  0
  -26.3022  -12.9339   20.3433 N   0  0  0  0  0  0
  -25.9335  -11.6492   20.5831 N   0  0  0  0  0  0
  -22.0479  -12.8228   22.0394 N   0  0  0  0  0  0
  -25.4300  -15.1890   20.4183 N   0  0  0  0  0  0
  -31.8857  -14.6114   20.1624 O   0  0  0  0  0  0
  -21.6628   -6.8878   21.4243 O   0  0  0  0  0  0
  -22.3542  -14.5533   20.6687 O   0  0  0  0  0  0
  -24.6152  -31.8668   23.2111 C   0  0  0  0  0  0
  -25.9031  -32.4798   23.8465 C   0  0  1  0  0  0
  -27.2379  -27.4136   20.1039 C   0  0  0  0  0  0
  -25.5899  -33.8613   24.2382 N   0  0  0  0  0  0
  -23.4061  -30.4876   21.5512 C   0  0  2  0  0  0
  -24.8515  -28.9469   20.1226 C   0  0  0  0  0  0
  -22.7410  -29.4658   22.5011 C   0  0  0  0  0  0
  -18.0264  -28.1331   22.8492 C   0  0  0  0  0  0
  -24.1481  -36.7299   23.2655 C   0  0  0  0  0  0
  -25.9381  -30.8240   21.3703 C   0  0  0  0  0  0
  -26.0110  -29.4583   20.7143 C   0  0  0  0  0  0
  -27.2046  -28.6999   20.6971 C   0  0  0  0  0  0
  -26.0522  -26.9145   19.5172 C   0  0  0  0  0  0
  -24.8679  -27.6748   19.5237 C   0  0  0  0  0  0
  -23.6149  -29.8134   20.1692 C   0  0  0  0  0  0
  -25.4098  -36.3108   24.0363 C   0  0  1  0  0  0
  -20.5861  -28.3652   23.1280 C   0  0  2  0  0  0
  -20.6726  -26.9383   22.5392 C   0  0  0  0  0  0
  -19.5716  -26.6362   21.5171 C   0  0  0  0  0  0
  -18.1902  -26.7888   22.1607 C   0  0  0  0  0  0
  -19.1517  -28.8801   23.2878 C   0  0  0  0  0  0
  -18.9451  -30.1392   23.8908 C   0  0  0  0  0  0
  -17.6458  -30.6534   24.0544 C   0  0  0  0  0  0
  -25.9030  -34.9463   23.5166 C   0  0  0  0  0  0
  -16.5350  -29.9046   23.6306 C   0  0  0  0  0  0
  -16.7261  -28.6443   23.0382 C   0  0  0  0  0  0
  -26.4495  -31.6589   25.0803 C   0  0  0  0  0  0
  -25.3796  -31.3644   26.1574 C   0  0  0  0  0  0
  -27.0324  -30.3025   24.6192 C   0  0  0  0  0  0
  -27.6074  -32.4357   25.7535 C   0  0  0  0  0  0
  -27.5571  -37.1795   24.8473 C   0  0  0  0  0  0
  -21.4136  -29.3042   22.3711 N   0  0  0  0  0  0
  -26.4278  -37.3789   23.9431 N   0  0  0  0  0  0
  -24.6714  -31.0770   22.1005 N   0  0  0  0  0  0
  -23.4161  -28.8189   23.3065 O   0  0  0  0  0  0
  -28.4326  -26.7169   20.1151 O   0  0  0  0  0  0
  -26.5586  -34.8889   22.4726 O   0  0  0  0  0  0
  -23.5333  -32.1464   23.7441 O   0  0  0  0  0  0
  -27.6708  -21.9278   21.4889 C   0  0  0  0  0  0
  -29.4401  -22.3606   19.9066 C   0  0  0  0  0  0
  -29.0545  -20.0428   20.6964 C   0  0  0  0  0  0
  -28.4128  -22.8588   20.7316 C   0  0  0  0  0  0
  -27.9671  -20.5423   21.4758 C   0  0  0  0  0  0
  -29.7508  -20.9800   19.8708 C   0  0  0  0  0  0
  -29.5361  -17.7658   22.0272 C   0  0  0  0  0  0
  -28.8498  -17.6648   19.6621 C   0  0  0  0  0  0
  -30.3237  -16.4386   21.8817 C   0  0  0  0  0  0
  -29.6861  -16.3810   19.4673 C   0  0  0  0  0  0
  -29.5245  -18.5581   20.7054 C   0  0  0  0  0  0
  -27.0874  -19.6454   22.3312 C   0  0  0  0  0  0
  -30.8691  -20.5469   18.9286 C   0  0  0  0  0  0
  -28.1319  -24.3662   20.8990 C   0  0  0  0  0  0
  -28.5064  -25.3265   19.7363 C   0  0  0  0  0  0
  -29.9564  -15.6128   20.7083 N   0  0  0  0  0  0
  -31.4704  -12.4075   19.1311 H   0  0  0  0  0  0
  -30.3341  -11.3109   19.8650 H   0  0  0  0  0  0
  -29.7429  -11.7558   17.4480 H   0  0  0  0  0  0
  -29.6682  -13.4695   17.7673 H   0  0  0  0  0  0
  -27.8251  -11.3082   18.8371 H   0  0  0  0  0  0
  -27.3730  -12.6304   17.7964 H   0  0  0  0  0  0
  -27.6793  -14.2527   19.5603 H   0  0  0  0  0  0
  -28.6862  -12.0266   21.4005 H   0  0  0  0  0  0
  -28.4877  -13.7032   21.8414 H   0  0  0  0  0  0
  -25.2743   -9.5678   22.4788 H   0  0  0  0  0  0
  -23.9995   -7.4621   22.7481 H   0  0  0  0  0  0
  -21.0833   -8.8774   19.8971 H   0  0  0  0  0  0
  -22.3685  -10.9674   19.6197 H   0  0  0  0  0  0
  -21.2001   -7.6159   23.9719 H   0  0  0  0  0  0
  -21.1464   -6.0538   25.9072 H   0  0  0  0  0  0
  -22.0603   -2.7621   23.2872 H   0  0  0  0  0  0
  -22.4074  -11.9872   22.4773 H   0  0  0  0  0  0
  -21.1106  -13.1273   22.2604 H   0  0  0  0  0  0
  -24.6695  -15.8483   20.5426 H   0  0  0  0  0  0
  -26.2986  -15.6287   20.1427 H   0  0  0  0  0  0
  -26.7098  -32.5493   23.1226 H   0  0  0  0  0  0
  -25.0099  -33.9851   25.0556 H   0  0  0  0  0  0
  -22.6934  -31.3015   21.4010 H   0  0  0  0  0  0
  -23.3746  -35.9620   23.3320 H   0  0  0  0  0  0
  -24.3594  -36.8920   22.2075 H   0  0  0  0  0  0
  -23.7222  -37.6500   23.6661 H   0  0  0  0  0  0
  -26.0652  -31.5881   20.6036 H   0  0  0  0  0  0
  -26.8222  -30.8728   21.9941 H   0  0  0  0  0  0
  -28.1017  -29.0987   21.1502 H   0  0  0  0  0  0
  -26.0163  -25.9401   19.0546 H   0  0  0  0  0  0
  -23.9727  -27.2717   19.0721 H   0  0  0  0  0  0
  -23.7186  -30.5831   19.4038 H   0  0  0  0  0  0
  -22.7401  -29.2306   19.8769 H   0  0  0  0  0  0
  -25.1246  -36.2011   25.0855 H   0  0  0  0  0  0
  -20.9942  -28.3210   24.1401 H   0  0  0  0  0  0
  -20.5559  -26.2282   23.3607 H   0  0  0  0  0  0
  -21.6606  -26.7370   22.1230 H   0  0  0  0  0  0
  -19.6902  -25.6280   21.1193 H   0  0  0  0  0  0
  -19.6628  -27.3165   20.6699 H   0  0  0  0  0  0
  -17.4169  -26.6644   21.4012 H   0  0  0  0  0  0
  -18.0293  -25.9989   22.8965 H   0  0  0  0  0  0
  -19.7933  -30.7155   24.2327 H   0  0  0  0  0  0
  -17.5033  -31.6230   24.5125 H   0  0  0  0  0  0
  -15.5356  -30.2964   23.7588 H   0  0  0  0  0  0
  -15.8667  -28.0718   22.7182 H   0  0  0  0  0  0
  -24.6012  -30.6921   25.7955 H   0  0  0  0  0  0
  -24.8918  -32.2743   26.5070 H   0  0  0  0  0  0
  -25.8235  -30.8845   27.0308 H   0  0  0  0  0  0
  -26.2850  -29.6780   24.1270 H   0  0  0  0  0  0
  -27.4100  -29.7274   25.4662 H   0  0  0  0  0  0
  -27.8689  -30.4338   23.9322 H   0  0  0  0  0  0
  -27.2698  -33.3677   26.2078 H   0  0  0  0  0  0
  -28.3862  -32.6916   25.0343 H   0  0  0  0  0  0
  -28.0754  -31.8533   26.5485 H   0  0  0  0  0  0
  -28.2576  -38.0100   24.7528 H   0  0  0  0  0  0
  -28.1085  -36.2643   24.6270 H   0  0  0  0  0  0
  -27.2301  -37.1385   25.8877 H   0  0  0  0  0  0
  -20.9299  -29.8830   21.6984 H   0  0  0  0  0  0
  -26.0172  -38.2864   24.1443 H   0  0  0  0  0  0
  -26.8676  -22.2877   22.1199 H   0  0  0  0  0  0
  -30.0281  -23.0387   19.3042 H   0  0  0  0  0  0
  -29.9831  -18.3630   22.8229 H   0  0  0  0  0  0
  -28.5305  -17.5108   22.3517 H   0  0  0  0  0  0
  -27.8304  -17.4194   19.9603 H   0  0  0  0  0  0
  -28.7692  -18.1894   18.7085 H   0  0  0  0  0  0
  -30.1747  -15.8436   22.7846 H   0  0  0  0  0  0
  -31.3910  -16.6658   21.8443 H   0  0  0  0  0  0
  -30.6377  -16.6614   19.0084 H   0  0  0  0  0  0
  -29.1914  -15.7415   18.7354 H   0  0  0  0  0  0
  -30.5830  -18.6009   20.4527 H   0  0  0  0  0  0
  -26.1852  -20.1639   22.6598 H   0  0  0  0  0  0
  -27.6172  -19.3305   23.2309 H   0  0  0  0  0  0
  -26.7617  -18.7697   21.7701 H   0  0  0  0  0  0
  -31.0967  -21.3142   18.1869 H   0  0  0  0  0  0
  -30.5931  -19.6481   18.3754 H   0  0  0  0  0  0
  -31.7861  -20.3517   19.4864 H   0  0  0  0  0  0
  -28.6803  -24.6844   21.7851 H   0  0  0  0  0  0
  -27.0770  -24.4999   21.1366 H   0  0  0  0  0  0
  -29.5528  -25.1711   19.4790 H   0  0  0  0  0  0
  -27.9547  -25.1072   18.8239 H   0  0  0  0  0  0
  1 25  1  0  0  0
  1 30  2  0  0  0
  1 86  1  0  0  0
  2  3  1  0  0  0
  2 25  1  0  0  0
  2 87  1  0  0  0
  2 88  1  0  0  0
  3  4  1  0  0  0
  3 89  1  0  0  0
  3 90  1  0  0  0
  4  5  1  0  0  0
  4 91  1  0  0  0
  4 92  1  0  0  0
  5  6  1  0  0  0
  5 26  1  0  0  0
  5 93  1  0  0  0
  6 25  1  0  0  0
  6 94  1  0  0  0
  6 95  1  0  0  0
  7  8  2  0  0  0
  7 26  1  0  0  0
  7 29  1  0  0  0
  8  9  1  0  0  0
  8 22  1  0  0  0
  9 10  1  0  0  0
  9 27  2  0  0  0
 10 11  2  0  0  0
 10 15  1  0  0  0
 11 12  1  0  0  0
 11 96  1  0  0  0
 12 13  2  0  0  0
 12 97  1  0  0  0
 13 14  1  0  0  0
 13 31  1  0  0  0
 14 15  2  0  0  0
 14 98  1  0  0  0
 15 99  1  0  0  0
 16 17  2  0  0  0
 16 21  1  0  0  0
 16 31  1  0  0  0
 17 18  1  0  0  0
 17100  1  0  0  0
 18 19  2  0  0  0
 18101  1  0  0  0
 19 20  1  0  0  0
 19 24  1  0  0  0
 20 21  2  0  0  0
 20102  1  0  0  0
 21 23  1  0  0  0
 22 28  1  0  0  0
 22 32  2  0  0  0
 26 27  1  0  0  0
 28103  1  0  0  0
 28104  1  0  0  0
 29105  1  0  0  0
 29106  1  0  0  0
 33 34  1  0  0  0
 33 66  1  0  0  0
 33 70  2  0  0  0
 34 36  1  0  0  0
 34 59  1  0  0  0
 34107  1  0  0  0
 35 44  2  0  0  0
 35 45  1  0  0  0
 35 68  1  0  0  0
 36 56  1  0  0  0
 36108  1  0  0  0
 37 39  1  0  0  0
 37 47  1  0  0  0
 37 66  1  0  0  0
 37109  1  0  0  0
 38 43  2  0  0  0
 38 46  1  0  0  0
 38 47  1  0  0  0
 39 64  1  0  0  0
 39 67  2  0  0  0
 40 52  1  0  0  0
 40 53  2  0  0  0
 40 58  1  0  0  0
 41110  1  0  0  0
 41111  1  0  0  0
 41112  1  0  0  0
 41 48  1  0  0  0
 42 43  1  0  0  0
 42 66  1  0  0  0
 42113  1  0  0  0
 42114  1  0  0  0
 43 44  1  0  0  0
 44115  1  0  0  0
 45 46  2  0  0  0
 45116  1  0  0  0
 46117  1  0  0  0
 47118  1  0  0  0
 47119  1  0  0  0
 48 56  1  0  0  0
 48 65  1  0  0  0
 48120  1  0  0  0
 49 50  1  0  0  0
 49 53  1  0  0  0
 49 64  1  0  0  0
 49121  1  0  0  0
 50 51  1  0  0  0
 50122  1  0  0  0
 50123  1  0  0  0
 51 52  1  0  0  0
 51124  1  0  0  0
 51125  1  0  0  0
 52126  1  0  0  0
 52127  1  0  0  0
 53 54  1  0  0  0
 54 55  2  0  0  0
 54128  1  0  0  0
 55 57  1  0  0  0
 55129  1  0  0  0
 56 69  2  0  0  0
 57 58  2  0  0  0
 57130  1  0  0  0
 58131  1  0  0  0
 59 60  1  0  0  0
 59 61  1  0  0  0
 59 62  1  0  0  0
 60132  1  0  0  0
 60133  1  0  0  0
 60134  1  0  0  0
 61135  1  0  0  0
 61136  1  0  0  0
 61137  1  0  0  0
 62138  1  0  0  0
 62139  1  0  0  0
 62140  1  0  0  0
 63 65  1  0  0  0
 63141  1  0  0  0
 63142  1  0  0  0
 63143  1  0  0  0
 64144  1  0  0  0
 65145  1  0  0  0
 68 85  1  0  0  0
 71 74  2  0  0  0
 71 75  1  0  0  0
 71146  1  0  0  0
 72 74  1  0  0  0
 72 76  2  0  0  0
 72147  1  0  0  0
 73 75  2  0  0  0
 73 76  1  0  0  0
 73 81  1  0  0  0
 74 84  1  0  0  0
 75 82  1  0  0  0
 76 83  1  0  0  0
 77 79  1  0  0  0
 77 81  1  0  0  0
 77148  1  0  0  0
 77149  1  0  0  0
 78 80  1  0  0  0
 78 81  1  0  0  0
 78150  1  0  0  0
 78151  1  0  0  0
 79 86  1  0  0  0
 79152  1  0  0  0
 79153  1  0  0  0
 80 86  1  0  0  0
 80154  1  0  0  0
 80155  1  0  0  0
 81156  1  0  0  0
 82157  1  0  0  0
 82158  1  0  0  0
 82159  1  0  0  0
 83160  1  0  0  0
 83161  1  0  0  0
 83162  1  0  0  0
 84 85  1  0  0  0
 84163  1  0  0  0
 84164  1  0  0  0
 85165  1  0  0  0
 85166  1  0  0  0
M  ISO  4   1 100  68 101  85 101  86 100
M  END
> <chiral flag>
0

> <version>
0

> <s_m_source_file>
/data/baiqing/PycharmProjects/Reinvent-master-3.2/result/LINK_invent/BTK/process_docking_weight1_custom_sum_contain_oxygen_bond_distance_aromatic_linkinvent_7_9_3/rearranged_h_0159.sdf

> <i_m_source_file_index>
37

> <r_mmod_Potential_Energy-OPLS-2005>
211.065368652344

> <r_mmod_Stretch_Energy-OPLS-2005>
47.1162948608398

> <r_mmod_Bend_Energy-OPLS-2005>
134.359222412109

> <r_mmod_Torsional_Energy-OPLS-2005>
320.679260253906

> <r_mmod_Improper_Torsional_Energy-OPLS-2005>
11.3260869979858

> <r_mmod_Van_der_Waal_Energy-OPLS-2005>
160.102874755859

> <r_mmod_Electrostatic_Energy-OPLS-2005>
-295.522064208984

> <r_mmod_Solvation_Energy-OPLS-2005>
-186.5458984375

> <b_mmod_Minimization_Converged-OPLS-2005>
0

> <r_mmod_RMS_Derivative-OPLS-2005>
3.11661171913147

$$$$
37
                    3D
 Structure written by MMmdl.
167176  0  0  1  0            999 V2000
  -30.6181  -14.9484   20.4089 C   0  0  0  0  0  0
  -30.4189  -12.5987   19.4889 C   0  0  0  0  0  0
  -29.5055  -12.5211   18.2484 C   0  0  0  0  0  0
  -28.0448  -12.3026   18.6777 C   0  0  0  0  0  0
  -27.6190  -13.2504   19.8285 C   0  0  2  0  0  0
  -28.6672  -13.3391   20.9588 C   0  0  0  0  0  0
  -25.2438  -13.8224   20.5741 C   0  0  0  0  0  0
  -24.1759  -13.0434   20.9239 C   0  0  0  0  0  0
  -24.6385  -11.6924   20.8775 C   0  0  0  0  0  0
  -23.9073  -10.4290   21.0413 C   0  0  0  0  0  0
  -24.3623   -9.4202   21.9185 C   0  0  0  0  0  0
  -23.6297   -8.2241   22.0756 C   0  0  0  0  0  0
  -22.4284   -8.0278   21.3544 C   0  0  0  0  0  0
  -21.9915   -9.0247   20.4645 C   0  0  0  0  0  0
  -22.7247  -10.2127   20.3055 C   0  0  0  0  0  0
  -21.6854   -6.0729   22.5272 C   0  0  0  0  0  0
  -21.4015   -6.5634   23.8203 C   0  0  0  0  0  0
  -21.3663   -5.6791   24.9168 C   0  0  0  0  0  0
  -21.6046   -4.3052   24.7221 C   0  0  0  0  0  0
  -21.8822   -3.8139   23.4342 C   0  0  0  0  0  0
  -21.9194   -4.6958   22.3398 C   0  0  0  0  0  0
  -22.7781  -13.5203   21.1872 C   0  0  0  0  0  0
  -22.1662   -4.2146   21.0974 F   0  0  0  0  0  0
  -21.5633   -3.4537   25.7731 F   0  0  0  0  0  0
  -29.9359  -13.7323   20.3350 N   0  0  0  0  0  0
  -26.2853  -12.9453   20.3269 N   0  0  0  0  0  0
  -25.9323  -11.6584   20.5774 N   0  0  0  0  0  0
  -22.0441  -12.8179   22.0429 N   0  0  0  0  0  0
  -25.4104  -15.1948   20.4169 N   0  0  0  0  0  0
  -31.8358  -14.8878   20.2062 O   0  0  0  0  0  0
  -21.6647   -6.8875   21.4236 O   0  0  0  0  0  0
  -22.3455  -14.5502   20.6715 O   0  0  0  0  0  0
  -24.6426  -31.8471   23.1893 C   0  0  0  0  0  0
  -25.9201  -32.4710   23.8288 C   0  0  1  0  0  0
  -27.2037  -27.1400   20.1430 C   0  0  0  0  0  0
  -25.5963  -33.8519   24.2208 N   0  0  0  0  0  0
  -23.4448  -30.4677   21.5362 C   0  0  2  0  0  0
  -24.8916  -28.9028   20.1047 C   0  0  0  0  0  0
  -22.7560  -29.4547   22.4853 C   0  0  0  0  0  0
  -18.0307  -28.1396   22.8472 C   0  0  0  0  0  0
  -24.1484  -36.7263   23.2642 C   0  0  0  0  0  0
  -26.0018  -30.7194   21.3896 C   0  0  0  0  0  0
  -26.0692  -29.3322   20.7295 C   0  0  0  0  0  0
  -27.2261  -28.4658   20.7366 C   0  0  0  0  0  0
  -26.0056  -26.8236   19.4629 C   0  0  0  0  0  0
  -24.8729  -27.6618   19.4553 C   0  0  0  0  0  0
  -23.6697  -29.8054   20.1521 C   0  0  0  0  0  0
  -25.4113  -36.3043   24.0322 C   0  0  1  0  0  0
  -20.5921  -28.3723   23.1229 C   0  0  2  0  0  0
  -20.6791  -26.9424   22.5405 C   0  0  0  0  0  0
  -19.5766  -26.6376   21.5218 C   0  0  0  0  0  0
  -18.1944  -26.7931   22.1623 C   0  0  0  0  0  0
  -19.1562  -28.8876   23.2839 C   0  0  0  0  0  0
  -18.9489  -30.1469   23.8877 C   0  0  0  0  0  0
  -17.6493  -30.6597   24.0558 C   0  0  0  0  0  0
  -25.9067  -34.9421   23.5065 C   0  0  0  0  0  0
  -16.5382  -29.9098   23.6338 C   0  0  0  0  0  0
  -16.7293  -28.6513   23.0352 C   0  0  0  0  0  0
  -26.4512  -31.6569   25.0727 C   0  0  0  0  0  0
  -25.3689  -31.3787   26.1424 C   0  0  0  0  0  0
  -27.0363  -30.2961   24.6296 C   0  0  0  0  0  0
  -27.6031  -32.4334   25.7529 C   0  0  0  0  0  0
  -27.5568  -37.1779   24.8462 C   0  0  0  0  0  0
  -21.4257  -29.3058   22.3614 N   0  0  0  0  0  0
  -26.4276  -37.3754   23.9412 N   0  0  0  0  0  0
  -24.7165  -31.0318   22.0940 N   0  0  0  0  0  0
  -23.4223  -28.8079   23.2978 O   0  0  0  0  0  0
  -28.2342  -26.1334   20.2340 O   0  0  0  0  0  0
  -26.5641  -34.8913   22.4637 O   0  0  0  0  0  0
  -23.5542  -32.1356   23.7115 O   0  0  0  0  0  0
  -31.7378  -22.4116   18.4963 C   0  0  0  0  0  0
  -30.6947  -23.0242   19.2040 C   0  0  0  0  0  0
  -29.6799  -22.2445   19.8584 C   0  0  0  0  0  0
  -31.8009  -21.0274   18.4349 C   0  0  0  0  0  0
  -29.8967  -20.7369   19.8031 C   0  0  0  0  0  0
  -28.8200  -18.4124   19.5089 C   0  0  0  0  0  0
  -30.1379  -18.8150   21.4207 C   0  0  0  0  0  0
  -28.7792  -16.8652   20.0424 C   0  0  0  0  0  0
  -30.8697  -17.4379   20.9916 C   0  0  0  0  0  0
  -30.7599  -24.5477   19.2291 C   0  0  0  0  0  0
  -32.8881  -20.3151   17.6603 C   0  0  0  0  0  0
  -28.8676  -23.3301   22.0684 C   0  0  0  0  0  0
  -27.8994  -24.6307   19.9966 C   0  0  0  0  0  0
  -28.5467  -23.1710   20.5776 C   0  0  1  0  0  0
  -30.9257  -20.2517   19.0749 N   0  0  0  0  0  0
  -29.2936  -19.5310   20.4126 N   0  0  0  0  0  0
  -30.0299  -16.2442   20.6080 N   0  0  0  0  0  0
  -31.4539  -12.7246   19.1689 H   0  0  0  0  0  0
  -30.3973  -11.6632   20.0494 H   0  0  0  0  0  0
  -29.8275  -11.7165   17.5873 H   0  0  0  0  0  0
  -29.5873  -13.4451   17.6726 H   0  0  0  0  0  0
  -27.9502  -11.2644   18.9999 H   0  0  0  0  0  0
  -27.3762  -12.4184   17.8240 H   0  0  0  0  0  0
  -27.5562  -14.2337   19.3677 H   0  0  0  0  0  0
  -28.7673  -12.3898   21.4871 H   0  0  0  0  0  0
  -28.3685  -14.0831   21.6988 H   0  0  0  0  0  0
  -25.2775   -9.5677   22.4751 H   0  0  0  0  0  0
  -24.0006   -7.4634   22.7482 H   0  0  0  0  0  0
  -21.0847   -8.8762   19.8948 H   0  0  0  0  0  0
  -22.3709  -10.9659   19.6157 H   0  0  0  0  0  0
  -21.2009   -7.6142   23.9701 H   0  0  0  0  0  0
  -21.1485   -6.0522   25.9069 H   0  0  0  0  0  0
  -22.0601   -2.7602   23.2839 H   0  0  0  0  0  0
  -22.4092  -11.9848   22.4798 H   0  0  0  0  0  0
  -21.1053  -13.1175   22.2651 H   0  0  0  0  0  0
  -24.6427  -15.8479   20.5325 H   0  0  0  0  0  0
  -26.2624  -15.6341   20.0959 H   0  0  0  0  0  0
  -26.7270  -32.5306   23.1028 H   0  0  0  0  0  0
  -25.0105  -33.9630   25.0351 H   0  0  0  0  0  0
  -22.7485  -31.2952   21.3853 H   0  0  0  0  0  0
  -23.3754  -35.9584   23.3291 H   0  0  0  0  0  0
  -24.3575  -36.8909   22.2057 H   0  0  0  0  0  0
  -23.7240  -37.6457   23.6683 H   0  0  0  0  0  0
  -26.1548  -31.4712   20.6148 H   0  0  0  0  0  0
  -26.8753  -30.7696   22.0282 H   0  0  0  0  0  0
  -28.1173  -28.7832   21.2595 H   0  0  0  0  0  0
  -25.8988  -25.8819   18.9463 H   0  0  0  0  0  0
  -23.9778  -27.3338   18.9459 H   0  0  0  0  0  0
  -23.8053  -30.5857   19.4030 H   0  0  0  0  0  0
  -22.7838  -29.2508   19.8385 H   0  0  0  0  0  0
  -25.1293  -36.1876   25.0814 H   0  0  0  0  0  0
  -21.0008  -28.3316   24.1350 H   0  0  0  0  0  0
  -20.5693  -26.2336   23.3630 H   0  0  0  0  0  0
  -21.6652  -26.7429   22.1193 H   0  0  0  0  0  0
  -19.6930  -25.6280   21.1258 H   0  0  0  0  0  0
  -19.6703  -27.3173   20.6736 H   0  0  0  0  0  0
  -17.4208  -26.6682   21.4029 H   0  0  0  0  0  0
  -18.0334  -26.0077   22.9020 H   0  0  0  0  0  0
  -19.7970  -30.7277   24.2233 H   0  0  0  0  0  0
  -17.5058  -31.6272   24.5179 H   0  0  0  0  0  0
  -15.5380  -30.3011   23.7672 H   0  0  0  0  0  0
  -15.8682  -28.0842   22.7079 H   0  0  0  0  0  0
  -24.5895  -30.7094   25.7780 H   0  0  0  0  0  0
  -24.8850  -32.2973   26.4738 H   0  0  0  0  0  0
  -25.7968  -30.9064   27.0277 H   0  0  0  0  0  0
  -26.2973  -29.6716   24.1270 H   0  0  0  0  0  0
  -27.3934  -29.7234   25.4866 H   0  0  0  0  0  0
  -27.8898  -30.4202   23.9636 H   0  0  0  0  0  0
  -27.2613  -33.3666   26.2026 H   0  0  0  0  0  0
  -28.3892  -32.6855   25.0398 H   0  0  0  0  0  0
  -28.0638  -31.8518   26.5528 H   0  0  0  0  0  0
  -28.2560  -38.0095   24.7501 H   0  0  0  0  0  0
  -28.1086  -36.2617   24.6291 H   0  0  0  0  0  0
  -27.2278  -37.1429   25.8863 H   0  0  0  0  0  0
  -20.9460  -29.8828   21.6846 H   0  0  0  0  0  0
  -26.0147  -38.2818   24.1440 H   0  0  0  0  0  0
  -32.4978  -23.0015   18.0012 H   0  0  0  0  0  0
  -27.8103  -18.6799   19.1943 H   0  0  0  0  0  0
  -29.3975  -18.4168   18.5848 H   0  0  0  0  0  0
  -30.9046  -19.5112   21.7642 H   0  0  0  0  0  0
  -29.5166  -18.6315   22.2981 H   0  0  0  0  0  0
  -28.4561  -16.2494   19.2036 H   0  0  0  0  0  0
  -28.0033  -16.7722   20.8023 H   0  0  0  0  0  0
  -31.5016  -17.1315   21.8269 H   0  0  0  0  0  0
  -31.5584  -17.6462   20.1707 H   0  0  0  0  0  0
  -31.7380  -24.9105   18.9110 H   0  0  0  0  0  0
  -30.6007  -24.9523   20.2273 H   0  0  0  0  0  0
  -30.0412  -24.9817   18.5361 H   0  0  0  0  0  0
  -33.2751  -20.9431   16.8569 H   0  0  0  0  0  0
  -32.5026  -19.3978   17.2136 H   0  0  0  0  0  0
  -33.7148  -20.0543   18.3212 H   0  0  0  0  0  0
  -29.0327  -22.3619   22.5420 H   0  0  0  0  0  0
  -28.0482  -23.8183   22.5974 H   0  0  0  0  0  0
  -29.7617  -23.9336   22.2214 H   0  0  0  0  0  0
  -26.8926  -24.5620   20.4078 H   0  0  0  0  0  0
  -27.7547  -24.5093   18.9227 H   0  0  0  0  0  0
  -27.6912  -22.4945   20.5396 H   0  0  0  0  0  0
  1 25  1  0  0  0
  1 30  2  0  0  0
  1 87  1  0  0  0
  2  3  1  0  0  0
  2 25  1  0  0  0
  2 88  1  0  0  0
  2 89  1  0  0  0
  3  4  1  0  0  0
  3 90  1  0  0  0
  3 91  1  0  0  0
  4  5  1  0  0  0
  4 92  1  0  0  0
  4 93  1  0  0  0
  5  6  1  0  0  0
  5 26  1  0  0  0
  5 94  1  0  0  0
  6 25  1  0  0  0
  6 95  1  0  0  0
  6 96  1  0  0  0
  7  8  2  0  0  0
  7 26  1  0  0  0
  7 29  1  0  0  0
  8  9  1  0  0  0
  8 22  1  0  0  0
  9 10  1  0  0  0
  9 27  2  0  0  0
 10 11  2  0  0  0
 10 15  1  0  0  0
 11 12  1  0  0  0
 11 97  1  0  0  0
 12 13  2  0  0  0
 12 98  1  0  0  0
 13 14  1  0  0  0
 13 31  1  0  0  0
 14 15  2  0  0  0
 14 99  1  0  0  0
 15100  1  0  0  0
 16 17  2  0  0  0
 16 21  1  0  0  0
 16 31  1  0  0  0
 17 18  1  0  0  0
 17101  1  0  0  0
 18 19  2  0  0  0
 18102  1  0  0  0
 19 20  1  0  0  0
 19 24  1  0  0  0
 20 21  2  0  0  0
 20103  1  0  0  0
 21 23  1  0  0  0
 22 28  1  0  0  0
 22 32  2  0  0  0
 26 27  1  0  0  0
 28104  1  0  0  0
 28105  1  0  0  0
 29106  1  0  0  0
 29107  1  0  0  0
 33 34  1  0  0  0
 33 66  1  0  0  0
 33 70  2  0  0  0
 34 36  1  0  0  0
 34 59  1  0  0  0
 34108  1  0  0  0
 35 44  2  0  0  0
 35 45  1  0  0  0
 35 68  1  0  0  0
 36 56  1  0  0  0
 36109  1  0  0  0
 37 39  1  0  0  0
 37 47  1  0  0  0
 37 66  1  0  0  0
 37110  1  0  0  0
 38 43  2  0  0  0
 38 46  1  0  0  0
 38 47  1  0  0  0
 39 64  1  0  0  0
 39 67  2  0  0  0
 40 52  1  0  0  0
 40 53  2  0  0  0
 40 58  1  0  0  0
 41111  1  0  0  0
 41112  1  0  0  0
 41113  1  0  0  0
 41 48  1  0  0  0
 42 43  1  0  0  0
 42 66  1  0  0  0
 42114  1  0  0  0
 42115  1  0  0  0
 43 44  1  0  0  0
 44116  1  0  0  0
 45 46  2  0  0  0
 45117  1  0  0  0
 46118  1  0  0  0
 47119  1  0  0  0
 47120  1  0  0  0
 48 56  1  0  0  0
 48 65  1  0  0  0
 48121  1  0  0  0
 49 50  1  0  0  0
 49 53  1  0  0  0
 49 64  1  0  0  0
 49122  1  0  0  0
 50 51  1  0  0  0
 50123  1  0  0  0
 50124  1  0  0  0
 51 52  1  0  0  0
 51125  1  0  0  0
 51126  1  0  0  0
 52127  1  0  0  0
 52128  1  0  0  0
 53 54  1  0  0  0
 54 55  2  0  0  0
 54129  1  0  0  0
 55 57  1  0  0  0
 55130  1  0  0  0
 56 69  2  0  0  0
 57 58  2  0  0  0
 57131  1  0  0  0
 58132  1  0  0  0
 59 60  1  0  0  0
 59 61  1  0  0  0
 59 62  1  0  0  0
 60133  1  0  0  0
 60134  1  0  0  0
 60135  1  0  0  0
 61136  1  0  0  0
 61137  1  0  0  0
 61138  1  0  0  0
 62139  1  0  0  0
 62140  1  0  0  0
 62141  1  0  0  0
 63 65  1  0  0  0
 63142  1  0  0  0
 63143  1  0  0  0
 63144  1  0  0  0
 64145  1  0  0  0
 65146  1  0  0  0
 68 83  1  0  0  0
 71 72  2  0  0  0
 71 74  1  0  0  0
 71147  1  0  0  0
 72 73  1  0  0  0
 72 80  1  0  0  0
 73 75  2  0  0  0
 73 84  1  0  0  0
 74 81  1  0  0  0
 74 85  2  0  0  0
 75 85  1  0  0  0
 75 86  1  0  0  0
 76 78  1  0  0  0
 76 86  1  0  0  0
 76148  1  0  0  0
 76149  1  0  0  0
 77 79  1  0  0  0
 77 86  1  0  0  0
 77150  1  0  0  0
 77151  1  0  0  0
 78 87  1  0  0  0
 78152  1  0  0  0
 78153  1  0  0  0
 79 87  1  0  0  0
 79154  1  0  0  0
 79155  1  0  0  0
 80156  1  0  0  0
 80157  1  0  0  0
 80158  1  0  0  0
 81159  1  0  0  0
 81160  1  0  0  0
 81161  1  0  0  0
 82162  1  0  0  0
 82163  1  0  0  0
 82164  1  0  0  0
 82 84  1  0  0  0
 83 84  1  0  0  0
 83165  1  0  0  0
 83166  1  0  0  0
 84167  1  0  0  0
M  ISO  4   1 100  68 101  83 101  87 100
M  END
> <chiral flag>
0

> <version>
0

> <s_m_source_file>
/data/baiqing/PycharmProjects/Reinvent-master-3.2/result/LINK_invent/BTK/process_docking_weight1_custom_sum_contain_oxygen_bond_distance_aromatic_linkinvent_7_9_3/rearranged_h_0159.sdf

> <i_m_source_file_index>
38

> <r_mmod_Potential_Energy-OPLS-2005>
583.069091796875

> <r_mmod_Stretch_Energy-OPLS-2005>
255.718734741211

> <r_mmod_Bend_Energy-OPLS-2005>
357.974365234375

> <r_mmod_Torsional_Energy-OPLS-2005>
366.712768554688

> <r_mmod_Improper_Torsional_Energy-OPLS-2005>
9.57828426361084

> <r_mmod_Van_der_Waal_Energy-OPLS-2005>
163.255523681641

> <r_mmod_Electrostatic_Energy-OPLS-2005>
-539.399963378906

> <r_mmod_Solvation_Energy-OPLS-2005>
-229.276260375977

> <b_mmod_Minimization_Converged-OPLS-2005>
0

> <r_mmod_RMS_Derivative-OPLS-2005>
2.0025372505188

$$$$
38
                    3D
 Structure written by MMmdl.
163171  0  0  1  0            999 V2000
  -30.6978  -14.6393   20.4987 C   0  0  0  0  0  0
  -30.4211  -12.4007   19.4506 C   0  0  0  0  0  0
  -29.4939  -12.4855   18.2215 C   0  0  0  0  0  0
  -28.0280  -12.2946   18.6489 C   0  0  0  0  0  0
  -27.6418  -13.1999   19.8452 C   0  0  2  0  0  0
  -28.6927  -13.1455   20.9804 C   0  0  0  0  0  0
  -25.2540  -13.8128   20.5685 C   0  0  0  0  0  0
  -24.1804  -13.0415   20.9211 C   0  0  0  0  0  0
  -24.6356  -11.6885   20.8765 C   0  0  0  0  0  0
  -23.9020  -10.4291   21.0428 C   0  0  0  0  0  0
  -24.3581   -9.4216   21.9207 C   0  0  0  0  0  0
  -23.6282   -8.2235   22.0766 C   0  0  0  0  0  0
  -22.4265   -8.0262   21.3547 C   0  0  0  0  0  0
  -21.9885   -9.0232   20.4651 C   0  0  0  0  0  0
  -22.7194  -10.2128   20.3078 C   0  0  0  0  0  0
  -21.6852   -6.0721   22.5272 C   0  0  0  0  0  0
  -21.4008   -6.5632   23.8199 C   0  0  0  0  0  0
  -21.3662   -5.6791   24.9167 C   0  0  0  0  0  0
  -21.6048   -4.3052   24.7221 C   0  0  0  0  0  0
  -21.8826   -3.8137   23.4342 C   0  0  0  0  0  0
  -21.9195   -4.6950   22.3399 C   0  0  0  0  0  0
  -22.7833  -13.5230   21.1872 C   0  0  0  0  0  0
  -22.1666   -4.2134   21.0977 F   0  0  0  0  0  0
  -21.5635   -3.4541   25.7739 F   0  0  0  0  0  0
  -30.0032  -13.4588   20.3957 N   0  0  0  0  0  0
  -26.2935  -12.9272   20.3280 N   0  0  0  0  0  0
  -25.9275  -11.6452   20.5778 N   0  0  0  0  0  0
  -22.0461  -12.8229   22.0421 N   0  0  0  0  0  0
  -25.4234  -15.1846   20.4069 N   0  0  0  0  0  0
  -31.8745  -14.7012   20.1326 O   0  0  0  0  0  0
  -21.6639   -6.8855   21.4231 O   0  0  0  0  0  0
  -22.3531  -14.5545   20.6728 O   0  0  0  0  0  0
  -24.6248  -31.8612   23.2028 C   0  0  0  0  0  0
  -25.9092  -32.4796   23.8371 C   0  0  1  0  0  0
  -27.2291  -27.3337   20.1272 C   0  0  0  0  0  0
  -25.5903  -33.8596   24.2301 N   0  0  0  0  0  0
  -23.4183  -30.4817   21.5452 C   0  0  2  0  0  0
  -24.8661  -28.9317   20.1181 C   0  0  0  0  0  0
  -22.7466  -29.4623   22.4955 C   0  0  0  0  0  0
  -18.0284  -28.1370   22.8497 C   0  0  0  0  0  0
  -24.1488  -36.7300   23.2642 C   0  0  0  0  0  0
  -25.9574  -30.7974   21.3705 C   0  0  0  0  0  0
  -26.0343  -29.4241   20.7157 C   0  0  0  0  0  0
  -27.2218  -28.6383   20.7037 C   0  0  0  0  0  0
  -26.0400  -26.8806   19.5177 C   0  0  0  0  0  0
  -24.8698  -27.6649   19.5104 C   0  0  0  0  0  0
  -23.6348  -29.8122   20.1621 C   0  0  0  0  0  0
  -25.4111  -36.3098   24.0341 C   0  0  1  0  0  0
  -20.5884  -28.3674   23.1287 C   0  0  2  0  0  0
  -20.6768  -26.9397   22.5409 C   0  0  0  0  0  0
  -19.5746  -26.6373   21.5207 C   0  0  0  0  0  0
  -18.1928  -26.7915   22.1627 C   0  0  0  0  0  0
  -19.1535  -28.8839   23.2888 C   0  0  0  0  0  0
  -18.9462  -30.1439   23.8911 C   0  0  0  0  0  0
  -17.6461  -30.6581   24.0554 C   0  0  0  0  0  0
  -25.9043  -34.9464   23.5119 C   0  0  0  0  0  0
  -16.5353  -29.9081   23.6318 C   0  0  0  0  0  0
  -16.7269  -28.6487   23.0362 C   0  0  0  0  0  0
  -26.4483  -31.6605   25.0741 C   0  0  0  0  0  0
  -25.3714  -31.3741   26.1469 C   0  0  0  0  0  0
  -27.0326  -30.3032   24.6186 C   0  0  0  0  0  0
  -27.6047  -32.4336   25.7507 C   0  0  0  0  0  0
  -27.5580  -37.1810   24.8468 C   0  0  0  0  0  0
  -21.4179  -29.3039   22.3701 N   0  0  0  0  0  0
  -26.4293  -37.3785   23.9412 N   0  0  0  0  0  0
  -24.6855  -31.0633   22.0971 N   0  0  0  0  0  0
  -23.4195  -28.8158   23.3026 O   0  0  0  0  0  0
  -28.3604  -26.5143   20.1195 O   0  0  0  0  0  0
  -26.5613  -34.8921   22.4692 O   0  0  0  0  0  0
  -23.5403  -32.1408   23.7358 O   0  0  0  0  0  0
  -30.0563  -20.2886   20.8175 C   0  0  0  0  0  0
  -28.8070  -18.0626   20.4643 C   0  0  0  0  0  0
  -31.1487  -18.0692   21.1697 C   0  0  0  0  0  0
  -29.0688  -16.5284   20.1480 C   0  0  0  0  0  0
  -30.7859  -16.7148   21.8492 C   0  0  0  0  0  0
  -27.6525  -21.1061   21.3604 C   0  0  0  0  0  0
  -27.7353  -23.5041   18.7196 C   0  0  0  0  0  0
  -28.2481  -25.1495   20.6750 C   0  0  0  0  0  0
  -28.8889  -21.2977   20.4580 C   0  0  1  0  0  0
  -28.7608  -23.9200   19.7970 C   0  0  2  0  0  0
  -29.9750  -18.9013   20.8128 N   0  0  0  0  0  0
  -30.0694  -15.7805   20.9607 N   0  0  0  0  0  0
  -29.3635  -22.7414   20.5681 N   0  3  0  0  0  0
  -31.1303  -20.8318   21.1049 O   0  0  0  0  0  0
  -31.4611  -12.5001   19.1353 H   0  0  0  0  0  0
  -30.3473  -11.4202   19.9236 H   0  0  0  0  0  0
  -29.7701  -11.7301   17.4841 H   0  0  0  0  0  0
  -29.6133  -13.4518   17.7280 H   0  0  0  0  0  0
  -27.8942  -11.2463   18.9189 H   0  0  0  0  0  0
  -27.3602  -12.4772   17.8064 H   0  0  0  0  0  0
  -27.6267  -14.1993   19.4252 H   0  0  0  0  0  0
  -28.7155  -12.1589   21.4459 H   0  0  0  0  0  0
  -28.4357  -13.8509   21.7725 H   0  0  0  0  0  0
  -25.2722   -9.5705   22.4783 H   0  0  0  0  0  0
  -23.9993   -7.4632   22.7494 H   0  0  0  0  0  0
  -21.0813   -8.8745   19.8955 H   0  0  0  0  0  0
  -22.3642  -10.9668   19.6194 H   0  0  0  0  0  0
  -21.1996   -7.6140   23.9690 H   0  0  0  0  0  0
  -21.1480   -6.0527   25.9067 H   0  0  0  0  0  0
  -22.0606   -2.7595   23.2848 H   0  0  0  0  0  0
  -22.4053  -11.9870   22.4791 H   0  0  0  0  0  0
  -21.1092  -13.1280   22.2643 H   0  0  0  0  0  0
  -24.6535  -15.8357   20.5179 H   0  0  0  0  0  0
  -26.2705  -15.6241   20.0731 H   0  0  0  0  0  0
  -26.7167  -32.5478   23.1128 H   0  0  0  0  0  0
  -25.0055  -33.9758   25.0446 H   0  0  0  0  0  0
  -22.7117  -31.3013   21.3990 H   0  0  0  0  0  0
  -23.3752  -35.9630   23.3316 H   0  0  0  0  0  0
  -24.3572  -36.8907   22.2051 H   0  0  0  0  0  0
  -23.7239  -37.6505   23.6654 H   0  0  0  0  0  0
  -26.0862  -31.5607   20.6016 H   0  0  0  0  0  0
  -26.8374  -30.8473   22.0005 H   0  0  0  0  0  0
  -28.1239  -29.0172   21.1649 H   0  0  0  0  0  0
  -26.0115  -25.9093   19.0467 H   0  0  0  0  0  0
  -23.9746  -27.2829   19.0400 H   0  0  0  0  0  0
  -23.7592  -30.5870   19.4042 H   0  0  0  0  0  0
  -22.7557  -29.2419   19.8572 H   0  0  0  0  0  0
  -25.1290  -36.1957   25.0833 H   0  0  0  0  0  0
  -20.9975  -28.3235   24.1405 H   0  0  0  0  0  0
  -20.5640  -26.2286   23.3608 H   0  0  0  0  0  0
  -21.6641  -26.7410   22.1217 H   0  0  0  0  0  0
  -19.6897  -25.6280   21.1245 H   0  0  0  0  0  0
  -19.6677  -27.3175   20.6729 H   0  0  0  0  0  0
  -17.4190  -26.6659   21.4034 H   0  0  0  0  0  0
  -18.0329  -26.0050   22.9015 H   0  0  0  0  0  0
  -19.7936  -30.7240   24.2301 H   0  0  0  0  0  0
  -17.5018  -31.6265   24.5145 H   0  0  0  0  0  0
  -15.5355  -30.2988   23.7623 H   0  0  0  0  0  0
  -15.8669  -28.0793   22.7096 H   0  0  0  0  0  0
  -24.5875  -30.7111   25.7795 H   0  0  0  0  0  0
  -24.8921  -32.2907   26.4916 H   0  0  0  0  0  0
  -25.8030  -30.8899   27.0237 H   0  0  0  0  0  0
  -26.2902  -29.6796   24.1194 H   0  0  0  0  0  0
  -27.4013  -29.7282   25.4690 H   0  0  0  0  0  0
  -27.8774  -30.4341   23.9420 H   0  0  0  0  0  0
  -27.2663  -33.3628   26.2107 H   0  0  0  0  0  0
  -28.3839  -32.6916   25.0323 H   0  0  0  0  0  0
  -28.0736  -31.8453   26.5405 H   0  0  0  0  0  0
  -28.2606  -38.0099   24.7501 H   0  0  0  0  0  0
  -28.1068  -36.2630   24.6310 H   0  0  0  0  0  0
  -27.2297  -37.1476   25.8870 H   0  0  0  0  0  0
  -20.9349  -29.8790   21.6944 H   0  0  0  0  0  0
  -26.0183  -38.2869   24.1389 H   0  0  0  0  0  0
  -28.2717  -18.5091   19.6248 H   0  0  0  0  0  0
  -28.1296  -18.1046   21.3178 H   0  0  0  0  0  0
  -31.7428  -17.8925   20.2709 H   0  0  0  0  0  0
  -31.8022  -18.6049   21.8598 H   0  0  0  0  0  0
  -29.3406  -16.4299   19.0952 H   0  0  0  0  0  0
  -28.1111  -16.0340   20.2661 H   0  0  0  0  0  0
  -31.7035  -16.2546   22.2259 H   0  0  0  0  0  0
  -30.1720  -16.8936   22.7327 H   0  0  0  0  0  0
  -27.1676  -20.1468   21.1953 H   0  0  0  0  0  0
  -26.8994  -21.8680   21.1620 H   0  0  0  0  0  0
  -27.9111  -21.1719   22.4174 H   0  0  0  0  0  0
  -26.8361  -23.0749   19.1604 H   0  0  0  0  0  0
  -28.1487  -22.7790   18.0176 H   0  0  0  0  0  0
  -27.4308  -24.3633   18.1224 H   0  0  0  0  0  0
  -28.8407  -25.1757   21.5904 H   0  0  0  0  0  0
  -27.2326  -24.9489   21.0194 H   0  0  0  0  0  0
  -28.6257  -21.0794   19.4247 H   0  0  0  0  0  0
  -29.6228  -24.3155   19.2585 H   0  0  0  0  0  0
  -30.3231  -22.6593   20.2585 H   0  0  0  0  0  0
  -29.4537  -22.9666   21.5466 H   0  0  0  0  0  0
  1 25  1  0  0  0
  1 30  2  0  0  0
  1 82  1  0  0  0
  2  3  1  0  0  0
  2 25  1  0  0  0
  2 85  1  0  0  0
  2 86  1  0  0  0
  3  4  1  0  0  0
  3 87  1  0  0  0
  3 88  1  0  0  0
  4  5  1  0  0  0
  4 89  1  0  0  0
  4 90  1  0  0  0
  5  6  1  0  0  0
  5 26  1  0  0  0
  5 91  1  0  0  0
  6 25  1  0  0  0
  6 92  1  0  0  0
  6 93  1  0  0  0
  7  8  2  0  0  0
  7 26  1  0  0  0
  7 29  1  0  0  0
  8  9  1  0  0  0
  8 22  1  0  0  0
  9 10  1  0  0  0
  9 27  2  0  0  0
 10 11  2  0  0  0
 10 15  1  0  0  0
 11 12  1  0  0  0
 11 94  1  0  0  0
 12 13  2  0  0  0
 12 95  1  0  0  0
 13 14  1  0  0  0
 13 31  1  0  0  0
 14 15  2  0  0  0
 14 96  1  0  0  0
 15 97  1  0  0  0
 16 17  2  0  0  0
 16 21  1  0  0  0
 16 31  1  0  0  0
 17 18  1  0  0  0
 17 98  1  0  0  0
 18 19  2  0  0  0
 18 99  1  0  0  0
 19 20  1  0  0  0
 19 24  1  0  0  0
 20 21  2  0  0  0
 20100  1  0  0  0
 21 23  1  0  0  0
 22 28  1  0  0  0
 22 32  2  0  0  0
 26 27  1  0  0  0
 28101  1  0  0  0
 28102  1  0  0  0
 29103  1  0  0  0
 29104  1  0  0  0
 33 34  1  0  0  0
 33 66  1  0  0  0
 33 70  2  0  0  0
 34 36  1  0  0  0
 34 59  1  0  0  0
 34105  1  0  0  0
 35 44  2  0  0  0
 35 45  1  0  0  0
 35 68  1  0  0  0
 36 56  1  0  0  0
 36106  1  0  0  0
 37 39  1  0  0  0
 37 47  1  0  0  0
 37 66  1  0  0  0
 37107  1  0  0  0
 38 43  2  0  0  0
 38 46  1  0  0  0
 38 47  1  0  0  0
 39 64  1  0  0  0
 39 67  2  0  0  0
 40 52  1  0  0  0
 40 53  2  0  0  0
 40 58  1  0  0  0
 41108  1  0  0  0
 41109  1  0  0  0
 41110  1  0  0  0
 41 48  1  0  0  0
 42 43  1  0  0  0
 42 66  1  0  0  0
 42111  1  0  0  0
 42112  1  0  0  0
 43 44  1  0  0  0
 44113  1  0  0  0
 45 46  2  0  0  0
 45114  1  0  0  0
 46115  1  0  0  0
 47116  1  0  0  0
 47117  1  0  0  0
 48 56  1  0  0  0
 48 65  1  0  0  0
 48118  1  0  0  0
 49 50  1  0  0  0
 49 53  1  0  0  0
 49 64  1  0  0  0
 49119  1  0  0  0
 50 51  1  0  0  0
 50120  1  0  0  0
 50121  1  0  0  0
 51 52  1  0  0  0
 51122  1  0  0  0
 51123  1  0  0  0
 52124  1  0  0  0
 52125  1  0  0  0
 53 54  1  0  0  0
 54 55  2  0  0  0
 54126  1  0  0  0
 55 57  1  0  0  0
 55127  1  0  0  0
 56 69  2  0  0  0
 57 58  2  0  0  0
 57128  1  0  0  0
 58129  1  0  0  0
 59 60  1  0  0  0
 59 61  1  0  0  0
 59 62  1  0  0  0
 60130  1  0  0  0
 60131  1  0  0  0
 60132  1  0  0  0
 61133  1  0  0  0
 61134  1  0  0  0
 61135  1  0  0  0
 62136  1  0  0  0
 62137  1  0  0  0
 62138  1  0  0  0
 63 65  1  0  0  0
 63139  1  0  0  0
 63140  1  0  0  0
 63141  1  0  0  0
 64142  1  0  0  0
 65143  1  0  0  0
 68 78  1  0  0  0
 71 79  1  0  0  0
 71 81  1  0  0  0
 71 84  2  0  0  0
 72 74  1  0  0  0
 72 81  1  0  0  0
 72144  1  0  0  0
 72145  1  0  0  0
 73 75  1  0  0  0
 73 81  1  0  0  0
 73146  1  0  0  0
 73147  1  0  0  0
 74 82  1  0  0  0
 74148  1  0  0  0
 74149  1  0  0  0
 75 82  1  0  0  0
 75150  1  0  0  0
 75151  1  0  0  0
 76152  1  0  0  0
 76153  1  0  0  0
 76154  1  0  0  0
 76 79  1  0  0  0
 77155  1  0  0  0
 77156  1  0  0  0
 77157  1  0  0  0
 77 80  1  0  0  0
 78 80  1  0  0  0
 78158  1  0  0  0
 78159  1  0  0  0
 79 83  1  0  0  0
 79160  1  0  0  0
 80 83  1  0  0  0
 80161  1  0  0  0
 83162  1  0  0  0
 83163  1  0  0  0
M  CHG  1  83   1
M  ISO  4   1 100  68 101  78 101  82 100
M  END
> <chiral flag>
0

> <version>
0

> <s_m_source_file>
/data/baiqing/PycharmProjects/Reinvent-master-3.2/result/LINK_invent/BTK/process_docking_weight1_custom_sum_contain_oxygen_bond_distance_aromatic_linkinvent_7_9_3/rearranged_h_0159.sdf

> <i_m_source_file_index>
39

> <r_mmod_Potential_Energy-OPLS-2005>
186.932250976562

> <r_mmod_Stretch_Energy-OPLS-2005>
84.6688919067383

> <r_mmod_Bend_Energy-OPLS-2005>
170.032989501953

> <r_mmod_Torsional_Energy-OPLS-2005>
420.713134765625

> <r_mmod_Improper_Torsional_Energy-OPLS-2005>
4.34550666809082

> <r_mmod_Van_der_Waal_Energy-OPLS-2005>
139.060256958008

> <r_mmod_Electrostatic_Energy-OPLS-2005>
-233.759811401367

> <r_mmod_Solvation_Energy-OPLS-2005>
-445.927917480469

> <b_mmod_Minimization_Converged-OPLS-2005>
0

> <r_mmod_RMS_Derivative-OPLS-2005>
1.92475152015686

$$$$
39
                    3D
 Structure written by MMmdl.
192203  0  0  1  0            999 V2000
  -30.7650  -14.3865   20.5835 C   0  0  0  0  0  0
  -30.3929  -12.2577   19.4227 C   0  0  0  0  0  0
  -29.4860  -12.5066   18.2034 C   0  0  0  0  0  0
  -28.0060  -12.3788   18.6114 C   0  0  0  0  0  0
  -27.6590  -13.2096   19.8765 C   0  0  2  0  0  0
  -28.6967  -12.9944   21.0012 C   0  0  0  0  0  0
  -25.2572  -13.8137   20.5695 C   0  0  0  0  0  0
  -24.1827  -13.0417   20.9215 C   0  0  0  0  0  0
  -24.6382  -11.6879   20.8751 C   0  0  0  0  0  0
  -23.9035  -10.4270   21.0418 C   0  0  0  0  0  0
  -24.3580   -9.4164   21.9191 C   0  0  0  0  0  0
  -23.6268   -8.2192   22.0734 C   0  0  0  0  0  0
  -22.4244   -8.0253   21.3521 C   0  0  0  0  0  0
  -21.9891   -9.0231   20.4620 C   0  0  0  0  0  0
  -22.7221  -10.2120   20.3051 C   0  0  0  0  0  0
  -21.6820   -6.0718   22.5282 C   0  0  0  0  0  0
  -21.3988   -6.5618   23.8225 C   0  0  0  0  0  0
  -21.3668   -5.6772   24.9179 C   0  0  0  0  0  0
  -21.6059   -4.3037   24.7246 C   0  0  0  0  0  0
  -21.8814   -3.8133   23.4364 C   0  0  0  0  0  0
  -21.9185   -4.6957   22.3413 C   0  0  0  0  0  0
  -22.7874  -13.5245   21.1926 C   0  0  0  0  0  0
  -22.1646   -4.2131   21.0994 F   0  0  0  0  0  0
  -21.5673   -3.4530   25.7766 F   0  0  0  0  0  0
  -30.0344  -13.2501   20.4474 N   0  0  0  0  0  0
  -26.3002  -12.9318   20.3375 N   0  0  0  0  0  0
  -25.9312  -11.6467   20.5794 N   0  0  0  0  0  0
  -22.0509  -12.8206   22.0440 N   0  0  0  0  0  0
  -25.4352  -15.1847   20.4087 N   0  0  0  0  0  0
  -31.8830  -14.5047   20.0708 O   0  0  0  0  0  0
  -21.6590   -6.8861   21.4237 O   0  0  0  0  0  0
  -22.3589  -14.5590   20.6836 O   0  0  0  0  0  0
  -24.6096  -31.8712   23.2141 C   0  0  0  0  0  0
  -25.9009  -32.4834   23.8425 C   0  0  1  0  0  0
  -27.2567  -27.4846   20.0707 C   0  0  0  0  0  0
  -25.5891  -33.8631   24.2368 N   0  0  0  0  0  0
  -23.3956  -30.4937   21.5539 C   0  0  2  0  0  0
  -24.8447  -28.9625   20.1170 C   0  0  0  0  0  0
  -22.7371  -29.4676   22.5022 C   0  0  0  0  0  0
  -18.0266  -28.1364   22.8498 C   0  0  0  0  0  0
  -24.1475  -36.7317   23.2640 C   0  0  0  0  0  0
  -25.9184  -30.8479   21.3622 C   0  0  0  0  0  0
  -25.9996  -29.4847   20.7109 C   0  0  0  0  0  0
  -27.2033  -28.7509   20.7002 C   0  0  0  0  0  0
  -26.0778  -26.9579   19.5029 C   0  0  0  0  0  0
  -24.8746  -27.6901   19.5178 C   0  0  0  0  0  0
  -23.6022  -29.8223   20.1689 C   0  0  0  0  0  0
  -25.4094  -36.3122   24.0352 C   0  0  1  0  0  0
  -20.5846  -28.3648   23.1331 C   0  0  2  0  0  0
  -20.6751  -26.9394   22.5421 C   0  0  0  0  0  0
  -19.5735  -26.6383   21.5207 C   0  0  0  0  0  0
  -18.1911  -26.7919   22.1614 C   0  0  0  0  0  0
  -19.1512  -28.8827   23.2904 C   0  0  0  0  0  0
  -18.9445  -30.1434   23.8915 C   0  0  0  0  0  0
  -17.6450  -30.6577   24.0570 C   0  0  0  0  0  0
  -25.9022  -34.9481   23.5154 C   0  0  0  0  0  0
  -16.5340  -29.9080   23.6329 C   0  0  0  0  0  0
  -16.7257  -28.6488   23.0363 C   0  0  0  0  0  0
  -26.4463  -31.6593   25.0729 C   0  0  0  0  0  0
  -25.3755  -31.3682   26.1499 C   0  0  0  0  0  0
  -27.0292  -30.3050   24.6069 C   0  0  0  0  0  0
  -27.6067  -32.4293   25.7467 C   0  0  0  0  0  0
  -27.5574  -37.1810   24.8472 C   0  0  0  0  0  0
  -21.4111  -29.3019   22.3741 N   0  0  0  0  0  0
  -26.4288  -37.3800   23.9415 N   0  0  0  0  0  0
  -24.6591  -31.0839   22.1026 N   0  0  0  0  0  0
  -23.4164  -28.8232   23.3057 O   0  0  0  0  0  0
  -28.3874  -26.7009   20.0072 O   0  0  0  0  0  0
  -26.5571  -34.8929   22.4706 O   0  0  0  0  0  0
  -23.5305  -32.1447   23.7560 O   0  0  0  0  0  0
  -31.8828  -17.0882   21.5858 C   0  0  0  0  0  0
  -32.5616  -18.2242   21.1217 C   0  0  0  0  0  0
  -33.8965  -18.6876   21.2824 C   0  0  0  0  0  0
  -31.8769  -19.0879   20.2204 C   0  0  0  0  0  0
  -34.0408  -19.7543   20.4493 C   0  0  0  0  0  0
  -30.5367  -18.7647   19.8715 C   0  0  0  0  0  0
  -30.6312  -16.7446   21.0486 C   0  0  0  0  0  0
  -35.0227  -18.0736   22.0694 C   0  0  0  0  0  0
  -35.3936  -20.3269   20.1342 C   0  0  0  0  0  0
  -31.9925  -23.5870   18.3842 C   0  0  0  0  0  0
  -31.3217  -22.7055   20.6181 C   0  0  0  0  0  0
  -36.4678  -19.8486   21.1394 C   0  0  0  0  0  0
  -31.8136  -25.0290   18.8993 C   0  0  0  0  0  0
  -31.1447  -24.1599   21.1172 C   0  0  0  0  0  0
  -32.3799  -22.5991   19.5009 C   0  0  1  0  0  0
  -29.6707  -19.5869   18.9389 C   0  0  0  0  0  0
  -38.3676  -18.7451   22.9860 C   0  0  0  0  0  0
  -38.3358  -16.9385   21.2032 C   0  0  0  0  0  0
  -32.6076  -21.1758   18.9025 C   0  0  0  0  0  0
  -30.7026  -26.5105   20.5424 C   0  0  0  0  0  0
  -29.6500  -27.3284   19.7817 C   0  0  0  0  0  0
  -37.4883  -17.7642   22.1812 C   0  0  0  0  0  0
  -29.9503  -17.6145   20.2806 N   0  0  0  0  0  0
  -32.8101  -20.0822   19.8584 N   0  0  0  0  0  0
  -30.1747  -15.4171   21.2148 N   0  0  0  0  0  0
  -36.3408  -18.3949   21.4565 N   0  3  1  0  0  0
  -30.8382  -25.1215   20.0224 N   0  3  1  0  0  0
  -33.6035  -23.0284   20.0612 O   0  0  0  0  0  0
  -31.4443  -12.2961   19.1321 H   0  0  0  0  0  0
  -30.2347  -11.2507   19.8122 H   0  0  0  0  0  0
  -29.7147  -11.7965   17.4089 H   0  0  0  0  0  0
  -29.6801  -13.4994   17.7932 H   0  0  0  0  0  0
  -27.7980  -11.3228   18.7944 H   0  0  0  0  0  0
  -27.3676  -12.6765   17.7792 H   0  0  0  0  0  0
  -27.7063  -14.2590   19.5868 H   0  0  0  0  0  0
  -28.6485  -11.9701   21.3724 H   0  0  0  0  0  0
  -28.4647  -13.6306   21.8578 H   0  0  0  0  0  0
  -25.2720   -9.5639   22.4779 H   0  0  0  0  0  0
  -23.9992   -7.4549   22.7404 H   0  0  0  0  0  0
  -21.0848   -8.8758   19.8881 H   0  0  0  0  0  0
  -22.3689  -10.9676   19.6164 H   0  0  0  0  0  0
  -21.1919   -7.6117   23.9731 H   0  0  0  0  0  0
  -21.1520   -6.0492   25.9097 H   0  0  0  0  0  0
  -22.0590   -2.7600   23.2883 H   0  0  0  0  0  0
  -22.4087  -11.9817   22.4785 H   0  0  0  0  0  0
  -21.1135  -13.1237   22.2633 H   0  0  0  0  0  0
  -24.6870  -15.8611   20.5124 H   0  0  0  0  0  0
  -26.3006  -15.5988   20.0873 H   0  0  0  0  0  0
  -26.7080  -32.5579   23.1199 H   0  0  0  0  0  0
  -25.0077  -33.9799   25.0536 H   0  0  0  0  0  0
  -22.6824  -31.3086   21.4159 H   0  0  0  0  0  0
  -23.3731  -35.9658   23.3330 H   0  0  0  0  0  0
  -24.3571  -36.8893   22.2048 H   0  0  0  0  0  0
  -23.7230  -37.6538   23.6623 H   0  0  0  0  0  0
  -26.0228  -31.6139   20.5924 H   0  0  0  0  0  0
  -26.8087  -30.9063   21.9762 H   0  0  0  0  0  0
  -28.0705  -29.1663   21.1921 H   0  0  0  0  0  0
  -26.0954  -25.9826   19.0357 H   0  0  0  0  0  0
  -23.9838  -27.2748   19.0668 H   0  0  0  0  0  0
  -23.7006  -30.5954   19.4057 H   0  0  0  0  0  0
  -22.7282  -29.2360   19.8799 H   0  0  0  0  0  0
  -25.1261  -36.2001   25.0846 H   0  0  0  0  0  0
  -20.9937  -28.3212   24.1450 H   0  0  0  0  0  0
  -20.5638  -26.2262   23.3600 H   0  0  0  0  0  0
  -21.6627  -26.7434   22.1228 H   0  0  0  0  0  0
  -19.6901  -25.6299   21.1221 H   0  0  0  0  0  0
  -19.6675  -27.3205   20.6744 H   0  0  0  0  0  0
  -17.4185  -26.6680   21.4008 H   0  0  0  0  0  0
  -18.0307  -26.0047   22.8993 H   0  0  0  0  0  0
  -19.7926  -30.7240   24.2293 H   0  0  0  0  0  0
  -17.5012  -31.6265   24.5160 H   0  0  0  0  0  0
  -15.5342  -30.2988   23.7653 H   0  0  0  0  0  0
  -15.8650  -28.0809   22.7086 H   0  0  0  0  0  0
  -24.5931  -30.7015   25.7856 H   0  0  0  0  0  0
  -24.8933  -32.2825   26.4972 H   0  0  0  0  0  0
  -25.8135  -30.8852   27.0242 H   0  0  0  0  0  0
  -26.2821  -29.6796   24.1172 H   0  0  0  0  0  0
  -27.4140  -29.7295   25.4497 H   0  0  0  0  0  0
  -27.8617  -30.4395   23.9159 H   0  0  0  0  0  0
  -27.2724  -33.3585   26.2095 H   0  0  0  0  0  0
  -28.3841  -32.6861   25.0256 H   0  0  0  0  0  0
  -28.0778  -31.8382   26.5332 H   0  0  0  0  0  0
  -28.2622  -38.0078   24.7495 H   0  0  0  0  0  0
  -28.1037  -36.2614   24.6318 H   0  0  0  0  0  0
  -27.2300  -37.1498   25.8879 H   0  0  0  0  0  0
  -20.9269  -29.8727   21.6952 H   0  0  0  0  0  0
  -26.0186  -38.2886   24.1404 H   0  0  0  0  0  0
  -32.4120  -16.3947   22.2219 H   0  0  0  0  0  0
  -34.9077  -16.9885   22.1075 H   0  0  0  0  0  0
  -34.9994  -18.4272   23.1016 H   0  0  0  0  0  0
  -35.4001  -21.4108   20.1155 H   0  0  0  0  0  0
  -35.6840  -20.0099   19.1322 H   0  0  0  0  0  0
  -32.7475  -23.5775   17.5968 H   0  0  0  0  0  0
  -31.0653  -23.2583   17.9117 H   0  0  0  0  0  0
  -30.3574  -22.3537   20.2595 H   0  0  0  0  0  0
  -31.5803  -22.0607   21.4591 H   0  0  0  0  0  0
  -36.3781  -20.4182   22.0659 H   0  0  0  0  0  0
  -37.4525  -20.0648   20.7260 H   0  0  0  0  0  0
  -31.4988  -25.6664   18.0726 H   0  0  0  0  0  0
  -32.7829  -25.4125   19.2246 H   0  0  0  0  0  0
  -32.0485  -24.4913   21.6311 H   0  0  0  0  0  0
  -30.3444  -24.1885   21.8588 H   0  0  0  0  0  0
  -29.6942  -20.6373   19.2000 H   0  0  0  0  0  0
  -28.6297  -19.2697   19.0039 H   0  0  0  0  0  0
  -29.9834  -19.4729   17.9011 H   0  0  0  0  0  0
  -39.0836  -18.1989   23.6005 H   0  0  0  0  0  0
  -37.7734  -19.3586   23.6632 H   0  0  0  0  0  0
  -38.9461  -19.4064   22.3398 H   0  0  0  0  0  0
  -39.1667  -16.4551   21.7170 H   0  0  0  0  0  0
  -38.7530  -17.5586   20.4091 H   0  0  0  0  0  0
  -37.7437  -16.1473   20.7415 H   0  0  0  0  0  0
  -33.4763  -21.2038   18.2416 H   0  0  0  0  0  0
  -31.7848  -20.9166   18.2421 H   0  0  0  0  0  0
  -30.4059  -26.4930   21.5923 H   0  0  0  0  0  0
  -31.6682  -27.0176   20.5163 H   0  0  0  0  0  0
  -29.8598  -27.3485   18.7119 H   0  0  0  0  0  0
  -29.7014  -28.3616   20.1184 H   0  0  0  0  0  0
  -37.0836  -17.0536   22.9045 H   0  0  0  0  0  0
  -29.2101  -15.2846   21.4715 H   0  0  0  0  0  0
  -36.3274  -17.9259   20.5637 H   0  0  0  0  0  0
  -29.9268  -24.8703   19.6629 H   0  0  0  0  0  0
  -33.8257  -22.4290   20.7635 H   0  0  0  0  0  0
  1 25  1  0  0  0
  1 30  2  0  0  0
  1 95  1  0  0  0
  2  3  1  0  0  0
  2 25  1  0  0  0
  2 99  1  0  0  0
  2100  1  0  0  0
  3  4  1  0  0  0
  3101  1  0  0  0
  3102  1  0  0  0
  4  5  1  0  0  0
  4103  1  0  0  0
  4104  1  0  0  0
  5  6  1  0  0  0
  5 26  1  0  0  0
  5105  1  0  0  0
  6 25  1  0  0  0
  6106  1  0  0  0
  6107  1  0  0  0
  7  8  2  0  0  0
  7 26  1  0  0  0
  7 29  1  0  0  0
  8  9  1  0  0  0
  8 22  1  0  0  0
  9 10  1  0  0  0
  9 27  2  0  0  0
 10 11  2  0  0  0
 10 15  1  0  0  0
 11 12  1  0  0  0
 11108  1  0  0  0
 12 13  2  0  0  0
 12109  1  0  0  0
 13 14  1  0  0  0
 13 31  1  0  0  0
 14 15  2  0  0  0
 14110  1  0  0  0
 15111  1  0  0  0
 16 17  2  0  0  0
 16 21  1  0  0  0
 16 31  1  0  0  0
 17 18  1  0  0  0
 17112  1  0  0  0
 18 19  2  0  0  0
 18113  1  0  0  0
 19 20  1  0  0  0
 19 24  1  0  0  0
 20 21  2  0  0  0
 20114  1  0  0  0
 21 23  1  0  0  0
 22 28  1  0  0  0
 22 32  2  0  0  0
 26 27  1  0  0  0
 28115  1  0  0  0
 28116  1  0  0  0
 29117  1  0  0  0
 29118  1  0  0  0
 33 34  1  0  0  0
 33 66  1  0  0  0
 33 70  2  0  0  0
 34 36  1  0  0  0
 34 59  1  0  0  0
 34119  1  0  0  0
 35 44  2  0  0  0
 35 45  1  0  0  0
 35 68  1  0  0  0
 36 56  1  0  0  0
 36120  1  0  0  0
 37 39  1  0  0  0
 37 47  1  0  0  0
 37 66  1  0  0  0
 37121  1  0  0  0
 38 43  2  0  0  0
 38 46  1  0  0  0
 38 47  1  0  0  0
 39 64  1  0  0  0
 39 67  2  0  0  0
 40 52  1  0  0  0
 40 53  2  0  0  0
 40 58  1  0  0  0
 41122  1  0  0  0
 41123  1  0  0  0
 41124  1  0  0  0
 41 48  1  0  0  0
 42 43  1  0  0  0
 42 66  1  0  0  0
 42125  1  0  0  0
 42126  1  0  0  0
 43 44  1  0  0  0
 44127  1  0  0  0
 45 46  2  0  0  0
 45128  1  0  0  0
 46129  1  0  0  0
 47130  1  0  0  0
 47131  1  0  0  0
 48 56  1  0  0  0
 48 65  1  0  0  0
 48132  1  0  0  0
 49 50  1  0  0  0
 49 53  1  0  0  0
 49 64  1  0  0  0
 49133  1  0  0  0
 50 51  1  0  0  0
 50134  1  0  0  0
 50135  1  0  0  0
 51 52  1  0  0  0
 51136  1  0  0  0
 51137  1  0  0  0
 52138  1  0  0  0
 52139  1  0  0  0
 53 54  1  0  0  0
 54 55  2  0  0  0
 54140  1  0  0  0
 55 57  1  0  0  0
 55141  1  0  0  0
 56 69  2  0  0  0
 57 58  2  0  0  0
 57142  1  0  0  0
 58143  1  0  0  0
 59 60  1  0  0  0
 59 61  1  0  0  0
 59 62  1  0  0  0
 60144  1  0  0  0
 60145  1  0  0  0
 60146  1  0  0  0
 61147  1  0  0  0
 61148  1  0  0  0
 61149  1  0  0  0
 62150  1  0  0  0
 62151  1  0  0  0
 62152  1  0  0  0
 63 65  1  0  0  0
 63153  1  0  0  0
 63154  1  0  0  0
 63155  1  0  0  0
 64156  1  0  0  0
 65157  1  0  0  0
 68 91  1  0  0  0
 71 72  2  0  0  0
 71 77  1  0  0  0
 71158  1  0  0  0
 72 73  1  0  0  0
 72 74  1  0  0  0
 73 75  2  0  0  0
 73 78  1  0  0  0
 74 76  2  0  0  0
 74 94  1  0  0  0
 75 79  1  0  0  0
 75 94  1  0  0  0
 76 86  1  0  0  0
 76 93  1  0  0  0
 77 93  2  0  0  0
 77 95  1  0  0  0
 78159  1  0  0  0
 78160  1  0  0  0
 78 96  1  0  0  0
 79 82  1  0  0  0
 79161  1  0  0  0
 79162  1  0  0  0
 80 83  1  0  0  0
 80 85  1  0  0  0
 80163  1  0  0  0
 80164  1  0  0  0
 81 84  1  0  0  0
 81 85  1  0  0  0
 81165  1  0  0  0
 81166  1  0  0  0
 82 96  1  0  0  0
 82167  1  0  0  0
 82168  1  0  0  0
 83 97  1  0  0  0
 83169  1  0  0  0
 83170  1  0  0  0
 84 97  1  0  0  0
 84171  1  0  0  0
 84172  1  0  0  0
 85 89  1  0  0  0
 85 98  1  0  0  0
 86173  1  0  0  0
 86174  1  0  0  0
 86175  1  0  0  0
 87176  1  0  0  0
 87177  1  0  0  0
 87178  1  0  0  0
 87 92  1  0  0  0
 88 92  1  0  0  0
 88179  1  0  0  0
 88180  1  0  0  0
 88181  1  0  0  0
 89 94  1  0  0  0
 89182  1  0  0  0
 89183  1  0  0  0
 90 91  1  0  0  0
 90184  1  0  0  0
 90185  1  0  0  0
 90 97  1  0  0  0
 91186  1  0  0  0
 91187  1  0  0  0
 92 96  1  0  0  0
 92188  1  0  0  0
 95189  1  0  0  0
 96190  1  0  0  0
 97191  1  0  0  0
 98192  1  0  0  0
M  CHG  2  96   1  97   1
M  ISO  4   1 100  68 101  91 101  95 100
M  END
> <chiral flag>
0

> <version>
0

> <s_m_source_file>
/data/baiqing/PycharmProjects/Reinvent-master-3.2/result/LINK_invent/BTK/process_docking_weight1_custom_sum_contain_oxygen_bond_distance_aromatic_linkinvent_7_9_3/rearranged_h_0159.sdf

> <i_m_source_file_index>
40

> <r_mmod_Potential_Energy-OPLS-2005>
-295.334503173828

> <r_mmod_Stretch_Energy-OPLS-2005>
42.0785179138184

> <r_mmod_Bend_Energy-OPLS-2005>
132.808715820312

> <r_mmod_Torsional_Energy-OPLS-2005>
336.348510742188

> <r_mmod_Improper_Torsional_Energy-OPLS-2005>
7.14011240005493

> <r_mmod_Van_der_Waal_Energy-OPLS-2005>
176.453750610352

> <r_mmod_Electrostatic_Energy-OPLS-2005>
-193.494216918945

> <r_mmod_Solvation_Energy-OPLS-2005>
-807.578247070312

> <b_mmod_Minimization_Converged-OPLS-2005>
0

> <r_mmod_RMS_Derivative-OPLS-2005>
2.84525203704834

$$$$
40
                    3D
 Structure written by MMmdl.
176186  0  0  1  0            999 V2000
  -30.7166  -14.4133   20.6330 C   0  0  0  0  0  0
  -30.4256  -12.2897   19.4047 C   0  0  0  0  0  0
  -29.4922  -12.5193   18.1984 C   0  0  0  0  0  0
  -28.0133  -12.3794   18.6101 C   0  0  0  0  0  0
  -27.6681  -13.1988   19.8815 C   0  0  2  0  0  0
  -28.7058  -12.9300   20.9943 C   0  0  0  0  0  0
  -25.2619  -13.8143   20.5677 C   0  0  0  0  0  0
  -24.1852  -13.0436   20.9160 C   0  0  0  0  0  0
  -24.6387  -11.6898   20.8715 C   0  0  0  0  0  0
  -23.9047  -10.4291   21.0391 C   0  0  0  0  0  0
  -24.3601   -9.4212   21.9175 C   0  0  0  0  0  0
  -23.6280   -8.2246   22.0751 C   0  0  0  0  0  0
  -22.4263   -8.0278   21.3545 C   0  0  0  0  0  0
  -21.9893   -9.0250   20.4649 C   0  0  0  0  0  0
  -22.7218  -10.2131   20.3049 C   0  0  0  0  0  0
  -21.6854   -6.0729   22.5278 C   0  0  0  0  0  0
  -21.4015   -6.5633   23.8210 C   0  0  0  0  0  0
  -21.3659   -5.6788   24.9174 C   0  0  0  0  0  0
  -21.6043   -4.3050   24.7225 C   0  0  0  0  0  0
  -21.8820   -3.8142   23.4346 C   0  0  0  0  0  0
  -21.9193   -4.6959   22.3402 C   0  0  0  0  0  0
  -22.7877  -13.5248   21.1825 C   0  0  0  0  0  0
  -22.1663   -4.2144   21.0979 F   0  0  0  0  0  0
  -21.5626   -3.4533   25.7738 F   0  0  0  0  0  0
  -30.0475  -13.2408   20.4607 N   0  0  0  0  0  0
  -26.3052  -12.9298   20.3377 N   0  0  0  0  0  0
  -25.9311  -11.6465   20.5745 N   0  0  0  0  0  0
  -22.0509  -12.8255   22.0386 N   0  0  0  0  0  0
  -25.4367  -15.1859   20.4103 N   0  0  0  0  0  0
  -31.7933  -14.6527   20.0723 O   0  0  0  0  0  0
  -21.6634   -6.8871   21.4241 O   0  0  0  0  0  0
  -22.3573  -14.5559   20.6677 O   0  0  0  0  0  0
  -24.6093  -31.8707   23.2120 C   0  0  0  0  0  0
  -25.9004  -32.4839   23.8407 C   0  0  1  0  0  0
  -27.2558  -27.4736   20.1074 C   0  0  0  0  0  0
  -25.5875  -33.8635   24.2346 N   0  0  0  0  0  0
  -23.3962  -30.4919   21.5508 C   0  0  2  0  0  0
  -24.8486  -28.9625   20.1153 C   0  0  0  0  0  0
  -22.7383  -29.4665   22.5010 C   0  0  0  0  0  0
  -18.0264  -28.1375   22.8500 C   0  0  0  0  0  0
  -24.1484  -36.7326   23.2640 C   0  0  0  0  0  0
  -25.9173  -30.8552   21.3539 C   0  0  0  0  0  0
  -26.0020  -29.4903   20.7071 C   0  0  0  0  0  0
  -27.2072  -28.7600   20.6985 C   0  0  0  0  0  0
  -26.0873  -26.9595   19.5085 C   0  0  0  0  0  0
  -24.8845  -27.6936   19.5104 C   0  0  0  0  0  0
  -23.6038  -29.8192   20.1660 C   0  0  0  0  0  0
  -25.4102  -36.3125   24.0344 C   0  0  1  0  0  0
  -20.5850  -28.3655   23.1336 C   0  0  2  0  0  0
  -20.6752  -26.9396   22.5427 C   0  0  0  0  0  0
  -19.5734  -26.6386   21.5217 C   0  0  0  0  0  0
  -18.1911  -26.7924   22.1627 C   0  0  0  0  0  0
  -19.1512  -28.8832   23.2916 C   0  0  0  0  0  0
  -18.9445  -30.1443   23.8920 C   0  0  0  0  0  0
  -17.6450  -30.6586   24.0569 C   0  0  0  0  0  0
  -25.9024  -34.9486   23.5146 C   0  0  0  0  0  0
  -16.5341  -29.9092   23.6324 C   0  0  0  0  0  0
  -16.7256  -28.6506   23.0349 C   0  0  0  0  0  0
  -26.4461  -31.6597   25.0708 C   0  0  0  0  0  0
  -25.3753  -31.3682   26.1476 C   0  0  0  0  0  0
  -27.0295  -30.3054   24.6031 C   0  0  0  0  0  0
  -27.6048  -32.4309   25.7461 C   0  0  0  0  0  0
  -27.5581  -37.1813   24.8465 C   0  0  0  0  0  0
  -21.4116  -29.3028   22.3749 N   0  0  0  0  0  0
  -26.4293  -37.3802   23.9410 N   0  0  0  0  0  0
  -24.6589  -31.0853   22.0990 N   0  0  0  0  0  0
  -23.4173  -28.8215   23.3042 O   0  0  0  0  0  0
  -28.3719  -26.6631   20.0843 O   0  0  0  0  0  0
  -26.5589  -34.8930   22.4708 O   0  0  0  0  0  0
  -23.5300  -32.1429   23.7547 O   0  0  0  0  0  0
  -29.1292  -18.6989   22.4956 C   0  0  0  0  0  0
  -29.2153  -17.2939   22.3838 C   0  0  0  0  0  0
  -31.9730  -24.8461   22.8774 C   0  0  0  0  0  0
  -30.0074  -19.4402   21.6953 C   0  0  0  0  0  0
  -31.1395  -25.9044   22.4787 C   0  0  0  0  0  0
  -30.6336  -24.7066   20.4007 C   0  0  0  0  0  0
  -30.4323  -25.8391   21.2490 C   0  0  0  0  0  0
  -31.4249  -23.6021   20.8483 C   0  0  0  0  0  0
  -32.1232  -23.6910   22.0818 C   0  0  0  0  0  0
  -30.8976  -18.7924   20.8676 C   0  0  0  0  0  0
  -30.1503  -16.6919   21.5027 C   0  0  0  0  0  0
  -30.1722  -20.9352   21.5813 C   0  0  0  0  0  0
  -31.7458  -19.7883   20.1218 C   0  0  0  0  0  0
  -31.0475  -27.1114   23.4043 C   0  0  0  0  0  0
  -30.0437  -24.6974   18.9899 C   0  0  0  0  0  0
  -32.9098  -22.3818   19.2139 C   0  0  0  0  0  0
  -33.7062  -22.7451   23.6443 C   0  0  0  0  0  0
  -29.5044  -27.0144   20.8790 C   0  0  0  0  0  0
  -31.5809  -22.3203   19.9979 C   0  0  1  0  0  0
  -30.9935  -17.4514   20.7504 N   0  0  0  0  0  0
  -30.0994  -15.2761   21.4581 N   0  0  0  0  0  0
  -31.4473  -21.0783   20.8146 N   0  3  1  0  0  0
  -32.9313  -22.6323   22.4537 O   0  0  0  0  0  0
  -31.4690  -12.3938   19.1012 H   0  0  0  0  0  0
  -30.3276  -11.2675   19.7731 H   0  0  0  0  0  0
  -29.7260  -11.8116   17.4021 H   0  0  0  0  0  0
  -29.6651  -13.5136   17.7829 H   0  0  0  0  0  0
  -27.8163  -11.3215   18.7878 H   0  0  0  0  0  0
  -27.3633  -12.6743   17.7854 H   0  0  0  0  0  0
  -27.7283  -14.2538   19.6126 H   0  0  0  0  0  0
  -28.6730  -11.8798   21.2882 H   0  0  0  0  0  0
  -28.4516  -13.4802   21.9005 H   0  0  0  0  0  0
  -25.2746   -9.5690   22.4748 H   0  0  0  0  0  0
  -23.9992   -7.4639   22.7471 H   0  0  0  0  0  0
  -21.0823   -8.8766   19.8959 H   0  0  0  0  0  0
  -22.3672  -10.9665   19.6155 H   0  0  0  0  0  0
  -21.2010   -7.6141   23.9712 H   0  0  0  0  0  0
  -21.1479   -6.0517   25.9075 H   0  0  0  0  0  0
  -22.0599   -2.7605   23.2847 H   0  0  0  0  0  0
  -22.4105  -11.9909   22.4778 H   0  0  0  0  0  0
  -21.1131  -13.1303   22.2584 H   0  0  0  0  0  0
  -24.6736  -15.8445   20.5208 H   0  0  0  0  0  0
  -26.2953  -15.6241   20.1009 H   0  0  0  0  0  0
  -26.7082  -32.5592   23.1189 H   0  0  0  0  0  0
  -25.0025  -33.9803   25.0491 H   0  0  0  0  0  0
  -22.6824  -31.3064   21.4110 H   0  0  0  0  0  0
  -23.3737  -35.9670   23.3323 H   0  0  0  0  0  0
  -24.3577  -36.8919   22.2051 H   0  0  0  0  0  0
  -23.7245  -37.6543   23.6637 H   0  0  0  0  0  0
  -26.0144  -31.6201   20.5822 H   0  0  0  0  0  0
  -26.8095  -30.9197   21.9644 H   0  0  0  0  0  0
  -28.0830  -29.2039   21.1487 H   0  0  0  0  0  0
  -26.1095  -25.9801   19.0514 H   0  0  0  0  0  0
  -23.9984  -27.2779   19.0509 H   0  0  0  0  0  0
  -23.7022  -30.5914   19.4022 H   0  0  0  0  0  0
  -22.7321  -29.2298   19.8760 H   0  0  0  0  0  0
  -25.1273  -36.1998   25.0837 H   0  0  0  0  0  0
  -20.9946  -28.3218   24.1455 H   0  0  0  0  0  0
  -20.5662  -26.2259   23.3609 H   0  0  0  0  0  0
  -21.6625  -26.7452   22.1217 H   0  0  0  0  0  0
  -19.6897  -25.6303   21.1232 H   0  0  0  0  0  0
  -19.6671  -27.3209   20.6757 H   0  0  0  0  0  0
  -17.4185  -26.6685   21.4025 H   0  0  0  0  0  0
  -18.0310  -26.0056   22.9012 H   0  0  0  0  0  0
  -19.7923  -30.7251   24.2296 H   0  0  0  0  0  0
  -17.5008  -31.6269   24.5167 H   0  0  0  0  0  0
  -15.5344  -30.3006   23.7632 H   0  0  0  0  0  0
  -15.8653  -28.0835   22.7055 H   0  0  0  0  0  0
  -24.5899  -30.7062   25.7811 H   0  0  0  0  0  0
  -24.8977  -32.2836   26.4979 H   0  0  0  0  0  0
  -25.8126  -30.8802   27.0197 H   0  0  0  0  0  0
  -26.2821  -29.6814   24.1119 H   0  0  0  0  0  0
  -27.4132  -29.7280   25.4451 H   0  0  0  0  0  0
  -27.8619  -30.4397   23.9120 H   0  0  0  0  0  0
  -27.2670  -33.3586   26.2091 H   0  0  0  0  0  0
  -28.3824  -32.6910   25.0269 H   0  0  0  0  0  0
  -28.0755  -31.8406   26.5331 H   0  0  0  0  0  0
  -28.2611  -38.0098   24.7507 H   0  0  0  0  0  0
  -28.1063  -36.2632   24.6294 H   0  0  0  0  0  0
  -27.2303  -37.1476   25.8869 H   0  0  0  0  0  0
  -20.9268  -29.8752   21.6978 H   0  0  0  0  0  0
  -26.0190  -38.2887   24.1399 H   0  0  0  0  0  0
  -28.4207  -19.1736   23.1598 H   0  0  0  0  0  0
  -28.5460  -16.6866   22.9780 H   0  0  0  0  0  0
  -32.4902  -24.9420   23.8203 H   0  0  0  0  0  0
  -30.2356  -21.4122   22.5603 H   0  0  0  0  0  0
  -29.3252  -21.3568   21.0378 H   0  0  0  0  0  0
  -31.4310  -19.8079   19.0782 H   0  0  0  0  0  0
  -32.8052  -19.5381   20.1738 H   0  0  0  0  0  0
  -31.8316  -27.0969   24.1618 H   0  0  0  0  0  0
  -30.0893  -27.1257   23.9242 H   0  0  0  0  0  0
  -31.1592  -28.0442   22.8506 H   0  0  0  0  0  0
  -29.9788  -25.7031   18.5767 H   0  0  0  0  0  0
  -29.0468  -24.2556   18.9874 H   0  0  0  0  0  0
  -30.6671  -24.1610   18.2769 H   0  0  0  0  0  0
  -32.9685  -23.3015   18.6317 H   0  0  0  0  0  0
  -33.0175  -21.5584   18.5087 H   0  0  0  0  0  0
  -33.7720  -22.3681   19.8809 H   0  0  0  0  0  0
  -34.3199  -21.8522   23.7634 H   0  0  0  0  0  0
  -33.0716  -22.8251   24.5281 H   0  0  0  0  0  0
  -34.3815  -23.6012   23.6056 H   0  0  0  0  0  0
  -30.0848  -27.7883   20.3750 H   0  0  0  0  0  0
  -29.1316  -27.4339   21.8110 H   0  0  0  0  0  0
  -30.7684  -22.2534   19.2758 H   0  0  0  0  0  0
  -29.3279  -14.8669   21.9584 H   0  0  0  0  0  0
  -32.1554  -21.1663   21.5308 H   0  0  0  0  0  0
  1 25  1  0  0  0
  1 30  2  0  0  0
  1 91  1  0  0  0
  2  3  1  0  0  0
  2 25  1  0  0  0
  2 94  1  0  0  0
  2 95  1  0  0  0
  3  4  1  0  0  0
  3 96  1  0  0  0
  3 97  1  0  0  0
  4  5  1  0  0  0
  4 98  1  0  0  0
  4 99  1  0  0  0
  5  6  1  0  0  0
  5 26  1  0  0  0
  5100  1  0  0  0
  6 25  1  0  0  0
  6101  1  0  0  0
  6102  1  0  0  0
  7  8  2  0  0  0
  7 26  1  0  0  0
  7 29  1  0  0  0
  8  9  1  0  0  0
  8 22  1  0  0  0
  9 10  1  0  0  0
  9 27  2  0  0  0
 10 11  2  0  0  0
 10 15  1  0  0  0
 11 12  1  0  0  0
 11103  1  0  0  0
 12 13  2  0  0  0
 12104  1  0  0  0
 13 14  1  0  0  0
 13 31  1  0  0  0
 14 15  2  0  0  0
 14105  1  0  0  0
 15106  1  0  0  0
 16 17  2  0  0  0
 16 21  1  0  0  0
 16 31  1  0  0  0
 17 18  1  0  0  0
 17107  1  0  0  0
 18 19  2  0  0  0
 18108  1  0  0  0
 19 20  1  0  0  0
 19 24  1  0  0  0
 20 21  2  0  0  0
 20109  1  0  0  0
 21 23  1  0  0  0
 22 28  1  0  0  0
 22 32  2  0  0  0
 26 27  1  0  0  0
 28110  1  0  0  0
 28111  1  0  0  0
 29112  1  0  0  0
 29113  1  0  0  0
 33 34  1  0  0  0
 33 66  1  0  0  0
 33 70  2  0  0  0
 34 36  1  0  0  0
 34 59  1  0  0  0
 34114  1  0  0  0
 35 44  2  0  0  0
 35 45  1  0  0  0
 35 68  1  0  0  0
 36 56  1  0  0  0
 36115  1  0  0  0
 37 39  1  0  0  0
 37 47  1  0  0  0
 37 66  1  0  0  0
 37116  1  0  0  0
 38 43  2  0  0  0
 38 46  1  0  0  0
 38 47  1  0  0  0
 39 64  1  0  0  0
 39 67  2  0  0  0
 40 52  1  0  0  0
 40 53  2  0  0  0
 40 58  1  0  0  0
 41117  1  0  0  0
 41118  1  0  0  0
 41119  1  0  0  0
 41 48  1  0  0  0
 42 43  1  0  0  0
 42 66  1  0  0  0
 42120  1  0  0  0
 42121  1  0  0  0
 43 44  1  0  0  0
 44122  1  0  0  0
 45 46  2  0  0  0
 45123  1  0  0  0
 46124  1  0  0  0
 47125  1  0  0  0
 47126  1  0  0  0
 48 56  1  0  0  0
 48 65  1  0  0  0
 48127  1  0  0  0
 49 50  1  0  0  0
 49 53  1  0  0  0
 49 64  1  0  0  0
 49128  1  0  0  0
 50 51  1  0  0  0
 50129  1  0  0  0
 50130  1  0  0  0
 51 52  1  0  0  0
 51131  1  0  0  0
 51132  1  0  0  0
 52133  1  0  0  0
 52134  1  0  0  0
 53 54  1  0  0  0
 54 55  2  0  0  0
 54135  1  0  0  0
 55 57  1  0  0  0
 55136  1  0  0  0
 56 69  2  0  0  0
 57 58  2  0  0  0
 57137  1  0  0  0
 58138  1  0  0  0
 59 60  1  0  0  0
 59 61  1  0  0  0
 59 62  1  0  0  0
 60139  1  0  0  0
 60140  1  0  0  0
 60141  1  0  0  0
 61142  1  0  0  0
 61143  1  0  0  0
 61144  1  0  0  0
 62145  1  0  0  0
 62146  1  0  0  0
 62147  1  0  0  0
 63 65  1  0  0  0
 63148  1  0  0  0
 63149  1  0  0  0
 63150  1  0  0  0
 64151  1  0  0  0
 65152  1  0  0  0
 68 88  1  0  0  0
 71 72  2  0  0  0
 71 74  1  0  0  0
 71153  1  0  0  0
 72 81  1  0  0  0
 72154  1  0  0  0
 73 75  2  0  0  0
 73 79  1  0  0  0
 73155  1  0  0  0
 74 80  2  0  0  0
 74 82  1  0  0  0
 75 77  1  0  0  0
 75 84  1  0  0  0
 76 77  2  0  0  0
 76 78  1  0  0  0
 76 85  1  0  0  0
 77 88  1  0  0  0
 78 79  2  0  0  0
 78 89  1  0  0  0
 79 93  1  0  0  0
 80 83  1  0  0  0
 80 90  1  0  0  0
 81 90  2  0  0  0
 81 91  1  0  0  0
 82156  1  0  0  0
 82157  1  0  0  0
 82 92  1  0  0  0
 83 92  1  0  0  0
 83158  1  0  0  0
 83159  1  0  0  0
 84160  1  0  0  0
 84161  1  0  0  0
 84162  1  0  0  0
 85163  1  0  0  0
 85164  1  0  0  0
 85165  1  0  0  0
 86166  1  0  0  0
 86167  1  0  0  0
 86168  1  0  0  0
 86 89  1  0  0  0
 87 93  1  0  0  0
 87169  1  0  0  0
 87170  1  0  0  0
 87171  1  0  0  0
 88172  1  0  0  0
 88173  1  0  0  0
 89 92  1  0  0  0
 89174  1  0  0  0
 91175  1  0  0  0
 92176  1  0  0  0
M  CHG  1  92   1
M  ISO  4   1 100  68 101  88 101  91 100
M  END
> <chiral flag>
0

> <version>
0

> <s_m_source_file>
/data/baiqing/PycharmProjects/Reinvent-master-3.2/result/LINK_invent/BTK/process_docking_weight1_custom_sum_contain_oxygen_bond_distance_aromatic_linkinvent_7_9_3/rearranged_h_0159.sdf

> <i_m_source_file_index>
41

> <r_mmod_Potential_Energy-OPLS-2005>
-301.533782958984

> <r_mmod_Stretch_Energy-OPLS-2005>
46.5330963134766

> <r_mmod_Bend_Energy-OPLS-2005>
165.707824707031

> <r_mmod_Torsional_Energy-OPLS-2005>
214.263076782227

> <r_mmod_Improper_Torsional_Energy-OPLS-2005>
2.77618956565857

> <r_mmod_Van_der_Waal_Energy-OPLS-2005>
201.1123046875

> <r_mmod_Electrostatic_Energy-OPLS-2005>
-515.3115234375

> <r_mmod_Solvation_Energy-OPLS-2005>
-424.088806152344

> <b_mmod_Minimization_Converged-OPLS-2005>
0

> <r_mmod_RMS_Derivative-OPLS-2005>
0.604384958744049

$$$$
41
                    3D
 Structure written by MMmdl.
180189  0  0  1  0            999 V2000
  -30.6933  -14.6371   20.4887 C   0  0  0  0  0  0
  -30.4132  -12.3991   19.4502 C   0  0  0  0  0  0
  -29.4937  -12.5013   18.2169 C   0  0  0  0  0  0
  -28.0185  -12.3471   18.6335 C   0  0  0  0  0  0
  -27.6426  -13.2304   19.8546 C   0  0  2  0  0  0
  -28.6920  -13.1199   20.9793 C   0  0  0  0  0  0
  -25.2521  -13.8209   20.5711 C   0  0  0  0  0  0
  -24.1804  -13.0452   20.9199 C   0  0  0  0  0  0
  -24.6394  -11.6926   20.8755 C   0  0  0  0  0  0
  -23.9073  -10.4303   21.0412 C   0  0  0  0  0  0
  -24.3626   -9.4215   21.9187 C   0  0  0  0  0  0
  -23.6298   -8.2249   22.0758 C   0  0  0  0  0  0
  -22.4283   -8.0286   21.3545 C   0  0  0  0  0  0
  -21.9921   -9.0262   20.4648 C   0  0  0  0  0  0
  -22.7250  -10.2138   20.3058 C   0  0  0  0  0  0
  -21.6853   -6.0738   22.5277 C   0  0  0  0  0  0
  -21.4019   -6.5642   23.8210 C   0  0  0  0  0  0
  -21.3654   -5.6795   24.9170 C   0  0  0  0  0  0
  -21.6045   -4.3059   24.7225 C   0  0  0  0  0  0
  -21.8818   -3.8149   23.4348 C   0  0  0  0  0  0
  -21.9196   -4.6965   22.3403 C   0  0  0  0  0  0
  -22.7825  -13.5231   21.1860 C   0  0  0  0  0  0
  -22.1662   -4.2149   21.0979 F   0  0  0  0  0  0
  -21.5627   -3.4542   25.7738 F   0  0  0  0  0  0
  -29.9898  -13.4619   20.3879 N   0  0  0  0  0  0
  -26.2949  -12.9413   20.3328 N   0  0  0  0  0  0
  -25.9327  -11.6556   20.5782 N   0  0  0  0  0  0
  -22.0479  -12.8205   22.0410 N   0  0  0  0  0  0
  -25.4247  -15.1928   20.4139 N   0  0  0  0  0  0
  -31.8979  -14.6314   20.2135 O   0  0  0  0  0  0
  -21.6646   -6.8884   21.4240 O   0  0  0  0  0  0
  -22.3502  -14.5536   20.6713 O   0  0  0  0  0  0
  -24.6269  -31.8611   23.2041 C   0  0  0  0  0  0
  -25.9115  -32.4780   23.8366 C   0  0  1  0  0  0
  -27.2121  -27.3139   20.1127 C   0  0  0  0  0  0
  -25.5925  -33.8581   24.2296 N   0  0  0  0  0  0
  -23.4199  -30.4880   21.5479 C   0  0  2  0  0  0
  -24.8630  -28.9493   20.1095 C   0  0  0  0  0  0
  -22.7477  -29.4631   22.4935 C   0  0  0  0  0  0
  -18.0280  -28.1380   22.8477 C   0  0  0  0  0  0
  -24.1488  -36.7294   23.2643 C   0  0  0  0  0  0
  -25.9639  -30.7900   21.3768 C   0  0  0  0  0  0
  -26.0356  -29.4196   20.7150 C   0  0  0  0  0  0
  -27.2139  -28.6136   20.7083 C   0  0  0  0  0  0
  -26.0147  -26.9055   19.4763 C   0  0  0  0  0  0
  -24.8555  -27.6973   19.4811 C   0  0  0  0  0  0
  -23.6333  -29.8307   20.1616 C   0  0  0  0  0  0
  -25.4112  -36.3097   24.0344 C   0  0  1  0  0  0
  -20.5885  -28.3684   23.1270 C   0  0  2  0  0  0
  -20.6771  -26.9400   22.5412 C   0  0  0  0  0  0
  -19.5747  -26.6376   21.5212 C   0  0  0  0  0  0
  -18.1917  -26.7922   22.1618 C   0  0  0  0  0  0
  -19.1537  -28.8848   23.2861 C   0  0  0  0  0  0
  -18.9471  -30.1444   23.8887 C   0  0  0  0  0  0
  -17.6474  -30.6579   24.0562 C   0  0  0  0  0  0
  -25.9048  -34.9460   23.5117 C   0  0  0  0  0  0
  -16.5359  -29.9079   23.6331 C   0  0  0  0  0  0
  -16.7273  -28.6502   23.0347 C   0  0  0  0  0  0
  -26.4495  -31.6581   25.0734 C   0  0  0  0  0  0
  -25.3733  -31.3714   26.1463 C   0  0  0  0  0  0
  -27.0340  -30.3009   24.6168 C   0  0  0  0  0  0
  -27.6047  -32.4325   25.7501 C   0  0  0  0  0  0
  -27.5586  -37.1790   24.8463 C   0  0  0  0  0  0
  -21.4187  -29.3049   22.3674 N   0  0  0  0  0  0
  -26.4291  -37.3792   23.9422 N   0  0  0  0  0  0
  -24.6894  -31.0623   22.0994 N   0  0  0  0  0  0
  -23.4200  -28.8156   23.2996 O   0  0  0  0  0  0
  -28.3138  -26.4414   20.1718 O   0  0  0  0  0  0
  -26.5618  -34.8919   22.4687 O   0  0  0  0  0  0
  -23.5435  -32.1420   23.7365 O   0  0  0  0  0  0
  -28.5926  -23.4903   22.7951 C   0  0  0  0  0  0
  -28.1616  -22.7247   23.9072 C   0  0  0  0  0  0
  -28.7657  -22.8695   21.5103 C   0  0  0  0  0  0
  -27.9716  -21.3463   23.7390 C   0  0  0  0  0  0
  -28.5812  -21.4118   21.4706 C   0  0  0  0  0  0
  -29.8489  -18.2144   19.3136 C   0  0  0  0  0  0
  -28.5885  -17.8127   21.3442 C   0  0  0  0  0  0
  -30.6679  -16.9144   19.5921 C   0  0  0  0  0  0
  -29.4190  -16.5025   21.6200 C   0  0  0  0  0  0
  -29.3620  -18.9479   20.5890 C   0  0  0  0  0  0
  -28.8363  -24.9862   23.0411 C   0  0  0  0  0  0
  -27.8965  -23.3746   25.2664 C   0  0  0  0  0  0
  -27.5192  -20.4251   24.8586 C   0  0  0  0  0  0
  -26.4336  -21.3585   19.2306 C   0  0  0  0  0  0
  -29.6926  -23.2516   19.0509 C   0  0  0  0  0  0
  -27.2079  -20.1169   19.7042 C   0  0  0  0  0  0
  -28.0372  -24.9921   20.0114 C   0  0  0  0  0  0
  -29.1315  -23.8727   20.3378 C   0  0  1  0  0  0
  -28.6259  -20.3648   20.2903 C   0  0  1  0  0  0
  -28.1777  -20.7428   22.5691 N   0  0  0  0  0  0
  -30.0216  -15.8543   20.4261 N   0  0  0  0  0  0
  -31.4572  -12.4870   19.1449 H   0  0  0  0  0  0
  -30.3262  -11.4172   19.9178 H   0  0  0  0  0  0
  -29.7575  -11.7407   17.4809 H   0  0  0  0  0  0
  -29.6383  -13.4660   17.7281 H   0  0  0  0  0  0
  -27.8548  -11.2962   18.8739 H   0  0  0  0  0  0
  -27.3624  -12.5697   17.7915 H   0  0  0  0  0  0
  -27.6507  -14.2618   19.5016 H   0  0  0  0  0  0
  -28.7159  -12.1077   21.3850 H   0  0  0  0  0  0
  -28.4395  -13.7626   21.8182 H   0  0  0  0  0  0
  -25.2767   -9.5687   22.4765 H   0  0  0  0  0  0
  -24.0003   -7.4642   22.7481 H   0  0  0  0  0  0
  -21.0853   -8.8782   19.8951 H   0  0  0  0  0  0
  -22.3712  -10.9680   19.6170 H   0  0  0  0  0  0
  -21.2015   -7.6151   23.9712 H   0  0  0  0  0  0
  -21.1474   -6.0526   25.9070 H   0  0  0  0  0  0
  -22.0604   -2.7614   23.2848 H   0  0  0  0  0  0
  -22.4102  -11.9853   22.4767 H   0  0  0  0  0  0
  -21.1101  -13.1225   22.2641 H   0  0  0  0  0  0
  -24.6668  -15.8556   20.5338 H   0  0  0  0  0  0
  -26.2912  -15.6285   20.1235 H   0  0  0  0  0  0
  -26.7174  -32.5453   23.1105 H   0  0  0  0  0  0
  -25.0070  -33.9721   25.0440 H   0  0  0  0  0  0
  -22.7148  -31.3101   21.4085 H   0  0  0  0  0  0
  -23.3763  -35.9611   23.3295 H   0  0  0  0  0  0
  -24.3588  -36.8935   22.2064 H   0  0  0  0  0  0
  -23.7218  -37.6482   23.6669 H   0  0  0  0  0  0
  -26.0991  -31.5559   20.6120 H   0  0  0  0  0  0
  -26.8436  -30.8359   22.0072 H   0  0  0  0  0  0
  -28.1099  -28.9673   21.1993 H   0  0  0  0  0  0
  -25.9316  -25.9537   18.9753 H   0  0  0  0  0  0
  -23.9585  -27.3325   18.9992 H   0  0  0  0  0  0
  -23.7542  -30.6127   19.4111 H   0  0  0  0  0  0
  -22.7511  -29.2651   19.8570 H   0  0  0  0  0  0
  -25.1275  -36.1956   25.0837 H   0  0  0  0  0  0
  -20.9974  -28.3288   24.1396 H   0  0  0  0  0  0
  -20.5682  -26.2297   23.3623 H   0  0  0  0  0  0
  -21.6631  -26.7432   22.1195 H   0  0  0  0  0  0
  -19.6918  -25.6293   21.1231 H   0  0  0  0  0  0
  -19.6690  -27.3202   20.6753 H   0  0  0  0  0  0
  -17.4191  -26.6678   21.4010 H   0  0  0  0  0  0
  -18.0295  -26.0062   22.9015 H   0  0  0  0  0  0
  -19.7963  -30.7237   24.2261 H   0  0  0  0  0  0
  -17.5045  -31.6262   24.5161 H   0  0  0  0  0  0
  -15.5361  -30.2981   23.7667 H   0  0  0  0  0  0
  -15.8673  -28.0822   22.7061 H   0  0  0  0  0  0
  -24.5924  -30.7030   25.7816 H   0  0  0  0  0  0
  -24.8883  -32.2865   26.4869 H   0  0  0  0  0  0
  -25.8069  -30.8931   27.0253 H   0  0  0  0  0  0
  -26.2917  -29.6745   24.1202 H   0  0  0  0  0  0
  -27.4072  -29.7259   25.4651 H   0  0  0  0  0  0
  -27.8768  -30.4307   23.9377 H   0  0  0  0  0  0
  -27.2660  -33.3643   26.2039 H   0  0  0  0  0  0
  -28.3867  -32.6861   25.0335 H   0  0  0  0  0  0
  -28.0687  -31.8472   26.5442 H   0  0  0  0  0  0
  -28.2569  -38.0118   24.7538 H   0  0  0  0  0  0
  -28.1102  -36.2638   24.6238 H   0  0  0  0  0  0
  -27.2293  -37.1395   25.8862 H   0  0  0  0  0  0
  -20.9362  -29.8824   21.6933 H   0  0  0  0  0  0
  -26.0174  -38.2865   24.1443 H   0  0  0  0  0  0
  -28.9972  -17.9561   18.6834 H   0  0  0  0  0  0
  -30.4614  -18.8930   18.7179 H   0  0  0  0  0  0
  -28.2213  -18.1821   22.3005 H   0  0  0  0  0  0
  -27.6971  -17.5401   20.7784 H   0  0  0  0  0  0
  -31.6066  -17.2029   20.0692 H   0  0  0  0  0  0
  -30.9452  -16.4853   18.6268 H   0  0  0  0  0  0
  -28.7788  -15.8047   22.1530 H   0  0  0  0  0  0
  -30.2281  -16.7380   22.3135 H   0  0  0  0  0  0
  -30.2510  -19.1883   21.1740 H   0  0  0  0  0  0
  -27.8914  -25.5294   23.0188 H   0  0  0  0  0  0
  -29.5187  -25.4777   22.3550 H   0  0  0  0  0  0
  -29.2949  -25.1518   24.0147 H   0  0  0  0  0  0
  -27.3901  -24.3343   25.1592 H   0  0  0  0  0  0
  -28.8350  -23.5376   25.7975 H   0  0  0  0  0  0
  -27.2518  -22.7731   25.9052 H   0  0  0  0  0  0
  -26.4656  -20.5911   25.0848 H   0  0  0  0  0  0
  -28.1018  -20.5923   25.7643 H   0  0  0  0  0  0
  -27.6401  -19.3758   24.5863 H   0  0  0  0  0  0
  -25.4360  -21.0754   18.8936 H   0  0  0  0  0  0
  -26.9237  -21.8447   18.3897 H   0  0  0  0  0  0
  -26.3095  -22.0913   20.0275 H   0  0  0  0  0  0
  -30.5389  -22.5962   19.2587 H   0  0  0  0  0  0
  -30.0644  -24.0330   18.3866 H   0  0  0  0  0  0
  -28.9419  -22.7044   18.4880 H   0  0  0  0  0  0
  -27.2727  -19.4209   18.8695 H   0  0  0  0  0  0
  -26.6005  -19.6204   20.4612 H   0  0  0  0  0  0
  -27.1479  -24.7497   20.5953 H   0  0  0  0  0  0
  -27.7462  -24.8418   18.9713 H   0  0  0  0  0  0
  -30.0156  -24.3973   20.6920 H   0  0  0  0  0  0
  -29.2253  -20.8057   19.5053 H   0  0  0  0  0  0
  1 25  1  0  0  0
  1 30  2  0  0  0
  1 91  1  0  0  0
  2  3  1  0  0  0
  2 25  1  0  0  0
  2 92  1  0  0  0
  2 93  1  0  0  0
  3  4  1  0  0  0
  3 94  1  0  0  0
  3 95  1  0  0  0
  4  5  1  0  0  0
  4 96  1  0  0  0
  4 97  1  0  0  0
  5  6  1  0  0  0
  5 26  1  0  0  0
  5 98  1  0  0  0
  6 25  1  0  0  0
  6 99  1  0  0  0
  6100  1  0  0  0
  7  8  2  0  0  0
  7 26  1  0  0  0
  7 29  1  0  0  0
  8  9  1  0  0  0
  8 22  1  0  0  0
  9 10  1  0  0  0
  9 27  2  0  0  0
 10 11  2  0  0  0
 10 15  1  0  0  0
 11 12  1  0  0  0
 11101  1  0  0  0
 12 13  2  0  0  0
 12102  1  0  0  0
 13 14  1  0  0  0
 13 31  1  0  0  0
 14 15  2  0  0  0
 14103  1  0  0  0
 15104  1  0  0  0
 16 17  2  0  0  0
 16 21  1  0  0  0
 16 31  1  0  0  0
 17 18  1  0  0  0
 17105  1  0  0  0
 18 19  2  0  0  0
 18106  1  0  0  0
 19 20  1  0  0  0
 19 24  1  0  0  0
 20 21  2  0  0  0
 20107  1  0  0  0
 21 23  1  0  0  0
 22 28  1  0  0  0
 22 32  2  0  0  0
 26 27  1  0  0  0
 28108  1  0  0  0
 28109  1  0  0  0
 29110  1  0  0  0
 29111  1  0  0  0
 33 34  1  0  0  0
 33 66  1  0  0  0
 33 70  2  0  0  0
 34 36  1  0  0  0
 34 59  1  0  0  0
 34112  1  0  0  0
 35 44  2  0  0  0
 35 45  1  0  0  0
 35 68  1  0  0  0
 36 56  1  0  0  0
 36113  1  0  0  0
 37 39  1  0  0  0
 37 47  1  0  0  0
 37 66  1  0  0  0
 37114  1  0  0  0
 38 43  2  0  0  0
 38 46  1  0  0  0
 38 47  1  0  0  0
 39 64  1  0  0  0
 39 67  2  0  0  0
 40 52  1  0  0  0
 40 53  2  0  0  0
 40 58  1  0  0  0
 41115  1  0  0  0
 41116  1  0  0  0
 41117  1  0  0  0
 41 48  1  0  0  0
 42 43  1  0  0  0
 42 66  1  0  0  0
 42118  1  0  0  0
 42119  1  0  0  0
 43 44  1  0  0  0
 44120  1  0  0  0
 45 46  2  0  0  0
 45121  1  0  0  0
 46122  1  0  0  0
 47123  1  0  0  0
 47124  1  0  0  0
 48 56  1  0  0  0
 48 65  1  0  0  0
 48125  1  0  0  0
 49 50  1  0  0  0
 49 53  1  0  0  0
 49 64  1  0  0  0
 49126  1  0  0  0
 50 51  1  0  0  0
 50127  1  0  0  0
 50128  1  0  0  0
 51 52  1  0  0  0
 51129  1  0  0  0
 51130  1  0  0  0
 52131  1  0  0  0
 52132  1  0  0  0
 53 54  1  0  0  0
 54 55  2  0  0  0
 54133  1  0  0  0
 55 57  1  0  0  0
 55134  1  0  0  0
 56 69  2  0  0  0
 57 58  2  0  0  0
 57135  1  0  0  0
 58136  1  0  0  0
 59 60  1  0  0  0
 59 61  1  0  0  0
 59 62  1  0  0  0
 60137  1  0  0  0
 60138  1  0  0  0
 60139  1  0  0  0
 61140  1  0  0  0
 61141  1  0  0  0
 61142  1  0  0  0
 62143  1  0  0  0
 62144  1  0  0  0
 62145  1  0  0  0
 63 65  1  0  0  0
 63146  1  0  0  0
 63147  1  0  0  0
 63148  1  0  0  0
 64149  1  0  0  0
 65150  1  0  0  0
 68 87  1  0  0  0
 71 72  2  0  0  0
 71 73  1  0  0  0
 71 81  1  0  0  0
 72 74  1  0  0  0
 72 82  1  0  0  0
 73 75  2  0  0  0
 73 88  1  0  0  0
 74 83  1  0  0  0
 74 90  2  0  0  0
 75 89  1  0  0  0
 75 90  1  0  0  0
 76 78  1  0  0  0
 76151  1  0  0  0
 76152  1  0  0  0
 76 80  1  0  0  0
 77 79  1  0  0  0
 77 80  1  0  0  0
 77153  1  0  0  0
 77154  1  0  0  0
 78 91  1  0  0  0
 78155  1  0  0  0
 78156  1  0  0  0
 79 91  1  0  0  0
 79157  1  0  0  0
 79158  1  0  0  0
 80 89  1  0  0  0
 80159  1  0  0  0
 81160  1  0  0  0
 81161  1  0  0  0
 81162  1  0  0  0
 82163  1  0  0  0
 82164  1  0  0  0
 82165  1  0  0  0
 83166  1  0  0  0
 83167  1  0  0  0
 83168  1  0  0  0
 84 86  1  0  0  0
 84169  1  0  0  0
 84170  1  0  0  0
 84171  1  0  0  0
 85172  1  0  0  0
 85173  1  0  0  0
 85174  1  0  0  0
 85 88  1  0  0  0
 86175  1  0  0  0
 86176  1  0  0  0
 86 89  1  0  0  0
 87 88  1  0  0  0
 87177  1  0  0  0
 87178  1  0  0  0
 88179  1  0  0  0
 89180  1  0  0  0
M  ISO  4   1 100  68 101  87 101  91 100
M  END
> <chiral flag>
0

> <version>
0

> <s_m_source_file>
/data/baiqing/PycharmProjects/Reinvent-master-3.2/result/LINK_invent/BTK/process_docking_weight1_custom_sum_contain_oxygen_bond_distance_aromatic_linkinvent_7_9_3/rearranged_h_0159.sdf

> <i_m_source_file_index>
42

> <r_mmod_Potential_Energy-OPLS-2005>
265.585784912109

> <r_mmod_Stretch_Energy-OPLS-2005>
107.985649108887

> <r_mmod_Bend_Energy-OPLS-2005>
208.173156738281

> <r_mmod_Torsional_Energy-OPLS-2005>
324.709808349609

> <r_mmod_Improper_Torsional_Energy-OPLS-2005>
18.3023681640625

> <r_mmod_Van_der_Waal_Energy-OPLS-2005>
173.122589111328

> <r_mmod_Electrostatic_Energy-OPLS-2005>
-427.541198730469

> <r_mmod_Solvation_Energy-OPLS-2005>
-195.758651733398

> <b_mmod_Minimization_Converged-OPLS-2005>
0

> <r_mmod_RMS_Derivative-OPLS-2005>
1.49483716487885

$$$$
42
                    3D
 Structure written by MMmdl.
165174  0  0  1  0            999 V2000
  -30.6304  -14.7186   20.4748 C   0  0  0  0  0  0
  -30.4289  -12.4468   19.4604 C   0  0  0  0  0  0
  -29.5013  -12.4973   18.2274 C   0  0  0  0  0  0
  -28.0259  -12.3308   18.6419 C   0  0  0  0  0  0
  -27.6369  -13.2276   19.8470 C   0  0  2  0  0  0
  -28.6845  -13.1635   20.9781 C   0  0  0  0  0  0
  -25.2486  -13.8193   20.5708 C   0  0  0  0  0  0
  -24.1773  -13.0441   20.9221 C   0  0  0  0  0  0
  -24.6359  -11.6922   20.8760 C   0  0  0  0  0  0
  -23.9035  -10.4300   21.0404 C   0  0  0  0  0  0
  -24.3594   -9.4219   21.9185 C   0  0  0  0  0  0
  -23.6289   -8.2247   22.0749 C   0  0  0  0  0  0
  -22.4277   -8.0269   21.3536 C   0  0  0  0  0  0
  -21.9898   -9.0238   20.4641 C   0  0  0  0  0  0
  -22.7211  -10.2129   20.3055 C   0  0  0  0  0  0
  -21.6850   -6.0720   22.5277 C   0  0  0  0  0  0
  -21.4008   -6.5626   23.8207 C   0  0  0  0  0  0
  -21.3663   -5.6786   24.9174 C   0  0  0  0  0  0
  -21.6054   -4.3046   24.7227 C   0  0  0  0  0  0
  -21.8820   -3.8134   23.4343 C   0  0  0  0  0  0
  -21.9193   -4.6949   22.3398 C   0  0  0  0  0  0
  -22.7790  -13.5225   21.1877 C   0  0  0  0  0  0
  -22.1660   -4.2130   21.0976 F   0  0  0  0  0  0
  -21.5640   -3.4536   25.7740 F   0  0  0  0  0  0
  -29.9845  -13.5069   20.3914 N   0  0  0  0  0  0
  -26.2903  -12.9391   20.3287 N   0  0  0  0  0  0
  -25.9290  -11.6534   20.5773 N   0  0  0  0  0  0
  -22.0414  -12.8241   22.0437 N   0  0  0  0  0  0
  -25.4190  -15.1921   20.4134 N   0  0  0  0  0  0
  -31.8241  -14.8025   20.1708 O   0  0  0  0  0  0
  -21.6642   -6.8866   21.4236 O   0  0  0  0  0  0
  -22.3479  -14.5524   20.6707 O   0  0  0  0  0  0
  -24.6300  -31.8599   23.2014 C   0  0  0  0  0  0
  -25.9133  -32.4782   23.8357 C   0  0  1  0  0  0
  -27.2188  -27.2926   20.1122 C   0  0  0  0  0  0
  -25.5940  -33.8584   24.2284 N   0  0  0  0  0  0
  -23.4241  -30.4848   21.5459 C   0  0  2  0  0  0
  -24.8680  -28.9392   20.1109 C   0  0  0  0  0  0
  -22.7492  -29.4629   22.4933 C   0  0  0  0  0  0
  -18.0296  -28.1389   22.8490 C   0  0  0  0  0  0
  -24.1481  -36.7298   23.2640 C   0  0  0  0  0  0
  -25.9693  -30.7826   21.3742 C   0  0  0  0  0  0
  -26.0411  -29.4067   20.7173 C   0  0  0  0  0  0
  -27.2177  -28.5935   20.7151 C   0  0  0  0  0  0
  -26.0034  -26.8712   19.5232 C   0  0  0  0  0  0
  -24.8520  -27.6753   19.5066 C   0  0  0  0  0  0
  -23.6386  -29.8233   20.1598 C   0  0  0  0  0  0
  -25.4107  -36.3095   24.0339 C   0  0  1  0  0  0
  -20.5896  -28.3697   23.1282 C   0  0  2  0  0  0
  -20.6775  -26.9417   22.5415 C   0  0  0  0  0  0
  -19.5750  -26.6383   21.5217 C   0  0  0  0  0  0
  -18.1929  -26.7932   22.1627 C   0  0  0  0  0  0
  -19.1548  -28.8858   23.2881 C   0  0  0  0  0  0
  -18.9469  -30.1456   23.8900 C   0  0  0  0  0  0
  -17.6465  -30.6585   24.0567 C   0  0  0  0  0  0
  -25.9051  -34.9463   23.5112 C   0  0  0  0  0  0
  -16.5357  -29.9084   23.6331 C   0  0  0  0  0  0
  -16.7278  -28.6505   23.0349 C   0  0  0  0  0  0
  -26.4493  -31.6599   25.0737 C   0  0  0  0  0  0
  -25.3712  -31.3759   26.1459 C   0  0  0  0  0  0
  -27.0331  -30.3020   24.6198 C   0  0  0  0  0  0
  -27.6049  -32.4331   25.7512 C   0  0  0  0  0  0
  -27.5581  -37.1801   24.8466 C   0  0  0  0  0  0
  -21.4207  -29.3052   22.3677 N   0  0  0  0  0  0
  -26.4286  -37.3788   23.9418 N   0  0  0  0  0  0
  -24.6940  -31.0586   22.0975 N   0  0  0  0  0  0
  -23.4213  -28.8171   23.3021 O   0  0  0  0  0  0
  -28.3112  -26.4014   20.1652 O   0  0  0  0  0  0
  -26.5614  -34.8932   22.4674 O   0  0  0  0  0  0
  -23.5452  -32.1410   23.7320 O   0  0  0  0  0  0
  -29.3549  -23.6598   17.6474 C   0  0  0  0  0  0
  -29.1170  -22.9175   19.9379 C   0  0  0  0  0  0
  -29.0127  -23.9970   18.9677 C   0  0  0  0  0  0
  -29.9128  -22.4301   17.2899 C   0  0  0  0  0  0
  -30.1514  -21.4395   18.2692 C   0  0  0  0  0  0
  -29.6472  -21.5909   19.5974 C   0  0  0  0  0  0
  -30.3469  -18.2796   21.6876 C   0  0  0  0  0  0
  -29.5825  -18.1108   19.3955 C   0  0  0  0  0  0
  -30.0511  -16.7385   21.9119 C   0  0  0  0  0  0
  -29.1496  -16.6145   19.6492 C   0  0  0  0  0  0
  -29.4793  -19.0479   20.6384 C   0  0  0  0  0  0
  -30.3071  -22.2407   15.8323 C   0  0  0  0  0  0
  -31.0944  -20.3129   17.8775 C   0  0  0  0  0  0
  -28.5332  -25.5174   19.0098 C   0  0  0  0  0  0
  -29.8878  -15.8736   20.7111 N   0  0  0  0  0  0
  -29.8266  -20.5390   20.5809 N   0  0  0  0  0  0
  -31.4657  -12.5791   19.1476 H   0  0  0  0  0  0
  -30.3854  -11.4712   19.9465 H   0  0  0  0  0  0
  -29.7776  -11.7168   17.5179 H   0  0  0  0  0  0
  -29.6303  -13.4471   17.7063 H   0  0  0  0  0  0
  -27.8704  -11.2823   18.8966 H   0  0  0  0  0  0
  -27.3701  -12.5335   17.7937 H   0  0  0  0  0  0
  -27.6270  -14.2468   19.4651 H   0  0  0  0  0  0
  -28.7172  -12.1697   21.4266 H   0  0  0  0  0  0
  -28.4236  -13.8578   21.7785 H   0  0  0  0  0  0
  -25.2722   -9.5719   22.4766 H   0  0  0  0  0  0
  -23.9998   -7.4641   22.7472 H   0  0  0  0  0  0
  -21.0818   -8.8750   19.8956 H   0  0  0  0  0  0
  -22.3643  -10.9665   19.6173 H   0  0  0  0  0  0
  -21.1989   -7.6131   23.9708 H   0  0  0  0  0  0
  -21.1494   -6.0511   25.9082 H   0  0  0  0  0  0
  -22.0599   -2.7592   23.2847 H   0  0  0  0  0  0
  -22.3983  -11.9906   22.4862 H   0  0  0  0  0  0
  -21.1022  -13.1286   22.2599 H   0  0  0  0  0  0
  -24.6592  -15.8530   20.5374 H   0  0  0  0  0  0
  -26.2810  -15.6309   20.1183 H   0  0  0  0  0  0
  -26.7209  -32.5436   23.1113 H   0  0  0  0  0  0
  -25.0092  -33.9720   25.0431 H   0  0  0  0  0  0
  -22.7208  -31.3077   21.4041 H   0  0  0  0  0  0
  -23.3753  -35.9619   23.3294 H   0  0  0  0  0  0
  -24.3578  -36.8923   22.2057 H   0  0  0  0  0  0
  -23.7215  -37.6495   23.6657 H   0  0  0  0  0  0
  -26.1000  -31.5416   20.6012 H   0  0  0  0  0  0
  -26.8513  -30.8352   22.0013 H   0  0  0  0  0  0
  -28.1161  -28.9482   21.2003 H   0  0  0  0  0  0
  -25.8947  -25.8774   19.1150 H   0  0  0  0  0  0
  -23.9455  -27.2976   19.0538 H   0  0  0  0  0  0
  -23.7598  -30.6017   19.4060 H   0  0  0  0  0  0
  -22.7564  -29.2569   19.8553 H   0  0  0  0  0  0
  -25.1277  -36.1958   25.0831 H   0  0  0  0  0  0
  -20.9992  -28.3263   24.1400 H   0  0  0  0  0  0
  -20.5669  -26.2305   23.3616 H   0  0  0  0  0  0
  -21.6641  -26.7430   22.1210 H   0  0  0  0  0  0
  -19.6904  -25.6292   21.1245 H   0  0  0  0  0  0
  -19.6686  -27.3192   20.6748 H   0  0  0  0  0  0
  -17.4201  -26.6693   21.4026 H   0  0  0  0  0  0
  -18.0321  -26.0069   22.9018 H   0  0  0  0  0  0
  -19.7943  -30.7272   24.2270 H   0  0  0  0  0  0
  -17.5019  -31.6261   24.5177 H   0  0  0  0  0  0
  -15.5357  -30.2984   23.7653 H   0  0  0  0  0  0
  -15.8680  -28.0822   22.7057 H   0  0  0  0  0  0
  -24.5884  -30.7109   25.7800 H   0  0  0  0  0  0
  -24.8898  -32.2930   26.4863 H   0  0  0  0  0  0
  -25.8019  -30.8959   27.0252 H   0  0  0  0  0  0
  -26.2910  -29.6782   24.1203 H   0  0  0  0  0  0
  -27.4013  -29.7273   25.4706 H   0  0  0  0  0  0
  -27.8784  -30.4317   23.9436 H   0  0  0  0  0  0
  -27.2664  -33.3639   26.2073 H   0  0  0  0  0  0
  -28.3864  -32.6878   25.0342 H   0  0  0  0  0  0
  -28.0704  -31.8463   26.5437 H   0  0  0  0  0  0
  -28.2597  -38.0100   24.7523 H   0  0  0  0  0  0
  -28.1076  -36.2637   24.6266 H   0  0  0  0  0  0
  -27.2309  -37.1422   25.8871 H   0  0  0  0  0  0
  -20.9388  -29.8795   21.6902 H   0  0  0  0  0  0
  -26.0178  -38.2869   24.1412 H   0  0  0  0  0  0
  -29.2338  -24.4061   16.8725 H   0  0  0  0  0  0
  -28.8105  -23.1190   20.9543 H   0  0  0  0  0  0
  -31.3960  -18.3797   21.4076 H   0  0  0  0  0  0
  -30.2605  -18.7777   22.6553 H   0  0  0  0  0  0
  -28.9800  -18.5166   18.5831 H   0  0  0  0  0  0
  -30.6116  -18.0482   19.0494 H   0  0  0  0  0  0
  -29.1253  -16.6470   22.4802 H   0  0  0  0  0  0
  -30.8264  -16.3238   22.5585 H   0  0  0  0  0  0
  -29.2183  -16.0676   18.7072 H   0  0  0  0  0  0
  -28.0945  -16.6045   19.9238 H   0  0  0  0  0  0
  -28.4418  -19.0112   20.9766 H   0  0  0  0  0  0
  -29.7508  -22.9198   15.1840 H   0  0  0  0  0  0
  -30.0947  -21.2276   15.4913 H   0  0  0  0  0  0
  -31.3682  -22.4471   15.6938 H   0  0  0  0  0  0
  -31.9001  -20.6855   17.2457 H   0  0  0  0  0  0
  -30.5759  -19.5382   17.3148 H   0  0  0  0  0  0
  -31.5990  -19.8988   18.7480 H   0  0  0  0  0  0
  -27.7526  -25.6096   18.2570 H   0  0  0  0  0  0
  -29.3587  -26.0455   18.5286 H   0  0  0  0  0  0
  -29.7830  -20.9276   21.5191 H   0  0  0  0  0  0
  1 25  1  0  0  0
  1 30  2  0  0  0
  1 85  1  0  0  0
  2  3  1  0  0  0
  2 25  1  0  0  0
  2 87  1  0  0  0
  2 88  1  0  0  0
  3  4  1  0  0  0
  3 89  1  0  0  0
  3 90  1  0  0  0
  4  5  1  0  0  0
  4 91  1  0  0  0
  4 92  1  0  0  0
  5  6  1  0  0  0
  5 26  1  0  0  0
  5 93  1  0  0  0
  6 25  1  0  0  0
  6 94  1  0  0  0
  6 95  1  0  0  0
  7  8  2  0  0  0
  7 26  1  0  0  0
  7 29  1  0  0  0
  8  9  1  0  0  0
  8 22  1  0  0  0
  9 10  1  0  0  0
  9 27  2  0  0  0
 10 11  2  0  0  0
 10 15  1  0  0  0
 11 12  1  0  0  0
 11 96  1  0  0  0
 12 13  2  0  0  0
 12 97  1  0  0  0
 13 14  1  0  0  0
 13 31  1  0  0  0
 14 15  2  0  0  0
 14 98  1  0  0  0
 15 99  1  0  0  0
 16 17  2  0  0  0
 16 21  1  0  0  0
 16 31  1  0  0  0
 17 18  1  0  0  0
 17100  1  0  0  0
 18 19  2  0  0  0
 18101  1  0  0  0
 19 20  1  0  0  0
 19 24  1  0  0  0
 20 21  2  0  0  0
 20102  1  0  0  0
 21 23  1  0  0  0
 22 28  1  0  0  0
 22 32  2  0  0  0
 26 27  1  0  0  0
 28103  1  0  0  0
 28104  1  0  0  0
 29105  1  0  0  0
 29106  1  0  0  0
 33 34  1  0  0  0
 33 66  1  0  0  0
 33 70  2  0  0  0
 34 36  1  0  0  0
 34 59  1  0  0  0
 34107  1  0  0  0
 35 44  2  0  0  0
 35 45  1  0  0  0
 35 68  1  0  0  0
 36 56  1  0  0  0
 36108  1  0  0  0
 37 39  1  0  0  0
 37 47  1  0  0  0
 37 66  1  0  0  0
 37109  1  0  0  0
 38 43  2  0  0  0
 38 46  1  0  0  0
 38 47  1  0  0  0
 39 64  1  0  0  0
 39 67  2  0  0  0
 40 52  1  0  0  0
 40 53  2  0  0  0
 40 58  1  0  0  0
 41110  1  0  0  0
 41111  1  0  0  0
 41112  1  0  0  0
 41 48  1  0  0  0
 42 43  1  0  0  0
 42 66  1  0  0  0
 42113  1  0  0  0
 42114  1  0  0  0
 43 44  1  0  0  0
 44115  1  0  0  0
 45 46  2  0  0  0
 45116  1  0  0  0
 46117  1  0  0  0
 47118  1  0  0  0
 47119  1  0  0  0
 48 56  1  0  0  0
 48 65  1  0  0  0
 48120  1  0  0  0
 49 50  1  0  0  0
 49 53  1  0  0  0
 49 64  1  0  0  0
 49121  1  0  0  0
 50 51  1  0  0  0
 50122  1  0  0  0
 50123  1  0  0  0
 51 52  1  0  0  0
 51124  1  0  0  0
 51125  1  0  0  0
 52126  1  0  0  0
 52127  1  0  0  0
 53 54  1  0  0  0
 54 55  2  0  0  0
 54128  1  0  0  0
 55 57  1  0  0  0
 55129  1  0  0  0
 56 69  2  0  0  0
 57 58  2  0  0  0
 57130  1  0  0  0
 58131  1  0  0  0
 59 60  1  0  0  0
 59 61  1  0  0  0
 59 62  1  0  0  0
 60132  1  0  0  0
 60133  1  0  0  0
 60134  1  0  0  0
 61135  1  0  0  0
 61136  1  0  0  0
 61137  1  0  0  0
 62138  1  0  0  0
 62139  1  0  0  0
 62140  1  0  0  0
 63 65  1  0  0  0
 63141  1  0  0  0
 63142  1  0  0  0
 63143  1  0  0  0
 64144  1  0  0  0
 65145  1  0  0  0
 68 84  1  0  0  0
 71 73  2  0  0  0
 71 74  1  0  0  0
 71146  1  0  0  0
 72 73  1  0  0  0
 72 76  2  0  0  0
 72147  1  0  0  0
 73 84  1  0  0  0
 74 75  2  0  0  0
 74 82  1  0  0  0
 75 76  1  0  0  0
 75 83  1  0  0  0
 76 86  1  0  0  0
 77 79  1  0  0  0
 77 81  1  0  0  0
 77148  1  0  0  0
 77149  1  0  0  0
 78 80  1  0  0  0
 78 81  1  0  0  0
 78150  1  0  0  0
 78151  1  0  0  0
 79 85  1  0  0  0
 79152  1  0  0  0
 79153  1  0  0  0
 80 85  1  0  0  0
 80154  1  0  0  0
 80155  1  0  0  0
 81 86  1  0  0  0
 81156  1  0  0  0
 82157  1  0  0  0
 82158  1  0  0  0
 82159  1  0  0  0
 83160  1  0  0  0
 83161  1  0  0  0
 83162  1  0  0  0
 84163  1  0  0  0
 84164  1  0  0  0
 86165  1  0  0  0
M  ISO  4   1 100  68 101  84 101  85 100
M  END
> <chiral flag>
0

> <version>
0

> <s_m_source_file>
/data/baiqing/PycharmProjects/Reinvent-master-3.2/result/LINK_invent/BTK/process_docking_weight1_custom_sum_contain_oxygen_bond_distance_aromatic_linkinvent_7_9_3/rearranged_h_0159.sdf

> <i_m_source_file_index>
43

> <r_mmod_Potential_Energy-OPLS-2005>
452.021545410156

> <r_mmod_Stretch_Energy-OPLS-2005>
111.117095947266

> <r_mmod_Bend_Energy-OPLS-2005>
261.592803955078

> <r_mmod_Torsional_Energy-OPLS-2005>
371.277008056641

> <r_mmod_Improper_Torsional_Energy-OPLS-2005>
8.78084754943848

> <r_mmod_Van_der_Waal_Energy-OPLS-2005>
156.493072509766

> <r_mmod_Electrostatic_Energy-OPLS-2005>
-328.409423828125

> <r_mmod_Solvation_Energy-OPLS-2005>
-203.309799194336

> <b_mmod_Minimization_Converged-OPLS-2005>
0

> <r_mmod_RMS_Derivative-OPLS-2005>
1.90371978282928

$$$$
43
                    3D
 Structure written by MMmdl.
172182  0  0  1  0            999 V2000
  -30.6733  -14.4920   20.6443 C   0  0  0  0  0  0
  -30.4363  -12.3458   19.4012 C   0  0  0  0  0  0
  -29.4771  -12.4867   18.1967 C   0  0  0  0  0  0
  -28.0031  -12.3350   18.6243 C   0  0  0  0  0  0
  -27.6635  -13.1678   19.8874 C   0  0  2  0  0  0
  -28.7183  -12.8752   20.9828 C   0  0  0  0  0  0
  -25.2593  -13.8090   20.5657 C   0  0  0  0  0  0
  -24.1813  -13.0427   20.9168 C   0  0  0  0  0  0
  -24.6320  -11.6876   20.8768 C   0  0  0  0  0  0
  -23.8997  -10.4281   21.0441 C   0  0  0  0  0  0
  -24.3574   -9.4207   21.9194 C   0  0  0  0  0  0
  -23.6261   -8.2241   22.0763 C   0  0  0  0  0  0
  -22.4251   -8.0271   21.3556 C   0  0  0  0  0  0
  -21.9880   -9.0234   20.4663 C   0  0  0  0  0  0
  -22.7191  -10.2125   20.3082 C   0  0  0  0  0  0
  -21.6839   -6.0737   22.5271 C   0  0  0  0  0  0
  -21.4005   -6.5648   23.8210 C   0  0  0  0  0  0
  -21.3649   -5.6808   24.9163 C   0  0  0  0  0  0
  -21.6032   -4.3066   24.7224 C   0  0  0  0  0  0
  -21.8820   -3.8158   23.4344 C   0  0  0  0  0  0
  -21.9184   -4.6960   22.3405 C   0  0  0  0  0  0
  -22.7846  -13.5245   21.1825 C   0  0  0  0  0  0
  -22.1665   -4.2157   21.0983 F   0  0  0  0  0  0
  -21.5617   -3.4558   25.7737 F   0  0  0  0  0  0
  -30.0167  -13.3030   20.4477 N   0  0  0  0  0  0
  -26.3015  -12.9173   20.3482 N   0  0  0  0  0  0
  -25.9237  -11.6380   20.5862 N   0  0  0  0  0  0
  -22.0500  -12.8255   22.0408 N   0  0  0  0  0  0
  -25.4378  -15.1793   20.3931 N   0  0  0  0  0  0
  -31.7821  -14.6798   20.1251 O   0  0  0  0  0  0
  -21.6618   -6.8868   21.4246 O   0  0  0  0  0  0
  -22.3543  -14.5548   20.6657 O   0  0  0  0  0  0
  -24.6139  -31.8699   23.2084 C   0  0  0  0  0  0
  -25.9049  -32.4830   23.8378 C   0  0  1  0  0  0
  -27.2343  -27.4237   20.0975 C   0  0  0  0  0  0
  -25.5898  -33.8616   24.2338 N   0  0  0  0  0  0
  -23.3980  -30.4957   21.5486 C   0  0  2  0  0  0
  -24.8443  -28.9623   20.1159 C   0  0  0  0  0  0
  -22.7389  -29.4700   22.4978 C   0  0  0  0  0  0
  -18.0268  -28.1369   22.8504 C   0  0  0  0  0  0
  -24.1496  -36.7313   23.2646 C   0  0  0  0  0  0
  -25.9274  -30.8407   21.3562 C   0  0  0  0  0  0
  -26.0061  -29.4726   20.7061 C   0  0  0  0  0  0
  -27.1988  -28.7117   20.6903 C   0  0  0  0  0  0
  -26.0403  -26.9284   19.5187 C   0  0  0  0  0  0
  -24.8582  -27.6920   19.5237 C   0  0  0  0  0  0
  -23.6050  -29.8269   20.1639 C   0  0  0  0  0  0
  -25.4109  -36.3108   24.0353 C   0  0  1  0  0  0
  -20.5867  -28.3669   23.1333 C   0  0  2  0  0  0
  -20.6757  -26.9404   22.5441 C   0  0  0  0  0  0
  -19.5733  -26.6382   21.5231 C   0  0  0  0  0  0
  -18.1908  -26.7916   22.1639 C   0  0  0  0  0  0
  -19.1515  -28.8821   23.2918 C   0  0  0  0  0  0
  -18.9459  -30.1436   23.8927 C   0  0  0  0  0  0
  -17.6463  -30.6585   24.0566 C   0  0  0  0  0  0
  -25.9042  -34.9474   23.5139 C   0  0  0  0  0  0
  -16.5355  -29.9099   23.6318 C   0  0  0  0  0  0
  -16.7256  -28.6507   23.0339 C   0  0  0  0  0  0
  -26.4467  -31.6557   25.0667 C   0  0  0  0  0  0
  -25.3716  -31.3662   26.1396 C   0  0  0  0  0  0
  -27.0285  -30.2998   24.6005 C   0  0  0  0  0  0
  -27.6065  -32.4216   25.7429 C   0  0  0  0  0  0
  -27.5583  -37.1810   24.8466 C   0  0  0  0  0  0
  -21.4116  -29.3052   22.3734 N   0  0  0  0  0  0
  -26.4297  -37.3793   23.9407 N   0  0  0  0  0  0
  -24.6657  -31.0805   22.0988 N   0  0  0  0  0  0
  -23.4177  -28.8248   23.3001 O   0  0  0  0  0  0
  -28.4333  -26.7263   20.1011 O   0  0  0  0  0  0
  -26.5602  -34.8922   22.4702 O   0  0  0  0  0  0
  -23.5343  -32.1459   23.7491 O   0  0  0  0  0  0
  -29.1197  -20.8805   22.3239 C   0  0  0  0  0  0
  -31.1263  -21.5191   19.9831 C   0  0  0  0  0  0
  -28.4378  -21.9145   21.7570 C   0  0  0  0  0  0
  -29.9309  -21.9129   19.5026 C   0  0  0  0  0  0
  -30.2317  -20.0413   21.8229 C   0  0  0  0  0  0
  -28.8078  -16.1776   23.3196 C   0  0  0  0  0  0
  -30.2868  -16.4160   23.6395 C   0  0  0  0  0  0
  -28.7789  -15.8385   21.8242 C   0  0  0  0  0  0
  -31.3965  -20.9263   21.3501 C   0  0  1  0  0  0
  -28.6006  -21.8127   20.1939 C   0  0  2  0  0  0
  -27.9407  -22.9765   20.7402 C   0  0  1  0  0  0
  -30.9854  -16.3771   22.2703 C   0  0  1  0  0  0
  -29.8104  -22.4035   18.0713 C   0  0  0  0  0  0
  -32.8411  -20.4224   21.5235 C   0  0  0  0  0  0
  -28.4985  -24.3950   20.9565 C   0  0  0  0  0  0
  -31.2010  -17.7955   21.6256 C   0  0  0  0  0  0
  -28.4994  -25.3361   19.7259 C   0  0  0  0  0  0
  -30.1358  -18.7602   21.9298 N   0  0  0  0  0  0
  -30.1540  -15.4403   21.4922 N   0  0  0  0  0  0
  -31.4628  -12.4997   19.0636 H   0  0  0  0  0  0
  -30.4145  -11.3239   19.7903 H   0  0  0  0  0  0
  -29.7143  -11.7319   17.4456 H   0  0  0  0  0  0
  -29.6201  -13.4551   17.7144 H   0  0  0  0  0  0
  -27.8258  -11.2779   18.8249 H   0  0  0  0  0  0
  -27.3348  -12.5938   17.8033 H   0  0  0  0  0  0
  -27.7262  -14.2164   19.5975 H   0  0  0  0  0  0
  -28.4996  -13.2831   21.9661 H   0  0  0  0  0  0
  -28.7370  -11.8022   21.1803 H   0  0  0  0  0  0
  -25.2714   -9.5674   22.4768 H   0  0  0  0  0  0
  -23.9956   -7.4638   22.7497 H   0  0  0  0  0  0
  -21.0804   -8.8757   19.8980 H   0  0  0  0  0  0
  -22.3637  -10.9667   19.6209 H   0  0  0  0  0  0
  -21.2027   -7.6162   23.9709 H   0  0  0  0  0  0
  -21.1462   -6.0543   25.9064 H   0  0  0  0  0  0
  -22.0612   -2.7625   23.2847 H   0  0  0  0  0  0
  -22.4056  -11.9864   22.4730 H   0  0  0  0  0  0
  -21.1165  -13.1360   22.2714 H   0  0  0  0  0  0
  -24.6794  -15.8443   20.4957 H   0  0  0  0  0  0
  -26.2972  -15.6089   20.0742 H   0  0  0  0  0  0
  -26.7114  -32.5553   23.1139 H   0  0  0  0  0  0
  -24.9954  -33.9767   25.0415 H   0  0  0  0  0  0
  -22.6869  -31.3122   21.4091 H   0  0  0  0  0  0
  -23.3754  -35.9655   23.3321 H   0  0  0  0  0  0
  -24.3611  -36.8894   22.2061 H   0  0  0  0  0  0
  -23.7251  -37.6526   23.6641 H   0  0  0  0  0  0
  -26.0262  -31.6120   20.5892 H   0  0  0  0  0  0
  -26.8207  -30.9038   21.9655 H   0  0  0  0  0  0
  -28.0963  -29.1131   21.1390 H   0  0  0  0  0  0
  -25.9704  -25.9574   19.0591 H   0  0  0  0  0  0
  -23.9579  -27.2941   19.0784 H   0  0  0  0  0  0
  -23.7095  -30.6001   19.4035 H   0  0  0  0  0  0
  -22.7300  -29.2443   19.8703 H   0  0  0  0  0  0
  -25.1291  -36.1966   25.0853 H   0  0  0  0  0  0
  -20.9964  -28.3227   24.1446 H   0  0  0  0  0  0
  -20.5652  -26.2269   23.3624 H   0  0  0  0  0  0
  -21.6624  -26.7421   22.1232 H   0  0  0  0  0  0
  -19.6896  -25.6299   21.1224 H   0  0  0  0  0  0
  -19.6669  -27.3214   20.6779 H   0  0  0  0  0  0
  -17.4182  -26.6680   21.4037 H   0  0  0  0  0  0
  -18.0310  -26.0053   22.9029 H   0  0  0  0  0  0
  -19.7938  -30.7237   24.2309 H   0  0  0  0  0  0
  -17.5025  -31.6274   24.5160 H   0  0  0  0  0  0
  -15.5358  -30.3011   23.7622 H   0  0  0  0  0  0
  -15.8656  -28.0842   22.7028 H   0  0  0  0  0  0
  -24.5879  -30.7033   25.7700 H   0  0  0  0  0  0
  -24.8899  -32.2824   26.4829 H   0  0  0  0  0  0
  -25.8031  -30.8802   27.0154 H   0  0  0  0  0  0
  -26.2833  -29.6763   24.1054 H   0  0  0  0  0  0
  -27.4076  -29.7207   25.4432 H   0  0  0  0  0  0
  -27.8643  -30.4325   23.9133 H   0  0  0  0  0  0
  -27.2723  -33.3511   26.2047 H   0  0  0  0  0  0
  -28.3858  -32.6756   25.0236 H   0  0  0  0  0  0
  -28.0743  -31.8278   26.5285 H   0  0  0  0  0  0
  -28.2613  -38.0097   24.7496 H   0  0  0  0  0  0
  -28.1068  -36.2622   24.6316 H   0  0  0  0  0  0
  -27.2301  -37.1480   25.8872 H   0  0  0  0  0  0
  -20.9259  -29.8793   21.6985 H   0  0  0  0  0  0
  -26.0189  -38.2878   24.1393 H   0  0  0  0  0  0
  -28.9485  -20.7102   23.3760 H   0  0  0  0  0  0
  -31.9961  -21.6116   19.3502 H   0  0  0  0  0  0
  -28.2058  -17.0653   23.5210 H   0  0  0  0  0  0
  -28.4152  -15.3551   23.9224 H   0  0  0  0  0  0
  -30.6538  -15.6003   24.2638 H   0  0  0  0  0  0
  -30.4686  -17.3434   24.1870 H   0  0  0  0  0  0
  -27.9531  -15.1848   21.5917 H   0  0  0  0  0  0
  -28.5556  -16.7388   21.2522 H   0  0  0  0  0  0
  -31.3776  -21.7984   22.0051 H   0  0  0  0  0  0
  -27.9607  -21.1125   19.6554 H   0  0  0  0  0  0
  -26.8768  -23.0139   20.5184 H   0  0  0  0  0  0
  -31.9772  -15.9388   22.4060 H   0  0  0  0  0  0
  -30.7798  -22.6392   17.6321 H   0  0  0  0  0  0
  -29.1892  -23.2935   18.0042 H   0  0  0  0  0  0
  -29.3408  -21.6370   17.4531 H   0  0  0  0  0  0
  -33.5536  -21.2257   21.3382 H   0  0  0  0  0  0
  -33.0897  -19.6119   20.8390 H   0  0  0  0  0  0
  -33.0186  -20.0975   22.5489 H   0  0  0  0  0  0
  -29.5086  -24.3319   21.3627 H   0  0  0  0  0  0
  -27.8918  -24.8546   21.7374 H   0  0  0  0  0  0
  -31.3689  -17.7252   20.5483 H   0  0  0  0  0  0
  -32.1278  -18.1216   22.0840 H   0  0  0  0  0  0
  -27.7627  -25.0370   18.9879 H   0  0  0  0  0  0
  -29.4499  -25.2075   19.2115 H   0  0  0  0  0  0
  1 25  1  0  0  0
  1 30  2  0  0  0
  1 89  1  0  0  0
  2  3  1  0  0  0
  2 25  1  0  0  0
  2 90  1  0  0  0
  2 91  1  0  0  0
  3  4  1  0  0  0
  3 92  1  0  0  0
  3 93  1  0  0  0
  4  5  1  0  0  0
  4 94  1  0  0  0
  4 95  1  0  0  0
  5  6  1  0  0  0
  5 26  1  0  0  0
  5 96  1  0  0  0
  6 25  1  0  0  0
  6 97  1  0  0  0
  6 98  1  0  0  0
  7  8  2  0  0  0
  7 26  1  0  0  0
  7 29  1  0  0  0
  8  9  1  0  0  0
  8 22  1  0  0  0
  9 10  1  0  0  0
  9 27  2  0  0  0
 10 11  2  0  0  0
 10 15  1  0  0  0
 11 12  1  0  0  0
 11 99  1  0  0  0
 12 13  2  0  0  0
 12100  1  0  0  0
 13 14  1  0  0  0
 13 31  1  0  0  0
 14 15  2  0  0  0
 14101  1  0  0  0
 15102  1  0  0  0
 16 17  2  0  0  0
 16 21  1  0  0  0
 16 31  1  0  0  0
 17 18  1  0  0  0
 17103  1  0  0  0
 18 19  2  0  0  0
 18104  1  0  0  0
 19 20  1  0  0  0
 19 24  1  0  0  0
 20 21  2  0  0  0
 20105  1  0  0  0
 21 23  1  0  0  0
 22 28  1  0  0  0
 22 32  2  0  0  0
 26 27  1  0  0  0
 28106  1  0  0  0
 28107  1  0  0  0
 29108  1  0  0  0
 29109  1  0  0  0
 33 34  1  0  0  0
 33 66  1  0  0  0
 33 70  2  0  0  0
 34 36  1  0  0  0
 34 59  1  0  0  0
 34110  1  0  0  0
 35 44  2  0  0  0
 35 45  1  0  0  0
 35 68  1  0  0  0
 36 56  1  0  0  0
 36111  1  0  0  0
 37 39  1  0  0  0
 37 47  1  0  0  0
 37 66  1  0  0  0
 37112  1  0  0  0
 38 43  2  0  0  0
 38 46  1  0  0  0
 38 47  1  0  0  0
 39 64  1  0  0  0
 39 67  2  0  0  0
 40 52  1  0  0  0
 40 53  2  0  0  0
 40 58  1  0  0  0
 41113  1  0  0  0
 41114  1  0  0  0
 41115  1  0  0  0
 41 48  1  0  0  0
 42 43  1  0  0  0
 42 66  1  0  0  0
 42116  1  0  0  0
 42117  1  0  0  0
 43 44  1  0  0  0
 44118  1  0  0  0
 45 46  2  0  0  0
 45119  1  0  0  0
 46120  1  0  0  0
 47121  1  0  0  0
 47122  1  0  0  0
 48 56  1  0  0  0
 48 65  1  0  0  0
 48123  1  0  0  0
 49 50  1  0  0  0
 49 53  1  0  0  0
 49 64  1  0  0  0
 49124  1  0  0  0
 50 51  1  0  0  0
 50125  1  0  0  0
 50126  1  0  0  0
 51 52  1  0  0  0
 51127  1  0  0  0
 51128  1  0  0  0
 52129  1  0  0  0
 52130  1  0  0  0
 53 54  1  0  0  0
 54 55  2  0  0  0
 54131  1  0  0  0
 55 57  1  0  0  0
 55132  1  0  0  0
 56 69  2  0  0  0
 57 58  2  0  0  0
 57133  1  0  0  0
 58134  1  0  0  0
 59 60  1  0  0  0
 59 61  1  0  0  0
 59 62  1  0  0  0
 60135  1  0  0  0
 60136  1  0  0  0
 60137  1  0  0  0
 61138  1  0  0  0
 61139  1  0  0  0
 61140  1  0  0  0
 62141  1  0  0  0
 62142  1  0  0  0
 62143  1  0  0  0
 63 65  1  0  0  0
 63144  1  0  0  0
 63145  1  0  0  0
 63146  1  0  0  0
 64147  1  0  0  0
 65148  1  0  0  0
 68 87  1  0  0  0
 71 73  2  0  0  0
 71 75  1  0  0  0
 71149  1  0  0  0
 72 74  2  0  0  0
 72 79  1  0  0  0
 72150  1  0  0  0
 73 80  1  0  0  0
 73 81  1  0  0  0
 74 83  1  0  0  0
 74 80  1  0  0  0
 75 79  1  0  0  0
 75 88  2  0  0  0
 76 77  1  0  0  0
 76 78  1  0  0  0
 76151  1  0  0  0
 76152  1  0  0  0
 77 82  1  0  0  0
 77153  1  0  0  0
 77154  1  0  0  0
 78 89  1  0  0  0
 78155  1  0  0  0
 78156  1  0  0  0
 79 84  1  0  0  0
 79157  1  0  0  0
 80 81  1  0  0  0
 80158  1  0  0  0
 81 85  1  0  0  0
 81159  1  0  0  0
 82 86  1  0  0  0
 82 89  1  0  0  0
 82160  1  0  0  0
 83161  1  0  0  0
 83162  1  0  0  0
 83163  1  0  0  0
 84164  1  0  0  0
 84165  1  0  0  0
 84166  1  0  0  0
 85 87  1  0  0  0
 85167  1  0  0  0
 85168  1  0  0  0
 86 88  1  0  0  0
 86169  1  0  0  0
 86170  1  0  0  0
 87171  1  0  0  0
 87172  1  0  0  0
M  ISO  4   1 100  68 101  87 101  89 100
M  END
> <chiral flag>
0

> <version>
0

> <s_m_source_file>
/data/baiqing/PycharmProjects/Reinvent-master-3.2/result/LINK_invent/BTK/process_docking_weight1_custom_sum_contain_oxygen_bond_distance_aromatic_linkinvent_7_9_3/rearranged_h_0159.sdf

> <i_m_source_file_index>
44

> <r_mmod_Potential_Energy-OPLS-2005>
469.652496337891

> <r_mmod_Stretch_Energy-OPLS-2005>
61.8136520385742

> <r_mmod_Bend_Energy-OPLS-2005>
360.141357421875

> <r_mmod_Torsional_Energy-OPLS-2005>
372.538513183594

> <r_mmod_Improper_Torsional_Energy-OPLS-2005>
4.55849504470825

> <r_mmod_Van_der_Waal_Energy-OPLS-2005>
161.492324829102

> <r_mmod_Electrostatic_Energy-OPLS-2005>
-319.945281982422

> <r_mmod_Solvation_Energy-OPLS-2005>
-186.008239746094

> <b_mmod_Minimization_Converged-OPLS-2005>
0

> <r_mmod_RMS_Derivative-OPLS-2005>
4.06953096389771

$$$$
44
                    3D
 Structure written by MMmdl.
162171  0  0  1  0            999 V2000
  -30.6319  -14.7599   20.4401 C   0  0  0  0  0  0
  -30.4212  -12.4696   19.4664 C   0  0  0  0  0  0
  -29.5015  -12.5081   18.2290 C   0  0  0  0  0  0
  -28.0289  -12.3367   18.6467 C   0  0  0  0  0  0
  -27.6347  -13.2430   19.8445 C   0  0  2  0  0  0
  -28.6819  -13.2107   20.9774 C   0  0  0  0  0  0
  -25.2496  -13.8240   20.5718 C   0  0  0  0  0  0
  -24.1791  -13.0462   20.9211 C   0  0  0  0  0  0
  -24.6398  -11.6943   20.8758 C   0  0  0  0  0  0
  -23.9082  -10.4305   21.0411 C   0  0  0  0  0  0
  -24.3623   -9.4217   21.9191 C   0  0  0  0  0  0
  -23.6294   -8.2252   22.0760 C   0  0  0  0  0  0
  -22.4278   -8.0287   21.3542 C   0  0  0  0  0  0
  -21.9926   -9.0267   20.4646 C   0  0  0  0  0  0
  -22.7255  -10.2147   20.3056 C   0  0  0  0  0  0
  -21.6857   -6.0740   22.5279 C   0  0  0  0  0  0
  -21.4019   -6.5639   23.8214 C   0  0  0  0  0  0
  -21.3657   -5.6794   24.9177 C   0  0  0  0  0  0
  -21.6041   -4.3055   24.7226 C   0  0  0  0  0  0
  -21.8823   -3.8151   23.4346 C   0  0  0  0  0  0
  -21.9194   -4.6966   22.3400 C   0  0  0  0  0  0
  -22.7811  -13.5233   21.1859 C   0  0  0  0  0  0
  -22.1660   -4.2148   21.0977 F   0  0  0  0  0  0
  -21.5624   -3.4541   25.7738 F   0  0  0  0  0  0
  -29.9740  -13.5507   20.3759 N   0  0  0  0  0  0
  -26.2913  -12.9458   20.3294 N   0  0  0  0  0  0
  -25.9331  -11.6586   20.5775 N   0  0  0  0  0  0
  -22.0457  -12.8206   22.0406 N   0  0  0  0  0  0
  -25.4223  -15.1957   20.4180 N   0  0  0  0  0  0
  -31.8375  -14.7961   20.1723 O   0  0  0  0  0  0
  -21.6638   -6.8886   21.4240 O   0  0  0  0  0  0
  -22.3500  -14.5544   20.6721 O   0  0  0  0  0  0
  -24.6326  -31.8554   23.1989 C   0  0  0  0  0  0
  -25.9146  -32.4756   23.8343 C   0  0  1  0  0  0
  -27.2119  -27.2642   20.1300 C   0  0  0  0  0  0
  -25.5945  -33.8561   24.2266 N   0  0  0  0  0  0
  -23.4293  -30.4769   21.5443 C   0  0  2  0  0  0
  -24.8755  -28.9240   20.1106 C   0  0  0  0  0  0
  -22.7508  -29.4599   22.4938 C   0  0  0  0  0  0
  -18.0290  -28.1388   22.8501 C   0  0  0  0  0  0
  -24.1487  -36.7277   23.2640 C   0  0  0  0  0  0
  -25.9746  -30.7701   21.3765 C   0  0  0  0  0  0
  -26.0491  -29.3929   20.7174 C   0  0  0  0  0  0
  -27.2267  -28.5757   20.7135 C   0  0  0  0  0  0
  -26.0202  -26.8610   19.4959 C   0  0  0  0  0  0
  -24.8652  -27.6663   19.4877 C   0  0  0  0  0  0
  -23.6453  -29.8102   20.1615 C   0  0  0  0  0  0
  -25.4113  -36.3069   24.0327 C   0  0  1  0  0  0
  -20.5894  -28.3702   23.1277 C   0  0  2  0  0  0
  -20.6775  -26.9425   22.5411 C   0  0  0  0  0  0
  -19.5740  -26.6387   21.5219 C   0  0  0  0  0  0
  -18.1920  -26.7935   22.1627 C   0  0  0  0  0  0
  -19.1545  -28.8863   23.2876 C   0  0  0  0  0  0
  -18.9462  -30.1464   23.8888 C   0  0  0  0  0  0
  -17.6463  -30.6595   24.0560 C   0  0  0  0  0  0
  -25.9063  -34.9442   23.5100 C   0  0  0  0  0  0
  -16.5354  -29.9090   23.6340 C   0  0  0  0  0  0
  -16.7275  -28.6500   23.0376 C   0  0  0  0  0  0
  -26.4509  -31.6589   25.0736 C   0  0  0  0  0  0
  -25.3730  -31.3718   26.1449 C   0  0  0  0  0  0
  -27.0376  -30.3018   24.6224 C   0  0  0  0  0  0
  -27.6064  -32.4335   25.7505 C   0  0  0  0  0  0
  -27.5587  -37.1775   24.8452 C   0  0  0  0  0  0
  -21.4214  -29.3045   22.3676 N   0  0  0  0  0  0
  -26.4274  -37.3783   23.9435 N   0  0  0  0  0  0
  -24.6982  -31.0511   22.0971 N   0  0  0  0  0  0
  -23.4201  -28.8139   23.3044 O   0  0  0  0  0  0
  -28.2653  -26.3257   20.1570 O   0  0  0  0  0  0
  -26.5635  -34.8914   22.4667 O   0  0  0  0  0  0
  -23.5473  -32.1376   23.7282 O   0  0  0  0  0  0
  -27.4986  -22.5344   21.0952 C   0  0  0  0  0  0
  -29.0668  -20.7228   20.4195 C   0  0  0  0  0  0
  -27.8409  -21.1470   21.0193 C   0  0  0  0  0  0
  -28.3294  -23.5706   20.5924 C   0  0  0  0  0  0
  -29.8253  -21.8348   19.8972 C   0  0  0  0  0  0
  -29.5923  -18.3363   21.6862 C   0  0  0  0  0  0
  -28.9764  -18.1727   19.3635 C   0  0  0  0  0  0
  -30.3511  -16.9459   21.5927 C   0  0  0  0  0  0
  -29.6930  -16.7488   19.2864 C   0  0  0  0  0  0
  -29.5967  -19.1852   20.3769 C   0  0  0  0  0  0
  -26.8751  -20.1610   21.6482 C   0  0  0  0  0  0
  -31.1452  -21.6061   19.1840 C   0  0  0  0  0  0
  -28.0042  -25.0981   20.9795 C   0  0  0  0  0  0
  -29.4855  -23.1744   19.9896 N   0  0  0  0  0  0
  -29.9177  -15.9638   20.5475 N   0  0  0  0  0  0
  -31.4604  -12.5893   19.1562 H   0  0  0  0  0  0
  -30.3643  -11.5013   19.9652 H   0  0  0  0  0  0
  -29.7818  -11.7274   17.5201 H   0  0  0  0  0  0
  -29.6272  -13.4574   17.7070 H   0  0  0  0  0  0
  -27.8834  -11.2898   18.9113 H   0  0  0  0  0  0
  -27.3726  -12.5292   17.7973 H   0  0  0  0  0  0
  -27.6178  -14.2606   19.4540 H   0  0  0  0  0  0
  -28.7241  -12.2304   21.4539 H   0  0  0  0  0  0
  -28.4216  -13.9297   21.7567 H   0  0  0  0  0  0
  -25.2761   -9.5691   22.4778 H   0  0  0  0  0  0
  -23.9998   -7.4648   22.7487 H   0  0  0  0  0  0
  -21.0862   -8.8792   19.8949 H   0  0  0  0  0  0
  -22.3710  -10.9694   19.6170 H   0  0  0  0  0  0
  -21.2014   -7.6150   23.9709 H   0  0  0  0  0  0
  -21.1470   -6.0527   25.9076 H   0  0  0  0  0  0
  -22.0599   -2.7611   23.2848 H   0  0  0  0  0  0
  -22.4069  -11.9852   22.4772 H   0  0  0  0  0  0
  -21.1080  -13.1235   22.2621 H   0  0  0  0  0  0
  -24.6664  -15.8597   20.5430 H   0  0  0  0  0  0
  -26.2907  -15.6328   20.1367 H   0  0  0  0  0  0
  -26.7219  -32.5407   23.1093 H   0  0  0  0  0  0
  -25.0088  -33.9704   25.0409 H   0  0  0  0  0  0
  -22.7255  -31.2985   21.3994 H   0  0  0  0  0  0
  -23.3790  -35.9561   23.3214 H   0  0  0  0  0  0
  -24.3596  -36.9003   22.2074 H   0  0  0  0  0  0
  -23.7170  -37.6415   23.6731 H   0  0  0  0  0  0
  -26.1091  -31.5317   20.6060 H   0  0  0  0  0  0
  -26.8536  -30.8217   22.0086 H   0  0  0  0  0  0
  -28.1272  -28.9277   21.1965 H   0  0  0  0  0  0
  -25.9708  -25.8881   19.0261 H   0  0  0  0  0  0
  -23.9656  -27.3012   19.0108 H   0  0  0  0  0  0
  -23.7648  -30.5852   19.4039 H   0  0  0  0  0  0
  -22.7626  -29.2418   19.8611 H   0  0  0  0  0  0
  -25.1281  -36.1908   25.0814 H   0  0  0  0  0  0
  -20.9975  -28.3278   24.1395 H   0  0  0  0  0  0
  -20.5695  -26.2313   23.3612 H   0  0  0  0  0  0
  -21.6636  -26.7450   22.1194 H   0  0  0  0  0  0
  -19.6903  -25.6299   21.1244 H   0  0  0  0  0  0
  -19.6663  -27.3193   20.6745 H   0  0  0  0  0  0
  -17.4196  -26.6712   21.4018 H   0  0  0  0  0  0
  -18.0291  -26.0065   22.9006 H   0  0  0  0  0  0
  -19.7933  -30.7283   24.2253 H   0  0  0  0  0  0
  -17.5014  -31.6273   24.5167 H   0  0  0  0  0  0
  -15.5351  -30.2988   23.7656 H   0  0  0  0  0  0
  -15.8678  -28.0803   22.7110 H   0  0  0  0  0  0
  -24.5884  -30.7109   25.7748 H   0  0  0  0  0  0
  -24.8945  -32.2882   26.4918 H   0  0  0  0  0  0
  -25.8033  -30.8836   27.0207 H   0  0  0  0  0  0
  -26.2972  -29.6739   24.1253 H   0  0  0  0  0  0
  -27.4079  -29.7300   25.4746 H   0  0  0  0  0  0
  -27.8837  -30.4313   23.9467 H   0  0  0  0  0  0
  -27.2703  -33.3685   26.2002 H   0  0  0  0  0  0
  -28.3908  -32.6814   25.0342 H   0  0  0  0  0  0
  -28.0693  -31.8508   26.5479 H   0  0  0  0  0  0
  -28.2523  -38.0157   24.7635 H   0  0  0  0  0  0
  -28.1166  -36.2691   24.6112 H   0  0  0  0  0  0
  -27.2326  -37.1230   25.8855 H   0  0  0  0  0  0
  -20.9417  -29.8778   21.6879 H   0  0  0  0  0  0
  -26.0143  -38.2834   24.1527 H   0  0  0  0  0  0
  -26.5906  -22.8163   21.6107 H   0  0  0  0  0  0
  -30.0331  -18.9250   22.4907 H   0  0  0  0  0  0
  -28.5708  -18.1270   21.9989 H   0  0  0  0  0  0
  -27.9234  -18.0145   19.5938 H   0  0  0  0  0  0
  -28.9889  -18.6182   18.3676 H   0  0  0  0  0  0
  -30.2792  -16.4523   22.5636 H   0  0  0  0  0  0
  -31.4138  -17.1525   21.4478 H   0  0  0  0  0  0
  -30.6630  -16.8921   18.8061 H   0  0  0  0  0  0
  -29.1250  -16.1186   18.5996 H   0  0  0  0  0  0
  -30.6475  -19.2555   20.1029 H   0  0  0  0  0  0
  -25.8690  -20.5777   21.6980 H   0  0  0  0  0  0
  -27.1868  -19.9252   22.6662 H   0  0  0  0  0  0
  -26.8021  -19.2377   21.0788 H   0  0  0  0  0  0
  -31.8795  -21.1724   19.8628 H   0  0  0  0  0  0
  -31.5635  -22.5384   18.8014 H   0  0  0  0  0  0
  -31.0112  -20.9334   18.3365 H   0  0  0  0  0  0
  -28.5561  -25.2678   21.9041 H   0  0  0  0  0  0
  -26.9607  -25.1091   21.2990 H   0  0  0  0  0  0
  1 25  1  0  0  0
  1 30  2  0  0  0
  1 85  1  0  0  0
  2  3  1  0  0  0
  2 25  1  0  0  0
  2 86  1  0  0  0
  2 87  1  0  0  0
  3  4  1  0  0  0
  3 88  1  0  0  0
  3 89  1  0  0  0
  4  5  1  0  0  0
  4 90  1  0  0  0
  4 91  1  0  0  0
  5  6  1  0  0  0
  5 26  1  0  0  0
  5 92  1  0  0  0
  6 25  1  0  0  0
  6 93  1  0  0  0
  6 94  1  0  0  0
  7  8  2  0  0  0
  7 26  1  0  0  0
  7 29  1  0  0  0
  8  9  1  0  0  0
  8 22  1  0  0  0
  9 10  1  0  0  0
  9 27  2  0  0  0
 10 11  2  0  0  0
 10 15  1  0  0  0
 11 12  1  0  0  0
 11 95  1  0  0  0
 12 13  2  0  0  0
 12 96  1  0  0  0
 13 14  1  0  0  0
 13 31  1  0  0  0
 14 15  2  0  0  0
 14 97  1  0  0  0
 15 98  1  0  0  0
 16 17  2  0  0  0
 16 21  1  0  0  0
 16 31  1  0  0  0
 17 18  1  0  0  0
 17 99  1  0  0  0
 18 19  2  0  0  0
 18100  1  0  0  0
 19 20  1  0  0  0
 19 24  1  0  0  0
 20 21  2  0  0  0
 20101  1  0  0  0
 21 23  1  0  0  0
 22 28  1  0  0  0
 22 32  2  0  0  0
 26 27  1  0  0  0
 28102  1  0  0  0
 28103  1  0  0  0
 29104  1  0  0  0
 29105  1  0  0  0
 33 34  1  0  0  0
 33 66  1  0  0  0
 33 70  2  0  0  0
 34 36  1  0  0  0
 34 59  1  0  0  0
 34106  1  0  0  0
 35 44  2  0  0  0
 35 45  1  0  0  0
 35 68  1  0  0  0
 36 56  1  0  0  0
 36107  1  0  0  0
 37 39  1  0  0  0
 37 47  1  0  0  0
 37 66  1  0  0  0
 37108  1  0  0  0
 38 43  2  0  0  0
 38 46  1  0  0  0
 38 47  1  0  0  0
 39 64  1  0  0  0
 39 67  2  0  0  0
 40 52  1  0  0  0
 40 53  2  0  0  0
 40 58  1  0  0  0
 41109  1  0  0  0
 41110  1  0  0  0
 41111  1  0  0  0
 41 48  1  0  0  0
 42 43  1  0  0  0
 42 66  1  0  0  0
 42112  1  0  0  0
 42113  1  0  0  0
 43 44  1  0  0  0
 44114  1  0  0  0
 45 46  2  0  0  0
 45115  1  0  0  0
 46116  1  0  0  0
 47117  1  0  0  0
 47118  1  0  0  0
 48 56  1  0  0  0
 48 65  1  0  0  0
 48119  1  0  0  0
 49 50  1  0  0  0
 49 53  1  0  0  0
 49 64  1  0  0  0
 49120  1  0  0  0
 50 51  1  0  0  0
 50121  1  0  0  0
 50122  1  0  0  0
 51 52  1  0  0  0
 51123  1  0  0  0
 51124  1  0  0  0
 52125  1  0  0  0
 52126  1  0  0  0
 53 54  1  0  0  0
 54 55  2  0  0  0
 54127  1  0  0  0
 55 57  1  0  0  0
 55128  1  0  0  0
 56 69  2  0  0  0
 57 58  2  0  0  0
 57129  1  0  0  0
 58130  1  0  0  0
 59 60  1  0  0  0
 59 61  1  0  0  0
 59 62  1  0  0  0
 60131  1  0  0  0
 60132  1  0  0  0
 60133  1  0  0  0
 61134  1  0  0  0
 61135  1  0  0  0
 61136  1  0  0  0
 62137  1  0  0  0
 62138  1  0  0  0
 62139  1  0  0  0
 63 65  1  0  0  0
 63140  1  0  0  0
 63141  1  0  0  0
 63142  1  0  0  0
 64143  1  0  0  0
 65144  1  0  0  0
 68 83  1  0  0  0
 71 73  2  0  0  0
 71 74  1  0  0  0
 71145  1  0  0  0
 72 73  1  0  0  0
 72 75  2  0  0  0
 72 80  1  0  0  0
 73 81  1  0  0  0
 74 83  1  0  0  0
 74 84  2  0  0  0
 75 82  1  0  0  0
 75 84  1  0  0  0
 76 78  1  0  0  0
 76 80  1  0  0  0
 76146  1  0  0  0
 76147  1  0  0  0
 77 79  1  0  0  0
 77 80  1  0  0  0
 77148  1  0  0  0
 77149  1  0  0  0
 78 85  1  0  0  0
 78150  1  0  0  0
 78151  1  0  0  0
 79 85  1  0  0  0
 79152  1  0  0  0
 79153  1  0  0  0
 80154  1  0  0  0
 81155  1  0  0  0
 81156  1  0  0  0
 81157  1  0  0  0
 82158  1  0  0  0
 82159  1  0  0  0
 82160  1  0  0  0
 83161  1  0  0  0
 83162  1  0  0  0
M  ISO  4   1 100  68 101  83 101  85 100
M  END
> <chiral flag>
0

> <version>
0

> <s_m_source_file>
/data/baiqing/PycharmProjects/Reinvent-master-3.2/result/LINK_invent/BTK/process_docking_weight1_custom_sum_contain_oxygen_bond_distance_aromatic_linkinvent_7_9_3/rearranged_h_0159.sdf

> <i_m_source_file_index>
45

> <r_mmod_Potential_Energy-OPLS-2005>
320.865081787109

> <r_mmod_Stretch_Energy-OPLS-2005>
125.741653442383

> <r_mmod_Bend_Energy-OPLS-2005>
206.114715576172

> <r_mmod_Torsional_Energy-OPLS-2005>
355.559387207031

> <r_mmod_Improper_Torsional_Energy-OPLS-2005>
11.8374128341675

> <r_mmod_Van_der_Waal_Energy-OPLS-2005>
142.443893432617

> <r_mmod_Electrostatic_Energy-OPLS-2005>
-404.858062744141

> <r_mmod_Solvation_Energy-OPLS-2005>
-210.89338684082

> <b_mmod_Minimization_Converged-OPLS-2005>
0

> <r_mmod_RMS_Derivative-OPLS-2005>
1.74376153945923

$$$$
45
                    3D
 Structure written by MMmdl.
163172  0  0  1  0            999 V2000
  -30.5246  -15.0197   20.3967 C   0  0  0  0  0  0
  -30.4328  -12.6302   19.5083 C   0  0  0  0  0  0
  -29.5203  -12.5382   18.2630 C   0  0  0  0  0  0
  -28.0569  -12.3119   18.6835 C   0  0  0  0  0  0
  -27.6230  -13.2553   19.8349 C   0  0  2  0  0  0
  -28.6645  -13.3211   20.9715 C   0  0  0  0  0  0
  -25.2443  -13.8236   20.5735 C   0  0  0  0  0  0
  -24.1772  -13.0439   20.9246 C   0  0  0  0  0  0
  -24.6396  -11.6929   20.8763 C   0  0  0  0  0  0
  -23.9083  -10.4291   21.0412 C   0  0  0  0  0  0
  -24.3632   -9.4209   21.9190 C   0  0  0  0  0  0
  -23.6306   -8.2245   22.0760 C   0  0  0  0  0  0
  -22.4287   -8.0284   21.3545 C   0  0  0  0  0  0
  -21.9919   -9.0256   20.4647 C   0  0  0  0  0  0
  -22.7249  -10.2135   20.3059 C   0  0  0  0  0  0
  -21.6861   -6.0740   22.5283 C   0  0  0  0  0  0
  -21.4014   -6.5641   23.8213 C   0  0  0  0  0  0
  -21.3662   -5.6796   24.9174 C   0  0  0  0  0  0
  -21.6049   -4.3061   24.7223 C   0  0  0  0  0  0
  -21.8818   -3.8151   23.4343 C   0  0  0  0  0  0
  -21.9194   -4.6967   22.3402 C   0  0  0  0  0  0
  -22.7785  -13.5196   21.1889 C   0  0  0  0  0  0
  -22.1661   -4.2154   21.0981 F   0  0  0  0  0  0
  -21.5628   -3.4542   25.7731 F   0  0  0  0  0  0
  -29.9279  -13.7521   20.3605 N   0  0  0  0  0  0
  -26.2859  -12.9470   20.3253 N   0  0  0  0  0  0
  -25.9331  -11.6590   20.5752 N   0  0  0  0  0  0
  -22.0438  -12.8183   22.0445 N   0  0  0  0  0  0
  -25.4090  -15.1970   20.4158 N   0  0  0  0  0  0
  -31.7365  -15.0306   20.1535 O   0  0  0  0  0  0
  -21.6649   -6.8886   21.4248 O   0  0  0  0  0  0
  -22.3458  -14.5491   20.6726 O   0  0  0  0  0  0
  -24.6485  -31.8377   23.1832 C   0  0  0  0  0  0
  -25.9232  -32.4660   23.8238 C   0  0  1  0  0  0
  -27.2209  -27.0843   20.1667 C   0  0  0  0  0  0
  -25.5966  -33.8468   24.2163 N   0  0  0  0  0  0
  -23.4538  -30.4531   21.5296 C   0  0  2  0  0  0
  -24.9038  -28.8615   20.1188 C   0  0  0  0  0  0
  -22.7582  -29.4516   22.4853 C   0  0  0  0  0  0
  -18.0307  -28.1396   22.8470 C   0  0  0  0  0  0
  -24.1492  -36.7239   23.2646 C   0  0  0  0  0  0
  -26.0125  -30.6961   21.3870 C   0  0  0  0  0  0
  -26.0837  -29.2985   20.7355 C   0  0  0  0  0  0
  -27.2449  -28.4292   20.7325 C   0  0  0  0  0  0
  -26.0127  -26.7513   19.5210 C   0  0  0  0  0  0
  -24.8832  -27.6031   19.4951 C   0  0  0  0  0  0
  -23.6838  -29.7724   20.1529 C   0  0  0  0  0  0
  -25.4125  -36.3011   24.0317 C   0  0  1  0  0  0
  -20.5922  -28.3737   23.1220 C   0  0  2  0  0  0
  -20.6781  -26.9435   22.5397 C   0  0  0  0  0  0
  -19.5760  -26.6385   21.5195 C   0  0  0  0  0  0
  -18.1945  -26.7932   22.1613 C   0  0  0  0  0  0
  -19.1565  -28.8886   23.2835 C   0  0  0  0  0  0
  -18.9482  -30.1476   23.8864 C   0  0  0  0  0  0
  -17.6478  -30.6588   24.0559 C   0  0  0  0  0  0
  -25.9084  -34.9385   23.5052 C   0  0  0  0  0  0
  -16.5366  -29.9082   23.6335 C   0  0  0  0  0  0
  -16.7293  -28.6502   23.0355 C   0  0  0  0  0  0
  -26.4537  -31.6541   25.0697 C   0  0  0  0  0  0
  -25.3714  -31.3730   26.1393 C   0  0  0  0  0  0
  -27.0414  -30.2929   24.6309 C   0  0  0  0  0  0
  -27.6061  -32.4315   25.7486 C   0  0  0  0  0  0
  -27.5575  -37.1778   24.8468 C   0  0  0  0  0  0
  -21.4274  -29.3048   22.3595 N   0  0  0  0  0  0
  -26.4284  -37.3729   23.9413 N   0  0  0  0  0  0
  -24.7252  -31.0187   22.0886 N   0  0  0  0  0  0
  -23.4194  -28.8084   23.3042 O   0  0  0  0  0  0
  -28.2847  -26.0970   20.1595 O   0  0  0  0  0  0
  -26.5669  -34.8895   22.4631 O   0  0  0  0  0  0
  -23.5598  -32.1277   23.7028 O   0  0  0  0  0  0
  -31.4412  -18.1264   20.3426 C   0  0  0  0  0  0
  -29.1986  -18.9889   20.4171 C   0  0  0  0  0  0
  -31.9075  -19.4599   20.3092 C   0  0  0  0  0  0
  -30.0839  -17.7694   20.4046 C   0  0  0  0  0  0
  -29.6125  -20.4405   20.3317 C   0  0  0  0  0  0
  -31.0329  -20.5975   20.2500 C   0  0  0  0  0  0
  -29.7500  -22.5422   17.4666 C   0  0  0  0  0  0
  -29.1267  -23.9101   17.3450 C   0  0  0  0  0  0
  -29.6135  -23.4202   18.6942 C   0  0  0  0  0  0
  -33.4194  -19.6016   20.4436 C   0  0  0  0  0  0
  -32.5723  -22.1709   19.2824 C   0  0  0  0  0  0
  -28.1201  -24.5779   20.5676 C   0  0  0  0  0  0
  -28.6132  -23.1220   19.7907 C   0  0  2  0  0  0
  -29.7557  -16.2419   20.4917 N   0  0  0  0  0  0
  -28.7360  -21.6713   20.4560 N   0  0  0  0  0  0
  -31.5407  -21.8829   20.2313 O   0  0  0  0  0  0
  -31.4667  -12.7831   19.1965 H   0  0  0  0  0  0
  -30.4297  -11.6898   20.0625 H   0  0  0  0  0  0
  -29.8497  -11.7326   17.6047 H   0  0  0  0  0  0
  -29.5983  -13.4616   17.6861 H   0  0  0  0  0  0
  -27.9648  -11.2739   19.0052 H   0  0  0  0  0  0
  -27.3928  -12.4244   17.8259 H   0  0  0  0  0  0
  -27.5749  -14.2483   19.3878 H   0  0  0  0  0  0
  -28.7715  -12.3545   21.4659 H   0  0  0  0  0  0
  -28.3559  -14.0300   21.7414 H   0  0  0  0  0  0
  -25.2771   -9.5678   22.4768 H   0  0  0  0  0  0
  -24.0017   -7.4626   22.7474 H   0  0  0  0  0  0
  -21.0862   -8.8769   19.8942 H   0  0  0  0  0  0
  -22.3714  -10.9676   19.6169 H   0  0  0  0  0  0
  -21.2006   -7.6146   23.9715 H   0  0  0  0  0  0
  -21.1487   -6.0523   25.9072 H   0  0  0  0  0  0
  -22.0596   -2.7615   23.2844 H   0  0  0  0  0  0
  -22.4080  -11.9857   22.4832 H   0  0  0  0  0  0
  -21.1042  -13.1182   22.2641 H   0  0  0  0  0  0
  -24.6358  -15.8449   20.5285 H   0  0  0  0  0  0
  -26.2445  -15.6382   20.0534 H   0  0  0  0  0  0
  -26.7298  -32.5243   23.0967 H   0  0  0  0  0  0
  -25.0083  -33.9568   25.0294 H   0  0  0  0  0  0
  -22.7587  -31.2801   21.3667 H   0  0  0  0  0  0
  -23.3758  -35.9565   23.3281 H   0  0  0  0  0  0
  -24.3578  -36.8900   22.2065 H   0  0  0  0  0  0
  -23.7242  -37.6425   23.6701 H   0  0  0  0  0  0
  -26.1697  -31.4440   20.6091 H   0  0  0  0  0  0
  -26.8817  -30.7513   22.0307 H   0  0  0  0  0  0
  -28.1507  -28.7663   21.2164 H   0  0  0  0  0  0
  -25.9309  -25.7869   19.0393 H   0  0  0  0  0  0
  -23.9841  -27.2641   18.9984 H   0  0  0  0  0  0
  -23.8301  -30.5407   19.3932 H   0  0  0  0  0  0
  -22.7967  -29.2189   19.8396 H   0  0  0  0  0  0
  -25.1312  -36.1828   25.0808 H   0  0  0  0  0  0
  -21.0001  -28.3327   24.1349 H   0  0  0  0  0  0
  -20.5653  -26.2353   23.3624 H   0  0  0  0  0  0
  -21.6653  -26.7413   22.1216 H   0  0  0  0  0  0
  -19.6924  -25.6284   21.1259 H   0  0  0  0  0  0
  -19.6702  -27.3165   20.6703 H   0  0  0  0  0  0
  -17.4209  -26.6674   21.4024 H   0  0  0  0  0  0
  -18.0360  -26.0072   22.9014 H   0  0  0  0  0  0
  -19.7958  -30.7302   24.2217 H   0  0  0  0  0  0
  -17.5031  -31.6262   24.5173 H   0  0  0  0  0  0
  -15.5368  -30.2978   23.7672 H   0  0  0  0  0  0
  -15.8694  -28.0808   22.7092 H   0  0  0  0  0  0
  -24.5927  -30.7041   25.7706 H   0  0  0  0  0  0
  -24.8877  -32.2909   26.4739 H   0  0  0  0  0  0
  -25.8011  -30.8962   27.0214 H   0  0  0  0  0  0
  -26.3039  -29.6638   24.1321 H   0  0  0  0  0  0
  -27.4008  -29.7245   25.4895 H   0  0  0  0  0  0
  -27.8949  -30.4141   23.9639 H   0  0  0  0  0  0
  -27.2655  -33.3653   26.1968 H   0  0  0  0  0  0
  -28.3924  -32.6816   25.0348 H   0  0  0  0  0  0
  -28.0668  -31.8500   26.5484 H   0  0  0  0  0  0
  -28.2574  -38.0087   24.7508 H   0  0  0  0  0  0
  -28.1090  -36.2618   24.6301 H   0  0  0  0  0  0
  -27.2296  -37.1419   25.8871 H   0  0  0  0  0  0
  -20.9511  -29.8750   21.6750 H   0  0  0  0  0  0
  -26.0145  -38.2796   24.1411 H   0  0  0  0  0  0
  -32.1887  -17.3495   20.3673 H   0  0  0  0  0  0
  -28.1385  -18.8011   20.5066 H   0  0  0  0  0  0
  -30.7419  -22.4065   17.0414 H   0  0  0  0  0  0
  -29.0944  -21.6759   17.3963 H   0  0  0  0  0  0
  -28.0541  -23.9544   17.1684 H   0  0  0  0  0  0
  -29.7099  -24.6788   16.8416 H   0  0  0  0  0  0
  -30.4868  -23.9560   19.0507 H   0  0  0  0  0  0
  -33.8751  -18.6960   20.8455 H   0  0  0  0  0  0
  -33.6739  -20.4006   21.1390 H   0  0  0  0  0  0
  -33.8886  -19.7925   19.4789 H   0  0  0  0  0  0
  -32.4800  -23.1886   18.9101 H   0  0  0  0  0  0
  -32.5384  -21.5092   18.4135 H   0  0  0  0  0  0
  -33.5629  -22.1234   19.7315 H   0  0  0  0  0  0
  -28.6362  -24.5517   21.5279 H   0  0  0  0  0  0
  -27.0730  -24.4499   20.8418 H   0  0  0  0  0  0
  -27.7098  -22.9249   19.2124 H   0  0  0  0  0  0
  -28.7747  -16.0482   20.6245 H   0  0  0  0  0  0
  -27.8455  -21.4321   20.8831 H   0  0  0  0  0  0
  1 25  1  0  0  0
  1 30  2  0  0  0
  1 84  1  0  0  0
  2  3  1  0  0  0
  2 25  1  0  0  0
  2 87  1  0  0  0
  2 88  1  0  0  0
  3  4  1  0  0  0
  3 89  1  0  0  0
  3 90  1  0  0  0
  4  5  1  0  0  0
  4 91  1  0  0  0
  4 92  1  0  0  0
  5  6  1  0  0  0
  5 26  1  0  0  0
  5 93  1  0  0  0
  6 25  1  0  0  0
  6 94  1  0  0  0
  6 95  1  0  0  0
  7  8  2  0  0  0
  7 26  1  0  0  0
  7 29  1  0  0  0
  8  9  1  0  0  0
  8 22  1  0  0  0
  9 10  1  0  0  0
  9 27  2  0  0  0
 10 11  2  0  0  0
 10 15  1  0  0  0
 11 12  1  0  0  0
 11 96  1  0  0  0
 12 13  2  0  0  0
 12 97  1  0  0  0
 13 14  1  0  0  0
 13 31  1  0  0  0
 14 15  2  0  0  0
 14 98  1  0  0  0
 15 99  1  0  0  0
 16 17  2  0  0  0
 16 21  1  0  0  0
 16 31  1  0  0  0
 17 18  1  0  0  0
 17100  1  0  0  0
 18 19  2  0  0  0
 18101  1  0  0  0
 19 20  1  0  0  0
 19 24  1  0  0  0
 20 21  2  0  0  0
 20102  1  0  0  0
 21 23  1  0  0  0
 22 28  1  0  0  0
 22 32  2  0  0  0
 26 27  1  0  0  0
 28103  1  0  0  0
 28104  1  0  0  0
 29105  1  0  0  0
 29106  1  0  0  0
 33 34  1  0  0  0
 33 66  1  0  0  0
 33 70  2  0  0  0
 34 36  1  0  0  0
 34 59  1  0  0  0
 34107  1  0  0  0
 35 44  2  0  0  0
 35 45  1  0  0  0
 35 68  1  0  0  0
 36 56  1  0  0  0
 36108  1  0  0  0
 37 39  1  0  0  0
 37 47  1  0  0  0
 37 66  1  0  0  0
 37109  1  0  0  0
 38 43  2  0  0  0
 38 46  1  0  0  0
 38 47  1  0  0  0
 39 64  1  0  0  0
 39 67  2  0  0  0
 40 52  1  0  0  0
 40 53  2  0  0  0
 40 58  1  0  0  0
 41110  1  0  0  0
 41111  1  0  0  0
 41112  1  0  0  0
 41 48  1  0  0  0
 42 43  1  0  0  0
 42 66  1  0  0  0
 42113  1  0  0  0
 42114  1  0  0  0
 43 44  1  0  0  0
 44115  1  0  0  0
 45 46  2  0  0  0
 45116  1  0  0  0
 46117  1  0  0  0
 47118  1  0  0  0
 47119  1  0  0  0
 48 56  1  0  0  0
 48 65  1  0  0  0
 48120  1  0  0  0
 49 50  1  0  0  0
 49 53  1  0  0  0
 49 64  1  0  0  0
 49121  1  0  0  0
 50 51  1  0  0  0
 50122  1  0  0  0
 50123  1  0  0  0
 51 52  1  0  0  0
 51124  1  0  0  0
 51125  1  0  0  0
 52126  1  0  0  0
 52127  1  0  0  0
 53 54  1  0  0  0
 54 55  2  0  0  0
 54128  1  0  0  0
 55 57  1  0  0  0
 55129  1  0  0  0
 56 69  2  0  0  0
 57 58  2  0  0  0
 57130  1  0  0  0
 58131  1  0  0  0
 59 60  1  0  0  0
 59 61  1  0  0  0
 59 62  1  0  0  0
 60132  1  0  0  0
 60133  1  0  0  0
 60134  1  0  0  0
 61135  1  0  0  0
 61136  1  0  0  0
 61137  1  0  0  0
 62138  1  0  0  0
 62139  1  0  0  0
 62140  1  0  0  0
 63 65  1  0  0  0
 63141  1  0  0  0
 63142  1  0  0  0
 63143  1  0  0  0
 64144  1  0  0  0
 65145  1  0  0  0
 68 82  1  0  0  0
 71 73  2  0  0  0
 71 74  1  0  0  0
 71146  1  0  0  0
 72 74  2  0  0  0
 72 75  1  0  0  0
 72147  1  0  0  0
 73 76  1  0  0  0
 73 80  1  0  0  0
 74 84  1  0  0  0
 75 76  2  0  0  0
 75 85  1  0  0  0
 76 86  1  0  0  0
 77 78  1  0  0  0
 77148  1  0  0  0
 77149  1  0  0  0
 77 79  1  0  0  0
 78 79  1  0  0  0
 78150  1  0  0  0
 78151  1  0  0  0
 79 83  1  0  0  0
 79152  1  0  0  0
 80153  1  0  0  0
 80154  1  0  0  0
 80155  1  0  0  0
 81 86  1  0  0  0
 81156  1  0  0  0
 81157  1  0  0  0
 81158  1  0  0  0
 82159  1  0  0  0
 82160  1  0  0  0
 82 83  1  0  0  0
 83 85  1  0  0  0
 83161  1  0  0  0
 84162  1  0  0  0
 85163  1  0  0  0
M  ISO  4   1 100  68 101  82 101  84 100
M  END
> <chiral flag>
0

> <version>
0

> <s_m_source_file>
/data/baiqing/PycharmProjects/Reinvent-master-3.2/result/LINK_invent/BTK/process_docking_weight1_custom_sum_contain_oxygen_bond_distance_aromatic_linkinvent_7_9_3/rearranged_h_0159.sdf

> <i_m_source_file_index>
46

> <r_mmod_Potential_Energy-OPLS-2005>
775.543823242188

> <r_mmod_Stretch_Energy-OPLS-2005>
337.602630615234

> <r_mmod_Bend_Energy-OPLS-2005>
338.427947998047

> <r_mmod_Torsional_Energy-OPLS-2005>
302.469482421875

> <r_mmod_Improper_Torsional_Energy-OPLS-2005>
6.53942966461182

> <r_mmod_Van_der_Waal_Energy-OPLS-2005>
140.844696044922

> <r_mmod_Electrostatic_Energy-OPLS-2005>
-357.651672363281

> <r_mmod_Solvation_Energy-OPLS-2005>
-228.768707275391

> <b_mmod_Minimization_Converged-OPLS-2005>
0

> <r_mmod_RMS_Derivative-OPLS-2005>
1.84554362297058

$$$$
46
                    3D
 Structure written by MMmdl.
176186  0  0  1  0            999 V2000
  -30.3720  -14.9261   20.6103 C   0  0  0  0  0  0
  -30.4405  -12.6026   19.5614 C   0  0  0  0  0  0
  -29.5383  -12.5851   18.2969 C   0  0  0  0  0  0
  -28.0710  -12.3012   18.6930 C   0  0  0  0  0  0
  -27.6214  -13.2093   19.8675 C   0  0  2  0  0  0
  -28.6252  -13.0831   21.0261 C   0  0  0  0  0  0
  -25.2221  -13.8097   20.5558 C   0  0  0  0  0  0
  -24.1606  -13.0249   20.9196 C   0  0  0  0  0  0
  -24.6288  -11.6825   20.8662 C   0  0  0  0  0  0
  -23.9044  -10.4190   21.0423 C   0  0  0  0  0  0
  -24.3639   -9.4109   21.9184 C   0  0  0  0  0  0
  -23.6319   -8.2136   22.0726 C   0  0  0  0  0  0
  -22.4277   -8.0228   21.3566 C   0  0  0  0  0  0
  -21.9902   -9.0174   20.4632 C   0  0  0  0  0  0
  -22.7236  -10.2059   20.3035 C   0  0  0  0  0  0
  -21.6826   -6.0680   22.5286 C   0  0  0  0  0  0
  -21.3996   -6.5603   23.8200 C   0  0  0  0  0  0
  -21.3679   -5.6786   24.9185 C   0  0  0  0  0  0
  -21.6056   -4.3042   24.7260 C   0  0  0  0  0  0
  -21.8819   -3.8104   23.4392 C   0  0  0  0  0  0
  -21.9181   -4.6898   22.3432 C   0  0  0  0  0  0
  -22.7698  -13.4977   21.2018 C   0  0  0  0  0  0
  -22.1681   -4.2072   21.1018 F   0  0  0  0  0  0
  -21.5667   -3.4554   25.7795 F   0  0  0  0  0  0
  -29.8922  -13.6213   20.5129 N   0  0  0  0  0  0
  -26.2669  -12.9263   20.3152 N   0  0  0  0  0  0
  -25.9173  -11.6417   20.5623 N   0  0  0  0  0  0
  -22.0559  -12.7778   22.0646 N   0  0  0  0  0  0
  -25.3490  -15.1832   20.4016 N   0  0  0  0  0  0
  -31.5399  -15.0991   20.1908 O   0  0  0  0  0  0
  -21.6631   -6.8847   21.4278 O   0  0  0  0  0  0
  -22.3271  -14.5281   20.7014 O   0  0  0  0  0  0
  -24.6357  -31.8497   23.1738 C   0  0  0  0  0  0
  -25.9174  -32.4683   23.8166 C   0  0  1  0  0  0
  -27.2389  -27.2314   20.1755 C   0  0  0  0  0  0
  -25.5982  -33.8460   24.2145 N   0  0  0  0  0  0
  -23.4274  -30.4559   21.5292 C   0  0  2  0  0  0
  -24.8727  -28.8697   20.1044 C   0  0  0  0  0  0
  -22.7492  -29.4640   22.5053 C   0  0  0  0  0  0
  -18.0306  -28.1396   22.8640 C   0  0  0  0  0  0
  -24.1537  -36.7240   23.2624 C   0  0  0  0  0  0
  -25.9660  -30.7524   21.3492 C   0  0  0  0  0  0
  -26.0376  -29.3685   20.7024 C   0  0  0  0  0  0
  -27.2089  -28.5558   20.7299 C   0  0  0  0  0  0
  -26.0698  -26.7912   19.5239 C   0  0  0  0  0  0
  -24.8965  -27.5904   19.5039 C   0  0  0  0  0  0
  -23.6229  -29.7282   20.1660 C   0  0  0  0  0  0
  -25.4149  -36.2987   24.0318 C   0  0  1  0  0  0
  -20.5858  -28.3865   23.1386 C   0  0  2  0  0  0
  -20.6911  -26.9786   22.5121 C   0  0  0  0  0  0
  -19.5867  -26.7163   21.4870 C   0  0  0  0  0  0
  -18.2083  -26.8107   22.1502 C   0  0  0  0  0  0
  -19.1500  -28.8991   23.2929 C   0  0  0  0  0  0
  -18.9394  -30.1767   23.8654 C   0  0  0  0  0  0
  -17.6367  -30.6746   24.0342 C   0  0  0  0  0  0
  -25.9096  -34.9380   23.5011 C   0  0  0  0  0  0
  -16.5292  -29.9044   23.6355 C   0  0  0  0  0  0
  -16.7266  -28.6434   23.0429 C   0  0  0  0  0  0
  -26.4501  -31.6544   25.0599 C   0  0  0  0  0  0
  -25.3646  -31.3790   26.1282 C   0  0  0  0  0  0
  -27.0365  -30.2935   24.6156 C   0  0  0  0  0  0
  -27.6063  -32.4309   25.7397 C   0  0  0  0  0  0
  -27.5586  -37.1752   24.8456 C   0  0  0  0  0  0
  -21.4142  -29.3470   22.4134 N   0  0  0  0  0  0
  -26.4319  -37.3694   23.9380 N   0  0  0  0  0  0
  -24.6968  -31.0407   22.0735 N   0  0  0  0  0  0
  -23.4196  -28.7897   23.2867 O   0  0  0  0  0  0
  -28.3249  -26.3798   20.4702 O   0  0  0  0  0  0
  -26.5666  -34.8901   22.4600 O   0  0  0  0  0  0
  -23.5519  -32.1473   23.7016 O   0  0  0  0  0  0
  -27.2279  -21.8222   18.4086 C   0  0  0  0  0  0
  -27.7951  -23.1230   18.5387 C   0  0  0  0  0  0
  -26.9753  -21.0000   19.5383 C   0  0  0  0  0  0
  -28.2819  -22.6115   20.8666 C   0  0  0  0  0  0
  -28.1947  -23.6309   19.8094 C   0  0  0  0  0  0
  -27.7689  -21.2247   20.7132 C   0  0  0  0  0  0
  -26.5005  -21.0623   23.7854 C   0  0  0  0  0  0
  -26.5662  -19.6126   24.1693 C   0  0  0  0  0  0
  -27.9639  -17.4064   22.3523 C   0  0  0  0  0  0
  -28.3956  -15.9968   21.8981 C   0  0  0  0  0  0
  -29.5873  -17.5658   20.6864 C   0  0  0  0  0  0
  -26.7231  -20.0210   22.6922 C   0  0  0  0  0  0
  -28.2866  -18.3860   21.2432 C   0  0  1  0  0  0
  -27.0433  -21.2026   17.0126 C   0  0  0  0  0  0
  -28.0326  -23.9527   17.2650 C   0  0  0  0  0  0
  -25.8310  -19.9360   19.4422 C   0  0  0  0  0  0
  -29.0241  -23.0146   22.1440 C   0  0  0  0  0  0
  -28.8306  -25.1243   19.8270 C   0  0  0  0  0  0
  -27.9936  -19.9859   21.7516 C   0  0  2  0  0  0
  -29.5110  -16.0361   20.9402 N   0  0  0  0  0  0
  -31.4823  -12.7871   19.2970 H   0  0  0  0  0  0
  -30.4467  -11.6225   20.0426 H   0  0  0  0  0  0
  -29.8843  -11.8455   17.5747 H   0  0  0  0  0  0
  -29.5987  -13.5538   17.7971 H   0  0  0  0  0  0
  -28.0254  -11.2615   19.0248 H   0  0  0  0  0  0
  -27.4072  -12.3826   17.8331 H   0  0  0  0  0  0
  -27.6339  -14.2327   19.4878 H   0  0  0  0  0  0
  -28.7326  -12.0354   21.3190 H   0  0  0  0  0  0
  -28.2608  -13.5356   21.9426 H   0  0  0  0  0  0
  -25.2863   -9.5523   22.4648 H   0  0  0  0  0  0
  -24.0080   -7.4483   22.7365 H   0  0  0  0  0  0
  -21.0823   -8.8672   19.8909 H   0  0  0  0  0  0
  -22.3782  -10.9562   19.6044 H   0  0  0  0  0  0
  -21.1982   -7.6107   23.9675 H   0  0  0  0  0  0
  -21.1542   -6.0557   25.9093 H   0  0  0  0  0  0
  -22.0587   -2.7564   23.2942 H   0  0  0  0  0  0
  -22.4483  -11.9417   22.4642 H   0  0  0  0  0  0
  -21.1181  -13.0573   22.3141 H   0  0  0  0  0  0
  -24.5749  -15.8179   20.5734 H   0  0  0  0  0  0
  -26.1990  -15.6642   20.1370 H   0  0  0  0  0  0
  -26.7226  -32.5360   23.0903 H   0  0  0  0  0  0
  -25.0189  -33.9589   25.0316 H   0  0  0  0  0  0
  -22.7243  -31.2741   21.3584 H   0  0  0  0  0  0
  -23.3792  -35.9572   23.3264 H   0  0  0  0  0  0
  -24.3575  -36.8870   22.2023 H   0  0  0  0  0  0
  -23.7317  -37.6456   23.6651 H   0  0  0  0  0  0
  -26.1003  -31.5022   20.5689 H   0  0  0  0  0  0
  -26.8350  -30.8022   21.9920 H   0  0  0  0  0  0
  -28.0844  -28.9162   21.2533 H   0  0  0  0  0  0
  -26.0185  -25.7788   19.1402 H   0  0  0  0  0  0
  -23.9886  -27.1725   19.0840 H   0  0  0  0  0  0
  -23.6583  -30.4493   19.3499 H   0  0  0  0  0  0
  -22.7596  -29.0922   19.9617 H   0  0  0  0  0  0
  -25.1335  -36.1794   25.0814 H   0  0  0  0  0  0
  -20.9829  -28.3146   24.1555 H   0  0  0  0  0  0
  -20.5897  -26.2412   23.3067 H   0  0  0  0  0  0
  -21.6776  -26.8124   22.0708 H   0  0  0  0  0  0
  -19.7180  -25.7465   21.0018 H   0  0  0  0  0  0
  -19.6521  -27.4794   20.7058 H   0  0  0  0  0  0
  -17.4297  -26.6955   21.3978 H   0  0  0  0  0  0
  -18.0631  -26.0023   22.8624 H   0  0  0  0  0  0
  -19.7833  -30.7924   24.1521 H   0  0  0  0  0  0
  -17.4845  -31.6595   24.4641 H   0  0  0  0  0  0
  -15.5234  -30.2832   23.7617 H   0  0  0  0  0  0
  -15.8812  -28.0604   22.6956 H   0  0  0  0  0  0
  -24.5735  -30.7286   25.7520 H   0  0  0  0  0  0
  -24.8947  -32.3052   26.4625 H   0  0  0  0  0  0
  -25.7852  -30.8918   27.0081 H   0  0  0  0  0  0
  -26.3020  -29.6632   24.1129 H   0  0  0  0  0  0
  -27.3978  -29.7228   25.4715 H   0  0  0  0  0  0
  -27.8875  -30.4166   23.9443 H   0  0  0  0  0  0
  -27.2629  -33.3577   26.2013 H   0  0  0  0  0  0
  -28.3839  -32.6930   25.0190 H   0  0  0  0  0  0
  -28.0762  -31.8391   26.5275 H   0  0  0  0  0  0
  -28.2620  -38.0029   24.7481 H   0  0  0  0  0  0
  -28.1106  -36.2586   24.6345 H   0  0  0  0  0  0
  -27.2299  -37.1403   25.8855 H   0  0  0  0  0  0
  -20.9243  -30.0047   21.8282 H   0  0  0  0  0  0
  -26.0198  -38.2785   24.1304 H   0  0  0  0  0  0
  -27.3204  -21.6490   24.1729 H   0  0  0  0  0  0
  -25.5321  -21.5670   23.7974 H   0  0  0  0  0  0
  -25.6146  -19.1790   24.4925 H   0  0  0  0  0  0
  -27.4235  -19.3322   24.7711 H   0  0  0  0  0  0
  -28.5415  -17.6877   23.2359 H   0  0  0  0  0  0
  -26.9064  -17.4161   22.6238 H   0  0  0  0  0  0
  -28.6670  -15.4282   22.7814 H   0  0  0  0  0  0
  -27.5510  -15.5269   21.4205 H   0  0  0  0  0  0
  -30.4912  -17.9663   21.1329 H   0  0  0  0  0  0
  -29.6462  -17.7179   19.6089 H   0  0  0  0  0  0
  -25.8274  -19.7645   22.1398 H   0  0  0  0  0  0
  -27.5901  -18.1405   20.4704 H   0  0  0  0  0  0
  -27.9781  -21.2054   16.4541 H   0  0  0  0  0  0
  -26.3038  -21.6874   16.3782 H   0  0  0  0  0  0
  -26.7874  -20.1532   17.0659 H   0  0  0  0  0  0
  -27.7059  -23.5035   16.3324 H   0  0  0  0  0  0
  -29.0955  -24.1465   17.1105 H   0  0  0  0  0  0
  -27.5023  -24.8997   17.3254 H   0  0  0  0  0  0
  -25.3627  -19.8341   18.4609 H   0  0  0  0  0  0
  -24.9868  -20.1442   20.1011 H   0  0  0  0  0  0
  -26.0600  -18.9258   19.7109 H   0  0  0  0  0  0
  -29.0908  -24.0924   22.2646 H   0  0  0  0  0  0
  -30.0318  -22.6023   22.1680 H   0  0  0  0  0  0
  -28.5371  -22.7106   23.0512 H   0  0  0  0  0  0
  -29.1493  -25.4586   18.8467 H   0  0  0  0  0  0
  -29.8021  -24.9672   20.3023 H   0  0  0  0  0  0
  -28.8410  -20.2629   22.3734 H   0  0  0  0  0  0
  1 25  1  0  0  0
  1 30  2  0  0  0
  1 90  1  0  0  0
  2  3  1  0  0  0
  2 25  1  0  0  0
  2 91  1  0  0  0
  2 92  1  0  0  0
  3  4  1  0  0  0
  3 93  1  0  0  0
  3 94  1  0  0  0
  4  5  1  0  0  0
  4 95  1  0  0  0
  4 96  1  0  0  0
  5  6  1  0  0  0
  5 26  1  0  0  0
  5 97  1  0  0  0
  6 25  1  0  0  0
  6 98  1  0  0  0
  6 99  1  0  0  0
  7  8  2  0  0  0
  7 26  1  0  0  0
  7 29  1  0  0  0
  8  9  1  0  0  0
  8 22  1  0  0  0
  9 10  1  0  0  0
  9 27  2  0  0  0
 10 11  2  0  0  0
 10 15  1  0  0  0
 11 12  1  0  0  0
 11100  1  0  0  0
 12 13  2  0  0  0
 12101  1  0  0  0
 13 14  1  0  0  0
 13 31  1  0  0  0
 14 15  2  0  0  0
 14102  1  0  0  0
 15103  1  0  0  0
 16 17  2  0  0  0
 16 21  1  0  0  0
 16 31  1  0  0  0
 17 18  1  0  0  0
 17104  1  0  0  0
 18 19  2  0  0  0
 18105  1  0  0  0
 19 20  1  0  0  0
 19 24  1  0  0  0
 20 21  2  0  0  0
 20106  1  0  0  0
 21 23  1  0  0  0
 22 28  1  0  0  0
 22 32  2  0  0  0
 26 27  1  0  0  0
 28107  1  0  0  0
 28108  1  0  0  0
 29109  1  0  0  0
 29110  1  0  0  0
 33 34  1  0  0  0
 33 66  1  0  0  0
 33 70  2  0  0  0
 34 36  1  0  0  0
 34 59  1  0  0  0
 34111  1  0  0  0
 35 44  2  0  0  0
 35 45  1  0  0  0
 35 68  1  0  0  0
 36 56  1  0  0  0
 36112  1  0  0  0
 37 39  1  0  0  0
 37 47  1  0  0  0
 37 66  1  0  0  0
 37113  1  0  0  0
 38 43  2  0  0  0
 38 46  1  0  0  0
 38 47  1  0  0  0
 39 64  1  0  0  0
 39 67  2  0  0  0
 40 52  1  0  0  0
 40 53  2  0  0  0
 40 58  1  0  0  0
 41114  1  0  0  0
 41115  1  0  0  0
 41116  1  0  0  0
 41 48  1  0  0  0
 42 43  1  0  0  0
 42 66  1  0  0  0
 42117  1  0  0  0
 42118  1  0  0  0
 43 44  1  0  0  0
 44119  1  0  0  0
 45 46  2  0  0  0
 45120  1  0  0  0
 46121  1  0  0  0
 47122  1  0  0  0
 47123  1  0  0  0
 48 56  1  0  0  0
 48 65  1  0  0  0
 48124  1  0  0  0
 49 50  1  0  0  0
 49 53  1  0  0  0
 49 64  1  0  0  0
 49125  1  0  0  0
 50 51  1  0  0  0
 50126  1  0  0  0
 50127  1  0  0  0
 51 52  1  0  0  0
 51128  1  0  0  0
 51129  1  0  0  0
 52130  1  0  0  0
 52131  1  0  0  0
 53 54  1  0  0  0
 54 55  2  0  0  0
 54132  1  0  0  0
 55 57  1  0  0  0
 55133  1  0  0  0
 56 69  2  0  0  0
 57 58  2  0  0  0
 57134  1  0  0  0
 58135  1  0  0  0
 59 60  1  0  0  0
 59 61  1  0  0  0
 59 62  1  0  0  0
 60136  1  0  0  0
 60137  1  0  0  0
 60138  1  0  0  0
 61139  1  0  0  0
 61140  1  0  0  0
 61141  1  0  0  0
 62142  1  0  0  0
 62143  1  0  0  0
 62144  1  0  0  0
 63 65  1  0  0  0
 63145  1  0  0  0
 63146  1  0  0  0
 63147  1  0  0  0
 64148  1  0  0  0
 65149  1  0  0  0
 68 88  1  0  0  0
 71 72  2  0  0  0
 71 73  1  0  0  0
 71 84  1  0  0  0
 72 75  1  0  0  0
 72 85  1  0  0  0
 73 76  2  0  0  0
 73 86  1  0  0  0
 74 75  2  0  0  0
 74 76  1  0  0  0
 74 87  1  0  0  0
 75 88  1  0  0  0
 76 89  1  0  0  0
 77 78  1  0  0  0
 77150  1  0  0  0
 77151  1  0  0  0
 77 82  1  0  0  0
 78 82  1  0  0  0
 78152  1  0  0  0
 78153  1  0  0  0
 79 80  1  0  0  0
 79154  1  0  0  0
 79155  1  0  0  0
 79 83  1  0  0  0
 80 90  1  0  0  0
 80156  1  0  0  0
 80157  1  0  0  0
 81 83  1  0  0  0
 81 90  1  0  0  0
 81158  1  0  0  0
 81159  1  0  0  0
 82 89  1  0  0  0
 82160  1  0  0  0
 83 89  1  0  0  0
 83161  1  0  0  0
 84162  1  0  0  0
 84163  1  0  0  0
 84164  1  0  0  0
 85165  1  0  0  0
 85166  1  0  0  0
 85167  1  0  0  0
 86168  1  0  0  0
 86169  1  0  0  0
 86170  1  0  0  0
 87171  1  0  0  0
 87172  1  0  0  0
 87173  1  0  0  0
 88174  1  0  0  0
 88175  1  0  0  0
 89176  1  0  0  0
M  ISO  4   1 100  68 101  88 101  90 100
M  END
> <chiral flag>
0

> <version>
0

> <s_m_source_file>
/data/baiqing/PycharmProjects/Reinvent-master-3.2/result/LINK_invent/BTK/process_docking_weight1_custom_sum_contain_oxygen_bond_distance_aromatic_linkinvent_7_9_3/rearranged_h_0159.sdf

> <i_m_source_file_index>
47

> <r_mmod_Potential_Energy-OPLS-2005>
906.474731445312

> <r_mmod_Stretch_Energy-OPLS-2005>
230.546432495117

> <r_mmod_Bend_Energy-OPLS-2005>
370.717926025391

> <r_mmod_Torsional_Energy-OPLS-2005>
424.137939453125

> <r_mmod_Improper_Torsional_Energy-OPLS-2005>
10.8208465576172

> <r_mmod_Van_der_Waal_Energy-OPLS-2005>
178.197036743164

> <r_mmod_Electrostatic_Energy-OPLS-2005>
-293.158935546875

> <r_mmod_Solvation_Energy-OPLS-2005>
-197.509704589844

> <b_mmod_Minimization_Converged-OPLS-2005>
0

> <r_mmod_RMS_Derivative-OPLS-2005>
17.5998191833496

$$$$
47
                    3D
 Structure written by MMmdl.
167176  0  0  1  0            999 V2000
  -30.6566  -14.6951   20.5093 C   0  0  0  0  0  0
  -30.4279  -12.4438   19.4516 C   0  0  0  0  0  0
  -29.5024  -12.5171   18.2179 C   0  0  0  0  0  0
  -28.0280  -12.3353   18.6316 C   0  0  0  0  0  0
  -27.6410  -13.2163   19.8491 C   0  0  2  0  0  0
  -28.6895  -13.0965   20.9768 C   0  0  0  0  0  0
  -25.2475  -13.8129   20.5624 C   0  0  0  0  0  0
  -24.1778  -13.0397   20.9188 C   0  0  0  0  0  0
  -24.6361  -11.6877   20.8730 C   0  0  0  0  0  0
  -23.9036  -10.4270   21.0395 C   0  0  0  0  0  0
  -24.3598   -9.4199   21.9175 C   0  0  0  0  0  0
  -23.6292   -8.2220   22.0749 C   0  0  0  0  0  0
  -22.4272   -8.0259   21.3538 C   0  0  0  0  0  0
  -21.9893   -9.0219   20.4638 C   0  0  0  0  0  0
  -22.7207  -10.2102   20.3046 C   0  0  0  0  0  0
  -21.6847   -6.0724   22.5278 C   0  0  0  0  0  0
  -21.3993   -6.5628   23.8208 C   0  0  0  0  0  0
  -21.3662   -5.6787   24.9175 C   0  0  0  0  0  0
  -21.6050   -4.3047   24.7223 C   0  0  0  0  0  0
  -21.8818   -3.8135   23.4343 C   0  0  0  0  0  0
  -21.9189   -4.6953   22.3396 C   0  0  0  0  0  0
  -22.7809  -13.5196   21.1860 C   0  0  0  0  0  0
  -22.1673   -4.2141   21.0975 F   0  0  0  0  0  0
  -21.5633   -3.4528   25.7734 F   0  0  0  0  0  0
  -29.9836  -13.4925   20.4039 N   0  0  0  0  0  0
  -26.2907  -12.9329   20.3240 N   0  0  0  0  0  0
  -25.9284  -11.6484   20.5721 N   0  0  0  0  0  0
  -22.0467  -12.8195   22.0427 N   0  0  0  0  0  0
  -25.4061  -15.1834   20.3943 N   0  0  0  0  0  0
  -31.8397  -14.7432   20.1527 O   0  0  0  0  0  0
  -21.6638   -6.8862   21.4242 O   0  0  0  0  0  0
  -22.3507  -14.5514   20.6722 O   0  0  0  0  0  0
  -24.6273  -31.8590   23.2011 C   0  0  0  0  0  0
  -25.9122  -32.4763   23.8345 C   0  0  1  0  0  0
  -27.2281  -27.3142   20.1054 C   0  0  0  0  0  0
  -25.5948  -33.8570   24.2275 N   0  0  0  0  0  0
  -23.4201  -30.4816   21.5447 C   0  0  2  0  0  0
  -24.8642  -28.9326   20.1107 C   0  0  0  0  0  0
  -22.7477  -29.4622   22.4947 C   0  0  0  0  0  0
  -18.0283  -28.1392   22.8476 C   0  0  0  0  0  0
  -24.1487  -36.7279   23.2635 C   0  0  0  0  0  0
  -25.9617  -30.7867   21.3709 C   0  0  0  0  0  0
  -26.0331  -29.4135   20.7119 C   0  0  0  0  0  0
  -27.2131  -28.6133   20.7039 C   0  0  0  0  0  0
  -26.0261  -26.8742   19.5056 C   0  0  0  0  0  0
  -24.8614  -27.6675   19.5029 C   0  0  0  0  0  0
  -23.6328  -29.8140   20.1601 C   0  0  0  0  0  0
  -25.4109  -36.3067   24.0332 C   0  0  1  0  0  0
  -20.5885  -28.3688   23.1293 C   0  0  2  0  0  0
  -20.6778  -26.9418   22.5408 C   0  0  0  0  0  0
  -19.5759  -26.6394   21.5212 C   0  0  0  0  0  0
  -18.1931  -26.7937   22.1611 C   0  0  0  0  0  0
  -19.1535  -28.8860   23.2871 C   0  0  0  0  0  0
  -18.9457  -30.1461   23.8877 C   0  0  0  0  0  0
  -17.6459  -30.6595   24.0561 C   0  0  0  0  0  0
  -25.9051  -34.9449   23.5094 C   0  0  0  0  0  0
  -16.5347  -29.9084   23.6346 C   0  0  0  0  0  0
  -16.7272  -28.6512   23.0348 C   0  0  0  0  0  0
  -26.4496  -31.6582   25.0727 C   0  0  0  0  0  0
  -25.3731  -31.3754   26.1464 C   0  0  0  0  0  0
  -27.0321  -30.2992   24.6192 C   0  0  0  0  0  0
  -27.6067  -32.4310   25.7491 C   0  0  0  0  0  0
  -27.5590  -37.1779   24.8451 C   0  0  0  0  0  0
  -21.4196  -29.3039   22.3693 N   0  0  0  0  0  0
  -26.4270  -37.3782   23.9428 N   0  0  0  0  0  0
  -24.6893  -31.0604   22.0953 N   0  0  0  0  0  0
  -23.4204  -28.8175   23.3036 O   0  0  0  0  0  0
  -28.3598  -26.4843   20.1793 O   0  0  0  0  0  0
  -26.5617  -34.8922   22.4654 O   0  0  0  0  0  0
  -23.5444  -32.1396   23.7335 O   0  0  0  0  0  0
  -29.5914  -22.0804   21.3653 C   0  0  0  0  0  0
  -29.2840  -23.4456   21.0560 C   0  0  0  0  0  0
  -28.5596  -22.7217   18.8677 C   0  0  0  0  0  0
  -28.7449  -23.8154   19.7868 C   0  0  0  0  0  0
  -28.9912  -21.3726   19.1564 C   0  0  0  0  0  0
  -29.4761  -21.0012   20.4452 C   0  0  0  0  0  0
  -28.7209  -17.7652   21.6656 C   0  0  0  0  0  0
  -28.7750  -16.2288   21.4445 C   0  0  0  0  0  0
  -30.5439  -17.2457   20.2765 C   0  0  0  0  0  0
  -29.4806  -18.3920   20.5021 C   0  0  2  0  0  0
  -27.9335  -23.0086   17.5016 C   0  0  0  0  0  0
  -29.0663  -20.3568   18.0234 C   0  0  0  0  0  0
  -28.4285  -24.8220   23.0236 C   0  0  0  0  0  0
  -29.6143  -24.4999   22.1060 C   0  0  0  0  0  0
  -28.5526  -25.3237   19.2856 C   0  0  0  0  0  0
  -29.9800  -15.9067   20.6645 N   0  0  0  0  0  0
  -30.0055  -19.7374   20.8313 O   0  0  0  0  0  0
  -31.4678  -12.5623   19.1427 H   0  0  0  0  0  0
  -30.3767  -11.4564   19.9149 H   0  0  0  0  0  0
  -29.7851  -11.7574   17.4870 H   0  0  0  0  0  0
  -29.6273  -13.4816   17.7220 H   0  0  0  0  0  0
  -27.8802  -11.2834   18.8789 H   0  0  0  0  0  0
  -27.3686  -12.5434   17.7876 H   0  0  0  0  0  0
  -27.6478  -14.2409   19.4794 H   0  0  0  0  0  0
  -28.7360  -12.0653   21.3322 H   0  0  0  0  0  0
  -28.4153  -13.6771   21.8515 H   0  0  0  0  0  0
  -25.2744   -9.5678   22.4744 H   0  0  0  0  0  0
  -24.0008   -7.4606   22.7448 H   0  0  0  0  0  0
  -21.0829   -8.8708   19.8945 H   0  0  0  0  0  0
  -22.3655  -10.9627   19.6139 H   0  0  0  0  0  0
  -21.1978   -7.6137   23.9704 H   0  0  0  0  0  0
  -21.1492   -6.0519   25.9081 H   0  0  0  0  0  0
  -22.0596   -2.7602   23.2830 H   0  0  0  0  0  0
  -22.4103  -11.9869   22.4821 H   0  0  0  0  0  0
  -21.1067  -13.1180   22.2613 H   0  0  0  0  0  0
  -24.6281  -15.8267   20.4931 H   0  0  0  0  0  0
  -26.2420  -15.6230   20.0329 H   0  0  0  0  0  0
  -26.7189  -32.5418   23.1099 H   0  0  0  0  0  0
  -25.0127  -33.9718   25.0437 H   0  0  0  0  0  0
  -22.7135  -31.3024   21.4025 H   0  0  0  0  0  0
  -23.3776  -35.9579   23.3239 H   0  0  0  0  0  0
  -24.3595  -36.8956   22.2064 H   0  0  0  0  0  0
  -23.7201  -37.6451   23.6683 H   0  0  0  0  0  0
  -26.0966  -31.5503   20.6032 H   0  0  0  0  0  0
  -26.8416  -30.8303   22.0023 H   0  0  0  0  0  0
  -28.1099  -28.9814   21.1822 H   0  0  0  0  0  0
  -25.9409  -25.8900   19.0716 H   0  0  0  0  0  0
  -23.9576  -27.2848   19.0491 H   0  0  0  0  0  0
  -23.7528  -30.5902   19.4037 H   0  0  0  0  0  0
  -22.7505  -29.2460   19.8585 H   0  0  0  0  0  0
  -25.1283  -36.1904   25.0825 H   0  0  0  0  0  0
  -20.9963  -28.3247   24.1420 H   0  0  0  0  0  0
  -20.5700  -26.2296   23.3600 H   0  0  0  0  0  0
  -21.6642  -26.7462   22.1187 H   0  0  0  0  0  0
  -19.6919  -25.6305   21.1244 H   0  0  0  0  0  0
  -19.6706  -27.3202   20.6740 H   0  0  0  0  0  0
  -17.4213  -26.6688   21.4003 H   0  0  0  0  0  0
  -18.0316  -26.0084   22.9015 H   0  0  0  0  0  0
  -19.7933  -30.7279   24.2234 H   0  0  0  0  0  0
  -17.5017  -31.6271   24.5167 H   0  0  0  0  0  0
  -15.5342  -30.2967   23.7709 H   0  0  0  0  0  0
  -15.8674  -28.0836   22.7053 H   0  0  0  0  0  0
  -24.5837  -30.7188   25.7795 H   0  0  0  0  0  0
  -24.9016  -32.2945   26.4950 H   0  0  0  0  0  0
  -25.8048  -30.8863   27.0200 H   0  0  0  0  0  0
  -26.2887  -29.6750   24.1222 H   0  0  0  0  0  0
  -27.4008  -29.7249   25.4700 H   0  0  0  0  0  0
  -27.8764  -30.4265   23.9412 H   0  0  0  0  0  0
  -27.2700  -33.3635   26.2028 H   0  0  0  0  0  0
  -28.3894  -32.6820   25.0325 H   0  0  0  0  0  0
  -28.0696  -31.8449   26.5438 H   0  0  0  0  0  0
  -28.2540  -38.0144   24.7578 H   0  0  0  0  0  0
  -28.1143  -36.2677   24.6139 H   0  0  0  0  0  0
  -27.2328  -37.1259   25.8855 H   0  0  0  0  0  0
  -20.9391  -29.8741   21.6875 H   0  0  0  0  0  0
  -26.0145  -38.2839   24.1479 H   0  0  0  0  0  0
  -30.0038  -21.8601   22.3394 H   0  0  0  0  0  0
  -29.2256  -18.0132   22.5999 H   0  0  0  0  0  0
  -27.7010  -18.1463   21.7383 H   0  0  0  0  0  0
  -27.9038  -15.9244   20.8727 H   0  0  0  0  0  0
  -28.7538  -15.7184   22.4062 H   0  0  0  0  0  0
  -31.4122  -17.4269   20.9121 H   0  0  0  0  0  0
  -30.9045  -17.2375   19.2470 H   0  0  0  0  0  0
  -28.7898  -18.4070   19.6625 H   0  0  0  0  0  0
  -28.6538  -23.4871   16.8372 H   0  0  0  0  0  0
  -27.0557  -23.6472   17.5944 H   0  0  0  0  0  0
  -27.5552  -22.1158   17.0068 H   0  0  0  0  0  0
  -28.1077  -19.8583   17.8789 H   0  0  0  0  0  0
  -29.8403  -19.6114   18.1999 H   0  0  0  0  0  0
  -29.3620  -20.8288   17.0870 H   0  0  0  0  0  0
  -28.6804  -25.6336   23.7071 H   0  0  0  0  0  0
  -28.1498  -23.9571   23.6260 H   0  0  0  0  0  0
  -27.5532  -25.1325   22.4526 H   0  0  0  0  0  0
  -29.9861  -25.4061   21.6297 H   0  0  0  0  0  0
  -30.4499  -24.1504   22.7139 H   0  0  0  0  0  0
  -27.8658  -25.3864   18.4500 H   0  0  0  0  0  0
  -29.5056  -25.5465   18.8053 H   0  0  0  0  0  0
  1 25  1  0  0  0
  1 30  2  0  0  0
  1 86  1  0  0  0
  2  3  1  0  0  0
  2 25  1  0  0  0
  2 88  1  0  0  0
  2 89  1  0  0  0
  3  4  1  0  0  0
  3 90  1  0  0  0
  3 91  1  0  0  0
  4  5  1  0  0  0
  4 92  1  0  0  0
  4 93  1  0  0  0
  5  6  1  0  0  0
  5 26  1  0  0  0
  5 94  1  0  0  0
  6 25  1  0  0  0
  6 95  1  0  0  0
  6 96  1  0  0  0
  7  8  2  0  0  0
  7 26  1  0  0  0
  7 29  1  0  0  0
  8  9  1  0  0  0
  8 22  1  0  0  0
  9 10  1  0  0  0
  9 27  2  0  0  0
 10 11  2  0  0  0
 10 15  1  0  0  0
 11 12  1  0  0  0
 11 97  1  0  0  0
 12 13  2  0  0  0
 12 98  1  0  0  0
 13 14  1  0  0  0
 13 31  1  0  0  0
 14 15  2  0  0  0
 14 99  1  0  0  0
 15100  1  0  0  0
 16 17  2  0  0  0
 16 21  1  0  0  0
 16 31  1  0  0  0
 17 18  1  0  0  0
 17101  1  0  0  0
 18 19  2  0  0  0
 18102  1  0  0  0
 19 20  1  0  0  0
 19 24  1  0  0  0
 20 21  2  0  0  0
 20103  1  0  0  0
 21 23  1  0  0  0
 22 28  1  0  0  0
 22 32  2  0  0  0
 26 27  1  0  0  0
 28104  1  0  0  0
 28105  1  0  0  0
 29106  1  0  0  0
 29107  1  0  0  0
 33 34  1  0  0  0
 33 66  1  0  0  0
 33 70  2  0  0  0
 34 36  1  0  0  0
 34 59  1  0  0  0
 34108  1  0  0  0
 35 44  2  0  0  0
 35 45  1  0  0  0
 35 68  1  0  0  0
 36 56  1  0  0  0
 36109  1  0  0  0
 37 39  1  0  0  0
 37 47  1  0  0  0
 37 66  1  0  0  0
 37110  1  0  0  0
 38 43  2  0  0  0
 38 46  1  0  0  0
 38 47  1  0  0  0
 39 64  1  0  0  0
 39 67  2  0  0  0
 40 52  1  0  0  0
 40 53  2  0  0  0
 40 58  1  0  0  0
 41111  1  0  0  0
 41112  1  0  0  0
 41113  1  0  0  0
 41 48  1  0  0  0
 42 43  1  0  0  0
 42 66  1  0  0  0
 42114  1  0  0  0
 42115  1  0  0  0
 43 44  1  0  0  0
 44116  1  0  0  0
 45 46  2  0  0  0
 45117  1  0  0  0
 46118  1  0  0  0
 47119  1  0  0  0
 47120  1  0  0  0
 48 56  1  0  0  0
 48 65  1  0  0  0
 48121  1  0  0  0
 49 50  1  0  0  0
 49 53  1  0  0  0
 49 64  1  0  0  0
 49122  1  0  0  0
 50 51  1  0  0  0
 50123  1  0  0  0
 50124  1  0  0  0
 51 52  1  0  0  0
 51125  1  0  0  0
 51126  1  0  0  0
 52127  1  0  0  0
 52128  1  0  0  0
 53 54  1  0  0  0
 54 55  2  0  0  0
 54129  1  0  0  0
 55 57  1  0  0  0
 55130  1  0  0  0
 56 69  2  0  0  0
 57 58  2  0  0  0
 57131  1  0  0  0
 58132  1  0  0  0
 59 60  1  0  0  0
 59 61  1  0  0  0
 59 62  1  0  0  0
 60133  1  0  0  0
 60134  1  0  0  0
 60135  1  0  0  0
 61136  1  0  0  0
 61137  1  0  0  0
 61138  1  0  0  0
 62139  1  0  0  0
 62140  1  0  0  0
 62141  1  0  0  0
 63 65  1  0  0  0
 63142  1  0  0  0
 63143  1  0  0  0
 63144  1  0  0  0
 64145  1  0  0  0
 65146  1  0  0  0
 68 85  1  0  0  0
 71 72  2  0  0  0
 71 76  1  0  0  0
 71147  1  0  0  0
 72 74  1  0  0  0
 72 84  1  0  0  0
 73 74  2  0  0  0
 73 75  1  0  0  0
 73 81  1  0  0  0
 74 85  1  0  0  0
 75 76  2  0  0  0
 75 82  1  0  0  0
 76 87  1  0  0  0
 77 78  1  0  0  0
 77 80  1  0  0  0
 77148  1  0  0  0
 77149  1  0  0  0
 78 86  1  0  0  0
 78150  1  0  0  0
 78151  1  0  0  0
 79 80  1  0  0  0
 79 86  1  0  0  0
 79152  1  0  0  0
 79153  1  0  0  0
 80 87  1  0  0  0
 80154  1  0  0  0
 81155  1  0  0  0
 81156  1  0  0  0
 81157  1  0  0  0
 82158  1  0  0  0
 82159  1  0  0  0
 82160  1  0  0  0
 83 84  1  0  0  0
 83161  1  0  0  0
 83162  1  0  0  0
 83163  1  0  0  0
 84164  1  0  0  0
 84165  1  0  0  0
 85166  1  0  0  0
 85167  1  0  0  0
M  ISO  4   1 100  68 101  85 101  86 100
M  END
> <chiral flag>
0

> <version>
0

> <s_m_source_file>
/data/baiqing/PycharmProjects/Reinvent-master-3.2/result/LINK_invent/BTK/process_docking_weight1_custom_sum_contain_oxygen_bond_distance_aromatic_linkinvent_7_9_3/rearranged_h_0159.sdf

> <i_m_source_file_index>
48

> <r_mmod_Potential_Energy-OPLS-2005>
353.429168701172

> <r_mmod_Stretch_Energy-OPLS-2005>
101.58292388916

> <r_mmod_Bend_Energy-OPLS-2005>
223.689147949219

> <r_mmod_Torsional_Energy-OPLS-2005>
332.618041992188

> <r_mmod_Improper_Torsional_Energy-OPLS-2005>
12.0191717147827

> <r_mmod_Van_der_Waal_Energy-OPLS-2005>
154.245407104492

> <r_mmod_Electrostatic_Energy-OPLS-2005>
-326.939361572266

> <r_mmod_Solvation_Energy-OPLS-2005>
-202.074844360352

> <b_mmod_Minimization_Converged-OPLS-2005>
0

> <r_mmod_RMS_Derivative-OPLS-2005>
2.44401907920837

$$$$
48
                    3D
 Structure written by MMmdl.
171181  0  0  1  0            999 V2000
  -30.7890  -14.4709   20.4625 C   0  0  0  0  0  0
  -30.4317  -12.2807   19.4088 C   0  0  0  0  0  0
  -29.4863  -12.3853   18.1965 C   0  0  0  0  0  0
  -28.0249  -12.1599   18.6370 C   0  0  0  0  0  0
  -27.6288  -13.0839   19.8018 C   0  0  2  0  0  0
  -28.7054  -13.0781   20.9360 C   0  0  0  0  0  0
  -25.2689  -13.7782   20.5688 C   0  0  0  0  0  0
  -24.1814  -13.0255   20.9162 C   0  0  0  0  0  0
  -24.6212  -11.6680   20.8769 C   0  0  0  0  0  0
  -23.8855  -10.4173   21.0438 C   0  0  0  0  0  0
  -24.3435   -9.4139   21.9233 C   0  0  0  0  0  0
  -23.6145   -8.2173   22.0795 C   0  0  0  0  0  0
  -22.4169   -8.0180   21.3523 C   0  0  0  0  0  0
  -21.9744   -9.0168   20.4676 C   0  0  0  0  0  0
  -22.7036  -10.2054   20.3090 C   0  0  0  0  0  0
  -21.6824   -6.0644   22.5240 C   0  0  0  0  0  0
  -21.3984   -6.5581   23.8160 C   0  0  0  0  0  0
  -21.3678   -5.6778   24.9153 C   0  0  0  0  0  0
  -21.6033   -4.3033   24.7222 C   0  0  0  0  0  0
  -21.8824   -3.8078   23.4361 C   0  0  0  0  0  0
  -21.9193   -4.6876   22.3400 C   0  0  0  0  0  0
  -22.7883  -13.5233   21.1839 C   0  0  0  0  0  0
  -22.1685   -4.2055   21.0991 F   0  0  0  0  0  0
  -21.5665   -3.4524   25.7747 F   0  0  0  0  0  0
  -30.0461  -13.3255   20.3637 N   0  0  0  0  0  0
  -26.2882  -12.8659   20.3145 N   0  0  0  0  0  0
  -25.9072  -11.5986   20.5778 N   0  0  0  0  0  0
  -22.0470  -12.8308   22.0437 N   0  0  0  0  0  0
  -25.4632  -15.1504   20.4324 N   0  0  0  0  0  0
  -31.9932  -14.5218   20.2165 O   0  0  0  0  0  0
  -21.6591   -6.8749   21.4174 O   0  0  0  0  0  0
  -22.3684  -14.5610   20.6743 O   0  0  0  0  0  0
  -24.5983  -31.8745   23.2191 C   0  0  0  0  0  0
  -25.8938  -32.4849   23.8456 C   0  0  1  0  0  0
  -27.2629  -27.5486   20.0590 C   0  0  0  0  0  0
  -25.5855  -33.8649   24.2397 N   0  0  0  0  0  0
  -23.3843  -30.4931   21.5570 C   0  0  2  0  0  0
  -24.8389  -28.9691   20.1195 C   0  0  0  0  0  0
  -22.7337  -29.4627   22.5047 C   0  0  0  0  0  0
  -18.0250  -28.1349   22.8507 C   0  0  0  0  0  0
  -24.1484  -36.7320   23.2637 C   0  0  0  0  0  0
  -25.9035  -30.8662   21.3612 C   0  0  0  0  0  0
  -25.9868  -29.5079   20.7143 C   0  0  0  0  0  0
  -27.1940  -28.7973   20.6903 C   0  0  0  0  0  0
  -26.0991  -26.9934   19.4718 C   0  0  0  0  0  0
  -24.8843  -27.7036   19.5087 C   0  0  0  0  0  0
  -23.5948  -29.8209   20.1710 C   0  0  0  0  0  0
  -25.4090  -36.3132   24.0365 C   0  0  1  0  0  0
  -20.5818  -28.3581   23.1371 C   0  0  2  0  0  0
  -20.6732  -26.9323   22.5441 C   0  0  0  0  0  0
  -19.5743  -26.6375   21.5194 C   0  0  0  0  0  0
  -18.1898  -26.7908   22.1603 C   0  0  0  0  0  0
  -19.1491  -28.8786   23.2936 C   0  0  0  0  0  0
  -18.9430  -30.1374   23.8949 C   0  0  0  0  0  0
  -17.6448  -30.6557   24.0539 C   0  0  0  0  0  0
  -25.9011  -34.9494   23.5186 C   0  0  0  0  0  0
  -16.5334  -29.9062   23.6328 C   0  0  0  0  0  0
  -16.7232  -28.6479   23.0358 C   0  0  0  0  0  0
  -26.4451  -31.6578   25.0717 C   0  0  0  0  0  0
  -25.3776  -31.3645   26.1508 C   0  0  0  0  0  0
  -27.0224  -30.3049   24.5927 C   0  0  0  0  0  0
  -27.6053  -32.4279   25.7436 C   0  0  0  0  0  0
  -27.5580  -37.1793   24.8471 C   0  0  0  0  0  0
  -21.4071  -29.2966   22.3794 N   0  0  0  0  0  0
  -26.4280  -37.3789   23.9441 N   0  0  0  0  0  0
  -24.6459  -31.0939   22.1042 N   0  0  0  0  0  0
  -23.4173  -28.8109   23.2977 O   0  0  0  0  0  0
  -28.4959  -26.9547   20.0361 O   0  0  0  0  0  0
  -26.5550  -34.8935   22.4726 O   0  0  0  0  0  0
  -23.5212  -32.1431   23.7702 O   0  0  0  0  0  0
  -29.0737  -19.0977   21.2263 C   0  0  0  0  0  0
  -27.4938  -17.7898   19.2518 C   0  0  0  0  0  0
  -29.4851  -17.8804   20.6702 C   0  0  0  0  0  0
  -27.8104  -19.6344   20.8207 C   0  0  0  0  0  0
  -28.6860  -17.2740   19.7369 C   0  0  0  0  0  0
  -27.0186  -18.9668   19.8376 C   0  0  0  0  0  0
  -30.5997  -16.9315   21.0739 C   0  0  0  0  0  0
  -29.0059  -15.8618   19.6862 C   0  0  0  0  0  0
  -28.1728  -21.5495   22.5125 C   0  0  0  0  0  0
  -26.9589  -21.9251   20.2524 C   0  0  0  0  0  0
  -27.8447  -23.0100   22.8533 C   0  0  0  0  0  0
  -26.5809  -23.2745   20.7986 C   0  0  0  0  0  0
  -27.2612  -20.9295   21.4051 C   0  0  1  0  0  0
  -25.3290  -19.2813   18.1939 C   0  0  0  0  0  0
  -27.9128  -25.1747   21.5744 C   0  0  0  0  0  0
  -28.5484  -25.5658   20.2200 C   0  0  0  0  0  0
  -30.0991  -15.6162   20.6124 N   0  0  0  0  0  0
  -27.7476  -23.7250   21.5690 N   0  3  1  0  0  0
  -25.7480  -19.4014   19.5489 O   0  0  0  0  0  0
  -31.4699  -12.3604   19.0814 H   0  0  0  0  0  0
  -30.3431  -11.3038   19.8822 H   0  0  0  0  0  0
  -29.7613  -11.6440   17.4419 H   0  0  0  0  0  0
  -29.6037  -13.3566   17.7154 H   0  0  0  0  0  0
  -27.9157  -11.1164   18.9328 H   0  0  0  0  0  0
  -27.3441  -12.2998   17.7936 H   0  0  0  0  0  0
  -27.5274  -13.9873   19.2270 H   0  0  0  0  0  0
  -28.6995  -12.1162   21.4481 H   0  0  0  0  0  0
  -28.4570  -13.8149   21.7017 H   0  0  0  0  0  0
  -25.2590   -9.5611   22.4784 H   0  0  0  0  0  0
  -23.9847   -7.4566   22.7510 H   0  0  0  0  0  0
  -21.0692   -8.8662   19.8967 H   0  0  0  0  0  0
  -22.3514  -10.9584   19.6184 H   0  0  0  0  0  0
  -21.1944   -7.6083   23.9615 H   0  0  0  0  0  0
  -21.1544   -6.0518   25.9067 H   0  0  0  0  0  0
  -22.0608   -2.7525   23.2881 H   0  0  0  0  0  0
  -22.3936  -11.9896   22.4834 H   0  0  0  0  0  0
  -21.1096  -13.1414   22.2594 H   0  0  0  0  0  0
  -24.7438  -15.8173   20.6858 H   0  0  0  0  0  0
  -26.3601  -15.5879   20.2836 H   0  0  0  0  0  0
  -26.6992  -32.5624   23.1210 H   0  0  0  0  0  0
  -25.0058  -33.9884   25.0575 H   0  0  0  0  0  0
  -22.6635  -31.3028   21.4183 H   0  0  0  0  0  0
  -23.3752  -35.9661   23.3310 H   0  0  0  0  0  0
  -24.3532  -36.8896   22.2041 H   0  0  0  0  0  0
  -23.7264  -37.6543   23.6625 H   0  0  0  0  0  0
  -25.9993  -31.6324   20.5901 H   0  0  0  0  0  0
  -26.8027  -30.9248   21.9662 H   0  0  0  0  0  0
  -28.0855  -29.2110   21.1431 H   0  0  0  0  0  0
  -26.1268  -26.0519   18.9460 H   0  0  0  0  0  0
  -24.0019  -27.2879   19.0383 H   0  0  0  0  0  0
  -23.6820  -30.5930   19.4036 H   0  0  0  0  0  0
  -22.7294  -29.2238   19.8802 H   0  0  0  0  0  0
  -25.1242  -36.2014   25.0858 H   0  0  0  0  0  0
  -20.9869  -28.3155   24.1508 H   0  0  0  0  0  0
  -20.5568  -26.2169   23.3603 H   0  0  0  0  0  0
  -21.6605  -26.7356   22.1253 H   0  0  0  0  0  0
  -19.6872  -25.6304   21.1149 H   0  0  0  0  0  0
  -19.6727  -27.3242   20.6771 H   0  0  0  0  0  0
  -17.4160  -26.6650   21.3996 H   0  0  0  0  0  0
  -18.0282  -26.0016   22.8968 H   0  0  0  0  0  0
  -19.7899  -30.7121   24.2392 H   0  0  0  0  0  0
  -17.5026  -31.6248   24.5086 H   0  0  0  0  0  0
  -15.5337  -30.2983   23.7649 H   0  0  0  0  0  0
  -15.8627  -28.0810   22.7108 H   0  0  0  0  0  0
  -24.6012  -30.6892   25.7893 H   0  0  0  0  0  0
  -24.8892  -32.2774   26.4947 H   0  0  0  0  0  0
  -25.8193  -30.8885   27.0273 H   0  0  0  0  0  0
  -26.2670  -29.6849   24.1068 H   0  0  0  0  0  0
  -27.4143  -29.7229   25.4279 H   0  0  0  0  0  0
  -27.8479  -30.4409   23.8923 H   0  0  0  0  0  0
  -27.2693  -33.3581   26.2040 H   0  0  0  0  0  0
  -28.3825  -32.6806   25.0211 H   0  0  0  0  0  0
  -28.0754  -31.8378   26.5322 H   0  0  0  0  0  0
  -28.2581  -38.0089   24.7460 H   0  0  0  0  0  0
  -28.1052  -36.2600   24.6317 H   0  0  0  0  0  0
  -27.2262  -37.1457   25.8857 H   0  0  0  0  0  0
  -20.9206  -29.8791   21.7127 H   0  0  0  0  0  0
  -26.0189  -38.2880   24.1414 H   0  0  0  0  0  0
  -29.6831  -19.5295   22.0062 H   0  0  0  0  0  0
  -26.8849  -17.1959   18.5845 H   0  0  0  0  0  0
  -30.8048  -16.9339   22.1440 H   0  0  0  0  0  0
  -31.5139  -17.1966   20.5422 H   0  0  0  0  0  0
  -29.1214  -15.4795   18.6706 H   0  0  0  0  0  0
  -28.1301  -15.5134   20.2088 H   0  0  0  0  0  0
  -28.1436  -20.9347   23.4133 H   0  0  0  0  0  0
  -29.2118  -21.5696   22.1784 H   0  0  0  0  0  0
  -27.8157  -22.0201   19.5846 H   0  0  0  0  0  0
  -26.1285  -21.6219   19.6240 H   0  0  0  0  0  0
  -28.6444  -23.4277   23.4735 H   0  0  0  0  0  0
  -26.9159  -23.0956   23.4166 H   0  0  0  0  0  0
  -25.6840  -23.2122   21.4177 H   0  0  0  0  0  0
  -26.3343  -23.9400   19.9721 H   0  0  0  0  0  0
  -26.3064  -20.6792   21.8705 H   0  0  0  0  0  0
  -24.4462  -19.8970   18.0344 H   0  0  0  0  0  0
  -25.0658  -18.2567   17.9301 H   0  0  0  0  0  0
  -26.1055  -19.6332   17.5127 H   0  0  0  0  0  0
  -26.9333  -25.6225   21.7525 H   0  0  0  0  0  0
  -28.5608  -25.4947   22.3888 H   0  0  0  0  0  0
  -28.1052  -25.0728   19.3558 H   0  0  0  0  0  0
  -29.5974  -25.2716   20.2099 H   0  0  0  0  0  0
  -28.5478  -23.4030   21.0463 H   0  0  0  0  0  0
  1 25  1  0  0  0
  1 30  2  0  0  0
  1 87  1  0  0  0
  2  3  1  0  0  0
  2 25  1  0  0  0
  2 90  1  0  0  0
  2 91  1  0  0  0
  3  4  1  0  0  0
  3 92  1  0  0  0
  3 93  1  0  0  0
  4  5  1  0  0  0
  4 94  1  0  0  0
  4 95  1  0  0  0
  5  6  1  0  0  0
  5 26  1  0  0  0
  5 96  1  0  0  0
  6 25  1  0  0  0
  6 97  1  0  0  0
  6 98  1  0  0  0
  7  8  2  0  0  0
  7 26  1  0  0  0
  7 29  1  0  0  0
  8  9  1  0  0  0
  8 22  1  0  0  0
  9 10  1  0  0  0
  9 27  2  0  0  0
 10 11  2  0  0  0
 10 15  1  0  0  0
 11 12  1  0  0  0
 11 99  1  0  0  0
 12 13  2  0  0  0
 12100  1  0  0  0
 13 14  1  0  0  0
 13 31  1  0  0  0
 14 15  2  0  0  0
 14101  1  0  0  0
 15102  1  0  0  0
 16 17  2  0  0  0
 16 21  1  0  0  0
 16 31  1  0  0  0
 17 18  1  0  0  0
 17103  1  0  0  0
 18 19  2  0  0  0
 18104  1  0  0  0
 19 20  1  0  0  0
 19 24  1  0  0  0
 20 21  2  0  0  0
 20105  1  0  0  0
 21 23  1  0  0  0
 22 28  1  0  0  0
 22 32  2  0  0  0
 26 27  1  0  0  0
 28106  1  0  0  0
 28107  1  0  0  0
 29108  1  0  0  0
 29109  1  0  0  0
 33 34  1  0  0  0
 33 66  1  0  0  0
 33 70  2  0  0  0
 34 36  1  0  0  0
 34 59  1  0  0  0
 34110  1  0  0  0
 35 44  2  0  0  0
 35 45  1  0  0  0
 35 68  1  0  0  0
 36 56  1  0  0  0
 36111  1  0  0  0
 37 39  1  0  0  0
 37 47  1  0  0  0
 37 66  1  0  0  0
 37112  1  0  0  0
 38 43  2  0  0  0
 38 46  1  0  0  0
 38 47  1  0  0  0
 39 64  1  0  0  0
 39 67  2  0  0  0
 40 52  1  0  0  0
 40 53  2  0  0  0
 40 58  1  0  0  0
 41113  1  0  0  0
 41114  1  0  0  0
 41115  1  0  0  0
 41 48  1  0  0  0
 42 43  1  0  0  0
 42 66  1  0  0  0
 42116  1  0  0  0
 42117  1  0  0  0
 43 44  1  0  0  0
 44118  1  0  0  0
 45 46  2  0  0  0
 45119  1  0  0  0
 46120  1  0  0  0
 47121  1  0  0  0
 47122  1  0  0  0
 48 56  1  0  0  0
 48 65  1  0  0  0
 48123  1  0  0  0
 49 50  1  0  0  0
 49 53  1  0  0  0
 49 64  1  0  0  0
 49124  1  0  0  0
 50 51  1  0  0  0
 50125  1  0  0  0
 50126  1  0  0  0
 51 52  1  0  0  0
 51127  1  0  0  0
 51128  1  0  0  0
 52129  1  0  0  0
 52130  1  0  0  0
 53 54  1  0  0  0
 54 55  2  0  0  0
 54131  1  0  0  0
 55 57  1  0  0  0
 55132  1  0  0  0
 56 69  2  0  0  0
 57 58  2  0  0  0
 57133  1  0  0  0
 58134  1  0  0  0
 59 60  1  0  0  0
 59 61  1  0  0  0
 59 62  1  0  0  0
 60135  1  0  0  0
 60136  1  0  0  0
 60137  1  0  0  0
 61138  1  0  0  0
 61139  1  0  0  0
 61140  1  0  0  0
 62141  1  0  0  0
 62142  1  0  0  0
 62143  1  0  0  0
 63 65  1  0  0  0
 63144  1  0  0  0
 63145  1  0  0  0
 63146  1  0  0  0
 64147  1  0  0  0
 65148  1  0  0  0
 68 86  1  0  0  0
 71 73  2  0  0  0
 71 74  1  0  0  0
 71149  1  0  0  0
 72 75  2  0  0  0
 72 76  1  0  0  0
 72150  1  0  0  0
 73 75  1  0  0  0
 73 77  1  0  0  0
 74 76  2  0  0  0
 74 83  1  0  0  0
 75 78  1  0  0  0
 76 89  1  0  0  0
 77 87  1  0  0  0
 77151  1  0  0  0
 77152  1  0  0  0
 78 87  1  0  0  0
 78153  1  0  0  0
 78154  1  0  0  0
 79 81  1  0  0  0
 79 83  1  0  0  0
 79155  1  0  0  0
 79156  1  0  0  0
 80 82  1  0  0  0
 80 83  1  0  0  0
 80157  1  0  0  0
 80158  1  0  0  0
 81 88  1  0  0  0
 81159  1  0  0  0
 81160  1  0  0  0
 82 88  1  0  0  0
 82161  1  0  0  0
 82162  1  0  0  0
 83163  1  0  0  0
 84 89  1  0  0  0
 84164  1  0  0  0
 84165  1  0  0  0
 84166  1  0  0  0
 85 86  1  0  0  0
 85167  1  0  0  0
 85168  1  0  0  0
 85 88  1  0  0  0
 86169  1  0  0  0
 86170  1  0  0  0
 88171  1  0  0  0
M  CHG  1  88   1
M  ISO  4   1 100  68 101  86 101  87 100
M  END
> <chiral flag>
0

> <version>
0

> <s_m_source_file>
/data/baiqing/PycharmProjects/Reinvent-master-3.2/result/LINK_invent/BTK/process_docking_weight1_custom_sum_contain_oxygen_bond_distance_aromatic_linkinvent_7_9_3/rearranged_h_0159.sdf

> <i_m_source_file_index>
49

> <r_mmod_Potential_Energy-OPLS-2005>
201.088333129883

> <r_mmod_Stretch_Energy-OPLS-2005>
45.805362701416

> <r_mmod_Bend_Energy-OPLS-2005>
196.810409545898

> <r_mmod_Torsional_Energy-OPLS-2005>
341.794250488281

> <r_mmod_Improper_Torsional_Energy-OPLS-2005>
13.4759244918823

> <r_mmod_Van_der_Waal_Energy-OPLS-2005>
203.66178894043

> <r_mmod_Electrostatic_Energy-OPLS-2005>
-232.620223999023

> <r_mmod_Solvation_Energy-OPLS-2005>
-411.448303222656

> <b_mmod_Minimization_Converged-OPLS-2005>
0

> <r_mmod_RMS_Derivative-OPLS-2005>
6.22271251678467

$$$$
49
                    3D
 Structure written by MMmdl.
165174  0  0  1  0            999 V2000
  -30.6854  -14.7749   20.4489 C   0  0  0  0  0  0
  -30.4103  -12.4853   19.4769 C   0  0  0  0  0  0
  -29.4985  -12.5007   18.2344 C   0  0  0  0  0  0
  -28.0318  -12.3046   18.6552 C   0  0  0  0  0  0
  -27.6274  -13.2291   19.8321 C   0  0  2  0  0  0
  -28.6772  -13.2445   20.9690 C   0  0  0  0  0  0
  -25.2460  -13.8176   20.5678 C   0  0  0  0  0  0
  -24.1773  -13.0424   20.9230 C   0  0  0  0  0  0
  -24.6372  -11.6906   20.8777 C   0  0  0  0  0  0
  -23.9057  -10.4284   21.0424 C   0  0  0  0  0  0
  -24.3618   -9.4204   21.9197 C   0  0  0  0  0  0
  -23.6303   -8.2230   22.0758 C   0  0  0  0  0  0
  -22.4284   -8.0267   21.3538 C   0  0  0  0  0  0
  -21.9914   -9.0244   20.4644 C   0  0  0  0  0  0
  -22.7238  -10.2130   20.3065 C   0  0  0  0  0  0
  -21.6847   -6.0738   22.5280 C   0  0  0  0  0  0
  -21.4006   -6.5640   23.8216 C   0  0  0  0  0  0
  -21.3658   -5.6791   24.9173 C   0  0  0  0  0  0
  -21.6048   -4.3058   24.7217 C   0  0  0  0  0  0
  -21.8821   -3.8147   23.4339 C   0  0  0  0  0  0
  -21.9190   -4.6966   22.3395 C   0  0  0  0  0  0
  -22.7798  -13.5223   21.1880 C   0  0  0  0  0  0
  -22.1664   -4.2159   21.0973 F   0  0  0  0  0  0
  -21.5638   -3.4538   25.7727 F   0  0  0  0  0  0
  -29.9679  -13.5936   20.3655 N   0  0  0  0  0  0
  -26.2872  -12.9376   20.3237 N   0  0  0  0  0  0
  -25.9292  -11.6525   20.5756 N   0  0  0  0  0  0
  -22.0428  -12.8226   22.0429 N   0  0  0  0  0  0
  -25.4098  -15.1891   20.4043 N   0  0  0  0  0  0
  -31.8921  -14.7149   20.1902 O   0  0  0  0  0  0
  -21.6639   -6.8873   21.4238 O   0  0  0  0  0  0
  -22.3490  -14.5526   20.6708 O   0  0  0  0  0  0
  -24.6313  -31.8549   23.1982 C   0  0  0  0  0  0
  -25.9140  -32.4747   23.8333 C   0  0  1  0  0  0
  -27.2174  -27.2662   20.1331 C   0  0  0  0  0  0
  -25.5934  -33.8553   24.2254 N   0  0  0  0  0  0
  -23.4287  -30.4771   21.5408 C   0  0  2  0  0  0
  -24.8777  -28.9204   20.1129 C   0  0  0  0  0  0
  -22.7503  -29.4604   22.4912 C   0  0  0  0  0  0
  -18.0291  -28.1392   22.8484 C   0  0  0  0  0  0
  -24.1483  -36.7283   23.2634 C   0  0  0  0  0  0
  -25.9746  -30.7681   21.3778 C   0  0  0  0  0  0
  -26.0494  -29.3899   20.7229 C   0  0  0  0  0  0
  -27.2277  -28.5749   20.7225 C   0  0  0  0  0  0
  -26.0278  -26.8604   19.4976 C   0  0  0  0  0  0
  -24.8708  -27.6626   19.4899 C   0  0  0  0  0  0
  -23.6483  -29.8080   20.1584 C   0  0  0  0  0  0
  -25.4109  -36.3069   24.0329 C   0  0  1  0  0  0
  -20.5894  -28.3703   23.1272 C   0  0  2  0  0  0
  -20.6779  -26.9422   22.5412 C   0  0  0  0  0  0
  -19.5756  -26.6383   21.5217 C   0  0  0  0  0  0
  -18.1935  -26.7936   22.1620 C   0  0  0  0  0  0
  -19.1544  -28.8865   23.2871 C   0  0  0  0  0  0
  -18.9463  -30.1464   23.8892 C   0  0  0  0  0  0
  -17.6463  -30.6594   24.0560 C   0  0  0  0  0  0
  -25.9060  -34.9440   23.5096 C   0  0  0  0  0  0
  -16.5352  -29.9089   23.6332 C   0  0  0  0  0  0
  -16.7276  -28.6505   23.0356 C   0  0  0  0  0  0
  -26.4507  -31.6573   25.0724 C   0  0  0  0  0  0
  -25.3729  -31.3737   26.1444 C   0  0  0  0  0  0
  -27.0344  -30.2979   24.6218 C   0  0  0  0  0  0
  -27.6056  -32.4320   25.7499 C   0  0  0  0  0  0
  -27.5592  -37.1772   24.8446 C   0  0  0  0  0  0
  -21.4211  -29.3048   22.3660 N   0  0  0  0  0  0
  -26.4272  -37.3783   23.9436 N   0  0  0  0  0  0
  -24.6972  -31.0517   22.0953 N   0  0  0  0  0  0
  -23.4203  -28.8152   23.3017 O   0  0  0  0  0  0
  -28.2766  -26.3345   20.1417 O   0  0  0  0  0  0
  -26.5634  -34.8922   22.4668 O   0  0  0  0  0  0
  -23.5463  -32.1371   23.7280 O   0  0  0  0  0  0
  -27.8180  -22.6538   21.5982 C   0  0  0  0  0  0
  -29.0400  -20.7638   20.5410 C   0  0  0  0  0  0
  -28.1287  -21.2607   21.5235 C   0  0  0  0  0  0
  -28.4044  -23.6332   20.7559 C   0  0  0  0  0  0
  -29.5889  -21.8238   19.7281 C   0  0  0  0  0  0
  -30.5418  -18.6295   21.2765 C   0  0  0  0  0  0
  -28.3641  -18.0665   20.4273 C   0  0  0  0  0  0
  -31.0792  -17.1978   20.8754 C   0  0  0  0  0  0
  -28.8141  -16.5547   20.1636 C   0  0  0  0  0  0
  -29.4437  -19.2001   20.3452 C   0  0  0  0  0  0
  -27.4792  -20.3564   22.5540 C   0  0  0  0  0  0
  -30.5948  -21.5051   18.6366 C   0  0  0  0  0  0
  -28.9939  -25.6008   22.2913 C   0  0  0  0  0  0
  -28.1321  -25.1870   21.0911 C   0  0  1  0  0  0
  -29.3050  -23.1764   19.8391 N   0  0  0  0  0  0
  -30.1230  -16.0511   20.6865 N   0  0  0  0  0  0
  -31.4532  -12.5736   19.1673 H   0  0  0  0  0  0
  -30.3410  -11.5278   19.9952 H   0  0  0  0  0  0
  -29.7971  -11.7201   17.5341 H   0  0  0  0  0  0
  -29.6099  -13.4486   17.7049 H   0  0  0  0  0  0
  -27.9099  -11.2609   18.9467 H   0  0  0  0  0  0
  -27.3683  -12.4620   17.8035 H   0  0  0  0  0  0
  -27.5867  -14.2195   19.3859 H   0  0  0  0  0  0
  -28.7328  -12.2730   21.4624 H   0  0  0  0  0  0
  -28.4072  -13.9666   21.7407 H   0  0  0  0  0  0
  -25.2751   -9.5699   22.4791 H   0  0  0  0  0  0
  -24.0014   -7.4620   22.7483 H   0  0  0  0  0  0
  -21.0841   -8.8763   19.8953 H   0  0  0  0  0  0
  -22.3683  -10.9678   19.6190 H   0  0  0  0  0  0
  -21.1984   -7.6150   23.9725 H   0  0  0  0  0  0
  -21.1491   -6.0515   25.9085 H   0  0  0  0  0  0
  -22.0598   -2.7612   23.2819 H   0  0  0  0  0  0
  -22.4017  -11.9884   22.4825 H   0  0  0  0  0  0
  -21.1048  -13.1277   22.2619 H   0  0  0  0  0  0
  -24.6406  -15.8401   20.5185 H   0  0  0  0  0  0
  -26.2534  -15.6293   20.0631 H   0  0  0  0  0  0
  -26.7208  -32.5408   23.1078 H   0  0  0  0  0  0
  -25.0060  -33.9689   25.0385 H   0  0  0  0  0  0
  -22.7257  -31.2994   21.3930 H   0  0  0  0  0  0
  -23.3773  -35.9581   23.3225 H   0  0  0  0  0  0
  -24.3590  -36.8983   22.2064 H   0  0  0  0  0  0
  -23.7189  -37.6442   23.6706 H   0  0  0  0  0  0
  -26.1129  -31.5279   20.6072 H   0  0  0  0  0  0
  -26.8526  -30.8187   22.0105 H   0  0  0  0  0  0
  -28.1267  -28.9275   21.2077 H   0  0  0  0  0  0
  -25.9870  -25.8892   19.0238 H   0  0  0  0  0  0
  -23.9729  -27.2977   19.0094 H   0  0  0  0  0  0
  -23.7736  -30.5828   19.4014 H   0  0  0  0  0  0
  -22.7666  -29.2405   19.8540 H   0  0  0  0  0  0
  -25.1278  -36.1900   25.0816 H   0  0  0  0  0  0
  -20.9984  -28.3278   24.1393 H   0  0  0  0  0  0
  -20.5681  -26.2314   23.3617 H   0  0  0  0  0  0
  -21.6646  -26.7447   22.1200 H   0  0  0  0  0  0
  -19.6917  -25.6292   21.1254 H   0  0  0  0  0  0
  -19.6701  -27.3184   20.6743 H   0  0  0  0  0  0
  -17.4211  -26.6693   21.4014 H   0  0  0  0  0  0
  -18.0323  -26.0075   22.9011 H   0  0  0  0  0  0
  -19.7944  -30.7282   24.2254 H   0  0  0  0  0  0
  -17.5021  -31.6275   24.5155 H   0  0  0  0  0  0
  -15.5356  -30.2989   23.7668 H   0  0  0  0  0  0
  -15.8674  -28.0826   22.7072 H   0  0  0  0  0  0
  -24.5890  -30.7100   25.7777 H   0  0  0  0  0  0
  -24.8937  -32.2913   26.4873 H   0  0  0  0  0  0
  -25.8042  -30.8908   27.0223 H   0  0  0  0  0  0
  -26.2922  -29.6728   24.1233 H   0  0  0  0  0  0
  -27.3997  -29.7248   25.4751 H   0  0  0  0  0  0
  -27.8822  -30.4238   23.9477 H   0  0  0  0  0  0
  -27.2653  -33.3628   26.2060 H   0  0  0  0  0  0
  -28.3878  -32.6872   25.0335 H   0  0  0  0  0  0
  -28.0708  -31.8452   26.5432 H   0  0  0  0  0  0
  -28.2532  -38.0148   24.7607 H   0  0  0  0  0  0
  -28.1164  -36.2686   24.6110 H   0  0  0  0  0  0
  -27.2337  -37.1223   25.8850 H   0  0  0  0  0  0
  -20.9399  -29.8769   21.6864 H   0  0  0  0  0  0
  -26.0142  -38.2838   24.1512 H   0  0  0  0  0  0
  -27.1376  -22.9966   22.3663 H   0  0  0  0  0  0
  -31.3884  -19.3185   21.2810 H   0  0  0  0  0  0
  -30.1828  -18.6020   22.3054 H   0  0  0  0  0  0
  -27.9213  -18.0637   21.4192 H   0  0  0  0  0  0
  -27.5441  -18.3086   19.7491 H   0  0  0  0  0  0
  -31.8234  -16.9064   21.6191 H   0  0  0  0  0  0
  -31.6298  -17.3129   19.9397 H   0  0  0  0  0  0
  -28.7995  -16.3661   19.0888 H   0  0  0  0  0  0
  -28.0372  -15.9370   20.6010 H   0  0  0  0  0  0
  -29.8337  -19.1259   19.3311 H   0  0  0  0  0  0
  -27.0632  -20.9338   23.3802 H   0  0  0  0  0  0
  -28.2048  -19.6693   22.9876 H   0  0  0  0  0  0
  -26.6609  -19.7904   22.1094 H   0  0  0  0  0  0
  -30.1214  -20.9312   17.8401 H   0  0  0  0  0  0
  -31.4250  -20.9226   19.0366 H   0  0  0  0  0  0
  -31.0126  -22.4083   18.1903 H   0  0  0  0  0  0
  -28.8448  -24.9272   23.1351 H   0  0  0  0  0  0
  -28.7469  -26.6079   22.6269 H   0  0  0  0  0  0
  -30.0520  -25.5814   22.0316 H   0  0  0  0  0  0
  -27.0967  -25.1968   21.4378 H   0  0  0  0  0  0
  1 25  1  0  0  0
  1 30  2  0  0  0
  1 86  1  0  0  0
  2  3  1  0  0  0
  2 25  1  0  0  0
  2 87  1  0  0  0
  2 88  1  0  0  0
  3  4  1  0  0  0
  3 89  1  0  0  0
  3 90  1  0  0  0
  4  5  1  0  0  0
  4 91  1  0  0  0
  4 92  1  0  0  0
  5  6  1  0  0  0
  5 26  1  0  0  0
  5 93  1  0  0  0
  6 25  1  0  0  0
  6 94  1  0  0  0
  6 95  1  0  0  0
  7  8  2  0  0  0
  7 26  1  0  0  0
  7 29  1  0  0  0
  8  9  1  0  0  0
  8 22  1  0  0  0
  9 10  1  0  0  0
  9 27  2  0  0  0
 10 11  2  0  0  0
 10 15  1  0  0  0
 11 12  1  0  0  0
 11 96  1  0  0  0
 12 13  2  0  0  0
 12 97  1  0  0  0
 13 14  1  0  0  0
 13 31  1  0  0  0
 14 15  2  0  0  0
 14 98  1  0  0  0
 15 99  1  0  0  0
 16 17  2  0  0  0
 16 21  1  0  0  0
 16 31  1  0  0  0
 17 18  1  0  0  0
 17100  1  0  0  0
 18 19  2  0  0  0
 18101  1  0  0  0
 19 20  1  0  0  0
 19 24  1  0  0  0
 20 21  2  0  0  0
 20102  1  0  0  0
 21 23  1  0  0  0
 22 28  1  0  0  0
 22 32  2  0  0  0
 26 27  1  0  0  0
 28103  1  0  0  0
 28104  1  0  0  0
 29105  1  0  0  0
 29106  1  0  0  0
 33 34  1  0  0  0
 33 66  1  0  0  0
 33 70  2  0  0  0
 34 36  1  0  0  0
 34 59  1  0  0  0
 34107  1  0  0  0
 35 44  2  0  0  0
 35 45  1  0  0  0
 35 68  1  0  0  0
 36 56  1  0  0  0
 36108  1  0  0  0
 37 39  1  0  0  0
 37 47  1  0  0  0
 37 66  1  0  0  0
 37109  1  0  0  0
 38 43  2  0  0  0
 38 46  1  0  0  0
 38 47  1  0  0  0
 39 64  1  0  0  0
 39 67  2  0  0  0
 40 52  1  0  0  0
 40 53  2  0  0  0
 40 58  1  0  0  0
 41110  1  0  0  0
 41111  1  0  0  0
 41112  1  0  0  0
 41 48  1  0  0  0
 42 43  1  0  0  0
 42 66  1  0  0  0
 42113  1  0  0  0
 42114  1  0  0  0
 43 44  1  0  0  0
 44115  1  0  0  0
 45 46  2  0  0  0
 45116  1  0  0  0
 46117  1  0  0  0
 47118  1  0  0  0
 47119  1  0  0  0
 48 56  1  0  0  0
 48 65  1  0  0  0
 48120  1  0  0  0
 49 50  1  0  0  0
 49 53  1  0  0  0
 49 64  1  0  0  0
 49121  1  0  0  0
 50 51  1  0  0  0
 50122  1  0  0  0
 50123  1  0  0  0
 51 52  1  0  0  0
 51124  1  0  0  0
 51125  1  0  0  0
 52126  1  0  0  0
 52127  1  0  0  0
 53 54  1  0  0  0
 54 55  2  0  0  0
 54128  1  0  0  0
 55 57  1  0  0  0
 55129  1  0  0  0
 56 69  2  0  0  0
 57 58  2  0  0  0
 57130  1  0  0  0
 58131  1  0  0  0
 59 60  1  0  0  0
 59 61  1  0  0  0
 59 62  1  0  0  0
 60132  1  0  0  0
 60133  1  0  0  0
 60134  1  0  0  0
 61135  1  0  0  0
 61136  1  0  0  0
 61137  1  0  0  0
 62138  1  0  0  0
 62139  1  0  0  0
 62140  1  0  0  0
 63 65  1  0  0  0
 63141  1  0  0  0
 63142  1  0  0  0
 63143  1  0  0  0
 64144  1  0  0  0
 65145  1  0  0  0
 68 84  1  0  0  0
 71 73  2  0  0  0
 71 74  1  0  0  0
 71146  1  0  0  0
 72 73  1  0  0  0
 72 75  2  0  0  0
 72 80  1  0  0  0
 73 81  1  0  0  0
 74 84  1  0  0  0
 74 85  2  0  0  0
 75 82  1  0  0  0
 75 85  1  0  0  0
 76 78  1  0  0  0
 76 80  1  0  0  0
 76147  1  0  0  0
 76148  1  0  0  0
 77 79  1  0  0  0
 77 80  1  0  0  0
 77149  1  0  0  0
 77150  1  0  0  0
 78 86  1  0  0  0
 78151  1  0  0  0
 78152  1  0  0  0
 79 86  1  0  0  0
 79153  1  0  0  0
 79154  1  0  0  0
 80155  1  0  0  0
 81156  1  0  0  0
 81157  1  0  0  0
 81158  1  0  0  0
 82159  1  0  0  0
 82160  1  0  0  0
 82161  1  0  0  0
 83162  1  0  0  0
 83163  1  0  0  0
 83164  1  0  0  0
 83 84  1  0  0  0
 84165  1  0  0  0
M  ISO  4   1 100  68 101  84 101  86 100
M  END
> <chiral flag>
0

> <version>
0

> <s_m_source_file>
/data/baiqing/PycharmProjects/Reinvent-master-3.2/result/LINK_invent/BTK/process_docking_weight1_custom_sum_contain_oxygen_bond_distance_aromatic_linkinvent_7_9_3/rearranged_h_0159.sdf

> <i_m_source_file_index>
50

> <r_mmod_Potential_Energy-OPLS-2005>
297.052459716797

> <r_mmod_Stretch_Energy-OPLS-2005>
130.912338256836

> <r_mmod_Bend_Energy-OPLS-2005>
228.362777709961

> <r_mmod_Torsional_Energy-OPLS-2005>
329.254791259766

> <r_mmod_Improper_Torsional_Energy-OPLS-2005>
5.59022998809814

> <r_mmod_Van_der_Waal_Energy-OPLS-2005>
147.388870239258

> <r_mmod_Electrostatic_Energy-OPLS-2005>
-427.571746826172

> <r_mmod_Solvation_Energy-OPLS-2005>
-217.173370361328

> <b_mmod_Minimization_Converged-OPLS-2005>
0

> <r_mmod_RMS_Derivative-OPLS-2005>
1.31813633441925

$$$$
50
                    3D
 Structure written by MMmdl.
163172  0  0  1  0            999 V2000
  -30.6071  -14.9145   20.4563 C   0  0  0  0  0  0
  -30.4249  -12.5784   19.4980 C   0  0  0  0  0  0
  -29.5042  -12.5516   18.2575 C   0  0  0  0  0  0
  -28.0470  -12.3252   18.6867 C   0  0  0  0  0  0
  -27.6332  -13.2569   19.8551 C   0  0  2  0  0  0
  -28.6842  -13.2816   20.9915 C   0  0  0  0  0  0
  -25.2473  -13.8249   20.5788 C   0  0  0  0  0  0
  -24.1795  -13.0458   20.9231 C   0  0  0  0  0  0
  -24.6420  -11.6930   20.8748 C   0  0  0  0  0  0
  -23.9110  -10.4297   21.0372 C   0  0  0  0  0  0
  -24.3644   -9.4189   21.9128 C   0  0  0  0  0  0
  -23.6309   -8.2226   22.0705 C   0  0  0  0  0  0
  -22.4266   -8.0280   21.3530 C   0  0  0  0  0  0
  -21.9935   -9.0238   20.4597 C   0  0  0  0  0  0
  -22.7294  -10.2111   20.3009 C   0  0  0  0  0  0
  -21.6876   -6.0725   22.5261 C   0  0  0  0  0  0
  -21.4006   -6.5621   23.8185 C   0  0  0  0  0  0
  -21.3661   -5.6785   24.9153 C   0  0  0  0  0  0
  -21.6058   -4.3044   24.7214 C   0  0  0  0  0  0
  -21.8847   -3.8130   23.4331 C   0  0  0  0  0  0
  -21.9184   -4.6947   22.3379 C   0  0  0  0  0  0
  -22.7796  -13.5136   21.1918 C   0  0  0  0  0  0
  -22.1670   -4.2132   21.0965 F   0  0  0  0  0  0
  -21.5626   -3.4533   25.7726 F   0  0  0  0  0  0
  -29.9662  -13.6758   20.3966 N   0  0  0  0  0  0
  -26.2932  -12.9515   20.3402 N   0  0  0  0  0  0
  -25.9385  -11.6633   20.5854 N   0  0  0  0  0  0
  -22.0504  -12.8021   22.0432 N   0  0  0  0  0  0
  -25.4233  -15.1996   20.4243 N   0  0  0  0  0  0
  -31.7800  -14.9571   20.0723 O   0  0  0  0  0  0
  -21.6645   -6.8873   21.4227 O   0  0  0  0  0  0
  -22.3400  -14.5425   20.6802 O   0  0  0  0  0  0
  -24.6447  -31.8458   23.1869 C   0  0  0  0  0  0
  -25.9239  -32.4660   23.8262 C   0  0  1  0  0  0
  -27.2243  -27.1651   20.1126 C   0  0  0  0  0  0
  -25.5948  -33.8465   24.2178 N   0  0  0  0  0  0
  -23.4418  -30.4713   21.5320 C   0  0  2  0  0  0
  -24.8855  -28.9010   20.0980 C   0  0  0  0  0  0
  -22.7572  -29.4622   22.4879 C   0  0  0  0  0  0
  -18.0361  -28.1385   22.8478 C   0  0  0  0  0  0
  -24.1482  -36.7250   23.2654 C   0  0  0  0  0  0
  -25.9988  -30.7261   21.3789 C   0  0  0  0  0  0
  -26.0647  -29.3433   20.7112 C   0  0  0  0  0  0
  -27.2303  -28.4929   20.7026 C   0  0  0  0  0  0
  -26.0074  -26.8076   19.4868 C   0  0  0  0  0  0
  -24.8704  -27.6443   19.4729 C   0  0  0  0  0  0
  -23.6538  -29.7939   20.1531 C   0  0  0  0  0  0
  -25.4116  -36.3017   24.0326 C   0  0  1  0  0  0
  -20.5963  -28.3786   23.1251 C   0  0  2  0  0  0
  -20.6861  -26.9468   22.5416 C   0  0  0  0  0  0
  -19.5828  -26.6440   21.5189 C   0  0  0  0  0  0
  -18.2017  -26.7950   22.1584 C   0  0  0  0  0  0
  -19.1588  -28.8909   23.2824 C   0  0  0  0  0  0
  -18.9482  -30.1508   23.8832 C   0  0  0  0  0  0
  -17.6471  -30.6602   24.0551 C   0  0  0  0  0  0
  -25.9090  -34.9397   23.5072 C   0  0  0  0  0  0
  -16.5363  -29.9075   23.6298 C   0  0  0  0  0  0
  -16.7320  -28.6498   23.0334 C   0  0  0  0  0  0
  -26.4569  -31.6525   25.0708 C   0  0  0  0  0  0
  -25.3760  -31.3692   26.1398 C   0  0  0  0  0  0
  -27.0448  -30.2904   24.6316 C   0  0  0  0  0  0
  -27.6057  -32.4357   25.7493 C   0  0  0  0  0  0
  -27.5571  -37.1768   24.8488 C   0  0  0  0  0  0
  -21.4263  -29.3127   22.3608 N   0  0  0  0  0  0
  -26.4287  -37.3722   23.9423 N   0  0  0  0  0  0
  -24.7148  -31.0365   22.0856 N   0  0  0  0  0  0
  -23.4245  -28.8188   23.3005 O   0  0  0  0  0  0
  -28.2960  -26.2057   20.2221 O   0  0  0  0  0  0
  -26.5701  -34.8909   22.4667 O   0  0  0  0  0  0
  -23.5591  -32.1356   23.7130 O   0  0  0  0  0  0
  -29.5384  -22.9152   20.9008 C   0  0  0  0  0  0
  -29.5212  -20.3913   20.3421 C   0  0  0  0  0  0
  -29.9325  -21.5330   21.1380 C   0  0  0  0  0  0
  -28.7492  -23.3567   19.7967 C   0  0  0  0  0  0
  -28.7749  -20.8327   19.1922 C   0  0  0  0  0  0
  -28.4358  -22.2420   18.9203 C   0  0  0  0  0  0
  -29.5071  -18.2296   22.0539 C   0  0  0  0  0  0
  -29.8363  -16.6893   22.0731 C   0  0  0  0  0  0
  -29.8455  -17.4261   19.8568 C   0  0  0  0  0  0
  -29.9752  -18.8177   20.7094 C   0  0  2  0  0  0
  -30.9164  -21.3125   22.2669 C   0  0  0  0  0  0
  -28.3936  -19.7189   18.2231 C   0  0  0  0  0  0
  -27.7569  -22.6306   17.6030 C   0  0  0  0  0  0
  -28.4301  -24.9305   19.3709 C   0  0  0  0  0  0
  -29.9074  -16.1319   20.7051 N   0  0  0  0  0  0
  -31.4626  -12.7053   19.1848 H   0  0  0  0  0  0
  -30.3893  -11.6226   20.0228 H   0  0  0  0  0  0
  -29.8241  -11.7690   17.5690 H   0  0  0  0  0  0
  -29.5832  -13.4931   17.7104 H   0  0  0  0  0  0
  -27.9570  -11.2864   19.0074 H   0  0  0  0  0  0
  -27.3714  -12.4513   17.8407 H   0  0  0  0  0  0
  -27.6012  -14.2617   19.4320 H   0  0  0  0  0  0
  -28.7645  -12.3085   21.4763 H   0  0  0  0  0  0
  -28.3981  -13.9935   21.7689 H   0  0  0  0  0  0
  -25.2810   -9.5629   22.4681 H   0  0  0  0  0  0
  -24.0027   -7.4596   22.7404 H   0  0  0  0  0  0
  -21.0885   -8.8741   19.8874 H   0  0  0  0  0  0
  -22.3771  -10.9619   19.6069 H   0  0  0  0  0  0
  -21.2009   -7.6128   23.9690 H   0  0  0  0  0  0
  -21.1459   -6.0501   25.9050 H   0  0  0  0  0  0
  -22.0627   -2.7589   23.2842 H   0  0  0  0  0  0
  -22.4246  -11.9711   22.4814 H   0  0  0  0  0  0
  -21.1077  -13.0885   22.2690 H   0  0  0  0  0  0
  -24.6789  -15.8780   20.5577 H   0  0  0  0  0  0
  -26.3086  -15.6177   20.1680 H   0  0  0  0  0  0
  -26.7308  -32.5260   23.0996 H   0  0  0  0  0  0
  -24.9958  -33.9540   25.0230 H   0  0  0  0  0  0
  -22.7476  -31.3018   21.3861 H   0  0  0  0  0  0
  -23.3721  -35.9597   23.3299 H   0  0  0  0  0  0
  -24.3581  -36.8890   22.2071 H   0  0  0  0  0  0
  -23.7237  -37.6449   23.6705 H   0  0  0  0  0  0
  -26.1721  -31.4802   20.6126 H   0  0  0  0  0  0
  -26.8657  -30.7604   22.0262 H   0  0  0  0  0  0
  -28.1281  -28.8314   21.1947 H   0  0  0  0  0  0
  -25.8656  -25.8289   19.0545 H   0  0  0  0  0  0
  -23.9656  -27.2928   18.9957 H   0  0  0  0  0  0
  -23.7628  -30.5645   19.3876 H   0  0  0  0  0  0
  -22.7654  -29.2287   19.8644 H   0  0  0  0  0  0
  -25.1286  -36.1846   25.0809 H   0  0  0  0  0  0
  -21.0069  -28.3432   24.1383 H   0  0  0  0  0  0
  -20.5807  -26.2400   23.3645 H   0  0  0  0  0  0
  -21.6738  -26.7497   22.1243 H   0  0  0  0  0  0
  -19.6919  -25.6368   21.1157 H   0  0  0  0  0  0
  -19.6787  -27.3335   20.6781 H   0  0  0  0  0  0
  -17.4285  -26.6709   21.3992 H   0  0  0  0  0  0
  -18.0478  -26.0029   22.8953 H   0  0  0  0  0  0
  -19.7972  -30.7333   24.2133 H   0  0  0  0  0  0
  -17.5012  -31.6263   24.5166 H   0  0  0  0  0  0
  -15.5351  -30.2963   23.7610 H   0  0  0  0  0  0
  -15.8735  -28.0779   22.7106 H   0  0  0  0  0  0
  -24.5881  -30.7128   25.7693 H   0  0  0  0  0  0
  -24.9039  -32.2876   26.4901 H   0  0  0  0  0  0
  -25.8046  -30.8768   27.0131 H   0  0  0  0  0  0
  -26.3083  -29.6576   24.1345 H   0  0  0  0  0  0
  -27.4054  -29.7251   25.4927 H   0  0  0  0  0  0
  -27.8999  -30.4092   23.9651 H   0  0  0  0  0  0
  -27.2555  -33.3627   26.2046 H   0  0  0  0  0  0
  -28.3849  -32.6981   25.0326 H   0  0  0  0  0  0
  -28.0766  -31.8538   26.5418 H   0  0  0  0  0  0
  -28.2609  -38.0046   24.7498 H   0  0  0  0  0  0
  -28.1040  -36.2573   24.6341 H   0  0  0  0  0  0
  -27.2311  -37.1462   25.8901 H   0  0  0  0  0  0
  -20.9508  -29.8849   21.6751 H   0  0  0  0  0  0
  -26.0148  -38.2805   24.1346 H   0  0  0  0  0  0
  -29.9222  -23.6862   21.5557 H   0  0  0  0  0  0
  -28.4324  -18.3704   22.1507 H   0  0  0  0  0  0
  -29.9572  -18.7328   22.9118 H   0  0  0  0  0  0
  -29.0962  -16.1518   22.6689 H   0  0  0  0  0  0
  -30.7994  -16.5313   22.5644 H   0  0  0  0  0  0
  -28.8742  -17.3721   19.3745 H   0  0  0  0  0  0
  -30.5753  -17.3965   19.0475 H   0  0  0  0  0  0
  -31.0567  -18.9076   20.7923 H   0  0  0  0  0  0
  -31.4906  -22.2163   22.4828 H   0  0  0  0  0  0
  -31.6454  -20.5458   22.0131 H   0  0  0  0  0  0
  -30.3905  -21.0200   23.1746 H   0  0  0  0  0  0
  -27.6222  -19.0932   18.6701 H   0  0  0  0  0  0
  -29.2748  -19.1162   18.0142 H   0  0  0  0  0  0
  -28.0341  -19.9876   17.2423 H   0  0  0  0  0  0
  -28.3362  -23.4177   17.1222 H   0  0  0  0  0  0
  -26.7476  -23.0004   17.7774 H   0  0  0  0  0  0
  -27.6826  -21.8740   16.8349 H   0  0  0  0  0  0
  -27.6471  -24.9426   18.6217 H   0  0  0  0  0  0
  -29.3120  -25.1731   18.7800 H   0  0  0  0  0  0
  1 25  1  0  0  0
  1 30  2  0  0  0
  1 85  1  0  0  0
  2  3  1  0  0  0
  2 25  1  0  0  0
  2 86  1  0  0  0
  2 87  1  0  0  0
  3  4  1  0  0  0
  3 88  1  0  0  0
  3 89  1  0  0  0
  4  5  1  0  0  0
  4 90  1  0  0  0
  4 91  1  0  0  0
  5  6  1  0  0  0
  5 26  1  0  0  0
  5 92  1  0  0  0
  6 25  1  0  0  0
  6 93  1  0  0  0
  6 94  1  0  0  0
  7  8  2  0  0  0
  7 26  1  0  0  0
  7 29  1  0  0  0
  8  9  1  0  0  0
  8 22  1  0  0  0
  9 10  1  0  0  0
  9 27  2  0  0  0
 10 11  2  0  0  0
 10 15  1  0  0  0
 11 12  1  0  0  0
 11 95  1  0  0  0
 12 13  2  0  0  0
 12 96  1  0  0  0
 13 14  1  0  0  0
 13 31  1  0  0  0
 14 15  2  0  0  0
 14 97  1  0  0  0
 15 98  1  0  0  0
 16 17  2  0  0  0
 16 21  1  0  0  0
 16 31  1  0  0  0
 17 18  1  0  0  0
 17 99  1  0  0  0
 18 19  2  0  0  0
 18100  1  0  0  0
 19 20  1  0  0  0
 19 24  1  0  0  0
 20 21  2  0  0  0
 20101  1  0  0  0
 21 23  1  0  0  0
 22 28  1  0  0  0
 22 32  2  0  0  0
 26 27  1  0  0  0
 28102  1  0  0  0
 28103  1  0  0  0
 29104  1  0  0  0
 29105  1  0  0  0
 33 34  1  0  0  0
 33 66  1  0  0  0
 33 70  2  0  0  0
 34 36  1  0  0  0
 34 59  1  0  0  0
 34106  1  0  0  0
 35 44  2  0  0  0
 35 45  1  0  0  0
 35 68  1  0  0  0
 36 56  1  0  0  0
 36107  1  0  0  0
 37 39  1  0  0  0
 37 47  1  0  0  0
 37 66  1  0  0  0
 37108  1  0  0  0
 38 43  2  0  0  0
 38 46  1  0  0  0
 38 47  1  0  0  0
 39 64  1  0  0  0
 39 67  2  0  0  0
 40 52  1  0  0  0
 40 53  2  0  0  0
 40 58  1  0  0  0
 41109  1  0  0  0
 41110  1  0  0  0
 41111  1  0  0  0
 41 48  1  0  0  0
 42 43  1  0  0  0
 42 66  1  0  0  0
 42112  1  0  0  0
 42113  1  0  0  0
 43 44  1  0  0  0
 44114  1  0  0  0
 45 46  2  0  0  0
 45115  1  0  0  0
 46116  1  0  0  0
 47117  1  0  0  0
 47118  1  0  0  0
 48 56  1  0  0  0
 48 65  1  0  0  0
 48119  1  0  0  0
 49 50  1  0  0  0
 49 53  1  0  0  0
 49 64  1  0  0  0
 49120  1  0  0  0
 50 51  1  0  0  0
 50121  1  0  0  0
 50122  1  0  0  0
 51 52  1  0  0  0
 51123  1  0  0  0
 51124  1  0  0  0
 52125  1  0  0  0
 52126  1  0  0  0
 53 54  1  0  0  0
 54 55  2  0  0  0
 54127  1  0  0  0
 55 57  1  0  0  0
 55128  1  0  0  0
 56 69  2  0  0  0
 57 58  2  0  0  0
 57129  1  0  0  0
 58130  1  0  0  0
 59 60  1  0  0  0
 59 61  1  0  0  0
 59 62  1  0  0  0
 60131  1  0  0  0
 60132  1  0  0  0
 60133  1  0  0  0
 61134  1  0  0  0
 61135  1  0  0  0
 61136  1  0  0  0
 62137  1  0  0  0
 62138  1  0  0  0
 62139  1  0  0  0
 63 65  1  0  0  0
 63140  1  0  0  0
 63141  1  0  0  0
 63142  1  0  0  0
 64143  1  0  0  0
 65144  1  0  0  0
 68 84  1  0  0  0
 71 73  2  0  0  0
 71 74  1  0  0  0
 71145  1  0  0  0
 72 73  1  0  0  0
 72 75  2  0  0  0
 72 80  1  0  0  0
 73 81  1  0  0  0
 74 76  2  0  0  0
 74 84  1  0  0  0
 75 76  1  0  0  0
 75 82  1  0  0  0
 76 83  1  0  0  0
 77 78  1  0  0  0
 77 80  1  0  0  0
 77146  1  0  0  0
 77147  1  0  0  0
 78 85  1  0  0  0
 78148  1  0  0  0
 78149  1  0  0  0
 79 80  1  0  0  0
 79 85  1  0  0  0
 79150  1  0  0  0
 79151  1  0  0  0
 80152  1  0  0  0
 81153  1  0  0  0
 81154  1  0  0  0
 81155  1  0  0  0
 82156  1  0  0  0
 82157  1  0  0  0
 82158  1  0  0  0
 83159  1  0  0  0
 83160  1  0  0  0
 83161  1  0  0  0
 84162  1  0  0  0
 84163  1  0  0  0
M  ISO  4   1 100  68 101  84 101  85 100
M  END
> <chiral flag>
0

> <version>
0

> <s_m_source_file>
/data/baiqing/PycharmProjects/Reinvent-master-3.2/result/LINK_invent/BTK/process_docking_weight1_custom_sum_contain_oxygen_bond_distance_aromatic_linkinvent_7_9_3/rearranged_h_0159.sdf

> <i_m_source_file_index>
51

> <r_mmod_Potential_Energy-OPLS-2005>
717.494140625

> <r_mmod_Stretch_Energy-OPLS-2005>
233.69758605957

> <r_mmod_Bend_Energy-OPLS-2005>
315.923156738281

> <r_mmod_Torsional_Energy-OPLS-2005>
340.109130859375

> <r_mmod_Improper_Torsional_Energy-OPLS-2005>
10.523549079895

> <r_mmod_Van_der_Waal_Energy-OPLS-2005>
152.752304077148

> <r_mmod_Electrostatic_Energy-OPLS-2005>
-306.373352050781

> <r_mmod_Solvation_Energy-OPLS-2005>
-195.215438842773

> <b_mmod_Minimization_Converged-OPLS-2005>
0

> <r_mmod_RMS_Derivative-OPLS-2005>
6.35312175750732

$$$$
51
                    3D
 Structure written by MMmdl.
162171  0  0  1  0            999 V2000
  -30.6114  -14.7769   20.4391 C   0  0  0  0  0  0
  -30.4348  -12.4690   19.4762 C   0  0  0  0  0  0
  -29.5135  -12.5089   18.2368 C   0  0  0  0  0  0
  -28.0405  -12.3280   18.6511 C   0  0  0  0  0  0
  -27.6416  -13.2335   19.8475 C   0  0  2  0  0  0
  -28.6893  -13.1869   20.9827 C   0  0  0  0  0  0
  -25.2501  -13.8166   20.5694 C   0  0  0  0  0  0
  -24.1804  -13.0418   20.9232 C   0  0  0  0  0  0
  -24.6411  -11.6903   20.8770 C   0  0  0  0  0  0
  -23.9083  -10.4287   21.0423 C   0  0  0  0  0  0
  -24.3629   -9.4203   21.9197 C   0  0  0  0  0  0
  -23.6299   -8.2241   22.0768 C   0  0  0  0  0  0
  -22.4279   -8.0288   21.3554 C   0  0  0  0  0  0
  -21.9918   -9.0259   20.4653 C   0  0  0  0  0  0
  -22.7256  -10.2135   20.3064 C   0  0  0  0  0  0
  -21.6852   -6.0742   22.5286 C   0  0  0  0  0  0
  -21.4008   -6.5645   23.8219 C   0  0  0  0  0  0
  -21.3654   -5.6796   24.9179 C   0  0  0  0  0  0
  -21.6043   -4.3058   24.7228 C   0  0  0  0  0  0
  -21.8817   -3.8152   23.4346 C   0  0  0  0  0  0
  -21.9190   -4.6972   22.3403 C   0  0  0  0  0  0
  -22.7823  -13.5213   21.1856 C   0  0  0  0  0  0
  -22.1661   -4.2159   21.0982 F   0  0  0  0  0  0
  -21.5620   -3.4540   25.7736 F   0  0  0  0  0  0
  -29.9882  -13.5440   20.3963 N   0  0  0  0  0  0
  -26.2945  -12.9395   20.3273 N   0  0  0  0  0  0
  -25.9344  -11.6540   20.5762 N   0  0  0  0  0  0
  -22.0452  -12.8223   22.0405 N   0  0  0  0  0  0
  -25.4131  -15.1876   20.4048 N   0  0  0  0  0  0
  -31.8077  -14.8408   20.1388 O   0  0  0  0  0  0
  -21.6641   -6.8890   21.4249 O   0  0  0  0  0  0
  -22.3531  -14.5529   20.6701 O   0  0  0  0  0  0
  -24.6341  -31.8511   23.1959 C   0  0  0  0  0  0
  -25.9149  -32.4733   23.8310 C   0  0  1  0  0  0
  -27.2203  -27.2306   20.1316 C   0  0  0  0  0  0
  -25.5939  -33.8538   24.2241 N   0  0  0  0  0  0
  -23.4327  -30.4745   21.5388 C   0  0  2  0  0  0
  -24.8791  -28.9172   20.1072 C   0  0  0  0  0  0
  -22.7518  -29.4584   22.4886 C   0  0  0  0  0  0
  -18.0299  -28.1397   22.8476 C   0  0  0  0  0  0
  -24.1489  -36.7266   23.2641 C   0  0  0  0  0  0
  -25.9814  -30.7539   21.3815 C   0  0  0  0  0  0
  -26.0511  -29.3742   20.7226 C   0  0  0  0  0  0
  -27.2201  -28.5430   20.7254 C   0  0  0  0  0  0
  -26.0274  -26.8566   19.4712 C   0  0  0  0  0  0
  -24.8752  -27.6674   19.4710 C   0  0  0  0  0  0
  -23.6512  -29.8066   20.1545 C   0  0  0  0  0  0
  -25.4113  -36.3060   24.0330 C   0  0  1  0  0  0
  -20.5903  -28.3705   23.1257 C   0  0  2  0  0  0
  -20.6796  -26.9416   22.5415 C   0  0  0  0  0  0
  -19.5778  -26.6384   21.5218 C   0  0  0  0  0  0
  -18.1946  -26.7943   22.1603 C   0  0  0  0  0  0
  -19.1554  -28.8864   23.2868 C   0  0  0  0  0  0
  -18.9479  -30.1467   23.8886 C   0  0  0  0  0  0
  -17.6477  -30.6593   24.0566 C   0  0  0  0  0  0
  -25.9059  -34.9430   23.5090 C   0  0  0  0  0  0
  -16.5364  -29.9095   23.6330 C   0  0  0  0  0  0
  -16.7281  -28.6512   23.0345 C   0  0  0  0  0  0
  -26.4507  -31.6573   25.0713 C   0  0  0  0  0  0
  -25.3706  -31.3746   26.1422 C   0  0  0  0  0  0
  -27.0368  -30.2986   24.6224 C   0  0  0  0  0  0
  -27.6061  -32.4315   25.7483 C   0  0  0  0  0  0
  -27.5584  -37.1778   24.8454 C   0  0  0  0  0  0
  -21.4222  -29.3045   22.3622 N   0  0  0  0  0  0
  -26.4279  -37.3768   23.9427 N   0  0  0  0  0  0
  -24.7020  -31.0461   22.0939 N   0  0  0  0  0  0
  -23.4204  -28.8124   23.2995 O   0  0  0  0  0  0
  -28.3090  -26.3196   20.2144 O   0  0  0  0  0  0
  -26.5636  -34.8921   22.4666 O   0  0  0  0  0  0
  -23.5480  -32.1326   23.7241 O   0  0  0  0  0  0
  -29.2950  -19.7953   20.4132 C   0  0  0  0  0  0
  -30.5947  -20.1984   20.1953 C   0  0  0  0  0  0
  -29.0158  -18.3722   20.5423 C   0  0  0  0  0  0
  -31.6097  -19.2088   20.1887 C   0  0  0  0  0  0
  -30.0874  -17.3835   20.4871 C   0  0  0  0  0  0
  -28.4134  -21.0888   20.4901 C   0  0  0  0  0  0
  -30.6793  -21.7363   20.0327 C   0  0  1  0  0  0
  -27.5809  -17.9068   20.7151 C   0  0  0  0  0  0
  -33.0801  -19.5603   20.0688 C   0  0  0  0  0  0
  -31.4156  -22.1639   18.7523 C   0  0  0  0  0  0
  -29.1004  -23.7077   20.6091 C   0  0  0  0  0  0
  -28.1303  -24.8342   19.9369 C   0  0  0  0  0  0
  -31.3476  -17.8746   20.3247 N   0  0  0  0  0  0
  -29.8223  -15.9171   20.6151 N   0  0  0  0  0  0
  -29.2643  -22.2681   20.0179 N   0  3  2  0  0  0
  -31.4769  -12.5865   19.1728 H   0  0  0  0  0  0
  -30.3770  -11.4959   19.9668 H   0  0  0  0  0  0
  -29.8012  -11.7337   17.5254 H   0  0  0  0  0  0
  -29.6363  -13.4610   17.7176 H   0  0  0  0  0  0
  -27.9023  -11.2797   18.9188 H   0  0  0  0  0  0
  -27.3819  -12.5109   17.8011 H   0  0  0  0  0  0
  -27.6276  -14.2507   19.4567 H   0  0  0  0  0  0
  -28.7334  -12.1938   21.4323 H   0  0  0  0  0  0
  -28.4222  -13.8756   21.7854 H   0  0  0  0  0  0
  -25.2777   -9.5672   22.4772 H   0  0  0  0  0  0
  -24.0001   -7.4633   22.7490 H   0  0  0  0  0  0
  -21.0849   -8.8785   19.8959 H   0  0  0  0  0  0
  -22.3727  -10.9676   19.6171 H   0  0  0  0  0  0
  -21.2005   -7.6155   23.9727 H   0  0  0  0  0  0
  -21.1471   -6.0525   25.9084 H   0  0  0  0  0  0
  -22.0600   -2.7613   23.2843 H   0  0  0  0  0  0
  -22.4049  -11.9872   22.4789 H   0  0  0  0  0  0
  -21.1074  -13.1267   22.2596 H   0  0  0  0  0  0
  -24.6260  -15.8224   20.4856 H   0  0  0  0  0  0
  -26.2187  -15.6089   19.9659 H   0  0  0  0  0  0
  -26.7202  -32.5361   23.1036 H   0  0  0  0  0  0
  -25.0080  -33.9674   25.0382 H   0  0  0  0  0  0
  -22.7313  -31.2976   21.3905 H   0  0  0  0  0  0
  -23.3774  -35.9571   23.3259 H   0  0  0  0  0  0
  -24.3583  -36.8929   22.2065 H   0  0  0  0  0  0
  -23.7209  -37.6445   23.6681 H   0  0  0  0  0  0
  -26.1305  -31.5125   20.6119 H   0  0  0  0  0  0
  -26.8566  -30.7982   22.0178 H   0  0  0  0  0  0
  -28.1122  -28.8857   21.2295 H   0  0  0  0  0  0
  -25.9505  -25.9093   18.9591 H   0  0  0  0  0  0
  -23.9795  -27.3144   18.9771 H   0  0  0  0  0  0
  -23.7757  -30.5814   19.3969 H   0  0  0  0  0  0
  -22.7695  -29.2401   19.8494 H   0  0  0  0  0  0
  -25.1298  -36.1889   25.0818 H   0  0  0  0  0  0
  -21.0003  -28.3291   24.1374 H   0  0  0  0  0  0
  -20.5713  -26.2307   23.3624 H   0  0  0  0  0  0
  -21.6661  -26.7447   22.1195 H   0  0  0  0  0  0
  -19.6944  -25.6300   21.1237 H   0  0  0  0  0  0
  -19.6736  -27.3200   20.6759 H   0  0  0  0  0  0
  -17.4234  -26.6693   21.3993 H   0  0  0  0  0  0
  -18.0332  -26.0106   22.9012 H   0  0  0  0  0  0
  -19.7959  -30.7280   24.2254 H   0  0  0  0  0  0
  -17.5037  -31.6277   24.5163 H   0  0  0  0  0  0
  -15.5365  -30.2994   23.7689 H   0  0  0  0  0  0
  -15.8676  -28.0833   22.7072 H   0  0  0  0  0  0
  -24.5897  -30.7083   25.7745 H   0  0  0  0  0  0
  -24.8889  -32.2934   26.4779 H   0  0  0  0  0  0
  -25.8008  -30.8965   27.0230 H   0  0  0  0  0  0
  -26.2968  -29.6721   24.1237 H   0  0  0  0  0  0
  -27.4050  -29.7266   25.4751 H   0  0  0  0  0  0
  -27.8841  -30.4285   23.9484 H   0  0  0  0  0  0
  -27.2680  -33.3645   26.2005 H   0  0  0  0  0  0
  -28.3897  -32.6813   25.0315 H   0  0  0  0  0  0
  -28.0688  -31.8459   26.5440 H   0  0  0  0  0  0
  -28.2560  -38.0120   24.7575 H   0  0  0  0  0  0
  -28.1135  -36.2660   24.6186 H   0  0  0  0  0  0
  -27.2323  -37.1306   25.8861 H   0  0  0  0  0  0
  -20.9411  -29.8738   21.6799 H   0  0  0  0  0  0
  -26.0152  -38.2831   24.1473 H   0  0  0  0  0  0
  -28.1002  -21.2364   21.5237 H   0  0  0  0  0  0
  -27.5187  -20.9954   19.8742 H   0  0  0  0  0  0
  -31.2031  -22.1220   20.9103 H   0  0  0  0  0  0
  -26.8652  -18.7191   20.5904 H   0  0  0  0  0  0
  -27.4282  -17.4680   21.7017 H   0  0  0  0  0  0
  -27.3500  -17.1540   19.9622 H   0  0  0  0  0  0
  -33.3090  -20.4778   20.6109 H   0  0  0  0  0  0
  -33.3610  -19.6905   19.0237 H   0  0  0  0  0  0
  -33.7078  -18.7727   20.4892 H   0  0  0  0  0  0
  -30.9538  -21.7325   17.8640 H   0  0  0  0  0  0
  -32.4592  -21.8583   18.7625 H   0  0  0  0  0  0
  -31.4113  -23.2478   18.6353 H   0  0  0  0  0  0
  -28.8765  -23.6249   21.6726 H   0  0  0  0  0  0
  -30.0930  -24.1572   20.5739 H   0  0  0  0  0  0
  -27.1165  -24.5448   20.2153 H   0  0  0  0  0  0
  -28.1873  -24.7216   18.8542 H   0  0  0  0  0  0
  -28.8626  -15.6925   20.8123 H   0  0  0  0  0  0
  -29.0524  -22.3382   19.0342 H   0  0  0  0  0  0
  1 25  1  0  0  0
  1 30  2  0  0  0
  1 84  1  0  0  0
  2  3  1  0  0  0
  2 25  1  0  0  0
  2 86  1  0  0  0
  2 87  1  0  0  0
  3  4  1  0  0  0
  3 88  1  0  0  0
  3 89  1  0  0  0
  4  5  1  0  0  0
  4 90  1  0  0  0
  4 91  1  0  0  0
  5  6  1  0  0  0
  5 26  1  0  0  0
  5 92  1  0  0  0
  6 25  1  0  0  0
  6 93  1  0  0  0
  6 94  1  0  0  0
  7  8  2  0  0  0
  7 26  1  0  0  0
  7 29  1  0  0  0
  8  9  1  0  0  0
  8 22  1  0  0  0
  9 10  1  0  0  0
  9 27  2  0  0  0
 10 11  2  0  0  0
 10 15  1  0  0  0
 11 12  1  0  0  0
 11 95  1  0  0  0
 12 13  2  0  0  0
 12 96  1  0  0  0
 13 14  1  0  0  0
 13 31  1  0  0  0
 14 15  2  0  0  0
 14 97  1  0  0  0
 15 98  1  0  0  0
 16 17  2  0  0  0
 16 21  1  0  0  0
 16 31  1  0  0  0
 17 18  1  0  0  0
 17 99  1  0  0  0
 18 19  2  0  0  0
 18100  1  0  0  0
 19 20  1  0  0  0
 19 24  1  0  0  0
 20 21  2  0  0  0
 20101  1  0  0  0
 21 23  1  0  0  0
 22 28  1  0  0  0
 22 32  2  0  0  0
 26 27  1  0  0  0
 28102  1  0  0  0
 28103  1  0  0  0
 29104  1  0  0  0
 29105  1  0  0  0
 33 34  1  0  0  0
 33 66  1  0  0  0
 33 70  2  0  0  0
 34 36  1  0  0  0
 34 59  1  0  0  0
 34106  1  0  0  0
 35 44  2  0  0  0
 35 45  1  0  0  0
 35 68  1  0  0  0
 36 56  1  0  0  0
 36107  1  0  0  0
 37 39  1  0  0  0
 37 47  1  0  0  0
 37 66  1  0  0  0
 37108  1  0  0  0
 38 43  2  0  0  0
 38 46  1  0  0  0
 38 47  1  0  0  0
 39 64  1  0  0  0
 39 67  2  0  0  0
 40 52  1  0  0  0
 40 53  2  0  0  0
 40 58  1  0  0  0
 41109  1  0  0  0
 41110  1  0  0  0
 41111  1  0  0  0
 41 48  1  0  0  0
 42 43  1  0  0  0
 42 66  1  0  0  0
 42112  1  0  0  0
 42113  1  0  0  0
 43 44  1  0  0  0
 44114  1  0  0  0
 45 46  2  0  0  0
 45115  1  0  0  0
 46116  1  0  0  0
 47117  1  0  0  0
 47118  1  0  0  0
 48 56  1  0  0  0
 48 65  1  0  0  0
 48119  1  0  0  0
 49 50  1  0  0  0
 49 53  1  0  0  0
 49 64  1  0  0  0
 49120  1  0  0  0
 50 51  1  0  0  0
 50121  1  0  0  0
 50122  1  0  0  0
 51 52  1  0  0  0
 51123  1  0  0  0
 51124  1  0  0  0
 52125  1  0  0  0
 52126  1  0  0  0
 53 54  1  0  0  0
 54 55  2  0  0  0
 54127  1  0  0  0
 55 57  1  0  0  0
 55128  1  0  0  0
 56 69  2  0  0  0
 57 58  2  0  0  0
 57129  1  0  0  0
 58130  1  0  0  0
 59 60  1  0  0  0
 59 61  1  0  0  0
 59 62  1  0  0  0
 60131  1  0  0  0
 60132  1  0  0  0
 60133  1  0  0  0
 61134  1  0  0  0
 61135  1  0  0  0
 61136  1  0  0  0
 62137  1  0  0  0
 62138  1  0  0  0
 62139  1  0  0  0
 63 65  1  0  0  0
 63140  1  0  0  0
 63141  1  0  0  0
 63142  1  0  0  0
 64143  1  0  0  0
 65144  1  0  0  0
 68 82  1  0  0  0
 71 72  1  0  0  0
 71 73  2  0  0  0
 71 76  1  0  0  0
 72 74  2  0  0  0
 72 77  1  0  0  0
 73 75  1  0  0  0
 73 78  1  0  0  0
 74 79  1  0  0  0
 74 83  1  0  0  0
 75 83  2  0  0  0
 75 84  1  0  0  0
 76 85  1  0  0  0
 76145  1  0  0  0
 76146  1  0  0  0
 77 80  1  0  0  0
 77 85  1  0  0  0
 77147  1  0  0  0
 78148  1  0  0  0
 78149  1  0  0  0
 78150  1  0  0  0
 79151  1  0  0  0
 79152  1  0  0  0
 79153  1  0  0  0
 80154  1  0  0  0
 80155  1  0  0  0
 80156  1  0  0  0
 81 82  1  0  0  0
 81157  1  0  0  0
 81158  1  0  0  0
 81 85  1  0  0  0
 82159  1  0  0  0
 82160  1  0  0  0
 84161  1  0  0  0
 85162  1  0  0  0
M  CHG  1  85   1
M  ISO  4   1 100  68 101  82 101  84 100
M  END
> <chiral flag>
0

> <version>
0

> <s_m_source_file>
/data/baiqing/PycharmProjects/Reinvent-master-3.2/result/LINK_invent/BTK/process_docking_weight1_custom_sum_contain_oxygen_bond_distance_aromatic_linkinvent_7_9_3/rearranged_h_0159.sdf

> <i_m_source_file_index>
52

> <r_mmod_Potential_Energy-OPLS-2005>
-45.6233100891113

> <r_mmod_Stretch_Energy-OPLS-2005>
141.159118652344

> <r_mmod_Bend_Energy-OPLS-2005>
226.077178955078

> <r_mmod_Torsional_Energy-OPLS-2005>
222.806884765625

> <r_mmod_Improper_Torsional_Energy-OPLS-2005>
5.32116222381592

> <r_mmod_Van_der_Waal_Energy-OPLS-2005>
131.127334594727

> <r_mmod_Electrostatic_Energy-OPLS-2005>
-401.326629638672

> <r_mmod_Solvation_Energy-OPLS-2005>
-472.607208251953

> <b_mmod_Minimization_Converged-OPLS-2005>
0

> <r_mmod_RMS_Derivative-OPLS-2005>
1.97910153865814

$$$$
52
                    3D
 Structure written by MMmdl.
177187  0  0  1  0            999 V2000
  -30.6946  -14.4725   20.5160 C   0  0  0  0  0  0
  -30.4236  -12.2883   19.4344 C   0  0  0  0  0  0
  -29.5002  -12.4905   18.2134 C   0  0  0  0  0  0
  -28.0211  -12.3506   18.6242 C   0  0  0  0  0  0
  -27.6620  -13.2020   19.8715 C   0  0  2  0  0  0
  -28.7048  -13.0043   20.9989 C   0  0  0  0  0  0
  -25.2606  -13.8148   20.5674 C   0  0  0  0  0  0
  -24.1846  -13.0442   20.9178 C   0  0  0  0  0  0
  -24.6385  -11.6902   20.8733 C   0  0  0  0  0  0
  -23.9037  -10.4294   21.0404 C   0  0  0  0  0  0
  -24.3598   -9.4216   21.9186 C   0  0  0  0  0  0
  -23.6280   -8.2253   22.0757 C   0  0  0  0  0  0
  -22.4265   -8.0289   21.3548 C   0  0  0  0  0  0
  -21.9887   -9.0261   20.4654 C   0  0  0  0  0  0
  -22.7210  -10.2140   20.3063 C   0  0  0  0  0  0
  -21.6854   -6.0734   22.5279 C   0  0  0  0  0  0
  -21.4014   -6.5634   23.8211 C   0  0  0  0  0  0
  -21.3656   -5.6786   24.9173 C   0  0  0  0  0  0
  -21.6046   -4.3050   24.7221 C   0  0  0  0  0  0
  -21.8819   -3.8145   23.4340 C   0  0  0  0  0  0
  -21.9191   -4.6963   22.3396 C   0  0  0  0  0  0
  -22.7869  -13.5260   21.1831 C   0  0  0  0  0  0
  -22.1662   -4.2150   21.0972 F   0  0  0  0  0  0
  -21.5621   -3.4530   25.7731 F   0  0  0  0  0  0
  -30.0405  -13.2847   20.4453 N   0  0  0  0  0  0
  -26.3028  -12.9303   20.3348 N   0  0  0  0  0  0
  -25.9315  -11.6470   20.5768 N   0  0  0  0  0  0
  -22.0482  -12.8286   22.0387 N   0  0  0  0  0  0
  -25.4347  -15.1867   20.4079 N   0  0  0  0  0  0
  -31.8541  -14.6240   20.1249 O   0  0  0  0  0  0
  -21.6637   -6.8884   21.4244 O   0  0  0  0  0  0
  -22.3570  -14.5566   20.6671 O   0  0  0  0  0  0
  -24.6159  -31.8701   23.2133 C   0  0  0  0  0  0
  -25.9051  -32.4836   23.8413 C   0  0  1  0  0  0
  -27.2256  -27.4345   20.0813 C   0  0  0  0  0  0
  -25.5915  -33.8633   24.2350 N   0  0  0  0  0  0
  -23.4018  -30.4981   21.5556 C   0  0  2  0  0  0
  -24.8435  -28.9722   20.1154 C   0  0  0  0  0  0
  -22.7415  -29.4674   22.5000 C   0  0  0  0  0  0
  -18.0276  -28.1377   22.8491 C   0  0  0  0  0  0
  -24.1488  -36.7318   23.2633 C   0  0  0  0  0  0
  -25.9337  -30.8355   21.3670 C   0  0  0  0  0  0
  -26.0084  -29.4724   20.7101 C   0  0  0  0  0  0
  -27.2018  -28.7114   20.6905 C   0  0  0  0  0  0
  -26.0315  -26.9570   19.4825 C   0  0  0  0  0  0
  -24.8502  -27.7132   19.5005 C   0  0  0  0  0  0
  -23.6079  -29.8393   20.1673 C   0  0  0  0  0  0
  -25.4104  -36.3119   24.0341 C   0  0  1  0  0  0
  -20.5868  -28.3667   23.1318 C   0  0  2  0  0  0
  -20.6770  -26.9401   22.5424 C   0  0  0  0  0  0
  -19.5752  -26.6384   21.5215 C   0  0  0  0  0  0
  -18.1923  -26.7926   22.1612 C   0  0  0  0  0  0
  -19.1523  -28.8836   23.2902 C   0  0  0  0  0  0
  -18.9450  -30.1438   23.8920 C   0  0  0  0  0  0
  -17.6453  -30.6579   24.0570 C   0  0  0  0  0  0
  -25.9034  -34.9482   23.5138 C   0  0  0  0  0  0
  -16.5347  -29.9084   23.6322 C   0  0  0  0  0  0
  -16.7265  -28.6501   23.0346 C   0  0  0  0  0  0
  -26.4476  -31.6606   25.0732 C   0  0  0  0  0  0
  -25.3746  -31.3731   26.1490 C   0  0  0  0  0  0
  -27.0279  -30.3041   24.6096 C   0  0  0  0  0  0
  -27.6077  -32.4305   25.7473 C   0  0  0  0  0  0
  -27.5586  -37.1808   24.8457 C   0  0  0  0  0  0
  -21.4146  -29.3037   22.3730 N   0  0  0  0  0  0
  -26.4294  -37.3799   23.9409 N   0  0  0  0  0  0
  -24.6690  -31.0807   22.1038 N   0  0  0  0  0  0
  -23.4193  -28.8197   23.3018 O   0  0  0  0  0  0
  -28.3941  -26.6887   20.0913 O   0  0  0  0  0  0
  -26.5586  -34.8929   22.4695 O   0  0  0  0  0  0
  -23.5347  -32.1451   23.7534 O   0  0  0  0  0  0
  -29.3740  -23.1190   19.3503 C   0  0  0  0  0  0
  -31.6771  -23.7306   20.7981 C   0  0  0  0  0  0
  -29.4560  -24.3693   20.0009 C   0  0  0  0  0  0
  -30.4297  -22.1835   19.3830 C   0  0  0  0  0  0
  -30.6163  -24.6658   20.7591 C   0  0  0  0  0  0
  -31.6062  -22.4954   20.1016 C   0  0  0  0  0  0
  -30.5604  -20.7364   15.8850 C   0  0  0  0  0  0
  -30.7014  -22.1889   16.2537 C   0  0  0  0  0  0
  -30.1734  -18.0276   21.1685 C   0  0  0  0  0  0
  -30.8523  -17.1028   18.9736 C   0  0  0  0  0  0
  -29.8936  -19.4036   20.4985 C   0  0  0  0  0  0
  -30.5724  -18.4579   18.3038 C   0  0  0  0  0  0
  -31.1116  -21.1180   17.2458 C   0  0  0  0  0  0
  -29.9162  -16.8832   20.1754 C   0  0  1  0  0  0
  -30.7573  -25.9624   21.5391 C   0  0  0  0  0  0
  -33.8863  -21.9393   20.6228 C   0  0  0  0  0  0
  -28.2329  -25.2799   19.8626 C   0  0  0  0  0  0
  -30.3115  -20.9091   18.5323 C   0  0  1  0  0  0
  -29.8913  -15.5251   20.7661 N   0  0  0  0  0  0
  -30.6634  -19.6272   19.2333 N   0  3  1  0  0  0
  -32.6251  -21.5654   20.0817 O   0  0  0  0  0  0
  -31.4713  -12.3711   19.1405 H   0  0  0  0  0  0
  -30.3071  -11.2832   19.8419 H   0  0  0  0  0  0
  -29.7415  -11.7642   17.4357 H   0  0  0  0  0  0
  -29.6709  -13.4754   17.7749 H   0  0  0  0  0  0
  -27.8359  -11.2958   18.8324 H   0  0  0  0  0  0
  -27.3730  -12.6130   17.7866 H   0  0  0  0  0  0
  -27.6979  -14.2431   19.5535 H   0  0  0  0  0  0
  -28.6732  -11.9793   21.3704 H   0  0  0  0  0  0
  -28.4791  -13.6376   21.8585 H   0  0  0  0  0  0
  -25.2742   -9.5690   22.4758 H   0  0  0  0  0  0
  -23.9989   -7.4638   22.7472 H   0  0  0  0  0  0
  -21.0814   -8.8779   19.8961 H   0  0  0  0  0  0
  -22.3668  -10.9681   19.6170 H   0  0  0  0  0  0
  -21.2015   -7.6144   23.9712 H   0  0  0  0  0  0
  -21.1474   -6.0519   25.9074 H   0  0  0  0  0  0
  -22.0602   -2.7609   23.2842 H   0  0  0  0  0  0
  -22.4072  -11.9958   22.4813 H   0  0  0  0  0  0
  -21.1107  -13.1358   22.2562 H   0  0  0  0  0  0
  -24.6694  -15.8437   20.5141 H   0  0  0  0  0  0
  -26.2850  -15.6224   20.0740 H   0  0  0  0  0  0
  -26.7119  -32.5545   23.1171 H   0  0  0  0  0  0
  -25.0096  -33.9801   25.0515 H   0  0  0  0  0  0
  -22.6896  -31.3151   21.4224 H   0  0  0  0  0  0
  -23.3750  -35.9652   23.3300 H   0  0  0  0  0  0
  -24.3584  -36.8926   22.2046 H   0  0  0  0  0  0
  -23.7240  -37.6525   23.6641 H   0  0  0  0  0  0
  -26.0459  -31.6037   20.6003 H   0  0  0  0  0  0
  -26.8225  -30.8870   21.9842 H   0  0  0  0  0  0
  -28.1001  -29.0946   21.1543 H   0  0  0  0  0  0
  -25.9716  -26.0010   18.9857 H   0  0  0  0  0  0
  -23.9542  -27.3245   19.0357 H   0  0  0  0  0  0
  -23.7181  -30.6182   19.4117 H   0  0  0  0  0  0
  -22.7305  -29.2631   19.8691 H   0  0  0  0  0  0
  -25.1276  -36.1993   25.0834 H   0  0  0  0  0  0
  -20.9953  -28.3237   24.1442 H   0  0  0  0  0  0
  -20.5669  -26.2273   23.3610 H   0  0  0  0  0  0
  -21.6648  -26.7441   22.1228 H   0  0  0  0  0  0
  -19.6915  -25.6300   21.1230 H   0  0  0  0  0  0
  -19.6690  -27.3205   20.6753 H   0  0  0  0  0  0
  -17.4200  -26.6690   21.4004 H   0  0  0  0  0  0
  -18.0299  -26.0058   22.8993 H   0  0  0  0  0  0
  -19.7926  -30.7248   24.2304 H   0  0  0  0  0  0
  -17.5007  -31.6261   24.5170 H   0  0  0  0  0  0
  -15.5346  -30.2993   23.7632 H   0  0  0  0  0  0
  -15.8666  -28.0824   22.7051 H   0  0  0  0  0  0
  -24.5923  -30.7059   25.7852 H   0  0  0  0  0  0
  -24.8925  -32.2893   26.4913 H   0  0  0  0  0  0
  -25.8106  -30.8934   27.0262 H   0  0  0  0  0  0
  -26.2804  -29.6818   24.1161 H   0  0  0  0  0  0
  -27.4056  -29.7265   25.4543 H   0  0  0  0  0  0
  -27.8645  -30.4348   23.9227 H   0  0  0  0  0  0
  -27.2727  -33.3598   26.2091 H   0  0  0  0  0  0
  -28.3857  -32.6872   25.0270 H   0  0  0  0  0  0
  -28.0776  -31.8397   26.5347 H   0  0  0  0  0  0
  -28.2618  -38.0094   24.7507 H   0  0  0  0  0  0
  -28.1067  -36.2632   24.6269 H   0  0  0  0  0  0
  -27.2311  -37.1449   25.8862 H   0  0  0  0  0  0
  -20.9299  -29.8777   21.6974 H   0  0  0  0  0  0
  -26.0190  -38.2877   24.1420 H   0  0  0  0  0  0
  -28.4856  -22.8898   18.7772 H   0  0  0  0  0  0
  -32.5543  -23.9849   21.3748 H   0  0  0  0  0  0
  -31.2619  -20.3289   15.1590 H   0  0  0  0  0  0
  -29.5514  -20.3302   15.8334 H   0  0  0  0  0  0
  -29.7836  -22.7431   16.4433 H   0  0  0  0  0  0
  -31.4959  -22.7587   15.7750 H   0  0  0  0  0  0
  -29.5311  -17.9181   22.0433 H   0  0  0  0  0  0
  -31.2003  -17.9877   21.5359 H   0  0  0  0  0  0
  -31.8976  -17.0661   19.2842 H   0  0  0  0  0  0
  -30.7170  -16.3142   18.2317 H   0  0  0  0  0  0
  -30.1217  -20.1943   21.2129 H   0  0  0  0  0  0
  -28.8268  -19.4845   20.2846 H   0  0  0  0  0  0
  -29.5786  -18.4357   17.8525 H   0  0  0  0  0  0
  -31.2837  -18.5664   17.4851 H   0  0  0  0  0  0
  -32.1884  -21.0297   17.3819 H   0  0  0  0  0  0
  -28.8954  -17.0037   19.8052 H   0  0  0  0  0  0
  -31.6447  -25.9572   22.1726 H   0  0  0  0  0  0
  -29.8933  -26.1171   22.1861 H   0  0  0  0  0  0
  -30.8415  -26.8111   20.8596 H   0  0  0  0  0  0
  -34.6084  -21.1441   20.4381 H   0  0  0  0  0  0
  -33.8308  -22.0865   21.7017 H   0  0  0  0  0  0
  -34.2718  -22.8450   20.1524 H   0  0  0  0  0  0
  -27.4640  -24.8830   20.5285 H   0  0  0  0  0  0
  -27.8903  -25.1441   18.8360 H   0  0  0  0  0  0
  -29.2618  -20.8175   18.2456 H   0  0  0  0  0  0
  -28.9977  -15.2530   21.1490 H   0  0  0  0  0  0
  -31.6327  -19.7304   19.5016 H   0  0  0  0  0  0
  1 25  1  0  0  0
  1 30  2  0  0  0
  1 89  1  0  0  0
  2  3  1  0  0  0
  2 25  1  0  0  0
  2 92  1  0  0  0
  2 93  1  0  0  0
  3  4  1  0  0  0
  3 94  1  0  0  0
  3 95  1  0  0  0
  4  5  1  0  0  0
  4 96  1  0  0  0
  4 97  1  0  0  0
  5  6  1  0  0  0
  5 26  1  0  0  0
  5 98  1  0  0  0
  6 25  1  0  0  0
  6 99  1  0  0  0
  6100  1  0  0  0
  7  8  2  0  0  0
  7 26  1  0  0  0
  7 29  1  0  0  0
  8  9  1  0  0  0
  8 22  1  0  0  0
  9 10  1  0  0  0
  9 27  2  0  0  0
 10 11  2  0  0  0
 10 15  1  0  0  0
 11 12  1  0  0  0
 11101  1  0  0  0
 12 13  2  0  0  0
 12102  1  0  0  0
 13 14  1  0  0  0
 13 31  1  0  0  0
 14 15  2  0  0  0
 14103  1  0  0  0
 15104  1  0  0  0
 16 17  2  0  0  0
 16 21  1  0  0  0
 16 31  1  0  0  0
 17 18  1  0  0  0
 17105  1  0  0  0
 18 19  2  0  0  0
 18106  1  0  0  0
 19 20  1  0  0  0
 19 24  1  0  0  0
 20 21  2  0  0  0
 20107  1  0  0  0
 21 23  1  0  0  0
 22 28  1  0  0  0
 22 32  2  0  0  0
 26 27  1  0  0  0
 28108  1  0  0  0
 28109  1  0  0  0
 29110  1  0  0  0
 29111  1  0  0  0
 33 34  1  0  0  0
 33 66  1  0  0  0
 33 70  2  0  0  0
 34 36  1  0  0  0
 34 59  1  0  0  0
 34112  1  0  0  0
 35 44  2  0  0  0
 35 45  1  0  0  0
 35 68  1  0  0  0
 36 56  1  0  0  0
 36113  1  0  0  0
 37 39  1  0  0  0
 37 47  1  0  0  0
 37 66  1  0  0  0
 37114  1  0  0  0
 38 43  2  0  0  0
 38 46  1  0  0  0
 38 47  1  0  0  0
 39 64  1  0  0  0
 39 67  2  0  0  0
 40 52  1  0  0  0
 40 53  2  0  0  0
 40 58  1  0  0  0
 41115  1  0  0  0
 41116  1  0  0  0
 41117  1  0  0  0
 41 48  1  0  0  0
 42 43  1  0  0  0
 42 66  1  0  0  0
 42118  1  0  0  0
 42119  1  0  0  0
 43 44  1  0  0  0
 44120  1  0  0  0
 45 46  2  0  0  0
 45121  1  0  0  0
 46122  1  0  0  0
 47123  1  0  0  0
 47124  1  0  0  0
 48 56  1  0  0  0
 48 65  1  0  0  0
 48125  1  0  0  0
 49 50  1  0  0  0
 49 53  1  0  0  0
 49 64  1  0  0  0
 49126  1  0  0  0
 50 51  1  0  0  0
 50127  1  0  0  0
 50128  1  0  0  0
 51 52  1  0  0  0
 51129  1  0  0  0
 51130  1  0  0  0
 52131  1  0  0  0
 52132  1  0  0  0
 53 54  1  0  0  0
 54 55  2  0  0  0
 54133  1  0  0  0
 55 57  1  0  0  0
 55134  1  0  0  0
 56 69  2  0  0  0
 57 58  2  0  0  0
 57135  1  0  0  0
 58136  1  0  0  0
 59 60  1  0  0  0
 59 61  1  0  0  0
 59 62  1  0  0  0
 60137  1  0  0  0
 60138  1  0  0  0
 60139  1  0  0  0
 61140  1  0  0  0
 61141  1  0  0  0
 61142  1  0  0  0
 62143  1  0  0  0
 62144  1  0  0  0
 62145  1  0  0  0
 63 65  1  0  0  0
 63146  1  0  0  0
 63147  1  0  0  0
 63148  1  0  0  0
 64149  1  0  0  0
 65150  1  0  0  0
 68 87  1  0  0  0
 71 73  2  0  0  0
 71 74  1  0  0  0
 71151  1  0  0  0
 72 75  2  0  0  0
 72 76  1  0  0  0
 72152  1  0  0  0
 73 75  1  0  0  0
 73 87  1  0  0  0
 74 76  2  0  0  0
 74 88  1  0  0  0
 75 85  1  0  0  0
 76 91  1  0  0  0
 77 78  1  0  0  0
 77153  1  0  0  0
 77154  1  0  0  0
 77 83  1  0  0  0
 78 83  1  0  0  0
 78155  1  0  0  0
 78156  1  0  0  0
 79 81  1  0  0  0
 79 84  1  0  0  0
 79157  1  0  0  0
 79158  1  0  0  0
 80 82  1  0  0  0
 80 84  1  0  0  0
 80159  1  0  0  0
 80160  1  0  0  0
 81161  1  0  0  0
 81162  1  0  0  0
 81 90  1  0  0  0
 82 90  1  0  0  0
 82163  1  0  0  0
 82164  1  0  0  0
 83 88  1  0  0  0
 83165  1  0  0  0
 84 89  1  0  0  0
 84166  1  0  0  0
 85167  1  0  0  0
 85168  1  0  0  0
 85169  1  0  0  0
 86 91  1  0  0  0
 86170  1  0  0  0
 86171  1  0  0  0
 86172  1  0  0  0
 87173  1  0  0  0
 87174  1  0  0  0
 88 90  1  0  0  0
 88175  1  0  0  0
 89176  1  0  0  0
 90177  1  0  0  0
M  CHG  1  90   1
M  ISO  4   1 100  68 101  87 101  89 100
M  END
> <chiral flag>
0

> <version>
0

> <s_m_source_file>
/data/baiqing/PycharmProjects/Reinvent-master-3.2/result/LINK_invent/BTK/process_docking_weight1_custom_sum_contain_oxygen_bond_distance_aromatic_linkinvent_7_9_3/rearranged_h_0159.sdf

> <i_m_source_file_index>
53

> <r_mmod_Potential_Energy-OPLS-2005>
-33.7859802246094

> <r_mmod_Stretch_Energy-OPLS-2005>
43.0081405639648

> <r_mmod_Bend_Energy-OPLS-2005>
126.505996704102

> <r_mmod_Torsional_Energy-OPLS-2005>
283.970520019531

> <r_mmod_Improper_Torsional_Energy-OPLS-2005>
8.81908130645752

> <r_mmod_Van_der_Waal_Energy-OPLS-2005>
173.35432434082

> <r_mmod_Electrostatic_Energy-OPLS-2005>
-273.590637207031

> <r_mmod_Solvation_Energy-OPLS-2005>
-411.440521240234

> <b_mmod_Minimization_Converged-OPLS-2005>
0

> <r_mmod_RMS_Derivative-OPLS-2005>
1.50815951824188

$$$$
53
                    3D
 Structure written by MMmdl.
171181  0  0  1  0            999 V2000
  -30.6262  -14.6596   20.4767 C   0  0  0  0  0  0
  -30.4278  -12.3984   19.4738 C   0  0  0  0  0  0
  -29.5086  -12.5102   18.2367 C   0  0  0  0  0  0
  -28.0305  -12.3490   18.6424 C   0  0  0  0  0  0
  -27.6499  -13.2255   19.8656 C   0  0  2  0  0  0
  -28.6903  -13.1042   21.0021 C   0  0  0  0  0  0
  -25.2525  -13.8196   20.5692 C   0  0  0  0  0  0
  -24.1800  -13.0447   20.9195 C   0  0  0  0  0  0
  -24.6380  -11.6923   20.8741 C   0  0  0  0  0  0
  -23.9056  -10.4299   21.0400 C   0  0  0  0  0  0
  -24.3609   -9.4210   21.9177 C   0  0  0  0  0  0
  -23.6291   -8.2239   22.0747 C   0  0  0  0  0  0
  -22.4270   -8.0277   21.3543 C   0  0  0  0  0  0
  -21.9901   -9.0249   20.4639 C   0  0  0  0  0  0
  -22.7227  -10.2134   20.3048 C   0  0  0  0  0  0
  -21.6846   -6.0740   22.5283 C   0  0  0  0  0  0
  -21.4014   -6.5637   23.8221 C   0  0  0  0  0  0
  -21.3662   -5.6789   24.9179 C   0  0  0  0  0  0
  -21.6040   -4.3053   24.7227 C   0  0  0  0  0  0
  -21.8816   -3.8147   23.4347 C   0  0  0  0  0  0
  -21.9188   -4.6968   22.3405 C   0  0  0  0  0  0
  -22.7822  -13.5226   21.1869 C   0  0  0  0  0  0
  -22.1651   -4.2148   21.0984 F   0  0  0  0  0  0
  -21.5632   -3.4533   25.7741 F   0  0  0  0  0  0
  -30.0080  -13.4346   20.4423 N   0  0  0  0  0  0
  -26.2963  -12.9389   20.3329 N   0  0  0  0  0  0
  -25.9315  -11.6535   20.5767 N   0  0  0  0  0  0
  -22.0473  -12.8215   22.0430 N   0  0  0  0  0  0
  -25.4235  -15.1923   20.4131 N   0  0  0  0  0  0
  -31.7823  -14.7937   20.0650 O   0  0  0  0  0  0
  -21.6630   -6.8879   21.4244 O   0  0  0  0  0  0
  -22.3500  -14.5528   20.6717 O   0  0  0  0  0  0
  -24.6265  -31.8590   23.2017 C   0  0  0  0  0  0
  -25.9109  -32.4781   23.8354 C   0  0  1  0  0  0
  -27.2252  -27.3123   20.1246 C   0  0  0  0  0  0
  -25.5925  -33.8585   24.2281 N   0  0  0  0  0  0
  -23.4211  -30.4814   21.5447 C   0  0  2  0  0  0
  -24.8684  -28.9343   20.1112 C   0  0  0  0  0  0
  -22.7473  -29.4616   22.4935 C   0  0  0  0  0  0
  -18.0284  -28.1378   22.8486 C   0  0  0  0  0  0
  -24.1481  -36.7289   23.2638 C   0  0  0  0  0  0
  -25.9617  -30.7886   21.3737 C   0  0  0  0  0  0
  -26.0355  -29.4148   20.7166 C   0  0  0  0  0  0
  -27.2169  -28.6155   20.7124 C   0  0  0  0  0  0
  -26.0403  -26.8923   19.4792 C   0  0  0  0  0  0
  -24.8722  -27.6794   19.4820 C   0  0  0  0  0  0
  -23.6366  -29.8149   20.1601 C   0  0  0  0  0  0
  -25.4110  -36.3088   24.0329 C   0  0  1  0  0  0
  -20.5885  -28.3682   23.1285 C   0  0  2  0  0  0
  -20.6776  -26.9406   22.5408 C   0  0  0  0  0  0
  -19.5750  -26.6369   21.5216 C   0  0  0  0  0  0
  -18.1932  -26.7922   22.1621 C   0  0  0  0  0  0
  -19.1538  -28.8848   23.2878 C   0  0  0  0  0  0
  -18.9463  -30.1456   23.8883 C   0  0  0  0  0  0
  -17.6459  -30.6589   24.0554 C   0  0  0  0  0  0
  -25.9043  -34.9456   23.5101 C   0  0  0  0  0  0
  -16.5349  -29.9087   23.6325 C   0  0  0  0  0  0
  -16.7271  -28.6499   23.0354 C   0  0  0  0  0  0
  -26.4499  -31.6601   25.0730 C   0  0  0  0  0  0
  -25.3731  -31.3735   26.1456 C   0  0  0  0  0  0
  -27.0340  -30.3025   24.6187 C   0  0  0  0  0  0
  -27.6059  -32.4339   25.7494 C   0  0  0  0  0  0
  -27.5577  -37.1804   24.8467 C   0  0  0  0  0  0
  -21.4183  -29.3047   22.3692 N   0  0  0  0  0  0
  -26.4289  -37.3784   23.9408 N   0  0  0  0  0  0
  -24.6887  -31.0593   22.0975 N   0  0  0  0  0  0
  -23.4201  -28.8149   23.3008 O   0  0  0  0  0  0
  -28.3477  -26.4692   20.1822 O   0  0  0  0  0  0
  -26.5607  -34.8919   22.4666 O   0  0  0  0  0  0
  -23.5424  -32.1382   23.7344 O   0  0  0  0  0  0
  -29.1970  -18.2379   20.7358 C   0  0  0  0  0  0
  -29.8541  -17.0377   18.7169 C   0  0  0  0  0  0
  -28.7361  -19.3658   19.9559 C   0  0  0  0  0  0
  -29.3464  -18.0988   17.9375 C   0  0  0  0  0  0
  -29.6993  -17.0254   20.1242 C   0  0  0  0  0  0
  -28.7083  -19.1910   18.5596 C   0  0  0  0  0  0
  -28.9405  -24.2961   21.4134 C   0  0  0  0  0  0
  -28.6170  -24.2404   18.9565 C   0  0  0  0  0  0
  -26.4690  -20.4040   19.8626 C   0  0  0  0  0  0
  -29.1733  -22.7290   21.3005 C   0  0  0  0  0  0
  -28.3612  -22.6839   18.9700 C   0  0  0  0  0  0
  -27.8769  -20.5753   20.4959 C   0  0  2  0  0  0
  -28.1746  -24.9904   20.2383 C   0  0  2  0  0  0
  -26.5117  -19.8727   18.3993 C   0  0  1  0  0  0
  -29.3422  -17.9830   16.4259 C   0  0  0  0  0  0
  -25.5090  -20.5519   17.4578 C   0  0  0  0  0  0
  -29.8781  -15.7554   20.8439 N   0  0  0  0  0  0
  -28.2542  -22.0649   20.3335 N   0  3  1  0  0  0
  -27.8310  -19.9616   17.8405 O   0  0  0  0  0  0
  -31.4719  -12.5060   19.1767 H   0  0  0  0  0  0
  -30.3490  -11.4080   19.9249 H   0  0  0  0  0  0
  -29.7783  -11.7556   17.4966 H   0  0  0  0  0  0
  -29.6541  -13.4784   17.7551 H   0  0  0  0  0  0
  -27.8670  -11.2969   18.8769 H   0  0  0  0  0  0
  -27.3779  -12.5753   17.7979 H   0  0  0  0  0  0
  -27.6625  -14.2583   19.5173 H   0  0  0  0  0  0
  -28.6985  -12.0918   21.4098 H   0  0  0  0  0  0
  -28.4333  -13.7623   21.8334 H   0  0  0  0  0  0
  -25.2759   -9.5677   22.4751 H   0  0  0  0  0  0
  -24.0000   -7.4622   22.7454 H   0  0  0  0  0  0
  -21.0838   -8.8761   19.8945 H   0  0  0  0  0  0
  -22.3684  -10.9667   19.6151 H   0  0  0  0  0  0
  -21.2007   -7.6143   23.9723 H   0  0  0  0  0  0
  -21.1489   -6.0518   25.9083 H   0  0  0  0  0  0
  -22.0596   -2.7605   23.2844 H   0  0  0  0  0  0
  -22.4083  -11.9881   22.4829 H   0  0  0  0  0  0
  -21.1083  -13.1217   22.2635 H   0  0  0  0  0  0
  -24.6566  -15.8468   20.5240 H   0  0  0  0  0  0
  -26.2780  -15.6337   20.0983 H   0  0  0  0  0  0
  -26.7182  -32.5451   23.1111 H   0  0  0  0  0  0
  -25.0115  -33.9739   25.0457 H   0  0  0  0  0  0
  -22.7155  -31.3021   21.4009 H   0  0  0  0  0  0
  -23.3749  -35.9617   23.3307 H   0  0  0  0  0  0
  -24.3565  -36.8897   22.2048 H   0  0  0  0  0  0
  -23.7221  -37.6490   23.6648 H   0  0  0  0  0  0
  -26.0904  -31.5521   20.6055 H   0  0  0  0  0  0
  -26.8435  -30.8389   22.0013 H   0  0  0  0  0  0
  -28.1129  -28.9800   21.1955 H   0  0  0  0  0  0
  -25.9989  -25.9412   18.9697 H   0  0  0  0  0  0
  -23.9798  -27.3105   18.9956 H   0  0  0  0  0  0
  -23.7577  -30.5908   19.4030 H   0  0  0  0  0  0
  -22.7568  -29.2444   19.8569 H   0  0  0  0  0  0
  -25.1291  -36.1945   25.0823 H   0  0  0  0  0  0
  -20.9973  -28.3254   24.1408 H   0  0  0  0  0  0
  -20.5675  -26.2293   23.3608 H   0  0  0  0  0  0
  -21.6651  -26.7433   22.1208 H   0  0  0  0  0  0
  -19.6899  -25.6270   21.1264 H   0  0  0  0  0  0
  -19.6677  -27.3172   20.6741 H   0  0  0  0  0  0
  -17.4198  -26.6674   21.4023 H   0  0  0  0  0  0
  -18.0322  -26.0066   22.9018 H   0  0  0  0  0  0
  -19.7938  -30.7279   24.2251 H   0  0  0  0  0  0
  -17.5017  -31.6271   24.5157 H   0  0  0  0  0  0
  -15.5351  -30.2988   23.7656 H   0  0  0  0  0  0
  -15.8672  -28.0813   22.7083 H   0  0  0  0  0  0
  -24.5914  -30.7078   25.7782 H   0  0  0  0  0  0
  -24.8922  -32.2901   26.4874 H   0  0  0  0  0  0
  -25.8065  -30.8917   27.0230 H   0  0  0  0  0  0
  -26.2914  -29.6783   24.1207 H   0  0  0  0  0  0
  -27.4028  -29.7277   25.4692 H   0  0  0  0  0  0
  -27.8789  -30.4308   23.9419 H   0  0  0  0  0  0
  -27.2673  -33.3639   26.2066 H   0  0  0  0  0  0
  -28.3872  -32.6901   25.0328 H   0  0  0  0  0  0
  -28.0731  -31.8473   26.5411 H   0  0  0  0  0  0
  -28.2611  -38.0088   24.7516 H   0  0  0  0  0  0
  -28.1058  -36.2622   24.6300 H   0  0  0  0  0  0
  -27.2290  -37.1464   25.8869 H   0  0  0  0  0  0
  -20.9358  -29.8799   21.6930 H   0  0  0  0  0  0
  -26.0169  -38.2859   24.1423 H   0  0  0  0  0  0
  -29.0573  -18.2637   21.8079 H   0  0  0  0  0  0
  -30.2405  -16.1703   18.2014 H   0  0  0  0  0  0
  -29.9175  -24.7676   21.5263 H   0  0  0  0  0  0
  -28.4137  -24.5159   22.3426 H   0  0  0  0  0  0
  -28.1301  -24.6751   18.0833 H   0  0  0  0  0  0
  -29.6826  -24.4190   18.8103 H   0  0  0  0  0  0
  -25.8772  -21.3170   19.9448 H   0  0  0  0  0  0
  -25.9159  -19.6684   20.4489 H   0  0  0  0  0  0
  -29.0747  -22.2777   22.2884 H   0  0  0  0  0  0
  -30.1965  -22.5293   20.9802 H   0  0  0  0  0  0
  -29.1459  -22.1826   18.4030 H   0  0  0  0  0  0
  -27.4343  -22.5078   18.4317 H   0  0  0  0  0  0
  -27.7662  -20.4185   21.5696 H   0  0  0  0  0  0
  -27.1239  -24.7582   20.4105 H   0  0  0  0  0  0
  -26.2442  -18.8132   18.4228 H   0  0  0  0  0  0
  -30.1192  -17.3024   16.0783 H   0  0  0  0  0  0
  -29.5156  -18.9552   15.9630 H   0  0  0  0  0  0
  -28.3787  -17.6066   16.0813 H   0  0  0  0  0  0
  -25.7100  -21.6145   17.3327 H   0  0  0  0  0  0
  -24.4910  -20.4488   17.8336 H   0  0  0  0  0  0
  -25.5396  -20.0929   16.4695 H   0  0  0  0  0  0
  -29.1252  -15.5344   21.4789 H   0  0  0  0  0  0
  -27.3798  -22.4492   20.6586 H   0  0  0  0  0  0
  1 25  1  0  0  0
  1 30  2  0  0  0
  1 87  1  0  0  0
  2  3  1  0  0  0
  2 25  1  0  0  0
  2 90  1  0  0  0
  2 91  1  0  0  0
  3  4  1  0  0  0
  3 92  1  0  0  0
  3 93  1  0  0  0
  4  5  1  0  0  0
  4 94  1  0  0  0
  4 95  1  0  0  0
  5  6  1  0  0  0
  5 26  1  0  0  0
  5 96  1  0  0  0
  6 25  1  0  0  0
  6 97  1  0  0  0
  6 98  1  0  0  0
  7  8  2  0  0  0
  7 26  1  0  0  0
  7 29  1  0  0  0
  8  9  1  0  0  0
  8 22  1  0  0  0
  9 10  1  0  0  0
  9 27  2  0  0  0
 10 11  2  0  0  0
 10 15  1  0  0  0
 11 12  1  0  0  0
 11 99  1  0  0  0
 12 13  2  0  0  0
 12100  1  0  0  0
 13 14  1  0  0  0
 13 31  1  0  0  0
 14 15  2  0  0  0
 14101  1  0  0  0
 15102  1  0  0  0
 16 17  2  0  0  0
 16 21  1  0  0  0
 16 31  1  0  0  0
 17 18  1  0  0  0
 17103  1  0  0  0
 18 19  2  0  0  0
 18104  1  0  0  0
 19 20  1  0  0  0
 19 24  1  0  0  0
 20 21  2  0  0  0
 20105  1  0  0  0
 21 23  1  0  0  0
 22 28  1  0  0  0
 22 32  2  0  0  0
 26 27  1  0  0  0
 28106  1  0  0  0
 28107  1  0  0  0
 29108  1  0  0  0
 29109  1  0  0  0
 33 34  1  0  0  0
 33 66  1  0  0  0
 33 70  2  0  0  0
 34 36  1  0  0  0
 34 59  1  0  0  0
 34110  1  0  0  0
 35 44  2  0  0  0
 35 45  1  0  0  0
 35 68  1  0  0  0
 36 56  1  0  0  0
 36111  1  0  0  0
 37 39  1  0  0  0
 37 47  1  0  0  0
 37 66  1  0  0  0
 37112  1  0  0  0
 38 43  2  0  0  0
 38 46  1  0  0  0
 38 47  1  0  0  0
 39 64  1  0  0  0
 39 67  2  0  0  0
 40 52  1  0  0  0
 40 53  2  0  0  0
 40 58  1  0  0  0
 41113  1  0  0  0
 41114  1  0  0  0
 41115  1  0  0  0
 41 48  1  0  0  0
 42 43  1  0  0  0
 42 66  1  0  0  0
 42116  1  0  0  0
 42117  1  0  0  0
 43 44  1  0  0  0
 44118  1  0  0  0
 45 46  2  0  0  0
 45119  1  0  0  0
 46120  1  0  0  0
 47121  1  0  0  0
 47122  1  0  0  0
 48 56  1  0  0  0
 48 65  1  0  0  0
 48123  1  0  0  0
 49 50  1  0  0  0
 49 53  1  0  0  0
 49 64  1  0  0  0
 49124  1  0  0  0
 50 51  1  0  0  0
 50125  1  0  0  0
 50126  1  0  0  0
 51 52  1  0  0  0
 51127  1  0  0  0
 51128  1  0  0  0
 52129  1  0  0  0
 52130  1  0  0  0
 53 54  1  0  0  0
 54 55  2  0  0  0
 54131  1  0  0  0
 55 57  1  0  0  0
 55132  1  0  0  0
 56 69  2  0  0  0
 57 58  2  0  0  0
 57133  1  0  0  0
 58134  1  0  0  0
 59 60  1  0  0  0
 59 61  1  0  0  0
 59 62  1  0  0  0
 60135  1  0  0  0
 60136  1  0  0  0
 60137  1  0  0  0
 61138  1  0  0  0
 61139  1  0  0  0
 61140  1  0  0  0
 62141  1  0  0  0
 62142  1  0  0  0
 62143  1  0  0  0
 63 65  1  0  0  0
 63144  1  0  0  0
 63145  1  0  0  0
 63146  1  0  0  0
 64147  1  0  0  0
 65148  1  0  0  0
 68 83  1  0  0  0
 71 73  2  0  0  0
 71 75  1  0  0  0
 71149  1  0  0  0
 72 74  1  0  0  0
 72 75  2  0  0  0
 72150  1  0  0  0
 73 76  1  0  0  0
 73 82  1  0  0  0
 74 76  2  0  0  0
 74 85  1  0  0  0
 75 87  1  0  0  0
 76 89  1  0  0  0
 77 80  1  0  0  0
 77 83  1  0  0  0
 77151  1  0  0  0
 77152  1  0  0  0
 78 81  1  0  0  0
 78 83  1  0  0  0
 78153  1  0  0  0
 78154  1  0  0  0
 79 84  1  0  0  0
 79155  1  0  0  0
 79156  1  0  0  0
 79 82  1  0  0  0
 80157  1  0  0  0
 80158  1  0  0  0
 80 88  1  0  0  0
 81 88  1  0  0  0
 81159  1  0  0  0
 81160  1  0  0  0
 82 88  1  0  0  0
 82161  1  0  0  0
 83162  1  0  0  0
 84 86  1  0  0  0
 84 89  1  0  0  0
 84163  1  0  0  0
 85164  1  0  0  0
 85165  1  0  0  0
 85166  1  0  0  0
 86167  1  0  0  0
 86168  1  0  0  0
 86169  1  0  0  0
 87170  1  0  0  0
 88171  1  0  0  0
M  CHG  1  88   1
M  ISO  4   1 100  68 101  83 101  87 100
M  END
> <chiral flag>
0

> <version>
0

> <s_m_source_file>
/data/baiqing/PycharmProjects/Reinvent-master-3.2/result/LINK_invent/BTK/process_docking_weight1_custom_sum_contain_oxygen_bond_distance_aromatic_linkinvent_7_9_3/rearranged_h_0159.sdf

> <i_m_source_file_index>
54

> <r_mmod_Potential_Energy-OPLS-2005>
72.1129760742188

> <r_mmod_Stretch_Energy-OPLS-2005>
94.5842666625977

> <r_mmod_Bend_Energy-OPLS-2005>
181.86442565918

> <r_mmod_Torsional_Energy-OPLS-2005>
369.918701171875

> <r_mmod_Improper_Torsional_Energy-OPLS-2005>
11.4507551193237

> <r_mmod_Van_der_Waal_Energy-OPLS-2005>
152.045654296875

> <r_mmod_Electrostatic_Energy-OPLS-2005>
-349.649566650391

> <r_mmod_Solvation_Energy-OPLS-2005>
-441.473327636719

> <b_mmod_Minimization_Converged-OPLS-2005>
0

> <r_mmod_RMS_Derivative-OPLS-2005>
1.46549332141876

$$$$
54
                    3D
 Structure written by MMmdl.
154163  0  0  1  0            999 V2000
  -30.4540  -15.0600   20.3410 C   0  0  0  0  0  0
  -30.4876  -12.6457   19.5287 C   0  0  0  0  0  0
  -29.5549  -12.4683   18.2994 C   0  0  0  0  0  0
  -28.0711  -12.2978   18.7016 C   0  0  0  0  0  0
  -27.6324  -13.2290   19.8574 C   0  0  2  0  0  0
  -28.6930  -13.2516   20.9735 C   0  0  0  0  0  0
  -25.2457  -13.8180   20.5711 C   0  0  0  0  0  0
  -24.1793  -13.0452   20.9198 C   0  0  0  0  0  0
  -24.6389  -11.6921   20.8794 C   0  0  0  0  0  0
  -23.9085  -10.4331   21.0438 C   0  0  0  0  0  0
  -24.3655   -9.4257   21.9198 C   0  0  0  0  0  0
  -23.6344   -8.2298   22.0788 C   0  0  0  0  0  0
  -22.4308   -8.0361   21.3598 C   0  0  0  0  0  0
  -21.9947   -9.0319   20.4682 C   0  0  0  0  0  0
  -22.7289  -10.2188   20.3066 C   0  0  0  0  0  0
  -21.6869   -6.0829   22.5292 C   0  0  0  0  0  0
  -21.4030   -6.5702   23.8249 C   0  0  0  0  0  0
  -21.3602   -5.6841   24.9180 C   0  0  0  0  0  0
  -21.6024   -4.3096   24.7204 C   0  0  0  0  0  0
  -21.8848   -3.8234   23.4301 C   0  0  0  0  0  0
  -21.9202   -4.7060   22.3396 C   0  0  0  0  0  0
  -22.7799  -13.5214   21.1781 C   0  0  0  0  0  0
  -22.1667   -4.2276   21.0964 F   0  0  0  0  0  0
  -21.5568   -3.4548   25.7681 F   0  0  0  0  0  0
  -29.9506  -13.7445   20.3801 N   0  0  0  0  0  0
  -26.2913  -12.9381   20.3382 N   0  0  0  0  0  0
  -25.9340  -11.6529   20.5886 N   0  0  0  0  0  0
  -22.0426  -12.8289   22.0345 N   0  0  0  0  0  0
  -25.3939  -15.1961   20.4098 N   0  0  0  0  0  0
  -31.6760  -15.1373   20.1532 O   0  0  0  0  0  0
  -21.6642   -6.8974   21.4289 O   0  0  0  0  0  0
  -22.3474  -14.5476   20.6528 O   0  0  0  0  0  0
  -24.6468  -31.8351   23.1833 C   0  0  0  0  0  0
  -25.9240  -32.4638   23.8189 C   0  0  1  0  0  0
  -27.2397  -27.1115   20.1459 C   0  0  0  0  0  0
  -25.6014  -33.8453   24.2122 N   0  0  0  0  0  0
  -23.4474  -30.4436   21.5379 C   0  0  2  0  0  0
  -24.8972  -28.8531   20.1180 C   0  0  0  0  0  0
  -22.7588  -29.4482   22.5013 C   0  0  0  0  0  0
  -18.0289  -28.1375   22.8483 C   0  0  0  0  0  0
  -24.1500  -36.7221   23.2633 C   0  0  0  0  0  0
  -26.0003  -30.6966   21.3813 C   0  0  0  0  0  0
  -26.0690  -29.3015   20.7364 C   0  0  0  0  0  0
  -27.2272  -28.4372   20.7471 C   0  0  0  0  0  0
  -26.0408  -26.7649   19.4788 C   0  0  0  0  0  0
  -24.8937  -27.5981   19.4790 C   0  0  0  0  0  0
  -23.6696  -29.7516   20.1627 C   0  0  0  0  0  0
  -25.4120  -36.2967   24.0289 C   0  0  1  0  0  0
  -20.5885  -28.3701   23.1326 C   0  0  2  0  0  0
  -20.6805  -26.9402   22.5493 C   0  0  0  0  0  0
  -19.5805  -26.6374   21.5273 C   0  0  0  0  0  0
  -18.1950  -26.7899   22.1634 C   0  0  0  0  0  0
  -19.1537  -28.8874   23.2857 C   0  0  0  0  0  0
  -18.9440  -30.1477   23.8854 C   0  0  0  0  0  0
  -17.6444  -30.6593   24.0525 C   0  0  0  0  0  0
  -25.9089  -34.9362   23.4995 C   0  0  0  0  0  0
  -16.5339  -29.9055   23.6337 C   0  0  0  0  0  0
  -16.7275  -28.6490   23.0345 C   0  0  0  0  0  0
  -26.4579  -31.6539   25.0656 C   0  0  0  0  0  0
  -25.3806  -31.3727   26.1398 C   0  0  0  0  0  0
  -27.0431  -30.2941   24.6185 C   0  0  0  0  0  0
  -27.6046  -32.4352   25.7482 C   0  0  0  0  0  0
  -27.5546  -37.1746   24.8445 C   0  0  0  0  0  0
  -21.4286  -29.2986   22.3734 N   0  0  0  0  0  0
  -26.4244  -37.3713   23.9424 N   0  0  0  0  0  0
  -24.7183  -31.0157   22.0891 N   0  0  0  0  0  0
  -23.4220  -28.8084   23.3221 O   0  0  0  0  0  0
  -28.3266  -26.1635   20.2823 O   0  0  0  0  0  0
  -26.5654  -34.8871   22.4563 O   0  0  0  0  0  0
  -23.5597  -32.1243   23.7076 O   0  0  0  0  0  0
  -30.3759  -19.4488   17.9797 C   0  0  0  0  0  0
  -30.1785  -20.6746   18.6710 C   0  0  0  0  0  0
  -29.5452  -19.3676   20.6289 C   0  0  0  0  0  0
  -29.8606  -18.0658   19.9676 C   0  0  0  0  0  0
  -30.0903  -18.2147   18.6049 C   0  0  0  0  0  0
  -29.6270  -20.7123   19.9780 C   0  0  0  0  0  0
  -28.8976  -16.3349   18.8066 C   0  0  0  0  0  0
  -29.4897  -16.4724   20.2498 C   0  0  1  0  0  0
  -28.4854  -16.4716   21.4258 C   0  0  0  0  0  0
  -28.5445  -24.7581   19.6272 C   0  0  0  0  0  0
  -28.3461  -23.1300   20.1055 C   0  0  0  0  0  0
  -29.7585  -17.0836   17.9289 O   0  0  0  0  0  0
  -29.3545  -22.0333   20.5641 O   0  0  0  0  0  0
  -30.5834  -11.7294   20.1195 H   0  0  0  0  0  0
  -31.4917  -12.8815   19.1787 H   0  0  0  0  0  0
  -29.8752  -11.6025   17.7130 H   0  0  0  0  0  0
  -29.6500  -13.3268   17.6376 H   0  0  0  0  0  0
  -27.9451  -11.2623   19.0182 H   0  0  0  0  0  0
  -27.4244  -12.4215   17.8322 H   0  0  0  0  0  0
  -27.5483  -14.2192   19.4362 H   0  0  0  0  0  0
  -28.8119  -12.2434   21.3762 H   0  0  0  0  0  0
  -28.3995  -13.8424   21.8352 H   0  0  0  0  0  0
  -25.2807   -9.5755   22.4747 H   0  0  0  0  0  0
  -24.0055   -7.4731   22.7532 H   0  0  0  0  0  0
  -21.0854   -8.8885   19.8999 H   0  0  0  0  0  0
  -22.3784  -10.9738   19.6160 H   0  0  0  0  0  0
  -21.2079   -7.6217   23.9790 H   0  0  0  0  0  0
  -21.1306   -6.0536   25.9083 H   0  0  0  0  0  0
  -22.0654   -2.7692   23.2756 H   0  0  0  0  0  0
  -22.3912  -11.9907   22.4799 H   0  0  0  0  0  0
  -21.1045  -13.1362   22.2422 H   0  0  0  0  0  0
  -24.6306  -15.8373   20.5995 H   0  0  0  0  0  0
  -26.2604  -15.6699   20.2076 H   0  0  0  0  0  0
  -26.7306  -32.5206   23.0900 H   0  0  0  0  0  0
  -25.0196  -33.9585   25.0287 H   0  0  0  0  0  0
  -22.7476  -31.2647   21.3798 H   0  0  0  0  0  0
  -23.3729  -35.9589   23.3285 H   0  0  0  0  0  0
  -24.3560  -36.8873   22.2044 H   0  0  0  0  0  0
  -23.7307  -37.6434   23.6690 H   0  0  0  0  0  0
  -26.1322  -31.4351   20.5893 H   0  0  0  0  0  0
  -26.8785  -30.7635   22.0099 H   0  0  0  0  0  0
  -28.1072  -28.7673   21.2787 H   0  0  0  0  0  0
  -25.9483  -25.8033   18.9960 H   0  0  0  0  0  0
  -23.9918  -27.2428   18.9992 H   0  0  0  0  0  0
  -23.7975  -30.5107   19.3917 H   0  0  0  0  0  0
  -22.7846  -29.1847   19.8688 H   0  0  0  0  0  0
  -25.1321  -36.1711   25.0775 H   0  0  0  0  0  0
  -20.9871  -28.3284   24.1493 H   0  0  0  0  0  0
  -20.5758  -26.2257   23.3673 H   0  0  0  0  0  0
  -21.6662  -26.7492   22.1252 H   0  0  0  0  0  0
  -19.6995  -25.6301   21.1253 H   0  0  0  0  0  0
  -19.6746  -27.3209   20.6819 H   0  0  0  0  0  0
  -17.4248  -26.6668   21.3994 H   0  0  0  0  0  0
  -18.0324  -26.0044   22.9013 H   0  0  0  0  0  0
  -19.7911  -30.7325   24.2195 H   0  0  0  0  0  0
  -17.4976  -31.6269   24.5113 H   0  0  0  0  0  0
  -15.5336  -30.2930   23.7717 H   0  0  0  0  0  0
  -15.8657  -28.0806   22.7080 H   0  0  0  0  0  0
  -24.5904  -30.7185   25.7757 H   0  0  0  0  0  0
  -24.9145  -32.2944   26.4894 H   0  0  0  0  0  0
  -25.8154  -30.8838   27.0125 H   0  0  0  0  0  0
  -26.3041  -29.6712   24.1167 H   0  0  0  0  0  0
  -27.4053  -29.7178   25.4702 H   0  0  0  0  0  0
  -27.8934  -30.4208   23.9479 H   0  0  0  0  0  0
  -27.2495  -33.3547   26.2134 H   0  0  0  0  0  0
  -28.3814  -32.7112   25.0350 H   0  0  0  0  0  0
  -28.0776  -31.8485   26.5361 H   0  0  0  0  0  0
  -28.2515  -38.0091   24.7512 H   0  0  0  0  0  0
  -28.1083  -36.2603   24.6223 H   0  0  0  0  0  0
  -27.2267  -37.1338   25.8853 H   0  0  0  0  0  0
  -20.9584  -29.8606   21.6791 H   0  0  0  0  0  0
  -26.0050  -38.2738   24.1534 H   0  0  0  0  0  0
  -30.6429  -19.4618   16.9317 H   0  0  0  0  0  0
  -30.4139  -21.6006   18.1601 H   0  0  0  0  0  0
  -29.1533  -19.3421   21.6360 H   0  0  0  0  0  0
  -27.8774  -16.7330   18.7626 H   0  0  0  0  0  0
  -28.8655  -15.3307   18.3942 H   0  0  0  0  0  0
  -27.7223  -15.7189   21.2997 H   0  0  0  0  0  0
  -27.9307  -17.4041   21.5303 H   0  0  0  0  0  0
  -28.9853  -16.2831   22.3781 H   0  0  0  0  0  0
  -29.5851  -24.7983   19.3083 H   0  0  0  0  0  0
  -28.0055  -24.8364   18.6851 H   0  0  0  0  0  0
  -27.8580  -22.6531   19.2581 H   0  0  0  0  0  0
  -27.5517  -23.1195   20.8537 H   0  0  0  0  0  0
  1 25  1  0  0  0
  1 30  2  0  0  0
  1 78  1  0  0  0
  2  3  1  0  0  0
  2 25  1  0  0  0
  2 84  1  0  0  0
  2 85  1  0  0  0
  3  4  1  0  0  0
  3 86  1  0  0  0
  3 87  1  0  0  0
  4  5  1  0  0  0
  4 88  1  0  0  0
  4 89  1  0  0  0
  5  6  1  0  0  0
  5 26  1  0  0  0
  5 90  1  0  0  0
  6 25  1  0  0  0
  6 91  1  0  0  0
  6 92  1  0  0  0
  7  8  2  0  0  0
  7 26  1  0  0  0
  7 29  1  0  0  0
  8  9  1  0  0  0
  8 22  1  0  0  0
  9 10  1  0  0  0
  9 27  2  0  0  0
 10 11  2  0  0  0
 10 15  1  0  0  0
 11 12  1  0  0  0
 11 93  1  0  0  0
 12 13  2  0  0  0
 12 94  1  0  0  0
 13 14  1  0  0  0
 13 31  1  0  0  0
 14 15  2  0  0  0
 14 95  1  0  0  0
 15 96  1  0  0  0
 16 17  2  0  0  0
 16 21  1  0  0  0
 16 31  1  0  0  0
 17 18  1  0  0  0
 17 97  1  0  0  0
 18 19  2  0  0  0
 18 98  1  0  0  0
 19 20  1  0  0  0
 19 24  1  0  0  0
 20 21  2  0  0  0
 20 99  1  0  0  0
 21 23  1  0  0  0
 22 28  1  0  0  0
 22 32  2  0  0  0
 26 27  1  0  0  0
 28100  1  0  0  0
 28101  1  0  0  0
 29102  1  0  0  0
 29103  1  0  0  0
 33 34  1  0  0  0
 33 66  1  0  0  0
 33 70  2  0  0  0
 34 36  1  0  0  0
 34 59  1  0  0  0
 34104  1  0  0  0
 35 44  2  0  0  0
 35 45  1  0  0  0
 35 68  1  0  0  0
 36 56  1  0  0  0
 36105  1  0  0  0
 37 39  1  0  0  0
 37 47  1  0  0  0
 37 66  1  0  0  0
 37106  1  0  0  0
 38 43  2  0  0  0
 38 46  1  0  0  0
 38 47  1  0  0  0
 39 64  1  0  0  0
 39 67  2  0  0  0
 40 52  1  0  0  0
 40 53  2  0  0  0
 40 58  1  0  0  0
 41107  1  0  0  0
 41108  1  0  0  0
 41109  1  0  0  0
 41 48  1  0  0  0
 42 43  1  0  0  0
 42 66  1  0  0  0
 42110  1  0  0  0
 42111  1  0  0  0
 43 44  1  0  0  0
 44112  1  0  0  0
 45 46  2  0  0  0
 45113  1  0  0  0
 46114  1  0  0  0
 47115  1  0  0  0
 47116  1  0  0  0
 48 56  1  0  0  0
 48 65  1  0  0  0
 48117  1  0  0  0
 49 50  1  0  0  0
 49 53  1  0  0  0
 49 64  1  0  0  0
 49118  1  0  0  0
 50 51  1  0  0  0
 50119  1  0  0  0
 50120  1  0  0  0
 51 52  1  0  0  0
 51121  1  0  0  0
 51122  1  0  0  0
 52123  1  0  0  0
 52124  1  0  0  0
 53 54  1  0  0  0
 54 55  2  0  0  0
 54125  1  0  0  0
 55 57  1  0  0  0
 55126  1  0  0  0
 56 69  2  0  0  0
 57 58  2  0  0  0
 57127  1  0  0  0
 58128  1  0  0  0
 59 60  1  0  0  0
 59 61  1  0  0  0
 59 62  1  0  0  0
 60129  1  0  0  0
 60130  1  0  0  0
 60131  1  0  0  0
 61132  1  0  0  0
 61133  1  0  0  0
 61134  1  0  0  0
 62135  1  0  0  0
 62136  1  0  0  0
 62137  1  0  0  0
 63 65  1  0  0  0
 63138  1  0  0  0
 63139  1  0  0  0
 63140  1  0  0  0
 64141  1  0  0  0
 65142  1  0  0  0
 68 80  1  0  0  0
 71 72  2  0  0  0
 71 75  1  0  0  0
 71143  1  0  0  0
 72 76  1  0  0  0
 72144  1  0  0  0
 73 74  1  0  0  0
 73 76  2  0  0  0
 73145  1  0  0  0
 74 75  2  0  0  0
 74 78  1  0  0  0
 75 82  1  0  0  0
 76 83  1  0  0  0
 77 78  1  0  0  0
 77 82  1  0  0  0
 77146  1  0  0  0
 77147  1  0  0  0
 78 79  1  0  0  0
 79148  1  0  0  0
 79149  1  0  0  0
 79150  1  0  0  0
 80 81  1  0  0  0
 80151  1  0  0  0
 80152  1  0  0  0
 81 83  1  0  0  0
 81153  1  0  0  0
 81154  1  0  0  0
M  ISO  4   1 100  68 101  78 100  80 101
M  END
> <chiral flag>
0

> <version>
0

> <s_m_source_file>
/data/baiqing/PycharmProjects/Reinvent-master-3.2/result/LINK_invent/BTK/process_docking_weight1_custom_sum_contain_oxygen_bond_distance_aromatic_linkinvent_7_9_3/rearranged_h_0159.sdf

> <i_m_source_file_index>
55

> <r_mmod_Potential_Energy-OPLS-2005>
915.7392578125

> <r_mmod_Stretch_Energy-OPLS-2005>
308.010925292969

> <r_mmod_Bend_Energy-OPLS-2005>
444.561950683594

> <r_mmod_Torsional_Energy-OPLS-2005>
265.972564697266

> <r_mmod_Improper_Torsional_Energy-OPLS-2005>
14.9075698852539

> <r_mmod_Van_der_Waal_Energy-OPLS-2005>
137.144027709961

> <r_mmod_Electrostatic_Energy-OPLS-2005>
-287.684906005859

> <r_mmod_Solvation_Energy-OPLS-2005>
-215.114532470703

> <b_mmod_Minimization_Converged-OPLS-2005>
0

> <r_mmod_RMS_Derivative-OPLS-2005>
8.30753135681152

$$$$
55
                    3D
 Structure written by MMmdl.
159168  0  0  1  0            999 V2000
  -30.5236  -14.9268   20.4077 C   0  0  0  0  0  0
  -30.4249  -12.5569   19.5246 C   0  0  0  0  0  0
  -29.5184  -12.5004   18.2710 C   0  0  0  0  0  0
  -28.0529  -12.2810   18.6877 C   0  0  0  0  0  0
  -27.6220  -13.2354   19.8343 C   0  0  2  0  0  0
  -28.6526  -13.2660   20.9830 C   0  0  0  0  0  0
  -25.2418  -13.8190   20.5686 C   0  0  0  0  0  0
  -24.1716  -13.0422   20.9190 C   0  0  0  0  0  0
  -24.6326  -11.6904   20.8744 C   0  0  0  0  0  0
  -23.9013  -10.4273   21.0388 C   0  0  0  0  0  0
  -24.3573   -9.4202   21.9177 C   0  0  0  0  0  0
  -23.6251   -8.2240   22.0768 C   0  0  0  0  0  0
  -22.4253   -8.0268   21.3535 C   0  0  0  0  0  0
  -21.9875   -9.0227   20.4641 C   0  0  0  0  0  0
  -22.7188  -10.2106   20.3036 C   0  0  0  0  0  0
  -21.6850   -6.0715   22.5271 C   0  0  0  0  0  0
  -21.4024   -6.5617   23.8210 C   0  0  0  0  0  0
  -21.3659   -5.6768   24.9170 C   0  0  0  0  0  0
  -21.6045   -4.3035   24.7218 C   0  0  0  0  0  0
  -21.8815   -3.8122   23.4346 C   0  0  0  0  0  0
  -21.9193   -4.6938   22.3401 C   0  0  0  0  0  0
  -22.7762  -13.5229   21.1854 C   0  0  0  0  0  0
  -22.1653   -4.2117   21.0974 F   0  0  0  0  0  0
  -21.5624   -3.4533   25.7728 F   0  0  0  0  0  0
  -29.9351  -13.6646   20.3953 N   0  0  0  0  0  0
  -26.2807  -12.9390   20.3211 N   0  0  0  0  0  0
  -25.9246  -11.6527   20.5711 N   0  0  0  0  0  0
  -22.0419  -12.8216   22.0415 N   0  0  0  0  0  0
  -25.4108  -15.1915   20.4141 N   0  0  0  0  0  0
  -31.7175  -14.9920   20.1012 O   0  0  0  0  0  0
  -21.6635   -6.8858   21.4232 O   0  0  0  0  0  0
  -22.3465  -14.5539   20.6721 O   0  0  0  0  0  0
  -24.6469  -31.8397   23.1856 C   0  0  0  0  0  0
  -25.9241  -32.4657   23.8235 C   0  0  1  0  0  0
  -27.1885  -27.1019   20.1314 C   0  0  0  0  0  0
  -25.5973  -33.8470   24.2109 N   0  0  0  0  0  0
  -23.4488  -30.4578   21.5401 C   0  0  2  0  0  0
  -24.8883  -28.8890   20.0956 C   0  0  0  0  0  0
  -22.7563  -29.4492   22.4905 C   0  0  0  0  0  0
  -18.0273  -28.1353   22.8444 C   0  0  0  0  0  0
  -24.1495  -36.7202   23.2675 C   0  0  0  0  0  0
  -26.0045  -30.7005   21.3900 C   0  0  0  0  0  0
  -26.0695  -29.3135   20.7200 C   0  0  0  0  0  0
  -27.2233  -28.4362   20.7163 C   0  0  0  0  0  0
  -25.9831  -26.7912   19.4692 C   0  0  0  0  0  0
  -24.8633  -27.6469   19.4444 C   0  0  0  0  0  0
  -23.6676  -29.7949   20.1557 C   0  0  0  0  0  0
  -25.4136  -36.2992   24.0306 C   0  0  1  0  0  0
  -20.5883  -28.3688   23.1193 C   0  0  2  0  0  0
  -20.6760  -26.9387   22.5369 C   0  0  0  0  0  0
  -19.5740  -26.6346   21.5165 C   0  0  0  0  0  0
  -18.1924  -26.7899   22.1565 C   0  0  0  0  0  0
  -19.1540  -28.8836   23.2802 C   0  0  0  0  0  0
  -18.9488  -30.1434   23.8828 C   0  0  0  0  0  0
  -17.6509  -30.6589   24.0518 C   0  0  0  0  0  0
  -25.9085  -34.9394   23.5009 C   0  0  0  0  0  0
  -16.5380  -29.9076   23.6340 C   0  0  0  0  0  0
  -16.7271  -28.6481   23.0355 C   0  0  0  0  0  0
  -26.4580  -31.6573   25.0723 C   0  0  0  0  0  0
  -25.3730  -31.3770   26.1386 C   0  0  0  0  0  0
  -27.0470  -30.2958   24.6350 C   0  0  0  0  0  0
  -27.6087  -32.4395   25.7491 C   0  0  0  0  0  0
  -27.5538  -37.1743   24.8463 C   0  0  0  0  0  0
  -21.4260  -29.3018   22.3610 N   0  0  0  0  0  0
  -26.4254  -37.3717   23.9419 N   0  0  0  0  0  0
  -24.7209  -31.0213   22.0932 N   0  0  0  0  0  0
  -23.4193  -28.8023   23.3060 O   0  0  0  0  0  0
  -28.2223  -26.0910   20.1739 O   0  0  0  0  0  0
  -26.5733  -34.8941   22.4627 O   0  0  0  0  0  0
  -23.5577  -32.1304   23.7085 O   0  0  0  0  0  0
  -28.6071  -19.8544   19.5131 C   0  0  0  0  0  0
  -29.7367  -21.0698   21.6411 C   0  0  0  0  0  0
  -28.3717  -21.2920   19.7148 C   0  0  0  0  0  0
  -28.9907  -21.9519   20.8000 C   0  0  0  0  0  0
  -29.4276  -19.0373   20.3832 C   0  0  0  0  0  0
  -28.8855  -23.5440   21.0586 C   0  0  0  0  0  0
  -27.8374  -23.7438   18.7888 C   0  0  0  0  0  0
  -27.9569  -24.5358   20.1610 C   0  0  2  0  0  0
  -27.4417  -22.1774   18.8335 C   0  0  0  0  0  0
  -26.0077  -22.0350   19.4025 C   0  0  0  0  0  0
  -27.4238  -21.6038   17.3941 C   0  0  0  0  0  0
  -30.0633  -17.5543   20.0083 C   0  0  0  0  0  0
  -29.9481  -19.7159   21.4520 N   0  0  0  0  0  0
  -29.7443  -16.1077   20.5304 N   0  0  0  0  0  0
  -31.4682  -12.6927   19.2333 H   0  0  0  0  0  0
  -30.3882  -11.6096   20.0670 H   0  0  0  0  0  0
  -29.8431  -11.6940   17.6098 H   0  0  0  0  0  0
  -29.6085  -13.4292   17.7037 H   0  0  0  0  0  0
  -27.9666  -11.2485   19.0272 H   0  0  0  0  0  0
  -27.3857  -12.3753   17.8287 H   0  0  0  0  0  0
  -27.5881  -14.2315   19.3912 H   0  0  0  0  0  0
  -28.7244  -12.2887   21.4647 H   0  0  0  0  0  0
  -28.3447  -13.9714   21.7588 H   0  0  0  0  0  0
  -25.2702   -9.5706   22.4766 H   0  0  0  0  0  0
  -23.9946   -7.4662   22.7522 H   0  0  0  0  0  0
  -21.0805   -8.8728   19.8961 H   0  0  0  0  0  0
  -22.3624  -10.9637   19.6149 H   0  0  0  0  0  0
  -21.2027   -7.6133   23.9695 H   0  0  0  0  0  0
  -21.1490   -6.0512   25.9067 H   0  0  0  0  0  0
  -22.0603   -2.7592   23.2851 H   0  0  0  0  0  0
  -22.4020  -11.9844   22.4732 H   0  0  0  0  0  0
  -21.1069  -13.1289   22.2680 H   0  0  0  0  0  0
  -24.6374  -15.8383   20.5172 H   0  0  0  0  0  0
  -26.2531  -15.6376   20.0744 H   0  0  0  0  0  0
  -26.7313  -32.5246   23.0949 H   0  0  0  0  0  0
  -25.0016  -33.9535   25.0190 H   0  0  0  0  0  0
  -22.7543  -31.2869   21.3966 H   0  0  0  0  0  0
  -23.3784  -35.9499   23.3328 H   0  0  0  0  0  0
  -24.3503  -36.8858   22.2077 H   0  0  0  0  0  0
  -23.7208  -37.6351   23.6773 H   0  0  0  0  0  0
  -26.1636  -31.4655   20.6295 H   0  0  0  0  0  0
  -26.8709  -30.7403   22.0364 H   0  0  0  0  0  0
  -28.1269  -28.7567   21.2184 H   0  0  0  0  0  0
  -25.8848  -25.8407   18.9738 H   0  0  0  0  0  0
  -23.9708  -27.3198   18.9236 H   0  0  0  0  0  0
  -23.7838  -30.5763   19.4034 H   0  0  0  0  0  0
  -22.7831  -29.2324   19.8548 H   0  0  0  0  0  0
  -25.1327  -36.1788   25.0779 H   0  0  0  0  0  0
  -20.9920  -28.3293   24.1327 H   0  0  0  0  0  0
  -20.5610  -26.2302   23.3595 H   0  0  0  0  0  0
  -21.6637  -26.7374   22.1178 H   0  0  0  0  0  0
  -19.6923  -25.6253   21.1211 H   0  0  0  0  0  0
  -19.6688  -27.3150   20.6707 H   0  0  0  0  0  0
  -17.4169  -26.6600   21.4004 H   0  0  0  0  0  0
  -18.0323  -26.0060   22.8979 H   0  0  0  0  0  0
  -19.8015  -30.7203   24.2171 H   0  0  0  0  0  0
  -17.5118  -31.6281   24.5130 H   0  0  0  0  0  0
  -15.5389  -30.2974   23.7760 H   0  0  0  0  0  0
  -15.8639  -28.0819   22.7106 H   0  0  0  0  0  0
  -24.6019  -30.6971   25.7709 H   0  0  0  0  0  0
  -24.8790  -32.2952   26.4607 H   0  0  0  0  0  0
  -25.8001  -30.9122   27.0282 H   0  0  0  0  0  0
  -26.3096  -29.6589   24.1441 H   0  0  0  0  0  0
  -27.4143  -29.7348   25.4944 H   0  0  0  0  0  0
  -27.8998  -30.4137   23.9642 H   0  0  0  0  0  0
  -27.2731  -33.3907   26.1660 H   0  0  0  0  0  0
  -28.4107  -32.6557   25.0410 H   0  0  0  0  0  0
  -28.0508  -31.8748   26.5696 H   0  0  0  0  0  0
  -28.2552  -38.0051   24.7517 H   0  0  0  0  0  0
  -28.1041  -36.2564   24.6331 H   0  0  0  0  0  0
  -27.2238  -37.1406   25.8858 H   0  0  0  0  0  0
  -20.9494  -29.8744   21.6785 H   0  0  0  0  0  0
  -26.0127  -38.2755   24.1506 H   0  0  0  0  0  0
  -28.1912  -19.3693   18.6395 H   0  0  0  0  0  0
  -30.2155  -21.4730   22.5219 H   0  0  0  0  0  0
  -29.9085  -23.9184   20.9946 H   0  0  0  0  0  0
  -28.5986  -23.6799   22.1036 H   0  0  0  0  0  0
  -28.7897  -23.8333   18.2651 H   0  0  0  0  0  0
  -27.1238  -24.2476   18.1423 H   0  0  0  0  0  0
  -26.9703  -24.4545   20.6140 H   0  0  0  0  0  0
  -25.9237  -22.4637   20.3997 H   0  0  0  0  0  0
  -25.7167  -20.9890   19.4964 H   0  0  0  0  0  0
  -25.2581  -22.5184   18.7731 H   0  0  0  0  0  0
  -28.4271  -21.3470   17.0495 H   0  0  0  0  0  0
  -26.9930  -22.2959   16.6708 H   0  0  0  0  0  0
  -26.8324  -20.6872   17.3380 H   0  0  0  0  0  0
  -31.1378  -17.6812   20.1577 H   0  0  0  0  0  0
  -29.9607  -17.4782   18.9245 H   0  0  0  0  0  0
  -28.7879  -15.9678   20.8149 H   0  0  0  0  0  0
  1 25  1  0  0  0
  1 30  2  0  0  0
  1 84  1  0  0  0
  2  3  1  0  0  0
  2 25  1  0  0  0
  2 85  1  0  0  0
  2 86  1  0  0  0
  3  4  1  0  0  0
  3 87  1  0  0  0
  3 88  1  0  0  0
  4  5  1  0  0  0
  4 89  1  0  0  0
  4 90  1  0  0  0
  5  6  1  0  0  0
  5 26  1  0  0  0
  5 91  1  0  0  0
  6 25  1  0  0  0
  6 92  1  0  0  0
  6 93  1  0  0  0
  7  8  2  0  0  0
  7 26  1  0  0  0
  7 29  1  0  0  0
  8  9  1  0  0  0
  8 22  1  0  0  0
  9 10  1  0  0  0
  9 27  2  0  0  0
 10 11  2  0  0  0
 10 15  1  0  0  0
 11 12  1  0  0  0
 11 94  1  0  0  0
 12 13  2  0  0  0
 12 95  1  0  0  0
 13 14  1  0  0  0
 13 31  1  0  0  0
 14 15  2  0  0  0
 14 96  1  0  0  0
 15 97  1  0  0  0
 16 17  2  0  0  0
 16 21  1  0  0  0
 16 31  1  0  0  0
 17 18  1  0  0  0
 17 98  1  0  0  0
 18 19  2  0  0  0
 18 99  1  0  0  0
 19 20  1  0  0  0
 19 24  1  0  0  0
 20 21  2  0  0  0
 20100  1  0  0  0
 21 23  1  0  0  0
 22 28  1  0  0  0
 22 32  2  0  0  0
 26 27  1  0  0  0
 28101  1  0  0  0
 28102  1  0  0  0
 29103  1  0  0  0
 29104  1  0  0  0
 33 34  1  0  0  0
 33 66  1  0  0  0
 33 70  2  0  0  0
 34 36  1  0  0  0
 34 59  1  0  0  0
 34105  1  0  0  0
 35 44  2  0  0  0
 35 45  1  0  0  0
 35 68  1  0  0  0
 36 56  1  0  0  0
 36106  1  0  0  0
 37 39  1  0  0  0
 37 47  1  0  0  0
 37 66  1  0  0  0
 37107  1  0  0  0
 38 43  2  0  0  0
 38 46  1  0  0  0
 38 47  1  0  0  0
 39 64  1  0  0  0
 39 67  2  0  0  0
 40 52  1  0  0  0
 40 53  2  0  0  0
 40 58  1  0  0  0
 41108  1  0  0  0
 41109  1  0  0  0
 41110  1  0  0  0
 41 48  1  0  0  0
 42 43  1  0  0  0
 42 66  1  0  0  0
 42111  1  0  0  0
 42112  1  0  0  0
 43 44  1  0  0  0
 44113  1  0  0  0
 45 46  2  0  0  0
 45114  1  0  0  0
 46115  1  0  0  0
 47116  1  0  0  0
 47117  1  0  0  0
 48 56  1  0  0  0
 48 65  1  0  0  0
 48118  1  0  0  0
 49 50  1  0  0  0
 49 53  1  0  0  0
 49 64  1  0  0  0
 49119  1  0  0  0
 50 51  1  0  0  0
 50120  1  0  0  0
 50121  1  0  0  0
 51 52  1  0  0  0
 51122  1  0  0  0
 51123  1  0  0  0
 52124  1  0  0  0
 52125  1  0  0  0
 53 54  1  0  0  0
 54 55  2  0  0  0
 54126  1  0  0  0
 55 57  1  0  0  0
 55127  1  0  0  0
 56 69  2  0  0  0
 57 58  2  0  0  0
 57128  1  0  0  0
 58129  1  0  0  0
 59 60  1  0  0  0
 59 61  1  0  0  0
 59 62  1  0  0  0
 60130  1  0  0  0
 60131  1  0  0  0
 60132  1  0  0  0
 61133  1  0  0  0
 61134  1  0  0  0
 61135  1  0  0  0
 62136  1  0  0  0
 62137  1  0  0  0
 62138  1  0  0  0
 63 65  1  0  0  0
 63139  1  0  0  0
 63140  1  0  0  0
 63141  1  0  0  0
 64142  1  0  0  0
 65143  1  0  0  0
 68 78  1  0  0  0
 71 73  2  0  0  0
 71 75  1  0  0  0
 71144  1  0  0  0
 72 74  2  0  0  0
 72 83  1  0  0  0
 72145  1  0  0  0
 73 74  1  0  0  0
 73 79  1  0  0  0
 74 76  1  0  0  0
 75 82  1  0  0  0
 75 83  2  0  0  0
 76 78  1  0  0  0
 76146  1  0  0  0
 76147  1  0  0  0
 77 78  1  0  0  0
 77 79  1  0  0  0
 77148  1  0  0  0
 77149  1  0  0  0
 78150  1  0  0  0
 79 80  1  0  0  0
 79 81  1  0  0  0
 80151  1  0  0  0
 80152  1  0  0  0
 80153  1  0  0  0
 81154  1  0  0  0
 81155  1  0  0  0
 81156  1  0  0  0
 82 84  1  0  0  0
 82157  1  0  0  0
 82158  1  0  0  0
 84159  1  0  0  0
M  ISO  4   1 100  68 101  78 101  84 100
M  END
> <chiral flag>
0

> <version>
0

> <s_m_source_file>
/data/baiqing/PycharmProjects/Reinvent-master-3.2/result/LINK_invent/BTK/process_docking_weight1_custom_sum_contain_oxygen_bond_distance_aromatic_linkinvent_7_9_3/rearranged_h_0159.sdf

> <i_m_source_file_index>
56

> <r_mmod_Potential_Energy-OPLS-2005>
182.129959106445

> <r_mmod_Stretch_Energy-OPLS-2005>
229.977203369141

> <r_mmod_Bend_Energy-OPLS-2005>
256.846984863281

> <r_mmod_Torsional_Energy-OPLS-2005>
232.5703125

> <r_mmod_Improper_Torsional_Energy-OPLS-2005>
7.82653522491455

> <r_mmod_Van_der_Waal_Energy-OPLS-2005>
137.563552856445

> <r_mmod_Electrostatic_Energy-OPLS-2005>
-658.155883789062

> <r_mmod_Solvation_Energy-OPLS-2005>
-226.353485107422

> <b_mmod_Minimization_Converged-OPLS-2005>
0

> <r_mmod_RMS_Derivative-OPLS-2005>
5.55818462371826

$$$$
56
                    3D
 Structure written by MMmdl.
160169  0  0  1  0            999 V2000
  -30.5317  -14.9767   20.4260 C   0  0  0  0  0  0
  -30.4524  -12.6020   19.5340 C   0  0  0  0  0  0
  -29.5531  -12.5412   18.2781 C   0  0  0  0  0  0
  -28.0792  -12.3275   18.6754 C   0  0  0  0  0  0
  -27.6385  -13.2531   19.8425 C   0  0  2  0  0  0
  -28.6725  -13.2840   20.9906 C   0  0  0  0  0  0
  -25.2495  -13.8212   20.5696 C   0  0  0  0  0  0
  -24.1817  -13.0435   20.9219 C   0  0  0  0  0  0
  -24.6421  -11.6920   20.8739 C   0  0  0  0  0  0
  -23.9097  -10.4296   21.0405 C   0  0  0  0  0  0
  -24.3645   -9.4200   21.9175 C   0  0  0  0  0  0
  -23.6312   -8.2237   22.0739 C   0  0  0  0  0  0
  -22.4289   -8.0288   21.3534 C   0  0  0  0  0  0
  -21.9940   -9.0266   20.4637 C   0  0  0  0  0  0
  -22.7270  -10.2136   20.3053 C   0  0  0  0  0  0
  -21.6849   -6.0752   22.5295 C   0  0  0  0  0  0
  -21.4000   -6.5636   23.8232 C   0  0  0  0  0  0
  -21.3659   -5.6771   24.9183 C   0  0  0  0  0  0
  -21.6063   -4.3043   24.7219 C   0  0  0  0  0  0
  -21.8806   -3.8147   23.4329 C   0  0  0  0  0  0
  -21.9175   -4.6979   22.3393 C   0  0  0  0  0  0
  -22.7828  -13.5235   21.1820 C   0  0  0  0  0  0
  -22.1649   -4.2160   21.0974 F   0  0  0  0  0  0
  -21.5631   -3.4516   25.7724 F   0  0  0  0  0  0
  -29.9523  -13.7038   20.4082 N   0  0  0  0  0  0
  -26.2931  -12.9456   20.3216 N   0  0  0  0  0  0
  -25.9369  -11.6573   20.5704 N   0  0  0  0  0  0
  -22.0420  -12.8286   22.0369 N   0  0  0  0  0  0
  -25.4129  -15.1944   20.4112 N   0  0  0  0  0  0
  -31.7190  -15.0464   20.0939 O   0  0  0  0  0  0
  -21.6633   -6.8902   21.4267 O   0  0  0  0  0  0
  -22.3539  -14.5510   20.6599 O   0  0  0  0  0  0
  -24.6452  -31.8430   23.1873 C   0  0  0  0  0  0
  -25.9218  -32.4706   23.8262 C   0  0  1  0  0  0
  -27.2184  -27.1159   20.1721 C   0  0  0  0  0  0
  -25.5964  -33.8509   24.2186 N   0  0  0  0  0  0
  -23.4491  -30.4580   21.5361 C   0  0  2  0  0  0
  -24.9006  -28.8825   20.1149 C   0  0  0  0  0  0
  -22.7583  -29.4517   22.4900 C   0  0  0  0  0  0
  -18.0309  -28.1372   22.8497 C   0  0  0  0  0  0
  -24.1491  -36.7255   23.2634 C   0  0  0  0  0  0
  -26.0048  -30.7131   21.3882 C   0  0  0  0  0  0
  -26.0772  -29.3198   20.7363 C   0  0  0  0  0  0
  -27.2367  -28.4530   20.7464 C   0  0  0  0  0  0
  -26.0142  -26.7840   19.5118 C   0  0  0  0  0  0
  -24.8837  -27.6296   19.4847 C   0  0  0  0  0  0
  -23.6769  -29.7839   20.1565 C   0  0  0  0  0  0
  -25.4126  -36.3040   24.0314 C   0  0  1  0  0  0
  -20.5928  -28.3696   23.1262 C   0  0  2  0  0  0
  -20.6804  -26.9404   22.5418 C   0  0  0  0  0  0
  -19.5777  -26.6367   21.5227 C   0  0  0  0  0  0
  -18.1953  -26.7914   22.1626 C   0  0  0  0  0  0
  -19.1566  -28.8852   23.2869 C   0  0  0  0  0  0
  -18.9481  -30.1456   23.8878 C   0  0  0  0  0  0
  -17.6474  -30.6583   24.0540 C   0  0  0  0  0  0
  -25.9083  -34.9415   23.5065 C   0  0  0  0  0  0
  -16.5364  -29.9066   23.6331 C   0  0  0  0  0  0
  -16.7293  -28.6477   23.0375 C   0  0  0  0  0  0
  -26.4517  -31.6564   25.0707 C   0  0  0  0  0  0
  -25.3683  -31.3773   26.1395 C   0  0  0  0  0  0
  -27.0390  -30.2969   24.6266 C   0  0  0  0  0  0
  -27.6091  -32.4268   25.7499 C   0  0  0  0  0  0
  -27.5585  -37.1779   24.8456 C   0  0  0  0  0  0
  -21.4273  -29.3017   22.3642 N   0  0  0  0  0  0
  -26.4290  -37.3763   23.9406 N   0  0  0  0  0  0
  -24.7200  -31.0256   22.0933 N   0  0  0  0  0  0
  -23.4230  -28.8079   23.3058 O   0  0  0  0  0  0
  -28.2809  -26.1344   20.2152 O   0  0  0  0  0  0
  -26.5664  -34.8922   22.4640 O   0  0  0  0  0  0
  -23.5563  -32.1332   23.7073 O   0  0  0  0  0  0
  -29.3856  -20.4670   20.2283 C   0  0  0  0  0  0
  -28.3209  -20.2833   22.7267 C   0  0  0  0  0  0
  -28.9145  -21.7667   20.8200 C   0  0  0  0  0  0
  -29.3481  -19.0946   20.8297 C   0  0  0  0  0  0
  -28.4153  -21.5682   22.1397 C   0  0  0  0  0  0
  -28.7671  -19.0851   22.1204 C   0  0  0  0  0  0
  -29.8157  -23.4186   18.8702 C   0  0  0  0  0  0
  -30.5715  -23.7208   20.1210 C   0  0  0  0  0  0
  -29.1056  -23.3212   20.2114 C   0  0  0  0  0  0
  -28.0063  -22.7230   23.0369 C   0  0  0  0  0  0
  -28.6400  -17.8035   22.9228 C   0  0  0  0  0  0
  -29.9595  -17.6822   20.1742 C   0  0  0  0  0  0
  -28.0126  -24.5968   20.3833 C   0  0  0  0  0  0
  -29.7518  -16.1586   20.6060 N   0  0  0  0  0  0
  -31.4931  -12.7535   19.2415 H   0  0  0  0  0  0
  -30.4366  -11.6524   20.0704 H   0  0  0  0  0  0
  -29.8969  -11.7425   17.6185 H   0  0  0  0  0  0
  -29.6492  -13.4696   17.7134 H   0  0  0  0  0  0
  -27.9735  -11.2861   18.9764 H   0  0  0  0  0  0
  -27.4310  -12.4646   17.8100 H   0  0  0  0  0  0
  -27.6040  -14.2576   19.4185 H   0  0  0  0  0  0
  -28.7577  -12.3078   21.4701 H   0  0  0  0  0  0
  -28.3636  -13.9812   21.7693 H   0  0  0  0  0  0
  -25.2816   -9.5665   22.4730 H   0  0  0  0  0  0
  -24.0007   -7.4638   22.7480 H   0  0  0  0  0  0
  -21.0850   -8.8819   19.8973 H   0  0  0  0  0  0
  -22.3756  -10.9676   19.6152 H   0  0  0  0  0  0
  -21.1991   -7.6144   23.9737 H   0  0  0  0  0  0
  -21.1499   -6.0498   25.9084 H   0  0  0  0  0  0
  -22.0580   -2.7616   23.2817 H   0  0  0  0  0  0
  -22.3990  -12.0036   22.4977 H   0  0  0  0  0  0
  -21.1021  -13.1360   22.2407 H   0  0  0  0  0  0
  -24.6387  -15.8402   20.5159 H   0  0  0  0  0  0
  -26.2476  -15.6340   20.0452 H   0  0  0  0  0  0
  -26.7275  -32.5307   23.0983 H   0  0  0  0  0  0
  -25.0070  -33.9601   25.0304 H   0  0  0  0  0  0
  -22.7508  -31.2835   21.3790 H   0  0  0  0  0  0
  -23.3786  -35.9560   23.3272 H   0  0  0  0  0  0
  -24.3579  -36.8914   22.2056 H   0  0  0  0  0  0
  -23.7218  -37.6431   23.6684 H   0  0  0  0  0  0
  -26.1508  -31.4634   20.6092 H   0  0  0  0  0  0
  -26.8790  -30.7711   22.0258 H   0  0  0  0  0  0
  -28.1295  -28.7853   21.2572 H   0  0  0  0  0  0
  -25.9123  -25.8311   19.0163 H   0  0  0  0  0  0
  -23.9863  -27.2921   18.9828 H   0  0  0  0  0  0
  -23.8093  -30.5537   19.3959 H   0  0  0  0  0  0
  -22.7947  -29.2194   19.8503 H   0  0  0  0  0  0
  -25.1315  -36.1871   25.0809 H   0  0  0  0  0  0
  -21.0002  -28.3269   24.1395 H   0  0  0  0  0  0
  -20.5729  -26.2291   23.3633 H   0  0  0  0  0  0
  -21.6671  -26.7435   22.1201 H   0  0  0  0  0  0
  -19.6940  -25.6275   21.1265 H   0  0  0  0  0  0
  -19.6716  -27.3172   20.6761 H   0  0  0  0  0  0
  -17.4243  -26.6696   21.4002 H   0  0  0  0  0  0
  -18.0314  -26.0040   22.9000 H   0  0  0  0  0  0
  -19.7953  -30.7270   24.2256 H   0  0  0  0  0  0
  -17.5026  -31.6271   24.5121 H   0  0  0  0  0  0
  -15.5364  -30.2953   23.7655 H   0  0  0  0  0  0
  -15.8704  -28.0768   22.7117 H   0  0  0  0  0  0
  -24.5853  -30.7137   25.7689 H   0  0  0  0  0  0
  -24.8878  -32.2973   26.4738 H   0  0  0  0  0  0
  -25.7933  -30.8977   27.0223 H   0  0  0  0  0  0
  -26.3016  -29.6691   24.1248 H   0  0  0  0  0  0
  -27.4002  -29.7252   25.4820 H   0  0  0  0  0  0
  -27.8914  -30.4235   23.9596 H   0  0  0  0  0  0
  -27.2742  -33.3568   26.2096 H   0  0  0  0  0  0
  -28.3921  -32.6800   25.0342 H   0  0  0  0  0  0
  -28.0741  -31.8361   26.5397 H   0  0  0  0  0  0
  -28.2596  -38.0081   24.7535 H   0  0  0  0  0  0
  -28.1082  -36.2621   24.6243 H   0  0  0  0  0  0
  -27.2304  -37.1391   25.8855 H   0  0  0  0  0  0
  -20.9503  -29.8692   21.6783 H   0  0  0  0  0  0
  -26.0164  -38.2837   24.1412 H   0  0  0  0  0  0
  -29.8472  -20.5290   19.2562 H   0  0  0  0  0  0
  -27.9191  -20.2186   23.7303 H   0  0  0  0  0  0
  -30.0553  -22.5050   18.3328 H   0  0  0  0  0  0
  -29.5965  -24.2763   18.2353 H   0  0  0  0  0  0
  -30.8472  -24.7605   20.2817 H   0  0  0  0  0  0
  -31.3270  -22.9914   20.4134 H   0  0  0  0  0  0
  -26.9513  -22.9579   22.8938 H   0  0  0  0  0  0
  -28.6162  -23.6108   22.8812 H   0  0  0  0  0  0
  -28.1354  -22.4707   24.0898 H   0  0  0  0  0  0
  -28.2460  -17.9782   23.9239 H   0  0  0  0  0  0
  -29.6136  -17.3280   23.0395 H   0  0  0  0  0  0
  -27.9573  -17.1139   22.4313 H   0  0  0  0  0  0
  -31.0364  -17.8299   20.0900 H   0  0  0  0  0  0
  -29.5976  -17.7064   19.1462 H   0  0  0  0  0  0
  -27.5455  -24.5492   21.3575 H   0  0  0  0  0  0
  -27.2019  -24.3268   19.7135 H   0  0  0  0  0  0
  -28.8137  -15.9635   20.9214 H   0  0  0  0  0  0
  1 25  1  0  0  0
  1 30  2  0  0  0
  1 84  1  0  0  0
  2  3  1  0  0  0
  2 25  1  0  0  0
  2 85  1  0  0  0
  2 86  1  0  0  0
  3  4  1  0  0  0
  3 87  1  0  0  0
  3 88  1  0  0  0
  4  5  1  0  0  0
  4 89  1  0  0  0
  4 90  1  0  0  0
  5  6  1  0  0  0
  5 26  1  0  0  0
  5 91  1  0  0  0
  6 25  1  0  0  0
  6 92  1  0  0  0
  6 93  1  0  0  0
  7  8  2  0  0  0
  7 26  1  0  0  0
  7 29  1  0  0  0
  8  9  1  0  0  0
  8 22  1  0  0  0
  9 10  1  0  0  0
  9 27  2  0  0  0
 10 11  2  0  0  0
 10 15  1  0  0  0
 11 12  1  0  0  0
 11 94  1  0  0  0
 12 13  2  0  0  0
 12 95  1  0  0  0
 13 14  1  0  0  0
 13 31  1  0  0  0
 14 15  2  0  0  0
 14 96  1  0  0  0
 15 97  1  0  0  0
 16 17  2  0  0  0
 16 21  1  0  0  0
 16 31  1  0  0  0
 17 18  1  0  0  0
 17 98  1  0  0  0
 18 19  2  0  0  0
 18 99  1  0  0  0
 19 20  1  0  0  0
 19 24  1  0  0  0
 20 21  2  0  0  0
 20100  1  0  0  0
 21 23  1  0  0  0
 22 28  1  0  0  0
 22 32  2  0  0  0
 26 27  1  0  0  0
 28101  1  0  0  0
 28102  1  0  0  0
 29103  1  0  0  0
 29104  1  0  0  0
 33 34  1  0  0  0
 33 66  1  0  0  0
 33 70  2  0  0  0
 34 36  1  0  0  0
 34 59  1  0  0  0
 34105  1  0  0  0
 35 44  2  0  0  0
 35 45  1  0  0  0
 35 68  1  0  0  0
 36 56  1  0  0  0
 36106  1  0  0  0
 37 39  1  0  0  0
 37 47  1  0  0  0
 37 66  1  0  0  0
 37107  1  0  0  0
 38 43  2  0  0  0
 38 46  1  0  0  0
 38 47  1  0  0  0
 39 64  1  0  0  0
 39 67  2  0  0  0
 40 52  1  0  0  0
 40 53  2  0  0  0
 40 58  1  0  0  0
 41108  1  0  0  0
 41109  1  0  0  0
 41110  1  0  0  0
 41 48  1  0  0  0
 42 43  1  0  0  0
 42 66  1  0  0  0
 42111  1  0  0  0
 42112  1  0  0  0
 43 44  1  0  0  0
 44113  1  0  0  0
 45 46  2  0  0  0
 45114  1  0  0  0
 46115  1  0  0  0
 47116  1  0  0  0
 47117  1  0  0  0
 48 56  1  0  0  0
 48 65  1  0  0  0
 48118  1  0  0  0
 49 50  1  0  0  0
 49 53  1  0  0  0
 49 64  1  0  0  0
 49119  1  0  0  0
 50 51  1  0  0  0
 50120  1  0  0  0
 50121  1  0  0  0
 51 52  1  0  0  0
 51122  1  0  0  0
 51123  1  0  0  0
 52124  1  0  0  0
 52125  1  0  0  0
 53 54  1  0  0  0
 54 55  2  0  0  0
 54126  1  0  0  0
 55 57  1  0  0  0
 55127  1  0  0  0
 56 69  2  0  0  0
 57 58  2  0  0  0
 57128  1  0  0  0
 58129  1  0  0  0
 59 60  1  0  0  0
 59 61  1  0  0  0
 59 62  1  0  0  0
 60130  1  0  0  0
 60131  1  0  0  0
 60132  1  0  0  0
 61133  1  0  0  0
 61134  1  0  0  0
 61135  1  0  0  0
 62136  1  0  0  0
 62137  1  0  0  0
 62138  1  0  0  0
 63 65  1  0  0  0
 63139  1  0  0  0
 63140  1  0  0  0
 63141  1  0  0  0
 64142  1  0  0  0
 65143  1  0  0  0
 68 83  1  0  0  0
 71 73  2  0  0  0
 71 74  1  0  0  0
 71144  1  0  0  0
 72 75  2  0  0  0
 72 76  1  0  0  0
 72145  1  0  0  0
 73 75  1  0  0  0
 73 79  1  0  0  0
 74 76  2  0  0  0
 74 82  1  0  0  0
 75 80  1  0  0  0
 76 81  1  0  0  0
 77 78  1  0  0  0
 77 79  1  0  0  0
 77146  1  0  0  0
 77147  1  0  0  0
 78 79  1  0  0  0
 78148  1  0  0  0
 78149  1  0  0  0
 79 83  1  0  0  0
 80150  1  0  0  0
 80151  1  0  0  0
 80152  1  0  0  0
 81153  1  0  0  0
 81154  1  0  0  0
 81155  1  0  0  0
 82 84  1  0  0  0
 82156  1  0  0  0
 82157  1  0  0  0
 83158  1  0  0  0
 83159  1  0  0  0
 84160  1  0  0  0
M  ISO  4   1 100  68 101  83 101  84 100
M  END
> <chiral flag>
0

> <version>
0

> <s_m_source_file>
/data/baiqing/PycharmProjects/Reinvent-master-3.2/result/LINK_invent/BTK/process_docking_weight1_custom_sum_contain_oxygen_bond_distance_aromatic_linkinvent_7_9_3/rearranged_h_0159.sdf

> <i_m_source_file_index>
57

> <r_mmod_Potential_Energy-OPLS-2005>
560.407958984375

> <r_mmod_Stretch_Energy-OPLS-2005>
306.734802246094

> <r_mmod_Bend_Energy-OPLS-2005>
269.997192382812

> <r_mmod_Torsional_Energy-OPLS-2005>
246.433853149414

> <r_mmod_Improper_Torsional_Energy-OPLS-2005>
6.18378257751465

> <r_mmod_Van_der_Waal_Energy-OPLS-2005>
137.909973144531

> <r_mmod_Electrostatic_Energy-OPLS-2005>
-409.286499023438

> <r_mmod_Solvation_Energy-OPLS-2005>
-205.593978881836

> <b_mmod_Minimization_Converged-OPLS-2005>
0

> <r_mmod_RMS_Derivative-OPLS-2005>
3.99621510505676

$$$$
57
                    3D
 Structure written by MMmdl.
173182  0  0  1  0            999 V2000
  -30.3140  -14.8521   19.7184 C   0  0  0  0  0  0
  -31.3066  -12.6365   19.4826 C   0  0  0  0  0  0
  -30.5047  -12.1436   18.2870 C   0  0  0  0  0  0
  -29.2574  -11.7144   19.0315 C   0  0  0  0  0  0
  -28.5447  -12.8598   20.0832 C   0  0  2  0  0  0
  -29.6206  -13.0342   21.1483 C   0  0  0  0  0  0
  -24.8399  -14.1758   20.7053 C   0  0  0  0  0  0
  -23.8849  -13.3078   21.2108 C   0  0  0  0  0  0
  -24.2879  -11.9798   21.0002 C   0  0  0  0  0  0
  -23.7317  -10.5901   21.0879 C   0  0  0  0  0  0
  -24.2185   -9.5885   21.9755 C   0  0  0  0  0  0
  -23.5906   -8.3243   22.0889 C   0  0  0  0  0  0
  -22.4266   -8.0512   21.3366 C   0  0  0  0  0  0
  -21.9764   -9.0166   20.4196 C   0  0  0  0  0  0
  -22.6285  -10.2551   20.2828 C   0  0  0  0  0  0
  -21.7039   -6.0796   22.5213 C   0  0  0  0  0  0
  -21.4120   -6.5718   23.8129 C   0  0  0  0  0  0
  -21.3691   -5.6883   24.9111 C   0  0  0  0  0  0
  -21.6038   -4.3127   24.7203 C   0  0  0  0  0  0
  -21.8809   -3.8192   23.4335 C   0  0  0  0  0  0
  -21.9259   -4.6996   22.3385 C   0  0  0  0  0  0
  -22.4871  -13.6684   21.3935 C   0  0  0  0  0  0
  -22.1716   -4.2136   21.0975 F   0  0  0  0  0  0
  -21.5592   -3.4625   25.7726 F   0  0  0  0  0  0
  -30.5439  -13.6299   20.2763 N   0  0  0  0  0  0
  -25.8040  -13.3743   20.1779 N   0  0  0  0  0  0
  -24.7702  -12.4093   19.9066 N   0  0  0  0  0  0
  -21.7836  -12.8806   22.1872 N   0  0  0  0  0  0
  -24.8866  -15.5339   20.5132 N   0  0  0  0  0  0
  -31.3736  -15.4769   19.6828 O   0  0  0  0  0  0
  -21.6992   -6.8852   21.4082 O   0  0  0  0  0  0
  -22.0297  -14.6389   20.8006 O   0  0  0  0  0  0
  -24.6682  -31.8194   23.1708 C   0  0  0  0  0  0
  -25.9358  -32.4550   23.8161 C   0  0  1  0  0  0
  -27.0507  -26.7842   20.2452 C   0  0  0  0  0  0
  -25.6020  -33.8378   24.2056 N   0  0  0  0  0  0
  -23.4780  -30.4406   21.5235 C   0  0  2  0  0  0
  -24.9060  -28.8260   20.0952 C   0  0  0  0  0  0
  -22.7663  -29.4432   22.4751 C   0  0  0  0  0  0
  -18.0322  -28.1396   22.8468 C   0  0  0  0  0  0
  -24.1501  -36.7187   23.2646 C   0  0  0  0  0  0
  -26.0518  -30.5787   21.4229 C   0  0  0  0  0  0
  -26.0875  -29.1603   20.7683 C   0  0  0  0  0  0
  -27.1638  -28.1547   20.8247 C   0  0  0  0  0  0
  -25.9061  -26.6731   19.4363 C   0  0  0  0  0  0
  -24.8526  -27.6133   19.3960 C   0  0  0  0  0  0
  -23.7124  -29.7785   20.1392 C   0  0  0  0  0  0
  -25.4145  -36.2949   24.0295 C   0  0  1  0  0  0
  -20.5955  -28.3752   23.1172 C   0  0  2  0  0  0
  -20.6803  -26.9428   22.5399 C   0  0  0  0  0  0
  -19.5777  -26.6366   21.5213 C   0  0  0  0  0  0
  -18.1958  -26.7928   22.1620 C   0  0  0  0  0  0
  -19.1585  -28.8895   23.2811 C   0  0  0  0  0  0
  -18.9494  -30.1484   23.8852 C   0  0  0  0  0  0
  -17.6488  -30.6593   24.0552 C   0  0  0  0  0  0
  -25.9125  -34.9333   23.4995 C   0  0  0  0  0  0
  -16.5380  -29.9078   23.6343 C   0  0  0  0  0  0
  -16.7304  -28.6492   23.0373 C   0  0  0  0  0  0
  -26.4569  -31.6526   25.0725 C   0  0  0  0  0  0
  -25.3676  -31.3815   26.1372 C   0  0  0  0  0  0
  -27.0464  -30.2869   24.6545 C   0  0  0  0  0  0
  -27.6053  -32.4352   25.7519 C   0  0  0  0  0  0
  -27.5579  -37.1746   24.8462 C   0  0  0  0  0  0
  -21.4334  -29.3037   22.3503 N   0  0  0  0  0  0
  -26.4284  -37.3694   23.9413 N   0  0  0  0  0  0
  -24.7559  -30.9778   22.0901 N   0  0  0  0  0  0
  -23.4196  -28.8003   23.3005 O   0  0  0  0  0  0
  -27.8597  -25.5238   20.4208 O   0  0  0  0  0  0
  -26.5732  -34.8875   22.4589 O   0  0  0  0  0  0
  -23.5744  -32.1243   23.6746 O   0  0  0  0  0  0
  -27.0489  -12.9727   18.3397 C   0  0  0  0  0  0
  -26.8792  -11.4623   19.5106 C   0  0  0  0  0  0
  -27.5115  -14.9778   20.7595 C   0  0  0  0  0  0
  -27.2674  -13.5781   21.9154 C   0  0  0  0  0  0
  -27.5365  -14.6412   19.0745 C   0  0  0  0  0  0
  -27.0062  -11.8229   21.3561 C   0  0  0  0  0  0
  -28.5401  -17.8671   20.1382 C   0  0  0  0  0  0
  -26.5631  -17.9746   21.2210 C   0  0  0  0  0  0
  -28.7797  -19.5327   20.3914 C   0  0  0  0  0  0
  -26.7992  -19.6587   21.4906 C   0  0  0  0  0  0
  -27.7257  -16.7756   21.1023 C   0  0  1  0  0  0
  -27.2708  -13.8614   23.4010 C   0  0  0  0  0  0
  -26.0381  -23.9248   21.2130 C   0  0  0  0  0  0
  -27.5205   -9.5855   21.8297 C   0  0  0  0  0  0
  -28.0349  -22.2333   20.8061 C   0  0  0  0  0  0
  -27.3304  -23.8956   20.3795 C   0  0  2  0  0  0
  -29.0523  -15.1794   18.9813 N   0  0  0  0  0  0
  -27.6305  -20.5800   20.5334 N   0  3  1  0  0  0
  -27.0525  -10.8386   22.3044 O   0  0  0  0  0  0
  -32.2421  -13.0780   19.1339 H   0  0  0  0  0  0
  -31.6219  -11.8018   20.1107 H   0  0  0  0  0  0
  -31.0007  -11.3052   17.7976 H   0  0  0  0  0  0
  -30.3290  -12.9155   17.5342 H   0  0  0  0  0  0
  -29.5009  -10.8307   19.6271 H   0  0  0  0  0  0
  -28.7298  -11.2740   18.1748 H   0  0  0  0  0  0
  -28.9428  -13.0381   19.1532 H   0  0  0  0  0  0
  -29.9596  -12.0909   21.5768 H   0  0  0  0  0  0
  -29.5675  -13.7603   21.9603 H   0  0  0  0  0  0
  -25.0284   -9.8065   22.6470 H   0  0  0  0  0  0
  -23.9767   -7.5988   22.7913 H   0  0  0  0  0  0
  -21.1042   -8.8085   19.8159 H   0  0  0  0  0  0
  -22.2390  -10.9832   19.5863 H   0  0  0  0  0  0
  -21.2143   -7.6232   23.9606 H   0  0  0  0  0  0
  -21.1502   -6.0650   25.8996 H   0  0  0  0  0  0
  -22.0528   -2.7643   23.2849 H   0  0  0  0  0  0
  -22.2108  -12.0956   22.6554 H   0  0  0  0  0  0
  -20.8030  -13.0685   22.3415 H   0  0  0  0  0  0
  -24.1231  -16.1610   20.7337 H   0  0  0  0  0  0
  -25.6621  -15.9662   20.0319 H   0  0  0  0  0  0
  -26.7423  -32.5013   23.0856 H   0  0  0  0  0  0
  -25.0099  -33.9464   25.0159 H   0  0  0  0  0  0
  -22.7950  -31.2776   21.3652 H   0  0  0  0  0  0
  -23.3792  -35.9486   23.3243 H   0  0  0  0  0  0
  -24.3589  -36.8899   22.2076 H   0  0  0  0  0  0
  -23.7223  -37.6338   23.6746 H   0  0  0  0  0  0
  -26.2542  -31.3113   20.6403 H   0  0  0  0  0  0
  -26.9089  -30.6255   22.0825 H   0  0  0  0  0  0
  -28.0359  -28.3814   21.4206 H   0  0  0  0  0  0
  -25.7534  -25.7578   18.8841 H   0  0  0  0  0  0
  -23.9687  -27.3668   18.8236 H   0  0  0  0  0  0
  -23.8803  -30.5587   19.3950 H   0  0  0  0  0  0
  -22.8119  -29.2544   19.8140 H   0  0  0  0  0  0
  -25.1338  -36.1734   25.0785 H   0  0  0  0  0  0
  -21.0045  -28.3364   24.1296 H   0  0  0  0  0  0
  -20.5679  -26.2371   23.3643 H   0  0  0  0  0  0
  -21.6665  -26.7393   22.1212 H   0  0  0  0  0  0
  -19.6937  -25.6264   21.1277 H   0  0  0  0  0  0
  -19.6721  -27.3148   20.6721 H   0  0  0  0  0  0
  -17.4228  -26.6676   21.4024 H   0  0  0  0  0  0
  -18.0350  -26.0082   22.9025 H   0  0  0  0  0  0
  -19.7975  -30.7308   24.2198 H   0  0  0  0  0  0
  -17.5045  -31.6270   24.5152 H   0  0  0  0  0  0
  -15.5379  -30.2964   23.7694 H   0  0  0  0  0  0
  -15.8706  -28.0790   22.7123 H   0  0  0  0  0  0
  -24.5897  -30.7109   25.7700 H   0  0  0  0  0  0
  -24.8821  -32.3023   26.4614 H   0  0  0  0  0  0
  -25.7903  -30.9124   27.0267 H   0  0  0  0  0  0
  -26.3140  -29.6524   24.1543 H   0  0  0  0  0  0
  -27.3918  -29.7268   25.5244 H   0  0  0  0  0  0
  -27.9124  -30.4002   24.0024 H   0  0  0  0  0  0
  -27.2625  -33.3724   26.1914 H   0  0  0  0  0  0
  -28.3949  -32.6795   25.0403 H   0  0  0  0  0  0
  -28.0619  -31.8600   26.5582 H   0  0  0  0  0  0
  -28.2542  -38.0092   24.7545 H   0  0  0  0  0  0
  -28.1131  -36.2618   24.6238 H   0  0  0  0  0  0
  -27.2306  -37.1318   25.8865 H   0  0  0  0  0  0
  -20.9568  -29.8745   21.6666 H   0  0  0  0  0  0
  -26.0121  -38.2743   24.1435 H   0  0  0  0  0  0
  -27.0884  -12.8109   17.2719 H   0  0  0  0  0  0
  -26.7224  -10.4653   19.1231 H   0  0  0  0  0  0
  -29.5572  -17.4951   20.0515 H   0  0  0  0  0  0
  -28.1196  -17.7824   19.1350 H   0  0  0  0  0  0
  -25.9675  -17.9280   20.3096 H   0  0  0  0  0  0
  -25.8832  -17.6507   22.0080 H   0  0  0  0  0  0
  -29.4159  -19.8918   19.5827 H   0  0  0  0  0  0
  -29.3995  -19.6339   21.2832 H   0  0  0  0  0  0
  -27.2325  -19.7675   22.4861 H   0  0  0  0  0  0
  -25.8153  -20.1215   21.5681 H   0  0  0  0  0  0
  -28.2450  -16.7682   22.0605 H   0  0  0  0  0  0
  -27.6404  -14.8664   23.5998 H   0  0  0  0  0  0
  -27.9089  -13.1468   23.9195 H   0  0  0  0  0  0
  -26.2603  -13.7807   23.7995 H   0  0  0  0  0  0
  -25.5961  -22.9333   21.3096 H   0  0  0  0  0  0
  -25.2687  -24.5489   20.7689 H   0  0  0  0  0  0
  -26.2348  -24.2973   22.2177 H   0  0  0  0  0  0
  -27.5172   -8.8659   22.6487 H   0  0  0  0  0  0
  -28.5453   -9.6654   21.4668 H   0  0  0  0  0  0
  -26.8933   -9.1779   21.0374 H   0  0  0  0  0  0
  -28.2529  -22.2803   21.8725 H   0  0  0  0  0  0
  -29.0226  -22.2878   20.3498 H   0  0  0  0  0  0
  -27.0429  -23.7737   19.3343 H   0  0  0  0  0  0
  -29.1512  -15.9984   18.4007 H   0  0  0  0  0  0
  -27.1492  -20.5738   19.6453 H   0  0  0  0  0  0
  1 25  1  0  0  0
  1 30  2  0  0  0
  1 87  1  0  0  0
  2  3  1  0  0  0
  2 25  1  0  0  0
  2 90  1  0  0  0
  2 91  1  0  0  0
  3  4  1  0  0  0
  3 92  1  0  0  0
  3 93  1  0  0  0
  4  5  1  0  0  0
  4 94  1  0  0  0
  4 95  1  0  0  0
  5  6  1  0  0  0
  5 26  1  0  0  0
  5 96  1  0  0  0
  6 25  1  0  0  0
  6 97  1  0  0  0
  6 98  1  0  0  0
  7  8  2  0  0  0
  7 26  1  0  0  0
  7 29  1  0  0  0
  8  9  1  0  0  0
  8 22  1  0  0  0
  9 10  1  0  0  0
  9 27  2  0  0  0
 10 11  2  0  0  0
 10 15  1  0  0  0
 11 12  1  0  0  0
 11 99  1  0  0  0
 12 13  2  0  0  0
 12100  1  0  0  0
 13 14  1  0  0  0
 13 31  1  0  0  0
 14 15  2  0  0  0
 14101  1  0  0  0
 15102  1  0  0  0
 16 17  2  0  0  0
 16 21  1  0  0  0
 16 31  1  0  0  0
 17 18  1  0  0  0
 17103  1  0  0  0
 18 19  2  0  0  0
 18104  1  0  0  0
 19 20  1  0  0  0
 19 24  1  0  0  0
 20 21  2  0  0  0
 20105  1  0  0  0
 21 23  1  0  0  0
 22 28  1  0  0  0
 22 32  2  0  0  0
 26 27  1  0  0  0
 28106  1  0  0  0
 28107  1  0  0  0
 29108  1  0  0  0
 29109  1  0  0  0
 33 34  1  0  0  0
 33 66  1  0  0  0
 33 70  2  0  0  0
 34 36  1  0  0  0
 34 59  1  0  0  0
 34110  1  0  0  0
 35 44  2  0  0  0
 35 45  1  0  0  0
 35 68  1  0  0  0
 36 56  1  0  0  0
 36111  1  0  0  0
 37 39  1  0  0  0
 37 47  1  0  0  0
 37 66  1  0  0  0
 37112  1  0  0  0
 38 43  2  0  0  0
 38 46  1  0  0  0
 38 47  1  0  0  0
 39 64  1  0  0  0
 39 67  2  0  0  0
 40 52  1  0  0  0
 40 53  2  0  0  0
 40 58  1  0  0  0
 41113  1  0  0  0
 41114  1  0  0  0
 41115  1  0  0  0
 41 48  1  0  0  0
 42 43  1  0  0  0
 42 66  1  0  0  0
 42116  1  0  0  0
 42117  1  0  0  0
 43 44  1  0  0  0
 44118  1  0  0  0
 45 46  2  0  0  0
 45119  1  0  0  0
 46120  1  0  0  0
 47121  1  0  0  0
 47122  1  0  0  0
 48 56  1  0  0  0
 48 65  1  0  0  0
 48123  1  0  0  0
 49 50  1  0  0  0
 49 53  1  0  0  0
 49 64  1  0  0  0
 49124  1  0  0  0
 50 51  1  0  0  0
 50125  1  0  0  0
 50126  1  0  0  0
 51 52  1  0  0  0
 51127  1  0  0  0
 51128  1  0  0  0
 52129  1  0  0  0
 52130  1  0  0  0
 53 54  1  0  0  0
 54 55  2  0  0  0
 54131  1  0  0  0
 55 57  1  0  0  0
 55132  1  0  0  0
 56 69  2  0  0  0
 57 58  2  0  0  0
 57133  1  0  0  0
 58134  1  0  0  0
 59 60  1  0  0  0
 59 61  1  0  0  0
 59 62  1  0  0  0
 60135  1  0  0  0
 60136  1  0  0  0
 60137  1  0  0  0
 61138  1  0  0  0
 61139  1  0  0  0
 61140  1  0  0  0
 62141  1  0  0  0
 62142  1  0  0  0
 62143  1  0  0  0
 63 65  1  0  0  0
 63144  1  0  0  0
 63145  1  0  0  0
 63146  1  0  0  0
 64147  1  0  0  0
 65148  1  0  0  0
 68 86  1  0  0  0
 71 72  2  0  0  0
 71 75  1  0  0  0
 71149  1  0  0  0
 72 76  1  0  0  0
 72150  1  0  0  0
 73 74  1  0  0  0
 73 75  2  0  0  0
 73 81  1  0  0  0
 74 76  2  0  0  0
 74 82  1  0  0  0
 75 87  1  0  0  0
 76 89  1  0  0  0
 77 79  1  0  0  0
 77 81  1  0  0  0
 77151  1  0  0  0
 77152  1  0  0  0
 78 80  1  0  0  0
 78 81  1  0  0  0
 78153  1  0  0  0
 78154  1  0  0  0
 79 88  1  0  0  0
 79155  1  0  0  0
 79156  1  0  0  0
 80 88  1  0  0  0
 80157  1  0  0  0
 80158  1  0  0  0
 81159  1  0  0  0
 82160  1  0  0  0
 82161  1  0  0  0
 82162  1  0  0  0
 83163  1  0  0  0
 83164  1  0  0  0
 83165  1  0  0  0
 83 86  1  0  0  0
 84 89  1  0  0  0
 84166  1  0  0  0
 84167  1  0  0  0
 84168  1  0  0  0
 85 86  1  0  0  0
 85169  1  0  0  0
 85170  1  0  0  0
 85 88  1  0  0  0
 86171  1  0  0  0
 87172  1  0  0  0
 88173  1  0  0  0
M  CHG  1  88   1
M  ISO  4   1 100  68 101  86 101  87 100
M  END
> <chiral flag>
0

> <version>
0

> <s_m_source_file>
/data/baiqing/PycharmProjects/Reinvent-master-3.2/result/LINK_invent/BTK/process_docking_weight1_custom_sum_contain_oxygen_bond_distance_aromatic_linkinvent_7_9_3/rearranged_h_0159.sdf

> <i_m_source_file_index>
58

> <r_mmod_Potential_Energy-OPLS-2005>
11504.72265625

> <r_mmod_Stretch_Energy-OPLS-2005>
5794.3447265625

> <r_mmod_Bend_Energy-OPLS-2005>
1116.03149414062

> <r_mmod_Torsional_Energy-OPLS-2005>
652.739562988281

> <r_mmod_Improper_Torsional_Energy-OPLS-2005>
51.2582511901855

> <r_mmod_Van_der_Waal_Energy-OPLS-2005>
2903.73413085938

> <r_mmod_Electrostatic_Energy-OPLS-2005>
-280.651214599609

> <r_mmod_Solvation_Energy-OPLS-2005>
-433.167877197266

> <b_mmod_Minimization_Converged-OPLS-2005>
0

> <r_mmod_RMS_Derivative-OPLS-2005>
2.9599974155426

$$$$
58
                    3D
 Structure written by MMmdl.
170179  0  0  1  0            999 V2000
  -30.7266  -14.4399   20.5256 C   0  0  0  0  0  0
  -30.4176  -12.2762   19.4171 C   0  0  0  0  0  0
  -29.4902  -12.4741   18.2011 C   0  0  0  0  0  0
  -28.0134  -12.3448   18.6216 C   0  0  0  0  0  0
  -27.6599  -13.1943   19.8710 C   0  0  2  0  0  0
  -28.7081  -13.0113   20.9926 C   0  0  0  0  0  0
  -25.2609  -13.8109   20.5700 C   0  0  0  0  0  0
  -24.1830  -13.0408   20.9161 C   0  0  0  0  0  0
  -24.6375  -11.6872   20.8730 C   0  0  0  0  0  0
  -23.9038  -10.4266   21.0388 C   0  0  0  0  0  0
  -24.3590   -9.4181   21.9155 C   0  0  0  0  0  0
  -23.6262   -8.2224   22.0744 C   0  0  0  0  0  0
  -22.4242   -8.0282   21.3537 C   0  0  0  0  0  0
  -21.9867   -9.0252   20.4645 C   0  0  0  0  0  0
  -22.7201  -10.2120   20.3046 C   0  0  0  0  0  0
  -21.6853   -6.0721   22.5272 C   0  0  0  0  0  0
  -21.4021   -6.5619   23.8207 C   0  0  0  0  0  0
  -21.3656   -5.6765   24.9170 C   0  0  0  0  0  0
  -21.6048   -4.3031   24.7214 C   0  0  0  0  0  0
  -21.8820   -3.8119   23.4337 C   0  0  0  0  0  0
  -21.9185   -4.6942   22.3388 C   0  0  0  0  0  0
  -22.7860  -13.5251   21.1812 C   0  0  0  0  0  0
  -22.1651   -4.2126   21.0964 F   0  0  0  0  0  0
  -21.5622   -3.4526   25.7729 F   0  0  0  0  0  0
  -30.0346  -13.2767   20.4195 N   0  0  0  0  0  0
  -26.3028  -12.9259   20.3383 N   0  0  0  0  0  0
  -25.9305  -11.6437   20.5801 N   0  0  0  0  0  0
  -22.0494  -12.8284   22.0387 N   0  0  0  0  0  0
  -25.4361  -15.1830   20.4160 N   0  0  0  0  0  0
  -31.8999  -14.5599   20.1703 O   0  0  0  0  0  0
  -21.6627   -6.8874   21.4241 O   0  0  0  0  0  0
  -22.3550  -14.5551   20.6631 O   0  0  0  0  0  0
  -24.6095  -31.8721   23.2132 C   0  0  0  0  0  0
  -25.9000  -32.4844   23.8428 C   0  0  1  0  0  0
  -27.2459  -27.4727   20.1152 C   0  0  0  0  0  0
  -25.5867  -33.8639   24.2361 N   0  0  0  0  0  0
  -23.3977  -30.4961   21.5481 C   0  0  2  0  0  0
  -24.8486  -28.9641   20.1178 C   0  0  0  0  0  0
  -22.7381  -29.4686   22.4948 C   0  0  0  0  0  0
  -18.0288  -28.1380   22.8489 C   0  0  0  0  0  0
  -24.1478  -36.7328   23.2627 C   0  0  0  0  0  0
  -25.9197  -30.8542   21.3576 C   0  0  0  0  0  0
  -26.0011  -29.4884   20.7154 C   0  0  0  0  0  0
  -27.2032  -28.7524   20.7147 C   0  0  0  0  0  0
  -26.0826  -26.9614   19.5037 C   0  0  0  0  0  0
  -24.8815  -27.6953   19.5099 C   0  0  0  0  0  0
  -23.6087  -29.8267   20.1623 C   0  0  0  0  0  0
  -25.4081  -36.3130   24.0343 C   0  0  1  0  0  0
  -20.5876  -28.3677   23.1304 C   0  0  2  0  0  0
  -20.6778  -26.9415   22.5415 C   0  0  0  0  0  0
  -19.5754  -26.6391   21.5203 C   0  0  0  0  0  0
  -18.1937  -26.7933   22.1614 C   0  0  0  0  0  0
  -19.1534  -28.8843   23.2913 C   0  0  0  0  0  0
  -18.9471  -30.1431   23.8945 C   0  0  0  0  0  0
  -17.6472  -30.6581   24.0584 C   0  0  0  0  0  0
  -25.9014  -34.9489   23.5151 C   0  0  0  0  0  0
  -16.5372  -29.9091   23.6316 C   0  0  0  0  0  0
  -16.7269  -28.6511   23.0349 C   0  0  0  0  0  0
  -26.4454  -31.6609   25.0732 C   0  0  0  0  0  0
  -25.3765  -31.3770   26.1547 C   0  0  0  0  0  0
  -27.0202  -30.3031   24.6070 C   0  0  0  0  0  0
  -27.6100  -32.4259   25.7428 C   0  0  0  0  0  0
  -27.5587  -37.1794   24.8436 C   0  0  0  0  0  0
  -21.4117  -29.3047   22.3692 N   0  0  0  0  0  0
  -26.4267  -37.3811   23.9434 N   0  0  0  0  0  0
  -24.6595  -31.0876   22.0997 N   0  0  0  0  0  0
  -23.4169  -28.8217   23.2979 O   0  0  0  0  0  0
  -28.3740  -26.6870   20.0807 O   0  0  0  0  0  0
  -26.5594  -34.8923   22.4722 O   0  0  0  0  0  0
  -23.5298  -32.1423   23.7568 O   0  0  0  0  0  0
  -31.4035  -21.4337   21.8383 C   0  0  0  0  0  0
  -30.9835  -22.7782   21.8211 C   0  0  0  0  0  0
  -30.8974  -22.7041   19.3979 C   0  0  0  0  0  0
  -31.5891  -20.7105   20.6399 C   0  0  0  0  0  0
  -31.3063  -21.3537   19.4029 C   0  0  0  0  0  0
  -30.7421  -23.4319   20.5902 C   0  0  0  0  0  0
  -29.9569  -16.2972   21.8915 C   0  0  0  0  0  0
  -31.0530  -17.3956   21.9348 C   0  0  0  0  0  0
  -31.0629  -17.4595   19.4690 C   0  0  0  0  0  0
  -29.9106  -16.4354   19.4451 C   0  0  2  0  0  0
  -31.4063  -20.6562   18.0557 C   0  0  0  0  0  0
  -28.5372  -17.1105   19.2527 C   0  0  0  0  0  0
  -32.1356  -19.2847   20.7386 C   0  0  0  0  0  0
  -29.2806  -26.7781   21.1836 C   0  0  0  0  0  0
  -29.7354  -25.3653   21.5779 C   0  0  0  0  0  0
  -29.9574  -15.5482   20.6267 N   0  0  0  0  0  0
  -31.0625  -18.2566   20.7193 N   0  3  2  0  0  0
  -30.3782  -24.7527   20.4696 O   0  0  0  0  0  0
  -31.4604  -12.3631   19.1068 H   0  0  0  0  0  0
  -30.3079  -11.2722   19.8306 H   0  0  0  0  0  0
  -29.7209  -11.7391   17.4278 H   0  0  0  0  0  0
  -29.6668  -13.4514   17.7502 H   0  0  0  0  0  0
  -27.8235  -11.2902   18.8262 H   0  0  0  0  0  0
  -27.3630  -12.6110   17.7884 H   0  0  0  0  0  0
  -27.6944  -14.2334   19.5573 H   0  0  0  0  0  0
  -28.6760  -11.9959   21.3898 H   0  0  0  0  0  0
  -28.4921  -13.6751   21.8315 H   0  0  0  0  0  0
  -25.2750   -9.5632   22.4717 H   0  0  0  0  0  0
  -23.9964   -7.4611   22.7448 H   0  0  0  0  0  0
  -21.0798   -8.8787   19.8947 H   0  0  0  0  0  0
  -22.3682  -10.9660   19.6166 H   0  0  0  0  0  0
  -21.2036   -7.6132   23.9710 H   0  0  0  0  0  0
  -21.1473   -6.0494   25.9070 H   0  0  0  0  0  0
  -22.0604   -2.7576   23.2856 H   0  0  0  0  0  0
  -22.4081  -11.9964   22.4827 H   0  0  0  0  0  0
  -21.1120  -13.1351   22.2568 H   0  0  0  0  0  0
  -24.6765  -15.8458   20.5288 H   0  0  0  0  0  0
  -26.3069  -15.6234   20.1509 H   0  0  0  0  0  0
  -26.7084  -32.5583   23.1211 H   0  0  0  0  0  0
  -25.0005  -33.9814   25.0495 H   0  0  0  0  0  0
  -22.6850  -31.3113   21.4088 H   0  0  0  0  0  0
  -23.3750  -35.9646   23.3225 H   0  0  0  0  0  0
  -24.3620  -36.9015   22.2062 H   0  0  0  0  0  0
  -23.7195  -37.6491   23.6690 H   0  0  0  0  0  0
  -26.0216  -31.6163   20.5832 H   0  0  0  0  0  0
  -26.8116  -30.9194   21.9692 H   0  0  0  0  0  0
  -28.0872  -29.1785   21.1691 H   0  0  0  0  0  0
  -26.1091  -25.9882   19.0341 H   0  0  0  0  0  0
  -23.9955  -27.2836   19.0450 H   0  0  0  0  0  0
  -23.7171  -30.6013   19.4016 H   0  0  0  0  0  0
  -22.7347  -29.2446   19.8653 H   0  0  0  0  0  0
  -25.1227  -36.2009   25.0829 H   0  0  0  0  0  0
  -20.9990  -28.3279   24.1416 H   0  0  0  0  0  0
  -20.5657  -26.2289   23.3603 H   0  0  0  0  0  0
  -21.6657  -26.7453   22.1228 H   0  0  0  0  0  0
  -19.6913  -25.6307   21.1223 H   0  0  0  0  0  0
  -19.6679  -27.3210   20.6756 H   0  0  0  0  0  0
  -17.4189  -26.6685   21.4029 H   0  0  0  0  0  0
  -18.0340  -26.0074   22.9004 H   0  0  0  0  0  0
  -19.7945  -30.7248   24.2331 H   0  0  0  0  0  0
  -17.5033  -31.6260   24.5174 H   0  0  0  0  0  0
  -15.5376  -30.3030   23.7593 H   0  0  0  0  0  0
  -15.8671  -28.0845   22.7043 H   0  0  0  0  0  0
  -24.5811  -30.7250   25.7932 H   0  0  0  0  0  0
  -24.9134  -32.2975   26.5117 H   0  0  0  0  0  0
  -25.8128  -30.8816   27.0232 H   0  0  0  0  0  0
  -26.2693  -29.6827   24.1170 H   0  0  0  0  0  0
  -27.4017  -29.7243   25.4492 H   0  0  0  0  0  0
  -27.8536  -30.4319   23.9157 H   0  0  0  0  0  0
  -27.2828  -33.3601   26.2000 H   0  0  0  0  0  0
  -28.3901  -32.6717   25.0204 H   0  0  0  0  0  0
  -28.0766  -31.8361   26.5328 H   0  0  0  0  0  0
  -28.2563  -38.0139   24.7575 H   0  0  0  0  0  0
  -28.1131  -36.2687   24.6106 H   0  0  0  0  0  0
  -27.2355  -37.1278   25.8852 H   0  0  0  0  0  0
  -20.9247  -29.8770   21.6938 H   0  0  0  0  0  0
  -26.0157  -38.2872   24.1518 H   0  0  0  0  0  0
  -31.6080  -20.9639   22.7914 H   0  0  0  0  0  0
  -30.8828  -23.2918   22.7661 H   0  0  0  0  0  0
  -30.6945  -23.1981   18.4581 H   0  0  0  0  0  0
  -28.9726  -16.7417   22.0358 H   0  0  0  0  0  0
  -30.0897  -15.6186   22.7373 H   0  0  0  0  0  0
  -32.0322  -16.9249   22.0478 H   0  0  0  0  0  0
  -30.9087  -18.0187   22.8185 H   0  0  0  0  0  0
  -30.9703  -18.0980   18.5972 H   0  0  0  0  0  0
  -32.0270  -16.9596   19.3622 H   0  0  0  0  0  0
  -30.0592  -15.8286   18.5467 H   0  0  0  0  0  0
  -31.6238  -21.3717   17.2618 H   0  0  0  0  0  0
  -30.4493  -20.1928   17.8104 H   0  0  0  0  0  0
  -32.1923  -19.9047   18.0155 H   0  0  0  0  0  0
  -28.2427  -17.7179   20.1084 H   0  0  0  0  0  0
  -27.7493  -16.3851   19.0669 H   0  0  0  0  0  0
  -28.5555  -17.7759   18.3890 H   0  0  0  0  0  0
  -32.7069  -19.2072   21.6660 H   0  0  0  0  0  0
  -32.8774  -19.1065   19.9595 H   0  0  0  0  0  0
  -30.1334  -27.4013   20.9130 H   0  0  0  0  0  0
  -28.8201  -27.2205   22.0673 H   0  0  0  0  0  0
  -28.8741  -24.7693   21.8834 H   0  0  0  0  0  0
  -30.4142  -25.4357   22.4291 H   0  0  0  0  0  0
  -30.2000  -18.7786   20.7253 H   0  0  0  0  0  0
  1 25  1  0  0  0
  1 30  2  0  0  0
  1 86  1  0  0  0
  2  3  1  0  0  0
  2 25  1  0  0  0
  2 89  1  0  0  0
  2 90  1  0  0  0
  3  4  1  0  0  0
  3 91  1  0  0  0
  3 92  1  0  0  0
  4  5  1  0  0  0
  4 93  1  0  0  0
  4 94  1  0  0  0
  5  6  1  0  0  0
  5 26  1  0  0  0
  5 95  1  0  0  0
  6 25  1  0  0  0
  6 96  1  0  0  0
  6 97  1  0  0  0
  7  8  2  0  0  0
  7 26  1  0  0  0
  7 29  1  0  0  0
  8  9  1  0  0  0
  8 22  1  0  0  0
  9 10  1  0  0  0
  9 27  2  0  0  0
 10 11  2  0  0  0
 10 15  1  0  0  0
 11 12  1  0  0  0
 11 98  1  0  0  0
 12 13  2  0  0  0
 12 99  1  0  0  0
 13 14  1  0  0  0
 13 31  1  0  0  0
 14 15  2  0  0  0
 14100  1  0  0  0
 15101  1  0  0  0
 16 17  2  0  0  0
 16 21  1  0  0  0
 16 31  1  0  0  0
 17 18  1  0  0  0
 17102  1  0  0  0
 18 19  2  0  0  0
 18103  1  0  0  0
 19 20  1  0  0  0
 19 24  1  0  0  0
 20 21  2  0  0  0
 20104  1  0  0  0
 21 23  1  0  0  0
 22 28  1  0  0  0
 22 32  2  0  0  0
 26 27  1  0  0  0
 28105  1  0  0  0
 28106  1  0  0  0
 29107  1  0  0  0
 29108  1  0  0  0
 33 34  1  0  0  0
 33 66  1  0  0  0
 33 70  2  0  0  0
 34 36  1  0  0  0
 34 59  1  0  0  0
 34109  1  0  0  0
 35 44  2  0  0  0
 35 45  1  0  0  0
 35 68  1  0  0  0
 36 56  1  0  0  0
 36110  1  0  0  0
 37 39  1  0  0  0
 37 47  1  0  0  0
 37 66  1  0  0  0
 37111  1  0  0  0
 38 43  2  0  0  0
 38 46  1  0  0  0
 38 47  1  0  0  0
 39 64  1  0  0  0
 39 67  2  0  0  0
 40 52  1  0  0  0
 40 53  2  0  0  0
 40 58  1  0  0  0
 41112  1  0  0  0
 41113  1  0  0  0
 41114  1  0  0  0
 41 48  1  0  0  0
 42 43  1  0  0  0
 42 66  1  0  0  0
 42115  1  0  0  0
 42116  1  0  0  0
 43 44  1  0  0  0
 44117  1  0  0  0
 45 46  2  0  0  0
 45118  1  0  0  0
 46119  1  0  0  0
 47120  1  0  0  0
 47121  1  0  0  0
 48 56  1  0  0  0
 48 65  1  0  0  0
 48122  1  0  0  0
 49 50  1  0  0  0
 49 53  1  0  0  0
 49 64  1  0  0  0
 49123  1  0  0  0
 50 51  1  0  0  0
 50124  1  0  0  0
 50125  1  0  0  0
 51 52  1  0  0  0
 51126  1  0  0  0
 51127  1  0  0  0
 52128  1  0  0  0
 52129  1  0  0  0
 53 54  1  0  0  0
 54 55  2  0  0  0
 54130  1  0  0  0
 55 57  1  0  0  0
 55131  1  0  0  0
 56 69  2  0  0  0
 57 58  2  0  0  0
 57132  1  0  0  0
 58133  1  0  0  0
 59 60  1  0  0  0
 59 61  1  0  0  0
 59 62  1  0  0  0
 60134  1  0  0  0
 60135  1  0  0  0
 60136  1  0  0  0
 61137  1  0  0  0
 61138  1  0  0  0
 61139  1  0  0  0
 62140  1  0  0  0
 62141  1  0  0  0
 62142  1  0  0  0
 63 65  1  0  0  0
 63143  1  0  0  0
 63144  1  0  0  0
 63145  1  0  0  0
 64146  1  0  0  0
 65147  1  0  0  0
 68 84  1  0  0  0
 71 72  2  0  0  0
 71 74  1  0  0  0
 71148  1  0  0  0
 72 76  1  0  0  0
 72149  1  0  0  0
 73 75  1  0  0  0
 73 76  2  0  0  0
 73150  1  0  0  0
 74 75  2  0  0  0
 74 83  1  0  0  0
 75 81  1  0  0  0
 76 88  1  0  0  0
 77 78  1  0  0  0
 77 86  1  0  0  0
 77151  1  0  0  0
 77152  1  0  0  0
 78 87  1  0  0  0
 78153  1  0  0  0
 78154  1  0  0  0
 79 80  1  0  0  0
 79 87  1  0  0  0
 79155  1  0  0  0
 79156  1  0  0  0
 80 82  1  0  0  0
 80 86  1  0  0  0
 80157  1  0  0  0
 81158  1  0  0  0
 81159  1  0  0  0
 81160  1  0  0  0
 82161  1  0  0  0
 82162  1  0  0  0
 82163  1  0  0  0
 83164  1  0  0  0
 83165  1  0  0  0
 83 87  1  0  0  0
 84 85  1  0  0  0
 84166  1  0  0  0
 84167  1  0  0  0
 85 88  1  0  0  0
 85168  1  0  0  0
 85169  1  0  0  0
 87170  1  0  0  0
M  CHG  1  87   1
M  ISO  4   1 100  68 101  84 101  86 100
M  END
> <chiral flag>
0

> <version>
0

> <s_m_source_file>
/data/baiqing/PycharmProjects/Reinvent-master-3.2/result/LINK_invent/BTK/process_docking_weight1_custom_sum_contain_oxygen_bond_distance_aromatic_linkinvent_7_9_3/rearranged_h_0159.sdf

> <i_m_source_file_index>
59

> <r_mmod_Potential_Energy-OPLS-2005>
86.9860534667969

> <r_mmod_Stretch_Energy-OPLS-2005>
36.2521743774414

> <r_mmod_Bend_Energy-OPLS-2005>
108.966384887695

> <r_mmod_Torsional_Energy-OPLS-2005>
403.689453125

> <r_mmod_Improper_Torsional_Energy-OPLS-2005>
15.2916612625122

> <r_mmod_Van_der_Waal_Energy-OPLS-2005>
162.244476318359

> <r_mmod_Electrostatic_Energy-OPLS-2005>
-235.823806762695

> <r_mmod_Solvation_Energy-OPLS-2005>
-418.44384765625

> <b_mmod_Minimization_Converged-OPLS-2005>
0

> <r_mmod_RMS_Derivative-OPLS-2005>
3.38596129417419

$$$$
59
                    3D
 Structure written by MMmdl.
164173  0  0  1  0            999 V2000
  -30.5576  -15.0262   20.4255 C   0  0  0  0  0  0
  -30.4335  -12.6507   19.4977 C   0  0  0  0  0  0
  -29.5153  -12.5427   18.2583 C   0  0  0  0  0  0
  -28.0550  -12.3065   18.6846 C   0  0  0  0  0  0
  -27.6220  -13.2490   19.8365 C   0  0  2  0  0  0
  -28.6711  -13.3061   20.9681 C   0  0  0  0  0  0
  -25.2391  -13.8181   20.5716 C   0  0  0  0  0  0
  -24.1732  -13.0398   20.9246 C   0  0  0  0  0  0
  -24.6374  -11.6899   20.8777 C   0  0  0  0  0  0
  -23.9072  -10.4271   21.0418 C   0  0  0  0  0  0
  -24.3624   -9.4186   21.9194 C   0  0  0  0  0  0
  -23.6295   -8.2225   22.0756 C   0  0  0  0  0  0
  -22.4277   -8.0270   21.3542 C   0  0  0  0  0  0
  -21.9919   -9.0242   20.4643 C   0  0  0  0  0  0
  -22.7251  -10.2118   20.3058 C   0  0  0  0  0  0
  -21.6849   -6.0734   22.5282 C   0  0  0  0  0  0
  -21.4007   -6.5637   23.8212 C   0  0  0  0  0  0
  -21.3657   -5.6791   24.9176 C   0  0  0  0  0  0
  -21.6046   -4.3057   24.7229 C   0  0  0  0  0  0
  -21.8817   -3.8146   23.4350 C   0  0  0  0  0  0
  -21.9189   -4.6960   22.3405 C   0  0  0  0  0  0
  -22.7754  -13.5168   21.1903 C   0  0  0  0  0  0
  -22.1659   -4.2147   21.0982 F   0  0  0  0  0  0
  -21.5633   -3.4539   25.7741 F   0  0  0  0  0  0
  -29.9254  -13.7706   20.3549 N   0  0  0  0  0  0
  -26.2843  -12.9438   20.3274 N   0  0  0  0  0  0
  -25.9311  -11.6565   20.5778 N   0  0  0  0  0  0
  -22.0417  -12.8152   22.0466 N   0  0  0  0  0  0
  -25.3935  -15.1905   20.4097 N   0  0  0  0  0  0
  -31.7682  -15.0119   20.1666 O   0  0  0  0  0  0
  -21.6634   -6.8873   21.4242 O   0  0  0  0  0  0
  -22.3433  -14.5474   20.6750 O   0  0  0  0  0  0
  -24.6467  -31.8399   23.1837 C   0  0  0  0  0  0
  -25.9220  -32.4673   23.8247 C   0  0  1  0  0  0
  -27.2209  -27.0997   20.1553 C   0  0  0  0  0  0
  -25.5939  -33.8482   24.2154 N   0  0  0  0  0  0
  -23.4533  -30.4590   21.5279 C   0  0  2  0  0  0
  -24.9059  -28.8783   20.1090 C   0  0  0  0  0  0
  -22.7593  -29.4535   22.4807 C   0  0  0  0  0  0
  -18.0306  -28.1427   22.8466 C   0  0  0  0  0  0
  -24.1477  -36.7236   23.2652 C   0  0  0  0  0  0
  -26.0122  -30.7028   21.3882 C   0  0  0  0  0  0
  -26.0839  -29.3102   20.7302 C   0  0  0  0  0  0
  -27.2413  -28.4373   20.7351 C   0  0  0  0  0  0
  -26.0174  -26.7821   19.4870 C   0  0  0  0  0  0
  -24.8874  -27.6294   19.4709 C   0  0  0  0  0  0
  -23.6854  -29.7861   20.1485 C   0  0  0  0  0  0
  -25.4112  -36.3015   24.0323 C   0  0  1  0  0  0
  -20.5925  -28.3752   23.1207 C   0  0  2  0  0  0
  -20.6783  -26.9446   22.5399 C   0  0  0  0  0  0
  -19.5752  -26.6387   21.5217 C   0  0  0  0  0  0
  -18.1930  -26.7957   22.1623 C   0  0  0  0  0  0
  -19.1570  -28.8903   23.2830 C   0  0  0  0  0  0
  -18.9500  -30.1488   23.8877 C   0  0  0  0  0  0
  -17.6504  -30.6620   24.0564 C   0  0  0  0  0  0
  -25.9071  -34.9398   23.5050 C   0  0  0  0  0  0
  -16.5385  -29.9121   23.6346 C   0  0  0  0  0  0
  -16.7296  -28.6537   23.0364 C   0  0  0  0  0  0
  -26.4534  -31.6565   25.0709 C   0  0  0  0  0  0
  -25.3708  -31.3781   26.1398 C   0  0  0  0  0  0
  -27.0415  -30.2957   24.6319 C   0  0  0  0  0  0
  -27.6031  -32.4364   25.7510 C   0  0  0  0  0  0
  -27.5560  -37.1764   24.8473 C   0  0  0  0  0  0
  -21.4277  -29.3069   22.3571 N   0  0  0  0  0  0
  -26.4264  -37.3735   23.9432 N   0  0  0  0  0  0
  -24.7239  -31.0229   22.0879 N   0  0  0  0  0  0
  -23.4227  -28.8077   23.2963 O   0  0  0  0  0  0
  -28.2575  -26.0860   20.2467 O   0  0  0  0  0  0
  -26.5666  -34.8913   22.4637 O   0  0  0  0  0  0
  -23.5574  -32.1288   23.7026 O   0  0  0  0  0  0
  -30.5868  -20.9631   21.2836 C   0  0  0  0  0  0
  -29.4640  -20.5936   20.5212 C   0  0  0  0  0  0
  -28.6320  -21.7757   20.1170 C   0  0  0  0  0  0
  -28.9077  -23.2207   20.4390 C   0  0  0  0  0  0
  -30.0735  -23.4043   21.2315 C   0  0  0  0  0  0
  -30.8880  -22.3071   21.6451 C   0  0  0  0  0  0
  -28.3162  -18.1817   21.1810 C   0  0  0  0  0  0
  -28.5129  -16.6273   20.9615 C   0  0  0  0  0  0
  -30.4149  -17.7617   20.2731 C   0  0  0  0  0  0
  -29.2586  -18.9497   20.2409 C   0  0  2  0  0  0
  -27.3654  -21.4756   19.3351 C   0  0  0  0  0  0
  -30.4517  -24.8127   21.6798 C   0  0  0  0  0  0
  -32.6854  -21.5623   23.0827 C   0  0  0  0  0  0
  -27.9737  -24.5517   20.0186 C   0  0  0  0  0  0
  -29.8828  -16.3103   20.5074 N   0  0  0  0  0  0
  -31.9898  -22.6130   22.4204 O   0  0  0  0  0  0
  -31.4624  -12.8109   19.1733 H   0  0  0  0  0  0
  -30.4480  -11.7110   20.0520 H   0  0  0  0  0  0
  -29.8510  -11.7361   17.6051 H   0  0  0  0  0  0
  -29.5821  -13.4612   17.6729 H   0  0  0  0  0  0
  -27.9721  -11.2693   19.0109 H   0  0  0  0  0  0
  -27.3849  -12.4124   17.8302 H   0  0  0  0  0  0
  -27.5701  -14.2377   19.3838 H   0  0  0  0  0  0
  -28.7941  -12.3262   21.4320 H   0  0  0  0  0  0
  -28.3531  -13.9675   21.7705 H   0  0  0  0  0  0
  -25.2766   -9.5662   22.4776 H   0  0  0  0  0  0
  -24.0001   -7.4611   22.7474 H   0  0  0  0  0  0
  -21.0852   -8.8762   19.8946 H   0  0  0  0  0  0
  -22.3714  -10.9657   19.6168 H   0  0  0  0  0  0
  -21.1993   -7.6143   23.9716 H   0  0  0  0  0  0
  -21.1484   -6.0522   25.9077 H   0  0  0  0  0  0
  -22.0600   -2.7607   23.2851 H   0  0  0  0  0  0
  -22.4048  -11.9808   22.4837 H   0  0  0  0  0  0
  -21.1033  -13.1160   22.2696 H   0  0  0  0  0  0
  -24.6179  -15.8339   20.5220 H   0  0  0  0  0  0
  -26.2337  -15.6389   20.0720 H   0  0  0  0  0  0
  -26.7282  -32.5267   23.0970 H   0  0  0  0  0  0
  -25.0051  -33.9585   25.0279 H   0  0  0  0  0  0
  -22.7580  -31.2861   21.3676 H   0  0  0  0  0  0
  -23.3751  -35.9552   23.3296 H   0  0  0  0  0  0
  -24.3547  -36.8889   22.2065 H   0  0  0  0  0  0
  -23.7226  -37.6422   23.6707 H   0  0  0  0  0  0
  -26.1743  -31.4546   20.6144 H   0  0  0  0  0  0
  -26.8799  -30.7539   22.0338 H   0  0  0  0  0  0
  -28.1365  -28.7608   21.2465 H   0  0  0  0  0  0
  -25.9165  -25.8294   18.9888 H   0  0  0  0  0  0
  -23.9896  -27.2960   18.9694 H   0  0  0  0  0  0
  -23.8313  -30.5606   19.3947 H   0  0  0  0  0  0
  -22.8000  -29.2342   19.8292 H   0  0  0  0  0  0
  -25.1298  -36.1822   25.0811 H   0  0  0  0  0  0
  -21.0019  -28.3353   24.1330 H   0  0  0  0  0  0
  -20.5662  -26.2379   23.3634 H   0  0  0  0  0  0
  -21.6646  -26.7423   22.1206 H   0  0  0  0  0  0
  -19.6907  -25.6284   21.1276 H   0  0  0  0  0  0
  -19.6690  -27.3171   20.6725 H   0  0  0  0  0  0
  -17.4195  -26.6708   21.4031 H   0  0  0  0  0  0
  -18.0318  -26.0121   22.9037 H   0  0  0  0  0  0
  -19.7984  -30.7290   24.2248 H   0  0  0  0  0  0
  -17.5075  -31.6301   24.5165 H   0  0  0  0  0  0
  -15.5394  -30.3034   23.7688 H   0  0  0  0  0  0
  -15.8684  -28.0854   22.7113 H   0  0  0  0  0  0
  -24.5914  -30.7093   25.7735 H   0  0  0  0  0  0
  -24.8878  -32.2975   26.4712 H   0  0  0  0  0  0
  -25.7981  -30.9047   27.0248 H   0  0  0  0  0  0
  -26.3042  -29.6660   24.1321 H   0  0  0  0  0  0
  -27.4025  -29.7279   25.4905 H   0  0  0  0  0  0
  -27.8949  -30.4197   23.9649 H   0  0  0  0  0  0
  -27.2592  -33.3709   26.1963 H   0  0  0  0  0  0
  -28.3905  -32.6855   25.0386 H   0  0  0  0  0  0
  -28.0623  -31.8580   26.5538 H   0  0  0  0  0  0
  -28.2553  -38.0079   24.7515 H   0  0  0  0  0  0
  -28.1072  -36.2601   24.6289 H   0  0  0  0  0  0
  -27.2277  -37.1399   25.8875 H   0  0  0  0  0  0
  -20.9498  -29.8819   21.6768 H   0  0  0  0  0  0
  -26.0122  -38.2792   24.1468 H   0  0  0  0  0  0
  -31.2273  -20.1590   21.6059 H   0  0  0  0  0  0
  -28.5839  -18.4217   22.2116 H   0  0  0  0  0  0
  -27.2761  -18.4833   21.0523 H   0  0  0  0  0  0
  -27.8316  -16.2974   20.1827 H   0  0  0  0  0  0
  -28.2642  -16.0992   21.8803 H   0  0  0  0  0  0
  -31.1061  -17.9568   21.0938 H   0  0  0  0  0  0
  -31.0160  -17.7947   19.3636 H   0  0  0  0  0  0
  -28.8250  -18.8876   19.2431 H   0  0  0  0  0  0
  -27.4868  -20.6058   18.6914 H   0  0  0  0  0  0
  -27.0708  -22.3037   18.6924 H   0  0  0  0  0  0
  -26.5443  -21.2768   20.0238 H   0  0  0  0  0  0
  -29.6253  -25.2728   22.2212 H   0  0  0  0  0  0
  -30.6907  -25.4324   20.8157 H   0  0  0  0  0  0
  -31.3113  -24.8508   22.3470 H   0  0  0  0  0  0
  -33.4559  -21.9918   23.7230 H   0  0  0  0  0  0
  -33.1843  -20.8978   22.3769 H   0  0  0  0  0  0
  -32.0196  -20.9798   23.7211 H   0  0  0  0  0  0
  -27.0036  -24.3520   20.4738 H   0  0  0  0  0  0
  -27.8166  -24.4587   18.9441 H   0  0  0  0  0  0
  1 25  1  0  0  0
  1 30  2  0  0  0
  1 85  1  0  0  0
  2  3  1  0  0  0
  2 25  1  0  0  0
  2 87  1  0  0  0
  2 88  1  0  0  0
  3  4  1  0  0  0
  3 89  1  0  0  0
  3 90  1  0  0  0
  4  5  1  0  0  0
  4 91  1  0  0  0
  4 92  1  0  0  0
  5  6  1  0  0  0
  5 26  1  0  0  0
  5 93  1  0  0  0
  6 25  1  0  0  0
  6 94  1  0  0  0
  6 95  1  0  0  0
  7  8  2  0  0  0
  7 26  1  0  0  0
  7 29  1  0  0  0
  8  9  1  0  0  0
  8 22  1  0  0  0
  9 10  1  0  0  0
  9 27  2  0  0  0
 10 11  2  0  0  0
 10 15  1  0  0  0
 11 12  1  0  0  0
 11 96  1  0  0  0
 12 13  2  0  0  0
 12 97  1  0  0  0
 13 14  1  0  0  0
 13 31  1  0  0  0
 14 15  2  0  0  0
 14 98  1  0  0  0
 15 99  1  0  0  0
 16 17  2  0  0  0
 16 21  1  0  0  0
 16 31  1  0  0  0
 17 18  1  0  0  0
 17100  1  0  0  0
 18 19  2  0  0  0
 18101  1  0  0  0
 19 20  1  0  0  0
 19 24  1  0  0  0
 20 21  2  0  0  0
 20102  1  0  0  0
 21 23  1  0  0  0
 22 28  1  0  0  0
 22 32  2  0  0  0
 26 27  1  0  0  0
 28103  1  0  0  0
 28104  1  0  0  0
 29105  1  0  0  0
 29106  1  0  0  0
 33 34  1  0  0  0
 33 66  1  0  0  0
 33 70  2  0  0  0
 34 36  1  0  0  0
 34 59  1  0  0  0
 34107  1  0  0  0
 35 44  2  0  0  0
 35 45  1  0  0  0
 35 68  1  0  0  0
 36 56  1  0  0  0
 36108  1  0  0  0
 37 39  1  0  0  0
 37 47  1  0  0  0
 37 66  1  0  0  0
 37109  1  0  0  0
 38 43  2  0  0  0
 38 46  1  0  0  0
 38 47  1  0  0  0
 39 64  1  0  0  0
 39 67  2  0  0  0
 40 52  1  0  0  0
 40 53  2  0  0  0
 40 58  1  0  0  0
 41110  1  0  0  0
 41111  1  0  0  0
 41112  1  0  0  0
 41 48  1  0  0  0
 42 43  1  0  0  0
 42 66  1  0  0  0
 42113  1  0  0  0
 42114  1  0  0  0
 43 44  1  0  0  0
 44115  1  0  0  0
 45 46  2  0  0  0
 45116  1  0  0  0
 46117  1  0  0  0
 47118  1  0  0  0
 47119  1  0  0  0
 48 56  1  0  0  0
 48 65  1  0  0  0
 48120  1  0  0  0
 49 50  1  0  0  0
 49 53  1  0  0  0
 49 64  1  0  0  0
 49121  1  0  0  0
 50 51  1  0  0  0
 50122  1  0  0  0
 50123  1  0  0  0
 51 52  1  0  0  0
 51124  1  0  0  0
 51125  1  0  0  0
 52126  1  0  0  0
 52127  1  0  0  0
 53 54  1  0  0  0
 54 55  2  0  0  0
 54128  1  0  0  0
 55 57  1  0  0  0
 55129  1  0  0  0
 56 69  2  0  0  0
 57 58  2  0  0  0
 57130  1  0  0  0
 58131  1  0  0  0
 59 60  1  0  0  0
 59 61  1  0  0  0
 59 62  1  0  0  0
 60132  1  0  0  0
 60133  1  0  0  0
 60134  1  0  0  0
 61135  1  0  0  0
 61136  1  0  0  0
 61137  1  0  0  0
 62138  1  0  0  0
 62139  1  0  0  0
 62140  1  0  0  0
 63 65  1  0  0  0
 63141  1  0  0  0
 63142  1  0  0  0
 63143  1  0  0  0
 64144  1  0  0  0
 65145  1  0  0  0
 68 84  1  0  0  0
 71 72  2  0  0  0
 71 76  1  0  0  0
 71146  1  0  0  0
 72 73  1  0  0  0
 72 80  1  0  0  0
 73 74  2  0  0  0
 73 81  1  0  0  0
 74 75  1  0  0  0
 74 84  1  0  0  0
 75 76  2  0  0  0
 75 82  1  0  0  0
 76 86  1  0  0  0
 77 78  1  0  0  0
 77 80  1  0  0  0
 77147  1  0  0  0
 77148  1  0  0  0
 78 85  1  0  0  0
 78149  1  0  0  0
 78150  1  0  0  0
 79 80  1  0  0  0
 79 85  1  0  0  0
 79151  1  0  0  0
 79152  1  0  0  0
 80153  1  0  0  0
 81154  1  0  0  0
 81155  1  0  0  0
 81156  1  0  0  0
 82157  1  0  0  0
 82158  1  0  0  0
 82159  1  0  0  0
 83 86  1  0  0  0
 83160  1  0  0  0
 83161  1  0  0  0
 83162  1  0  0  0
 84163  1  0  0  0
 84164  1  0  0  0
M  ISO  4   1 100  68 101  84 101  85 100
M  END
> <chiral flag>
0

> <version>
0

> <s_m_source_file>
/data/baiqing/PycharmProjects/Reinvent-master-3.2/result/LINK_invent/BTK/process_docking_weight1_custom_sum_contain_oxygen_bond_distance_aromatic_linkinvent_7_9_3/rearranged_h_0159.sdf

> <i_m_source_file_index>
60

> <r_mmod_Potential_Energy-OPLS-2005>
784.317199707031

> <r_mmod_Stretch_Energy-OPLS-2005>
302.716827392578

> <r_mmod_Bend_Energy-OPLS-2005>
313.152282714844

> <r_mmod_Torsional_Energy-OPLS-2005>
307.040283203125

> <r_mmod_Improper_Torsional_Energy-OPLS-2005>
6.27553510665894

> <r_mmod_Van_der_Waal_Energy-OPLS-2005>
139.335876464844

> <r_mmod_Electrostatic_Energy-OPLS-2005>
-309.515472412109

> <r_mmod_Solvation_Energy-OPLS-2005>
-211.055938720703

> <b_mmod_Minimization_Converged-OPLS-2005>
0

> <r_mmod_RMS_Derivative-OPLS-2005>
1.2164443731308

$$$$
60
                    3D
 Structure written by MMmdl.
167177  0  0  1  0            999 V2000
  -30.7325  -14.4281   20.6284 C   0  0  0  0  0  0
  -30.4189  -12.3030   19.4108 C   0  0  0  0  0  0
  -29.4887  -12.5155   18.2006 C   0  0  0  0  0  0
  -28.0119  -12.3724   18.6159 C   0  0  0  0  0  0
  -27.6633  -13.2056   19.8781 C   0  0  2  0  0  0
  -28.7030  -12.9705   20.9962 C   0  0  0  0  0  0
  -25.2593  -13.8162   20.5681 C   0  0  0  0  0  0
  -24.1839  -13.0441   20.9169 C   0  0  0  0  0  0
  -24.6390  -11.6906   20.8729 C   0  0  0  0  0  0
  -23.9057  -10.4294   21.0403 C   0  0  0  0  0  0
  -24.3611   -9.4209   21.9181 C   0  0  0  0  0  0
  -23.6289   -8.2244   22.0753 C   0  0  0  0  0  0
  -22.4271   -8.0281   21.3544 C   0  0  0  0  0  0
  -21.9904   -9.0254   20.4646 C   0  0  0  0  0  0
  -22.7230  -10.2134   20.3053 C   0  0  0  0  0  0
  -21.6853   -6.0735   22.5279 C   0  0  0  0  0  0
  -21.4014   -6.5639   23.8212 C   0  0  0  0  0  0
  -21.3659   -5.6791   24.9174 C   0  0  0  0  0  0
  -21.6044   -4.3054   24.7224 C   0  0  0  0  0  0
  -21.8820   -3.8146   23.4346 C   0  0  0  0  0  0
  -21.9193   -4.6963   22.3402 C   0  0  0  0  0  0
  -22.7864  -13.5242   21.1838 C   0  0  0  0  0  0
  -22.1662   -4.2148   21.0980 F   0  0  0  0  0  0
  -21.5629   -3.4539   25.7738 F   0  0  0  0  0  0
  -30.0378  -13.2727   20.4496 N   0  0  0  0  0  0
  -26.3031  -12.9330   20.3380 N   0  0  0  0  0  0
  -25.9318  -11.6489   20.5764 N   0  0  0  0  0  0
  -22.0506  -12.8235   22.0396 N   0  0  0  0  0  0
  -25.4329  -15.1879   20.4097 N   0  0  0  0  0  0
  -31.8151  -14.6517   20.0792 O   0  0  0  0  0  0
  -21.6638   -6.8876   21.4241 O   0  0  0  0  0  0
  -22.3550  -14.5551   20.6693 O   0  0  0  0  0  0
  -24.6133  -31.8691   23.2119 C   0  0  0  0  0  0
  -25.9032  -32.4828   23.8409 C   0  0  1  0  0  0
  -27.2296  -27.4407   20.1027 C   0  0  0  0  0  0
  -25.5896  -33.8627   24.2340 N   0  0  0  0  0  0
  -23.4015  -30.4926   21.5517 C   0  0  2  0  0  0
  -24.8494  -28.9595   20.1162 C   0  0  0  0  0  0
  -22.7404  -29.4662   22.4995 C   0  0  0  0  0  0
  -18.0271  -28.1377   22.8493 C   0  0  0  0  0  0
  -24.1487  -36.7318   23.2638 C   0  0  0  0  0  0
  -25.9298  -30.8341   21.3675 C   0  0  0  0  0  0
  -26.0074  -29.4673   20.7203 C   0  0  0  0  0  0
  -27.2028  -28.7122   20.7174 C   0  0  0  0  0  0
  -26.0654  -26.9566   19.4716 C   0  0  0  0  0  0
  -24.8717  -27.7010   19.4909 C   0  0  0  0  0  0
  -23.6108  -29.8254   20.1660 C   0  0  0  0  0  0
  -25.4106  -36.3117   24.0340 C   0  0  1  0  0  0
  -20.5861  -28.3661   23.1321 C   0  0  2  0  0  0
  -20.6762  -26.9398   22.5421 C   0  0  0  0  0  0
  -19.5743  -26.6384   21.5214 C   0  0  0  0  0  0
  -18.1919  -26.7925   22.1620 C   0  0  0  0  0  0
  -19.1520  -28.8835   23.2905 C   0  0  0  0  0  0
  -18.9449  -30.1442   23.8915 C   0  0  0  0  0  0
  -17.6452  -30.6583   24.0567 C   0  0  0  0  0  0
  -25.9031  -34.9479   23.5136 C   0  0  0  0  0  0
  -16.5343  -29.9087   23.6326 C   0  0  0  0  0  0
  -16.7261  -28.6504   23.0346 C   0  0  0  0  0  0
  -26.4467  -31.6598   25.0727 C   0  0  0  0  0  0
  -25.3741  -31.3702   26.1481 C   0  0  0  0  0  0
  -27.0288  -30.3037   24.6093 C   0  0  0  0  0  0
  -27.6053  -32.4309   25.7480 C   0  0  0  0  0  0
  -27.5584  -37.1812   24.8463 C   0  0  0  0  0  0
  -21.4134  -29.3031   22.3730 N   0  0  0  0  0  0
  -26.4296  -37.3798   23.9409 N   0  0  0  0  0  0
  -24.6660  -31.0797   22.1020 N   0  0  0  0  0  0
  -23.4179  -28.8204   23.3035 O   0  0  0  0  0  0
  -28.3791  -26.6858   20.0605 O   0  0  0  0  0  0
  -26.5590  -34.8927   22.4696 O   0  0  0  0  0  0
  -23.5328  -32.1443   23.7515 O   0  0  0  0  0  0
  -27.8712  -21.9087   21.4428 C   0  0  0  0  0  0
  -29.9863  -22.7305   20.6274 C   0  0  0  0  0  0
  -28.6323  -22.9693   20.9172 C   0  0  0  0  0  0
  -29.8221  -20.4039   21.4519 C   0  0  0  0  0  0
  -28.4366  -20.6408   21.7060 C   0  0  0  0  0  0
  -30.5804  -21.4726   20.8819 C   0  0  0  0  0  0
  -30.4010  -18.5885   23.2677 C   0  0  0  0  0  0
  -30.3489  -17.0515   23.2158 C   0  0  0  0  0  0
  -30.2105  -17.8344   20.9258 C   0  0  0  0  0  0
  -27.3542  -25.0709   21.7884 C   0  0  0  0  0  0
  -27.9797  -24.3031   20.6454 C   0  0  1  0  0  0
  -30.5184  -19.0630   21.8058 C   0  0  1  0  0  0
  -30.7160  -16.6521   21.7781 C   0  0  2  0  0  0
  -28.5525  -25.6568   21.0585 C   0  0  1  0  0  0
  -27.4858  -19.5962   22.2756 C   0  0  0  0  0  0
  -32.0521  -21.3212   20.5236 C   0  0  0  0  0  0
  -30.1434  -15.3506   21.4088 N   0  0  0  0  0  0
  -31.4628  -12.4014   19.1073 H   0  0  0  0  0  0
  -30.3192  -11.2872   19.7962 H   0  0  0  0  0  0
  -29.7256  -11.7994   17.4126 H   0  0  0  0  0  0
  -29.6567  -13.5062   17.7752 H   0  0  0  0  0  0
  -27.8226  -11.3153   18.8068 H   0  0  0  0  0  0
  -27.3589  -12.6524   17.7885 H   0  0  0  0  0  0
  -27.7140  -14.2565   19.5921 H   0  0  0  0  0  0
  -28.6750  -11.9307   21.3249 H   0  0  0  0  0  0
  -28.4566  -13.5569   21.8818 H   0  0  0  0  0  0
  -25.2758   -9.5688   22.4752 H   0  0  0  0  0  0
  -24.0001   -7.4637   22.7473 H   0  0  0  0  0  0
  -21.0834   -8.8770   19.8954 H   0  0  0  0  0  0
  -22.3687  -10.9672   19.6161 H   0  0  0  0  0  0
  -21.2005   -7.6146   23.9714 H   0  0  0  0  0  0
  -21.1482   -6.0522   25.9076 H   0  0  0  0  0  0
  -22.0599   -2.7609   23.2846 H   0  0  0  0  0  0
  -22.4117  -11.9890   22.4777 H   0  0  0  0  0  0
  -21.1127  -13.1267   22.2609 H   0  0  0  0  0  0
  -24.6699  -15.8470   20.5186 H   0  0  0  0  0  0
  -26.2927  -15.6250   20.1019 H   0  0  0  0  0  0
  -26.7105  -32.5548   23.1178 H   0  0  0  0  0  0
  -25.0058  -33.9794   25.0492 H   0  0  0  0  0  0
  -22.6898  -31.3091   21.4128 H   0  0  0  0  0  0
  -23.3745  -35.9656   23.3311 H   0  0  0  0  0  0
  -24.3584  -36.8920   22.2051 H   0  0  0  0  0  0
  -23.7241  -37.6529   23.6642 H   0  0  0  0  0  0
  -26.0416  -31.5975   20.5963 H   0  0  0  0  0  0
  -26.8182  -30.8897   21.9846 H   0  0  0  0  0  0
  -28.0980  -29.0993   21.1837 H   0  0  0  0  0  0
  -26.0786  -25.9986   18.9724 H   0  0  0  0  0  0
  -23.9846  -27.3075   19.0139 H   0  0  0  0  0  0
  -23.7183  -30.6004   19.4063 H   0  0  0  0  0  0
  -22.7354  -29.2443   19.8702 H   0  0  0  0  0  0
  -25.1282  -36.1990   25.0834 H   0  0  0  0  0  0
  -20.9952  -28.3227   24.1442 H   0  0  0  0  0  0
  -20.5663  -26.2269   23.3607 H   0  0  0  0  0  0
  -21.6636  -26.7443   22.1216 H   0  0  0  0  0  0
  -19.6906  -25.6300   21.1232 H   0  0  0  0  0  0
  -19.6687  -27.3206   20.6753 H   0  0  0  0  0  0
  -17.4194  -26.6683   21.4016 H   0  0  0  0  0  0
  -18.0312  -26.0059   22.9006 H   0  0  0  0  0  0
  -19.7926  -30.7253   24.2292 H   0  0  0  0  0  0
  -17.5008  -31.6265   24.5164 H   0  0  0  0  0  0
  -15.5345  -30.2997   23.7640 H   0  0  0  0  0  0
  -15.8660  -28.0831   22.7050 H   0  0  0  0  0  0
  -24.5919  -30.7037   25.7827 H   0  0  0  0  0  0
  -24.8923  -32.2854   26.4933 H   0  0  0  0  0  0
  -25.8103  -30.8878   27.0236 H   0  0  0  0  0  0
  -26.2825  -29.6806   24.1148 H   0  0  0  0  0  0
  -27.4058  -29.7264   25.4546 H   0  0  0  0  0  0
  -27.8664  -30.4352   23.9237 H   0  0  0  0  0  0
  -27.2681  -33.3599   26.2091 H   0  0  0  0  0  0
  -28.3843  -32.6885   25.0292 H   0  0  0  0  0  0
  -28.0741  -31.8410   26.5366 H   0  0  0  0  0  0
  -28.2611  -38.0100   24.7507 H   0  0  0  0  0  0
  -28.1070  -36.2634   24.6292 H   0  0  0  0  0  0
  -27.2304  -37.1470   25.8868 H   0  0  0  0  0  0
  -20.9291  -29.8758   21.6959 H   0  0  0  0  0  0
  -26.0188  -38.2880   24.1403 H   0  0  0  0  0  0
  -26.8229  -22.0755   21.6528 H   0  0  0  0  0  0
  -30.5774  -23.5305   20.2021 H   0  0  0  0  0  0
  -31.2598  -18.9358   23.8439 H   0  0  0  0  0  0
  -29.5233  -18.9743   23.7818 H   0  0  0  0  0  0
  -29.3348  -16.7260   23.4533 H   0  0  0  0  0  0
  -31.0135  -16.5943   23.9502 H   0  0  0  0  0  0
  -30.7081  -17.8924   19.9569 H   0  0  0  0  0  0
  -29.1445  -17.7356   20.7296 H   0  0  0  0  0  0
  -27.5388  -24.7093   22.7979 H   0  0  0  0  0  0
  -26.3593  -25.4786   21.6346 H   0  0  0  0  0  0
  -27.4245  -24.2566   19.7111 H   0  0  0  0  0  0
  -31.5910  -19.1948   21.6883 H   0  0  0  0  0  0
  -31.8060  -16.6190   21.7104 H   0  0  0  0  0  0
  -29.5236  -25.6832   21.5494 H   0  0  0  0  0  0
  -26.5369  -19.6193   21.7387 H   0  0  0  0  0  0
  -27.2761  -19.8161   23.3227 H   0  0  0  0  0  0
  -27.8526  -18.5762   22.2184 H   0  0  0  0  0  0
  -32.4290  -22.1944   19.9903 H   0  0  0  0  0  0
  -32.2076  -20.4581   19.8753 H   0  0  0  0  0  0
  -32.6580  -21.2020   21.4222 H   0  0  0  0  0  0
  -29.2500  -15.1002   21.8051 H   0  0  0  0  0  0
  1 25  1  0  0  0
  1 30  2  0  0  0
  1 87  1  0  0  0
  2  3  1  0  0  0
  2 25  1  0  0  0
  2 88  1  0  0  0
  2 89  1  0  0  0
  3  4  1  0  0  0
  3 90  1  0  0  0
  3 91  1  0  0  0
  4  5  1  0  0  0
  4 92  1  0  0  0
  4 93  1  0  0  0
  5  6  1  0  0  0
  5 26  1  0  0  0
  5 94  1  0  0  0
  6 25  1  0  0  0
  6 95  1  0  0  0
  6 96  1  0  0  0
  7  8  2  0  0  0
  7 26  1  0  0  0
  7 29  1  0  0  0
  8  9  1  0  0  0
  8 22  1  0  0  0
  9 10  1  0  0  0
  9 27  2  0  0  0
 10 11  2  0  0  0
 10 15  1  0  0  0
 11 12  1  0  0  0
 11 97  1  0  0  0
 12 13  2  0  0  0
 12 98  1  0  0  0
 13 14  1  0  0  0
 13 31  1  0  0  0
 14 15  2  0  0  0
 14 99  1  0  0  0
 15100  1  0  0  0
 16 17  2  0  0  0
 16 21  1  0  0  0
 16 31  1  0  0  0
 17 18  1  0  0  0
 17101  1  0  0  0
 18 19  2  0  0  0
 18102  1  0  0  0
 19 20  1  0  0  0
 19 24  1  0  0  0
 20 21  2  0  0  0
 20103  1  0  0  0
 21 23  1  0  0  0
 22 28  1  0  0  0
 22 32  2  0  0  0
 26 27  1  0  0  0
 28104  1  0  0  0
 28105  1  0  0  0
 29106  1  0  0  0
 29107  1  0  0  0
 33 34  1  0  0  0
 33 66  1  0  0  0
 33 70  2  0  0  0
 34 36  1  0  0  0
 34 59  1  0  0  0
 34108  1  0  0  0
 35 44  2  0  0  0
 35 45  1  0  0  0
 35 68  1  0  0  0
 36 56  1  0  0  0
 36109  1  0  0  0
 37 39  1  0  0  0
 37 47  1  0  0  0
 37 66  1  0  0  0
 37110  1  0  0  0
 38 43  2  0  0  0
 38 46  1  0  0  0
 38 47  1  0  0  0
 39 64  1  0  0  0
 39 67  2  0  0  0
 40 52  1  0  0  0
 40 53  2  0  0  0
 40 58  1  0  0  0
 41111  1  0  0  0
 41112  1  0  0  0
 41113  1  0  0  0
 41 48  1  0  0  0
 42 43  1  0  0  0
 42 66  1  0  0  0
 42114  1  0  0  0
 42115  1  0  0  0
 43 44  1  0  0  0
 44116  1  0  0  0
 45 46  2  0  0  0
 45117  1  0  0  0
 46118  1  0  0  0
 47119  1  0  0  0
 47120  1  0  0  0
 48 56  1  0  0  0
 48 65  1  0  0  0
 48121  1  0  0  0
 49 50  1  0  0  0
 49 53  1  0  0  0
 49 64  1  0  0  0
 49122  1  0  0  0
 50 51  1  0  0  0
 50123  1  0  0  0
 50124  1  0  0  0
 51 52  1  0  0  0
 51125  1  0  0  0
 51126  1  0  0  0
 52127  1  0  0  0
 52128  1  0  0  0
 53 54  1  0  0  0
 54 55  2  0  0  0
 54129  1  0  0  0
 55 57  1  0  0  0
 55130  1  0  0  0
 56 69  2  0  0  0
 57 58  2  0  0  0
 57131  1  0  0  0
 58132  1  0  0  0
 59 60  1  0  0  0
 59 61  1  0  0  0
 59 62  1  0  0  0
 60133  1  0  0  0
 60134  1  0  0  0
 60135  1  0  0  0
 61136  1  0  0  0
 61137  1  0  0  0
 61138  1  0  0  0
 62139  1  0  0  0
 62140  1  0  0  0
 62141  1  0  0  0
 63 65  1  0  0  0
 63142  1  0  0  0
 63143  1  0  0  0
 63144  1  0  0  0
 64145  1  0  0  0
 65146  1  0  0  0
 68 84  1  0  0  0
 71 73  2  0  0  0
 71 75  1  0  0  0
 71147  1  0  0  0
 72 73  1  0  0  0
 72 76  2  0  0  0
 72148  1  0  0  0
 73 81  1  0  0  0
 74 75  2  0  0  0
 74 76  1  0  0  0
 74 82  1  0  0  0
 75 85  1  0  0  0
 76 86  1  0  0  0
 77 78  1  0  0  0
 77 82  1  0  0  0
 77149  1  0  0  0
 77150  1  0  0  0
 78 83  1  0  0  0
 78151  1  0  0  0
 78152  1  0  0  0
 79 82  1  0  0  0
 79 83  1  0  0  0
 79153  1  0  0  0
 79154  1  0  0  0
 80 81  1  0  0  0
 80 84  1  0  0  0
 80155  1  0  0  0
 80156  1  0  0  0
 81 84  1  0  0  0
 81157  1  0  0  0
 82158  1  0  0  0
 83 87  1  0  0  0
 83159  1  0  0  0
 84160  1  0  0  0
 85161  1  0  0  0
 85162  1  0  0  0
 85163  1  0  0  0
 86164  1  0  0  0
 86165  1  0  0  0
 86166  1  0  0  0
 87167  1  0  0  0
M  ISO  4   1 100  68 101  84 101  87 100
M  END
> <chiral flag>
0

> <version>
0

> <s_m_source_file>
/data/baiqing/PycharmProjects/Reinvent-master-3.2/result/LINK_invent/BTK/process_docking_weight1_custom_sum_contain_oxygen_bond_distance_aromatic_linkinvent_7_9_3/rearranged_h_0159.sdf

> <i_m_source_file_index>
61

> <r_mmod_Potential_Energy-OPLS-2005>
38.4588279724121

> <r_mmod_Stretch_Energy-OPLS-2005>
39.7915000915527

> <r_mmod_Bend_Energy-OPLS-2005>
139.322708129883

> <r_mmod_Torsional_Energy-OPLS-2005>
286.043426513672

> <r_mmod_Improper_Torsional_Energy-OPLS-2005>
2.00007057189941

> <r_mmod_Van_der_Waal_Energy-OPLS-2005>
154.265884399414

> <r_mmod_Electrostatic_Energy-OPLS-2005>
-392.776214599609

> <r_mmod_Solvation_Energy-OPLS-2005>
-199.270660400391

> <b_mmod_Minimization_Converged-OPLS-2005>
0

> <r_mmod_RMS_Derivative-OPLS-2005>
0.218740910291672

$$$$
61
                    3D
 Structure written by MMmdl.
166175  0  0  1  0            999 V2000
  -30.5252  -15.1505   20.3812 C   0  0  0  0  0  0
  -30.4260  -12.7351   19.5073 C   0  0  0  0  0  0
  -29.5198  -12.5486   18.2694 C   0  0  0  0  0  0
  -28.0679  -12.2900   18.7029 C   0  0  0  0  0  0
  -27.6101  -13.2651   19.8172 C   0  0  2  0  0  0
  -28.6485  -13.4293   20.9469 C   0  0  0  0  0  0
  -25.2414  -13.8243   20.5744 C   0  0  0  0  0  0
  -24.1747  -13.0443   20.9235 C   0  0  0  0  0  0
  -24.6380  -11.6929   20.8751 C   0  0  0  0  0  0
  -23.9074  -10.4293   21.0396 C   0  0  0  0  0  0
  -24.3624   -9.4213   21.9175 C   0  0  0  0  0  0
  -23.6300   -8.2244   22.0748 C   0  0  0  0  0  0
  -22.4282   -8.0275   21.3536 C   0  0  0  0  0  0
  -21.9914   -9.0250   20.4640 C   0  0  0  0  0  0
  -22.7241  -10.2132   20.3049 C   0  0  0  0  0  0
  -21.6859   -6.0731   22.5278 C   0  0  0  0  0  0
  -21.4019   -6.5637   23.8211 C   0  0  0  0  0  0
  -21.3663   -5.6791   24.9174 C   0  0  0  0  0  0
  -21.6048   -4.3053   24.7224 C   0  0  0  0  0  0
  -21.8819   -3.8140   23.4345 C   0  0  0  0  0  0
  -21.9195   -4.6957   22.3401 C   0  0  0  0  0  0
  -22.7769  -13.5201   21.1890 C   0  0  0  0  0  0
  -22.1662   -4.2142   21.0977 F   0  0  0  0  0  0
  -21.5630   -3.4536   25.7735 F   0  0  0  0  0  0
  -29.8914  -13.8887   20.3122 N   0  0  0  0  0  0
  -26.2816  -12.9490   20.3215 N   0  0  0  0  0  0
  -25.9314  -11.6606   20.5723 N   0  0  0  0  0  0
  -22.0423  -12.8189   22.0448 N   0  0  0  0  0  0
  -25.4104  -15.1975   20.4225 N   0  0  0  0  0  0
  -31.7527  -15.0861   20.2250 O   0  0  0  0  0  0
  -21.6646   -6.8871   21.4236 O   0  0  0  0  0  0
  -22.3444  -14.5498   20.6728 O   0  0  0  0  0  0
  -24.6559  -31.8306   23.1774 C   0  0  0  0  0  0
  -25.9271  -32.4624   23.8215 C   0  0  1  0  0  0
  -27.2181  -27.0008   20.1746 C   0  0  0  0  0  0
  -25.5966  -33.8438   24.2125 N   0  0  0  0  0  0
  -23.4670  -30.4454   21.5244 C   0  0  2  0  0  0
  -24.9199  -28.8469   20.1120 C   0  0  0  0  0  0
  -22.7631  -29.4478   22.4803 C   0  0  0  0  0  0
  -18.0317  -28.1402   22.8472 C   0  0  0  0  0  0
  -24.1493  -36.7229   23.2646 C   0  0  0  0  0  0
  -26.0320  -30.6616   21.3960 C   0  0  0  0  0  0
  -26.1020  -29.2588   20.7402 C   0  0  0  0  0  0
  -27.2486  -28.3553   20.7495 C   0  0  0  0  0  0
  -26.0074  -26.7239   19.5018 C   0  0  0  0  0  0
  -24.8936  -27.5975   19.4737 C   0  0  0  0  0  0
  -23.7032  -29.7667   20.1478 C   0  0  0  0  0  0
  -25.4130  -36.2993   24.0308 C   0  0  1  0  0  0
  -20.5937  -28.3744   23.1202 C   0  0  2  0  0  0
  -20.6799  -26.9433   22.5403 C   0  0  0  0  0  0
  -19.5773  -26.6378   21.5213 C   0  0  0  0  0  0
  -18.1954  -26.7939   22.1620 C   0  0  0  0  0  0
  -19.1577  -28.8892   23.2828 C   0  0  0  0  0  0
  -18.9489  -30.1481   23.8864 C   0  0  0  0  0  0
  -17.6484  -30.6595   24.0557 C   0  0  0  0  0  0
  -25.9089  -34.9367   23.5035 C   0  0  0  0  0  0
  -16.5375  -29.9086   23.6337 C   0  0  0  0  0  0
  -16.7301  -28.6504   23.0361 C   0  0  0  0  0  0
  -26.4548  -31.6537   25.0709 C   0  0  0  0  0  0
  -25.3702  -31.3768   26.1386 C   0  0  0  0  0  0
  -27.0429  -30.2912   24.6386 C   0  0  0  0  0  0
  -27.6056  -32.4329   25.7507 C   0  0  0  0  0  0
  -27.5576  -37.1770   24.8464 C   0  0  0  0  0  0
  -21.4308  -29.3048   22.3557 N   0  0  0  0  0  0
  -26.4284  -37.3719   23.9407 N   0  0  0  0  0  0
  -24.7392  -31.0042   22.0872 N   0  0  0  0  0  0
  -23.4215  -28.8040   23.3014 O   0  0  0  0  0  0
  -28.2317  -25.9311   20.2524 O   0  0  0  0  0  0
  -26.5691  -34.8892   22.4626 O   0  0  0  0  0  0
  -23.5644  -32.1240   23.6907 O   0  0  0  0  0  0
  -30.1489  -22.5981   17.9020 C   0  0  0  0  0  0
  -28.7965  -21.5951   19.6485 C   0  0  0  0  0  0
  -29.0321  -21.8037   18.2614 C   0  0  0  0  0  0
  -30.8775  -23.2843   18.9030 C   0  0  0  0  0  0
  -28.9525  -22.9889   20.2891 C   0  0  0  0  0  0
  -30.2771  -23.4522   20.1737 C   0  0  0  0  0  0
  -29.9760  -19.2511   21.2099 C   0  0  0  0  0  0
  -28.3735  -18.6687   19.6150 C   0  0  0  0  0  0
  -30.6231  -17.7192   21.0515 C   0  0  0  0  0  0
  -28.9841  -17.1365   19.4660 C   0  0  0  0  0  0
  -29.2969  -19.9501   19.9460 C   0  0  0  0  0  0
  -28.3960  -20.9484   17.1828 C   0  0  0  0  0  0
  -32.2116  -23.9256   18.5683 C   0  0  0  0  0  0
  -30.8715  -24.3985   21.2021 C   0  0  0  0  0  0
  -27.9248  -24.3491   20.0969 C   0  0  0  0  0  0
  -29.8840  -16.4766   20.5039 N   0  0  0  0  0  0
  -31.4515  -12.9057   19.1752 H   0  0  0  0  0  0
  -30.4596  -11.8237   20.1064 H   0  0  0  0  0  0
  -29.8807  -11.7254   17.6513 H   0  0  0  0  0  0
  -29.5628  -13.4427   17.6467 H   0  0  0  0  0  0
  -28.0151  -11.2646   19.0696 H   0  0  0  0  0  0
  -27.3949  -12.3406   17.8453 H   0  0  0  0  0  0
  -27.5269  -14.2300   19.3189 H   0  0  0  0  0  0
  -28.7939  -12.4996   21.4994 H   0  0  0  0  0  0
  -28.3085  -14.1761   21.6664 H   0  0  0  0  0  0
  -25.2765   -9.5702   22.4755 H   0  0  0  0  0  0
  -24.0011   -7.4642   22.7477 H   0  0  0  0  0  0
  -21.0840   -8.8767   19.8955 H   0  0  0  0  0  0
  -22.3685  -10.9669   19.6164 H   0  0  0  0  0  0
  -21.2012   -7.6146   23.9713 H   0  0  0  0  0  0
  -21.1489   -6.0519   25.9078 H   0  0  0  0  0  0
  -22.0596   -2.7601   23.2846 H   0  0  0  0  0  0
  -22.4042  -11.9856   22.4850 H   0  0  0  0  0  0
  -21.1037  -13.1208   22.2644 H   0  0  0  0  0  0
  -24.6503  -15.8562   20.5558 H   0  0  0  0  0  0
  -26.2763  -15.6423   20.1471 H   0  0  0  0  0  0
  -26.7338  -32.5190   23.0934 H   0  0  0  0  0  0
  -25.0065  -33.9528   25.0243 H   0  0  0  0  0  0
  -22.7766  -31.2753   21.3590 H   0  0  0  0  0  0
  -23.3762  -35.9552   23.3277 H   0  0  0  0  0  0
  -24.3577  -36.8900   22.2066 H   0  0  0  0  0  0
  -23.7241  -37.6409   23.6714 H   0  0  0  0  0  0
  -26.2015  -31.4067   20.6174 H   0  0  0  0  0  0
  -26.8964  -30.7185   22.0460 H   0  0  0  0  0  0
  -28.1438  -28.6669   21.2687 H   0  0  0  0  0  0
  -25.8851  -25.7692   19.0130 H   0  0  0  0  0  0
  -23.9943  -27.2757   18.9662 H   0  0  0  0  0  0
  -23.8551  -30.5381   19.3917 H   0  0  0  0  0  0
  -22.8144  -29.2181   19.8305 H   0  0  0  0  0  0
  -25.1321  -36.1804   25.0800 H   0  0  0  0  0  0
  -21.0030  -28.3350   24.1323 H   0  0  0  0  0  0
  -20.5680  -26.2365   23.3640 H   0  0  0  0  0  0
  -21.6664  -26.7419   22.1207 H   0  0  0  0  0  0
  -19.6934  -25.6277   21.1272 H   0  0  0  0  0  0
  -19.6711  -27.3166   20.6725 H   0  0  0  0  0  0
  -17.4224  -26.6683   21.4022 H   0  0  0  0  0  0
  -18.0348  -26.0087   22.9022 H   0  0  0  0  0  0
  -19.7963  -30.7304   24.2225 H   0  0  0  0  0  0
  -17.5036  -31.6272   24.5162 H   0  0  0  0  0  0
  -15.5373  -30.2980   23.7674 H   0  0  0  0  0  0
  -15.8702  -28.0808   22.7103 H   0  0  0  0  0  0
  -24.5893  -30.7101   25.7707 H   0  0  0  0  0  0
  -24.8880  -32.2961   26.4716 H   0  0  0  0  0  0
  -25.7957  -30.9005   27.0226 H   0  0  0  0  0  0
  -26.3074  -29.6603   24.1380 H   0  0  0  0  0  0
  -27.3973  -29.7255   25.5012 H   0  0  0  0  0  0
  -27.9013  -30.4107   23.9774 H   0  0  0  0  0  0
  -27.2634  -33.3659   26.1995 H   0  0  0  0  0  0
  -28.3917  -32.6835   25.0373 H   0  0  0  0  0  0
  -28.0669  -31.8514   26.5499 H   0  0  0  0  0  0
  -28.2572  -38.0086   24.7511 H   0  0  0  0  0  0
  -28.1092  -36.2610   24.6285 H   0  0  0  0  0  0
  -27.2295  -37.1407   25.8868 H   0  0  0  0  0  0
  -20.9545  -29.8750   21.6705 H   0  0  0  0  0  0
  -26.0138  -38.2781   24.1413 H   0  0  0  0  0  0
  -30.5007  -22.5989   16.8788 H   0  0  0  0  0  0
  -30.7764  -19.9072   21.5551 H   0  0  0  0  0  0
  -29.2562  -19.2409   22.0291 H   0  0  0  0  0  0
  -27.5783  -18.6400   20.3621 H   0  0  0  0  0  0
  -27.8426  -18.8549   18.6869 H   0  0  0  0  0  0
  -31.0126  -17.4334   22.0298 H   0  0  0  0  0  0
  -31.5106  -17.8245   20.4255 H   0  0  0  0  0  0
  -29.5402  -17.1028   18.5275 H   0  0  0  0  0  0
  -28.1423  -16.4633   19.3117 H   0  0  0  0  0  0
  -30.1118  -19.8679   19.2247 H   0  0  0  0  0  0
  -28.9826  -20.0464   17.0030 H   0  0  0  0  0  0
  -28.3384  -21.4986   16.2433 H   0  0  0  0  0  0
  -27.3778  -20.6692   17.4555 H   0  0  0  0  0  0
  -32.5614  -23.6224   17.5804 H   0  0  0  0  0  0
  -32.9705  -23.6263   19.2917 H   0  0  0  0  0  0
  -32.1311  -25.0126   18.5807 H   0  0  0  0  0  0
  -31.8654  -24.0622   21.4991 H   0  0  0  0  0  0
  -30.2519  -24.4443   22.0984 H   0  0  0  0  0  0
  -30.9558  -25.4068   20.7961 H   0  0  0  0  0  0
  -27.0746  -24.1519   20.7503 H   0  0  0  0  0  0
  -27.5305  -24.2365   19.0872 H   0  0  0  0  0  0
  1 25  1  0  0  0
  1 30  2  0  0  0
  1 86  1  0  0  0
  2  3  1  0  0  0
  2 25  1  0  0  0
  2 87  1  0  0  0
  2 88  1  0  0  0
  3  4  1  0  0  0
  3 89  1  0  0  0
  3 90  1  0  0  0
  4  5  1  0  0  0
  4 91  1  0  0  0
  4 92  1  0  0  0
  5  6  1  0  0  0
  5 26  1  0  0  0
  5 93  1  0  0  0
  6 25  1  0  0  0
  6 94  1  0  0  0
  6 95  1  0  0  0
  7  8  2  0  0  0
  7 26  1  0  0  0
  7 29  1  0  0  0
  8  9  1  0  0  0
  8 22  1  0  0  0
  9 10  1  0  0  0
  9 27  2  0  0  0
 10 11  2  0  0  0
 10 15  1  0  0  0
 11 12  1  0  0  0
 11 96  1  0  0  0
 12 13  2  0  0  0
 12 97  1  0  0  0
 13 14  1  0  0  0
 13 31  1  0  0  0
 14 15  2  0  0  0
 14 98  1  0  0  0
 15 99  1  0  0  0
 16 17  2  0  0  0
 16 21  1  0  0  0
 16 31  1  0  0  0
 17 18  1  0  0  0
 17100  1  0  0  0
 18 19  2  0  0  0
 18101  1  0  0  0
 19 20  1  0  0  0
 19 24  1  0  0  0
 20 21  2  0  0  0
 20102  1  0  0  0
 21 23  1  0  0  0
 22 28  1  0  0  0
 22 32  2  0  0  0
 26 27  1  0  0  0
 28103  1  0  0  0
 28104  1  0  0  0
 29105  1  0  0  0
 29106  1  0  0  0
 33 34  1  0  0  0
 33 66  1  0  0  0
 33 70  2  0  0  0
 34 36  1  0  0  0
 34 59  1  0  0  0
 34107  1  0  0  0
 35 44  2  0  0  0
 35 45  1  0  0  0
 35 68  1  0  0  0
 36 56  1  0  0  0
 36108  1  0  0  0
 37 39  1  0  0  0
 37 47  1  0  0  0
 37 66  1  0  0  0
 37109  1  0  0  0
 38 43  2  0  0  0
 38 46  1  0  0  0
 38 47  1  0  0  0
 39 64  1  0  0  0
 39 67  2  0  0  0
 40 52  1  0  0  0
 40 53  2  0  0  0
 40 58  1  0  0  0
 41110  1  0  0  0
 41111  1  0  0  0
 41112  1  0  0  0
 41 48  1  0  0  0
 42 43  1  0  0  0
 42 66  1  0  0  0
 42113  1  0  0  0
 42114  1  0  0  0
 43 44  1  0  0  0
 44115  1  0  0  0
 45 46  2  0  0  0
 45116  1  0  0  0
 46117  1  0  0  0
 47118  1  0  0  0
 47119  1  0  0  0
 48 56  1  0  0  0
 48 65  1  0  0  0
 48120  1  0  0  0
 49 50  1  0  0  0
 49 53  1  0  0  0
 49 64  1  0  0  0
 49121  1  0  0  0
 50 51  1  0  0  0
 50122  1  0  0  0
 50123  1  0  0  0
 51 52  1  0  0  0
 51124  1  0  0  0
 51125  1  0  0  0
 52126  1  0  0  0
 52127  1  0  0  0
 53 54  1  0  0  0
 54 55  2  0  0  0
 54128  1  0  0  0
 55 57  1  0  0  0
 55129  1  0  0  0
 56 69  2  0  0  0
 57 58  2  0  0  0
 57130  1  0  0  0
 58131  1  0  0  0
 59 60  1  0  0  0
 59 61  1  0  0  0
 59 62  1  0  0  0
 60132  1  0  0  0
 60133  1  0  0  0
 60134  1  0  0  0
 61135  1  0  0  0
 61136  1  0  0  0
 61137  1  0  0  0
 62138  1  0  0  0
 62139  1  0  0  0
 62140  1  0  0  0
 63 65  1  0  0  0
 63141  1  0  0  0
 63142  1  0  0  0
 63143  1  0  0  0
 64144  1  0  0  0
 65145  1  0  0  0
 68 85  1  0  0  0
 71 73  2  0  0  0
 71 74  1  0  0  0
 71146  1  0  0  0
 72 73  1  0  0  0
 72 75  2  0  0  0
 72 81  1  0  0  0
 73 82  1  0  0  0
 74 76  2  0  0  0
 74 83  1  0  0  0
 75 76  1  0  0  0
 75 85  1  0  0  0
 76 84  1  0  0  0
 77 79  1  0  0  0
 77 81  1  0  0  0
 77147  1  0  0  0
 77148  1  0  0  0
 78 80  1  0  0  0
 78 81  1  0  0  0
 78149  1  0  0  0
 78150  1  0  0  0
 79 86  1  0  0  0
 79151  1  0  0  0
 79152  1  0  0  0
 80 86  1  0  0  0
 80153  1  0  0  0
 80154  1  0  0  0
 81155  1  0  0  0
 82156  1  0  0  0
 82157  1  0  0  0
 82158  1  0  0  0
 83159  1  0  0  0
 83160  1  0  0  0
 83161  1  0  0  0
 84162  1  0  0  0
 84163  1  0  0  0
 84164  1  0  0  0
 85165  1  0  0  0
 85166  1  0  0  0
M  ISO  4   1 100  68 101  85 101  86 100
M  END
> <chiral flag>
0

> <version>
0

> <s_m_source_file>
/data/baiqing/PycharmProjects/Reinvent-master-3.2/result/LINK_invent/BTK/process_docking_weight1_custom_sum_contain_oxygen_bond_distance_aromatic_linkinvent_7_9_3/rearranged_h_0159.sdf

> <i_m_source_file_index>
62

> <r_mmod_Potential_Energy-OPLS-2005>
1530.81433105469

> <r_mmod_Stretch_Energy-OPLS-2005>
438.449432373047

> <r_mmod_Bend_Energy-OPLS-2005>
472.862976074219

> <r_mmod_Torsional_Energy-OPLS-2005>
569.712829589844

> <r_mmod_Improper_Torsional_Energy-OPLS-2005>
45.4530029296875

> <r_mmod_Van_der_Waal_Energy-OPLS-2005>
139.571975708008

> <r_mmod_Electrostatic_Energy-OPLS-2005>
-290.154998779297

> <r_mmod_Solvation_Energy-OPLS-2005>
-196.69384765625

> <b_mmod_Minimization_Converged-OPLS-2005>
0

> <r_mmod_RMS_Derivative-OPLS-2005>
1.26785373687744

$$$$
62
                    3D
 Structure written by MMmdl.
175184  0  0  1  0            999 V2000
  -30.6665  -14.6585   20.5113 C   0  0  0  0  0  0
  -30.4197  -12.4150   19.4565 C   0  0  0  0  0  0
  -29.4967  -12.5006   18.2221 C   0  0  0  0  0  0
  -28.0236  -12.3252   18.6389 C   0  0  0  0  0  0
  -27.6422  -13.2120   19.8533 C   0  0  2  0  0  0
  -28.6892  -13.0866   20.9830 C   0  0  0  0  0  0
  -25.2482  -13.8139   20.5625 C   0  0  0  0  0  0
  -24.1784  -13.0404   20.9201 C   0  0  0  0  0  0
  -24.6376  -11.6887   20.8764 C   0  0  0  0  0  0
  -23.9064  -10.4273   21.0426 C   0  0  0  0  0  0
  -24.3621   -9.4186   21.9191 C   0  0  0  0  0  0
  -23.6296   -8.2220   22.0751 C   0  0  0  0  0  0
  -22.4274   -8.0269   21.3543 C   0  0  0  0  0  0
  -21.9918   -9.0241   20.4642 C   0  0  0  0  0  0
  -22.7247  -10.2119   20.3059 C   0  0  0  0  0  0
  -21.6850   -6.0732   22.5282 C   0  0  0  0  0  0
  -21.4009   -6.5641   23.8215 C   0  0  0  0  0  0
  -21.3653   -5.6797   24.9176 C   0  0  0  0  0  0
  -21.6042   -4.3058   24.7231 C   0  0  0  0  0  0
  -21.8820   -3.8150   23.4354 C   0  0  0  0  0  0
  -21.9192   -4.6963   22.3407 C   0  0  0  0  0  0
  -22.7810  -13.5190   21.1877 C   0  0  0  0  0  0
  -22.1662   -4.2148   21.0984 F   0  0  0  0  0  0
  -21.5627   -3.4542   25.7748 F   0  0  0  0  0  0
  -29.9848  -13.4655   20.4072 N   0  0  0  0  0  0
  -26.2921  -12.9332   20.3282 N   0  0  0  0  0  0
  -25.9296  -11.6491   20.5780 N   0  0  0  0  0  0
  -22.0479  -12.8168   22.0441 N   0  0  0  0  0  0
  -25.4083  -15.1852   20.3910 N   0  0  0  0  0  0
  -31.8495  -14.6940   20.1579 O   0  0  0  0  0  0
  -21.6631   -6.8872   21.4240 O   0  0  0  0  0  0
  -22.3488  -14.5499   20.6739 O   0  0  0  0  0  0
  -24.6238  -31.8611   23.2044 C   0  0  0  0  0  0
  -25.9078  -32.4782   23.8370 C   0  0  1  0  0  0
  -27.2181  -27.3326   20.1020 C   0  0  0  0  0  0
  -25.5900  -33.8582   24.2296 N   0  0  0  0  0  0
  -23.4156  -30.4863   21.5447 C   0  0  2  0  0  0
  -24.8582  -28.9420   20.1089 C   0  0  0  0  0  0
  -22.7466  -29.4635   22.4931 C   0  0  0  0  0  0
  -18.0297  -28.1363   22.8486 C   0  0  0  0  0  0
  -24.1502  -36.7335   23.2639 C   0  0  0  0  0  0
  -25.9545  -30.7946   21.3719 C   0  0  0  0  0  0
  -26.0260  -29.4226   20.7142 C   0  0  0  0  0  0
  -27.2057  -28.6274   20.7032 C   0  0  0  0  0  0
  -26.0230  -26.8896   19.4919 C   0  0  0  0  0  0
  -24.8578  -27.6800   19.4936 C   0  0  0  0  0  0
  -23.6280  -29.8228   20.1590 C   0  0  0  0  0  0
  -25.4116  -36.3100   24.0332 C   0  0  1  0  0  0
  -20.5889  -28.3675   23.1293 C   0  0  2  0  0  0
  -20.6783  -26.9397   22.5411 C   0  0  0  0  0  0
  -19.5752  -26.6368   21.5219 C   0  0  0  0  0  0
  -18.1930  -26.7907   22.1628 C   0  0  0  0  0  0
  -19.1542  -28.8830   23.2881 C   0  0  0  0  0  0
  -18.9469  -30.1436   23.8894 C   0  0  0  0  0  0
  -17.6466  -30.6563   24.0562 C   0  0  0  0  0  0
  -25.9035  -34.9454   23.5121 C   0  0  0  0  0  0
  -16.5356  -29.9068   23.6316 C   0  0  0  0  0  0
  -16.7282  -28.6490   23.0335 C   0  0  0  0  0  0
  -26.4466  -31.6587   25.0737 C   0  0  0  0  0  0
  -25.3713  -31.3707   26.1486 C   0  0  0  0  0  0
  -27.0307  -30.3009   24.6181 C   0  0  0  0  0  0
  -27.6025  -32.4340   25.7512 C   0  0  0  0  0  0
  -27.5597  -37.1817   24.8446 C   0  0  0  0  0  0
  -21.4181  -29.3046   22.3695 N   0  0  0  0  0  0
  -26.4305  -37.3778   23.9393 N   0  0  0  0  0  0
  -24.6833  -31.0643   22.0974 N   0  0  0  0  0  0
  -23.4216  -28.8166   23.2983 O   0  0  0  0  0  0
  -28.3724  -26.5439   20.1445 O   0  0  0  0  0  0
  -26.5619  -34.8915   22.4700 O   0  0  0  0  0  0
  -23.5406  -32.1418   23.7371 O   0  0  0  0  0  0
  -32.2111  -20.9590   22.8909 C   0  0  0  0  0  0
  -30.5340  -19.7228   21.5747 C   0  0  0  0  0  0
  -31.8728  -19.8912   22.0417 C   0  0  0  0  0  0
  -31.2193  -21.8215   23.3721 C   0  0  0  0  0  0
  -29.6581  -20.8762   21.7319 C   0  0  0  0  0  0
  -29.9272  -21.7680   22.8122 C   0  0  0  0  0  0
  -30.6136  -17.2012   20.3593 C   0  0  0  0  0  0
  -28.7988  -16.1918   21.4776 C   0  0  0  0  0  0
  -30.0834  -18.2068   21.4293 C   0  0  2  0  0  0
  -28.6381  -17.7417   21.5469 C   0  0  2  0  0  0
  -32.9842  -18.8975   21.7415 C   0  0  0  0  0  0
  -31.5696  -22.8006   24.4824 C   0  0  0  0  0  0
  -28.8374  -22.6308   23.4491 C   0  0  0  0  0  0
  -27.8784  -18.2047   22.8008 C   0  0  0  0  0  0
  -28.5227  -21.2839   20.7460 C   0  0  0  0  0  0
  -28.3025  -23.9395   20.5455 C   0  0  0  0  0  0
  -28.4528  -25.1851   19.5740 C   0  0  0  0  0  0
  -29.9947  -15.8696   20.6676 N   0  0  0  0  0  0
  -28.7433  -22.5897   19.9882 N   0  3  0  0  0  0
  -31.4616  -12.5198   19.1489 H   0  0  0  0  0  0
  -30.3523  -11.4285   19.9182 H   0  0  0  0  0  0
  -29.7719  -11.7392   17.4909 H   0  0  0  0  0  0
  -29.6278  -13.4636   17.7278 H   0  0  0  0  0  0
  -27.8791  -11.2743   18.8916 H   0  0  0  0  0  0
  -27.3624  -12.5274   17.7955 H   0  0  0  0  0  0
  -27.6535  -14.2356   19.4831 H   0  0  0  0  0  0
  -28.7239  -12.0601   21.3508 H   0  0  0  0  0  0
  -28.4290  -13.6808   21.8550 H   0  0  0  0  0  0
  -25.2765   -9.5653   22.4765 H   0  0  0  0  0  0
  -24.0008   -7.4605   22.7461 H   0  0  0  0  0  0
  -21.0854   -8.8758   19.8941 H   0  0  0  0  0  0
  -22.3714  -10.9657   19.6170 H   0  0  0  0  0  0
  -21.2000   -7.6151   23.9716 H   0  0  0  0  0  0
  -21.1470   -6.0528   25.9078 H   0  0  0  0  0  0
  -22.0606   -2.7614   23.2857 H   0  0  0  0  0  0
  -22.4125  -11.9826   22.4805 H   0  0  0  0  0  0
  -21.1092  -13.1152   22.2668 H   0  0  0  0  0  0
  -24.6363  -15.8331   20.5000 H   0  0  0  0  0  0
  -26.2486  -15.6251   20.0400 H   0  0  0  0  0  0
  -26.7162  -32.5456   23.1127 H   0  0  0  0  0  0
  -24.9984  -33.9719   25.0402 H   0  0  0  0  0  0
  -22.7074  -31.3056   21.4033 H   0  0  0  0  0  0
  -23.3737  -35.9688   23.3278 H   0  0  0  0  0  0
  -24.3585  -36.9004   22.2056 H   0  0  0  0  0  0
  -23.7300  -37.6551   23.6682 H   0  0  0  0  0  0
  -26.0836  -31.5573   20.6028 H   0  0  0  0  0  0
  -26.8358  -30.8432   22.0008 H   0  0  0  0  0  0
  -28.1059  -28.9925   21.1794 H   0  0  0  0  0  0
  -25.9479  -25.9232   19.0188 H   0  0  0  0  0  0
  -23.9600  -27.3044   19.0214 H   0  0  0  0  0  0
  -23.7443  -30.6001   19.4018 H   0  0  0  0  0  0
  -22.7472  -29.2526   19.8599 H   0  0  0  0  0  0
  -25.1296  -36.1958   25.0822 H   0  0  0  0  0  0
  -20.9984  -28.3251   24.1413 H   0  0  0  0  0  0
  -20.5696  -26.2279   23.3609 H   0  0  0  0  0  0
  -21.6650  -26.7433   22.1203 H   0  0  0  0  0  0
  -19.6909  -25.6282   21.1249 H   0  0  0  0  0  0
  -19.6688  -27.3175   20.6745 H   0  0  0  0  0  0
  -17.4210  -26.6668   21.4025 H   0  0  0  0  0  0
  -18.0317  -26.0031   22.9010 H   0  0  0  0  0  0
  -19.7940  -30.7249   24.2271 H   0  0  0  0  0  0
  -17.5016  -31.6240   24.5166 H   0  0  0  0  0  0
  -15.5354  -30.2965   23.7624 H   0  0  0  0  0  0
  -15.8693  -28.0814   22.7026 H   0  0  0  0  0  0
  -24.5885  -30.7045   25.7848 H   0  0  0  0  0  0
  -24.8871  -32.2843   26.4944 H   0  0  0  0  0  0
  -25.8047  -30.8895   27.0259 H   0  0  0  0  0  0
  -26.2880  -29.6761   24.1203 H   0  0  0  0  0  0
  -27.4011  -29.7267   25.4685 H   0  0  0  0  0  0
  -27.8744  -30.4305   23.9396 H   0  0  0  0  0  0
  -27.2631  -33.3650   26.2071 H   0  0  0  0  0  0
  -28.3831  -32.6901   25.0334 H   0  0  0  0  0  0
  -28.0678  -31.8474   26.5448 H   0  0  0  0  0  0
  -28.2579  -38.0146   24.7514 H   0  0  0  0  0  0
  -28.1143  -36.2677   24.6253 H   0  0  0  0  0  0
  -27.2305  -37.1455   25.8846 H   0  0  0  0  0  0
  -20.9339  -29.8841   21.6987 H   0  0  0  0  0  0
  -26.0197  -38.2868   24.1351 H   0  0  0  0  0  0
  -33.2165  -21.0380   23.2819 H   0  0  0  0  0  0
  -31.6962  -17.1315   20.3441 H   0  0  0  0  0  0
  -30.3046  -17.5125   19.3604 H   0  0  0  0  0  0
  -27.8956  -15.7530   21.0698 H   0  0  0  0  0  0
  -28.9413  -15.7886   22.4819 H   0  0  0  0  0  0
  -30.5119  -17.8206   22.3569 H   0  0  0  0  0  0
  -28.0913  -18.0822   20.6657 H   0  0  0  0  0  0
  -33.9543  -19.2684   22.0752 H   0  0  0  0  0  0
  -33.0744  -18.7440   20.6673 H   0  0  0  0  0  0
  -32.8172  -17.9438   22.2413 H   0  0  0  0  0  0
  -32.6057  -22.6901   24.8035 H   0  0  0  0  0  0
  -30.9374  -22.6297   25.3541 H   0  0  0  0  0  0
  -31.4352  -23.8303   24.1513 H   0  0  0  0  0  0
  -28.6639  -22.2840   24.4687 H   0  0  0  0  0  0
  -27.8732  -22.5860   22.9493 H   0  0  0  0  0  0
  -29.1368  -23.6763   23.5191 H   0  0  0  0  0  0
  -28.4302  -17.9684   23.7114 H   0  0  0  0  0  0
  -26.9064  -17.7147   22.8624 H   0  0  0  0  0  0
  -27.6976  -19.2783   22.7969 H   0  0  0  0  0  0
  -27.5458  -21.2650   21.2257 H   0  0  0  0  0  0
  -28.4773  -20.4974   19.9915 H   0  0  0  0  0  0
  -27.2688  -23.8735   20.8863 H   0  0  0  0  0  0
  -28.9201  -24.1674   21.4071 H   0  0  0  0  0  0
  -27.8222  -25.0632   18.6957 H   0  0  0  0  0  0
  -29.4644  -25.1395   19.1710 H   0  0  0  0  0  0
  -28.2459  -22.4657   19.1208 H   0  0  0  0  0  0
  -29.7206  -22.6304   19.7477 H   0  0  0  0  0  0
  1 25  1  0  0  0
  1 30  2  0  0  0
  1 88  1  0  0  0
  2  3  1  0  0  0
  2 25  1  0  0  0
  2 90  1  0  0  0
  2 91  1  0  0  0
  3  4  1  0  0  0
  3 92  1  0  0  0
  3 93  1  0  0  0
  4  5  1  0  0  0
  4 94  1  0  0  0
  4 95  1  0  0  0
  5  6  1  0  0  0
  5 26  1  0  0  0
  5 96  1  0  0  0
  6 25  1  0  0  0
  6 97  1  0  0  0
  6 98  1  0  0  0
  7  8  2  0  0  0
  7 26  1  0  0  0
  7 29  1  0  0  0
  8  9  1  0  0  0
  8 22  1  0  0  0
  9 10  1  0  0  0
  9 27  2  0  0  0
 10 11  2  0  0  0
 10 15  1  0  0  0
 11 12  1  0  0  0
 11 99  1  0  0  0
 12 13  2  0  0  0
 12100  1  0  0  0
 13 14  1  0  0  0
 13 31  1  0  0  0
 14 15  2  0  0  0
 14101  1  0  0  0
 15102  1  0  0  0
 16 17  2  0  0  0
 16 21  1  0  0  0
 16 31  1  0  0  0
 17 18  1  0  0  0
 17103  1  0  0  0
 18 19  2  0  0  0
 18104  1  0  0  0
 19 20  1  0  0  0
 19 24  1  0  0  0
 20 21  2  0  0  0
 20105  1  0  0  0
 21 23  1  0  0  0
 22 28  1  0  0  0
 22 32  2  0  0  0
 26 27  1  0  0  0
 28106  1  0  0  0
 28107  1  0  0  0
 29108  1  0  0  0
 29109  1  0  0  0
 33 34  1  0  0  0
 33 66  1  0  0  0
 33 70  2  0  0  0
 34 36  1  0  0  0
 34 59  1  0  0  0
 34110  1  0  0  0
 35 44  2  0  0  0
 35 45  1  0  0  0
 35 68  1  0  0  0
 36 56  1  0  0  0
 36111  1  0  0  0
 37 39  1  0  0  0
 37 47  1  0  0  0
 37 66  1  0  0  0
 37112  1  0  0  0
 38 43  2  0  0  0
 38 46  1  0  0  0
 38 47  1  0  0  0
 39 64  1  0  0  0
 39 67  2  0  0  0
 40 52  1  0  0  0
 40 53  2  0  0  0
 40 58  1  0  0  0
 41113  1  0  0  0
 41114  1  0  0  0
 41115  1  0  0  0
 41 48  1  0  0  0
 42 43  1  0  0  0
 42 66  1  0  0  0
 42116  1  0  0  0
 42117  1  0  0  0
 43 44  1  0  0  0
 44118  1  0  0  0
 45 46  2  0  0  0
 45119  1  0  0  0
 46120  1  0  0  0
 47121  1  0  0  0
 47122  1  0  0  0
 48 56  1  0  0  0
 48 65  1  0  0  0
 48123  1  0  0  0
 49 50  1  0  0  0
 49 53  1  0  0  0
 49 64  1  0  0  0
 49124  1  0  0  0
 50 51  1  0  0  0
 50125  1  0  0  0
 50126  1  0  0  0
 51 52  1  0  0  0
 51127  1  0  0  0
 51128  1  0  0  0
 52129  1  0  0  0
 52130  1  0  0  0
 53 54  1  0  0  0
 54 55  2  0  0  0
 54131  1  0  0  0
 55 57  1  0  0  0
 55132  1  0  0  0
 56 69  2  0  0  0
 57 58  2  0  0  0
 57133  1  0  0  0
 58134  1  0  0  0
 59 60  1  0  0  0
 59 61  1  0  0  0
 59 62  1  0  0  0
 60135  1  0  0  0
 60136  1  0  0  0
 60137  1  0  0  0
 61138  1  0  0  0
 61139  1  0  0  0
 61140  1  0  0  0
 62141  1  0  0  0
 62142  1  0  0  0
 62143  1  0  0  0
 63 65  1  0  0  0
 63144  1  0  0  0
 63145  1  0  0  0
 63146  1  0  0  0
 64147  1  0  0  0
 65148  1  0  0  0
 68 87  1  0  0  0
 71 73  2  0  0  0
 71 74  1  0  0  0
 71149  1  0  0  0
 72 73  1  0  0  0
 72 75  2  0  0  0
 72 79  1  0  0  0
 73 81  1  0  0  0
 74 76  2  0  0  0
 74 82  1  0  0  0
 75 76  1  0  0  0
 75 85  1  0  0  0
 76 83  1  0  0  0
 77 79  1  0  0  0
 77 88  1  0  0  0
 77150  1  0  0  0
 77151  1  0  0  0
 78 80  1  0  0  0
 78 88  1  0  0  0
 78152  1  0  0  0
 78153  1  0  0  0
 79 80  1  0  0  0
 79154  1  0  0  0
 80 84  1  0  0  0
 80155  1  0  0  0
 81156  1  0  0  0
 81157  1  0  0  0
 81158  1  0  0  0
 82159  1  0  0  0
 82160  1  0  0  0
 82161  1  0  0  0
 83162  1  0  0  0
 83163  1  0  0  0
 83164  1  0  0  0
 84165  1  0  0  0
 84166  1  0  0  0
 84167  1  0  0  0
 85 89  1  0  0  0
 85168  1  0  0  0
 85169  1  0  0  0
 86 87  1  0  0  0
 86 89  1  0  0  0
 86170  1  0  0  0
 86171  1  0  0  0
 87172  1  0  0  0
 87173  1  0  0  0
 89174  1  0  0  0
 89175  1  0  0  0
M  CHG  1  89   1
M  ISO  4   1 100  68 101  87 101  88 100
M  END
> <chiral flag>
0

> <version>
0

> <s_m_source_file>
/data/baiqing/PycharmProjects/Reinvent-master-3.2/result/LINK_invent/BTK/process_docking_weight1_custom_sum_contain_oxygen_bond_distance_aromatic_linkinvent_7_9_3/rearranged_h_0159.sdf

> <i_m_source_file_index>
63

> <r_mmod_Potential_Energy-OPLS-2005>
241.851409912109

> <r_mmod_Stretch_Energy-OPLS-2005>
91.6963806152344

> <r_mmod_Bend_Energy-OPLS-2005>
238.846664428711

> <r_mmod_Torsional_Energy-OPLS-2005>
392.043914794922

> <r_mmod_Improper_Torsional_Energy-OPLS-2005>
15.3501663208008

> <r_mmod_Van_der_Waal_Energy-OPLS-2005>
155.921646118164

> <r_mmod_Electrostatic_Energy-OPLS-2005>
-269.793304443359

> <r_mmod_Solvation_Energy-OPLS-2005>
-429.263427734375

> <b_mmod_Minimization_Converged-OPLS-2005>
0

> <r_mmod_RMS_Derivative-OPLS-2005>
2.05530047416687

$$$$
63
                    3D
 Structure written by MMmdl.
172181  0  0  1  0            999 V2000
  -30.6932  -14.5601   20.4947 C   0  0  0  0  0  0
  -30.4122  -12.3415   19.4470 C   0  0  0  0  0  0
  -29.4938  -12.4871   18.2164 C   0  0  0  0  0  0
  -28.0170  -12.3447   18.6326 C   0  0  0  0  0  0
  -27.6480  -13.2229   19.8594 C   0  0  2  0  0  0
  -28.6931  -13.0968   20.9896 C   0  0  0  0  0  0
  -25.2539  -13.8200   20.5712 C   0  0  0  0  0  0
  -24.1807  -13.0454   20.9195 C   0  0  0  0  0  0
  -24.6387  -11.6926   20.8740 C   0  0  0  0  0  0
  -23.9067  -10.4298   21.0407 C   0  0  0  0  0  0
  -24.3612   -9.4215   21.9185 C   0  0  0  0  0  0
  -23.6291   -8.2245   22.0751 C   0  0  0  0  0  0
  -22.4279   -8.0281   21.3542 C   0  0  0  0  0  0
  -21.9912   -9.0258   20.4642 C   0  0  0  0  0  0
  -22.7234  -10.2138   20.3057 C   0  0  0  0  0  0
  -21.6856   -6.0738   22.5282 C   0  0  0  0  0  0
  -21.4012   -6.5643   23.8214 C   0  0  0  0  0  0
  -21.3654   -5.6795   24.9175 C   0  0  0  0  0  0
  -21.6045   -4.3061   24.7229 C   0  0  0  0  0  0
  -21.8818   -3.8155   23.4350 C   0  0  0  0  0  0
  -21.9188   -4.6968   22.3406 C   0  0  0  0  0  0
  -22.7833  -13.5234   21.1868 C   0  0  0  0  0  0
  -22.1661   -4.2154   21.0983 F   0  0  0  0  0  0
  -21.5628   -3.4543   25.7742 F   0  0  0  0  0  0
  -30.0103  -13.3822   20.4098 N   0  0  0  0  0  0
  -26.2967  -12.9395   20.3340 N   0  0  0  0  0  0
  -25.9319  -11.6539   20.5775 N   0  0  0  0  0  0
  -22.0486  -12.8204   22.0424 N   0  0  0  0  0  0
  -25.4297  -15.1918   20.4152 N   0  0  0  0  0  0
  -31.8862  -14.6372   20.1835 O   0  0  0  0  0  0
  -21.6639   -6.8880   21.4243 O   0  0  0  0  0  0
  -22.3507  -14.5545   20.6739 O   0  0  0  0  0  0
  -24.6232  -31.8652   23.2112 C   0  0  0  0  0  0
  -25.9101  -32.4803   23.8415 C   0  0  1  0  0  0
  -27.2047  -27.3549   20.0971 C   0  0  0  0  0  0
  -25.5930  -33.8603   24.2332 N   0  0  0  0  0  0
  -23.4129  -30.4967   21.5535 C   0  0  2  0  0  0
  -24.8530  -28.9685   20.1063 C   0  0  0  0  0  0
  -22.7458  -29.4659   22.4953 C   0  0  0  0  0  0
  -18.0288  -28.1379   22.8498 C   0  0  0  0  0  0
  -24.1484  -36.7299   23.2642 C   0  0  0  0  0  0
  -25.9539  -30.8023   21.3829 C   0  0  0  0  0  0
  -26.0225  -29.4373   20.7190 C   0  0  0  0  0  0
  -27.1998  -28.6377   20.7158 C   0  0  0  0  0  0
  -26.0201  -26.9555   19.4288 C   0  0  0  0  0  0
  -24.8517  -27.7302   19.4556 C   0  0  0  0  0  0
  -23.6219  -29.8450   20.1639 C   0  0  0  0  0  0
  -25.4108  -36.3103   24.0340 C   0  0  1  0  0  0
  -20.5886  -28.3677   23.1285 C   0  0  2  0  0  0
  -20.6774  -26.9403   22.5407 C   0  0  0  0  0  0
  -19.5740  -26.6378   21.5215 C   0  0  0  0  0  0
  -18.1918  -26.7922   22.1626 C   0  0  0  0  0  0
  -19.1543  -28.8850   23.2888 C   0  0  0  0  0  0
  -18.9462  -30.1453   23.8904 C   0  0  0  0  0  0
  -17.6462  -30.6584   24.0573 C   0  0  0  0  0  0
  -25.9049  -34.9462   23.5135 C   0  0  0  0  0  0
  -16.5357  -29.9081   23.6341 C   0  0  0  0  0  0
  -16.7279  -28.6498   23.0363 C   0  0  0  0  0  0
  -26.4498  -31.6603   25.0770 C   0  0  0  0  0  0
  -25.3738  -31.3712   26.1504 C   0  0  0  0  0  0
  -27.0356  -30.3036   24.6208 C   0  0  0  0  0  0
  -27.6071  -32.4340   25.7514 C   0  0  0  0  0  0
  -27.5579  -37.1802   24.8469 C   0  0  0  0  0  0
  -21.4178  -29.3049   22.3689 N   0  0  0  0  0  0
  -26.4292  -37.3787   23.9416 N   0  0  0  0  0  0
  -24.6821  -31.0700   22.1055 N   0  0  0  0  0  0
  -23.4203  -28.8186   23.3007 O   0  0  0  0  0  0
  -28.3074  -26.4970   20.1799 O   0  0  0  0  0  0
  -26.5603  -34.8914   22.4689 O   0  0  0  0  0  0
  -23.5408  -32.1452   23.7453 O   0  0  0  0  0  0
  -30.0224  -21.6032   21.6882 C   0  0  0  0  0  0
  -28.4385  -22.5973   20.1633 C   0  0  0  0  0  0
  -28.9736  -21.4234   20.7668 C   0  0  0  0  0  0
  -30.5112  -22.8959   22.0013 C   0  0  0  0  0  0
  -28.8721  -23.9176   20.4854 C   0  0  0  0  0  0
  -29.9435  -24.0610   21.4061 C   0  0  0  0  0  0
  -28.9328  -17.7237   19.3928 C   0  0  0  0  0  0
  -29.3570  -17.9029   21.8033 C   0  0  0  0  0  0
  -29.8674  -16.4875   19.3388 C   0  0  0  0  0  0
  -30.2689  -16.6356   21.7161 C   0  0  0  0  0  0
  -29.3140  -18.7420   20.4939 C   0  0  0  0  0  0
  -31.6411  -22.9994   23.0127 C   0  0  0  0  0  0
  -30.4568  -25.4504   21.7671 C   0  0  0  0  0  0
  -25.9151  -20.7832   20.9895 C   0  0  0  0  0  0
  -28.0628  -25.0860   19.8521 C   0  0  0  0  0  0
  -27.0438  -19.7723   21.2502 C   0  0  0  0  0  0
  -28.3608  -20.0181   20.4702 C   0  0  1  0  0  0
  -29.9561  -15.7124   20.5986 N   0  0  0  0  0  0
  -31.4601  -12.4207   19.1516 H   0  0  0  0  0  0
  -30.3003  -11.3528   19.8941 H   0  0  0  0  0  0
  -29.7433  -11.7343   17.4672 H   0  0  0  0  0  0
  -29.6539  -13.4560   17.7418 H   0  0  0  0  0  0
  -27.8448  -11.2937   18.8679 H   0  0  0  0  0  0
  -27.3623  -12.5774   17.7922 H   0  0  0  0  0  0
  -27.6626  -14.2563   19.5125 H   0  0  0  0  0  0
  -28.6810  -12.0949   21.4206 H   0  0  0  0  0  0
  -28.4637  -13.7867   21.8038 H   0  0  0  0  0  0
  -25.2758   -9.5692   22.4758 H   0  0  0  0  0  0
  -24.0007   -7.4638   22.7466 H   0  0  0  0  0  0
  -21.0847   -8.8767   19.8943 H   0  0  0  0  0  0
  -22.3693  -10.9674   19.6169 H   0  0  0  0  0  0
  -21.2004   -7.6150   23.9717 H   0  0  0  0  0  0
  -21.1480   -6.0526   25.9074 H   0  0  0  0  0  0
  -22.0599   -2.7615   23.2851 H   0  0  0  0  0  0
  -22.4101  -11.9846   22.4773 H   0  0  0  0  0  0
  -21.1118  -13.1227   22.2672 H   0  0  0  0  0  0
  -24.6746  -15.8575   20.5347 H   0  0  0  0  0  0
  -26.3025  -15.6247   20.1416 H   0  0  0  0  0  0
  -26.7160  -32.5478   23.1158 H   0  0  0  0  0  0
  -25.0109  -33.9761   25.0497 H   0  0  0  0  0  0
  -22.7053  -31.3173   21.4203 H   0  0  0  0  0  0
  -23.3751  -35.9623   23.3318 H   0  0  0  0  0  0
  -24.3582  -36.8907   22.2053 H   0  0  0  0  0  0
  -23.7222  -37.6497   23.6657 H   0  0  0  0  0  0
  -26.0901  -31.5685   20.6184 H   0  0  0  0  0  0
  -26.8333  -30.8410   22.0144 H   0  0  0  0  0  0
  -28.0918  -28.9832   21.2203 H   0  0  0  0  0  0
  -25.9524  -26.0307   18.8773 H   0  0  0  0  0  0
  -23.9606  -27.3732   18.9577 H   0  0  0  0  0  0
  -23.7375  -30.6295   19.4150 H   0  0  0  0  0  0
  -22.7404  -29.2774   19.8600 H   0  0  0  0  0  0
  -25.1277  -36.1967   25.0827 H   0  0  0  0  0  0
  -20.9989  -28.3257   24.1402 H   0  0  0  0  0  0
  -20.5682  -26.2296   23.3613 H   0  0  0  0  0  0
  -21.6638  -26.7433   22.1190 H   0  0  0  0  0  0
  -19.6900  -25.6291   21.1240 H   0  0  0  0  0  0
  -19.6669  -27.3202   20.6753 H   0  0  0  0  0  0
  -17.4192  -26.6706   21.4022 H   0  0  0  0  0  0
  -18.0305  -26.0047   22.9007 H   0  0  0  0  0  0
  -19.7940  -30.7271   24.2263 H   0  0  0  0  0  0
  -17.5016  -31.6260   24.5169 H   0  0  0  0  0  0
  -15.5354  -30.2978   23.7650 H   0  0  0  0  0  0
  -15.8686  -28.0813   22.7071 H   0  0  0  0  0  0
  -24.5931  -30.7030   25.7848 H   0  0  0  0  0  0
  -24.8899  -32.2856   26.4943 H   0  0  0  0  0  0
  -25.8072  -30.8901   27.0279 H   0  0  0  0  0  0
  -26.2935  -29.6769   24.1244 H   0  0  0  0  0  0
  -27.4091  -29.7300   25.4701 H   0  0  0  0  0  0
  -27.8786  -30.4357   23.9419 H   0  0  0  0  0  0
  -27.2712  -33.3659   26.2071 H   0  0  0  0  0  0
  -28.3871  -32.6868   25.0319 H   0  0  0  0  0  0
  -28.0748  -31.8478   26.5436 H   0  0  0  0  0  0
  -28.2599  -38.0096   24.7527 H   0  0  0  0  0  0
  -28.1070  -36.2630   24.6286 H   0  0  0  0  0  0
  -27.2303  -37.1443   25.8874 H   0  0  0  0  0  0
  -20.9351  -29.8810   21.6931 H   0  0  0  0  0  0
  -26.0183  -38.2865   24.1417 H   0  0  0  0  0  0
  -30.4473  -20.7381   22.1778 H   0  0  0  0  0  0
  -27.6184  -22.4859   19.4679 H   0  0  0  0  0  0
  -27.9058  -17.3872   19.5389 H   0  0  0  0  0  0
  -28.9516  -18.2144   18.4186 H   0  0  0  0  0  0
  -29.6893  -18.5316   22.6303 H   0  0  0  0  0  0
  -28.3527  -17.5711   22.0697 H   0  0  0  0  0  0
  -30.8671  -16.8156   19.0460 H   0  0  0  0  0  0
  -29.5208  -15.8310   18.5380 H   0  0  0  0  0  0
  -30.1963  -16.0846   22.6551 H   0  0  0  0  0  0
  -31.3106  -16.9520   21.6328 H   0  0  0  0  0  0
  -30.3253  -19.0830   20.2665 H   0  0  0  0  0  0
  -31.8916  -22.0290   23.4406 H   0  0  0  0  0  0
  -31.3591  -23.6544   23.8376 H   0  0  0  0  0  0
  -32.5418  -23.3954   22.5434 H   0  0  0  0  0  0
  -31.3866  -25.4451   22.3312 H   0  0  0  0  0  0
  -29.7134  -25.9805   22.3629 H   0  0  0  0  0  0
  -30.6524  -26.0296   20.8654 H   0  0  0  0  0  0
  -24.9882  -20.4544   21.4603 H   0  0  0  0  0  0
  -25.7173  -20.8941   19.9228 H   0  0  0  0  0  0
  -26.1494  -21.7666   21.3966 H   0  0  0  0  0  0
  -27.0565  -24.8128   20.1697 H   0  0  0  0  0  0
  -28.0985  -24.9755   18.7683 H   0  0  0  0  0  0
  -26.6593  -18.7854   20.9919 H   0  0  0  0  0  0
  -27.2519  -19.7450   22.3201 H   0  0  0  0  0  0
  -28.0649  -20.1151   19.4244 H   0  0  0  0  0  0
  1 25  1  0  0  0
  1 30  2  0  0  0
  1 88  1  0  0  0
  2  3  1  0  0  0
  2 25  1  0  0  0
  2 89  1  0  0  0
  2 90  1  0  0  0
  3  4  1  0  0  0
  3 91  1  0  0  0
  3 92  1  0  0  0
  4  5  1  0  0  0
  4 93  1  0  0  0
  4 94  1  0  0  0
  5  6  1  0  0  0
  5 26  1  0  0  0
  5 95  1  0  0  0
  6 25  1  0  0  0
  6 96  1  0  0  0
  6 97  1  0  0  0
  7  8  2  0  0  0
  7 26  1  0  0  0
  7 29  1  0  0  0
  8  9  1  0  0  0
  8 22  1  0  0  0
  9 10  1  0  0  0
  9 27  2  0  0  0
 10 11  2  0  0  0
 10 15  1  0  0  0
 11 12  1  0  0  0
 11 98  1  0  0  0
 12 13  2  0  0  0
 12 99  1  0  0  0
 13 14  1  0  0  0
 13 31  1  0  0  0
 14 15  2  0  0  0
 14100  1  0  0  0
 15101  1  0  0  0
 16 17  2  0  0  0
 16 21  1  0  0  0
 16 31  1  0  0  0
 17 18  1  0  0  0
 17102  1  0  0  0
 18 19  2  0  0  0
 18103  1  0  0  0
 19 20  1  0  0  0
 19 24  1  0  0  0
 20 21  2  0  0  0
 20104  1  0  0  0
 21 23  1  0  0  0
 22 28  1  0  0  0
 22 32  2  0  0  0
 26 27  1  0  0  0
 28105  1  0  0  0
 28106  1  0  0  0
 29107  1  0  0  0
 29108  1  0  0  0
 33 34  1  0  0  0
 33 66  1  0  0  0
 33 70  2  0  0  0
 34 36  1  0  0  0
 34 59  1  0  0  0
 34109  1  0  0  0
 35 44  2  0  0  0
 35 45  1  0  0  0
 35 68  1  0  0  0
 36 56  1  0  0  0
 36110  1  0  0  0
 37 39  1  0  0  0
 37 47  1  0  0  0
 37 66  1  0  0  0
 37111  1  0  0  0
 38 43  2  0  0  0
 38 46  1  0  0  0
 38 47  1  0  0  0
 39 64  1  0  0  0
 39 67  2  0  0  0
 40 52  1  0  0  0
 40 53  2  0  0  0
 40 58  1  0  0  0
 41112  1  0  0  0
 41113  1  0  0  0
 41114  1  0  0  0
 41 48  1  0  0  0
 42 43  1  0  0  0
 42 66  1  0  0  0
 42115  1  0  0  0
 42116  1  0  0  0
 43 44  1  0  0  0
 44117  1  0  0  0
 45 46  2  0  0  0
 45118  1  0  0  0
 46119  1  0  0  0
 47120  1  0  0  0
 47121  1  0  0  0
 48 56  1  0  0  0
 48 65  1  0  0  0
 48122  1  0  0  0
 49 50  1  0  0  0
 49 53  1  0  0  0
 49 64  1  0  0  0
 49123  1  0  0  0
 50 51  1  0  0  0
 50124  1  0  0  0
 50125  1  0  0  0
 51 52  1  0  0  0
 51126  1  0  0  0
 51127  1  0  0  0
 52128  1  0  0  0
 52129  1  0  0  0
 53 54  1  0  0  0
 54 55  2  0  0  0
 54130  1  0  0  0
 55 57  1  0  0  0
 55131  1  0  0  0
 56 69  2  0  0  0
 57 58  2  0  0  0
 57132  1  0  0  0
 58133  1  0  0  0
 59 60  1  0  0  0
 59 61  1  0  0  0
 59 62  1  0  0  0
 60134  1  0  0  0
 60135  1  0  0  0
 60136  1  0  0  0
 61137  1  0  0  0
 61138  1  0  0  0
 61139  1  0  0  0
 62140  1  0  0  0
 62141  1  0  0  0
 62142  1  0  0  0
 63 65  1  0  0  0
 63143  1  0  0  0
 63144  1  0  0  0
 63145  1  0  0  0
 64146  1  0  0  0
 65147  1  0  0  0
 68 85  1  0  0  0
 71 73  2  0  0  0
 71 74  1  0  0  0
 71148  1  0  0  0
 72 73  1  0  0  0
 72 75  2  0  0  0
 72149  1  0  0  0
 73 87  1  0  0  0
 74 76  2  0  0  0
 74 82  1  0  0  0
 75 76  1  0  0  0
 75 85  1  0  0  0
 76 83  1  0  0  0
 77 79  1  0  0  0
 77150  1  0  0  0
 77151  1  0  0  0
 77 81  1  0  0  0
 78 80  1  0  0  0
 78 81  1  0  0  0
 78152  1  0  0  0
 78153  1  0  0  0
 79 88  1  0  0  0
 79154  1  0  0  0
 79155  1  0  0  0
 80 88  1  0  0  0
 80156  1  0  0  0
 80157  1  0  0  0
 81 87  1  0  0  0
 81158  1  0  0  0
 82159  1  0  0  0
 82160  1  0  0  0
 82161  1  0  0  0
 83162  1  0  0  0
 83163  1  0  0  0
 83164  1  0  0  0
 84 86  1  0  0  0
 84165  1  0  0  0
 84166  1  0  0  0
 84167  1  0  0  0
 85168  1  0  0  0
 85169  1  0  0  0
 86170  1  0  0  0
 86171  1  0  0  0
 86 87  1  0  0  0
 87172  1  0  0  0
M  ISO  4   1 100  68 101  85 101  88 100
M  END
> <chiral flag>
0

> <version>
0

> <s_m_source_file>
/data/baiqing/PycharmProjects/Reinvent-master-3.2/result/LINK_invent/BTK/process_docking_weight1_custom_sum_contain_oxygen_bond_distance_aromatic_linkinvent_7_9_3/rearranged_h_0159.sdf

> <i_m_source_file_index>
64

> <r_mmod_Potential_Energy-OPLS-2005>
308.842834472656

> <r_mmod_Stretch_Energy-OPLS-2005>
64.5267791748047

> <r_mmod_Bend_Energy-OPLS-2005>
147.619003295898

> <r_mmod_Torsional_Energy-OPLS-2005>
342.248107910156

> <r_mmod_Improper_Torsional_Energy-OPLS-2005>
13.624981880188

> <r_mmod_Van_der_Waal_Energy-OPLS-2005>
162.53742980957

> <r_mmod_Electrostatic_Energy-OPLS-2005>
-281.550384521484

> <r_mmod_Solvation_Energy-OPLS-2005>
-180.69548034668

> <b_mmod_Minimization_Converged-OPLS-2005>
0

> <r_mmod_RMS_Derivative-OPLS-2005>
1.47457730770111

$$$$
64
                    3D
 Structure written by MMmdl.
174184  0  0  1  0            999 V2000
  -30.7054  -14.4499   20.5569 C   0  0  0  0  0  0
  -30.4026  -12.2838   19.4385 C   0  0  0  0  0  0
  -29.4936  -12.5045   18.2107 C   0  0  0  0  0  0
  -28.0083  -12.3745   18.6016 C   0  0  0  0  0  0
  -27.6502  -13.2127   19.8558 C   0  0  2  0  0  0
  -28.6797  -13.0251   20.9873 C   0  0  0  0  0  0
  -25.2536  -13.8193   20.5631 C   0  0  0  0  0  0
  -24.1785  -13.0459   20.9137 C   0  0  0  0  0  0
  -24.6351  -11.6916   20.8689 C   0  0  0  0  0  0
  -23.9025  -10.4298   21.0405 C   0  0  0  0  0  0
  -24.3598   -9.4220   21.9182 C   0  0  0  0  0  0
  -23.6301   -8.2239   22.0758 C   0  0  0  0  0  0
  -22.4287   -8.0270   21.3542 C   0  0  0  0  0  0
  -21.9894   -9.0235   20.4636 C   0  0  0  0  0  0
  -22.7203  -10.2120   20.3046 C   0  0  0  0  0  0
  -21.6838   -6.0731   22.5286 C   0  0  0  0  0  0
  -21.4001   -6.5634   23.8225 C   0  0  0  0  0  0
  -21.3676   -5.6782   24.9185 C   0  0  0  0  0  0
  -21.6060   -4.3053   24.7234 C   0  0  0  0  0  0
  -21.8820   -3.8140   23.4354 C   0  0  0  0  0  0
  -21.9190   -4.6954   22.3408 C   0  0  0  0  0  0
  -22.7807  -13.5246   21.1859 C   0  0  0  0  0  0
  -22.1646   -4.2130   21.0982 F   0  0  0  0  0  0
  -21.5655   -3.4541   25.7754 F   0  0  0  0  0  0
  -30.0208  -13.2801   20.4497 N   0  0  0  0  0  0
  -26.2941  -12.9366   20.3239 N   0  0  0  0  0  0
  -25.9277  -11.6513   20.5675 N   0  0  0  0  0  0
  -22.0477  -12.8223   22.0433 N   0  0  0  0  0  0
  -25.4290  -15.1910   20.4095 N   0  0  0  0  0  0
  -31.8519  -14.5954   20.1254 O   0  0  0  0  0  0
  -21.6644   -6.8869   21.4248 O   0  0  0  0  0  0
  -22.3491  -14.5578   20.6774 O   0  0  0  0  0  0
  -24.6102  -31.8668   23.2099 C   0  0  0  0  0  0
  -25.9016  -32.4813   23.8366 C   0  0  1  0  0  0
  -27.2243  -27.4556   20.1009 C   0  0  0  0  0  0
  -25.5916  -33.8620   24.2304 N   0  0  0  0  0  0
  -23.3943  -30.4930   21.5452 C   0  0  2  0  0  0
  -24.8431  -28.9675   20.1036 C   0  0  0  0  0  0
  -22.7379  -29.4661   22.4948 C   0  0  0  0  0  0
  -18.0285  -28.1365   22.8490 C   0  0  0  0  0  0
  -24.1487  -36.7318   23.2624 C   0  0  0  0  0  0
  -25.9200  -30.8429   21.3570 C   0  0  0  0  0  0
  -25.9998  -29.4792   20.7054 C   0  0  0  0  0  0
  -27.1949  -28.7305   20.7028 C   0  0  0  0  0  0
  -26.0594  -26.9681   19.4665 C   0  0  0  0  0  0
  -24.8674  -27.7091   19.4776 C   0  0  0  0  0  0
  -23.5983  -29.8235   20.1591 C   0  0  0  0  0  0
  -25.4120  -36.3115   24.0309 C   0  0  1  0  0  0
  -20.5868  -28.3627   23.1334 C   0  0  2  0  0  0
  -20.6770  -26.9366   22.5413 C   0  0  0  0  0  0
  -19.5751  -26.6378   21.5201 C   0  0  0  0  0  0
  -18.1934  -26.7919   22.1615 C   0  0  0  0  0  0
  -19.1533  -28.8825   23.2903 C   0  0  0  0  0  0
  -18.9445  -30.1445   23.8884 C   0  0  0  0  0  0
  -17.6439  -30.6562   24.0574 C   0  0  0  0  0  0
  -25.9045  -34.9477   23.5094 C   0  0  0  0  0  0
  -16.5329  -29.9059   23.6336 C   0  0  0  0  0  0
  -16.7267  -28.6496   23.0335 C   0  0  0  0  0  0
  -26.4505  -31.6564   25.0647 C   0  0  0  0  0  0
  -25.3800  -31.3551   26.1373 C   0  0  0  0  0  0
  -27.0298  -30.3013   24.5963 C   0  0  0  0  0  0
  -27.6115  -32.4211   25.7411 C   0  0  0  0  0  0
  -27.5581  -37.1819   24.8463 C   0  0  0  0  0  0
  -21.4113  -29.2994   22.3730 N   0  0  0  0  0  0
  -26.4308  -37.3803   23.9388 N   0  0  0  0  0  0
  -24.6599  -31.0802   22.0966 N   0  0  0  0  0  0
  -23.4165  -28.8200   23.2979 O   0  0  0  0  0  0
  -28.3557  -26.6794   20.1815 O   0  0  0  0  0  0
  -26.5579  -34.8917   22.4627 O   0  0  0  0  0  0
  -23.5317  -32.1397   23.7529 O   0  0  0  0  0  0
  -29.6017  -16.5342   19.8260 C   0  0  0  0  0  0
  -29.9604  -15.7132   20.9072 C   0  0  0  0  0  0
  -28.8344  -18.3249   21.3170 C   0  0  0  0  0  0
  -29.0784  -17.8260   20.0035 C   0  0  0  0  0  0
  -29.7482  -16.1887   22.2297 C   0  0  0  0  0  0
  -29.2064  -17.4979   22.4289 C   0  0  0  0  0  0
  -27.9232  -24.1012   22.8383 C   0  0  0  0  0  0
  -27.6770  -25.5005   22.2550 C   0  0  0  0  0  0
  -27.0915  -20.2952   20.6967 C   0  0  0  0  0  0
  -29.3376  -24.4946   20.8688 C   0  0  0  0  0  0
  -27.1046  -21.7774   21.0827 C   0  0  0  0  0  0
  -29.2616  -20.8896   21.6366 C   0  0  0  0  0  0
  -28.2351  -19.7409   21.5657 C   0  0  2  0  0  0
  -28.9596  -23.4093   21.9056 C   0  0  2  0  0  0
  -28.1114  -25.3990   20.7847 C   0  0  2  0  0  0
  -28.8822  -18.6235   18.7234 C   0  0  0  0  0  0
  -30.1257  -15.3193   23.4318 C   0  0  0  0  0  0
  -29.0639  -18.0177   23.8668 C   0  0  0  0  0  0
  -28.5423  -22.1281   21.2368 N   0  3  2  0  0  0
  -31.4533  -12.3544   19.1527 H   0  0  0  0  0  0
  -30.2672  -11.2771   19.8376 H   0  0  0  0  0  0
  -29.7423  -11.7876   17.4275 H   0  0  0  0  0  0
  -29.6742  -13.4955   17.7904 H   0  0  0  0  0  0
  -27.8032  -11.3196   18.7868 H   0  0  0  0  0  0
  -27.3732  -12.6664   17.7645 H   0  0  0  0  0  0
  -27.6848  -14.2560   19.5429 H   0  0  0  0  0  0
  -28.6328  -12.0129   21.3902 H   0  0  0  0  0  0
  -28.4362  -13.6896   21.8155 H   0  0  0  0  0  0
  -25.2756   -9.5708   22.4739 H   0  0  0  0  0  0
  -24.0023   -7.4639   22.7483 H   0  0  0  0  0  0
  -21.0823   -8.8730   19.8951 H   0  0  0  0  0  0
  -22.3667  -10.9646   19.6134 H   0  0  0  0  0  0
  -21.1967   -7.6136   23.9720 H   0  0  0  0  0  0
  -21.1514   -6.0515   25.9093 H   0  0  0  0  0  0
  -22.0591   -2.7598   23.2858 H   0  0  0  0  0  0
  -22.4059  -11.9795   22.4689 H   0  0  0  0  0  0
  -21.1128  -13.1258   22.2749 H   0  0  0  0  0  0
  -24.6756  -15.8580   20.5410 H   0  0  0  0  0  0
  -26.3138  -15.6290   20.1859 H   0  0  0  0  0  0
  -26.7049  -32.5547   23.1116 H   0  0  0  0  0  0
  -25.0179  -33.9781   25.0519 H   0  0  0  0  0  0
  -22.6788  -31.3054   21.4068 H   0  0  0  0  0  0
  -23.3761  -35.9637   23.3295 H   0  0  0  0  0  0
  -24.3601  -36.8946   22.2042 H   0  0  0  0  0  0
  -23.7236  -37.6516   23.6648 H   0  0  0  0  0  0
  -26.0264  -31.6092   20.5887 H   0  0  0  0  0  0
  -26.8094  -30.8975   21.9716 H   0  0  0  0  0  0
  -28.0824  -29.1099   21.1891 H   0  0  0  0  0  0
  -26.0629  -26.0128   18.9666 H   0  0  0  0  0  0
  -23.9866  -27.3125   18.9933 H   0  0  0  0  0  0
  -23.6922  -30.5914   19.3910 H   0  0  0  0  0  0
  -22.7293  -29.2281   19.8721 H   0  0  0  0  0  0
  -25.1335  -36.1976   25.0817 H   0  0  0  0  0  0
  -20.9969  -28.3169   24.1452 H   0  0  0  0  0  0
  -20.5697  -26.2195   23.3575 H   0  0  0  0  0  0
  -21.6638  -26.7412   22.1201 H   0  0  0  0  0  0
  -19.6869  -25.6300   21.1213 H   0  0  0  0  0  0
  -19.6721  -27.3211   20.6764 H   0  0  0  0  0  0
  -17.4209  -26.6675   21.4008 H   0  0  0  0  0  0
  -18.0324  -26.0052   22.9011 H   0  0  0  0  0  0
  -19.7923  -30.7306   24.2181 H   0  0  0  0  0  0
  -17.4989  -31.6249   24.5174 H   0  0  0  0  0  0
  -15.5336  -30.2951   23.7681 H   0  0  0  0  0  0
  -15.8667  -28.0839   22.6991 H   0  0  0  0  0  0
  -24.6083  -30.6794   25.7678 H   0  0  0  0  0  0
  -24.8870  -32.2622   26.4848 H   0  0  0  0  0  0
  -25.8214  -30.8724   27.0091 H   0  0  0  0  0  0
  -26.2763  -29.6773   24.1140 H   0  0  0  0  0  0
  -27.4210  -29.7282   25.4384 H   0  0  0  0  0  0
  -27.8564  -30.4350   23.8978 H   0  0  0  0  0  0
  -27.2819  -33.3544   26.1982 H   0  0  0  0  0  0
  -28.3960  -32.6666   25.0233 H   0  0  0  0  0  0
  -28.0712  -31.8261   26.5321 H   0  0  0  0  0  0
  -28.2612  -38.0115   24.7567 H   0  0  0  0  0  0
  -28.1083  -36.2658   24.6273 H   0  0  0  0  0  0
  -27.2287  -37.1445   25.8863 H   0  0  0  0  0  0
  -20.9178  -29.8685   21.6998 H   0  0  0  0  0  0
  -26.0201  -38.2869   24.1423 H   0  0  0  0  0  0
  -29.7913  -16.1703   18.8249 H   0  0  0  0  0  0
  -26.9673  -23.5985   22.9410 H   0  0  0  0  0  0
  -28.3065  -24.1757   23.8557 H   0  0  0  0  0  0
  -28.2985  -26.2302   22.7769 H   0  0  0  0  0  0
  -26.6412  -25.8250   22.3610 H   0  0  0  0  0  0
  -27.2571  -20.2557   19.6299 H   0  0  0  0  0  0
  -26.1344  -19.8162   20.8986 H   0  0  0  0  0  0
  -29.6358  -24.1014   19.8964 H   0  0  0  0  0  0
  -30.1755  -25.0798   21.2475 H   0  0  0  0  0  0
  -26.5481  -21.8438   22.0134 H   0  0  0  0  0  0
  -26.6058  -22.4058   20.3442 H   0  0  0  0  0  0
  -30.0826  -20.7285   20.9393 H   0  0  0  0  0  0
  -29.6888  -20.9523   22.6370 H   0  0  0  0  0  0
  -27.7531  -19.7086   22.5415 H   0  0  0  0  0  0
  -29.8592  -23.2039   22.4915 H   0  0  0  0  0  0
  -27.3602  -24.8434   20.2219 H   0  0  0  0  0  0
  -29.4745  -18.2094   17.9061 H   0  0  0  0  0  0
  -29.2091  -19.6563   18.8314 H   0  0  0  0  0  0
  -27.8440  -18.5915   18.3930 H   0  0  0  0  0  0
  -30.2459  -14.2642   23.1909 H   0  0  0  0  0  0
  -29.3510  -15.3627   24.1991 H   0  0  0  0  0  0
  -31.0603  -15.6610   23.8792 H   0  0  0  0  0  0
  -28.0599  -17.8236   24.2451 H   0  0  0  0  0  0
  -29.2563  -19.0841   23.9508 H   0  0  0  0  0  0
  -29.7763  -17.5688   24.5540 H   0  0  0  0  0  0
  -28.8626  -22.2543   20.2873 H   0  0  0  0  0  0
  1 25  1  0  0  0
  1 30  2  0  0  0
  1 72  1  0  0  0
  2  3  1  0  0  0
  2 25  1  0  0  0
  2 90  1  0  0  0
  2 91  1  0  0  0
  3  4  1  0  0  0
  3 92  1  0  0  0
  3 93  1  0  0  0
  4  5  1  0  0  0
  4 94  1  0  0  0
  4 95  1  0  0  0
  5  6  1  0  0  0
  5 26  1  0  0  0
  5 96  1  0  0  0
  6 25  1  0  0  0
  6 97  1  0  0  0
  6 98  1  0  0  0
  7  8  2  0  0  0
  7 26  1  0  0  0
  7 29  1  0  0  0
  8  9  1  0  0  0
  8 22  1  0  0  0
  9 10  1  0  0  0
  9 27  2  0  0  0
 10 11  2  0  0  0
 10 15  1  0  0  0
 11 12  1  0  0  0
 11 99  1  0  0  0
 12 13  2  0  0  0
 12100  1  0  0  0
 13 14  1  0  0  0
 13 31  1  0  0  0
 14 15  2  0  0  0
 14101  1  0  0  0
 15102  1  0  0  0
 16 17  2  0  0  0
 16 21  1  0  0  0
 16 31  1  0  0  0
 17 18  1  0  0  0
 17103  1  0  0  0
 18 19  2  0  0  0
 18104  1  0  0  0
 19 20  1  0  0  0
 19 24  1  0  0  0
 20 21  2  0  0  0
 20105  1  0  0  0
 21 23  1  0  0  0
 22 28  1  0  0  0
 22 32  2  0  0  0
 26 27  1  0  0  0
 28106  1  0  0  0
 28107  1  0  0  0
 29108  1  0  0  0
 29109  1  0  0  0
 33 34  1  0  0  0
 33 66  1  0  0  0
 33 70  2  0  0  0
 34 36  1  0  0  0
 34 59  1  0  0  0
 34110  1  0  0  0
 35 44  2  0  0  0
 35 45  1  0  0  0
 35 68  1  0  0  0
 36 56  1  0  0  0
 36111  1  0  0  0
 37 39  1  0  0  0
 37 47  1  0  0  0
 37 66  1  0  0  0
 37112  1  0  0  0
 38 43  2  0  0  0
 38 46  1  0  0  0
 38 47  1  0  0  0
 39 64  1  0  0  0
 39 67  2  0  0  0
 40 52  1  0  0  0
 40 53  2  0  0  0
 40 58  1  0  0  0
 41113  1  0  0  0
 41114  1  0  0  0
 41115  1  0  0  0
 41 48  1  0  0  0
 42 43  1  0  0  0
 42 66  1  0  0  0
 42116  1  0  0  0
 42117  1  0  0  0
 43 44  1  0  0  0
 44118  1  0  0  0
 45 46  2  0  0  0
 45119  1  0  0  0
 46120  1  0  0  0
 47121  1  0  0  0
 47122  1  0  0  0
 48 56  1  0  0  0
 48 65  1  0  0  0
 48123  1  0  0  0
 49 50  1  0  0  0
 49 53  1  0  0  0
 49 64  1  0  0  0
 49124  1  0  0  0
 50 51  1  0  0  0
 50125  1  0  0  0
 50126  1  0  0  0
 51 52  1  0  0  0
 51127  1  0  0  0
 51128  1  0  0  0
 52129  1  0  0  0
 52130  1  0  0  0
 53 54  1  0  0  0
 54 55  2  0  0  0
 54131  1  0  0  0
 55 57  1  0  0  0
 55132  1  0  0  0
 56 69  2  0  0  0
 57 58  2  0  0  0
 57133  1  0  0  0
 58134  1  0  0  0
 59 60  1  0  0  0
 59 61  1  0  0  0
 59 62  1  0  0  0
 60135  1  0  0  0
 60136  1  0  0  0
 60137  1  0  0  0
 61138  1  0  0  0
 61139  1  0  0  0
 61140  1  0  0  0
 62141  1  0  0  0
 62142  1  0  0  0
 62143  1  0  0  0
 63 65  1  0  0  0
 63144  1  0  0  0
 63145  1  0  0  0
 63146  1  0  0  0
 64147  1  0  0  0
 65148  1  0  0  0
 68 85  1  0  0  0
 71 72  2  0  0  0
 71 74  1  0  0  0
 71149  1  0  0  0
 72 75  1  0  0  0
 73 74  2  0  0  0
 73 76  1  0  0  0
 73 83  1  0  0  0
 74 86  1  0  0  0
 75 76  2  0  0  0
 75 87  1  0  0  0
 76 88  1  0  0  0
 77 78  1  0  0  0
 77150  1  0  0  0
 77151  1  0  0  0
 77 84  1  0  0  0
 78 85  1  0  0  0
 78152  1  0  0  0
 78153  1  0  0  0
 79 81  1  0  0  0
 79 83  1  0  0  0
 79154  1  0  0  0
 79155  1  0  0  0
 80 84  1  0  0  0
 80 85  1  0  0  0
 80156  1  0  0  0
 80157  1  0  0  0
 81158  1  0  0  0
 81159  1  0  0  0
 81 89  1  0  0  0
 82 83  1  0  0  0
 82 89  1  0  0  0
 82160  1  0  0  0
 82161  1  0  0  0
 83162  1  0  0  0
 84 89  1  0  0  0
 84163  1  0  0  0
 85164  1  0  0  0
 86165  1  0  0  0
 86166  1  0  0  0
 86167  1  0  0  0
 87168  1  0  0  0
 87169  1  0  0  0
 87170  1  0  0  0
 88171  1  0  0  0
 88172  1  0  0  0
 88173  1  0  0  0
 89174  1  0  0  0
M  CHG  1  89   1
M  ISO  4   1 100  68 101  72 100  85 101
M  END
> <chiral flag>
0

> <version>
0

> <s_m_source_file>
/data/baiqing/PycharmProjects/Reinvent-master-3.2/result/LINK_invent/BTK/process_docking_weight1_custom_sum_contain_oxygen_bond_distance_aromatic_linkinvent_7_9_3/rearranged_h_0159.sdf

> <i_m_source_file_index>
65

> <r_mmod_Potential_Energy-OPLS-2005>
148.390182495117

> <r_mmod_Stretch_Energy-OPLS-2005>
45.4897537231445

> <r_mmod_Bend_Energy-OPLS-2005>
186.374496459961

> <r_mmod_Torsional_Energy-OPLS-2005>
354.871429443359

> <r_mmod_Improper_Torsional_Energy-OPLS-2005>
8.07469081878662

> <r_mmod_Van_der_Waal_Energy-OPLS-2005>
162.354858398438

> <r_mmod_Electrostatic_Energy-OPLS-2005>
-211.58235168457

> <r_mmod_Solvation_Energy-OPLS-2005>
-412.772857666016

> <b_mmod_Minimization_Converged-OPLS-2005>
0

> <r_mmod_RMS_Derivative-OPLS-2005>
4.73055028915405

$$$$
65
                    3D
 Structure written by MMmdl.
161170  0  0  1  0            999 V2000
  -30.6457  -14.6286   20.4190 C   0  0  0  0  0  0
  -30.4260  -12.3629   19.4507 C   0  0  0  0  0  0
  -29.4948  -12.4309   18.2220 C   0  0  0  0  0  0
  -28.0144  -12.3127   18.6469 C   0  0  0  0  0  0
  -27.6373  -13.2052   19.8606 C   0  0  2  0  0  0
  -28.6958  -13.1195   20.9811 C   0  0  0  0  0  0
  -25.2504  -13.8154   20.5750 C   0  0  0  0  0  0
  -24.1760  -13.0428   20.9245 C   0  0  0  0  0  0
  -24.6332  -11.6896   20.8799 C   0  0  0  0  0  0
  -23.9023  -10.4279   21.0442 C   0  0  0  0  0  0
  -24.3595   -9.4179   21.9205 C   0  0  0  0  0  0
  -23.6263   -8.2225   22.0747 C   0  0  0  0  0  0
  -22.4234   -8.0273   21.3550 C   0  0  0  0  0  0
  -21.9881   -9.0255   20.4646 C   0  0  0  0  0  0
  -22.7215  -10.2124   20.3069 C   0  0  0  0  0  0
  -21.6830   -6.0722   22.5280 C   0  0  0  0  0  0
  -21.3996   -6.5628   23.8198 C   0  0  0  0  0  0
  -21.3644   -5.6783   24.9173 C   0  0  0  0  0  0
  -21.6030   -4.3049   24.7215 C   0  0  0  0  0  0
  -21.8818   -3.8153   23.4340 C   0  0  0  0  0  0
  -21.9185   -4.6966   22.3387 C   0  0  0  0  0  0
  -22.7794  -13.5241   21.1894 C   0  0  0  0  0  0
  -22.1645   -4.2158   21.0963 F   0  0  0  0  0  0
  -21.5658   -3.4518   25.7728 F   0  0  0  0  0  0
  -30.0009  -13.4234   20.3795 N   0  0  0  0  0  0
  -26.2912  -12.9290   20.3426 N   0  0  0  0  0  0
  -25.9254  -11.6473   20.5861 N   0  0  0  0  0  0
  -22.0426  -12.8235   22.0444 N   0  0  0  0  0  0
  -25.4256  -15.1859   20.4154 N   0  0  0  0  0  0
  -31.8603  -14.7185   20.2180 O   0  0  0  0  0  0
  -21.6619   -6.8865   21.4239 O   0  0  0  0  0  0
  -22.3483  -14.5542   20.6741 O   0  0  0  0  0  0
  -24.6219  -31.8592   23.2021 C   0  0  0  0  0  0
  -25.9089  -32.4780   23.8337 C   0  0  1  0  0  0
  -27.2674  -27.3965   20.0764 C   0  0  0  0  0  0
  -25.5919  -33.8576   24.2269 N   0  0  0  0  0  0
  -23.4158  -30.4793   21.5398 C   0  0  2  0  0  0
  -24.8694  -28.9329   20.1105 C   0  0  0  0  0  0
  -22.7435  -29.4630   22.4907 C   0  0  0  0  0  0
  -18.0274  -28.1388   22.8497 C   0  0  0  0  0  0
  -24.1499  -36.7316   23.2633 C   0  0  0  0  0  0
  -25.9470  -30.8095   21.3619 C   0  0  0  0  0  0
  -26.0265  -29.4377   20.7128 C   0  0  0  0  0  0
  -27.2208  -28.6749   20.6951 C   0  0  0  0  0  0
  -26.0824  -26.9090   19.4798 C   0  0  0  0  0  0
  -24.8939  -27.6689   19.4917 C   0  0  0  0  0  0
  -23.6328  -29.8051   20.1567 C   0  0  0  0  0  0
  -25.4119  -36.3083   24.0323 C   0  0  1  0  0  0
  -20.5865  -28.3711   23.1281 C   0  0  2  0  0  0
  -20.6759  -26.9431   22.5420 C   0  0  0  0  0  0
  -19.5753  -26.6401   21.5208 C   0  0  0  0  0  0
  -18.1918  -26.7947   22.1594 C   0  0  0  0  0  0
  -19.1518  -28.8857   23.2896 C   0  0  0  0  0  0
  -18.9459  -30.1449   23.8928 C   0  0  0  0  0  0
  -17.6467  -30.6603   24.0580 C   0  0  0  0  0  0
  -25.9056  -34.9450   23.5091 C   0  0  0  0  0  0
  -16.5358  -29.9119   23.6316 C   0  0  0  0  0  0
  -16.7266  -28.6523   23.0362 C   0  0  0  0  0  0
  -26.4521  -31.6569   25.0671 C   0  0  0  0  0  0
  -25.3796  -31.3668   26.1421 C   0  0  0  0  0  0
  -27.0361  -30.2997   24.6074 C   0  0  0  0  0  0
  -27.6110  -32.4279   25.7424 C   0  0  0  0  0  0
  -27.5595  -37.1782   24.8445 C   0  0  0  0  0  0
  -21.4146  -29.3060   22.3651 N   0  0  0  0  0  0
  -26.4290  -37.3787   23.9419 N   0  0  0  0  0  0
  -24.6802  -31.0653   22.0937 N   0  0  0  0  0  0
  -23.4159  -28.8161   23.2986 O   0  0  0  0  0  0
  -28.4639  -26.6853   20.0904 O   0  0  0  0  0  0
  -26.5618  -34.8918   22.4648 O   0  0  0  0  0  0
  -23.5397  -32.1356   23.7387 O   0  0  0  0  0  0
  -30.1345  -20.7205   20.0546 C   0  0  0  0  0  0
  -28.0142  -21.3951   21.0386 C   0  0  0  0  0  0
  -29.9384  -19.4136   20.5875 C   0  0  0  0  0  0
  -28.7886  -19.0962   21.2996 C   0  0  0  0  0  0
  -27.8122  -20.0870   21.5416 C   0  0  0  0  0  0
  -29.1596  -21.7430   20.2718 C   0  0  0  0  0  0
  -30.8500  -18.1971   20.4729 C   0  0  0  0  0  0
  -28.7519  -17.6280   21.7045 C   0  0  0  0  0  0
  -30.0743  -16.9980   21.1507 C   0  0  1  0  0  0
  -26.5431  -19.7837   22.3118 C   0  0  0  0  0  0
  -29.4336  -16.1269   18.9663 C   0  0  0  0  0  0
  -28.6689  -25.4573   19.3380 C   0  0  0  0  0  0
  -28.4805  -24.1191   20.1321 C   0  0  0  0  0  0
  -29.8600  -15.7552   20.3305 N   0  0  0  0  0  0
  -29.3450  -23.0198   19.7250 O   0  0  0  0  0  0
  -31.4663  -12.4784   19.1394 H   0  0  0  0  0  0
  -30.3533  -11.3872   19.9338 H   0  0  0  0  0  0
  -29.7416  -11.6211   17.5340 H   0  0  0  0  0  0
  -29.6641  -13.3522   17.6658 H   0  0  0  0  0  0
  -27.8398  -11.2665   18.9013 H   0  0  0  0  0  0
  -27.3557  -12.5264   17.8041 H   0  0  0  0  0  0
  -27.6092  -14.2276   19.5041 H   0  0  0  0  0  0
  -28.7067  -12.1300   21.4406 H   0  0  0  0  0  0
  -28.4667  -13.8256   21.7805 H   0  0  0  0  0  0
  -25.2717   -9.5646   22.4814 H   0  0  0  0  0  0
  -23.9949   -7.4603   22.7453 H   0  0  0  0  0  0
  -21.0813   -8.8825   19.8935 H   0  0  0  0  0  0
  -22.3707  -10.9709   19.6197 H   0  0  0  0  0  0
  -21.1967   -7.6130   23.9690 H   0  0  0  0  0  0
  -21.1478   -6.0531   25.9072 H   0  0  0  0  0  0
  -22.0613   -2.7630   23.2846 H   0  0  0  0  0  0
  -22.4027  -11.9869   22.4787 H   0  0  0  0  0  0
  -21.1068  -13.1309   22.2683 H   0  0  0  0  0  0
  -24.6630  -15.8466   20.5208 H   0  0  0  0  0  0
  -26.2888  -15.6143   20.1056 H   0  0  0  0  0  0
  -26.7152  -32.5497   23.1091 H   0  0  0  0  0  0
  -25.0092  -33.9724   25.0431 H   0  0  0  0  0  0
  -22.7116  -31.2994   21.3882 H   0  0  0  0  0  0
  -23.3768  -35.9635   23.3234 H   0  0  0  0  0  0
  -24.3605  -36.9023   22.2062 H   0  0  0  0  0  0
  -23.7251  -37.6492   23.6714 H   0  0  0  0  0  0
  -26.0559  -31.5690   20.5864 H   0  0  0  0  0  0
  -26.8359  -30.8729   21.9783 H   0  0  0  0  0  0
  -28.1176  -29.0681   21.1527 H   0  0  0  0  0  0
  -26.0582  -25.9406   19.0038 H   0  0  0  0  0  0
  -24.0088  -27.2727   19.0138 H   0  0  0  0  0  0
  -23.7540  -30.5780   19.3958 H   0  0  0  0  0  0
  -22.7561  -29.2285   19.8566 H   0  0  0  0  0  0
  -25.1294  -36.1917   25.0817 H   0  0  0  0  0  0
  -20.9979  -28.3324   24.1398 H   0  0  0  0  0  0
  -20.5642  -26.2342   23.3629 H   0  0  0  0  0  0
  -21.6639  -26.7448   22.1243 H   0  0  0  0  0  0
  -19.6925  -25.6314   21.1240 H   0  0  0  0  0  0
  -19.6702  -27.3198   20.6730 H   0  0  0  0  0  0
  -17.4207  -26.6748   21.3964 H   0  0  0  0  0  0
  -18.0274  -26.0053   22.8943 H   0  0  0  0  0  0
  -19.7943  -30.7232   24.2336 H   0  0  0  0  0  0
  -17.5038  -31.6278   24.5193 H   0  0  0  0  0  0
  -15.5361  -30.3044   23.7614 H   0  0  0  0  0  0
  -15.8668  -28.0846   22.7079 H   0  0  0  0  0  0
  -24.5970  -30.7012   25.7748 H   0  0  0  0  0  0
  -24.8990  -32.2826   26.4868 H   0  0  0  0  0  0
  -25.8168  -30.8826   27.0167 H   0  0  0  0  0  0
  -26.2873  -29.6655   24.1301 H   0  0  0  0  0  0
  -27.4312  -29.7327   25.4519 H   0  0  0  0  0  0
  -27.8635  -30.4278   23.9086 H   0  0  0  0  0  0
  -27.2763  -33.3586   26.2010 H   0  0  0  0  0  0
  -28.3922  -32.6815   25.0245 H   0  0  0  0  0  0
  -28.0776  -31.8382   26.5327 H   0  0  0  0  0  0
  -28.2562  -38.0123   24.7558 H   0  0  0  0  0  0
  -28.1150  -36.2661   24.6191 H   0  0  0  0  0  0
  -27.2322  -37.1351   25.8846 H   0  0  0  0  0  0
  -20.9296  -29.8841   21.6919 H   0  0  0  0  0  0
  -26.0166  -38.2848   24.1479 H   0  0  0  0  0  0
  -31.0226  -20.9371   19.4760 H   0  0  0  0  0  0
  -27.2429  -22.1223   21.2346 H   0  0  0  0  0  0
  -31.7686  -18.3945   21.0276 H   0  0  0  0  0  0
  -31.1493  -18.0427   19.4394 H   0  0  0  0  0  0
  -27.8530  -17.1486   21.3150 H   0  0  0  0  0  0
  -28.7170  -17.5581   22.7927 H   0  0  0  0  0  0
  -30.6618  -16.6999   22.0227 H   0  0  0  0  0  0
  -25.9437  -20.6860   22.4440 H   0  0  0  0  0  0
  -26.7763  -19.3931   23.3010 H   0  0  0  0  0  0
  -25.9326  -19.0550   21.7782 H   0  0  0  0  0  0
  -30.2792  -16.4564   18.3633 H   0  0  0  0  0  0
  -28.6951  -16.9311   18.9779 H   0  0  0  0  0  0
  -28.9951  -15.3117   18.4028 H   0  0  0  0  0  0
  -28.1087  -25.4418   18.4022 H   0  0  0  0  0  0
  -29.7111  -25.5063   19.0196 H   0  0  0  0  0  0
  -27.4287  -23.8477   20.0544 H   0  0  0  0  0  0
  -28.6932  -24.3054   21.1841 H   0  0  0  0  0  0
  1 25  1  0  0  0
  1 30  2  0  0  0
  1 84  1  0  0  0
  2  3  1  0  0  0
  2 25  1  0  0  0
  2 86  1  0  0  0
  2 87  1  0  0  0
  3  4  1  0  0  0
  3 88  1  0  0  0
  3 89  1  0  0  0
  4  5  1  0  0  0
  4 90  1  0  0  0
  4 91  1  0  0  0
  5  6  1  0  0  0
  5 26  1  0  0  0
  5 92  1  0  0  0
  6 25  1  0  0  0
  6 93  1  0  0  0
  6 94  1  0  0  0
  7  8  2  0  0  0
  7 26  1  0  0  0
  7 29  1  0  0  0
  8  9  1  0  0  0
  8 22  1  0  0  0
  9 10  1  0  0  0
  9 27  2  0  0  0
 10 11  2  0  0  0
 10 15  1  0  0  0
 11 12  1  0  0  0
 11 95  1  0  0  0
 12 13  2  0  0  0
 12 96  1  0  0  0
 13 14  1  0  0  0
 13 31  1  0  0  0
 14 15  2  0  0  0
 14 97  1  0  0  0
 15 98  1  0  0  0
 16 17  2  0  0  0
 16 21  1  0  0  0
 16 31  1  0  0  0
 17 18  1  0  0  0
 17 99  1  0  0  0
 18 19  2  0  0  0
 18100  1  0  0  0
 19 20  1  0  0  0
 19 24  1  0  0  0
 20 21  2  0  0  0
 20101  1  0  0  0
 21 23  1  0  0  0
 22 28  1  0  0  0
 22 32  2  0  0  0
 26 27  1  0  0  0
 28102  1  0  0  0
 28103  1  0  0  0
 29104  1  0  0  0
 29105  1  0  0  0
 33 34  1  0  0  0
 33 66  1  0  0  0
 33 70  2  0  0  0
 34 36  1  0  0  0
 34 59  1  0  0  0
 34106  1  0  0  0
 35 44  2  0  0  0
 35 45  1  0  0  0
 35 68  1  0  0  0
 36 56  1  0  0  0
 36107  1  0  0  0
 37 39  1  0  0  0
 37 47  1  0  0  0
 37 66  1  0  0  0
 37108  1  0  0  0
 38 43  2  0  0  0
 38 46  1  0  0  0
 38 47  1  0  0  0
 39 64  1  0  0  0
 39 67  2  0  0  0
 40 52  1  0  0  0
 40 53  2  0  0  0
 40 58  1  0  0  0
 41109  1  0  0  0
 41110  1  0  0  0
 41111  1  0  0  0
 41 48  1  0  0  0
 42 43  1  0  0  0
 42 66  1  0  0  0
 42112  1  0  0  0
 42113  1  0  0  0
 43 44  1  0  0  0
 44114  1  0  0  0
 45 46  2  0  0  0
 45115  1  0  0  0
 46116  1  0  0  0
 47117  1  0  0  0
 47118  1  0  0  0
 48 56  1  0  0  0
 48 65  1  0  0  0
 48119  1  0  0  0
 49 50  1  0  0  0
 49 53  1  0  0  0
 49 64  1  0  0  0
 49120  1  0  0  0
 50 51  1  0  0  0
 50121  1  0  0  0
 50122  1  0  0  0
 51 52  1  0  0  0
 51123  1  0  0  0
 51124  1  0  0  0
 52125  1  0  0  0
 52126  1  0  0  0
 53 54  1  0  0  0
 54 55  2  0  0  0
 54127  1  0  0  0
 55 57  1  0  0  0
 55128  1  0  0  0
 56 69  2  0  0  0
 57 58  2  0  0  0
 57129  1  0  0  0
 58130  1  0  0  0
 59 60  1  0  0  0
 59 61  1  0  0  0
 59 62  1  0  0  0
 60131  1  0  0  0
 60132  1  0  0  0
 60133  1  0  0  0
 61134  1  0  0  0
 61135  1  0  0  0
 61136  1  0  0  0
 62137  1  0  0  0
 62138  1  0  0  0
 62139  1  0  0  0
 63 65  1  0  0  0
 63140  1  0  0  0
 63141  1  0  0  0
 63142  1  0  0  0
 64143  1  0  0  0
 65144  1  0  0  0
 68 82  1  0  0  0
 71 73  2  0  0  0
 71 76  1  0  0  0
 71145  1  0  0  0
 72 75  1  0  0  0
 72 76  2  0  0  0
 72146  1  0  0  0
 73 74  1  0  0  0
 73 77  1  0  0  0
 74 75  2  0  0  0
 74 78  1  0  0  0
 75 80  1  0  0  0
 76 85  1  0  0  0
 77 79  1  0  0  0
 77147  1  0  0  0
 77148  1  0  0  0
 78 79  1  0  0  0
 78149  1  0  0  0
 78150  1  0  0  0
 79 84  1  0  0  0
 79151  1  0  0  0
 80152  1  0  0  0
 80153  1  0  0  0
 80154  1  0  0  0
 81 84  1  0  0  0
 81155  1  0  0  0
 81156  1  0  0  0
 81157  1  0  0  0
 82 83  1  0  0  0
 82158  1  0  0  0
 82159  1  0  0  0
 83 85  1  0  0  0
 83160  1  0  0  0
 83161  1  0  0  0
M  ISO  4   1 100  68 101  82 101  84 100
M  END
> <chiral flag>
0

> <version>
0

> <s_m_source_file>
/data/baiqing/PycharmProjects/Reinvent-master-3.2/result/LINK_invent/BTK/process_docking_weight1_custom_sum_contain_oxygen_bond_distance_aromatic_linkinvent_7_9_3/rearranged_h_0159.sdf

> <i_m_source_file_index>
66

> <r_mmod_Potential_Energy-OPLS-2005>
248.619567871094

> <r_mmod_Stretch_Energy-OPLS-2005>
61.5469970703125

> <r_mmod_Bend_Energy-OPLS-2005>
169.641662597656

> <r_mmod_Torsional_Energy-OPLS-2005>
323.898498535156

> <r_mmod_Improper_Torsional_Energy-OPLS-2005>
12.3248929977417

> <r_mmod_Van_der_Waal_Energy-OPLS-2005>
147.812728881836

> <r_mmod_Electrostatic_Energy-OPLS-2005>
-309.82666015625

> <r_mmod_Solvation_Energy-OPLS-2005>
-198.492446899414

> <b_mmod_Minimization_Converged-OPLS-2005>
0

> <r_mmod_RMS_Derivative-OPLS-2005>
3.71157670021057

$$$$
66
                    3D
 Structure written by MMmdl.
166175  0  0  1  0            999 V2000
  -30.6828  -14.5242   20.5110 C   0  0  0  0  0  0
  -30.4189  -12.3198   19.4383 C   0  0  0  0  0  0
  -29.4936  -12.4863   18.2144 C   0  0  0  0  0  0
  -28.0150  -12.3533   18.6283 C   0  0  0  0  0  0
  -27.6545  -13.2122   19.8708 C   0  0  2  0  0  0
  -28.6988  -13.0354   20.9956 C   0  0  0  0  0  0
  -25.2556  -13.8181   20.5709 C   0  0  0  0  0  0
  -24.1814  -13.0443   20.9190 C   0  0  0  0  0  0
  -24.6383  -11.6916   20.8755 C   0  0  0  0  0  0
  -23.9055  -10.4294   21.0421 C   0  0  0  0  0  0
  -24.3616   -9.4204   21.9193 C   0  0  0  0  0  0
  -23.6290   -8.2242   22.0760 C   0  0  0  0  0  0
  -22.4273   -8.0284   21.3545 C   0  0  0  0  0  0
  -21.9908   -9.0254   20.4646 C   0  0  0  0  0  0
  -22.7236  -10.2131   20.3068 C   0  0  0  0  0  0
  -21.6844   -6.0741   22.5280 C   0  0  0  0  0  0
  -21.4010   -6.5649   23.8212 C   0  0  0  0  0  0
  -21.3655   -5.6803   24.9175 C   0  0  0  0  0  0
  -21.6042   -4.3064   24.7225 C   0  0  0  0  0  0
  -21.8818   -3.8154   23.4344 C   0  0  0  0  0  0
  -21.9188   -4.6970   22.3403 C   0  0  0  0  0  0
  -22.7828  -13.5225   21.1849 C   0  0  0  0  0  0
  -22.1657   -4.2157   21.0980 F   0  0  0  0  0  0
  -21.5633   -3.4547   25.7737 F   0  0  0  0  0  0
  -30.0194  -13.3368   20.4257 N   0  0  0  0  0  0
  -26.2990  -12.9354   20.3381 N   0  0  0  0  0  0
  -25.9310  -11.6513   20.5793 N   0  0  0  0  0  0
  -22.0486  -12.8202   22.0410 N   0  0  0  0  0  0
  -25.4304  -15.1896   20.4152 N   0  0  0  0  0  0
  -31.8626  -14.6314   20.1579 O   0  0  0  0  0  0
  -21.6636   -6.8884   21.4243 O   0  0  0  0  0  0
  -22.3492  -14.5515   20.6691 O   0  0  0  0  0  0
  -24.6180  -31.8675   23.2090 C   0  0  0  0  0  0
  -25.9062  -32.4817   23.8394 C   0  0  1  0  0  0
  -27.2200  -27.4006   20.0921 C   0  0  0  0  0  0
  -25.5907  -33.8618   24.2321 N   0  0  0  0  0  0
  -23.4055  -30.4936   21.5520 C   0  0  2  0  0  0
  -24.8472  -28.9594   20.1134 C   0  0  0  0  0  0
  -22.7423  -29.4662   22.4981 C   0  0  0  0  0  0
  -18.0279  -28.1371   22.8496 C   0  0  0  0  0  0
  -24.1489  -36.7308   23.2635 C   0  0  0  0  0  0
  -25.9401  -30.8227   21.3668 C   0  0  0  0  0  0
  -26.0136  -29.4574   20.7075 C   0  0  0  0  0  0
  -27.2045  -28.6880   20.6877 C   0  0  0  0  0  0
  -26.0293  -26.9299   19.4896 C   0  0  0  0  0  0
  -24.8516  -27.6969   19.5014 C   0  0  0  0  0  0
  -23.6133  -29.8320   20.1652 C   0  0  0  0  0  0
  -25.4112  -36.3107   24.0334 C   0  0  1  0  0  0
  -20.5873  -28.3664   23.1308 C   0  0  2  0  0  0
  -20.6769  -26.9400   22.5411 C   0  0  0  0  0  0
  -19.5743  -26.6382   21.5211 C   0  0  0  0  0  0
  -18.1923  -26.7920   22.1624 C   0  0  0  0  0  0
  -19.1531  -28.8836   23.2900 C   0  0  0  0  0  0
  -18.9454  -30.1441   23.8910 C   0  0  0  0  0  0
  -17.6456  -30.6581   24.0563 C   0  0  0  0  0  0
  -25.9045  -34.9475   23.5125 C   0  0  0  0  0  0
  -16.5346  -29.9081   23.6323 C   0  0  0  0  0  0
  -16.7269  -28.6494   23.0355 C   0  0  0  0  0  0
  -26.4480  -31.6601   25.0731 C   0  0  0  0  0  0
  -25.3742  -31.3707   26.1470 C   0  0  0  0  0  0
  -27.0314  -30.3040   24.6120 C   0  0  0  0  0  0
  -27.6050  -32.4326   25.7496 C   0  0  0  0  0  0
  -27.5589  -37.1804   24.8464 C   0  0  0  0  0  0
  -21.4151  -29.3031   22.3714 N   0  0  0  0  0  0
  -26.4298  -37.3793   23.9415 N   0  0  0  0  0  0
  -24.6732  -31.0756   22.1001 N   0  0  0  0  0  0
  -23.4190  -28.8197   23.3025 O   0  0  0  0  0  0
  -28.3738  -26.6303   20.1182 O   0  0  0  0  0  0
  -26.5607  -34.8925   22.4687 O   0  0  0  0  0  0
  -23.5363  -32.1441   23.7465 O   0  0  0  0  0  0
  -28.7073  -22.1108   19.5034 C   0  0  0  0  0  0
  -28.6397  -20.6990   19.5687 C   0  0  0  0  0  0
  -29.7918  -20.7400   21.6858 C   0  0  0  0  0  0
  -29.3263  -22.8667   20.5253 C   0  0  0  0  0  0
  -29.2106  -19.9721   20.6442 C   0  0  0  0  0  0
  -29.8534  -22.1659   21.6439 C   0  0  0  0  0  0
  -29.0527  -17.7718   19.4344 C   0  0  0  0  0  0
  -29.6796  -17.7895   21.8445 C   0  0  0  0  0  0
  -30.0302  -16.5762   19.3784 C   0  0  0  0  0  0
  -29.3930  -16.2588   21.7527 C   0  0  0  0  0  0
  -30.6365  -24.7188   19.4064 C   0  0  0  0  0  0
  -30.9022  -22.2664   23.8163 C   0  0  0  0  0  0
  -28.2154  -25.1929   19.9999 C   0  0  0  0  0  0
  -29.4973  -24.4046   20.3891 C   0  0  1  0  0  0
  -29.2078  -18.5417   20.6721 N   0  0  0  0  0  0
  -29.8916  -15.6346   20.5091 N   0  0  0  0  0  0
  -30.4351  -22.9205   22.6430 O   0  0  0  0  0  0
  -31.4637  -12.4118   19.1364 H   0  0  0  0  0  0
  -30.3192  -11.3208   19.8662 H   0  0  0  0  0  0
  -29.7349  -11.7409   17.4554 H   0  0  0  0  0  0
  -29.6596  -13.4602   17.7519 H   0  0  0  0  0  0
  -27.8288  -11.3000   18.8414 H   0  0  0  0  0  0
  -27.3643  -12.6136   17.7927 H   0  0  0  0  0  0
  -27.6833  -14.2525   19.5476 H   0  0  0  0  0  0
  -28.6826  -12.0142   21.3782 H   0  0  0  0  0  0
  -28.4691  -13.6755   21.8474 H   0  0  0  0  0  0
  -25.2775   -9.5669   22.4748 H   0  0  0  0  0  0
  -24.0002   -7.4623   22.7469 H   0  0  0  0  0  0
  -21.0852   -8.8768   19.8933 H   0  0  0  0  0  0
  -22.3714  -10.9665   19.6173 H   0  0  0  0  0  0
  -21.2004   -7.6154   23.9720 H   0  0  0  0  0  0
  -21.1476   -6.0538   25.9082 H   0  0  0  0  0  0
  -22.0599   -2.7614   23.2853 H   0  0  0  0  0  0
  -22.4144  -11.9869   22.4776 H   0  0  0  0  0  0
  -21.1102  -13.1202   22.2641 H   0  0  0  0  0  0
  -24.6723  -15.8518   20.5357 H   0  0  0  0  0  0
  -26.2979  -15.6256   20.1303 H   0  0  0  0  0  0
  -26.7127  -32.5514   23.1150 H   0  0  0  0  0  0
  -25.0066  -33.9786   25.0469 H   0  0  0  0  0  0
  -22.6949  -31.3117   21.4153 H   0  0  0  0  0  0
  -23.3756  -35.9633   23.3291 H   0  0  0  0  0  0
  -24.3576  -36.8934   22.2049 H   0  0  0  0  0  0
  -23.7231  -37.6504   23.6656 H   0  0  0  0  0  0
  -26.0622  -31.5912   20.6020 H   0  0  0  0  0  0
  -26.8241  -30.8686   21.9916 H   0  0  0  0  0  0
  -28.1055  -29.0683   21.1485 H   0  0  0  0  0  0
  -25.9824  -25.9671   19.0041 H   0  0  0  0  0  0
  -23.9536  -27.3086   19.0408 H   0  0  0  0  0  0
  -23.7277  -30.6104   19.4098 H   0  0  0  0  0  0
  -22.7338  -29.2595   19.8644 H   0  0  0  0  0  0
  -25.1285  -36.1972   25.0824 H   0  0  0  0  0  0
  -20.9972  -28.3227   24.1425 H   0  0  0  0  0  0
  -20.5674  -26.2271   23.3597 H   0  0  0  0  0  0
  -21.6640  -26.7438   22.1203 H   0  0  0  0  0  0
  -19.6906  -25.6297   21.1230 H   0  0  0  0  0  0
  -19.6680  -27.3201   20.6746 H   0  0  0  0  0  0
  -17.4194  -26.6680   21.4023 H   0  0  0  0  0  0
  -18.0319  -26.0054   22.9010 H   0  0  0  0  0  0
  -19.7929  -30.7258   24.2287 H   0  0  0  0  0  0
  -17.5008  -31.6262   24.5162 H   0  0  0  0  0  0
  -15.5347  -30.2989   23.7631 H   0  0  0  0  0  0
  -15.8669  -28.0811   22.7073 H   0  0  0  0  0  0
  -24.5906  -30.7072   25.7792 H   0  0  0  0  0  0
  -24.8950  -32.2867   26.4933 H   0  0  0  0  0  0
  -25.8089  -30.8853   27.0218 H   0  0  0  0  0  0
  -26.2863  -29.6801   24.1166 H   0  0  0  0  0  0
  -27.4068  -29.7270   25.4584 H   0  0  0  0  0  0
  -27.8707  -30.4346   23.9286 H   0  0  0  0  0  0
  -27.2656  -33.3609   26.2104 H   0  0  0  0  0  0
  -28.3842  -32.6920   25.0318 H   0  0  0  0  0  0
  -28.0740  -31.8441   26.5392 H   0  0  0  0  0  0
  -28.2592  -38.0117   24.7535 H   0  0  0  0  0  0
  -28.1103  -36.2649   24.6262 H   0  0  0  0  0  0
  -27.2309  -37.1420   25.8867 H   0  0  0  0  0  0
  -20.9306  -29.8766   21.6950 H   0  0  0  0  0  0
  -26.0187  -38.2869   24.1426 H   0  0  0  0  0  0
  -28.2936  -22.6092   18.6391 H   0  0  0  0  0  0
  -28.1429  -20.1875   18.7575 H   0  0  0  0  0  0
  -30.2241  -20.2169   22.5230 H   0  0  0  0  0  0
  -28.0211  -17.4241   19.3588 H   0  0  0  0  0  0
  -29.2423  -18.3866   18.5542 H   0  0  0  0  0  0
  -30.7540  -17.9477   21.9532 H   0  0  0  0  0  0
  -29.2119  -18.1834   22.7485 H   0  0  0  0  0  0
  -31.0534  -16.9558   19.3421 H   0  0  0  0  0  0
  -29.8758  -16.0329   18.4442 H   0  0  0  0  0  0
  -28.3174  -16.0886   21.8071 H   0  0  0  0  0  0
  -29.8187  -15.7631   22.6271 H   0  0  0  0  0  0
  -31.5629  -24.2284   19.7060 H   0  0  0  0  0  0
  -30.8327  -25.7902   19.3638 H   0  0  0  0  0  0
  -30.3936  -24.3872   18.3958 H   0  0  0  0  0  0
  -31.2729  -23.0104   24.5215 H   0  0  0  0  0  0
  -31.7264  -21.5874   23.5954 H   0  0  0  0  0  0
  -30.1036  -21.7159   24.3151 H   0  0  0  0  0  0
  -27.4037  -24.8683   20.6540 H   0  0  0  0  0  0
  -27.9332  -24.9379   18.9775 H   0  0  0  0  0  0
  -29.7933  -24.7996   21.3602 H   0  0  0  0  0  0
  1 25  1  0  0  0
  1 30  2  0  0  0
  1 86  1  0  0  0
  2  3  1  0  0  0
  2 25  1  0  0  0
  2 88  1  0  0  0
  2 89  1  0  0  0
  3  4  1  0  0  0
  3 90  1  0  0  0
  3 91  1  0  0  0
  4  5  1  0  0  0
  4 92  1  0  0  0
  4 93  1  0  0  0
  5  6  1  0  0  0
  5 26  1  0  0  0
  5 94  1  0  0  0
  6 25  1  0  0  0
  6 95  1  0  0  0
  6 96  1  0  0  0
  7  8  2  0  0  0
  7 26  1  0  0  0
  7 29  1  0  0  0
  8  9  1  0  0  0
  8 22  1  0  0  0
  9 10  1  0  0  0
  9 27  2  0  0  0
 10 11  2  0  0  0
 10 15  1  0  0  0
 11 12  1  0  0  0
 11 97  1  0  0  0
 12 13  2  0  0  0
 12 98  1  0  0  0
 13 14  1  0  0  0
 13 31  1  0  0  0
 14 15  2  0  0  0
 14 99  1  0  0  0
 15100  1  0  0  0
 16 17  2  0  0  0
 16 21  1  0  0  0
 16 31  1  0  0  0
 17 18  1  0  0  0
 17101  1  0  0  0
 18 19  2  0  0  0
 18102  1  0  0  0
 19 20  1  0  0  0
 19 24  1  0  0  0
 20 21  2  0  0  0
 20103  1  0  0  0
 21 23  1  0  0  0
 22 28  1  0  0  0
 22 32  2  0  0  0
 26 27  1  0  0  0
 28104  1  0  0  0
 28105  1  0  0  0
 29106  1  0  0  0
 29107  1  0  0  0
 33 34  1  0  0  0
 33 66  1  0  0  0
 33 70  2  0  0  0
 34 36  1  0  0  0
 34 59  1  0  0  0
 34108  1  0  0  0
 35 44  2  0  0  0
 35 45  1  0  0  0
 35 68  1  0  0  0
 36 56  1  0  0  0
 36109  1  0  0  0
 37 39  1  0  0  0
 37 47  1  0  0  0
 37 66  1  0  0  0
 37110  1  0  0  0
 38 43  2  0  0  0
 38 46  1  0  0  0
 38 47  1  0  0  0
 39 64  1  0  0  0
 39 67  2  0  0  0
 40 52  1  0  0  0
 40 53  2  0  0  0
 40 58  1  0  0  0
 41111  1  0  0  0
 41112  1  0  0  0
 41113  1  0  0  0
 41 48  1  0  0  0
 42 43  1  0  0  0
 42 66  1  0  0  0
 42114  1  0  0  0
 42115  1  0  0  0
 43 44  1  0  0  0
 44116  1  0  0  0
 45 46  2  0  0  0
 45117  1  0  0  0
 46118  1  0  0  0
 47119  1  0  0  0
 47120  1  0  0  0
 48 56  1  0  0  0
 48 65  1  0  0  0
 48121  1  0  0  0
 49 50  1  0  0  0
 49 53  1  0  0  0
 49 64  1  0  0  0
 49122  1  0  0  0
 50 51  1  0  0  0
 50123  1  0  0  0
 50124  1  0  0  0
 51 52  1  0  0  0
 51125  1  0  0  0
 51126  1  0  0  0
 52127  1  0  0  0
 52128  1  0  0  0
 53 54  1  0  0  0
 54 55  2  0  0  0
 54129  1  0  0  0
 55 57  1  0  0  0
 55130  1  0  0  0
 56 69  2  0  0  0
 57 58  2  0  0  0
 57131  1  0  0  0
 58132  1  0  0  0
 59 60  1  0  0  0
 59 61  1  0  0  0
 59 62  1  0  0  0
 60133  1  0  0  0
 60134  1  0  0  0
 60135  1  0  0  0
 61136  1  0  0  0
 61137  1  0  0  0
 61138  1  0  0  0
 62139  1  0  0  0
 62140  1  0  0  0
 62141  1  0  0  0
 63 65  1  0  0  0
 63142  1  0  0  0
 63143  1  0  0  0
 63144  1  0  0  0
 64145  1  0  0  0
 65146  1  0  0  0
 68 83  1  0  0  0
 71 72  2  0  0  0
 71 74  1  0  0  0
 71147  1  0  0  0
 72 75  1  0  0  0
 72148  1  0  0  0
 73 75  2  0  0  0
 73 76  1  0  0  0
 73149  1  0  0  0
 74 76  2  0  0  0
 74 84  1  0  0  0
 75 85  1  0  0  0
 76 87  1  0  0  0
 77 79  1  0  0  0
 77 85  1  0  0  0
 77150  1  0  0  0
 77151  1  0  0  0
 78 80  1  0  0  0
 78 85  1  0  0  0
 78152  1  0  0  0
 78153  1  0  0  0
 79 86  1  0  0  0
 79154  1  0  0  0
 79155  1  0  0  0
 80 86  1  0  0  0
 80156  1  0  0  0
 80157  1  0  0  0
 81158  1  0  0  0
 81159  1  0  0  0
 81160  1  0  0  0
 81 84  1  0  0  0
 82 87  1  0  0  0
 82161  1  0  0  0
 82162  1  0  0  0
 82163  1  0  0  0
 83 84  1  0  0  0
 83164  1  0  0  0
 83165  1  0  0  0
 84166  1  0  0  0
M  ISO  4   1 100  68 101  83 101  86 100
M  END
> <chiral flag>
0

> <version>
0

> <s_m_source_file>
/data/baiqing/PycharmProjects/Reinvent-master-3.2/result/LINK_invent/BTK/process_docking_weight1_custom_sum_contain_oxygen_bond_distance_aromatic_linkinvent_7_9_3/rearranged_h_0159.sdf

> <i_m_source_file_index>
67

> <r_mmod_Potential_Energy-OPLS-2005>
185.431167602539

> <r_mmod_Stretch_Energy-OPLS-2005>
51.5371017456055

> <r_mmod_Bend_Energy-OPLS-2005>
121.772613525391

> <r_mmod_Torsional_Energy-OPLS-2005>
345.582977294922

> <r_mmod_Improper_Torsional_Energy-OPLS-2005>
17.8596248626709

> <r_mmod_Van_der_Waal_Energy-OPLS-2005>
173.441162109375

> <r_mmod_Electrostatic_Energy-OPLS-2005>
-333.184967041016

> <r_mmod_Solvation_Energy-OPLS-2005>
-214.341903686523

> <b_mmod_Minimization_Converged-OPLS-2005>
0

> <r_mmod_RMS_Derivative-OPLS-2005>
1.34884941577911

$$$$
67
                    3D
 Structure written by MMmdl.
157166  0  0  1  0            999 V2000
  -30.4672  -15.3061   20.3692 C   0  0  0  0  0  0
  -30.4296  -12.8521   19.5238 C   0  0  0  0  0  0
  -29.5319  -12.5869   18.2890 C   0  0  0  0  0  0
  -28.0881  -12.2912   18.7303 C   0  0  0  0  0  0
  -27.6030  -13.2862   19.8136 C   0  0  2  0  0  0
  -28.6324  -13.5133   20.9426 C   0  0  0  0  0  0
  -25.2366  -13.8258   20.5797 C   0  0  0  0  0  0
  -24.1714  -13.0429   20.9248 C   0  0  0  0  0  0
  -24.6402  -11.6939   20.8767 C   0  0  0  0  0  0
  -23.9106  -10.4296   21.0422 C   0  0  0  0  0  0
  -24.3662   -9.4206   21.9188 C   0  0  0  0  0  0
  -23.6334   -8.2247   22.0751 C   0  0  0  0  0  0
  -22.4307   -8.0299   21.3555 C   0  0  0  0  0  0
  -21.9964   -9.0266   20.4665 C   0  0  0  0  0  0
  -22.7295  -10.2135   20.3064 C   0  0  0  0  0  0
  -21.6860   -6.0741   22.5273 C   0  0  0  0  0  0
  -21.4030   -6.5649   23.8206 C   0  0  0  0  0  0
  -21.3676   -5.6792   24.9163 C   0  0  0  0  0  0
  -21.6048   -4.3054   24.7216 C   0  0  0  0  0  0
  -21.8794   -3.8155   23.4326 C   0  0  0  0  0  0
  -21.9177   -4.6977   22.3396 C   0  0  0  0  0  0
  -22.7739  -13.5179   21.1892 C   0  0  0  0  0  0
  -22.1658   -4.2166   21.0961 F   0  0  0  0  0  0
  -21.5641   -3.4534   25.7731 F   0  0  0  0  0  0
  -29.8585  -14.0175   20.3012 N   0  0  0  0  0  0
  -26.2791  -12.9575   20.3211 N   0  0  0  0  0  0
  -25.9348  -11.6661   20.5715 N   0  0  0  0  0  0
  -22.0405  -12.8161   22.0449 N   0  0  0  0  0  0
  -25.4035  -15.2016   20.4385 N   0  0  0  0  0  0
  -31.6956  -15.2284   20.2159 O   0  0  0  0  0  0
  -21.6656   -6.8909   21.4245 O   0  0  0  0  0  0
  -22.3416  -14.5471   20.6725 O   0  0  0  0  0  0
  -24.6637  -31.8227   23.1674 C   0  0  0  0  0  0
  -25.9297  -32.4570   23.8169 C   0  0  1  0  0  0
  -27.2120  -26.9159   20.1901 C   0  0  0  0  0  0
  -25.5938  -33.8389   24.2058 N   0  0  0  0  0  0
  -23.4769  -30.4353   21.5162 C   0  0  2  0  0  0
  -24.9272  -28.8123   20.1157 C   0  0  0  0  0  0
  -22.7654  -29.4443   22.4742 C   0  0  0  0  0  0
  -18.0327  -28.1398   22.8446 C   0  0  0  0  0  0
  -24.1495  -36.7234   23.2643 C   0  0  0  0  0  0
  -26.0461  -30.6283   21.3912 C   0  0  0  0  0  0
  -26.1137  -29.2152   20.7406 C   0  0  0  0  0  0
  -27.2537  -28.2893   20.7462 C   0  0  0  0  0  0
  -25.9935  -26.6623   19.5235 C   0  0  0  0  0  0
  -24.8913  -27.5563   19.4889 C   0  0  0  0  0  0
  -23.7188  -29.7473   20.1445 C   0  0  0  0  0  0
  -25.4115  -36.2957   24.0301 C   0  0  1  0  0  0
  -20.5943  -28.3738   23.1165 C   0  0  2  0  0  0
  -20.6787  -26.9416   22.5383 C   0  0  0  0  0  0
  -19.5769  -26.6367   21.5178 C   0  0  0  0  0  0
  -18.1961  -26.7928   22.1617 C   0  0  0  0  0  0
  -19.1586  -28.8878   23.2805 C   0  0  0  0  0  0
  -18.9497  -30.1466   23.8855 C   0  0  0  0  0  0
  -17.6497  -30.6586   24.0558 C   0  0  0  0  0  0
  -25.9082  -34.9332   23.4997 C   0  0  0  0  0  0
  -16.5383  -29.9080   23.6328 C   0  0  0  0  0  0
  -16.7309  -28.6508   23.0340 C   0  0  0  0  0  0
  -26.4527  -31.6513   25.0712 C   0  0  0  0  0  0
  -25.3667  -31.3803   26.1393 C   0  0  0  0  0  0
  -27.0367  -30.2861   24.6435 C   0  0  0  0  0  0
  -27.6028  -32.4310   25.7526 C   0  0  0  0  0  0
  -27.5577  -37.1747   24.8436 C   0  0  0  0  0  0
  -21.4321  -29.3045   22.3519 N   0  0  0  0  0  0
  -26.4254  -37.3697   23.9429 N   0  0  0  0  0  0
  -24.7503  -30.9885   22.0799 N   0  0  0  0  0  0
  -23.4202  -28.8008   23.2976 O   0  0  0  0  0  0
  -28.2313  -25.8256   20.2249 O   0  0  0  0  0  0
  -26.5710  -34.8875   22.4609 O   0  0  0  0  0  0
  -23.5698  -32.1197   23.6761 O   0  0  0  0  0  0
  -29.0845  -23.0942   21.0594 C   0  0  0  0  0  0
  -28.0411  -22.8880   19.4138 C   0  0  0  0  0  0
  -29.0931  -17.4869   19.4114 C   0  0  0  0  0  0
  -30.5002  -17.8896   21.1561 C   0  0  0  0  0  0
  -28.3945  -19.0103   19.6344 C   0  0  0  0  0  0
  -29.8519  -19.4349   21.3661 C   0  0  0  0  0  0
  -28.0185  -24.1952   20.4300 C   0  0  2  0  0  0
  -28.3568  -21.7033   20.5390 C   0  0  2  0  0  0
  -27.1036  -21.3218   21.3517 C   0  0  0  0  0  0
  -29.8195  -16.6597   20.4964 N   0  0  0  0  0  0
  -29.1503  -20.2298   20.2381 N   0  3  0  0  0  0
  -31.4462  -13.0509   19.1774 H   0  0  0  0  0  0
  -30.5071  -11.9661   20.1585 H   0  0  0  0  0  0
  -29.9320  -11.7632   17.6978 H   0  0  0  0  0  0
  -29.5372  -13.4627   17.6355 H   0  0  0  0  0  0
  -28.0708  -11.2795   19.1395 H   0  0  0  0  0  0
  -27.4105  -12.2893   17.8764 H   0  0  0  0  0  0
  -27.5014  -14.2397   19.2901 H   0  0  0  0  0  0
  -28.8070  -12.6093   21.5283 H   0  0  0  0  0  0
  -28.2598  -14.2645   21.6417 H   0  0  0  0  0  0
  -25.2820   -9.5687   22.4735 H   0  0  0  0  0  0
  -24.0058   -7.4640   22.7474 H   0  0  0  0  0  0
  -21.0886   -8.8796   19.8990 H   0  0  0  0  0  0
  -22.3773  -10.9666   19.6163 H   0  0  0  0  0  0
  -21.2041   -7.6164   23.9711 H   0  0  0  0  0  0
  -21.1545   -6.0535   25.9065 H   0  0  0  0  0  0
  -22.0565   -2.7624   23.2788 H   0  0  0  0  0  0
  -22.4122  -11.9896   22.4901 H   0  0  0  0  0  0
  -21.1017  -13.1174   22.2648 H   0  0  0  0  0  0
  -24.6456  -15.8549   20.6032 H   0  0  0  0  0  0
  -26.2706  -15.6554   20.1924 H   0  0  0  0  0  0
  -26.7378  -32.5100   23.0894 H   0  0  0  0  0  0
  -24.9968  -33.9456   25.0130 H   0  0  0  0  0  0
  -22.7893  -31.2669   21.3418 H   0  0  0  0  0  0
  -23.3758  -35.9560   23.3203 H   0  0  0  0  0  0
  -24.3607  -36.9000   22.2082 H   0  0  0  0  0  0
  -23.7251  -37.6389   23.6779 H   0  0  0  0  0  0
  -26.2104  -31.3640   20.6027 H   0  0  0  0  0  0
  -26.9120  -30.7002   22.0372 H   0  0  0  0  0  0
  -28.1571  -28.6020   21.2476 H   0  0  0  0  0  0
  -25.8708  -25.7026   19.0417 H   0  0  0  0  0  0
  -23.9846  -27.2385   18.9902 H   0  0  0  0  0  0
  -23.8880  -30.5144   19.3889 H   0  0  0  0  0  0
  -22.8261  -29.2127   19.8152 H   0  0  0  0  0  0
  -25.1307  -36.1728   25.0789 H   0  0  0  0  0  0
  -21.0046  -28.3356   24.1279 H   0  0  0  0  0  0
  -20.5618  -26.2370   23.3631 H   0  0  0  0  0  0
  -21.6660  -26.7361   22.1220 H   0  0  0  0  0  0
  -19.6919  -25.6257   21.1258 H   0  0  0  0  0  0
  -19.6696  -27.3139   20.6673 H   0  0  0  0  0  0
  -17.4204  -26.6614   21.4060 H   0  0  0  0  0  0
  -18.0408  -26.0108   22.9055 H   0  0  0  0  0  0
  -19.7966  -30.7271   24.2236 H   0  0  0  0  0  0
  -17.5047  -31.6243   24.5187 H   0  0  0  0  0  0
  -15.5383  -30.2960   23.7669 H   0  0  0  0  0  0
  -15.8727  -28.0813   22.7062 H   0  0  0  0  0  0
  -24.5680  -30.7373   25.7677 H   0  0  0  0  0  0
  -24.9061  -32.3039   26.4906 H   0  0  0  0  0  0
  -25.7861  -30.8811   27.0134 H   0  0  0  0  0  0
  -26.2951  -29.6533   24.1535 H   0  0  0  0  0  0
  -27.3957  -29.7261   25.5080 H   0  0  0  0  0  0
  -27.8906  -30.4000   23.9761 H   0  0  0  0  0  0
  -27.2548  -33.3560   26.2138 H   0  0  0  0  0  0
  -28.3823  -32.6961   25.0375 H   0  0  0  0  0  0
  -28.0719  -31.8434   26.5425 H   0  0  0  0  0  0
  -28.2490  -38.0144   24.7556 H   0  0  0  0  0  0
  -28.1175  -36.2664   24.6128 H   0  0  0  0  0  0
  -27.2330  -37.1233   25.8848 H   0  0  0  0  0  0
  -20.9572  -29.8756   21.6675 H   0  0  0  0  0  0
  -26.0089  -38.2745   24.1488 H   0  0  0  0  0  0
  -29.1601  -23.1543   22.1457 H   0  0  0  0  0  0
  -30.0903  -23.2200   20.6437 H   0  0  0  0  0  0
  -28.8164  -22.9710   18.6474 H   0  0  0  0  0  0
  -27.0870  -22.7442   18.9032 H   0  0  0  0  0  0
  -29.7908  -17.5710   18.5743 H   0  0  0  0  0  0
  -28.3070  -16.8337   19.0263 H   0  0  0  0  0  0
  -30.8047  -17.5548   22.1493 H   0  0  0  0  0  0
  -31.4483  -18.0248   20.6300 H   0  0  0  0  0  0
  -27.5193  -18.8402   20.2612 H   0  0  0  0  0  0
  -27.9809  -19.3392   18.6783 H   0  0  0  0  0  0
  -30.6486  -20.0780   21.7455 H   0  0  0  0  0  0
  -29.1470  -19.3676   22.1965 H   0  0  0  0  0  0
  -27.0990  -24.1505   21.0136 H   0  0  0  0  0  0
  -26.5896  -22.1874   21.7674 H   0  0  0  0  0  0
  -27.3346  -20.6838   22.2027 H   0  0  0  0  0  0
  -26.3686  -20.8038   20.7347 H   0  0  0  0  0  0
  -29.8861  -20.4504   19.5799 H   0  0  0  0  0  0
  1 25  1  0  0  0
  1 30  2  0  0  0
  1 80  1  0  0  0
  2  3  1  0  0  0
  2 25  1  0  0  0
  2 82  1  0  0  0
  2 83  1  0  0  0
  3  4  1  0  0  0
  3 84  1  0  0  0
  3 85  1  0  0  0
  4  5  1  0  0  0
  4 86  1  0  0  0
  4 87  1  0  0  0
  5  6  1  0  0  0
  5 26  1  0  0  0
  5 88  1  0  0  0
  6 25  1  0  0  0
  6 89  1  0  0  0
  6 90  1  0  0  0
  7  8  2  0  0  0
  7 26  1  0  0  0
  7 29  1  0  0  0
  8  9  1  0  0  0
  8 22  1  0  0  0
  9 10  1  0  0  0
  9 27  2  0  0  0
 10 11  2  0  0  0
 10 15  1  0  0  0
 11 12  1  0  0  0
 11 91  1  0  0  0
 12 13  2  0  0  0
 12 92  1  0  0  0
 13 14  1  0  0  0
 13 31  1  0  0  0
 14 15  2  0  0  0
 14 93  1  0  0  0
 15 94  1  0  0  0
 16 17  2  0  0  0
 16 21  1  0  0  0
 16 31  1  0  0  0
 17 18  1  0  0  0
 17 95  1  0  0  0
 18 19  2  0  0  0
 18 96  1  0  0  0
 19 20  1  0  0  0
 19 24  1  0  0  0
 20 21  2  0  0  0
 20 97  1  0  0  0
 21 23  1  0  0  0
 22 28  1  0  0  0
 22 32  2  0  0  0
 26 27  1  0  0  0
 28 98  1  0  0  0
 28 99  1  0  0  0
 29100  1  0  0  0
 29101  1  0  0  0
 33 34  1  0  0  0
 33 66  1  0  0  0
 33 70  2  0  0  0
 34 36  1  0  0  0
 34 59  1  0  0  0
 34102  1  0  0  0
 35 44  2  0  0  0
 35 45  1  0  0  0
 35 68  1  0  0  0
 36 56  1  0  0  0
 36103  1  0  0  0
 37 39  1  0  0  0
 37 47  1  0  0  0
 37 66  1  0  0  0
 37104  1  0  0  0
 38 43  2  0  0  0
 38 46  1  0  0  0
 38 47  1  0  0  0
 39 64  1  0  0  0
 39 67  2  0  0  0
 40 52  1  0  0  0
 40 53  2  0  0  0
 40 58  1  0  0  0
 41105  1  0  0  0
 41106  1  0  0  0
 41107  1  0  0  0
 41 48  1  0  0  0
 42 43  1  0  0  0
 42 66  1  0  0  0
 42108  1  0  0  0
 42109  1  0  0  0
 43 44  1  0  0  0
 44110  1  0  0  0
 45 46  2  0  0  0
 45111  1  0  0  0
 46112  1  0  0  0
 47113  1  0  0  0
 47114  1  0  0  0
 48 56  1  0  0  0
 48 65  1  0  0  0
 48115  1  0  0  0
 49 50  1  0  0  0
 49 53  1  0  0  0
 49 64  1  0  0  0
 49116  1  0  0  0
 50 51  1  0  0  0
 50117  1  0  0  0
 50118  1  0  0  0
 51 52  1  0  0  0
 51119  1  0  0  0
 51120  1  0  0  0
 52121  1  0  0  0
 52122  1  0  0  0
 53 54  1  0  0  0
 54 55  2  0  0  0
 54123  1  0  0  0
 55 57  1  0  0  0
 55124  1  0  0  0
 56 69  2  0  0  0
 57 58  2  0  0  0
 57125  1  0  0  0
 58126  1  0  0  0
 59 60  1  0  0  0
 59 61  1  0  0  0
 59 62  1  0  0  0
 60127  1  0  0  0
 60128  1  0  0  0
 60129  1  0  0  0
 61130  1  0  0  0
 61131  1  0  0  0
 61132  1  0  0  0
 62133  1  0  0  0
 62134  1  0  0  0
 62135  1  0  0  0
 63 65  1  0  0  0
 63136  1  0  0  0
 63137  1  0  0  0
 63138  1  0  0  0
 64139  1  0  0  0
 65140  1  0  0  0
 68 77  1  0  0  0
 71 77  1  0  0  0
 71 78  1  0  0  0
 71141  1  0  0  0
 71142  1  0  0  0
 72 77  1  0  0  0
 72 78  1  0  0  0
 72143  1  0  0  0
 72144  1  0  0  0
 73 75  1  0  0  0
 73 80  1  0  0  0
 73145  1  0  0  0
 73146  1  0  0  0
 74 76  1  0  0  0
 74 80  1  0  0  0
 74147  1  0  0  0
 74148  1  0  0  0
 75149  1  0  0  0
 75150  1  0  0  0
 75 81  1  0  0  0
 76 81  1  0  0  0
 76151  1  0  0  0
 76152  1  0  0  0
 77153  1  0  0  0
 78 79  1  0  0  0
 78 81  1  0  0  0
 79154  1  0  0  0
 79155  1  0  0  0
 79156  1  0  0  0
 81157  1  0  0  0
M  CHG  1  81   1
M  ISO  4   1 100  68 101  77 101  80 100
M  END
> <chiral flag>
0

> <version>
0

> <s_m_source_file>
/data/baiqing/PycharmProjects/Reinvent-master-3.2/result/LINK_invent/BTK/process_docking_weight1_custom_sum_contain_oxygen_bond_distance_aromatic_linkinvent_7_9_3/rearranged_h_0159.sdf

> <i_m_source_file_index>
68

> <r_mmod_Potential_Energy-OPLS-2005>
1456.3720703125

> <r_mmod_Stretch_Energy-OPLS-2005>
517.821838378906

> <r_mmod_Bend_Energy-OPLS-2005>
558.123901367188

> <r_mmod_Torsional_Energy-OPLS-2005>
405.498382568359

> <r_mmod_Improper_Torsional_Energy-OPLS-2005>
6.51787281036377

> <r_mmod_Van_der_Waal_Energy-OPLS-2005>
118.102226257324

> <r_mmod_Electrostatic_Energy-OPLS-2005>
-177.53352355957

> <r_mmod_Solvation_Energy-OPLS-2005>
-458.487701416016

> <b_mmod_Minimization_Converged-OPLS-2005>
0

> <r_mmod_RMS_Derivative-OPLS-2005>
4.54524898529053

$$$$
68
                    3D
 Structure written by MMmdl.
174184  0  0  1  0            999 V2000
  -30.7389  -14.3928   20.5380 C   0  0  0  0  0  0
  -30.4061  -12.2456   19.4187 C   0  0  0  0  0  0
  -29.4884  -12.4756   18.2026 C   0  0  0  0  0  0
  -28.0087  -12.3547   18.6161 C   0  0  0  0  0  0
  -27.6600  -13.1967   19.8725 C   0  0  2  0  0  0
  -28.7020  -12.9863   20.9950 C   0  0  0  0  0  0
  -25.2608  -13.8135   20.5698 C   0  0  0  0  0  0
  -24.1848  -13.0433   20.9174 C   0  0  0  0  0  0
  -24.6389  -11.6889   20.8737 C   0  0  0  0  0  0
  -23.9052  -10.4287   21.0404 C   0  0  0  0  0  0
  -24.3600   -9.4207   21.9187 C   0  0  0  0  0  0
  -23.6283   -8.2243   22.0758 C   0  0  0  0  0  0
  -22.4264   -8.0283   21.3551 C   0  0  0  0  0  0
  -21.9908   -9.0248   20.4640 C   0  0  0  0  0  0
  -22.7228  -10.2128   20.3056 C   0  0  0  0  0  0
  -21.6850   -6.0727   22.5281 C   0  0  0  0  0  0
  -21.4011   -6.5633   23.8215 C   0  0  0  0  0  0
  -21.3664   -5.6790   24.9177 C   0  0  0  0  0  0
  -21.6042   -4.3054   24.7222 C   0  0  0  0  0  0
  -21.8825   -3.8141   23.4345 C   0  0  0  0  0  0
  -21.9203   -4.6958   22.3404 C   0  0  0  0  0  0
  -22.7875  -13.5226   21.1835 C   0  0  0  0  0  0
  -22.1671   -4.2149   21.0980 F   0  0  0  0  0  0
  -21.5624   -3.4538   25.7733 F   0  0  0  0  0  0
  -30.0341  -13.2421   20.4295 N   0  0  0  0  0  0
  -26.3026  -12.9283   20.3376 N   0  0  0  0  0  0
  -25.9316  -11.6452   20.5788 N   0  0  0  0  0  0
  -22.0533  -12.8213   22.0386 N   0  0  0  0  0  0
  -25.4384  -15.1853   20.4111 N   0  0  0  0  0  0
  -31.9165  -14.4926   20.1846 O   0  0  0  0  0  0
  -21.6633   -6.8876   21.4250 O   0  0  0  0  0  0
  -22.3563  -14.5544   20.6702 O   0  0  0  0  0  0
  -24.6077  -31.8712   23.2128 C   0  0  0  0  0  0
  -25.9000  -32.4841   23.8402 C   0  0  1  0  0  0
  -27.2331  -27.4887   20.0843 C   0  0  0  0  0  0
  -25.5883  -33.8635   24.2356 N   0  0  0  0  0  0
  -23.3904  -30.4941   21.5540 C   0  0  2  0  0  0
  -24.8331  -28.9560   20.1267 C   0  0  0  0  0  0
  -22.7353  -29.4679   22.5036 C   0  0  0  0  0  0
  -18.0261  -28.1365   22.8488 C   0  0  0  0  0  0
  -24.1489  -36.7321   23.2635 C   0  0  0  0  0  0
  -25.9103  -30.8554   21.3504 C   0  0  0  0  0  0
  -25.9895  -29.4884   20.7088 C   0  0  0  0  0  0
  -27.1946  -28.7626   20.6781 C   0  0  0  0  0  0
  -26.0619  -26.9444   19.5163 C   0  0  0  0  0  0
  -24.8600  -27.6795   19.5335 C   0  0  0  0  0  0
  -23.5934  -29.8177   20.1708 C   0  0  0  0  0  0
  -25.4109  -36.3123   24.0347 C   0  0  1  0  0  0
  -20.5837  -28.3649   23.1341 C   0  0  2  0  0  0
  -20.6756  -26.9403   22.5419 C   0  0  0  0  0  0
  -19.5751  -26.6390   21.5194 C   0  0  0  0  0  0
  -18.1924  -26.7921   22.1603 C   0  0  0  0  0  0
  -19.1504  -28.8830   23.2908 C   0  0  0  0  0  0
  -18.9431  -30.1432   23.8930 C   0  0  0  0  0  0
  -17.6439  -30.6589   24.0569 C   0  0  0  0  0  0
  -25.9023  -34.9480   23.5144 C   0  0  0  0  0  0
  -16.5334  -29.9092   23.6313 C   0  0  0  0  0  0
  -16.7252  -28.6496   23.0353 C   0  0  0  0  0  0
  -26.4449  -31.6584   25.0697 C   0  0  0  0  0  0
  -25.3726  -31.3663   26.1452 C   0  0  0  0  0  0
  -27.0273  -30.3052   24.5982 C   0  0  0  0  0  0
  -27.6054  -32.4256   25.7472 C   0  0  0  0  0  0
  -27.5588  -37.1806   24.8468 C   0  0  0  0  0  0
  -21.4093  -29.3026   22.3760 N   0  0  0  0  0  0
  -26.4310  -37.3793   23.9401 N   0  0  0  0  0  0
  -24.6551  -31.0863   22.0996 N   0  0  0  0  0  0
  -23.4149  -28.8217   23.3058 O   0  0  0  0  0  0
  -28.4446  -26.8634   19.9946 O   0  0  0  0  0  0
  -26.5577  -34.8923   22.4695 O   0  0  0  0  0  0
  -23.5292  -32.1445   23.7563 O   0  0  0  0  0  0
  -30.9555  -19.6990   20.2883 C   0  0  0  0  0  0
  -30.9264  -18.8604   17.9999 C   0  0  0  0  0  0
  -31.4326  -21.1969   18.4212 C   0  0  0  0  0  0
  -30.8176  -18.6311   19.3857 C   0  0  0  0  0  0
  -31.2556  -20.9884   19.8075 C   0  0  0  0  0  0
  -31.2454  -20.1373   17.5014 C   0  0  0  0  0  0
  -29.2874  -23.2275   19.7810 C   0  0  0  0  0  0
  -30.4261  -24.2677   21.7379 C   0  0  0  0  0  0
  -28.7131  -24.5826   19.3442 C   0  0  0  0  0  0
  -29.8508  -25.6402   21.3749 C   0  0  0  0  0  0
  -30.6522  -16.7385   21.3316 C   0  0  0  0  0  0
  -29.4724  -16.3229   19.7210 C   0  0  0  0  0  0
  -30.7010  -17.2072   19.8766 C   0  0  0  0  0  0
  -30.6616  -23.4200   20.4714 C   0  0  1  0  0  0
  -28.5711  -25.5579   20.5230 C   0  0  2  0  0  0
  -32.9599  -22.3968   20.9766 C   0  0  0  0  0  0
  -31.7829  -21.5176   15.6116 C   0  0  0  0  0  0
  -31.4544  -22.1242   20.8008 C   0  0  2  0  0  0
  -30.0166  -15.4996   20.8269 N   0  0  0  0  0  0
  -31.3788  -20.2581   16.1356 O   0  0  0  0  0  0
  -31.4551  -12.3118   19.1216 H   0  0  0  0  0  0
  -30.2729  -11.2385   19.8190 H   0  0  0  0  0  0
  -29.7155  -11.7555   17.4163 H   0  0  0  0  0  0
  -29.6776  -13.4607   17.7759 H   0  0  0  0  0  0
  -27.8092  -11.3009   18.8136 H   0  0  0  0  0  0
  -27.3614  -12.6323   17.7844 H   0  0  0  0  0  0
  -27.6982  -14.2395   19.5644 H   0  0  0  0  0  0
  -28.6586  -11.9628   21.3701 H   0  0  0  0  0  0
  -28.4936  -13.6307   21.8520 H   0  0  0  0  0  0
  -25.2749   -9.5670   22.4746 H   0  0  0  0  0  0
  -23.9993   -7.4632   22.7472 H   0  0  0  0  0  0
  -21.0851   -8.8750   19.8929 H   0  0  0  0  0  0
  -22.3700  -10.9654   19.6147 H   0  0  0  0  0  0
  -21.1997   -7.6142   23.9709 H   0  0  0  0  0  0
  -21.1478   -6.0521   25.9077 H   0  0  0  0  0  0
  -22.0601   -2.7608   23.2841 H   0  0  0  0  0  0
  -22.4162  -11.9860   22.4738 H   0  0  0  0  0  0
  -21.1156  -13.1235   22.2604 H   0  0  0  0  0  0
  -24.6821  -15.8496   20.5268 H   0  0  0  0  0  0
  -26.3072  -15.6211   20.1300 H   0  0  0  0  0  0
  -26.7072  -32.5579   23.1170 H   0  0  0  0  0  0
  -25.0058  -33.9803   25.0524 H   0  0  0  0  0  0
  -22.6770  -31.3090   21.4129 H   0  0  0  0  0  0
  -23.3750  -35.9653   23.3304 H   0  0  0  0  0  0
  -24.3578  -36.8921   22.2043 H   0  0  0  0  0  0
  -23.7241  -37.6535   23.6634 H   0  0  0  0  0  0
  -25.9980  -31.6177   20.5748 H   0  0  0  0  0  0
  -26.8086  -30.9238   21.9522 H   0  0  0  0  0  0
  -28.1002  -29.1801   21.0957 H   0  0  0  0  0  0
  -26.0796  -25.9769   19.0358 H   0  0  0  0  0  0
  -23.9670  -27.2660   19.0843 H   0  0  0  0  0  0
  -23.6942  -30.5866   19.4040 H   0  0  0  0  0  0
  -22.7194  -29.2306   19.8829 H   0  0  0  0  0  0
  -25.1279  -36.2012   25.0846 H   0  0  0  0  0  0
  -20.9913  -28.3210   24.1463 H   0  0  0  0  0  0
  -20.5656  -26.2252   23.3580 H   0  0  0  0  0  0
  -21.6630  -26.7457   22.1217 H   0  0  0  0  0  0
  -19.6923  -25.6296   21.1229 H   0  0  0  0  0  0
  -19.6707  -27.3186   20.6710 H   0  0  0  0  0  0
  -17.4184  -26.6656   21.4017 H   0  0  0  0  0  0
  -18.0354  -26.0059   22.8999 H   0  0  0  0  0  0
  -19.7909  -30.7235   24.2328 H   0  0  0  0  0  0
  -17.4999  -31.6278   24.5152 H   0  0  0  0  0  0
  -15.5339  -30.3015   23.7621 H   0  0  0  0  0  0
  -15.8641  -28.0829   22.7070 H   0  0  0  0  0  0
  -24.5903  -30.7000   25.7777 H   0  0  0  0  0  0
  -24.8897  -32.2812   26.4908 H   0  0  0  0  0  0
  -25.8083  -30.8826   27.0204 H   0  0  0  0  0  0
  -26.2784  -29.6836   24.1049 H   0  0  0  0  0  0
  -27.4120  -29.7258   25.4387 H   0  0  0  0  0  0
  -27.8587  -30.4429   23.9055 H   0  0  0  0  0  0
  -27.2701  -33.3537   26.2115 H   0  0  0  0  0  0
  -28.3851  -32.6818   25.0284 H   0  0  0  0  0  0
  -28.0725  -31.8306   26.5335 H   0  0  0  0  0  0
  -28.2611  -38.0096   24.7514 H   0  0  0  0  0  0
  -28.1076  -36.2626   24.6306 H   0  0  0  0  0  0
  -27.2292  -37.1472   25.8867 H   0  0  0  0  0  0
  -20.9238  -29.8756   21.6989 H   0  0  0  0  0  0
  -26.0221  -38.2885   24.1381 H   0  0  0  0  0  0
  -30.8784  -19.5225   21.3520 H   0  0  0  0  0  0
  -30.8183  -18.0322   17.3132 H   0  0  0  0  0  0
  -31.6901  -22.1900   18.0854 H   0  0  0  0  0  0
  -29.3486  -22.6048   18.8913 H   0  0  0  0  0  0
  -28.5952  -22.7215   20.4548 H   0  0  0  0  0  0
  -29.7498  -23.7501   22.4183 H   0  0  0  0  0  0
  -31.3551  -24.4146   22.2878 H   0  0  0  0  0  0
  -27.7494  -24.4357   18.8584 H   0  0  0  0  0  0
  -29.3674  -25.0195   18.5877 H   0  0  0  0  0  0
  -30.6153  -26.1919   20.8265 H   0  0  0  0  0  0
  -29.6540  -26.2183   22.2783 H   0  0  0  0  0  0
  -29.9946  -17.3286   21.9741 H   0  0  0  0  0  0
  -31.6374  -16.6238   21.7892 H   0  0  0  0  0  0
  -29.4130  -15.8422   18.7426 H   0  0  0  0  0  0
  -28.5332  -16.8240   19.9642 H   0  0  0  0  0  0
  -31.5525  -16.7397   19.3793 H   0  0  0  0  0  0
  -31.2791  -23.9932   19.7752 H   0  0  0  0  0  0
  -27.7233  -25.2721   21.1504 H   0  0  0  0  0  0
  -33.4857  -21.4908   21.2802 H   0  0  0  0  0  0
  -33.1554  -23.1510   21.7393 H   0  0  0  0  0  0
  -33.4149  -22.7418   20.0468 H   0  0  0  0  0  0
  -31.8619  -21.4474   14.5266 H   0  0  0  0  0  0
  -32.7617  -21.8135   15.9926 H   0  0  0  0  0  0
  -31.0563  -22.2987   15.8390 H   0  0  0  0  0  0
  -31.0795  -21.7612   21.7584 H   0  0  0  0  0  0
  1 25  1  0  0  0
  1 30  2  0  0  0
  1 89  1  0  0  0
  2  3  1  0  0  0
  2 25  1  0  0  0
  2 91  1  0  0  0
  2 92  1  0  0  0
  3  4  1  0  0  0
  3 93  1  0  0  0
  3 94  1  0  0  0
  4  5  1  0  0  0
  4 95  1  0  0  0
  4 96  1  0  0  0
  5  6  1  0  0  0
  5 26  1  0  0  0
  5 97  1  0  0  0
  6 25  1  0  0  0
  6 98  1  0  0  0
  6 99  1  0  0  0
  7  8  2  0  0  0
  7 26  1  0  0  0
  7 29  1  0  0  0
  8  9  1  0  0  0
  8 22  1  0  0  0
  9 10  1  0  0  0
  9 27  2  0  0  0
 10 11  2  0  0  0
 10 15  1  0  0  0
 11 12  1  0  0  0
 11100  1  0  0  0
 12 13  2  0  0  0
 12101  1  0  0  0
 13 14  1  0  0  0
 13 31  1  0  0  0
 14 15  2  0  0  0
 14102  1  0  0  0
 15103  1  0  0  0
 16 17  2  0  0  0
 16 21  1  0  0  0
 16 31  1  0  0  0
 17 18  1  0  0  0
 17104  1  0  0  0
 18 19  2  0  0  0
 18105  1  0  0  0
 19 20  1  0  0  0
 19 24  1  0  0  0
 20 21  2  0  0  0
 20106  1  0  0  0
 21 23  1  0  0  0
 22 28  1  0  0  0
 22 32  2  0  0  0
 26 27  1  0  0  0
 28107  1  0  0  0
 28108  1  0  0  0
 29109  1  0  0  0
 29110  1  0  0  0
 33 34  1  0  0  0
 33 66  1  0  0  0
 33 70  2  0  0  0
 34 36  1  0  0  0
 34 59  1  0  0  0
 34111  1  0  0  0
 35 44  2  0  0  0
 35 45  1  0  0  0
 35 68  1  0  0  0
 36 56  1  0  0  0
 36112  1  0  0  0
 37 39  1  0  0  0
 37 47  1  0  0  0
 37 66  1  0  0  0
 37113  1  0  0  0
 38 43  2  0  0  0
 38 46  1  0  0  0
 38 47  1  0  0  0
 39 64  1  0  0  0
 39 67  2  0  0  0
 40 52  1  0  0  0
 40 53  2  0  0  0
 40 58  1  0  0  0
 41114  1  0  0  0
 41115  1  0  0  0
 41116  1  0  0  0
 41 48  1  0  0  0
 42 43  1  0  0  0
 42 66  1  0  0  0
 42117  1  0  0  0
 42118  1  0  0  0
 43 44  1  0  0  0
 44119  1  0  0  0
 45 46  2  0  0  0
 45120  1  0  0  0
 46121  1  0  0  0
 47122  1  0  0  0
 47123  1  0  0  0
 48 56  1  0  0  0
 48 65  1  0  0  0
 48124  1  0  0  0
 49 50  1  0  0  0
 49 53  1  0  0  0
 49 64  1  0  0  0
 49125  1  0  0  0
 50 51  1  0  0  0
 50126  1  0  0  0
 50127  1  0  0  0
 51 52  1  0  0  0
 51128  1  0  0  0
 51129  1  0  0  0
 52130  1  0  0  0
 52131  1  0  0  0
 53 54  1  0  0  0
 54 55  2  0  0  0
 54132  1  0  0  0
 55 57  1  0  0  0
 55133  1  0  0  0
 56 69  2  0  0  0
 57 58  2  0  0  0
 57134  1  0  0  0
 58135  1  0  0  0
 59 60  1  0  0  0
 59 61  1  0  0  0
 59 62  1  0  0  0
 60136  1  0  0  0
 60137  1  0  0  0
 60138  1  0  0  0
 61139  1  0  0  0
 61140  1  0  0  0
 61141  1  0  0  0
 62142  1  0  0  0
 62143  1  0  0  0
 62144  1  0  0  0
 63 65  1  0  0  0
 63145  1  0  0  0
 63146  1  0  0  0
 63147  1  0  0  0
 64148  1  0  0  0
 65149  1  0  0  0
 68 85  1  0  0  0
 71 74  2  0  0  0
 71 75  1  0  0  0
 71150  1  0  0  0
 72 74  1  0  0  0
 72 76  2  0  0  0
 72151  1  0  0  0
 73 75  2  0  0  0
 73 76  1  0  0  0
 73152  1  0  0  0
 74 83  1  0  0  0
 75 88  1  0  0  0
 76 90  1  0  0  0
 77 79  1  0  0  0
 77153  1  0  0  0
 77154  1  0  0  0
 77 84  1  0  0  0
 78 80  1  0  0  0
 78 84  1  0  0  0
 78155  1  0  0  0
 78156  1  0  0  0
 79 85  1  0  0  0
 79157  1  0  0  0
 79158  1  0  0  0
 80 85  1  0  0  0
 80159  1  0  0  0
 80160  1  0  0  0
 81 83  1  0  0  0
 81 89  1  0  0  0
 81161  1  0  0  0
 81162  1  0  0  0
 82 83  1  0  0  0
 82 89  1  0  0  0
 82163  1  0  0  0
 82164  1  0  0  0
 83165  1  0  0  0
 84 88  1  0  0  0
 84166  1  0  0  0
 85167  1  0  0  0
 86168  1  0  0  0
 86169  1  0  0  0
 86170  1  0  0  0
 86 88  1  0  0  0
 87 90  1  0  0  0
 87171  1  0  0  0
 87172  1  0  0  0
 87173  1  0  0  0
 88174  1  0  0  0
M  ISO  4   1 100  68 101  85 101  89 100
M  END
> <chiral flag>
0

> <version>
0

> <s_m_source_file>
/data/baiqing/PycharmProjects/Reinvent-master-3.2/result/LINK_invent/BTK/process_docking_weight1_custom_sum_contain_oxygen_bond_distance_aromatic_linkinvent_7_9_3/rearranged_h_0159.sdf

> <i_m_source_file_index>
69

> <r_mmod_Potential_Energy-OPLS-2005>
113.782318115234

> <r_mmod_Stretch_Energy-OPLS-2005>
34.526683807373

> <r_mmod_Bend_Energy-OPLS-2005>
127.787109375

> <r_mmod_Torsional_Energy-OPLS-2005>
303.934875488281

> <r_mmod_Improper_Torsional_Energy-OPLS-2005>
13.8201684951782

> <r_mmod_Van_der_Waal_Energy-OPLS-2005>
176.452209472656

> <r_mmod_Electrostatic_Energy-OPLS-2005>
-361.079711914062

> <r_mmod_Solvation_Energy-OPLS-2005>
-198.597091674805

> <b_mmod_Minimization_Converged-OPLS-2005>
0

> <r_mmod_RMS_Derivative-OPLS-2005>
2.40530323982239

$$$$
69
                    3D
 Structure written by MMmdl.
168177  0  0  1  0            999 V2000
  -30.5752  -14.7956   20.4722 C   0  0  0  0  0  0
  -30.4398  -12.4890   19.4932 C   0  0  0  0  0  0
  -29.5214  -12.5379   18.2517 C   0  0  0  0  0  0
  -28.0432  -12.3582   18.6487 C   0  0  0  0  0  0
  -27.6438  -13.2406   19.8613 C   0  0  2  0  0  0
  -28.6839  -13.1657   21.0013 C   0  0  0  0  0  0
  -25.2485  -13.8206   20.5735 C   0  0  0  0  0  0
  -24.1775  -13.0439   20.9187 C   0  0  0  0  0  0
  -24.6371  -11.6923   20.8708 C   0  0  0  0  0  0
  -23.9053  -10.4294   21.0384 C   0  0  0  0  0  0
  -24.3615   -9.4219   21.9164 C   0  0  0  0  0  0
  -23.6278   -8.2263   22.0739 C   0  0  0  0  0  0
  -22.4261   -8.0295   21.3539 C   0  0  0  0  0  0
  -21.9882   -9.0263   20.4649 C   0  0  0  0  0  0
  -22.7220  -10.2127   20.3045 C   0  0  0  0  0  0
  -21.6854   -6.0721   22.5262 C   0  0  0  0  0  0
  -21.4030   -6.5625   23.8202 C   0  0  0  0  0  0
  -21.3667   -5.6777   24.9168 C   0  0  0  0  0  0
  -21.6046   -4.3043   24.7211 C   0  0  0  0  0  0
  -21.8829   -3.8132   23.4336 C   0  0  0  0  0  0
  -21.9193   -4.6948   22.3384 C   0  0  0  0  0  0
  -22.7795  -13.5223   21.1862 C   0  0  0  0  0  0
  -22.1661   -4.2141   21.0963 F   0  0  0  0  0  0
  -21.5621   -3.4523   25.7719 F   0  0  0  0  0  0
  -29.9887  -13.5425   20.4382 N   0  0  0  0  0  0
  -26.2921  -12.9438   20.3296 N   0  0  0  0  0  0
  -25.9305  -11.6566   20.5728 N   0  0  0  0  0  0
  -22.0437  -12.8211   22.0416 N   0  0  0  0  0  0
  -25.4172  -15.1944   20.4286 N   0  0  0  0  0  0
  -31.7205  -14.9412   20.0378 O   0  0  0  0  0  0
  -21.6639   -6.8867   21.4230 O   0  0  0  0  0  0
  -22.3496  -14.5530   20.6708 O   0  0  0  0  0  0
  -24.6336  -31.8541   23.1984 C   0  0  0  0  0  0
  -25.9160  -32.4746   23.8326 C   0  0  1  0  0  0
  -27.1994  -27.2308   20.1340 C   0  0  0  0  0  0
  -25.5940  -33.8545   24.2249 N   0  0  0  0  0  0
  -23.4292  -30.4783   21.5431 C   0  0  2  0  0  0
  -24.8723  -28.9251   20.1067 C   0  0  0  0  0  0
  -22.7515  -29.4578   22.4906 C   0  0  0  0  0  0
  -18.0297  -28.1388   22.8483 C   0  0  0  0  0  0
  -24.1475  -36.7274   23.2635 C   0  0  0  0  0  0
  -25.9783  -30.7577   21.3823 C   0  0  0  0  0  0
  -26.0460  -29.3784   20.7235 C   0  0  0  0  0  0
  -27.2122  -28.5437   20.7261 C   0  0  0  0  0  0
  -26.0045  -26.8555   19.4821 C   0  0  0  0  0  0
  -24.8577  -27.6732   19.4761 C   0  0  0  0  0  0
  -23.6461  -29.8185   20.1567 C   0  0  0  0  0  0
  -25.4100  -36.3057   24.0323 C   0  0  1  0  0  0
  -20.5906  -28.3689   23.1274 C   0  0  2  0  0  0
  -20.6792  -26.9396   22.5422 C   0  0  0  0  0  0
  -19.5761  -26.6371   21.5228 C   0  0  0  0  0  0
  -18.1933  -26.7936   22.1624 C   0  0  0  0  0  0
  -19.1548  -28.8861   23.2875 C   0  0  0  0  0  0
  -18.9471  -30.1464   23.8885 C   0  0  0  0  0  0
  -17.6470  -30.6588   24.0565 C   0  0  0  0  0  0
  -25.9049  -34.9434   23.5090 C   0  0  0  0  0  0
  -16.5365  -29.9080   23.6323 C   0  0  0  0  0  0
  -16.7279  -28.6496   23.0347 C   0  0  0  0  0  0
  -26.4503  -31.6591   25.0732 C   0  0  0  0  0  0
  -25.3723  -31.3806   26.1459 C   0  0  0  0  0  0
  -27.0341  -30.2985   24.6269 C   0  0  0  0  0  0
  -27.6044  -32.4337   25.7517 C   0  0  0  0  0  0
  -27.5572  -37.1783   24.8449 C   0  0  0  0  0  0
  -21.4216  -29.3026   22.3647 N   0  0  0  0  0  0
  -26.4268  -37.3764   23.9417 N   0  0  0  0  0  0
  -24.6998  -31.0489   22.0969 N   0  0  0  0  0  0
  -23.4204  -28.8117   23.3008 O   0  0  0  0  0  0
  -28.2750  -26.3089   20.2079 O   0  0  0  0  0  0
  -26.5618  -34.8918   22.4654 O   0  0  0  0  0  0
  -23.5477  -32.1370   23.7265 O   0  0  0  0  0  0
  -29.7734  -18.4607   21.3939 C   0  0  0  0  0  0
  -29.4512  -17.6590   19.1505 C   0  0  0  0  0  0
  -29.4961  -19.7941   20.8972 C   0  0  0  0  0  0
  -29.7549  -17.3172   20.5008 C   0  0  0  0  0  0
  -29.1562  -19.9636   19.5777 C   0  0  0  0  0  0
  -29.4508  -21.1920   21.5757 C   0  0  2  0  0  0
  -28.7703  -21.4465   19.2553 C   0  0  2  0  0  0
  -28.7830  -21.0868   22.9586 C   0  0  0  0  0  0
  -27.3405  -21.4851   18.6790 C   0  0  0  0  0  0
  -29.9453  -21.4447   16.8814 C   0  0  0  0  0  0
  -29.2683  -24.1958   22.1559 C   0  0  0  0  0  0
  -29.7908  -22.0974   18.2716 C   0  0  0  0  0  0
  -28.0084  -24.8173   20.0820 C   0  0  0  0  0  0
  -29.0488  -23.7212   20.7007 C   0  0  2  0  0  0
  -29.1392  -18.9168   18.7060 N   0  0  0  0  0  0
  -29.8310  -15.8814   20.9321 N   0  0  0  0  0  0
  -28.7497  -22.1669   20.6084 N   0  3  2  0  0  0
  -31.4811  -12.6219   19.1988 H   0  0  0  0  0  0
  -30.3929  -11.5082   19.9661 H   0  0  0  0  0  0
  -29.8107  -11.7692   17.5339 H   0  0  0  0  0  0
  -29.6493  -13.4932   17.7430 H   0  0  0  0  0  0
  -27.8902  -11.3055   18.8874 H   0  0  0  0  0  0
  -27.3993  -12.5771   17.7967 H   0  0  0  0  0  0
  -27.6390  -14.2675   19.4951 H   0  0  0  0  0  0
  -28.7193  -12.1598   21.4216 H   0  0  0  0  0  0
  -28.4008  -13.8233   21.8254 H   0  0  0  0  0  0
  -25.2758   -9.5703   22.4750 H   0  0  0  0  0  0
  -23.9992   -7.4644   22.7443 H   0  0  0  0  0  0
  -21.0808   -8.8774   19.8949 H   0  0  0  0  0  0
  -22.3660  -10.9667   19.6163 H   0  0  0  0  0  0
  -21.2042   -7.6127   23.9701 H   0  0  0  0  0  0
  -21.1476   -6.0507   25.9070 H   0  0  0  0  0  0
  -22.0603   -2.7587   23.2835 H   0  0  0  0  0  0
  -22.4025  -11.9882   22.4842 H   0  0  0  0  0  0
  -21.1063  -13.1276   22.2616 H   0  0  0  0  0  0
  -24.6549  -15.8491   20.5610 H   0  0  0  0  0  0
  -26.2797  -15.6454   20.1523 H   0  0  0  0  0  0
  -26.7234  -32.5379   23.1071 H   0  0  0  0  0  0
  -25.0092  -33.9678   25.0396 H   0  0  0  0  0  0
  -22.7255  -31.3018   21.4029 H   0  0  0  0  0  0
  -23.3758  -35.9582   23.3262 H   0  0  0  0  0  0
  -24.3577  -36.8935   22.2059 H   0  0  0  0  0  0
  -23.7219  -37.6457   23.6688 H   0  0  0  0  0  0
  -26.1223  -31.5164   20.6114 H   0  0  0  0  0  0
  -26.8547  -30.8036   22.0171 H   0  0  0  0  0  0
  -28.1076  -28.8740   21.2325 H   0  0  0  0  0  0
  -25.9187  -25.9016   18.9831 H   0  0  0  0  0  0
  -23.9586  -27.3236   18.9864 H   0  0  0  0  0  0
  -23.7755  -30.5999   19.4063 H   0  0  0  0  0  0
  -22.7600  -29.2600   19.8475 H   0  0  0  0  0  0
  -25.1278  -36.1890   25.0814 H   0  0  0  0  0  0
  -21.0006  -28.3291   24.1395 H   0  0  0  0  0  0
  -20.5691  -26.2293   23.3634 H   0  0  0  0  0  0
  -21.6667  -26.7413   22.1221 H   0  0  0  0  0  0
  -19.6915  -25.6278   21.1264 H   0  0  0  0  0  0
  -19.6711  -27.3172   20.6754 H   0  0  0  0  0  0
  -17.4207  -26.6701   21.4021 H   0  0  0  0  0  0
  -18.0299  -26.0084   22.9015 H   0  0  0  0  0  0
  -19.7947  -30.7290   24.2255 H   0  0  0  0  0  0
  -17.5015  -31.6275   24.5165 H   0  0  0  0  0  0
  -15.5364  -30.2975   23.7654 H   0  0  0  0  0  0
  -15.8685  -28.0812   22.7063 H   0  0  0  0  0  0
  -24.5844  -30.7203   25.7818 H   0  0  0  0  0  0
  -24.8982  -32.3018   26.4858 H   0  0  0  0  0  0
  -25.8008  -30.8996   27.0263 H   0  0  0  0  0  0
  -26.2939  -29.6744   24.1246 H   0  0  0  0  0  0
  -27.3944  -29.7233   25.4816 H   0  0  0  0  0  0
  -27.8852  -30.4230   23.9569 H   0  0  0  0  0  0
  -27.2636  -33.3645   26.2071 H   0  0  0  0  0  0
  -28.3872  -32.6900   25.0363 H   0  0  0  0  0  0
  -28.0702  -31.8494   26.5471 H   0  0  0  0  0  0
  -28.2557  -38.0101   24.7504 H   0  0  0  0  0  0
  -28.1097  -36.2640   24.6239 H   0  0  0  0  0  0
  -27.2309  -37.1395   25.8853 H   0  0  0  0  0  0
  -20.9391  -29.8748   21.6861 H   0  0  0  0  0  0
  -26.0144  -38.2824   24.1451 H   0  0  0  0  0  0
  -29.9689  -18.3183   22.4466 H   0  0  0  0  0  0
  -29.3765  -16.8778   18.4089 H   0  0  0  0  0  0
  -30.4854  -21.5196   21.6926 H   0  0  0  0  0  0
  -27.7619  -20.7119   22.8948 H   0  0  0  0  0  0
  -28.7601  -22.0282   23.4994 H   0  0  0  0  0  0
  -29.3474  -20.4028   23.5920 H   0  0  0  0  0  0
  -27.2663  -20.9163   17.7525 H   0  0  0  0  0  0
  -27.0130  -22.5014   18.4639 H   0  0  0  0  0  0
  -26.6242  -21.0454   19.3725 H   0  0  0  0  0  0
  -30.6620  -21.9987   16.2758 H   0  0  0  0  0  0
  -29.0075  -21.4369   16.3262 H   0  0  0  0  0  0
  -30.3104  -20.4200   16.9368 H   0  0  0  0  0  0
  -29.4891  -25.2643   22.1861 H   0  0  0  0  0  0
  -30.1108  -23.7032   22.6392 H   0  0  0  0  0  0
  -28.3736  -24.0617   22.7654 H   0  0  0  0  0  0
  -30.7714  -22.1201   18.7478 H   0  0  0  0  0  0
  -29.5125  -23.1348   18.0920 H   0  0  0  0  0  0
  -27.0424  -24.6148   20.5463 H   0  0  0  0  0  0
  -27.8698  -24.6066   19.0228 H   0  0  0  0  0  0
  -30.0031  -23.8896   20.2046 H   0  0  0  0  0  0
  -29.0398  -15.5867   21.4866 H   0  0  0  0  0  0
  -27.7844  -22.0704   20.8856 H   0  0  0  0  0  0
  1 25  1  0  0  0
  1 30  2  0  0  0
  1 86  1  0  0  0
  2  3  1  0  0  0
  2 25  1  0  0  0
  2 88  1  0  0  0
  2 89  1  0  0  0
  3  4  1  0  0  0
  3 90  1  0  0  0
  3 91  1  0  0  0
  4  5  1  0  0  0
  4 92  1  0  0  0
  4 93  1  0  0  0
  5  6  1  0  0  0
  5 26  1  0  0  0
  5 94  1  0  0  0
  6 25  1  0  0  0
  6 95  1  0  0  0
  6 96  1  0  0  0
  7  8  2  0  0  0
  7 26  1  0  0  0
  7 29  1  0  0  0
  8  9  1  0  0  0
  8 22  1  0  0  0
  9 10  1  0  0  0
  9 27  2  0  0  0
 10 11  2  0  0  0
 10 15  1  0  0  0
 11 12  1  0  0  0
 11 97  1  0  0  0
 12 13  2  0  0  0
 12 98  1  0  0  0
 13 14  1  0  0  0
 13 31  1  0  0  0
 14 15  2  0  0  0
 14 99  1  0  0  0
 15100  1  0  0  0
 16 17  2  0  0  0
 16 21  1  0  0  0
 16 31  1  0  0  0
 17 18  1  0  0  0
 17101  1  0  0  0
 18 19  2  0  0  0
 18102  1  0  0  0
 19 20  1  0  0  0
 19 24  1  0  0  0
 20 21  2  0  0  0
 20103  1  0  0  0
 21 23  1  0  0  0
 22 28  1  0  0  0
 22 32  2  0  0  0
 26 27  1  0  0  0
 28104  1  0  0  0
 28105  1  0  0  0
 29106  1  0  0  0
 29107  1  0  0  0
 33 34  1  0  0  0
 33 66  1  0  0  0
 33 70  2  0  0  0
 34 36  1  0  0  0
 34 59  1  0  0  0
 34108  1  0  0  0
 35 44  2  0  0  0
 35 45  1  0  0  0
 35 68  1  0  0  0
 36 56  1  0  0  0
 36109  1  0  0  0
 37 39  1  0  0  0
 37 47  1  0  0  0
 37 66  1  0  0  0
 37110  1  0  0  0
 38 43  2  0  0  0
 38 46  1  0  0  0
 38 47  1  0  0  0
 39 64  1  0  0  0
 39 67  2  0  0  0
 40 52  1  0  0  0
 40 53  2  0  0  0
 40 58  1  0  0  0
 41111  1  0  0  0
 41112  1  0  0  0
 41113  1  0  0  0
 41 48  1  0  0  0
 42 43  1  0  0  0
 42 66  1  0  0  0
 42114  1  0  0  0
 42115  1  0  0  0
 43 44  1  0  0  0
 44116  1  0  0  0
 45 46  2  0  0  0
 45117  1  0  0  0
 46118  1  0  0  0
 47119  1  0  0  0
 47120  1  0  0  0
 48 56  1  0  0  0
 48 65  1  0  0  0
 48121  1  0  0  0
 49 50  1  0  0  0
 49 53  1  0  0  0
 49 64  1  0  0  0
 49122  1  0  0  0
 50 51  1  0  0  0
 50123  1  0  0  0
 50124  1  0  0  0
 51 52  1  0  0  0
 51125  1  0  0  0
 51126  1  0  0  0
 52127  1  0  0  0
 52128  1  0  0  0
 53 54  1  0  0  0
 54 55  2  0  0  0
 54129  1  0  0  0
 55 57  1  0  0  0
 55130  1  0  0  0
 56 69  2  0  0  0
 57 58  2  0  0  0
 57131  1  0  0  0
 58132  1  0  0  0
 59 60  1  0  0  0
 59 61  1  0  0  0
 59 62  1  0  0  0
 60133  1  0  0  0
 60134  1  0  0  0
 60135  1  0  0  0
 61136  1  0  0  0
 61137  1  0  0  0
 61138  1  0  0  0
 62139  1  0  0  0
 62140  1  0  0  0
 62141  1  0  0  0
 63 65  1  0  0  0
 63142  1  0  0  0
 63143  1  0  0  0
 63144  1  0  0  0
 64145  1  0  0  0
 65146  1  0  0  0
 68 83  1  0  0  0
 71 73  2  0  0  0
 71 74  1  0  0  0
 71147  1  0  0  0
 72 74  2  0  0  0
 72 85  1  0  0  0
 72148  1  0  0  0
 73 75  1  0  0  0
 73 76  1  0  0  0
 74 86  1  0  0  0
 75 77  1  0  0  0
 75 85  2  0  0  0
 76 78  1  0  0  0
 76 87  1  0  0  0
 76149  1  0  0  0
 77 79  1  0  0  0
 77 82  1  0  0  0
 77 87  1  0  0  0
 78150  1  0  0  0
 78151  1  0  0  0
 78152  1  0  0  0
 79153  1  0  0  0
 79154  1  0  0  0
 79155  1  0  0  0
 80 82  1  0  0  0
 80156  1  0  0  0
 80157  1  0  0  0
 80158  1  0  0  0
 81159  1  0  0  0
 81160  1  0  0  0
 81161  1  0  0  0
 81 84  1  0  0  0
 82162  1  0  0  0
 82163  1  0  0  0
 83 84  1  0  0  0
 83164  1  0  0  0
 83165  1  0  0  0
 84166  1  0  0  0
 84 87  1  0  0  0
 86167  1  0  0  0
 87168  1  0  0  0
M  CHG  1  87   1
M  ISO  4   1 100  68 101  83 101  86 100
M  END
> <chiral flag>
0

> <version>
0

> <s_m_source_file>
/data/baiqing/PycharmProjects/Reinvent-master-3.2/result/LINK_invent/BTK/process_docking_weight1_custom_sum_contain_oxygen_bond_distance_aromatic_linkinvent_7_9_3/rearranged_h_0159.sdf

> <i_m_source_file_index>
70

> <r_mmod_Potential_Energy-OPLS-2005>
63.1898040771484

> <r_mmod_Stretch_Energy-OPLS-2005>
154.540252685547

> <r_mmod_Bend_Energy-OPLS-2005>
229.109619140625

> <r_mmod_Torsional_Energy-OPLS-2005>
260.342620849609

> <r_mmod_Improper_Torsional_Energy-OPLS-2005>
4.09005212783813

> <r_mmod_Van_der_Waal_Energy-OPLS-2005>
134.733474731445

> <r_mmod_Electrostatic_Energy-OPLS-2005>
-395.229919433594

> <r_mmod_Solvation_Energy-OPLS-2005>
-432.890441894531

> <b_mmod_Minimization_Converged-OPLS-2005>
0

> <r_mmod_RMS_Derivative-OPLS-2005>
3.39211249351501

$$$$
70
                    3D
 Structure written by MMmdl.
170179  0  0  1  0            999 V2000
  -30.7499  -14.6891   20.4627 C   0  0  0  0  0  0
  -30.4026  -12.4418   19.4532 C   0  0  0  0  0  0
  -29.4845  -12.4898   18.2182 C   0  0  0  0  0  0
  -28.0193  -12.3137   18.6506 C   0  0  0  0  0  0
  -27.6344  -13.2305   19.8438 C   0  0  2  0  0  0
  -28.6953  -13.1961   20.9690 C   0  0  0  0  0  0
  -25.2504  -13.8203   20.5744 C   0  0  0  0  0  0
  -24.1790  -13.0442   20.9224 C   0  0  0  0  0  0
  -24.6382  -11.6919   20.8772 C   0  0  0  0  0  0
  -23.9057  -10.4299   21.0418 C   0  0  0  0  0  0
  -24.3608   -9.4208   21.9189 C   0  0  0  0  0  0
  -23.6289   -8.2237   22.0744 C   0  0  0  0  0  0
  -22.4277   -8.0271   21.3528 C   0  0  0  0  0  0
  -21.9908   -9.0252   20.4640 C   0  0  0  0  0  0
  -22.7231  -10.2140   20.3059 C   0  0  0  0  0  0
  -21.6857   -6.0723   22.5271 C   0  0  0  0  0  0
  -21.4021   -6.5628   23.8206 C   0  0  0  0  0  0
  -21.3664   -5.6776   24.9166 C   0  0  0  0  0  0
  -21.6050   -4.3040   24.7219 C   0  0  0  0  0  0
  -21.8824   -3.8134   23.4341 C   0  0  0  0  0  0
  -21.9197   -4.6951   22.3399 C   0  0  0  0  0  0
  -22.7810  -13.5229   21.1851 C   0  0  0  0  0  0
  -22.1661   -4.2130   21.0976 F   0  0  0  0  0  0
  -21.5631   -3.4530   25.7739 F   0  0  0  0  0  0
  -29.9801  -13.5471   20.3518 N   0  0  0  0  0  0
  -26.2927  -12.9407   20.3343 N   0  0  0  0  0  0
  -25.9320  -11.6550   20.5814 N   0  0  0  0  0  0
  -22.0442  -12.8245   22.0419 N   0  0  0  0  0  0
  -25.4186  -15.1929   20.4159 N   0  0  0  0  0  0
  -31.9533  -14.5663   20.2280 O   0  0  0  0  0  0
  -21.6638   -6.8868   21.4230 O   0  0  0  0  0  0
  -22.3504  -14.5521   20.6661 O   0  0  0  0  0  0
  -24.6291  -31.8598   23.2030 C   0  0  0  0  0  0
  -25.9129  -32.4777   23.8362 C   0  0  1  0  0  0
  -27.2135  -27.2944   20.1168 C   0  0  0  0  0  0
  -25.5937  -33.8577   24.2285 N   0  0  0  0  0  0
  -23.4236  -30.4862   21.5461 C   0  0  2  0  0  0
  -24.8678  -28.9463   20.1090 C   0  0  0  0  0  0
  -22.7492  -29.4630   22.4920 C   0  0  0  0  0  0
  -18.0295  -28.1394   22.8486 C   0  0  0  0  0  0
  -24.1490  -36.7297   23.2638 C   0  0  0  0  0  0
  -25.9693  -30.7821   21.3804 C   0  0  0  0  0  0
  -26.0416  -29.4103   20.7181 C   0  0  0  0  0  0
  -27.2187  -28.5969   20.7124 C   0  0  0  0  0  0
  -26.0155  -26.9025   19.4704 C   0  0  0  0  0  0
  -24.8587  -27.6977   19.4759 C   0  0  0  0  0  0
  -23.6386  -29.8285   20.1598 C   0  0  0  0  0  0
  -25.4114  -36.3080   24.0329 C   0  0  1  0  0  0
  -20.5898  -28.3702   23.1276 C   0  0  2  0  0  0
  -20.6783  -26.9425   22.5407 C   0  0  0  0  0  0
  -19.5754  -26.6392   21.5214 C   0  0  0  0  0  0
  -18.1935  -26.7939   22.1625 C   0  0  0  0  0  0
  -19.1548  -28.8866   23.2878 C   0  0  0  0  0  0
  -18.9469  -30.1465   23.8897 C   0  0  0  0  0  0
  -17.6467  -30.6595   24.0567 C   0  0  0  0  0  0
  -25.9057  -34.9450   23.5105 C   0  0  0  0  0  0
  -16.5359  -29.9091   23.6334 C   0  0  0  0  0  0
  -16.7280  -28.6510   23.0356 C   0  0  0  0  0  0
  -26.4505  -31.6590   25.0738 C   0  0  0  0  0  0
  -25.3738  -31.3745   26.1470 C   0  0  0  0  0  0
  -27.0347  -30.3003   24.6217 C   0  0  0  0  0  0
  -27.6070  -32.4329   25.7498 C   0  0  0  0  0  0
  -27.5584  -37.1797   24.8464 C   0  0  0  0  0  0
  -21.4209  -29.3049   22.3661 N   0  0  0  0  0  0
  -26.4293  -37.3775   23.9413 N   0  0  0  0  0  0
  -24.6929  -31.0594   22.0989 N   0  0  0  0  0  0
  -23.4207  -28.8165   23.3006 O   0  0  0  0  0  0
  -28.2961  -26.3902   20.1867 O   0  0  0  0  0  0
  -26.5621  -34.8915   22.4671 O   0  0  0  0  0  0
  -23.5439  -32.1412   23.7332 O   0  0  0  0  0  0
  -30.1917  -23.7571   18.5524 C   0  0  0  0  0  0
  -30.3882  -21.0036   18.2197 C   0  0  0  0  0  0
  -30.8549  -23.2513   17.4230 C   0  0  0  0  0  0
  -29.5956  -22.9191   19.5247 C   0  0  0  0  0  0
  -30.9281  -21.8601   17.2420 C   0  0  0  0  0  0
  -29.7283  -21.4663   19.3948 C   0  0  0  0  0  0
  -30.9100  -18.5782   20.4167 C   0  0  0  0  0  0
  -28.6511  -18.0624   20.9943 C   0  0  0  0  0  0
  -31.1980  -17.0872   20.0516 C   0  0  0  0  0  0
  -28.8570  -16.5147   20.6914 C   0  0  0  0  0  0
  -29.4760  -19.0431   20.1145 C   0  0  0  0  0  0
  -31.4773  -24.2095   16.4205 C   0  0  0  0  0  0
  -31.5973  -21.2662   16.0119 C   0  0  0  0  0  0
  -29.8349  -24.1160   21.7694 C   0  0  0  0  0  0
  -27.9314  -24.9407   20.1964 C   0  0  0  0  0  0
  -28.8651  -23.7115   20.6507 C   0  0  1  0  0  0
  -30.2468  -16.0039   20.4886 N   0  0  0  0  0  0
  -29.2630  -20.5055   20.3308 O   0  0  0  0  0  0
  -31.4425  -12.5075   19.1298 H   0  0  0  0  0  0
  -30.3230  -11.4781   19.9591 H   0  0  0  0  0  0
  -29.7624  -11.7090   17.5085 H   0  0  0  0  0  0
  -29.6072  -13.4400   17.6954 H   0  0  0  0  0  0
  -27.8894  -11.2681   18.9350 H   0  0  0  0  0  0
  -27.3500  -12.4840   17.8061 H   0  0  0  0  0  0
  -27.6125  -14.2374   19.4345 H   0  0  0  0  0  0
  -28.7466  -12.2030   21.4176 H   0  0  0  0  0  0
  -28.4453  -13.8684   21.7867 H   0  0  0  0  0  0
  -25.2753   -9.5691   22.4758 H   0  0  0  0  0  0
  -23.9989   -7.4643   22.7481 H   0  0  0  0  0  0
  -21.0829   -8.8784   19.8973 H   0  0  0  0  0  0
  -22.3683  -10.9673   19.6169 H   0  0  0  0  0  0
  -21.2007   -7.6134   23.9701 H   0  0  0  0  0  0
  -21.1482   -6.0505   25.9064 H   0  0  0  0  0  0
  -22.0602   -2.7592   23.2846 H   0  0  0  0  0  0
  -22.4044  -11.9922   22.4858 H   0  0  0  0  0  0
  -21.1052  -13.1283   22.2588 H   0  0  0  0  0  0
  -24.6533  -15.8476   20.5338 H   0  0  0  0  0  0
  -26.2747  -15.6336   20.1075 H   0  0  0  0  0  0
  -26.7197  -32.5438   23.1107 H   0  0  0  0  0  0
  -25.0063  -33.9725   25.0412 H   0  0  0  0  0  0
  -22.7182  -31.3078   21.4060 H   0  0  0  0  0  0
  -23.3749  -35.9631   23.3298 H   0  0  0  0  0  0
  -24.3584  -36.8919   22.2053 H   0  0  0  0  0  0
  -23.7243  -37.6498   23.6663 H   0  0  0  0  0  0
  -26.1095  -31.5472   20.6152 H   0  0  0  0  0  0
  -26.8467  -30.8259   22.0142 H   0  0  0  0  0  0
  -28.1137  -28.9423   21.2103 H   0  0  0  0  0  0
  -25.9276  -25.9556   18.9620 H   0  0  0  0  0  0
  -23.9612  -27.3382   18.9915 H   0  0  0  0  0  0
  -23.7609  -30.6089   19.4076 H   0  0  0  0  0  0
  -22.7573  -29.2616   19.8542 H   0  0  0  0  0  0
  -25.1290  -36.1927   25.0820 H   0  0  0  0  0  0
  -20.9997  -28.3277   24.1395 H   0  0  0  0  0  0
  -20.5697  -26.2310   23.3607 H   0  0  0  0  0  0
  -21.6648  -26.7457   22.1195 H   0  0  0  0  0  0
  -19.6919  -25.6304   21.1243 H   0  0  0  0  0  0
  -19.6692  -27.3200   20.6744 H   0  0  0  0  0  0
  -17.4206  -26.6693   21.4023 H   0  0  0  0  0  0
  -18.0333  -26.0084   22.9024 H   0  0  0  0  0  0
  -19.7945  -30.7283   24.2263 H   0  0  0  0  0  0
  -17.5024  -31.6273   24.5173 H   0  0  0  0  0  0
  -15.5361  -30.2995   23.7664 H   0  0  0  0  0  0
  -15.8680  -28.0830   22.7072 H   0  0  0  0  0  0
  -24.5891  -30.7122   25.7795 H   0  0  0  0  0  0
  -24.8962  -32.2924   26.4908 H   0  0  0  0  0  0
  -25.8059  -30.8901   27.0236 H   0  0  0  0  0  0
  -26.2926  -29.6748   24.1241 H   0  0  0  0  0  0
  -27.4026  -29.7265   25.4731 H   0  0  0  0  0  0
  -27.8808  -30.4271   23.9463 H   0  0  0  0  0  0
  -27.2682  -33.3619   26.2097 H   0  0  0  0  0  0
  -28.3859  -32.6913   25.0315 H   0  0  0  0  0  0
  -28.0771  -31.8453   26.5390 H   0  0  0  0  0  0
  -28.2595  -38.0098   24.7512 H   0  0  0  0  0  0
  -28.1083  -36.2629   24.6280 H   0  0  0  0  0  0
  -27.2312  -37.1439   25.8869 H   0  0  0  0  0  0
  -20.9384  -29.8775   21.6876 H   0  0  0  0  0  0
  -26.0173  -38.2848   24.1417 H   0  0  0  0  0  0
  -30.1335  -24.8304   18.6749 H   0  0  0  0  0  0
  -30.5174  -19.9530   18.0211 H   0  0  0  0  0  0
  -31.6341  -19.2070   19.8995 H   0  0  0  0  0  0
  -31.1182  -18.7332   21.4760 H   0  0  0  0  0  0
  -28.8825  -18.2497   22.0443 H   0  0  0  0  0  0
  -27.5918  -18.3019   20.8925 H   0  0  0  0  0  0
  -32.2024  -16.9001   20.4369 H   0  0  0  0  0  0
  -31.2805  -17.0114   18.9662 H   0  0  0  0  0  0
  -28.3125  -16.2965   19.7745 H   0  0  0  0  0  0
  -28.3714  -15.9601   21.4914 H   0  0  0  0  0  0
  -29.1981  -18.7945   19.0904 H   0  0  0  0  0  0
  -31.4362  -25.2410   16.7703 H   0  0  0  0  0  0
  -30.9567  -24.1594   15.4635 H   0  0  0  0  0  0
  -32.5270  -23.9630   16.2548 H   0  0  0  0  0  0
  -31.3984  -20.1983   15.9193 H   0  0  0  0  0  0
  -32.6778  -21.4059   16.0589 H   0  0  0  0  0  0
  -31.2298  -21.7439   15.1028 H   0  0  0  0  0  0
  -30.3553  -23.2440   22.1679 H   0  0  0  0  0  0
  -29.3046  -24.5907   22.5953 H   0  0  0  0  0  0
  -30.5860  -24.8188   21.4078 H   0  0  0  0  0  0
  -27.0757  -24.8770   20.8708 H   0  0  0  0  0  0
  -27.5493  -24.6706   19.2129 H   0  0  0  0  0  0
  -28.1856  -22.9727   21.0789 H   0  0  0  0  0  0
  1 25  1  0  0  0
  1 30  2  0  0  0
  1 87  1  0  0  0
  2  3  1  0  0  0
  2 25  1  0  0  0
  2 89  1  0  0  0
  2 90  1  0  0  0
  3  4  1  0  0  0
  3 91  1  0  0  0
  3 92  1  0  0  0
  4  5  1  0  0  0
  4 93  1  0  0  0
  4 94  1  0  0  0
  5  6  1  0  0  0
  5 26  1  0  0  0
  5 95  1  0  0  0
  6 25  1  0  0  0
  6 96  1  0  0  0
  6 97  1  0  0  0
  7  8  2  0  0  0
  7 26  1  0  0  0
  7 29  1  0  0  0
  8  9  1  0  0  0
  8 22  1  0  0  0
  9 10  1  0  0  0
  9 27  2  0  0  0
 10 11  2  0  0  0
 10 15  1  0  0  0
 11 12  1  0  0  0
 11 98  1  0  0  0
 12 13  2  0  0  0
 12 99  1  0  0  0
 13 14  1  0  0  0
 13 31  1  0  0  0
 14 15  2  0  0  0
 14100  1  0  0  0
 15101  1  0  0  0
 16 17  2  0  0  0
 16 21  1  0  0  0
 16 31  1  0  0  0
 17 18  1  0  0  0
 17102  1  0  0  0
 18 19  2  0  0  0
 18103  1  0  0  0
 19 20  1  0  0  0
 19 24  1  0  0  0
 20 21  2  0  0  0
 20104  1  0  0  0
 21 23  1  0  0  0
 22 28  1  0  0  0
 22 32  2  0  0  0
 26 27  1  0  0  0
 28105  1  0  0  0
 28106  1  0  0  0
 29107  1  0  0  0
 29108  1  0  0  0
 33 34  1  0  0  0
 33 66  1  0  0  0
 33 70  2  0  0  0
 34 36  1  0  0  0
 34 59  1  0  0  0
 34109  1  0  0  0
 35 44  2  0  0  0
 35 45  1  0  0  0
 35 68  1  0  0  0
 36 56  1  0  0  0
 36110  1  0  0  0
 37 39  1  0  0  0
 37 47  1  0  0  0
 37 66  1  0  0  0
 37111  1  0  0  0
 38 43  2  0  0  0
 38 46  1  0  0  0
 38 47  1  0  0  0
 39 64  1  0  0  0
 39 67  2  0  0  0
 40 52  1  0  0  0
 40 53  2  0  0  0
 40 58  1  0  0  0
 41112  1  0  0  0
 41113  1  0  0  0
 41114  1  0  0  0
 41 48  1  0  0  0
 42 43  1  0  0  0
 42 66  1  0  0  0
 42115  1  0  0  0
 42116  1  0  0  0
 43 44  1  0  0  0
 44117  1  0  0  0
 45 46  2  0  0  0
 45118  1  0  0  0
 46119  1  0  0  0
 47120  1  0  0  0
 47121  1  0  0  0
 48 56  1  0  0  0
 48 65  1  0  0  0
 48122  1  0  0  0
 49 50  1  0  0  0
 49 53  1  0  0  0
 49 64  1  0  0  0
 49123  1  0  0  0
 50 51  1  0  0  0
 50124  1  0  0  0
 50125  1  0  0  0
 51 52  1  0  0  0
 51126  1  0  0  0
 51127  1  0  0  0
 52128  1  0  0  0
 52129  1  0  0  0
 53 54  1  0  0  0
 54 55  2  0  0  0
 54130  1  0  0  0
 55 57  1  0  0  0
 55131  1  0  0  0
 56 69  2  0  0  0
 57 58  2  0  0  0
 57132  1  0  0  0
 58133  1  0  0  0
 59 60  1  0  0  0
 59 61  1  0  0  0
 59 62  1  0  0  0
 60134  1  0  0  0
 60135  1  0  0  0
 60136  1  0  0  0
 61137  1  0  0  0
 61138  1  0  0  0
 61139  1  0  0  0
 62140  1  0  0  0
 62141  1  0  0  0
 62142  1  0  0  0
 63 65  1  0  0  0
 63143  1  0  0  0
 63144  1  0  0  0
 63145  1  0  0  0
 64146  1  0  0  0
 65147  1  0  0  0
 68 85  1  0  0  0
 71 73  2  0  0  0
 71 74  1  0  0  0
 71148  1  0  0  0
 72 75  2  0  0  0
 72 76  1  0  0  0
 72149  1  0  0  0
 73 75  1  0  0  0
 73 82  1  0  0  0
 74 76  2  0  0  0
 74 86  1  0  0  0
 75 83  1  0  0  0
 76 88  1  0  0  0
 77 79  1  0  0  0
 77 81  1  0  0  0
 77150  1  0  0  0
 77151  1  0  0  0
 78 80  1  0  0  0
 78 81  1  0  0  0
 78152  1  0  0  0
 78153  1  0  0  0
 79 87  1  0  0  0
 79154  1  0  0  0
 79155  1  0  0  0
 80 87  1  0  0  0
 80156  1  0  0  0
 80157  1  0  0  0
 81 88  1  0  0  0
 81158  1  0  0  0
 82159  1  0  0  0
 82160  1  0  0  0
 82161  1  0  0  0
 83162  1  0  0  0
 83163  1  0  0  0
 83164  1  0  0  0
 84165  1  0  0  0
 84166  1  0  0  0
 84167  1  0  0  0
 84 86  1  0  0  0
 85 86  1  0  0  0
 85168  1  0  0  0
 85169  1  0  0  0
 86170  1  0  0  0
M  ISO  4   1 100  68 101  85 101  87 100
M  END
> <chiral flag>
0

> <version>
0

> <s_m_source_file>
/data/baiqing/PycharmProjects/Reinvent-master-3.2/result/LINK_invent/BTK/process_docking_weight1_custom_sum_contain_oxygen_bond_distance_aromatic_linkinvent_7_9_3/rearranged_h_0159.sdf

> <i_m_source_file_index>
71

> <r_mmod_Potential_Energy-OPLS-2005>
397.604553222656

> <r_mmod_Stretch_Energy-OPLS-2005>
112.260787963867

> <r_mmod_Bend_Energy-OPLS-2005>
223.209457397461

> <r_mmod_Torsional_Energy-OPLS-2005>
307.756195068359

> <r_mmod_Improper_Torsional_Energy-OPLS-2005>
8.74581432342529

> <r_mmod_Van_der_Waal_Energy-OPLS-2005>
172.985702514648

> <r_mmod_Electrostatic_Energy-OPLS-2005>
-306.520690917969

> <r_mmod_Solvation_Energy-OPLS-2005>
-201.7998046875

> <b_mmod_Minimization_Converged-OPLS-2005>
0

> <r_mmod_RMS_Derivative-OPLS-2005>
1.74014317989349

$$$$
71
                    3D
 Structure written by MMmdl.
168177  0  0  1  0            999 V2000
  -30.6500  -14.6536   20.4670 C   0  0  0  0  0  0
  -30.4271  -12.3978   19.4619 C   0  0  0  0  0  0
  -29.5045  -12.4907   18.2260 C   0  0  0  0  0  0
  -28.0297  -12.3320   18.6410 C   0  0  0  0  0  0
  -27.6486  -13.2224   19.8547 C   0  0  2  0  0  0
  -28.6945  -13.1241   20.9892 C   0  0  0  0  0  0
  -25.2545  -13.8176   20.5677 C   0  0  0  0  0  0
  -24.1828  -13.0446   20.9204 C   0  0  0  0  0  0
  -24.6404  -11.6922   20.8748 C   0  0  0  0  0  0
  -23.9075  -10.4296   21.0412 C   0  0  0  0  0  0
  -24.3626   -9.4205   21.9187 C   0  0  0  0  0  0
  -23.6291   -8.2247   22.0764 C   0  0  0  0  0  0
  -22.4277   -8.0282   21.3546 C   0  0  0  0  0  0
  -21.9916   -9.0265   20.4655 C   0  0  0  0  0  0
  -22.7251  -10.2139   20.3060 C   0  0  0  0  0  0
  -21.6856   -6.0735   22.5278 C   0  0  0  0  0  0
  -21.4016   -6.5640   23.8211 C   0  0  0  0  0  0
  -21.3652   -5.6791   24.9171 C   0  0  0  0  0  0
  -21.6046   -4.3056   24.7226 C   0  0  0  0  0  0
  -21.8817   -3.8147   23.4346 C   0  0  0  0  0  0
  -21.9194   -4.6962   22.3398 C   0  0  0  0  0  0
  -22.7846  -13.5234   21.1851 C   0  0  0  0  0  0
  -22.1662   -4.2147   21.0980 F   0  0  0  0  0  0
  -21.5625   -3.4542   25.7739 F   0  0  0  0  0  0
  -30.0055  -13.4468   20.4126 N   0  0  0  0  0  0
  -26.2975  -12.9372   20.3302 N   0  0  0  0  0  0
  -25.9329  -11.6520   20.5765 N   0  0  0  0  0  0
  -22.0490  -12.8229   22.0398 N   0  0  0  0  0  0
  -25.4250  -15.1900   20.4073 N   0  0  0  0  0  0
  -31.8145  -14.7775   20.0784 O   0  0  0  0  0  0
  -21.6638   -6.8881   21.4241 O   0  0  0  0  0  0
  -22.3547  -14.5547   20.6699 O   0  0  0  0  0  0
  -24.6262  -31.8584   23.2031 C   0  0  0  0  0  0
  -25.9123  -32.4775   23.8343 C   0  0  1  0  0  0
  -27.2267  -27.3226   20.1278 C   0  0  0  0  0  0
  -25.5937  -33.8567   24.2266 N   0  0  0  0  0  0
  -23.4204  -30.4812   21.5437 C   0  0  2  0  0  0
  -24.8715  -28.9320   20.1128 C   0  0  0  0  0  0
  -22.7483  -29.4604   22.4922 C   0  0  0  0  0  0
  -18.0270  -28.1375   22.8469 C   0  0  0  0  0  0
  -24.1486  -36.7288   23.2645 C   0  0  0  0  0  0
  -25.9607  -30.7884   21.3786 C   0  0  0  0  0  0
  -26.0377  -29.4157   20.7204 C   0  0  0  0  0  0
  -27.2229  -28.6202   20.7206 C   0  0  0  0  0  0
  -26.0447  -26.8860   19.4962 C   0  0  0  0  0  0
  -24.8741  -27.6706   19.4924 C   0  0  0  0  0  0
  -23.6375  -29.8137   20.1589 C   0  0  0  0  0  0
  -25.4111  -36.3075   24.0325 C   0  0  1  0  0  0
  -20.5880  -28.3688   23.1262 C   0  0  2  0  0  0
  -20.6763  -26.9413   22.5400 C   0  0  0  0  0  0
  -19.5741  -26.6375   21.5200 C   0  0  0  0  0  0
  -18.1916  -26.7921   22.1604 C   0  0  0  0  0  0
  -19.1528  -28.8845   23.2858 C   0  0  0  0  0  0
  -18.9467  -30.1445   23.8877 C   0  0  0  0  0  0
  -17.6485  -30.6596   24.0547 C   0  0  0  0  0  0
  -25.9046  -34.9448   23.5101 C   0  0  0  0  0  0
  -16.5362  -29.9089   23.6336 C   0  0  0  0  0  0
  -16.7262  -28.6503   23.0360 C   0  0  0  0  0  0
  -26.4510  -31.6607   25.0726 C   0  0  0  0  0  0
  -25.3749  -31.3742   26.1464 C   0  0  0  0  0  0
  -27.0399  -30.3037   24.6207 C   0  0  0  0  0  0
  -27.6032  -32.4397   25.7503 C   0  0  0  0  0  0
  -27.5587  -37.1787   24.8467 C   0  0  0  0  0  0
  -21.4191  -29.3048   22.3669 N   0  0  0  0  0  0
  -26.4294  -37.3770   23.9415 N   0  0  0  0  0  0
  -24.6861  -31.0595   22.0981 N   0  0  0  0  0  0
  -23.4196  -28.8135   23.2998 O   0  0  0  0  0  0
  -28.3188  -26.4510   20.1302 O   0  0  0  0  0  0
  -26.5622  -34.8921   22.4668 O   0  0  0  0  0  0
  -23.5427  -32.1396   23.7365 O   0  0  0  0  0  0
  -29.8662  -23.3923   20.5033 C   0  0  0  0  0  0
  -28.5321  -23.8303   20.6481 C   0  0  0  0  0  0
  -30.2301  -22.0192   20.3780 C   0  0  0  0  0  0
  -27.5403  -22.7999   20.6146 C   0  0  0  0  0  0
  -27.8889  -21.4081   20.4174 C   0  0  0  0  0  0
  -29.2540  -20.9702   20.3209 C   0  0  0  0  0  0
  -29.3758  -18.3855   20.9798 C   0  0  0  0  0  0
  -30.4622  -19.1627   18.9945 C   0  0  0  0  0  0
  -30.3358  -17.2209   20.4968 C   0  0  2  0  0  0
  -30.5038  -17.6145   19.0156 C   0  0  2  0  0  0
  -31.7228  -21.7297   20.3735 C   0  0  0  0  0  0
  -26.0872  -23.2087   20.8628 C   0  0  0  0  0  0
  -26.7655  -20.3784   20.3006 C   0  0  0  0  0  0
  -28.2298  -25.3257   21.0775 C   0  0  0  0  0  0
  -29.6348  -19.5823   20.1249 N   0  0  0  0  0  0
  -29.9022  -15.7806   20.6911 N   0  0  0  0  0  0
  -31.7216  -17.0566   18.4048 N   0  3  0  0  0  0
  -31.4718  -12.5018   19.1602 H   0  0  0  0  0  0
  -30.3501  -11.4131   19.9264 H   0  0  0  0  0  0
  -29.7701  -11.7217   17.4989 H   0  0  0  0  0  0
  -29.6455  -13.4483   17.7239 H   0  0  0  0  0  0
  -27.8727  -11.2831   18.8909 H   0  0  0  0  0  0
  -27.3728  -12.5425   17.7966 H   0  0  0  0  0  0
  -27.6545  -14.2488   19.4893 H   0  0  0  0  0  0
  -28.7074  -12.1207   21.4172 H   0  0  0  0  0  0
  -28.4443  -13.8004   21.8081 H   0  0  0  0  0  0
  -25.2775   -9.5671   22.4769 H   0  0  0  0  0  0
  -23.9997   -7.4632   22.7487 H   0  0  0  0  0  0
  -21.0847   -8.8786   19.8959 H   0  0  0  0  0  0
  -22.3712  -10.9681   19.6172 H   0  0  0  0  0  0
  -21.2013   -7.6154   23.9709 H   0  0  0  0  0  0
  -21.1472   -6.0529   25.9072 H   0  0  0  0  0  0
  -22.0603   -2.7614   23.2850 H   0  0  0  0  0  0
  -22.4111  -11.9881   22.4773 H   0  0  0  0  0  0
  -21.1114  -13.1260   22.2608 H   0  0  0  0  0  0
  -24.6560  -15.8411   20.5149 H   0  0  0  0  0  0
  -26.2625  -15.6254   20.0442 H   0  0  0  0  0  0
  -26.7177  -32.5450   23.1073 H   0  0  0  0  0  0
  -25.0106  -33.9670   25.0428 H   0  0  0  0  0  0
  -22.7165  -31.3039   21.4004 H   0  0  0  0  0  0
  -23.3758  -35.9620   23.3310 H   0  0  0  0  0  0
  -24.3566  -36.8908   22.2065 H   0  0  0  0  0  0
  -23.7237  -37.6477   23.6674 H   0  0  0  0  0  0
  -26.0999  -31.5571   20.6167 H   0  0  0  0  0  0
  -26.8356  -30.8314   22.0146 H   0  0  0  0  0  0
  -28.1196  -28.9874   21.2012 H   0  0  0  0  0  0
  -26.0262  -25.9219   19.0098 H   0  0  0  0  0  0
  -23.9797  -27.2978   19.0137 H   0  0  0  0  0  0
  -23.7604  -30.5920   19.4051 H   0  0  0  0  0  0
  -22.7571  -29.2456   19.8513 H   0  0  0  0  0  0
  -25.1295  -36.1918   25.0819 H   0  0  0  0  0  0
  -20.9941  -28.3267   24.1385 H   0  0  0  0  0  0
  -20.5666  -26.2297   23.3594 H   0  0  0  0  0  0
  -21.6629  -26.7431   22.1190 H   0  0  0  0  0  0
  -19.6909  -25.6275   21.1248 H   0  0  0  0  0  0
  -19.6685  -27.3162   20.6715 H   0  0  0  0  0  0
  -17.4180  -26.6655   21.4010 H   0  0  0  0  0  0
  -18.0305  -26.0058   22.8995 H   0  0  0  0  0  0
  -19.7961  -30.7243   24.2239 H   0  0  0  0  0  0
  -17.5054  -31.6278   24.5162 H   0  0  0  0  0  0
  -15.5366  -30.3009   23.7689 H   0  0  0  0  0  0
  -15.8637  -28.0834   22.7097 H   0  0  0  0  0  0
  -24.5896  -30.7120   25.7806 H   0  0  0  0  0  0
  -24.8979  -32.2913   26.4934 H   0  0  0  0  0  0
  -25.8083  -30.8898   27.0222 H   0  0  0  0  0  0
  -26.2985  -29.6724   24.1289 H   0  0  0  0  0  0
  -27.4161  -29.7363   25.4731 H   0  0  0  0  0  0
  -27.8824  -30.4337   23.9407 H   0  0  0  0  0  0
  -27.2584  -33.3701   26.2032 H   0  0  0  0  0  0
  -28.3843  -32.6961   25.0337 H   0  0  0  0  0  0
  -28.0696  -31.8577   26.5457 H   0  0  0  0  0  0
  -28.2588  -38.0108   24.7550 H   0  0  0  0  0  0
  -28.1094  -36.2632   24.6254 H   0  0  0  0  0  0
  -27.2293  -37.1389   25.8865 H   0  0  0  0  0  0
  -20.9374  -29.8818   21.6908 H   0  0  0  0  0  0
  -26.0185  -38.2835   24.1448 H   0  0  0  0  0  0
  -30.6458  -24.1379   20.5617 H   0  0  0  0  0  0
  -29.5272  -18.6090   22.0360 H   0  0  0  0  0  0
  -28.3424  -18.0646   20.8679 H   0  0  0  0  0  0
  -30.0642  -19.5418   18.0523 H   0  0  0  0  0  0
  -31.4721  -19.5506   19.1050 H   0  0  0  0  0  0
  -31.2923  -17.3592   21.0071 H   0  0  0  0  0  0
  -29.6403  -17.2411   18.4628 H   0  0  0  0  0  0
  -32.2692  -22.5150   20.8967 H   0  0  0  0  0  0
  -32.1037  -21.6914   19.3526 H   0  0  0  0  0  0
  -31.9543  -20.7943   20.8837 H   0  0  0  0  0  0
  -25.9142  -23.3256   21.9336 H   0  0  0  0  0  0
  -25.3402  -22.5132   20.4931 H   0  0  0  0  0  0
  -25.8611  -24.1558   20.3798 H   0  0  0  0  0  0
  -25.9810  -20.7242   19.6305 H   0  0  0  0  0  0
  -26.3249  -20.1715   21.2772 H   0  0  0  0  0  0
  -27.0857  -19.4378   19.8597 H   0  0  0  0  0  0
  -28.9755  -25.5552   21.8386 H   0  0  0  0  0  0
  -27.2946  -25.3728   21.6352 H   0  0  0  0  0  0
  -28.9372  -15.6322   20.9400 H   0  0  0  0  0  0
  -32.5345  -17.5697   18.6950 H   0  0  0  0  0  0
  -31.6656  -17.0751   17.4016 H   0  0  0  0  0  0
  -31.8394  -16.1021   18.7202 H   0  0  0  0  0  0
  1 25  1  0  0  0
  1 30  2  0  0  0
  1 86  1  0  0  0
  2  3  1  0  0  0
  2 25  1  0  0  0
  2 88  1  0  0  0
  2 89  1  0  0  0
  3  4  1  0  0  0
  3 90  1  0  0  0
  3 91  1  0  0  0
  4  5  1  0  0  0
  4 92  1  0  0  0
  4 93  1  0  0  0
  5  6  1  0  0  0
  5 26  1  0  0  0
  5 94  1  0  0  0
  6 25  1  0  0  0
  6 95  1  0  0  0
  6 96  1  0  0  0
  7  8  2  0  0  0
  7 26  1  0  0  0
  7 29  1  0  0  0
  8  9  1  0  0  0
  8 22  1  0  0  0
  9 10  1  0  0  0
  9 27  2  0  0  0
 10 11  2  0  0  0
 10 15  1  0  0  0
 11 12  1  0  0  0
 11 97  1  0  0  0
 12 13  2  0  0  0
 12 98  1  0  0  0
 13 14  1  0  0  0
 13 31  1  0  0  0
 14 15  2  0  0  0
 14 99  1  0  0  0
 15100  1  0  0  0
 16 17  2  0  0  0
 16 21  1  0  0  0
 16 31  1  0  0  0
 17 18  1  0  0  0
 17101  1  0  0  0
 18 19  2  0  0  0
 18102  1  0  0  0
 19 20  1  0  0  0
 19 24  1  0  0  0
 20 21  2  0  0  0
 20103  1  0  0  0
 21 23  1  0  0  0
 22 28  1  0  0  0
 22 32  2  0  0  0
 26 27  1  0  0  0
 28104  1  0  0  0
 28105  1  0  0  0
 29106  1  0  0  0
 29107  1  0  0  0
 33 34  1  0  0  0
 33 66  1  0  0  0
 33 70  2  0  0  0
 34 36  1  0  0  0
 34 59  1  0  0  0
 34108  1  0  0  0
 35 44  2  0  0  0
 35 45  1  0  0  0
 35 68  1  0  0  0
 36 56  1  0  0  0
 36109  1  0  0  0
 37 39  1  0  0  0
 37 47  1  0  0  0
 37 66  1  0  0  0
 37110  1  0  0  0
 38 43  2  0  0  0
 38 46  1  0  0  0
 38 47  1  0  0  0
 39 64  1  0  0  0
 39 67  2  0  0  0
 40 52  1  0  0  0
 40 53  2  0  0  0
 40 58  1  0  0  0
 41111  1  0  0  0
 41112  1  0  0  0
 41113  1  0  0  0
 41 48  1  0  0  0
 42 43  1  0  0  0
 42 66  1  0  0  0
 42114  1  0  0  0
 42115  1  0  0  0
 43 44  1  0  0  0
 44116  1  0  0  0
 45 46  2  0  0  0
 45117  1  0  0  0
 46118  1  0  0  0
 47119  1  0  0  0
 47120  1  0  0  0
 48 56  1  0  0  0
 48 65  1  0  0  0
 48121  1  0  0  0
 49 50  1  0  0  0
 49 53  1  0  0  0
 49 64  1  0  0  0
 49122  1  0  0  0
 50 51  1  0  0  0
 50123  1  0  0  0
 50124  1  0  0  0
 51 52  1  0  0  0
 51125  1  0  0  0
 51126  1  0  0  0
 52127  1  0  0  0
 52128  1  0  0  0
 53 54  1  0  0  0
 54 55  2  0  0  0
 54129  1  0  0  0
 55 57  1  0  0  0
 55130  1  0  0  0
 56 69  2  0  0  0
 57 58  2  0  0  0
 57131  1  0  0  0
 58132  1  0  0  0
 59 60  1  0  0  0
 59 61  1  0  0  0
 59 62  1  0  0  0
 60133  1  0  0  0
 60134  1  0  0  0
 60135  1  0  0  0
 61136  1  0  0  0
 61137  1  0  0  0
 61138  1  0  0  0
 62139  1  0  0  0
 62140  1  0  0  0
 62141  1  0  0  0
 63 65  1  0  0  0
 63142  1  0  0  0
 63143  1  0  0  0
 63144  1  0  0  0
 64145  1  0  0  0
 65146  1  0  0  0
 68 84  1  0  0  0
 71 72  2  0  0  0
 71 73  1  0  0  0
 71147  1  0  0  0
 72 74  1  0  0  0
 72 84  1  0  0  0
 73 76  2  0  0  0
 73 81  1  0  0  0
 74 75  2  0  0  0
 74 82  1  0  0  0
 75 76  1  0  0  0
 75 83  1  0  0  0
 76 85  1  0  0  0
 77 79  1  0  0  0
 77 85  1  0  0  0
 77148  1  0  0  0
 77149  1  0  0  0
 78 80  1  0  0  0
 78 85  1  0  0  0
 78150  1  0  0  0
 78151  1  0  0  0
 79 80  1  0  0  0
 79 86  1  0  0  0
 79152  1  0  0  0
 80 87  1  0  0  0
 80153  1  0  0  0
 81154  1  0  0  0
 81155  1  0  0  0
 81156  1  0  0  0
 82157  1  0  0  0
 82158  1  0  0  0
 82159  1  0  0  0
 83160  1  0  0  0
 83161  1  0  0  0
 83162  1  0  0  0
 84163  1  0  0  0
 84164  1  0  0  0
 86165  1  0  0  0
 87166  1  0  0  0
 87167  1  0  0  0
 87168  1  0  0  0
M  CHG  1  87   1
M  ISO  4   1 100  68 101  84 101  86 100
M  END
> <chiral flag>
0

> <version>
0

> <s_m_source_file>
/data/baiqing/PycharmProjects/Reinvent-master-3.2/result/LINK_invent/BTK/process_docking_weight1_custom_sum_contain_oxygen_bond_distance_aromatic_linkinvent_7_9_3/rearranged_h_0159.sdf

> <i_m_source_file_index>
72

> <r_mmod_Potential_Energy-OPLS-2005>
-156.36750793457

> <r_mmod_Stretch_Energy-OPLS-2005>
86.9066925048828

> <r_mmod_Bend_Energy-OPLS-2005>
186.949310302734

> <r_mmod_Torsional_Energy-OPLS-2005>
350.947998046875

> <r_mmod_Improper_Torsional_Energy-OPLS-2005>
8.32449245452881

> <r_mmod_Van_der_Waal_Energy-OPLS-2005>
153.16178894043

> <r_mmod_Electrostatic_Energy-OPLS-2005>
-540.382446289062

> <r_mmod_Solvation_Energy-OPLS-2005>
-455.475708007812

> <b_mmod_Minimization_Converged-OPLS-2005>
0

> <r_mmod_RMS_Derivative-OPLS-2005>
2.8952784538269

$$$$
72
                    3D
 Structure written by MMmdl.
167176  0  0  1  0            999 V2000
  -30.5373  -14.9378   20.4290 C   0  0  0  0  0  0
  -30.4415  -12.5835   19.4915 C   0  0  0  0  0  0
  -29.5193  -12.5276   18.2516 C   0  0  0  0  0  0
  -28.0527  -12.3144   18.6720 C   0  0  0  0  0  0
  -27.6300  -13.2455   19.8382 C   0  0  2  0  0  0
  -28.6734  -13.2657   20.9748 C   0  0  0  0  0  0
  -25.2465  -13.8213   20.5706 C   0  0  0  0  0  0
  -24.1782  -13.0438   20.9231 C   0  0  0  0  0  0
  -24.6397  -11.6922   20.8758 C   0  0  0  0  0  0
  -23.9081  -10.4292   21.0413 C   0  0  0  0  0  0
  -24.3629   -9.4205   21.9191 C   0  0  0  0  0  0
  -23.6298   -8.2243   22.0759 C   0  0  0  0  0  0
  -22.4281   -8.0283   21.3546 C   0  0  0  0  0  0
  -21.9921   -9.0259   20.4649 C   0  0  0  0  0  0
  -22.7254  -10.2136   20.3060 C   0  0  0  0  0  0
  -21.6855   -6.0739   22.5279 C   0  0  0  0  0  0
  -21.4016   -6.5643   23.8212 C   0  0  0  0  0  0
  -21.3658   -5.6795   24.9174 C   0  0  0  0  0  0
  -21.6041   -4.3056   24.7225 C   0  0  0  0  0  0
  -21.8819   -3.8149   23.4345 C   0  0  0  0  0  0
  -21.9194   -4.6967   22.3401 C   0  0  0  0  0  0
  -22.7803  -13.5210   21.1882 C   0  0  0  0  0  0
  -22.1661   -4.2152   21.0979 F   0  0  0  0  0  0
  -21.5628   -3.4539   25.7737 F   0  0  0  0  0  0
  -29.9485  -13.6775   20.3746 N   0  0  0  0  0  0
  -26.2887  -12.9439   20.3242 N   0  0  0  0  0  0
  -25.9327  -11.6572   20.5741 N   0  0  0  0  0  0
  -22.0453  -12.8194   22.0435 N   0  0  0  0  0  0
  -25.4124  -15.1941   20.4115 N   0  0  0  0  0  0
  -31.7420  -15.0136   20.1677 O   0  0  0  0  0  0
  -21.6641   -6.8882   21.4241 O   0  0  0  0  0  0
  -22.3488  -14.5515   20.6728 O   0  0  0  0  0  0
  -24.6441  -31.8439   23.1884 C   0  0  0  0  0  0
  -25.9210  -32.4693   23.8274 C   0  0  1  0  0  0
  -27.2124  -27.1310   20.1603 C   0  0  0  0  0  0
  -25.5956  -33.8499   24.2187 N   0  0  0  0  0  0
  -23.4482  -30.4638   21.5337 C   0  0  2  0  0  0
  -24.8986  -28.8903   20.1121 C   0  0  0  0  0  0
  -22.7572  -29.4552   22.4855 C   0  0  0  0  0  0
  -18.0307  -28.1398   22.8474 C   0  0  0  0  0  0
  -24.1491  -36.7256   23.2642 C   0  0  0  0  0  0
  -26.0051  -30.7162   21.3888 C   0  0  0  0  0  0
  -26.0764  -29.3261   20.7337 C   0  0  0  0  0  0
  -27.2379  -28.4628   20.7407 C   0  0  0  0  0  0
  -26.0154  -26.8057   19.4871 C   0  0  0  0  0  0
  -24.8810  -27.6432   19.4718 C   0  0  0  0  0  0
  -23.6755  -29.7930   20.1535 C   0  0  0  0  0  0
  -25.4123  -36.3033   24.0315 C   0  0  1  0  0  0
  -20.5919  -28.3728   23.1230 C   0  0  2  0  0  0
  -20.6789  -26.9429   22.5404 C   0  0  0  0  0  0
  -19.5763  -26.6383   21.5213 C   0  0  0  0  0  0
  -18.1945  -26.7938   22.1620 C   0  0  0  0  0  0
  -19.1563  -28.8881   23.2845 C   0  0  0  0  0  0
  -18.9480  -30.1475   23.8873 C   0  0  0  0  0  0
  -17.6477  -30.6592   24.0561 C   0  0  0  0  0  0
  -25.9074  -34.9406   23.5060 C   0  0  0  0  0  0
  -16.5369  -29.9085   23.6337 C   0  0  0  0  0  0
  -16.7292  -28.6505   23.0357 C   0  0  0  0  0  0
  -26.4529  -31.6565   25.0718 C   0  0  0  0  0  0
  -25.3704  -31.3749   26.1407 C   0  0  0  0  0  0
  -27.0401  -30.2962   24.6303 C   0  0  0  0  0  0
  -27.6058  -32.4334   25.7501 C   0  0  0  0  0  0
  -27.5574  -37.1785   24.8465 C   0  0  0  0  0  0
  -21.4264  -29.3054   22.3604 N   0  0  0  0  0  0
  -26.4285  -37.3748   23.9408 N   0  0  0  0  0  0
  -24.7188  -31.0291   22.0921 N   0  0  0  0  0  0
  -23.4209  -28.8099   23.3010 O   0  0  0  0  0  0
  -28.2394  -26.1172   20.1935 O   0  0  0  0  0  0
  -26.5664  -34.8906   22.4641 O   0  0  0  0  0  0
  -23.5557  -32.1318   23.7097 O   0  0  0  0  0  0
  -28.5183  -22.1226   21.3527 C   0  0  0  0  0  0
  -29.3288  -21.3273   18.8533 C   0  0  0  0  0  0
  -28.8630  -20.7204   21.1013 C   0  0  0  0  0  0
  -29.2612  -20.2717   19.8287 C   0  0  0  0  0  0
  -28.9818  -22.7173   19.0996 C   0  0  0  0  0  0
  -28.5410  -23.2016   20.3739 C   0  0  0  0  0  0
  -28.7234  -19.5939   22.1476 C   0  0  0  0  0  0
  -29.4381  -18.6843   19.5404 C   0  0  2  0  0  0
  -29.7818  -18.3960   22.0921 C   0  0  2  0  0  0
  -30.0151  -17.6712   20.6850 C   0  0  1  0  0  0
  -29.0238  -23.6921   17.9382 C   0  0  0  0  0  0
  -30.1490  -18.4096   18.2069 C   0  0  0  0  0  0
  -30.9457  -16.6911   23.6480 C   0  0  0  0  0  0
  -27.8663  -24.6878   20.6840 C   0  0  0  0  0  0
  -29.6319  -17.4058   23.2882 C   0  0  1  0  0  0
  -29.7410  -16.1049   20.5957 N   0  0  0  0  0  0
  -29.2378  -18.0644   24.4807 O   0  0  0  0  0  0
  -31.4740  -12.7461   19.1785 H   0  0  0  0  0  0
  -30.4373  -11.6301   20.0222 H   0  0  0  0  0  0
  -29.8361  -11.7294   17.5790 H   0  0  0  0  0  0
  -29.6070  -13.4573   17.6871 H   0  0  0  0  0  0
  -27.9486  -11.2730   18.9785 H   0  0  0  0  0  0
  -27.3880  -12.4477   17.8177 H   0  0  0  0  0  0
  -27.5951  -14.2486   19.4127 H   0  0  0  0  0  0
  -28.7595  -12.2870   21.4489 H   0  0  0  0  0  0
  -28.3752  -13.9638   21.7588 H   0  0  0  0  0  0
  -25.2774   -9.5681   22.4767 H   0  0  0  0  0  0
  -24.0005   -7.4635   22.7480 H   0  0  0  0  0  0
  -21.0852   -8.8779   19.8954 H   0  0  0  0  0  0
  -22.3715  -10.9676   19.6168 H   0  0  0  0  0  0
  -21.2009   -7.6151   23.9717 H   0  0  0  0  0  0
  -21.1478   -6.0524   25.9077 H   0  0  0  0  0  0
  -22.0599   -2.7611   23.2844 H   0  0  0  0  0  0
  -22.4076  -11.9853   22.4814 H   0  0  0  0  0  0
  -21.1070  -13.1214   22.2646 H   0  0  0  0  0  0
  -24.6369  -15.8392   20.5153 H   0  0  0  0  0  0
  -26.2419  -15.6334   20.0358 H   0  0  0  0  0  0
  -26.7272  -32.5302   23.0998 H   0  0  0  0  0  0
  -25.0081  -33.9610   25.0320 H   0  0  0  0  0  0
  -22.7514  -31.2903   21.3779 H   0  0  0  0  0  0
  -23.3758  -35.9583   23.3294 H   0  0  0  0  0  0
  -24.3575  -36.8899   22.2059 H   0  0  0  0  0  0
  -23.7240  -37.6445   23.6690 H   0  0  0  0  0  0
  -26.1608  -31.4686   20.6141 H   0  0  0  0  0  0
  -26.8752  -30.7681   22.0314 H   0  0  0  0  0  0
  -28.1343  -28.7907   21.2477 H   0  0  0  0  0  0
  -25.9364  -25.8559   18.9776 H   0  0  0  0  0  0
  -23.9859  -27.3073   18.9666 H   0  0  0  0  0  0
  -23.8118  -30.5669   19.3971 H   0  0  0  0  0  0
  -22.7902  -29.2355   19.8432 H   0  0  0  0  0  0
  -25.1308  -36.1859   25.0807 H   0  0  0  0  0  0
  -21.0010  -28.3319   24.1351 H   0  0  0  0  0  0
  -20.5687  -26.2339   23.3626 H   0  0  0  0  0  0
  -21.6654  -26.7438   22.1196 H   0  0  0  0  0  0
  -19.6930  -25.6290   21.1255 H   0  0  0  0  0  0
  -19.6699  -27.3182   20.6734 H   0  0  0  0  0  0
  -17.4214  -26.6685   21.4026 H   0  0  0  0  0  0
  -18.0343  -26.0087   22.9023 H   0  0  0  0  0  0
  -19.7959  -30.7299   24.2229 H   0  0  0  0  0  0
  -17.5032  -31.6270   24.5169 H   0  0  0  0  0  0
  -15.5368  -30.2979   23.7679 H   0  0  0  0  0  0
  -15.8693  -28.0816   22.7086 H   0  0  0  0  0  0
  -24.5900  -30.7079   25.7725 H   0  0  0  0  0  0
  -24.8870  -32.2927   26.4768 H   0  0  0  0  0  0
  -25.7982  -30.8969   27.0228 H   0  0  0  0  0  0
  -26.3024  -29.6677   24.1299 H   0  0  0  0  0  0
  -27.4006  -29.7268   25.4881 H   0  0  0  0  0  0
  -27.8935  -30.4200   23.9629 H   0  0  0  0  0  0
  -27.2653  -33.3662   26.2007 H   0  0  0  0  0  0
  -28.3905  -32.6850   25.0352 H   0  0  0  0  0  0
  -28.0685  -31.8502   26.5471 H   0  0  0  0  0  0
  -28.2584  -38.0091   24.7515 H   0  0  0  0  0  0
  -28.1078  -36.2619   24.6287 H   0  0  0  0  0  0
  -27.2291  -37.1422   25.8868 H   0  0  0  0  0  0
  -20.9480  -29.8766   21.6778 H   0  0  0  0  0  0
  -26.0150  -38.2815   24.1415 H   0  0  0  0  0  0
  -28.1569  -22.3690   22.3414 H   0  0  0  0  0  0
  -29.6099  -21.0597   17.8449 H   0  0  0  0  0  0
  -27.7174  -19.1820   22.0622 H   0  0  0  0  0  0
  -28.7629  -20.0831   23.1205 H   0  0  0  0  0  0
  -28.4065  -18.3611   19.3940 H   0  0  0  0  0  0
  -30.7188  -18.9240   22.2806 H   0  0  0  0  0  0
  -31.0990  -17.7125   20.5634 H   0  0  0  0  0  0
  -29.4525  -23.2376   17.0447 H   0  0  0  0  0  0
  -29.6267  -24.5646   18.1931 H   0  0  0  0  0  0
  -28.0173  -24.0336   17.6941 H   0  0  0  0  0  0
  -31.1596  -18.8185   18.2074 H   0  0  0  0  0  0
  -29.6072  -18.8416   17.3658 H   0  0  0  0  0  0
  -30.2255  -17.3385   18.0180 H   0  0  0  0  0  0
  -31.3666  -16.1521   22.8031 H   0  0  0  0  0  0
  -30.7989  -15.9640   24.4475 H   0  0  0  0  0  0
  -31.7074  -17.3982   23.9794 H   0  0  0  0  0  0
  -27.9070  -24.7782   21.7698 H   0  0  0  0  0  0
  -26.8084  -24.5248   20.4867 H   0  0  0  0  0  0
  -28.8581  -16.6716   23.0570 H   0  0  0  0  0  0
  -28.7651  -15.8744   20.7015 H   0  0  0  0  0  0
  -29.0413  -17.3991   25.1347 H   0  0  0  0  0  0
  1 25  1  0  0  0
  1 30  2  0  0  0
  1 86  1  0  0  0
  2  3  1  0  0  0
  2 25  1  0  0  0
  2 88  1  0  0  0
  2 89  1  0  0  0
  3  4  1  0  0  0
  3 90  1  0  0  0
  3 91  1  0  0  0
  4  5  1  0  0  0
  4 92  1  0  0  0
  4 93  1  0  0  0
  5  6  1  0  0  0
  5 26  1  0  0  0
  5 94  1  0  0  0
  6 25  1  0  0  0
  6 95  1  0  0  0
  6 96  1  0  0  0
  7  8  2  0  0  0
  7 26  1  0  0  0
  7 29  1  0  0  0
  8  9  1  0  0  0
  8 22  1  0  0  0
  9 10  1  0  0  0
  9 27  2  0  0  0
 10 11  2  0  0  0
 10 15  1  0  0  0
 11 12  1  0  0  0
 11 97  1  0  0  0
 12 13  2  0  0  0
 12 98  1  0  0  0
 13 14  1  0  0  0
 13 31  1  0  0  0
 14 15  2  0  0  0
 14 99  1  0  0  0
 15100  1  0  0  0
 16 17  2  0  0  0
 16 21  1  0  0  0
 16 31  1  0  0  0
 17 18  1  0  0  0
 17101  1  0  0  0
 18 19  2  0  0  0
 18102  1  0  0  0
 19 20  1  0  0  0
 19 24  1  0  0  0
 20 21  2  0  0  0
 20103  1  0  0  0
 21 23  1  0  0  0
 22 28  1  0  0  0
 22 32  2  0  0  0
 26 27  1  0  0  0
 28104  1  0  0  0
 28105  1  0  0  0
 29106  1  0  0  0
 29107  1  0  0  0
 33 34  1  0  0  0
 33 66  1  0  0  0
 33 70  2  0  0  0
 34 36  1  0  0  0
 34 59  1  0  0  0
 34108  1  0  0  0
 35 44  2  0  0  0
 35 45  1  0  0  0
 35 68  1  0  0  0
 36 56  1  0  0  0
 36109  1  0  0  0
 37 39  1  0  0  0
 37 47  1  0  0  0
 37 66  1  0  0  0
 37110  1  0  0  0
 38 43  2  0  0  0
 38 46  1  0  0  0
 38 47  1  0  0  0
 39 64  1  0  0  0
 39 67  2  0  0  0
 40 52  1  0  0  0
 40 53  2  0  0  0
 40 58  1  0  0  0
 41111  1  0  0  0
 41112  1  0  0  0
 41113  1  0  0  0
 41 48  1  0  0  0
 42 43  1  0  0  0
 42 66  1  0  0  0
 42114  1  0  0  0
 42115  1  0  0  0
 43 44  1  0  0  0
 44116  1  0  0  0
 45 46  2  0  0  0
 45117  1  0  0  0
 46118  1  0  0  0
 47119  1  0  0  0
 47120  1  0  0  0
 48 56  1  0  0  0
 48 65  1  0  0  0
 48121  1  0  0  0
 49 50  1  0  0  0
 49 53  1  0  0  0
 49 64  1  0  0  0
 49122  1  0  0  0
 50 51  1  0  0  0
 50123  1  0  0  0
 50124  1  0  0  0
 51 52  1  0  0  0
 51125  1  0  0  0
 51126  1  0  0  0
 52127  1  0  0  0
 52128  1  0  0  0
 53 54  1  0  0  0
 54 55  2  0  0  0
 54129  1  0  0  0
 55 57  1  0  0  0
 55130  1  0  0  0
 56 69  2  0  0  0
 57 58  2  0  0  0
 57131  1  0  0  0
 58132  1  0  0  0
 59 60  1  0  0  0
 59 61  1  0  0  0
 59 62  1  0  0  0
 60133  1  0  0  0
 60134  1  0  0  0
 60135  1  0  0  0
 61136  1  0  0  0
 61137  1  0  0  0
 61138  1  0  0  0
 62139  1  0  0  0
 62140  1  0  0  0
 62141  1  0  0  0
 63 65  1  0  0  0
 63142  1  0  0  0
 63143  1  0  0  0
 63144  1  0  0  0
 64145  1  0  0  0
 65146  1  0  0  0
 68 84  1  0  0  0
 71 73  2  0  0  0
 71 76  1  0  0  0
 71147  1  0  0  0
 72 74  2  0  0  0
 72 75  1  0  0  0
 72148  1  0  0  0
 73 74  1  0  0  0
 73 77  1  0  0  0
 74 78  1  0  0  0
 75 76  2  0  0  0
 75 81  1  0  0  0
 76 84  1  0  0  0
 77149  1  0  0  0
 77150  1  0  0  0
 77 79  1  0  0  0
 78 80  1  0  0  0
 78 82  1  0  0  0
 78151  1  0  0  0
 79 80  1  0  0  0
 79 85  1  0  0  0
 79152  1  0  0  0
 80 86  1  0  0  0
 80153  1  0  0  0
 81154  1  0  0  0
 81155  1  0  0  0
 81156  1  0  0  0
 82157  1  0  0  0
 82158  1  0  0  0
 82159  1  0  0  0
 83160  1  0  0  0
 83161  1  0  0  0
 83162  1  0  0  0
 83 85  1  0  0  0
 84163  1  0  0  0
 84164  1  0  0  0
 85 87  1  0  0  0
 85165  1  0  0  0
 86166  1  0  0  0
 87167  1  0  0  0
M  ISO  4   1 100  68 101  84 101  86 100
M  END
> <chiral flag>
0

> <version>
0

> <s_m_source_file>
/data/baiqing/PycharmProjects/Reinvent-master-3.2/result/LINK_invent/BTK/process_docking_weight1_custom_sum_contain_oxygen_bond_distance_aromatic_linkinvent_7_9_3/rearranged_h_0159.sdf

> <i_m_source_file_index>
73

> <r_mmod_Potential_Energy-OPLS-2005>
488.063812255859

> <r_mmod_Stretch_Energy-OPLS-2005>
234.199844360352

> <r_mmod_Bend_Energy-OPLS-2005>
260.235961914062

> <r_mmod_Torsional_Energy-OPLS-2005>
261.997161865234

> <r_mmod_Improper_Torsional_Energy-OPLS-2005>
6.19157409667969

> <r_mmod_Van_der_Waal_Energy-OPLS-2005>
134.260101318359

> <r_mmod_Electrostatic_Energy-OPLS-2005>
-386.215301513672

> <r_mmod_Solvation_Energy-OPLS-2005>
-216.844543457031

> <b_mmod_Minimization_Converged-OPLS-2005>
0

> <r_mmod_RMS_Derivative-OPLS-2005>
0.647999703884125

$$$$
73
                    3D
 Structure written by MMmdl.
164173  0  0  1  0            999 V2000
  -30.5471  -15.0307   20.3765 C   0  0  0  0  0  0
  -30.4236  -12.6343   19.5229 C   0  0  0  0  0  0
  -29.5215  -12.5353   18.2713 C   0  0  0  0  0  0
  -28.0575  -12.3124   18.6867 C   0  0  0  0  0  0
  -27.6206  -13.2620   19.8330 C   0  0  2  0  0  0
  -28.6579  -13.3534   20.9739 C   0  0  0  0  0  0
  -25.2418  -13.8239   20.5726 C   0  0  0  0  0  0
  -24.1753  -13.0442   20.9232 C   0  0  0  0  0  0
  -24.6388  -11.6933   20.8754 C   0  0  0  0  0  0
  -23.9080  -10.4295   21.0401 C   0  0  0  0  0  0
  -24.3630   -9.4211   21.9179 C   0  0  0  0  0  0
  -23.6302   -8.2247   22.0751 C   0  0  0  0  0  0
  -22.4284   -8.0281   21.3541 C   0  0  0  0  0  0
  -21.9921   -9.0254   20.4644 C   0  0  0  0  0  0
  -22.7249  -10.2133   20.3052 C   0  0  0  0  0  0
  -21.6858   -6.0734   22.5277 C   0  0  0  0  0  0
  -21.4017   -6.5639   23.8208 C   0  0  0  0  0  0
  -21.3661   -5.6792   24.9172 C   0  0  0  0  0  0
  -21.6045   -4.3055   24.7224 C   0  0  0  0  0  0
  -21.8820   -3.8144   23.4344 C   0  0  0  0  0  0
  -21.9196   -4.6960   22.3401 C   0  0  0  0  0  0
  -22.7775  -13.5201   21.1885 C   0  0  0  0  0  0
  -22.1663   -4.2145   21.0979 F   0  0  0  0  0  0
  -21.5630   -3.4539   25.7737 F   0  0  0  0  0  0
  -29.9274  -13.7709   20.3673 N   0  0  0  0  0  0
  -26.2843  -12.9496   20.3241 N   0  0  0  0  0  0
  -25.9322  -11.6609   20.5737 N   0  0  0  0  0  0
  -22.0436  -12.8183   22.0443 N   0  0  0  0  0  0
  -25.4077  -15.1968   20.4153 N   0  0  0  0  0  0
  -31.7508  -14.9937   20.1049 O   0  0  0  0  0  0
  -21.6647   -6.8875   21.4236 O   0  0  0  0  0  0
  -22.3456  -14.5502   20.6725 O   0  0  0  0  0  0
  -24.6477  -31.8371   23.1813 C   0  0  0  0  0  0
  -25.9231  -32.4651   23.8223 C   0  0  1  0  0  0
  -27.2172  -27.0784   20.1596 C   0  0  0  0  0  0
  -25.5960  -33.8462   24.2142 N   0  0  0  0  0  0
  -23.4539  -30.4530   21.5266 C   0  0  2  0  0  0
  -24.9039  -28.8658   20.1047 C   0  0  0  0  0  0
  -22.7588  -29.4514   22.4828 C   0  0  0  0  0  0
  -18.0309  -28.1400   22.8471 C   0  0  0  0  0  0
  -24.1495  -36.7237   23.2647 C   0  0  0  0  0  0
  -26.0117  -30.6912   21.3890 C   0  0  0  0  0  0
  -26.0789  -29.2967   20.7307 C   0  0  0  0  0  0
  -27.2300  -28.4174   20.7423 C   0  0  0  0  0  0
  -26.0177  -26.7580   19.4882 C   0  0  0  0  0  0
  -24.8893  -27.6130   19.4680 C   0  0  0  0  0  0
  -23.6826  -29.7749   20.1476 C   0  0  0  0  0  0
  -25.4129  -36.3005   24.0311 C   0  0  1  0  0  0
  -20.5924  -28.3728   23.1226 C   0  0  2  0  0  0
  -20.6792  -26.9426   22.5404 C   0  0  0  0  0  0
  -19.5767  -26.6380   21.5213 C   0  0  0  0  0  0
  -18.1947  -26.7937   22.1620 C   0  0  0  0  0  0
  -19.1566  -28.8884   23.2839 C   0  0  0  0  0  0
  -18.9483  -30.1479   23.8865 C   0  0  0  0  0  0
  -17.6478  -30.6594   24.0557 C   0  0  0  0  0  0
  -25.9083  -34.9383   23.5039 C   0  0  0  0  0  0
  -16.5369  -29.9084   23.6341 C   0  0  0  0  0  0
  -16.7293  -28.6504   23.0356 C   0  0  0  0  0  0
  -26.4534  -31.6552   25.0697 C   0  0  0  0  0  0
  -25.3705  -31.3759   26.1384 C   0  0  0  0  0  0
  -27.0421  -30.2942   24.6336 C   0  0  0  0  0  0
  -27.6048  -32.4339   25.7486 C   0  0  0  0  0  0
  -27.5574  -37.1774   24.8467 C   0  0  0  0  0  0
  -21.4273  -29.3042   22.3586 N   0  0  0  0  0  0
  -26.4285  -37.3726   23.9406 N   0  0  0  0  0  0
  -24.7245  -31.0175   22.0870 N   0  0  0  0  0  0
  -23.4210  -28.8080   23.3012 O   0  0  0  0  0  0
  -28.2759  -26.0912   20.2875 O   0  0  0  0  0  0
  -26.5675  -34.8898   22.4623 O   0  0  0  0  0  0
  -23.5587  -32.1279   23.7001 O   0  0  0  0  0  0
  -28.6559  -20.2348   20.3672 C   0  0  0  0  0  0
  -29.0837  -21.6171   20.3528 C   0  0  0  0  0  0
  -30.4976  -21.4377   20.1186 C   0  0  0  0  0  0
  -30.7932  -20.0849   19.9849 C   0  0  0  0  0  0
  -31.9929  -19.2896   19.6373 C   0  0  0  0  0  0
  -31.4793  -17.9078   19.1966 C   0  0  0  0  0  0
  -30.0250  -17.7150   19.7286 C   0  0  1  0  0  0
  -31.9267  -22.8064   18.5536 C   0  0  0  0  0  0
  -32.7257  -22.3563   20.9277 C   0  0  0  0  0  0
  -28.3494  -24.5865   19.7880 C   0  0  0  0  0  0
  -31.5105  -22.5656   20.0111 C   0  0  0  0  0  0
  -28.3251  -23.1081   20.6657 C   0  0  2  0  0  0
  -29.7130  -19.2507   20.1378 N   0  0  0  0  0  0
  -29.8373  -16.2915   20.4683 N   0  0  0  0  0  0
  -28.6251  -23.4301   22.0705 N   0  3  0  0  0  0
  -31.4615  -12.7638   19.2126 H   0  0  0  0  0  0
  -30.4046  -11.6997   20.0855 H   0  0  0  0  0  0
  -29.8552  -11.7225   17.6246 H   0  0  0  0  0  0
  -29.6049  -13.4502   17.6831 H   0  0  0  0  0  0
  -27.9652  -11.2756   19.0126 H   0  0  0  0  0  0
  -27.3957  -12.4213   17.8265 H   0  0  0  0  0  0
  -27.5662  -14.2513   19.3776 H   0  0  0  0  0  0
  -28.7598  -12.4008   21.4958 H   0  0  0  0  0  0
  -28.3409  -14.0846   21.7193 H   0  0  0  0  0  0
  -25.2772   -9.5691   22.4757 H   0  0  0  0  0  0
  -24.0012   -7.4640   22.7473 H   0  0  0  0  0  0
  -21.0853   -8.8769   19.8954 H   0  0  0  0  0  0
  -22.3699  -10.9671   19.6165 H   0  0  0  0  0  0
  -21.2010   -7.6147   23.9709 H   0  0  0  0  0  0
  -21.1483   -6.0525   25.9075 H   0  0  0  0  0  0
  -22.0598   -2.7606   23.2847 H   0  0  0  0  0  0
  -22.4071  -11.9858   22.4840 H   0  0  0  0  0  0
  -21.1044  -13.1181   22.2636 H   0  0  0  0  0  0
  -24.6380  -15.8479   20.5266 H   0  0  0  0  0  0
  -26.2508  -15.6373   20.0713 H   0  0  0  0  0  0
  -26.7294  -32.5228   23.0940 H   0  0  0  0  0  0
  -25.0079  -33.9561   25.0271 H   0  0  0  0  0  0
  -22.7597  -31.2805   21.3662 H   0  0  0  0  0  0
  -23.3761  -35.9565   23.3290 H   0  0  0  0  0  0
  -24.3580  -36.8892   22.2066 H   0  0  0  0  0  0
  -23.7247  -37.6425   23.6700 H   0  0  0  0  0  0
  -26.1778  -31.4431   20.6165 H   0  0  0  0  0  0
  -26.8784  -30.7395   22.0367 H   0  0  0  0  0  0
  -28.1208  -28.7388   21.2634 H   0  0  0  0  0  0
  -25.9111  -25.7969   19.0088 H   0  0  0  0  0  0
  -23.9906  -27.2775   18.9685 H   0  0  0  0  0  0
  -23.8217  -30.5461   19.3894 H   0  0  0  0  0  0
  -22.7964  -29.2184   19.8375 H   0  0  0  0  0  0
  -25.1322  -36.1817   25.0802 H   0  0  0  0  0  0
  -21.0013  -28.3322   24.1348 H   0  0  0  0  0  0
  -20.5685  -26.2341   23.3628 H   0  0  0  0  0  0
  -21.6658  -26.7423   22.1204 H   0  0  0  0  0  0
  -19.6928  -25.6283   21.1263 H   0  0  0  0  0  0
  -19.6710  -27.3173   20.6730 H   0  0  0  0  0  0
  -17.4217  -26.6682   21.4021 H   0  0  0  0  0  0
  -18.0341  -26.0086   22.9024 H   0  0  0  0  0  0
  -19.7959  -30.7304   24.2219 H   0  0  0  0  0  0
  -17.5031  -31.6271   24.5163 H   0  0  0  0  0  0
  -15.5368  -30.2972   23.7689 H   0  0  0  0  0  0
  -15.8693  -28.0814   22.7089 H   0  0  0  0  0  0
  -24.5886  -30.7106   25.7700 H   0  0  0  0  0  0
  -24.8893  -32.2949   26.4741 H   0  0  0  0  0  0
  -25.7975  -30.8971   27.0205 H   0  0  0  0  0  0
  -26.3062  -29.6634   24.1339 H   0  0  0  0  0  0
  -27.4008  -29.7275   25.4939 H   0  0  0  0  0  0
  -27.8975  -30.4166   23.9689 H   0  0  0  0  0  0
  -27.2627  -33.3662   26.1990 H   0  0  0  0  0  0
  -28.3895  -32.6865   25.0343 H   0  0  0  0  0  0
  -28.0678  -31.8518   26.5465 H   0  0  0  0  0  0
  -28.2578  -38.0082   24.7510 H   0  0  0  0  0  0
  -28.1082  -36.2609   24.6295 H   0  0  0  0  0  0
  -27.2291  -37.1420   25.8870 H   0  0  0  0  0  0
  -20.9495  -29.8736   21.6740 H   0  0  0  0  0  0
  -26.0145  -38.2791   24.1404 H   0  0  0  0  0  0
  -27.6494  -19.8555   20.4896 H   0  0  0  0  0  0
  -32.6304  -19.1883   20.5159 H   0  0  0  0  0  0
  -32.5853  -19.7588   18.8528 H   0  0  0  0  0  0
  -32.2152  -17.1749   19.5005 H   0  0  0  0  0  0
  -31.4492  -17.8745   18.1066 H   0  0  0  0  0  0
  -29.3992  -17.5653   18.8475 H   0  0  0  0  0  0
  -31.0592  -23.0210   17.9286 H   0  0  0  0  0  0
  -32.4332  -21.9413   18.1275 H   0  0  0  0  0  0
  -32.6063  -23.6555   18.4744 H   0  0  0  0  0  0
  -32.4171  -22.2147   21.9639 H   0  0  0  0  0  0
  -33.3858  -23.2239   20.9010 H   0  0  0  0  0  0
  -33.3199  -21.4918   20.6353 H   0  0  0  0  0  0
  -27.6667  -24.4720   18.9473 H   0  0  0  0  0  0
  -29.3218  -24.5836   19.2980 H   0  0  0  0  0  0
  -31.0307  -23.4778   20.3598 H   0  0  0  0  0  0
  -27.2675  -22.8421   20.6801 H   0  0  0  0  0  0
  -28.8953  -16.1704   20.8076 H   0  0  0  0  0  0
  -28.4292  -22.6368   22.6542 H   0  0  0  0  0  0
  -28.0604  -24.2022   22.3790 H   0  0  0  0  0  0
  -29.5906  -23.6802   22.1857 H   0  0  0  0  0  0
  1 25  1  0  0  0
  1 30  2  0  0  0
  1 84  1  0  0  0
  2  3  1  0  0  0
  2 25  1  0  0  0
  2 86  1  0  0  0
  2 87  1  0  0  0
  3  4  1  0  0  0
  3 88  1  0  0  0
  3 89  1  0  0  0
  4  5  1  0  0  0
  4 90  1  0  0  0
  4 91  1  0  0  0
  5  6  1  0  0  0
  5 26  1  0  0  0
  5 92  1  0  0  0
  6 25  1  0  0  0
  6 93  1  0  0  0
  6 94  1  0  0  0
  7  8  2  0  0  0
  7 26  1  0  0  0
  7 29  1  0  0  0
  8  9  1  0  0  0
  8 22  1  0  0  0
  9 10  1  0  0  0
  9 27  2  0  0  0
 10 11  2  0  0  0
 10 15  1  0  0  0
 11 12  1  0  0  0
 11 95  1  0  0  0
 12 13  2  0  0  0
 12 96  1  0  0  0
 13 14  1  0  0  0
 13 31  1  0  0  0
 14 15  2  0  0  0
 14 97  1  0  0  0
 15 98  1  0  0  0
 16 17  2  0  0  0
 16 21  1  0  0  0
 16 31  1  0  0  0
 17 18  1  0  0  0
 17 99  1  0  0  0
 18 19  2  0  0  0
 18100  1  0  0  0
 19 20  1  0  0  0
 19 24  1  0  0  0
 20 21  2  0  0  0
 20101  1  0  0  0
 21 23  1  0  0  0
 22 28  1  0  0  0
 22 32  2  0  0  0
 26 27  1  0  0  0
 28102  1  0  0  0
 28103  1  0  0  0
 29104  1  0  0  0
 29105  1  0  0  0
 33 34  1  0  0  0
 33 66  1  0  0  0
 33 70  2  0  0  0
 34 36  1  0  0  0
 34 59  1  0  0  0
 34106  1  0  0  0
 35 44  2  0  0  0
 35 45  1  0  0  0
 35 68  1  0  0  0
 36 56  1  0  0  0
 36107  1  0  0  0
 37 39  1  0  0  0
 37 47  1  0  0  0
 37 66  1  0  0  0
 37108  1  0  0  0
 38 43  2  0  0  0
 38 46  1  0  0  0
 38 47  1  0  0  0
 39 64  1  0  0  0
 39 67  2  0  0  0
 40 52  1  0  0  0
 40 53  2  0  0  0
 40 58  1  0  0  0
 41109  1  0  0  0
 41110  1  0  0  0
 41111  1  0  0  0
 41 48  1  0  0  0
 42 43  1  0  0  0
 42 66  1  0  0  0
 42112  1  0  0  0
 42113  1  0  0  0
 43 44  1  0  0  0
 44114  1  0  0  0
 45 46  2  0  0  0
 45115  1  0  0  0
 46116  1  0  0  0
 47117  1  0  0  0
 47118  1  0  0  0
 48 56  1  0  0  0
 48 65  1  0  0  0
 48119  1  0  0  0
 49 50  1  0  0  0
 49 53  1  0  0  0
 49 64  1  0  0  0
 49120  1  0  0  0
 50 51  1  0  0  0
 50121  1  0  0  0
 50122  1  0  0  0
 51 52  1  0  0  0
 51123  1  0  0  0
 51124  1  0  0  0
 52125  1  0  0  0
 52126  1  0  0  0
 53 54  1  0  0  0
 54 55  2  0  0  0
 54127  1  0  0  0
 55 57  1  0  0  0
 55128  1  0  0  0
 56 69  2  0  0  0
 57 58  2  0  0  0
 57129  1  0  0  0
 58130  1  0  0  0
 59 60  1  0  0  0
 59 61  1  0  0  0
 59 62  1  0  0  0
 60131  1  0  0  0
 60132  1  0  0  0
 60133  1  0  0  0
 61134  1  0  0  0
 61135  1  0  0  0
 61136  1  0  0  0
 62137  1  0  0  0
 62138  1  0  0  0
 62139  1  0  0  0
 63 65  1  0  0  0
 63140  1  0  0  0
 63141  1  0  0  0
 63142  1  0  0  0
 64143  1  0  0  0
 65144  1  0  0  0
 68 80  1  0  0  0
 71 72  2  0  0  0
 71 83  1  0  0  0
 71145  1  0  0  0
 72 73  1  0  0  0
 72 82  1  0  0  0
 73 74  2  0  0  0
 73 81  1  0  0  0
 74 75  1  0  0  0
 74 83  1  0  0  0
 75 76  1  0  0  0
 75146  1  0  0  0
 75147  1  0  0  0
 76 77  1  0  0  0
 76148  1  0  0  0
 76149  1  0  0  0
 77 83  1  0  0  0
 77 84  1  0  0  0
 77150  1  0  0  0
 78151  1  0  0  0
 78152  1  0  0  0
 78153  1  0  0  0
 78 81  1  0  0  0
 79 81  1  0  0  0
 79154  1  0  0  0
 79155  1  0  0  0
 79156  1  0  0  0
 80 82  1  0  0  0
 80157  1  0  0  0
 80158  1  0  0  0
 81159  1  0  0  0
 82 85  1  0  0  0
 82160  1  0  0  0
 84161  1  0  0  0
 85162  1  0  0  0
 85163  1  0  0  0
 85164  1  0  0  0
M  CHG  1  85   1
M  ISO  4   1 100  68 101  80 101  84 100
M  END
> <chiral flag>
0

> <version>
0

> <s_m_source_file>
/data/baiqing/PycharmProjects/Reinvent-master-3.2/result/LINK_invent/BTK/process_docking_weight1_custom_sum_contain_oxygen_bond_distance_aromatic_linkinvent_7_9_3/rearranged_h_0159.sdf

> <i_m_source_file_index>
74

> <r_mmod_Potential_Energy-OPLS-2005>
492.881469726562

> <r_mmod_Stretch_Energy-OPLS-2005>
340.850708007812

> <r_mmod_Bend_Energy-OPLS-2005>
436.506134033203

> <r_mmod_Torsional_Energy-OPLS-2005>
262.646545410156

> <r_mmod_Improper_Torsional_Energy-OPLS-2005>
10.201961517334

> <r_mmod_Van_der_Waal_Energy-OPLS-2005>
108.113426208496

> <r_mmod_Electrostatic_Energy-OPLS-2005>
-451.348846435547

> <r_mmod_Solvation_Energy-OPLS-2005>
-461.463989257812

> <b_mmod_Minimization_Converged-OPLS-2005>
0

> <r_mmod_RMS_Derivative-OPLS-2005>
0.662186563014984

$$$$
74
                    3D
 Structure written by MMmdl.
175184  0  0  1  0            999 V2000
  -30.6605  -14.7043   20.5769 C   0  0  0  0  0  0
  -30.4195  -12.4690   19.4691 C   0  0  0  0  0  0
  -29.4941  -12.5368   18.2362 C   0  0  0  0  0  0
  -28.0172  -12.3706   18.6401 C   0  0  0  0  0  0
  -27.6413  -13.2332   19.8750 C   0  0  2  0  0  0
  -28.6827  -13.0879   20.9985 C   0  0  0  0  0  0
  -25.2492  -13.8230   20.5708 C   0  0  0  0  0  0
  -24.1749  -13.0464   20.9181 C   0  0  0  0  0  0
  -24.6334  -11.6955   20.8731 C   0  0  0  0  0  0
  -23.9007  -10.4324   21.0445 C   0  0  0  0  0  0
  -24.3594   -9.4245   21.9214 C   0  0  0  0  0  0
  -23.6289   -8.2250   22.0765 C   0  0  0  0  0  0
  -22.4284   -8.0304   21.3550 C   0  0  0  0  0  0
  -21.9892   -9.0252   20.4643 C   0  0  0  0  0  0
  -22.7192  -10.2159   20.3070 C   0  0  0  0  0  0
  -21.6871   -6.0761   22.5254 C   0  0  0  0  0  0
  -21.4031   -6.5653   23.8205 C   0  0  0  0  0  0
  -21.3643   -5.6812   24.9157 C   0  0  0  0  0  0
  -21.6027   -4.3059   24.7225 C   0  0  0  0  0  0
  -21.8836   -3.8162   23.4337 C   0  0  0  0  0  0
  -21.9194   -4.6968   22.3405 C   0  0  0  0  0  0
  -22.7772  -13.5276   21.1829 C   0  0  0  0  0  0
  -22.1669   -4.2166   21.0972 F   0  0  0  0  0  0
  -21.5606   -3.4539   25.7724 F   0  0  0  0  0  0
  -29.9705  -13.5093   20.4359 N   0  0  0  0  0  0
  -26.2938  -12.9417   20.3447 N   0  0  0  0  0  0
  -25.9281  -11.6564   20.5792 N   0  0  0  0  0  0
  -22.0388  -12.8290   22.0386 N   0  0  0  0  0  0
  -25.4208  -15.1942   20.4124 N   0  0  0  0  0  0
  -31.8377  -14.7224   20.1963 O   0  0  0  0  0  0
  -21.6659   -6.8897   21.4244 O   0  0  0  0  0  0
  -22.3446  -14.5572   20.6661 O   0  0  0  0  0  0
  -24.6207  -31.8669   23.2049 C   0  0  0  0  0  0
  -25.9063  -32.4814   23.8435 C   0  0  1  0  0  0
  -27.2212  -27.3153   20.1587 C   0  0  0  0  0  0
  -25.5866  -33.8610   24.2356 N   0  0  0  0  0  0
  -23.4180  -30.4906   21.5384 C   0  0  2  0  0  0
  -24.8709  -28.9525   20.1024 C   0  0  0  0  0  0
  -22.7477  -29.4633   22.4880 C   0  0  0  0  0  0
  -18.0248  -28.1301   22.8452 C   0  0  0  0  0  0
  -24.1486  -36.7294   23.2641 C   0  0  0  0  0  0
  -25.9573  -30.8017   21.3801 C   0  0  0  0  0  0
  -26.0287  -29.4256   20.7299 C   0  0  0  0  0  0
  -27.1992  -28.6108   20.7620 C   0  0  0  0  0  0
  -26.0415  -26.9186   19.4925 C   0  0  0  0  0  0
  -24.8767  -27.7065   19.4699 C   0  0  0  0  0  0
  -23.6333  -29.8243   20.1528 C   0  0  0  0  0  0
  -25.4110  -36.3126   24.0343 C   0  0  1  0  0  0
  -20.5880  -28.3676   23.1163 C   0  0  2  0  0  0
  -20.6824  -26.9399   22.5325 C   0  0  0  0  0  0
  -19.5760  -26.6289   21.5168 C   0  0  0  0  0  0
  -18.1909  -26.7816   22.1580 C   0  0  0  0  0  0
  -19.1515  -28.8767   23.2798 C   0  0  0  0  0  0
  -18.9475  -30.1339   23.8895 C   0  0  0  0  0  0
  -17.6506  -30.6551   24.0466 C   0  0  0  0  0  0
  -25.9015  -34.9477   23.5132 C   0  0  0  0  0  0
  -16.5377  -29.9073   23.6263 C   0  0  0  0  0  0
  -16.7226  -28.6414   23.0379 C   0  0  0  0  0  0
  -26.4439  -31.6556   25.0773 C   0  0  0  0  0  0
  -25.3696  -31.3682   26.1531 C   0  0  0  0  0  0
  -27.0315  -30.3012   24.6149 C   0  0  0  0  0  0
  -27.5969  -32.4299   25.7490 C   0  0  0  0  0  0
  -27.5578  -37.1814   24.8459 C   0  0  0  0  0  0
  -21.4191  -29.3065   22.3598 N   0  0  0  0  0  0
  -26.4324  -37.3798   23.9369 N   0  0  0  0  0  0
  -24.6814  -31.0758   22.0973 N   0  0  0  0  0  0
  -23.4194  -28.8194   23.2987 O   0  0  0  0  0  0
  -28.3307  -26.4650   20.3029 O   0  0  0  0  0  0
  -26.5633  -34.8913   22.4745 O   0  0  0  0  0  0
  -23.5346  -32.1399   23.7395 O   0  0  0  0  0  0
  -26.4167  -21.9567   19.9460 C   0  0  0  0  0  0
  -26.9489  -23.1582   19.4255 C   0  0  0  0  0  0
  -27.1009  -21.2278   20.9466 C   0  0  0  0  0  0
  -28.8574  -22.9222   20.9559 C   0  0  0  0  0  0
  -28.0942  -23.7661   20.0368 C   0  0  0  0  0  0
  -28.4341  -21.5572   21.3270 C   0  0  0  0  0  0
  -30.0468  -18.5967   20.3086 C   0  0  0  0  0  0
  -28.5591  -17.7753   22.0191 C   0  0  0  0  0  0
  -30.7334  -17.1720   20.2548 C   0  0  0  0  0  0
  -29.1259  -16.2981   21.9143 C   0  0  0  0  0  0
  -29.5564  -18.9306   21.7231 C   0  0  0  0  0  0
  -25.0473  -21.4484   19.4513 C   0  0  0  0  0  0
  -26.2511  -23.6961   18.1682 C   0  0  0  0  0  0
  -26.3073  -20.1143   21.6386 C   0  0  0  0  0  0
  -30.1309  -23.5388   21.5462 C   0  0  0  0  0  0
  -30.4191  -20.9536   23.0307 C   0  0  0  0  0  0
  -28.5526  -25.2149   19.5345 C   0  0  0  0  0  0
  -29.2098  -20.4520   22.2212 C   0  0  2  0  0  0
  -30.0189  -15.9464   20.7663 N   0  0  0  0  0  0
  -31.4493  -12.6081   19.1367 H   0  0  0  0  0  0
  -30.3889  -11.4726   19.9207 H   0  0  0  0  0  0
  -29.7671  -11.7829   17.4959 H   0  0  0  0  0  0
  -29.6187  -13.5085   17.7529 H   0  0  0  0  0  0
  -27.8436  -11.3141   18.8543 H   0  0  0  0  0  0
  -27.3666  -12.6265   17.8033 H   0  0  0  0  0  0
  -27.6576  -14.2736   19.5463 H   0  0  0  0  0  0
  -28.7286  -12.0465   21.3237 H   0  0  0  0  0  0
  -28.4143  -13.6403   21.8914 H   0  0  0  0  0  0
  -25.2740   -9.5759   22.4803 H   0  0  0  0  0  0
  -24.0001   -7.4679   22.7512 H   0  0  0  0  0  0
  -21.0812   -8.8781   19.8961 H   0  0  0  0  0  0
  -22.3636  -10.9716   19.6186 H   0  0  0  0  0  0
  -21.2056   -7.6169   23.9718 H   0  0  0  0  0  0
  -21.1427   -6.0528   25.9068 H   0  0  0  0  0  0
  -22.0625   -2.7618   23.2828 H   0  0  0  0  0  0
  -22.3956  -11.9943   22.4813 H   0  0  0  0  0  0
  -21.1016  -13.1373   22.2611 H   0  0  0  0  0  0
  -24.6611  -15.8586   20.5286 H   0  0  0  0  0  0
  -26.2885  -15.6299   20.1238 H   0  0  0  0  0  0
  -26.7177  -32.5509   23.1224 H   0  0  0  0  0  0
  -25.0029  -33.9788   25.0505 H   0  0  0  0  0  0
  -22.7068  -31.3066   21.3935 H   0  0  0  0  0  0
  -23.3772  -35.9606   23.3329 H   0  0  0  0  0  0
  -24.3546  -36.8894   22.2052 H   0  0  0  0  0  0
  -23.7264  -37.6502   23.6650 H   0  0  0  0  0  0
  -26.1005  -31.5655   20.6111 H   0  0  0  0  0  0
  -26.8348  -30.8446   22.0169 H   0  0  0  0  0  0
  -28.0755  -28.9501   21.2976 H   0  0  0  0  0  0
  -25.9634  -25.9705   19.0217 H   0  0  0  0  0  0
  -23.9793  -27.3528   18.9734 H   0  0  0  0  0  0
  -23.7286  -30.5922   19.3844 H   0  0  0  0  0  0
  -22.7573  -29.2378   19.8734 H   0  0  0  0  0  0
  -25.1315  -36.1985   25.0860 H   0  0  0  0  0  0
  -20.9960  -28.3281   24.1270 H   0  0  0  0  0  0
  -20.5788  -26.2342   23.3592 H   0  0  0  0  0  0
  -21.6693  -26.7437   22.1106 H   0  0  0  0  0  0
  -19.6995  -25.6198   21.1169 H   0  0  0  0  0  0
  -19.6607  -27.3094   20.6694 H   0  0  0  0  0  0
  -17.4222  -26.6497   21.3931 H   0  0  0  0  0  0
  -18.0287  -25.9902   22.8933 H   0  0  0  0  0  0
  -19.7975  -30.7010   24.2362 H   0  0  0  0  0  0
  -17.5092  -31.6247   24.5044 H   0  0  0  0  0  0
  -15.5396  -30.3040   23.7492 H   0  0  0  0  0  0
  -15.8587  -28.0692   22.7279 H   0  0  0  0  0  0
  -24.5861  -30.7006   25.7949 H   0  0  0  0  0  0
  -24.8882  -32.2842   26.4954 H   0  0  0  0  0  0
  -25.8039  -30.8927   27.0337 H   0  0  0  0  0  0
  -26.2948  -29.6737   24.1144 H   0  0  0  0  0  0
  -27.4091  -29.7217   25.4579 H   0  0  0  0  0  0
  -27.8738  -30.4349   23.9349 H   0  0  0  0  0  0
  -27.2585  -33.3614   26.2005 H   0  0  0  0  0  0
  -28.3758  -32.6833   25.0301 H   0  0  0  0  0  0
  -28.0672  -31.8514   26.5439 H   0  0  0  0  0  0
  -28.2641  -38.0072   24.7518 H   0  0  0  0  0  0
  -28.1041  -36.2615   24.6313 H   0  0  0  0  0  0
  -27.2255  -37.1502   25.8853 H   0  0  0  0  0  0
  -20.9401  -29.8817   21.6803 H   0  0  0  0  0  0
  -26.0201  -38.2873   24.1378 H   0  0  0  0  0  0
  -29.2146  -18.6559   19.6067 H   0  0  0  0  0  0
  -30.7622  -19.3499   19.9760 H   0  0  0  0  0  0
  -28.1284  -17.9253   23.0091 H   0  0  0  0  0  0
  -27.7295  -17.8385   21.3192 H   0  0  0  0  0  0
  -31.6541  -17.2547   20.8404 H   0  0  0  0  0  0
  -31.0476  -16.9899   19.2273 H   0  0  0  0  0  0
  -28.2484  -15.6616   21.8974 H   0  0  0  0  0  0
  -29.6484  -16.0577   22.8437 H   0  0  0  0  0  0
  -30.4066  -18.6436   22.3425 H   0  0  0  0  0  0
  -24.8580  -21.6035   18.3960 H   0  0  0  0  0  0
  -24.2476  -21.9351   20.0060 H   0  0  0  0  0  0
  -24.9222  -20.3788   19.5795 H   0  0  0  0  0  0
  -25.1986  -23.8850   18.3651 H   0  0  0  0  0  0
  -26.3000  -22.9468   17.3836 H   0  0  0  0  0  0
  -26.6459  -24.5750   17.6797 H   0  0  0  0  0  0
  -25.2975  -20.4693   21.8393 H   0  0  0  0  0  0
  -26.6596  -19.7969   22.6150 H   0  0  0  0  0  0
  -26.2102  -19.2557   20.9794 H   0  0  0  0  0  0
  -30.1376  -23.4531   22.6277 H   0  0  0  0  0  0
  -30.2289  -24.6113   21.3960 H   0  0  0  0  0  0
  -31.0213  -23.0559   21.1374 H   0  0  0  0  0  0
  -30.8639  -20.1803   23.6551 H   0  0  0  0  0  0
  -30.1469  -21.7429   23.7252 H   0  0  0  0  0  0
  -31.2140  -21.2999   22.3820 H   0  0  0  0  0  0
  -28.2182  -25.4126   18.5232 H   0  0  0  0  0  0
  -29.6317  -25.1579   19.3765 H   0  0  0  0  0  0
  -28.5478  -20.2958   23.0682 H   0  0  0  0  0  0
  1 25  1  0  0  0
  1 30  2  0  0  0
  1 89  1  0  0  0
  2  3  1  0  0  0
  2 25  1  0  0  0
  2 90  1  0  0  0
  2 91  1  0  0  0
  3  4  1  0  0  0
  3 92  1  0  0  0
  3 93  1  0  0  0
  4  5  1  0  0  0
  4 94  1  0  0  0
  4 95  1  0  0  0
  5  6  1  0  0  0
  5 26  1  0  0  0
  5 96  1  0  0  0
  6 25  1  0  0  0
  6 97  1  0  0  0
  6 98  1  0  0  0
  7  8  2  0  0  0
  7 26  1  0  0  0
  7 29  1  0  0  0
  8  9  1  0  0  0
  8 22  1  0  0  0
  9 10  1  0  0  0
  9 27  2  0  0  0
 10 11  2  0  0  0
 10 15  1  0  0  0
 11 12  1  0  0  0
 11 99  1  0  0  0
 12 13  2  0  0  0
 12100  1  0  0  0
 13 14  1  0  0  0
 13 31  1  0  0  0
 14 15  2  0  0  0
 14101  1  0  0  0
 15102  1  0  0  0
 16 17  2  0  0  0
 16 21  1  0  0  0
 16 31  1  0  0  0
 17 18  1  0  0  0
 17103  1  0  0  0
 18 19  2  0  0  0
 18104  1  0  0  0
 19 20  1  0  0  0
 19 24  1  0  0  0
 20 21  2  0  0  0
 20105  1  0  0  0
 21 23  1  0  0  0
 22 28  1  0  0  0
 22 32  2  0  0  0
 26 27  1  0  0  0
 28106  1  0  0  0
 28107  1  0  0  0
 29108  1  0  0  0
 29109  1  0  0  0
 33 34  1  0  0  0
 33 66  1  0  0  0
 33 70  2  0  0  0
 34 36  1  0  0  0
 34 59  1  0  0  0
 34110  1  0  0  0
 35 44  2  0  0  0
 35 45  1  0  0  0
 35 68  1  0  0  0
 36 56  1  0  0  0
 36111  1  0  0  0
 37 39  1  0  0  0
 37 47  1  0  0  0
 37 66  1  0  0  0
 37112  1  0  0  0
 38 43  2  0  0  0
 38 46  1  0  0  0
 38 47  1  0  0  0
 39 64  1  0  0  0
 39 67  2  0  0  0
 40 52  1  0  0  0
 40 53  2  0  0  0
 40 58  1  0  0  0
 41113  1  0  0  0
 41114  1  0  0  0
 41115  1  0  0  0
 41 48  1  0  0  0
 42 43  1  0  0  0
 42 66  1  0  0  0
 42116  1  0  0  0
 42117  1  0  0  0
 43 44  1  0  0  0
 44118  1  0  0  0
 45 46  2  0  0  0
 45119  1  0  0  0
 46120  1  0  0  0
 47121  1  0  0  0
 47122  1  0  0  0
 48 56  1  0  0  0
 48 65  1  0  0  0
 48123  1  0  0  0
 49 50  1  0  0  0
 49 53  1  0  0  0
 49 64  1  0  0  0
 49124  1  0  0  0
 50 51  1  0  0  0
 50125  1  0  0  0
 50126  1  0  0  0
 51 52  1  0  0  0
 51127  1  0  0  0
 51128  1  0  0  0
 52129  1  0  0  0
 52130  1  0  0  0
 53 54  1  0  0  0
 54 55  2  0  0  0
 54131  1  0  0  0
 55 57  1  0  0  0
 55132  1  0  0  0
 56 69  2  0  0  0
 57 58  2  0  0  0
 57133  1  0  0  0
 58134  1  0  0  0
 59 60  1  0  0  0
 59 61  1  0  0  0
 59 62  1  0  0  0
 60135  1  0  0  0
 60136  1  0  0  0
 60137  1  0  0  0
 61138  1  0  0  0
 61139  1  0  0  0
 61140  1  0  0  0
 62141  1  0  0  0
 62142  1  0  0  0
 62143  1  0  0  0
 63 65  1  0  0  0
 63144  1  0  0  0
 63145  1  0  0  0
 63146  1  0  0  0
 64147  1  0  0  0
 65148  1  0  0  0
 68 87  1  0  0  0
 71 72  2  0  0  0
 71 73  1  0  0  0
 71 82  1  0  0  0
 72 75  1  0  0  0
 72 83  1  0  0  0
 73 76  2  0  0  0
 73 84  1  0  0  0
 74 75  2  0  0  0
 74 76  1  0  0  0
 74 85  1  0  0  0
 75 87  1  0  0  0
 76 88  1  0  0  0
 77 79  1  0  0  0
 77149  1  0  0  0
 77150  1  0  0  0
 77 81  1  0  0  0
 78 80  1  0  0  0
 78 81  1  0  0  0
 78151  1  0  0  0
 78152  1  0  0  0
 79 89  1  0  0  0
 79153  1  0  0  0
 79154  1  0  0  0
 80 89  1  0  0  0
 80155  1  0  0  0
 80156  1  0  0  0
 81 88  1  0  0  0
 81157  1  0  0  0
 82158  1  0  0  0
 82159  1  0  0  0
 82160  1  0  0  0
 83161  1  0  0  0
 83162  1  0  0  0
 83163  1  0  0  0
 84164  1  0  0  0
 84165  1  0  0  0
 84166  1  0  0  0
 85167  1  0  0  0
 85168  1  0  0  0
 85169  1  0  0  0
 86170  1  0  0  0
 86171  1  0  0  0
 86172  1  0  0  0
 86 88  1  0  0  0
 87173  1  0  0  0
 87174  1  0  0  0
 88175  1  0  0  0
M  ISO  4   1 100  68 101  87 101  89 100
M  END
> <chiral flag>
0

> <version>
0

> <s_m_source_file>
/data/baiqing/PycharmProjects/Reinvent-master-3.2/result/LINK_invent/BTK/process_docking_weight1_custom_sum_contain_oxygen_bond_distance_aromatic_linkinvent_7_9_3/rearranged_h_0159.sdf

> <i_m_source_file_index>
75

> <r_mmod_Potential_Energy-OPLS-2005>
546.78759765625

> <r_mmod_Stretch_Energy-OPLS-2005>
145.10498046875

> <r_mmod_Bend_Energy-OPLS-2005>
272.468658447266

> <r_mmod_Torsional_Energy-OPLS-2005>
347.523834228516

> <r_mmod_Improper_Torsional_Energy-OPLS-2005>
13.7244358062744

> <r_mmod_Van_der_Waal_Energy-OPLS-2005>
207.745910644531

> <r_mmod_Electrostatic_Energy-OPLS-2005>
-309.110321044922

> <r_mmod_Solvation_Energy-OPLS-2005>
-195.676315307617

> <b_mmod_Minimization_Converged-OPLS-2005>
0

> <r_mmod_RMS_Derivative-OPLS-2005>
9.77911567687988

$$$$
75
                    3D
 Structure written by MMmdl.
166176  0  0  1  0            999 V2000
  -30.6822  -14.4937   20.5590 C   0  0  0  0  0  0
  -30.4277  -12.3190   19.4183 C   0  0  0  0  0  0
  -29.4939  -12.5102   18.2037 C   0  0  0  0  0  0
  -28.0128  -12.3735   18.6152 C   0  0  0  0  0  0
  -27.6619  -13.2021   19.8807 C   0  0  2  0  0  0
  -28.7086  -12.9497   20.9891 C   0  0  0  0  0  0
  -25.2598  -13.8145   20.5694 C   0  0  0  0  0  0
  -24.1839  -13.0433   20.9178 C   0  0  0  0  0  0
  -24.6384  -11.6895   20.8737 C   0  0  0  0  0  0
  -23.9046  -10.4288   21.0404 C   0  0  0  0  0  0
  -24.3603   -9.4205   21.9182 C   0  0  0  0  0  0
  -23.6285   -8.2237   22.0751 C   0  0  0  0  0  0
  -22.4268   -8.0271   21.3542 C   0  0  0  0  0  0
  -21.9896   -9.0242   20.4644 C   0  0  0  0  0  0
  -22.7218  -10.2127   20.3053 C   0  0  0  0  0  0
  -21.6849   -6.0730   22.5279 C   0  0  0  0  0  0
  -21.4011   -6.5639   23.8211 C   0  0  0  0  0  0
  -21.3659   -5.6792   24.9174 C   0  0  0  0  0  0
  -21.6046   -4.3054   24.7223 C   0  0  0  0  0  0
  -21.8818   -3.8144   23.4345 C   0  0  0  0  0  0
  -21.9192   -4.6960   22.3403 C   0  0  0  0  0  0
  -22.7863  -13.5242   21.1840 C   0  0  0  0  0  0
  -22.1661   -4.2148   21.0978 F   0  0  0  0  0  0
  -21.5630   -3.4538   25.7735 F   0  0  0  0  0  0
  -30.0250  -13.3028   20.4379 N   0  0  0  0  0  0
  -26.3029  -12.9303   20.3408 N   0  0  0  0  0  0
  -25.9311  -11.6466   20.5779 N   0  0  0  0  0  0
  -22.0495  -12.8236   22.0389 N   0  0  0  0  0  0
  -25.4336  -15.1859   20.4098 N   0  0  0  0  0  0
  -31.8328  -14.6372   20.1279 O   0  0  0  0  0  0
  -21.6634   -6.8868   21.4239 O   0  0  0  0  0  0
  -22.3556  -14.5550   20.6692 O   0  0  0  0  0  0
  -24.6141  -31.8672   23.2086 C   0  0  0  0  0  0
  -25.9037  -32.4814   23.8377 C   0  0  1  0  0  0
  -27.2352  -27.4307   20.0890 C   0  0  0  0  0  0
  -25.5894  -33.8614   24.2307 N   0  0  0  0  0  0
  -23.4014  -30.4916   21.5491 C   0  0  2  0  0  0
  -24.8458  -28.9522   20.1157 C   0  0  0  0  0  0
  -22.7401  -29.4664   22.4982 C   0  0  0  0  0  0
  -18.0270  -28.1378   22.8489 C   0  0  0  0  0  0
  -24.1486  -36.7312   23.2636 C   0  0  0  0  0  0
  -25.9293  -30.8306   21.3610 C   0  0  0  0  0  0
  -26.0046  -29.4635   20.7104 C   0  0  0  0  0  0
  -27.1989  -28.7086   20.6951 C   0  0  0  0  0  0
  -26.0536  -26.9283   19.4970 C   0  0  0  0  0  0
  -24.8644  -27.6836   19.5092 C   0  0  0  0  0  0
  -23.6096  -29.8219   20.1642 C   0  0  0  0  0  0
  -25.4106  -36.3109   24.0335 C   0  0  1  0  0  0
  -20.5861  -28.3662   23.1315 C   0  0  2  0  0  0
  -20.6763  -26.9402   22.5413 C   0  0  0  0  0  0
  -19.5745  -26.6387   21.5209 C   0  0  0  0  0  0
  -18.1922  -26.7918   22.1620 C   0  0  0  0  0  0
  -19.1521  -28.8834   23.2898 C   0  0  0  0  0  0
  -18.9453  -30.1438   23.8907 C   0  0  0  0  0  0
  -17.6464  -30.6582   24.0573 C   0  0  0  0  0  0
  -25.9039  -34.9477   23.5122 C   0  0  0  0  0  0
  -16.5352  -29.9095   23.6325 C   0  0  0  0  0  0
  -16.7262  -28.6513   23.0339 C   0  0  0  0  0  0
  -26.4462  -31.6600   25.0711 C   0  0  0  0  0  0
  -25.3736  -31.3720   26.1471 C   0  0  0  0  0  0
  -27.0289  -30.3043   24.6082 C   0  0  0  0  0  0
  -27.6045  -32.4311   25.7465 C   0  0  0  0  0  0
  -27.5585  -37.1801   24.8456 C   0  0  0  0  0  0
  -21.4130  -29.3036   22.3721 N   0  0  0  0  0  0
  -26.4284  -37.3805   23.9426 N   0  0  0  0  0  0
  -24.6669  -31.0773   22.0986 N   0  0  0  0  0  0
  -23.4177  -28.8205   23.3019 O   0  0  0  0  0  0
  -28.4284  -26.7377   20.0968 O   0  0  0  0  0  0
  -26.5604  -34.8935   22.4689 O   0  0  0  0  0  0
  -23.5337  -32.1421   23.7483 O   0  0  0  0  0  0
  -27.5889  -20.1891   19.4293 C   0  0  0  0  0  0
  -29.1515  -21.6843   20.5419 C   0  0  0  0  0  0
  -28.7964  -20.3627   20.1429 C   0  0  0  0  0  0
  -28.3048  -22.7833   20.2036 C   0  0  0  0  0  0
  -26.7682  -21.3014   19.1505 C   0  0  0  0  0  0
  -29.1413  -17.4676   22.0597 C   0  0  0  0  0  0
  -29.8397  -24.8571   19.9484 C   0  0  0  0  0  0
  -29.1724  -15.9366   21.9773 C   0  0  0  0  0  0
  -30.1319  -16.8441   19.9973 C   0  0  0  0  0  0
  -28.5961  -24.2328   20.5466 C   0  0  1  0  0  0
  -29.1939  -17.9006   20.6012 C   0  0  2  0  0  0
  -28.4945  -25.4062   19.5649 C   0  0  1  0  0  0
  -30.4340  -21.9137   21.3344 C   0  0  0  0  0  0
  -25.4609  -21.1702   18.3935 C   0  0  0  0  0  0
  -27.1506  -22.5334   19.5475 N   0  3  0  0  0  0
  -29.9040  -15.5967   20.7487 N   0  0  0  0  0  0
  -29.6619  -19.2802   20.4280 N   0  0  0  0  0  0
  -31.4700  -12.4278   19.1132 H   0  0  0  0  0  0
  -30.3430  -11.3053   19.8129 H   0  0  0  0  0  0
  -29.7345  -11.7849   17.4254 H   0  0  0  0  0  0
  -29.6607  -13.4949   17.7635 H   0  0  0  0  0  0
  -27.8184  -11.3168   18.8018 H   0  0  0  0  0  0
  -27.3633  -12.6580   17.7867 H   0  0  0  0  0  0
  -27.7094  -14.2538   19.5975 H   0  0  0  0  0  0
  -28.7013  -11.8951   21.2685 H   0  0  0  0  0  0
  -28.4756  -13.4696   21.9138 H   0  0  0  0  0  0
  -25.2748   -9.5685   22.4760 H   0  0  0  0  0  0
  -23.9995   -7.4627   22.7470 H   0  0  0  0  0  0
  -21.0826   -8.8754   19.8953 H   0  0  0  0  0  0
  -22.3670  -10.9663   19.6163 H   0  0  0  0  0  0
  -21.2000   -7.6146   23.9714 H   0  0  0  0  0  0
  -21.1486   -6.0521   25.9076 H   0  0  0  0  0  0
  -22.0599   -2.7607   23.2842 H   0  0  0  0  0  0
  -22.4096  -11.9892   22.4776 H   0  0  0  0  0  0
  -21.1117  -13.1271   22.2591 H   0  0  0  0  0  0
  -24.6683  -15.8430   20.5157 H   0  0  0  0  0  0
  -26.2919  -15.6202   20.0971 H   0  0  0  0  0  0
  -26.7104  -32.5517   23.1139 H   0  0  0  0  0  0
  -25.0065  -33.9786   25.0459 H   0  0  0  0  0  0
  -22.6912  -31.3090   21.4089 H   0  0  0  0  0  0
  -23.3758  -35.9634   23.3286 H   0  0  0  0  0  0
  -24.3592  -36.8932   22.2054 H   0  0  0  0  0  0
  -23.7218  -37.6509   23.6651 H   0  0  0  0  0  0
  -26.0395  -31.5960   20.5916 H   0  0  0  0  0  0
  -26.8180  -30.8848   21.9778 H   0  0  0  0  0  0
  -28.0969  -29.1031   21.1497 H   0  0  0  0  0  0
  -26.0296  -25.9614   19.0181 H   0  0  0  0  0  0
  -23.9718  -27.2842   19.0478 H   0  0  0  0  0  0
  -23.7214  -30.5963   19.4047 H   0  0  0  0  0  0
  -22.7323  -29.2447   19.8669 H   0  0  0  0  0  0
  -25.1275  -36.1960   25.0823 H   0  0  0  0  0  0
  -20.9950  -28.3225   24.1439 H   0  0  0  0  0  0
  -20.5657  -26.2278   23.3602 H   0  0  0  0  0  0
  -21.6638  -26.7443   22.1213 H   0  0  0  0  0  0
  -19.6923  -25.6303   21.1225 H   0  0  0  0  0  0
  -19.6686  -27.3211   20.6752 H   0  0  0  0  0  0
  -17.4194  -26.6658   21.4024 H   0  0  0  0  0  0
  -18.0332  -26.0046   22.9005 H   0  0  0  0  0  0
  -19.7939  -30.7246   24.2273 H   0  0  0  0  0  0
  -17.5030  -31.6263   24.5179 H   0  0  0  0  0  0
  -15.5355  -30.3019   23.7637 H   0  0  0  0  0  0
  -15.8656  -28.0854   22.7038 H   0  0  0  0  0  0
  -24.5888  -30.7085   25.7815 H   0  0  0  0  0  0
  -24.8964  -32.2893   26.4936 H   0  0  0  0  0  0
  -25.8095  -30.8874   27.0216 H   0  0  0  0  0  0
  -26.2835  -29.6803   24.1139 H   0  0  0  0  0  0
  -27.4071  -29.7269   25.4526 H   0  0  0  0  0  0
  -27.8657  -30.4364   23.9220 H   0  0  0  0  0  0
  -27.2679  -33.3615   26.2051 H   0  0  0  0  0  0
  -28.3855  -32.6856   25.0289 H   0  0  0  0  0  0
  -28.0708  -31.8423   26.5374 H   0  0  0  0  0  0
  -28.2567  -38.0139   24.7569 H   0  0  0  0  0  0
  -28.1113  -36.2673   24.6178 H   0  0  0  0  0  0
  -27.2321  -37.1319   25.8862 H   0  0  0  0  0  0
  -20.9280  -29.8780   21.6967 H   0  0  0  0  0  0
  -26.0162  -38.2866   24.1484 H   0  0  0  0  0  0
  -27.2818  -19.2212   19.0681 H   0  0  0  0  0  0
  -30.0234  -17.8181   22.5982 H   0  0  0  0  0  0
  -28.2611  -17.8435   22.5835 H   0  0  0  0  0  0
  -30.3731  -24.2968   19.1833 H   0  0  0  0  0  0
  -30.4663  -25.4529   20.6087 H   0  0  0  0  0  0
  -28.1448  -15.5830   21.8974 H   0  0  0  0  0  0
  -29.6214  -15.4914   22.8670 H   0  0  0  0  0  0
  -31.1744  -17.1479   20.1124 H   0  0  0  0  0  0
  -29.9451  -16.7023   18.9317 H   0  0  0  0  0  0
  -28.3797  -24.4345   21.5942 H   0  0  0  0  0  0
  -28.2035  -17.7473   20.1752 H   0  0  0  0  0  0
  -28.1869  -25.2814   18.5274 H   0  0  0  0  0  0
  -30.5485  -21.1594   22.1134 H   0  0  0  0  0  0
  -30.4468  -22.8787   21.8387 H   0  0  0  0  0  0
  -31.3008  -21.8636   20.6750 H   0  0  0  0  0  0
  -25.2402  -20.1287   18.1591 H   0  0  0  0  0  0
  -25.5068  -21.7225   17.4548 H   0  0  0  0  0  0
  -24.6333  -21.5623   18.9846 H   0  0  0  0  0  0
  -26.5348  -23.3186   19.3306 H   0  0  0  0  0  0
  -30.5141  -19.5273   20.9172 H   0  0  0  0  0  0
  1 25  1  0  0  0
  1 30  2  0  0  0
  1 86  1  0  0  0
  2  3  1  0  0  0
  2 25  1  0  0  0
  2 88  1  0  0  0
  2 89  1  0  0  0
  3  4  1  0  0  0
  3 90  1  0  0  0
  3 91  1  0  0  0
  4  5  1  0  0  0
  4 92  1  0  0  0
  4 93  1  0  0  0
  5  6  1  0  0  0
  5 26  1  0  0  0
  5 94  1  0  0  0
  6 25  1  0  0  0
  6 95  1  0  0  0
  6 96  1  0  0  0
  7  8  2  0  0  0
  7 26  1  0  0  0
  7 29  1  0  0  0
  8  9  1  0  0  0
  8 22  1  0  0  0
  9 10  1  0  0  0
  9 27  2  0  0  0
 10 11  2  0  0  0
 10 15  1  0  0  0
 11 12  1  0  0  0
 11 97  1  0  0  0
 12 13  2  0  0  0
 12 98  1  0  0  0
 13 14  1  0  0  0
 13 31  1  0  0  0
 14 15  2  0  0  0
 14 99  1  0  0  0
 15100  1  0  0  0
 16 17  2  0  0  0
 16 21  1  0  0  0
 16 31  1  0  0  0
 17 18  1  0  0  0
 17101  1  0  0  0
 18 19  2  0  0  0
 18102  1  0  0  0
 19 20  1  0  0  0
 19 24  1  0  0  0
 20 21  2  0  0  0
 20103  1  0  0  0
 21 23  1  0  0  0
 22 28  1  0  0  0
 22 32  2  0  0  0
 26 27  1  0  0  0
 28104  1  0  0  0
 28105  1  0  0  0
 29106  1  0  0  0
 29107  1  0  0  0
 33 34  1  0  0  0
 33 66  1  0  0  0
 33 70  2  0  0  0
 34 36  1  0  0  0
 34 59  1  0  0  0
 34108  1  0  0  0
 35 44  2  0  0  0
 35 45  1  0  0  0
 35 68  1  0  0  0
 36 56  1  0  0  0
 36109  1  0  0  0
 37 39  1  0  0  0
 37 47  1  0  0  0
 37 66  1  0  0  0
 37110  1  0  0  0
 38 43  2  0  0  0
 38 46  1  0  0  0
 38 47  1  0  0  0
 39 64  1  0  0  0
 39 67  2  0  0  0
 40 52  1  0  0  0
 40 53  2  0  0  0
 40 58  1  0  0  0
 41111  1  0  0  0
 41112  1  0  0  0
 41113  1  0  0  0
 41 48  1  0  0  0
 42 43  1  0  0  0
 42 66  1  0  0  0
 42114  1  0  0  0
 42115  1  0  0  0
 43 44  1  0  0  0
 44116  1  0  0  0
 45 46  2  0  0  0
 45117  1  0  0  0
 46118  1  0  0  0
 47119  1  0  0  0
 47120  1  0  0  0
 48 56  1  0  0  0
 48 65  1  0  0  0
 48121  1  0  0  0
 49 50  1  0  0  0
 49 53  1  0  0  0
 49 64  1  0  0  0
 49122  1  0  0  0
 50 51  1  0  0  0
 50123  1  0  0  0
 50124  1  0  0  0
 51 52  1  0  0  0
 51125  1  0  0  0
 51126  1  0  0  0
 52127  1  0  0  0
 52128  1  0  0  0
 53 54  1  0  0  0
 54 55  2  0  0  0
 54129  1  0  0  0
 55 57  1  0  0  0
 55130  1  0  0  0
 56 69  2  0  0  0
 57 58  2  0  0  0
 57131  1  0  0  0
 58132  1  0  0  0
 59 60  1  0  0  0
 59 61  1  0  0  0
 59 62  1  0  0  0
 60133  1  0  0  0
 60134  1  0  0  0
 60135  1  0  0  0
 61136  1  0  0  0
 61137  1  0  0  0
 61138  1  0  0  0
 62139  1  0  0  0
 62140  1  0  0  0
 62141  1  0  0  0
 63 65  1  0  0  0
 63142  1  0  0  0
 63143  1  0  0  0
 63144  1  0  0  0
 64145  1  0  0  0
 65146  1  0  0  0
 68 82  1  0  0  0
 71 73  2  0  0  0
 71 75  1  0  0  0
 71147  1  0  0  0
 72 73  1  0  0  0
 72 74  2  0  0  0
 72 83  1  0  0  0
 73 87  1  0  0  0
 74 85  1  0  0  0
 74 80  1  0  0  0
 75 84  1  0  0  0
 75 85  2  0  0  0
 76 78  1  0  0  0
 76 81  1  0  0  0
 76148  1  0  0  0
 76149  1  0  0  0
 77 80  1  0  0  0
 77 82  1  0  0  0
 77150  1  0  0  0
 77151  1  0  0  0
 78 86  1  0  0  0
 78152  1  0  0  0
 78153  1  0  0  0
 79 81  1  0  0  0
 79 86  1  0  0  0
 79154  1  0  0  0
 79155  1  0  0  0
 80 82  1  0  0  0
 80156  1  0  0  0
 81 87  1  0  0  0
 81157  1  0  0  0
 82158  1  0  0  0
 83159  1  0  0  0
 83160  1  0  0  0
 83161  1  0  0  0
 84162  1  0  0  0
 84163  1  0  0  0
 84164  1  0  0  0
 85165  1  0  0  0
 87166  1  0  0  0
M  CHG  1  85   1
M  ISO  4   1 100  68 101  82 101  86 100
M  END
> <chiral flag>
0

> <version>
0

> <s_m_source_file>
/data/baiqing/PycharmProjects/Reinvent-master-3.2/result/LINK_invent/BTK/process_docking_weight1_custom_sum_contain_oxygen_bond_distance_aromatic_linkinvent_7_9_3/rearranged_h_0159.sdf

> <i_m_source_file_index>
76

> <r_mmod_Potential_Energy-OPLS-2005>
56.8165245056152

> <r_mmod_Stretch_Energy-OPLS-2005>
41.561595916748

> <r_mmod_Bend_Energy-OPLS-2005>
148.182586669922

> <r_mmod_Torsional_Energy-OPLS-2005>
321.268341064453

> <r_mmod_Improper_Torsional_Energy-OPLS-2005>
16.2360935211182

> <r_mmod_Van_der_Waal_Energy-OPLS-2005>
149.439636230469

> <r_mmod_Electrostatic_Energy-OPLS-2005>
-230.02702331543

> <r_mmod_Solvation_Energy-OPLS-2005>
-404.287017822266

> <b_mmod_Minimization_Converged-OPLS-2005>
0

> <r_mmod_RMS_Derivative-OPLS-2005>
0.991282165050507

$$$$
76
                    3D
 Structure written by MMmdl.
172182  0  0  1  0            999 V2000
  -30.6821  -14.4532   20.5311 C   0  0  0  0  0  0
  -30.4359  -12.2850   19.3963 C   0  0  0  0  0  0
  -29.4927  -12.4769   18.1870 C   0  0  0  0  0  0
  -28.0080  -12.3671   18.6070 C   0  0  0  0  0  0
  -27.6656  -13.1929   19.8778 C   0  0  2  0  0  0
  -28.7172  -12.9179   20.9725 C   0  0  0  0  0  0
  -25.2645  -13.8121   20.5643 C   0  0  0  0  0  0
  -24.1878  -13.0433   20.9155 C   0  0  0  0  0  0
  -24.6409  -11.6891   20.8763 C   0  0  0  0  0  0
  -23.9066  -10.4288   21.0430 C   0  0  0  0  0  0
  -24.3613   -9.4213   21.9211 C   0  0  0  0  0  0
  -23.6284   -8.2247   22.0769 C   0  0  0  0  0  0
  -22.4283   -8.0291   21.3541 C   0  0  0  0  0  0
  -21.9923   -9.0264   20.4658 C   0  0  0  0  0  0
  -22.7250  -10.2149   20.3064 C   0  0  0  0  0  0
  -21.6859   -6.0731   22.5278 C   0  0  0  0  0  0
  -21.4022   -6.5632   23.8217 C   0  0  0  0  0  0
  -21.3656   -5.6800   24.9174 C   0  0  0  0  0  0
  -21.6033   -4.3056   24.7236 C   0  0  0  0  0  0
  -21.8818   -3.8147   23.4350 C   0  0  0  0  0  0
  -21.9190   -4.6954   22.3415 C   0  0  0  0  0  0
  -22.7902  -13.5273   21.1807 C   0  0  0  0  0  0
  -22.1663   -4.2133   21.0990 F   0  0  0  0  0  0
  -21.5641   -3.4545   25.7750 F   0  0  0  0  0  0
  -30.0309  -13.2650   20.4145 N   0  0  0  0  0  0
  -26.3077  -12.9270   20.3427 N   0  0  0  0  0  0
  -25.9328  -11.6438   20.5810 N   0  0  0  0  0  0
  -22.0511  -12.8280   22.0363 N   0  0  0  0  0  0
  -25.4444  -15.1830   20.4021 N   0  0  0  0  0  0
  -31.8403  -14.6198   20.1515 O   0  0  0  0  0  0
  -21.6657   -6.8875   21.4239 O   0  0  0  0  0  0
  -22.3616  -14.5626   20.6705 O   0  0  0  0  0  0
  -24.6137  -31.8715   23.2065 C   0  0  0  0  0  0
  -25.9019  -32.4797   23.8395 C   0  0  1  0  0  0
  -27.2380  -27.4422   20.1001 C   0  0  0  0  0  0
  -25.5889  -33.8606   24.2345 N   0  0  0  0  0  0
  -23.3997  -30.4938   21.5482 C   0  0  2  0  0  0
  -24.8472  -28.9467   20.1261 C   0  0  0  0  0  0
  -22.7301  -29.4785   22.5007 C   0  0  0  0  0  0
  -18.0245  -28.1414   22.8355 C   0  0  0  0  0  0
  -24.1507  -36.7285   23.2630 C   0  0  0  0  0  0
  -25.9286  -30.8330   21.3621 C   0  0  0  0  0  0
  -26.0081  -29.4683   20.7156 C   0  0  0  0  0  0
  -27.2077  -28.7220   20.6990 C   0  0  0  0  0  0
  -26.0688  -26.9420   19.4893 C   0  0  0  0  0  0
  -24.8702  -27.6800   19.5169 C   0  0  0  0  0  0
  -23.6015  -29.8020   20.1741 C   0  0  0  0  0  0
  -25.4116  -36.3096   24.0351 C   0  0  1  0  0  0
  -20.5797  -28.3731   23.1122 C   0  0  2  0  0  0
  -20.6863  -26.9592   22.4962 C   0  0  0  0  0  0
  -19.5551  -26.5933   21.5263 C   0  0  0  0  0  0
  -18.1765  -26.7909   22.1557 C   0  0  0  0  0  0
  -19.1484  -28.8849   23.2781 C   0  0  0  0  0  0
  -18.9440  -30.1428   23.8930 C   0  0  0  0  0  0
  -17.6469  -30.6608   24.0584 C   0  0  0  0  0  0
  -25.9046  -34.9453   23.5154 C   0  0  0  0  0  0
  -16.5372  -29.9158   23.6275 C   0  0  0  0  0  0
  -16.7262  -28.6617   23.0182 C   0  0  0  0  0  0
  -26.4471  -31.6553   25.0706 C   0  0  0  0  0  0
  -25.3749  -31.3606   26.1438 C   0  0  0  0  0  0
  -27.0314  -30.3029   24.6014 C   0  0  0  0  0  0
  -27.6054  -32.4228   25.7487 C   0  0  0  0  0  0
  -27.5594  -37.1778   24.8486 C   0  0  0  0  0  0
  -21.4032  -29.3293   22.3750 N   0  0  0  0  0  0
  -26.4319  -37.3771   23.9419 N   0  0  0  0  0  0
  -24.6651  -31.0808   22.0966 N   0  0  0  0  0  0
  -23.4038  -28.8170   23.2935 O   0  0  0  0  0  0
  -28.3970  -26.7012   20.0859 O   0  0  0  0  0  0
  -26.5588  -34.8893   22.4717 O   0  0  0  0  0  0
  -23.5319  -32.1454   23.7433 O   0  0  0  0  0  0
  -28.0686  -17.9020   20.5240 C   0  0  0  0  0  0
  -26.5762  -23.9726   20.6520 C   0  0  0  0  0  0
  -28.2713  -18.0493   22.9542 C   0  0  0  0  0  0
  -27.1074  -18.9431   20.5521 C   0  0  0  0  0  0
  -28.6035  -17.4029   21.7439 C   0  0  0  0  0  0
  -27.9414  -24.2848   20.5293 C   0  0  0  0  0  0
  -26.0734  -22.8008   20.0483 C   0  0  0  0  0  0
  -26.6505  -19.4344   21.7907 C   0  0  0  0  0  0
  -27.2878  -19.0555   22.9855 C   0  0  0  0  0  0
  -28.7694  -23.3215   19.9019 C   0  0  0  0  0  0
  -26.9906  -21.8672   19.5090 C   0  0  0  0  0  0
  -24.8418  -19.2009   19.6006 C   0  0  0  0  0  0
  -24.4418  -19.5649   21.0538 C   0  0  0  0  0  0
  -26.3396  -19.4011   19.3157 C   0  0  1  0  0  0
  -24.5664  -22.6556   19.9248 C   0  0  0  0  0  0
  -30.2396  -23.5810   19.6175 C   0  0  0  0  0  0
  -29.4182  -16.1125   21.8652 C   0  0  0  0  0  0
  -28.4622  -25.6321   21.0437 C   0  0  0  0  0  0
  -28.3097  -22.1214   19.4637 N   0  0  0  0  0  0
  -26.5734  -20.7530   18.7637 N   0  0  0  0  0  0
  -29.8975  -15.5408   20.6133 N   0  0  0  0  0  0
  -25.4952  -20.1773   21.8152 O   0  0  0  0  0  0
  -26.7905  -19.7164   24.5022 Cl  0  0  0  0  0  0
  -31.4776  -12.4003   19.0865 H   0  0  0  0  0  0
  -30.3611  -11.2664   19.7878 H   0  0  0  0  0  0
  -29.7202  -11.7422   17.4113 H   0  0  0  0  0  0
  -29.6749  -13.4530   17.7329 H   0  0  0  0  0  0
  -27.7949  -11.3127   18.7898 H   0  0  0  0  0  0
  -27.3640  -12.6655   17.7799 H   0  0  0  0  0  0
  -27.7241  -14.2483   19.6141 H   0  0  0  0  0  0
  -28.7077  -11.8561   21.2253 H   0  0  0  0  0  0
  -28.4885  -13.4250   21.9029 H   0  0  0  0  0  0
  -25.2726   -9.5706   22.4809 H   0  0  0  0  0  0
  -23.9976   -7.4642   22.7495 H   0  0  0  0  0  0
  -21.0852   -8.8786   19.8966 H   0  0  0  0  0  0
  -22.3696  -10.9686   19.6192 H   0  0  0  0  0  0
  -21.2032   -7.6143   23.9702 H   0  0  0  0  0  0
  -21.1482   -6.0539   25.9081 H   0  0  0  0  0  0
  -22.0605   -2.7595   23.2868 H   0  0  0  0  0  0
  -22.4057  -11.9898   22.4697 H   0  0  0  0  0  0
  -21.1149  -13.1348   22.2606 H   0  0  0  0  0  0
  -24.6932  -15.8463   20.5400 H   0  0  0  0  0  0
  -26.3228  -15.6148   20.1428 H   0  0  0  0  0  0
  -26.7069  -32.5502   23.1126 H   0  0  0  0  0  0
  -25.0033  -33.9800   25.0479 H   0  0  0  0  0  0
  -22.7035  -31.3169   21.3892 H   0  0  0  0  0  0
  -23.3777  -35.9615   23.3311 H   0  0  0  0  0  0
  -24.3597  -36.8862   22.2042 H   0  0  0  0  0  0
  -23.7249  -37.6497   23.6623 H   0  0  0  0  0  0
  -26.0523  -31.6012   20.5960 H   0  0  0  0  0  0
  -26.8148  -30.8791   21.9833 H   0  0  0  0  0  0
  -28.1067  -29.1192   21.1509 H   0  0  0  0  0  0
  -26.0844  -25.9827   18.9954 H   0  0  0  0  0  0
  -23.9740  -27.2683   19.0714 H   0  0  0  0  0  0
  -23.6785  -30.5521   19.3878 H   0  0  0  0  0  0
  -22.7351  -29.1916   19.9118 H   0  0  0  0  0  0
  -25.1298  -36.1964   25.0847 H   0  0  0  0  0  0
  -20.9781  -28.3120   24.1308 H   0  0  0  0  0  0
  -20.6676  -26.2429   23.3155 H   0  0  0  0  0  0
  -21.6514  -26.8136   22.0102 H   0  0  0  0  0  0
  -19.6581  -25.5559   21.2096 H   0  0  0  0  0  0
  -19.6269  -27.1878   20.6131 H   0  0  0  0  0  0
  -17.4174  -26.6818   21.3764 H   0  0  0  0  0  0
  -17.9748  -26.0087   22.8875 H   0  0  0  0  0  0
  -19.7919  -30.7192   24.2342 H   0  0  0  0  0  0
  -17.5062  -31.6292   24.5224 H   0  0  0  0  0  0
  -15.5422  -30.3124   23.7611 H   0  0  0  0  0  0
  -15.8698  -28.1024   22.6747 H   0  0  0  0  0  0
  -24.5898  -30.6997   25.7737 H   0  0  0  0  0  0
  -24.8955  -32.2750   26.4968 H   0  0  0  0  0  0
  -25.8091  -30.8684   27.0153 H   0  0  0  0  0  0
  -26.2893  -29.6779   24.1019 H   0  0  0  0  0  0
  -27.4134  -29.7209   25.4414 H   0  0  0  0  0  0
  -27.8694  -30.4413   23.9161 H   0  0  0  0  0  0
  -27.2710  -33.3491   26.2164 H   0  0  0  0  0  0
  -28.3844  -32.6818   25.0311 H   0  0  0  0  0  0
  -28.0744  -31.8262   26.5318 H   0  0  0  0  0  0
  -28.2634  -38.0052   24.7533 H   0  0  0  0  0  0
  -28.1079  -36.2594   24.6344 H   0  0  0  0  0  0
  -27.2311  -37.1447   25.8886 H   0  0  0  0  0  0
  -20.9159  -29.9368   21.7289 H   0  0  0  0  0  0
  -26.0215  -38.2874   24.1342 H   0  0  0  0  0  0
  -28.3049  -17.4304   19.5777 H   0  0  0  0  0  0
  -25.9004  -24.6797   21.1121 H   0  0  0  0  0  0
  -28.7023  -17.7080   23.8848 H   0  0  0  0  0  0
  -24.2156  -19.7058   18.8650 H   0  0  0  0  0  0
  -24.6214  -18.1403   19.4667 H   0  0  0  0  0  0
  -24.1113  -18.6664   21.5760 H   0  0  0  0  0  0
  -23.5717  -20.2177   21.0512 H   0  0  0  0  0  0
  -26.6020  -18.7250   18.4987 H   0  0  0  0  0  0
  -24.2797  -21.9669   19.1367 H   0  0  0  0  0  0
  -24.1085  -23.6084   19.6568 H   0  0  0  0  0  0
  -24.1243  -22.3306   20.8663 H   0  0  0  0  0  0
  -30.4298  -24.6433   19.4573 H   0  0  0  0  0  0
  -30.5658  -23.0647   18.7124 H   0  0  0  0  0  0
  -30.8552  -23.2393   20.4483 H   0  0  0  0  0  0
  -28.7665  -15.4093   22.3804 H   0  0  0  0  0  0
  -30.2638  -16.2807   22.5326 H   0  0  0  0  0  0
  -29.5015  -25.5246   21.3519 H   0  0  0  0  0  0
  -27.9342  -25.9029   21.9591 H   0  0  0  0  0  0
  -25.7288  -21.0175   18.2771 H   0  0  0  0  0  0
  -30.2944  -16.2748   20.0476 H   0  0  0  0  0  0
  1 25  1  0  0  0
  1 30  2  0  0  0
  1 91  1  0  0  0
  2  3  1  0  0  0
  2 25  1  0  0  0
  2 94  1  0  0  0
  2 95  1  0  0  0
  3  4  1  0  0  0
  3 96  1  0  0  0
  3 97  1  0  0  0
  4  5  1  0  0  0
  4 98  1  0  0  0
  4 99  1  0  0  0
  5  6  1  0  0  0
  5 26  1  0  0  0
  5100  1  0  0  0
  6 25  1  0  0  0
  6101  1  0  0  0
  6102  1  0  0  0
  7  8  2  0  0  0
  7 26  1  0  0  0
  7 29  1  0  0  0
  8  9  1  0  0  0
  8 22  1  0  0  0
  9 10  1  0  0  0
  9 27  2  0  0  0
 10 11  2  0  0  0
 10 15  1  0  0  0
 11 12  1  0  0  0
 11103  1  0  0  0
 12 13  2  0  0  0
 12104  1  0  0  0
 13 14  1  0  0  0
 13 31  1  0  0  0
 14 15  2  0  0  0
 14105  1  0  0  0
 15106  1  0  0  0
 16 17  2  0  0  0
 16 21  1  0  0  0
 16 31  1  0  0  0
 17 18  1  0  0  0
 17107  1  0  0  0
 18 19  2  0  0  0
 18108  1  0  0  0
 19 20  1  0  0  0
 19 24  1  0  0  0
 20 21  2  0  0  0
 20109  1  0  0  0
 21 23  1  0  0  0
 22 28  1  0  0  0
 22 32  2  0  0  0
 26 27  1  0  0  0
 28110  1  0  0  0
 28111  1  0  0  0
 29112  1  0  0  0
 29113  1  0  0  0
 33 34  1  0  0  0
 33 66  1  0  0  0
 33 70  2  0  0  0
 34 36  1  0  0  0
 34 59  1  0  0  0
 34114  1  0  0  0
 35 44  2  0  0  0
 35 45  1  0  0  0
 35 68  1  0  0  0
 36 56  1  0  0  0
 36115  1  0  0  0
 37 39  1  0  0  0
 37 47  1  0  0  0
 37 66  1  0  0  0
 37116  1  0  0  0
 38 43  2  0  0  0
 38 46  1  0  0  0
 38 47  1  0  0  0
 39 64  1  0  0  0
 39 67  2  0  0  0
 40 52  1  0  0  0
 40 53  2  0  0  0
 40 58  1  0  0  0
 41117  1  0  0  0
 41118  1  0  0  0
 41119  1  0  0  0
 41 48  1  0  0  0
 42 43  1  0  0  0
 42 66  1  0  0  0
 42120  1  0  0  0
 42121  1  0  0  0
 43 44  1  0  0  0
 44122  1  0  0  0
 45 46  2  0  0  0
 45123  1  0  0  0
 46124  1  0  0  0
 47125  1  0  0  0
 47126  1  0  0  0
 48 56  1  0  0  0
 48 65  1  0  0  0
 48127  1  0  0  0
 49 50  1  0  0  0
 49 53  1  0  0  0
 49 64  1  0  0  0
 49128  1  0  0  0
 50 51  1  0  0  0
 50129  1  0  0  0
 50130  1  0  0  0
 51 52  1  0  0  0
 51131  1  0  0  0
 51132  1  0  0  0
 52133  1  0  0  0
 52134  1  0  0  0
 53 54  1  0  0  0
 54 55  2  0  0  0
 54135  1  0  0  0
 55 57  1  0  0  0
 55136  1  0  0  0
 56 69  2  0  0  0
 57 58  2  0  0  0
 57137  1  0  0  0
 58138  1  0  0  0
 59 60  1  0  0  0
 59 61  1  0  0  0
 59 62  1  0  0  0
 60139  1  0  0  0
 60140  1  0  0  0
 60141  1  0  0  0
 61142  1  0  0  0
 61143  1  0  0  0
 61144  1  0  0  0
 62145  1  0  0  0
 62146  1  0  0  0
 62147  1  0  0  0
 63 65  1  0  0  0
 63148  1  0  0  0
 63149  1  0  0  0
 63150  1  0  0  0
 64151  1  0  0  0
 65152  1  0  0  0
 68 88  1  0  0  0
 71 74  2  0  0  0
 71 75  1  0  0  0
 71153  1  0  0  0
 72 76  2  0  0  0
 72 77  1  0  0  0
 72154  1  0  0  0
 73 75  2  0  0  0
 73 79  1  0  0  0
 73155  1  0  0  0
 74 78  1  0  0  0
 74 84  1  0  0  0
 75 87  1  0  0  0
 76 80  1  0  0  0
 76 88  1  0  0  0
 77 81  2  0  0  0
 77 85  1  0  0  0
 78 79  2  0  0  0
 78 92  1  0  0  0
 79 93  1  0  0  0
 80 86  1  0  0  0
 80 89  2  0  0  0
 81 89  1  0  0  0
 81 90  1  0  0  0
 82 83  1  0  0  0
 82 84  1  0  0  0
 82156  1  0  0  0
 82157  1  0  0  0
 83 92  1  0  0  0
 83158  1  0  0  0
 83159  1  0  0  0
 84 90  1  0  0  0
 84160  1  0  0  0
 85161  1  0  0  0
 85162  1  0  0  0
 85163  1  0  0  0
 86164  1  0  0  0
 86165  1  0  0  0
 86166  1  0  0  0
 87 91  1  0  0  0
 87167  1  0  0  0
 87168  1  0  0  0
 88169  1  0  0  0
 88170  1  0  0  0
 90171  1  0  0  0
 91172  1  0  0  0
M  ISO  4   1 100  68 101  88 101  91 100
M  END
> <chiral flag>
0

> <version>
0

> <s_m_source_file>
/data/baiqing/PycharmProjects/Reinvent-master-3.2/result/LINK_invent/BTK/process_docking_weight1_custom_sum_contain_oxygen_bond_distance_aromatic_linkinvent_7_9_3/rearranged_h_0159.sdf

> <i_m_source_file_index>
77

> <r_mmod_Potential_Energy-OPLS-2005>
-127.291946411133

> <r_mmod_Stretch_Energy-OPLS-2005>
39.3397254943848

> <r_mmod_Bend_Energy-OPLS-2005>
141.529159545898

> <r_mmod_Torsional_Energy-OPLS-2005>
377.223754882812

> <r_mmod_Improper_Torsional_Energy-OPLS-2005>
29.1300983428955

> <r_mmod_Van_der_Waal_Energy-OPLS-2005>
163.218704223633

> <r_mmod_Electrostatic_Energy-OPLS-2005>
-644.415893554688

> <r_mmod_Solvation_Energy-OPLS-2005>
-247.365310668945

> <b_mmod_Minimization_Converged-OPLS-2005>
0

> <r_mmod_RMS_Derivative-OPLS-2005>
6.34944772720337

$$$$
77
                    3D
 Structure written by MMmdl.
167176  0  0  1  0            999 V2000
  -30.6976  -14.4756   20.5093 C   0  0  0  0  0  0
  -30.4182  -12.2901   19.4247 C   0  0  0  0  0  0
  -29.4957  -12.4798   18.2025 C   0  0  0  0  0  0
  -28.0138  -12.3577   18.6136 C   0  0  0  0  0  0
  -27.6551  -13.2051   19.8643 C   0  0  2  0  0  0
  -28.7008  -13.0224   20.9884 C   0  0  0  0  0  0
  -25.2580  -13.8154   20.5675 C   0  0  0  0  0  0
  -24.1824  -13.0440   20.9168 C   0  0  0  0  0  0
  -24.6368  -11.6903   20.8717 C   0  0  0  0  0  0
  -23.9032  -10.4290   21.0392 C   0  0  0  0  0  0
  -24.3592   -9.4212   21.9171 C   0  0  0  0  0  0
  -23.6282   -8.2240   22.0748 C   0  0  0  0  0  0
  -22.4261   -8.0265   21.3546 C   0  0  0  0  0  0
  -21.9889   -9.0236   20.4650 C   0  0  0  0  0  0
  -22.7208  -10.2118   20.3051 C   0  0  0  0  0  0
  -21.6851   -6.0718   22.5267 C   0  0  0  0  0  0
  -21.4009   -6.5625   23.8195 C   0  0  0  0  0  0
  -21.3669   -5.6781   24.9163 C   0  0  0  0  0  0
  -21.6053   -4.3045   24.7220 C   0  0  0  0  0  0
  -21.8819   -3.8130   23.4341 C   0  0  0  0  0  0
  -21.9196   -4.6942   22.3395 C   0  0  0  0  0  0
  -22.7851  -13.5238   21.1851 C   0  0  0  0  0  0
  -22.1663   -4.2119   21.0968 F   0  0  0  0  0  0
  -21.5648   -3.4543   25.7750 F   0  0  0  0  0  0
  -30.0275  -13.2978   20.4185 N   0  0  0  0  0  0
  -26.2992  -12.9311   20.3318 N   0  0  0  0  0  0
  -25.9284  -11.6470   20.5716 N   0  0  0  0  0  0
  -22.0496  -12.8224   22.0413 N   0  0  0  0  0  0
  -25.4359  -15.1868   20.4100 N   0  0  0  0  0  0
  -31.8836  -14.5982   20.1897 O   0  0  0  0  0  0
  -21.6639   -6.8858   21.4232 O   0  0  0  0  0  0
  -22.3527  -14.5542   20.6701 O   0  0  0  0  0  0
  -24.6128  -31.8690   23.2116 C   0  0  0  0  0  0
  -25.9026  -32.4828   23.8415 C   0  0  1  0  0  0
  -27.2378  -27.4528   20.0845 C   0  0  0  0  0  0
  -25.5897  -33.8632   24.2347 N   0  0  0  0  0  0
  -23.3998  -30.4931   21.5512 C   0  0  2  0  0  0
  -24.8447  -28.9582   20.1162 C   0  0  0  0  0  0
  -22.7401  -29.4655   22.4992 C   0  0  0  0  0  0
  -18.0272  -28.1374   22.8492 C   0  0  0  0  0  0
  -24.1480  -36.7315   23.2640 C   0  0  0  0  0  0
  -25.9268  -30.8365   21.3645 C   0  0  0  0  0  0
  -26.0023  -29.4703   20.7161 C   0  0  0  0  0  0
  -27.1967  -28.7188   20.7085 C   0  0  0  0  0  0
  -26.0553  -26.9394   19.5033 C   0  0  0  0  0  0
  -24.8639  -27.6885   19.5117 C   0  0  0  0  0  0
  -23.6082  -29.8257   20.1649 C   0  0  0  0  0  0
  -25.4099  -36.3120   24.0345 C   0  0  1  0  0  0
  -20.5860  -28.3655   23.1323 C   0  0  2  0  0  0
  -20.6751  -26.9395   22.5420 C   0  0  0  0  0  0
  -19.5737  -26.6382   21.5208 C   0  0  0  0  0  0
  -18.1913  -26.7921   22.1613 C   0  0  0  0  0  0
  -19.1517  -28.8830   23.2902 C   0  0  0  0  0  0
  -18.9452  -30.1436   23.8911 C   0  0  0  0  0  0
  -17.6451  -30.6583   24.0562 C   0  0  0  0  0  0
  -25.9032  -34.9482   23.5144 C   0  0  0  0  0  0
  -16.5342  -29.9085   23.6322 C   0  0  0  0  0  0
  -16.7258  -28.6499   23.0348 C   0  0  0  0  0  0
  -26.4466  -31.6607   25.0738 C   0  0  0  0  0  0
  -25.3748  -31.3724   26.1507 C   0  0  0  0  0  0
  -27.0281  -30.3047   24.6104 C   0  0  0  0  0  0
  -27.6068  -32.4310   25.7473 C   0  0  0  0  0  0
  -27.5582  -37.1803   24.8464 C   0  0  0  0  0  0
  -21.4133  -29.3024   22.3731 N   0  0  0  0  0  0
  -26.4287  -37.3802   23.9422 N   0  0  0  0  0  0
  -24.6644  -31.0802   22.1013 N   0  0  0  0  0  0
  -23.4179  -28.8202   23.3030 O   0  0  0  0  0  0
  -28.4209  -26.7474   20.0835 O   0  0  0  0  0  0
  -26.5586  -34.8931   22.4701 O   0  0  0  0  0  0
  -23.5317  -32.1438   23.7516 O   0  0  0  0  0  0
  -28.4458  -23.6065   18.1730 C   0  0  0  0  0  0
  -29.7403  -24.0226   20.1813 C   0  0  0  0  0  0
  -28.9497  -24.5134   19.1223 C   0  0  0  0  0  0
  -28.7884  -22.2389   18.2171 C   0  0  0  0  0  0
  -30.0984  -22.6533   20.2411 C   0  0  0  0  0  0
  -29.6626  -21.7525   19.2301 C   0  0  0  0  0  0
  -31.0122  -17.6042   21.5548 C   0  0  0  0  0  0
  -30.7036  -17.3303   19.0396 C   0  0  0  0  0  0
  -29.9480  -16.4919   21.7447 C   0  0  0  0  0  0
  -29.5856  -16.3247   19.3774 C   0  0  0  0  0  0
  -30.9686  -18.3323   20.1893 C   0  0  0  0  0  0
  -28.2458  -21.3403   17.1160 C   0  0  0  0  0  0
  -31.0115  -22.1889   21.3644 C   0  0  0  0  0  0
  -28.7487  -26.0097   18.9045 C   0  0  0  0  0  0
  -30.2825  -20.3498   19.1136 C   0  0  0  0  0  0
  -29.9037  -15.5727   20.6002 N   0  0  0  0  0  0
  -30.0507  -19.4410   20.2006 O   0  0  0  0  0  0
  -31.4657  -12.3760   19.1286 H   0  0  0  0  0  0
  -30.3047  -11.2886   19.8432 H   0  0  0  0  0  0
  -29.7323  -11.7397   17.4377 H   0  0  0  0  0  0
  -29.6738  -13.4527   17.7432 H   0  0  0  0  0  0
  -27.8134  -11.3052   18.8122 H   0  0  0  0  0  0
  -27.3692  -12.6347   17.7778 H   0  0  0  0  0  0
  -27.6820  -14.2449   19.5454 H   0  0  0  0  0  0
  -28.6701  -12.0069   21.3872 H   0  0  0  0  0  0
  -28.4811  -13.6853   21.8271 H   0  0  0  0  0  0
  -25.2738   -9.5709   22.4730 H   0  0  0  0  0  0
  -24.0019   -7.4634   22.7447 H   0  0  0  0  0  0
  -21.0833   -8.8732   19.8950 H   0  0  0  0  0  0
  -22.3654  -10.9645   19.6152 H   0  0  0  0  0  0
  -21.1977   -7.6132   23.9697 H   0  0  0  0  0  0
  -21.1508   -6.0508   25.9068 H   0  0  0  0  0  0
  -22.0595   -2.7594   23.2840 H   0  0  0  0  0  0
  -22.4119  -11.9879   22.4785 H   0  0  0  0  0  0
  -21.1114  -13.1251   22.2624 H   0  0  0  0  0  0
  -24.6841  -15.8565   20.5330 H   0  0  0  0  0  0
  -26.3081  -15.6173   20.1303 H   0  0  0  0  0  0
  -26.7097  -32.5555   23.1183 H   0  0  0  0  0  0
  -25.0071  -33.9794   25.0505 H   0  0  0  0  0  0
  -22.6880  -31.3094   21.4133 H   0  0  0  0  0  0
  -23.3747  -35.9643   23.3299 H   0  0  0  0  0  0
  -24.3576  -36.8926   22.2055 H   0  0  0  0  0  0
  -23.7216  -37.6516   23.6647 H   0  0  0  0  0  0
  -26.0371  -31.6006   20.5935 H   0  0  0  0  0  0
  -26.8170  -30.8909   21.9805 H   0  0  0  0  0  0
  -28.0937  -29.1112   21.1682 H   0  0  0  0  0  0
  -26.0439  -25.9573   19.0522 H   0  0  0  0  0  0
  -23.9703  -27.2821   19.0572 H   0  0  0  0  0  0
  -23.7197  -30.6018   19.4063 H   0  0  0  0  0  0
  -22.7317  -29.2474   19.8669 H   0  0  0  0  0  0
  -25.1263  -36.1991   25.0835 H   0  0  0  0  0  0
  -20.9951  -28.3217   24.1440 H   0  0  0  0  0  0
  -20.5639  -26.2267   23.3608 H   0  0  0  0  0  0
  -21.6625  -26.7429   22.1223 H   0  0  0  0  0  0
  -19.6896  -25.6294   21.1231 H   0  0  0  0  0  0
  -19.6681  -27.3196   20.6744 H   0  0  0  0  0  0
  -17.4190  -26.6688   21.4006 H   0  0  0  0  0  0
  -18.0301  -26.0055   22.9001 H   0  0  0  0  0  0
  -19.7930  -30.7242   24.2288 H   0  0  0  0  0  0
  -17.5015  -31.6261   24.5168 H   0  0  0  0  0  0
  -15.5343  -30.2995   23.7635 H   0  0  0  0  0  0
  -15.8658  -28.0826   22.7053 H   0  0  0  0  0  0
  -24.5892  -30.7094   25.7857 H   0  0  0  0  0  0
  -24.8974  -32.2892   26.4983 H   0  0  0  0  0  0
  -25.8116  -30.8875   27.0249 H   0  0  0  0  0  0
  -26.2806  -29.6809   24.1188 H   0  0  0  0  0  0
  -27.4080  -29.7283   25.4549 H   0  0  0  0  0  0
  -27.8635  -30.4357   23.9219 H   0  0  0  0  0  0
  -27.2724  -33.3620   26.2064 H   0  0  0  0  0  0
  -28.3864  -32.6850   25.0276 H   0  0  0  0  0  0
  -28.0755  -31.8423   26.5371 H   0  0  0  0  0  0
  -28.2603  -38.0096   24.7517 H   0  0  0  0  0  0
  -28.1067  -36.2628   24.6267 H   0  0  0  0  0  0
  -27.2314  -37.1436   25.8871 H   0  0  0  0  0  0
  -20.9289  -29.8765   21.6976 H   0  0  0  0  0  0
  -26.0180  -38.2883   24.1432 H   0  0  0  0  0  0
  -27.8335  -23.9791   17.3627 H   0  0  0  0  0  0
  -30.1227  -24.7166   20.9174 H   0  0  0  0  0  0
  -31.9949  -17.1415   21.6535 H   0  0  0  0  0  0
  -30.9466  -18.3308   22.3646 H   0  0  0  0  0  0
  -30.4859  -17.8227   18.0941 H   0  0  0  0  0  0
  -31.6258  -16.7830   18.8457 H   0  0  0  0  0  0
  -28.9623  -16.9435   21.8691 H   0  0  0  0  0  0
  -30.1447  -15.9366   22.6638 H   0  0  0  0  0  0
  -29.4408  -15.6424   18.5397 H   0  0  0  0  0  0
  -28.6366  -16.8481   19.5048 H   0  0  0  0  0  0
  -31.9687  -18.7492   20.0511 H   0  0  0  0  0  0
  -27.5185  -21.8629   16.4934 H   0  0  0  0  0  0
  -27.7444  -20.4709   17.5419 H   0  0  0  0  0  0
  -29.0487  -20.9999   16.4611 H   0  0  0  0  0  0
  -31.2066  -22.9884   22.0804 H   0  0  0  0  0  0
  -31.9716  -21.8533   20.9718 H   0  0  0  0  0  0
  -30.5563  -21.3640   21.9131 H   0  0  0  0  0  0
  -28.0591  -26.1848   18.0778 H   0  0  0  0  0  0
  -29.6998  -26.4036   18.5460 H   0  0  0  0  0  0
  -31.3534  -20.5214   18.9903 H   0  0  0  0  0  0
  -29.9696  -19.8760   18.1888 H   0  0  0  0  0  0
  1 25  1  0  0  0
  1 30  2  0  0  0
  1 86  1  0  0  0
  2  3  1  0  0  0
  2 25  1  0  0  0
  2 88  1  0  0  0
  2 89  1  0  0  0
  3  4  1  0  0  0
  3 90  1  0  0  0
  3 91  1  0  0  0
  4  5  1  0  0  0
  4 92  1  0  0  0
  4 93  1  0  0  0
  5  6  1  0  0  0
  5 26  1  0  0  0
  5 94  1  0  0  0
  6 25  1  0  0  0
  6 95  1  0  0  0
  6 96  1  0  0  0
  7  8  2  0  0  0
  7 26  1  0  0  0
  7 29  1  0  0  0
  8  9  1  0  0  0
  8 22  1  0  0  0
  9 10  1  0  0  0
  9 27  2  0  0  0
 10 11  2  0  0  0
 10 15  1  0  0  0
 11 12  1  0  0  0
 11 97  1  0  0  0
 12 13  2  0  0  0
 12 98  1  0  0  0
 13 14  1  0  0  0
 13 31  1  0  0  0
 14 15  2  0  0  0
 14 99  1  0  0  0
 15100  1  0  0  0
 16 17  2  0  0  0
 16 21  1  0  0  0
 16 31  1  0  0  0
 17 18  1  0  0  0
 17101  1  0  0  0
 18 19  2  0  0  0
 18102  1  0  0  0
 19 20  1  0  0  0
 19 24  1  0  0  0
 20 21  2  0  0  0
 20103  1  0  0  0
 21 23  1  0  0  0
 22 28  1  0  0  0
 22 32  2  0  0  0
 26 27  1  0  0  0
 28104  1  0  0  0
 28105  1  0  0  0
 29106  1  0  0  0
 29107  1  0  0  0
 33 34  1  0  0  0
 33 66  1  0  0  0
 33 70  2  0  0  0
 34 36  1  0  0  0
 34 59  1  0  0  0
 34108  1  0  0  0
 35 44  2  0  0  0
 35 45  1  0  0  0
 35 68  1  0  0  0
 36 56  1  0  0  0
 36109  1  0  0  0
 37 39  1  0  0  0
 37 47  1  0  0  0
 37 66  1  0  0  0
 37110  1  0  0  0
 38 43  2  0  0  0
 38 46  1  0  0  0
 38 47  1  0  0  0
 39 64  1  0  0  0
 39 67  2  0  0  0
 40 52  1  0  0  0
 40 53  2  0  0  0
 40 58  1  0  0  0
 41111  1  0  0  0
 41112  1  0  0  0
 41113  1  0  0  0
 41 48  1  0  0  0
 42 43  1  0  0  0
 42 66  1  0  0  0
 42114  1  0  0  0
 42115  1  0  0  0
 43 44  1  0  0  0
 44116  1  0  0  0
 45 46  2  0  0  0
 45117  1  0  0  0
 46118  1  0  0  0
 47119  1  0  0  0
 47120  1  0  0  0
 48 56  1  0  0  0
 48 65  1  0  0  0
 48121  1  0  0  0
 49 50  1  0  0  0
 49 53  1  0  0  0
 49 64  1  0  0  0
 49122  1  0  0  0
 50 51  1  0  0  0
 50123  1  0  0  0
 50124  1  0  0  0
 51 52  1  0  0  0
 51125  1  0  0  0
 51126  1  0  0  0
 52127  1  0  0  0
 52128  1  0  0  0
 53 54  1  0  0  0
 54 55  2  0  0  0
 54129  1  0  0  0
 55 57  1  0  0  0
 55130  1  0  0  0
 56 69  2  0  0  0
 57 58  2  0  0  0
 57131  1  0  0  0
 58132  1  0  0  0
 59 60  1  0  0  0
 59 61  1  0  0  0
 59 62  1  0  0  0
 60133  1  0  0  0
 60134  1  0  0  0
 60135  1  0  0  0
 61136  1  0  0  0
 61137  1  0  0  0
 61138  1  0  0  0
 62139  1  0  0  0
 62140  1  0  0  0
 62141  1  0  0  0
 63 65  1  0  0  0
 63142  1  0  0  0
 63143  1  0  0  0
 63144  1  0  0  0
 64145  1  0  0  0
 65146  1  0  0  0
 68 84  1  0  0  0
 71 73  2  0  0  0
 71 74  1  0  0  0
 71147  1  0  0  0
 72 73  1  0  0  0
 72 75  2  0  0  0
 72148  1  0  0  0
 73 84  1  0  0  0
 74 76  2  0  0  0
 74 82  1  0  0  0
 75 76  1  0  0  0
 75 83  1  0  0  0
 76 85  1  0  0  0
 77 79  1  0  0  0
 77 81  1  0  0  0
 77149  1  0  0  0
 77150  1  0  0  0
 78 80  1  0  0  0
 78 81  1  0  0  0
 78151  1  0  0  0
 78152  1  0  0  0
 79 86  1  0  0  0
 79153  1  0  0  0
 79154  1  0  0  0
 80 86  1  0  0  0
 80155  1  0  0  0
 80156  1  0  0  0
 81 87  1  0  0  0
 81157  1  0  0  0
 82158  1  0  0  0
 82159  1  0  0  0
 82160  1  0  0  0
 83161  1  0  0  0
 83162  1  0  0  0
 83163  1  0  0  0
 84164  1  0  0  0
 84165  1  0  0  0
 85 87  1  0  0  0
 85166  1  0  0  0
 85167  1  0  0  0
M  ISO  4   1 100  68 101  84 101  86 100
M  END
> <chiral flag>
0

> <version>
0

> <s_m_source_file>
/data/baiqing/PycharmProjects/Reinvent-master-3.2/result/LINK_invent/BTK/process_docking_weight1_custom_sum_contain_oxygen_bond_distance_aromatic_linkinvent_7_9_3/rearranged_h_0159.sdf

> <i_m_source_file_index>
78

> <r_mmod_Potential_Energy-OPLS-2005>
246.40104675293

> <r_mmod_Stretch_Energy-OPLS-2005>
39.6564025878906

> <r_mmod_Bend_Energy-OPLS-2005>
103.022109985352

> <r_mmod_Torsional_Energy-OPLS-2005>
367.274566650391

> <r_mmod_Improper_Torsional_Energy-OPLS-2005>
14.1739292144775

> <r_mmod_Van_der_Waal_Energy-OPLS-2005>
161.631484985352

> <r_mmod_Electrostatic_Energy-OPLS-2005>
-264.14892578125

> <r_mmod_Solvation_Energy-OPLS-2005>
-192.308471679688

> <b_mmod_Minimization_Converged-OPLS-2005>
0

> <r_mmod_RMS_Derivative-OPLS-2005>
1.84238064289093

$$$$
78
                    3D
 Structure written by MMmdl.
170179  0  0  1  0            999 V2000
  -30.7005  -14.5112   20.4841 C   0  0  0  0  0  0
  -30.4169  -12.3011   19.4389 C   0  0  0  0  0  0
  -29.4981  -12.4741   18.2128 C   0  0  0  0  0  0
  -28.0171  -12.3476   18.6254 C   0  0  0  0  0  0
  -27.6549  -13.2118   19.8654 C   0  0  2  0  0  0
  -28.7005  -13.0416   20.9903 C   0  0  0  0  0  0
  -25.2547  -13.8155   20.5656 C   0  0  0  0  0  0
  -24.1814  -13.0428   20.9172 C   0  0  0  0  0  0
  -24.6384  -11.6893   20.8730 C   0  0  0  0  0  0
  -23.9044  -10.4286   21.0406 C   0  0  0  0  0  0
  -24.3593   -9.4184   21.9189 C   0  0  0  0  0  0
  -23.6267   -8.2224   22.0745 C   0  0  0  0  0  0
  -22.4246   -8.0262   21.3550 C   0  0  0  0  0  0
  -21.9893   -9.0235   20.4647 C   0  0  0  0  0  0
  -22.7210  -10.2116   20.3055 C   0  0  0  0  0  0
  -21.6859   -6.0703   22.5255 C   0  0  0  0  0  0
  -21.4026   -6.5612   23.8178 C   0  0  0  0  0  0
  -21.3667   -5.6775   24.9165 C   0  0  0  0  0  0
  -21.6039   -4.3041   24.7228 C   0  0  0  0  0  0
  -21.8825   -3.8115   23.4356 C   0  0  0  0  0  0
  -21.9190   -4.6928   22.3395 C   0  0  0  0  0  0
  -22.7834  -13.5201   21.1862 C   0  0  0  0  0  0
  -22.1655   -4.2096   21.0985 F   0  0  0  0  0  0
  -21.5634   -3.4529   25.7755 F   0  0  0  0  0  0
  -30.0239  -13.3278   20.4182 N   0  0  0  0  0  0
  -26.2992  -12.9344   20.3343 N   0  0  0  0  0  0
  -25.9310  -11.6502   20.5773 N   0  0  0  0  0  0
  -22.0488  -12.8220   22.0424 N   0  0  0  0  0  0
  -25.4268  -15.1881   20.4057 N   0  0  0  0  0  0
  -31.8867  -14.5997   20.1556 O   0  0  0  0  0  0
  -21.6635   -6.8842   21.4212 O   0  0  0  0  0  0
  -22.3512  -14.5527   20.6724 O   0  0  0  0  0  0
  -24.6180  -31.8609   23.2043 C   0  0  0  0  0  0
  -25.9064  -32.4783   23.8346 C   0  0  1  0  0  0
  -27.2306  -27.4071   20.0649 C   0  0  0  0  0  0
  -25.5883  -33.8579   24.2279 N   0  0  0  0  0  0
  -23.4064  -30.4879   21.5467 C   0  0  2  0  0  0
  -24.8436  -28.9416   20.1249 C   0  0  0  0  0  0
  -22.7389  -29.4661   22.4949 C   0  0  0  0  0  0
  -18.0250  -28.1331   22.8500 C   0  0  0  0  0  0
  -24.1491  -36.7327   23.2632 C   0  0  0  0  0  0
  -25.9362  -30.8217   21.3552 C   0  0  0  0  0  0
  -26.0112  -29.4501   20.7074 C   0  0  0  0  0  0
  -27.2074  -28.6910   20.6725 C   0  0  0  0  0  0
  -26.0275  -26.9122   19.5074 C   0  0  0  0  0  0
  -24.8454  -27.6700   19.5335 C   0  0  0  0  0  0
  -23.6113  -29.8126   20.1672 C   0  0  0  0  0  0
  -25.4084  -36.3081   24.0325 C   0  0  1  0  0  0
  -20.5856  -28.3658   23.1276 C   0  0  2  0  0  0
  -20.6733  -26.9384   22.5398 C   0  0  0  0  0  0
  -19.5715  -26.6362   21.5184 C   0  0  0  0  0  0
  -18.1898  -26.7871   22.1625 C   0  0  0  0  0  0
  -19.1514  -28.8777   23.2899 C   0  0  0  0  0  0
  -18.9461  -30.1372   23.8933 C   0  0  0  0  0  0
  -17.6481  -30.6559   24.0549 C   0  0  0  0  0  0
  -25.9008  -34.9466   23.5092 C   0  0  0  0  0  0
  -16.5357  -29.9074   23.6318 C   0  0  0  0  0  0
  -16.7243  -28.6464   23.0379 C   0  0  0  0  0  0
  -26.4471  -31.6567   25.0698 C   0  0  0  0  0  0
  -25.3760  -31.3789   26.1493 C   0  0  0  0  0  0
  -27.0281  -30.2990   24.6107 C   0  0  0  0  0  0
  -27.5986  -32.4302   25.7508 C   0  0  0  0  0  0
  -27.5561  -37.1810   24.8448 C   0  0  0  0  0  0
  -21.4106  -29.3055   22.3683 N   0  0  0  0  0  0
  -26.4264  -37.3762   23.9394 N   0  0  0  0  0  0
  -24.6744  -31.0710   22.0955 N   0  0  0  0  0  0
  -23.4128  -28.8160   23.2995 O   0  0  0  0  0  0
  -28.4318  -26.7106   20.0233 O   0  0  0  0  0  0
  -26.5587  -34.8926   22.4668 O   0  0  0  0  0  0
  -23.5389  -32.1327   23.7478 O   0  0  0  0  0  0
  -28.3599  -20.6066   20.0123 C   0  0  0  0  0  0
  -30.2538  -22.4023   20.9955 C   0  0  0  0  0  0
  -29.6121  -20.0975   20.4401 C   0  0  0  0  0  0
  -30.5694  -21.0272   20.9218 C   0  0  0  0  0  0
  -28.9916  -22.9059   20.6053 C   0  0  0  0  0  0
  -28.0461  -21.9958   20.0688 C   0  0  0  0  0  0
  -29.6156  -17.8476   21.7118 C   0  0  0  0  0  0
  -29.2974  -17.8088   19.2342 C   0  0  0  0  0  0
  -29.4219  -16.2984   21.6329 C   0  0  0  0  0  0
  -29.9340  -16.4026   19.1501 C   0  0  0  0  0  0
  -29.9318  -18.5817   20.3920 C   0  0  0  0  0  0
  -31.9427  -20.5832   21.3948 C   0  0  0  0  0  0
  -27.4864  -24.5332   21.8538 C   0  0  0  0  0  0
  -26.0197  -21.7267   18.7885 C   0  0  0  0  0  0
  -28.5054  -25.3127   19.6367 C   0  0  0  0  0  0
  -28.6709  -24.3950   20.8808 C   0  0  1  0  0  0
  -29.9225  -15.6264   20.4162 N   0  0  0  0  0  0
  -26.8419  -22.5129   19.6420 O   0  0  0  0  0  0
  -31.4610  -12.3788   19.1314 H   0  0  0  0  0  0
  -30.3064  -11.3027   19.8664 H   0  0  0  0  0  0
  -29.7369  -11.7242   17.4581 H   0  0  0  0  0  0
  -29.6761  -13.4456   17.7471 H   0  0  0  0  0  0
  -27.8373  -11.2973   18.8491 H   0  0  0  0  0  0
  -27.3644  -12.5984   17.7879 H   0  0  0  0  0  0
  -27.6830  -14.2518   19.5441 H   0  0  0  0  0  0
  -28.6728  -12.0259   21.3924 H   0  0  0  0  0  0
  -28.4727  -13.7004   21.8277 H   0  0  0  0  0  0
  -25.2735   -9.5656   22.4755 H   0  0  0  0  0  0
  -23.9963   -7.4620   22.7481 H   0  0  0  0  0  0
  -21.0801   -8.8762   19.8965 H   0  0  0  0  0  0
  -22.3664  -10.9659   19.6158 H   0  0  0  0  0  0
  -21.2030   -7.6124   23.9670 H   0  0  0  0  0  0
  -21.1486   -6.0523   25.9062 H   0  0  0  0  0  0
  -22.0605   -2.7565   23.2880 H   0  0  0  0  0  0
  -22.4139  -11.9869   22.4785 H   0  0  0  0  0  0
  -21.1103  -13.1233   22.2677 H   0  0  0  0  0  0
  -24.6601  -15.8447   20.5079 H   0  0  0  0  0  0
  -26.2917  -15.6236   20.1109 H   0  0  0  0  0  0
  -26.7122  -32.5468   23.1086 H   0  0  0  0  0  0
  -25.0008  -33.9704   25.0425 H   0  0  0  0  0  0
  -22.6989  -31.3066   21.4028 H   0  0  0  0  0  0
  -23.3729  -35.9691   23.3270 H   0  0  0  0  0  0
  -24.3632  -36.8965   22.2065 H   0  0  0  0  0  0
  -23.7291  -37.6533   23.6669 H   0  0  0  0  0  0
  -26.0439  -31.5895   20.5854 H   0  0  0  0  0  0
  -26.8279  -30.8769   21.9686 H   0  0  0  0  0  0
  -28.1173  -29.0896   21.1014 H   0  0  0  0  0  0
  -25.9571  -25.9450   19.0354 H   0  0  0  0  0  0
  -23.9386  -27.2639   19.1040 H   0  0  0  0  0  0
  -23.7178  -30.5792   19.3988 H   0  0  0  0  0  0
  -22.7337  -29.2304   19.8763 H   0  0  0  0  0  0
  -25.1280  -36.1919   25.0817 H   0  0  0  0  0  0
  -21.0006  -28.3257   24.1381 H   0  0  0  0  0  0
  -20.5579  -26.2288   23.3615 H   0  0  0  0  0  0
  -21.6600  -26.7346   22.1241 H   0  0  0  0  0  0
  -19.6900  -25.6275   21.1190 H   0  0  0  0  0  0
  -19.6644  -27.3183   20.6725 H   0  0  0  0  0  0
  -17.4163  -26.6589   21.4044 H   0  0  0  0  0  0
  -18.0331  -25.9966   22.8988 H   0  0  0  0  0  0
  -19.7945  -30.7133   24.2366 H   0  0  0  0  0  0
  -17.5055  -31.6271   24.5102 H   0  0  0  0  0  0
  -15.5362  -30.3021   23.7591 H   0  0  0  0  0  0
  -15.8633  -28.0783   22.7147 H   0  0  0  0  0  0
  -24.5856  -30.7165   25.7936 H   0  0  0  0  0  0
  -24.9083  -32.3041   26.4883 H   0  0  0  0  0  0
  -25.8170  -30.9037   27.0265 H   0  0  0  0  0  0
  -26.2886  -29.6808   24.1012 H   0  0  0  0  0  0
  -27.3845  -29.7148   25.4584 H   0  0  0  0  0  0
  -27.8779  -30.4232   23.9397 H   0  0  0  0  0  0
  -27.2482  -33.3527   26.2132 H   0  0  0  0  0  0
  -28.3813  -32.6968   25.0407 H   0  0  0  0  0  0
  -28.0608  -31.8409   26.5420 H   0  0  0  0  0  0
  -28.2543  -38.0132   24.7469 H   0  0  0  0  0  0
  -28.1081  -36.2656   24.6278 H   0  0  0  0  0  0
  -27.2292  -37.1471   25.8853 H   0  0  0  0  0  0
  -20.9224  -29.8887   21.7019 H   0  0  0  0  0  0
  -26.0150  -38.2818   24.1437 H   0  0  0  0  0  0
  -27.6275  -19.9038   19.6470 H   0  0  0  0  0  0
  -30.9875  -23.0837   21.4000 H   0  0  0  0  0  0
  -28.6983  -18.2675   22.1292 H   0  0  0  0  0  0
  -30.3898  -18.0867   22.4412 H   0  0  0  0  0  0
  -28.2166  -17.7298   19.3597 H   0  0  0  0  0  0
  -29.4739  -18.3434   18.3004 H   0  0  0  0  0  0
  -29.8624  -15.8526   22.5286 H   0  0  0  0  0  0
  -28.3563  -16.0697   21.6924 H   0  0  0  0  0  0
  -29.4330  -15.8153   18.3783 H   0  0  0  0  0  0
  -30.9634  -16.5229   18.7967 H   0  0  0  0  0  0
  -31.0042  -18.4877   20.2176 H   0  0  0  0  0  0
  -31.8540  -19.8891   22.2302 H   0  0  0  0  0  0
  -32.5379  -21.4348   21.7249 H   0  0  0  0  0  0
  -32.4904  -20.0933   20.5888 H   0  0  0  0  0  0
  -26.5556  -24.1812   21.4106 H   0  0  0  0  0  0
  -27.3302  -25.5690   22.1534 H   0  0  0  0  0  0
  -27.6662  -23.9691   22.7693 H   0  0  0  0  0  0
  -25.3734  -22.4043   18.2292 H   0  0  0  0  0  0
  -25.3875  -21.0400   19.3512 H   0  0  0  0  0  0
  -26.5932  -21.1602   18.0545 H   0  0  0  0  0  0
  -27.7068  -24.9641   18.9912 H   0  0  0  0  0  0
  -29.3918  -25.2140   19.0092 H   0  0  0  0  0  0
  -29.5393  -24.7894   21.4078 H   0  0  0  0  0  0
  1 25  1  0  0  0
  1 30  2  0  0  0
  1 87  1  0  0  0
  2  3  1  0  0  0
  2 25  1  0  0  0
  2 89  1  0  0  0
  2 90  1  0  0  0
  3  4  1  0  0  0
  3 91  1  0  0  0
  3 92  1  0  0  0
  4  5  1  0  0  0
  4 93  1  0  0  0
  4 94  1  0  0  0
  5  6  1  0  0  0
  5 26  1  0  0  0
  5 95  1  0  0  0
  6 25  1  0  0  0
  6 96  1  0  0  0
  6 97  1  0  0  0
  7  8  2  0  0  0
  7 26  1  0  0  0
  7 29  1  0  0  0
  8  9  1  0  0  0
  8 22  1  0  0  0
  9 10  1  0  0  0
  9 27  2  0  0  0
 10 11  2  0  0  0
 10 15  1  0  0  0
 11 12  1  0  0  0
 11 98  1  0  0  0
 12 13  2  0  0  0
 12 99  1  0  0  0
 13 14  1  0  0  0
 13 31  1  0  0  0
 14 15  2  0  0  0
 14100  1  0  0  0
 15101  1  0  0  0
 16 17  2  0  0  0
 16 21  1  0  0  0
 16 31  1  0  0  0
 17 18  1  0  0  0
 17102  1  0  0  0
 18 19  2  0  0  0
 18103  1  0  0  0
 19 20  1  0  0  0
 19 24  1  0  0  0
 20 21  2  0  0  0
 20104  1  0  0  0
 21 23  1  0  0  0
 22 28  1  0  0  0
 22 32  2  0  0  0
 26 27  1  0  0  0
 28105  1  0  0  0
 28106  1  0  0  0
 29107  1  0  0  0
 29108  1  0  0  0
 33 34  1  0  0  0
 33 66  1  0  0  0
 33 70  2  0  0  0
 34 36  1  0  0  0
 34 59  1  0  0  0
 34109  1  0  0  0
 35 44  2  0  0  0
 35 45  1  0  0  0
 35 68  1  0  0  0
 36 56  1  0  0  0
 36110  1  0  0  0
 37 39  1  0  0  0
 37 47  1  0  0  0
 37 66  1  0  0  0
 37111  1  0  0  0
 38 43  2  0  0  0
 38 46  1  0  0  0
 38 47  1  0  0  0
 39 64  1  0  0  0
 39 67  2  0  0  0
 40 52  1  0  0  0
 40 53  2  0  0  0
 40 58  1  0  0  0
 41112  1  0  0  0
 41113  1  0  0  0
 41114  1  0  0  0
 41 48  1  0  0  0
 42 43  1  0  0  0
 42 66  1  0  0  0
 42115  1  0  0  0
 42116  1  0  0  0
 43 44  1  0  0  0
 44117  1  0  0  0
 45 46  2  0  0  0
 45118  1  0  0  0
 46119  1  0  0  0
 47120  1  0  0  0
 47121  1  0  0  0
 48 56  1  0  0  0
 48 65  1  0  0  0
 48122  1  0  0  0
 49 50  1  0  0  0
 49 53  1  0  0  0
 49 64  1  0  0  0
 49123  1  0  0  0
 50 51  1  0  0  0
 50124  1  0  0  0
 50125  1  0  0  0
 51 52  1  0  0  0
 51126  1  0  0  0
 51127  1  0  0  0
 52128  1  0  0  0
 52129  1  0  0  0
 53 54  1  0  0  0
 54 55  2  0  0  0
 54130  1  0  0  0
 55 57  1  0  0  0
 55131  1  0  0  0
 56 69  2  0  0  0
 57 58  2  0  0  0
 57132  1  0  0  0
 58133  1  0  0  0
 59 60  1  0  0  0
 59 61  1  0  0  0
 59 62  1  0  0  0
 60134  1  0  0  0
 60135  1  0  0  0
 60136  1  0  0  0
 61137  1  0  0  0
 61138  1  0  0  0
 61139  1  0  0  0
 62140  1  0  0  0
 62141  1  0  0  0
 62142  1  0  0  0
 63 65  1  0  0  0
 63143  1  0  0  0
 63144  1  0  0  0
 63145  1  0  0  0
 64146  1  0  0  0
 65147  1  0  0  0
 68 85  1  0  0  0
 71 73  2  0  0  0
 71 76  1  0  0  0
 71148  1  0  0  0
 72 74  2  0  0  0
 72 75  1  0  0  0
 72149  1  0  0  0
 73 74  1  0  0  0
 73 81  1  0  0  0
 74 82  1  0  0  0
 75 76  2  0  0  0
 75 86  1  0  0  0
 76 88  1  0  0  0
 77 79  1  0  0  0
 77 81  1  0  0  0
 77150  1  0  0  0
 77151  1  0  0  0
 78 80  1  0  0  0
 78 81  1  0  0  0
 78152  1  0  0  0
 78153  1  0  0  0
 79 87  1  0  0  0
 79154  1  0  0  0
 79155  1  0  0  0
 80 87  1  0  0  0
 80156  1  0  0  0
 80157  1  0  0  0
 81158  1  0  0  0
 82159  1  0  0  0
 82160  1  0  0  0
 82161  1  0  0  0
 83162  1  0  0  0
 83163  1  0  0  0
 83164  1  0  0  0
 83 86  1  0  0  0
 84 88  1  0  0  0
 84165  1  0  0  0
 84166  1  0  0  0
 84167  1  0  0  0
 85 86  1  0  0  0
 85168  1  0  0  0
 85169  1  0  0  0
 86170  1  0  0  0
M  ISO  4   1 100  68 101  85 101  87 100
M  END
> <chiral flag>
0

> <version>
0

> <s_m_source_file>
/data/baiqing/PycharmProjects/Reinvent-master-3.2/result/LINK_invent/BTK/process_docking_weight1_custom_sum_contain_oxygen_bond_distance_aromatic_linkinvent_7_9_3/rearranged_h_0159.sdf

> <i_m_source_file_index>
79

> <r_mmod_Potential_Energy-OPLS-2005>
228.896469116211

> <r_mmod_Stretch_Energy-OPLS-2005>
49.8987846374512

> <r_mmod_Bend_Energy-OPLS-2005>
132.00114440918

> <r_mmod_Torsional_Energy-OPLS-2005>
343.984161376953

> <r_mmod_Improper_Torsional_Energy-OPLS-2005>
17.2491264343262

> <r_mmod_Van_der_Waal_Energy-OPLS-2005>
159.17414855957

> <r_mmod_Electrostatic_Energy-OPLS-2005>
-305.366790771484

> <r_mmod_Solvation_Energy-OPLS-2005>
-189.966171264648

> <b_mmod_Minimization_Converged-OPLS-2005>
0

> <r_mmod_RMS_Derivative-OPLS-2005>
4.96216678619385

$$$$
79
                    3D
 Structure written by MMmdl.
175184  0  0  1  0            999 V2000
  -30.7685  -14.6894   20.6772 C   0  0  0  0  0  0
  -30.4468  -12.4671   19.5143 C   0  0  0  0  0  0
  -29.5430  -12.5104   18.2653 C   0  0  0  0  0  0
  -28.0663  -12.3140   18.6523 C   0  0  0  0  0  0
  -27.6494  -13.2184   19.8468 C   0  0  2  0  0  0
  -28.6892  -13.2152   21.0045 C   0  0  0  0  0  0
  -25.2321  -13.7837   20.5620 C   0  0  0  0  0  0
  -24.1739  -13.0157   20.9209 C   0  0  0  0  0  0
  -24.6446  -11.6681   20.8732 C   0  0  0  0  0  0
  -23.9114  -10.4112   21.0340 C   0  0  0  0  0  0
  -24.3609   -9.4046   21.9140 C   0  0  0  0  0  0
  -23.6223   -8.2117   22.0729 C   0  0  0  0  0  0
  -22.4206   -8.0180   21.3495 C   0  0  0  0  0  0
  -21.9870   -9.0166   20.4607 C   0  0  0  0  0  0
  -22.7270  -10.2004   20.2995 C   0  0  0  0  0  0
  -21.6835   -6.0660   22.5250 C   0  0  0  0  0  0
  -21.4005   -6.5581   23.8182 C   0  0  0  0  0  0
  -21.3665   -5.6746   24.9158 C   0  0  0  0  0  0
  -21.6065   -4.3010   24.7218 C   0  0  0  0  0  0
  -21.8828   -3.8091   23.4348 C   0  0  0  0  0  0
  -21.9180   -4.6886   22.3404 C   0  0  0  0  0  0
  -22.7755  -13.4919   21.1875 C   0  0  0  0  0  0
  -22.1658   -4.2093   21.0973 F   0  0  0  0  0  0
  -21.5657   -3.4512   25.7732 F   0  0  0  0  0  0
  -30.0242  -13.5333   20.4655 N   0  0  0  0  0  0
  -26.2940  -12.9246   20.3191 N   0  0  0  0  0  0
  -25.9386  -11.6380   20.5680 N   0  0  0  0  0  0
  -22.0417  -12.7984   22.0433 N   0  0  0  0  0  0
  -25.3475  -15.1516   20.4054 N   0  0  0  0  0  0
  -31.9289  -14.7306   20.2574 O   0  0  0  0  0  0
  -21.6554   -6.8803   21.4196 O   0  0  0  0  0  0
  -22.3498  -14.5313   20.6782 O   0  0  0  0  0  0
  -24.6176  -31.8620   23.2029 C   0  0  0  0  0  0
  -25.9049  -32.4786   23.8327 C   0  0  1  0  0  0
  -27.2518  -27.3395   20.1510 C   0  0  0  0  0  0
  -25.5919  -33.8596   24.2300 N   0  0  0  0  0  0
  -23.4126  -30.4742   21.5467 C   0  0  2  0  0  0
  -24.8678  -28.9242   20.1142 C   0  0  0  0  0  0
  -22.7469  -29.4597   22.5029 C   0  0  0  0  0  0
  -18.0269  -28.1387   22.8528 C   0  0  0  0  0  0
  -24.1498  -36.7250   23.2634 C   0  0  0  0  0  0
  -25.9442  -30.8045   21.3660 C   0  0  0  0  0  0
  -26.0274  -29.4315   20.7098 C   0  0  0  0  0  0
  -27.2146  -28.6511   20.7157 C   0  0  0  0  0  0
  -26.0720  -26.8729   19.5270 C   0  0  0  0  0  0
  -24.8914  -27.6534   19.5114 C   0  0  0  0  0  0
  -23.6248  -29.7920   20.1675 C   0  0  0  0  0  0
  -25.4138  -36.3117   24.0340 C   0  0  1  0  0  0
  -20.5871  -28.3674   23.1377 C   0  0  2  0  0  0
  -20.6780  -26.9407   22.5470 C   0  0  0  0  0  0
  -19.5761  -26.6402   21.5261 C   0  0  0  0  0  0
  -18.1929  -26.7941   22.1649 C   0  0  0  0  0  0
  -19.1519  -28.8846   23.2928 C   0  0  0  0  0  0
  -18.9441  -30.1466   23.8904 C   0  0  0  0  0  0
  -17.6431  -30.6585   24.0570 C   0  0  0  0  0  0
  -25.9070  -34.9474   23.5132 C   0  0  0  0  0  0
  -16.5329  -29.9081   23.6333 C   0  0  0  0  0  0
  -16.7253  -28.6502   23.0359 C   0  0  0  0  0  0
  -26.4462  -31.6586   25.0651 C   0  0  0  0  0  0
  -25.3728  -31.3710   26.1401 C   0  0  0  0  0  0
  -27.0251  -30.3016   24.6028 C   0  0  0  0  0  0
  -27.6062  -32.4291   25.7379 C   0  0  0  0  0  0
  -27.5599  -37.1802   24.8472 C   0  0  0  0  0  0
  -21.4179  -29.3001   22.3756 N   0  0  0  0  0  0
  -26.4326  -37.3796   23.9397 N   0  0  0  0  0  0
  -24.6762  -31.0652   22.0959 N   0  0  0  0  0  0
  -23.4191  -28.8186   23.3139 O   0  0  0  0  0  0
  -28.4198  -26.5771   20.2803 O   0  0  0  0  0  0
  -26.5628  -34.8925   22.4685 O   0  0  0  0  0  0
  -23.5380  -32.1394   23.7406 O   0  0  0  0  0  0
  -30.3761  -18.3915   21.7309 C   0  0  0  0  0  0
  -31.5868  -17.7388   24.1000 C   0  0  0  0  0  0
  -30.6825  -19.4966   22.6044 C   0  0  0  0  0  0
  -31.2938  -19.1003   23.8338 C   0  0  0  0  0  0
  -31.2405  -16.6706   23.2359 C   0  0  0  0  0  0
  -30.6018  -16.9611   21.9857 C   0  0  0  0  0  0
  -31.2894  -21.5443   20.9950 C   0  0  0  0  0  0
  -30.5990  -22.8131   20.4228 C   0  0  0  0  0  0
  -30.4851  -21.0568   22.2199 C   0  0  1  0  0  0
  -29.0940  -21.7827   21.9422 C   0  0  1  0  0  0
  -31.6315  -20.1004   24.9337 C   0  0  0  0  0  0
  -31.6008  -15.2748   23.7540 C   0  0  0  0  0  0
  -28.2370  -22.0556   23.1959 C   0  0  0  0  0  0
  -28.0999  -17.0820   20.2141 C   0  0  0  0  0  0
  -29.4502  -16.4629   19.8489 C   0  0  0  0  0  0
  -28.2833  -23.8818   20.5563 C   0  0  0  0  0  0
  -28.6221  -25.2232   19.7409 C   0  0  0  0  0  0
  -30.1465  -15.8992   21.0176 N   0  0  0  0  0  0
  -29.4103  -23.1063   21.2534 N   0  3  2  0  0  0
  -31.4896  -12.5565   19.2057 H   0  0  0  0  0  0
  -30.3731  -11.4865   19.9910 H   0  0  0  0  0  0
  -29.8498  -11.7393   17.5545 H   0  0  0  0  0  0
  -29.6736  -13.4656   17.7582 H   0  0  0  0  0  0
  -27.9274  -11.2597   18.8934 H   0  0  0  0  0  0
  -27.4295  -12.4940   17.7860 H   0  0  0  0  0  0
  -27.6195  -14.2278   19.4449 H   0  0  0  0  0  0
  -28.7052  -12.2496   21.5140 H   0  0  0  0  0  0
  -28.4060  -13.9521   21.7568 H   0  0  0  0  0  0
  -25.2762   -9.5483   22.4719 H   0  0  0  0  0  0
  -23.9911   -7.4472   22.7458 H   0  0  0  0  0  0
  -21.0807   -8.8708   19.8877 H   0  0  0  0  0  0
  -22.3769  -10.9527   19.6101 H   0  0  0  0  0  0
  -21.2001   -7.6091   23.9682 H   0  0  0  0  0  0
  -21.1507   -6.0476   25.9064 H   0  0  0  0  0  0
  -22.0624   -2.7545   23.2869 H   0  0  0  0  0  0
  -22.4132  -11.9704   22.4827 H   0  0  0  0  0  0
  -21.1017  -13.1009   22.2629 H   0  0  0  0  0  0
  -24.5801  -15.7979   20.5693 H   0  0  0  0  0  0
  -26.2231  -15.5781   20.1426 H   0  0  0  0  0  0
  -26.7084  -32.5499   23.1056 H   0  0  0  0  0  0
  -25.0100  -33.9756   25.0478 H   0  0  0  0  0  0
  -22.7003  -31.2897   21.4057 H   0  0  0  0  0  0
  -23.3790  -35.9551   23.3370 H   0  0  0  0  0  0
  -24.3567  -36.8775   22.2030 H   0  0  0  0  0  0
  -23.7224  -37.6471   23.6567 H   0  0  0  0  0  0
  -26.0679  -31.5727   20.6035 H   0  0  0  0  0  0
  -26.8282  -30.8612   21.9880 H   0  0  0  0  0  0
  -28.1052  -29.0415   21.1898 H   0  0  0  0  0  0
  -26.0317  -25.8861   19.0919 H   0  0  0  0  0  0
  -23.9985  -27.2534   19.0523 H   0  0  0  0  0  0
  -23.7164  -30.5580   19.3975 H   0  0  0  0  0  0
  -22.7513  -29.1994   19.8895 H   0  0  0  0  0  0
  -25.1333  -36.1978   25.0835 H   0  0  0  0  0  0
  -20.9939  -28.3236   24.1510 H   0  0  0  0  0  0
  -20.5781  -26.2251   23.3656 H   0  0  0  0  0  0
  -21.6654  -26.7521   22.1212 H   0  0  0  0  0  0
  -19.6934  -25.6332   21.1257 H   0  0  0  0  0  0
  -19.6696  -27.3257   20.6832 H   0  0  0  0  0  0
  -17.4234  -26.6733   21.3999 H   0  0  0  0  0  0
  -18.0261  -26.0060   22.9021 H   0  0  0  0  0  0
  -19.7899  -30.7299   24.2284 H   0  0  0  0  0  0
  -17.4968  -31.6278   24.5161 H   0  0  0  0  0  0
  -15.5333  -30.2975   23.7648 H   0  0  0  0  0  0
  -15.8668  -28.0816   22.7081 H   0  0  0  0  0  0
  -24.5855  -30.7116   25.7705 H   0  0  0  0  0  0
  -24.8961  -32.2888   26.4865 H   0  0  0  0  0  0
  -25.8072  -30.8818   27.0137 H   0  0  0  0  0  0
  -26.2761  -29.6811   24.1080 H   0  0  0  0  0  0
  -27.4015  -29.7199   25.4459 H   0  0  0  0  0  0
  -27.8615  -30.4292   23.9142 H   0  0  0  0  0  0
  -27.2696  -33.3588   26.1971 H   0  0  0  0  0  0
  -28.3821  -32.6887   25.0156 H   0  0  0  0  0  0
  -28.0765  -31.8402   26.5268 H   0  0  0  0  0  0
  -28.2687  -38.0040   24.7539 H   0  0  0  0  0  0
  -28.1059  -36.2607   24.6331 H   0  0  0  0  0  0
  -27.2314  -37.1479   25.8874 H   0  0  0  0  0  0
  -20.9384  -29.8558   21.6823 H   0  0  0  0  0  0
  -26.0238  -38.2875   24.1395 H   0  0  0  0  0  0
  -29.9118  -18.7149   20.8146 H   0  0  0  0  0  0
  -32.0825  -17.4868   25.0311 H   0  0  0  0  0  0
  -32.3337  -21.7347   21.2384 H   0  0  0  0  0  0
  -31.2739  -20.7857   20.2171 H   0  0  0  0  0  0
  -30.2876  -22.6032   19.4027 H   0  0  0  0  0  0
  -31.2672  -23.6740   20.3848 H   0  0  0  0  0  0
  -30.8904  -21.6219   23.0609 H   0  0  0  0  0  0
  -28.5347  -21.1534   21.2508 H   0  0  0  0  0  0
  -32.4064  -20.8054   24.6310 H   0  0  0  0  0  0
  -31.9540  -19.6111   25.8610 H   0  0  0  0  0  0
  -30.7344  -20.6694   25.1771 H   0  0  0  0  0  0
  -32.6227  -15.0227   23.4691 H   0  0  0  0  0  0
  -30.9234  -14.4812   23.4266 H   0  0  0  0  0  0
  -31.5835  -15.2443   24.8492 H   0  0  0  0  0  0
  -28.7432  -22.7048   23.9092 H   0  0  0  0  0  0
  -27.9603  -21.1374   23.7054 H   0  0  0  0  0  0
  -27.3031  -22.5563   22.9362 H   0  0  0  0  0  0
  -27.4502  -16.2471   20.3580 H   0  0  0  0  0  0
  -27.7190  -17.7354   19.4281 H   0  0  0  0  0  0
  -28.0538  -17.6364   21.1523 H   0  0  0  0  0  0
  -30.1065  -17.1908   19.3667 H   0  0  0  0  0  0
  -29.2700  -15.7197   19.0726 H   0  0  0  0  0  0
  -27.8646  -23.1873   19.8271 H   0  0  0  0  0  0
  -27.4596  -24.0804   21.2407 H   0  0  0  0  0  0
  -28.1545  -25.1761   18.7579 H   0  0  0  0  0  0
  -29.6830  -25.2060   19.4980 H   0  0  0  0  0  0
  -29.7496  -23.7272   21.9758 H   0  0  0  0  0  0
  1 25  1  0  0  0
  1 30  2  0  0  0
  1 88  1  0  0  0
  2  3  1  0  0  0
  2 25  1  0  0  0
  2 90  1  0  0  0
  2 91  1  0  0  0
  3  4  1  0  0  0
  3 92  1  0  0  0
  3 93  1  0  0  0
  4  5  1  0  0  0
  4 94  1  0  0  0
  4 95  1  0  0  0
  5  6  1  0  0  0
  5 26  1  0  0  0
  5 96  1  0  0  0
  6 25  1  0  0  0
  6 97  1  0  0  0
  6 98  1  0  0  0
  7  8  2  0  0  0
  7 26  1  0  0  0
  7 29  1  0  0  0
  8  9  1  0  0  0
  8 22  1  0  0  0
  9 10  1  0  0  0
  9 27  2  0  0  0
 10 11  2  0  0  0
 10 15  1  0  0  0
 11 12  1  0  0  0
 11 99  1  0  0  0
 12 13  2  0  0  0
 12100  1  0  0  0
 13 14  1  0  0  0
 13 31  1  0  0  0
 14 15  2  0  0  0
 14101  1  0  0  0
 15102  1  0  0  0
 16 17  2  0  0  0
 16 21  1  0  0  0
 16 31  1  0  0  0
 17 18  1  0  0  0
 17103  1  0  0  0
 18 19  2  0  0  0
 18104  1  0  0  0
 19 20  1  0  0  0
 19 24  1  0  0  0
 20 21  2  0  0  0
 20105  1  0  0  0
 21 23  1  0  0  0
 22 28  1  0  0  0
 22 32  2  0  0  0
 26 27  1  0  0  0
 28106  1  0  0  0
 28107  1  0  0  0
 29108  1  0  0  0
 29109  1  0  0  0
 33 34  1  0  0  0
 33 66  1  0  0  0
 33 70  2  0  0  0
 34 36  1  0  0  0
 34 59  1  0  0  0
 34110  1  0  0  0
 35 44  2  0  0  0
 35 45  1  0  0  0
 35 68  1  0  0  0
 36 56  1  0  0  0
 36111  1  0  0  0
 37 39  1  0  0  0
 37 47  1  0  0  0
 37 66  1  0  0  0
 37112  1  0  0  0
 38 43  2  0  0  0
 38 46  1  0  0  0
 38 47  1  0  0  0
 39 64  1  0  0  0
 39 67  2  0  0  0
 40 52  1  0  0  0
 40 53  2  0  0  0
 40 58  1  0  0  0
 41113  1  0  0  0
 41114  1  0  0  0
 41115  1  0  0  0
 41 48  1  0  0  0
 42 43  1  0  0  0
 42 66  1  0  0  0
 42116  1  0  0  0
 42117  1  0  0  0
 43 44  1  0  0  0
 44118  1  0  0  0
 45 46  2  0  0  0
 45119  1  0  0  0
 46120  1  0  0  0
 47121  1  0  0  0
 47122  1  0  0  0
 48 56  1  0  0  0
 48 65  1  0  0  0
 48123  1  0  0  0
 49 50  1  0  0  0
 49 53  1  0  0  0
 49 64  1  0  0  0
 49124  1  0  0  0
 50 51  1  0  0  0
 50125  1  0  0  0
 50126  1  0  0  0
 51 52  1  0  0  0
 51127  1  0  0  0
 51128  1  0  0  0
 52129  1  0  0  0
 52130  1  0  0  0
 53 54  1  0  0  0
 54 55  2  0  0  0
 54131  1  0  0  0
 55 57  1  0  0  0
 55132  1  0  0  0
 56 69  2  0  0  0
 57 58  2  0  0  0
 57133  1  0  0  0
 58134  1  0  0  0
 59 60  1  0  0  0
 59 61  1  0  0  0
 59 62  1  0  0  0
 60135  1  0  0  0
 60136  1  0  0  0
 60137  1  0  0  0
 61138  1  0  0  0
 61139  1  0  0  0
 61140  1  0  0  0
 62141  1  0  0  0
 62142  1  0  0  0
 62143  1  0  0  0
 63 65  1  0  0  0
 63144  1  0  0  0
 63145  1  0  0  0
 63146  1  0  0  0
 64147  1  0  0  0
 65148  1  0  0  0
 68 87  1  0  0  0
 71 73  2  0  0  0
 71 76  1  0  0  0
 71149  1  0  0  0
 72 74  2  0  0  0
 72 75  1  0  0  0
 72150  1  0  0  0
 73 74  1  0  0  0
 73 79  1  0  0  0
 74 81  1  0  0  0
 75 76  2  0  0  0
 75 82  1  0  0  0
 76 88  1  0  0  0
 77 78  1  0  0  0
 77 79  1  0  0  0
 77151  1  0  0  0
 77152  1  0  0  0
 78 89  1  0  0  0
 78153  1  0  0  0
 78154  1  0  0  0
 79 80  1  0  0  0
 79155  1  0  0  0
 80 83  1  0  0  0
 80 89  1  0  0  0
 80156  1  0  0  0
 81157  1  0  0  0
 81158  1  0  0  0
 81159  1  0  0  0
 82160  1  0  0  0
 82161  1  0  0  0
 82162  1  0  0  0
 83163  1  0  0  0
 83164  1  0  0  0
 83165  1  0  0  0
 84 85  1  0  0  0
 84166  1  0  0  0
 84167  1  0  0  0
 84168  1  0  0  0
 85 88  1  0  0  0
 85169  1  0  0  0
 85170  1  0  0  0
 86 87  1  0  0  0
 86171  1  0  0  0
 86172  1  0  0  0
 86 89  1  0  0  0
 87173  1  0  0  0
 87174  1  0  0  0
 89175  1  0  0  0
M  CHG  1  89   1
M  ISO  4   1 100  68 101  87 101  88 100
M  END
> <chiral flag>
0

> <version>
0

> <s_m_source_file>
/data/baiqing/PycharmProjects/Reinvent-master-3.2/result/LINK_invent/BTK/process_docking_weight1_custom_sum_contain_oxygen_bond_distance_aromatic_linkinvent_7_9_3/rearranged_h_0159.sdf

> <i_m_source_file_index>
80

> <r_mmod_Potential_Energy-OPLS-2005>
396.979064941406

> <r_mmod_Stretch_Energy-OPLS-2005>
133.155868530273

> <r_mmod_Bend_Energy-OPLS-2005>
249.910354614258

> <r_mmod_Torsional_Energy-OPLS-2005>
353.47998046875

> <r_mmod_Improper_Torsional_Energy-OPLS-2005>
12.2330913543701

> <r_mmod_Van_der_Waal_Energy-OPLS-2005>
159.383056640625

> <r_mmod_Electrostatic_Energy-OPLS-2005>
-173.277709960938

> <r_mmod_Solvation_Energy-OPLS-2005>
-405.672180175781

> <b_mmod_Minimization_Converged-OPLS-2005>
0

> <r_mmod_RMS_Derivative-OPLS-2005>
10.3182640075684

$$$$
80
                    3D
 Structure written by MMmdl.
174184  0  0  1  0            999 V2000
  -30.6587  -14.7977   20.4085 C   0  0  0  0  0  0
  -30.4120  -12.4962   19.4579 C   0  0  0  0  0  0
  -29.4953  -12.5042   18.2206 C   0  0  0  0  0  0
  -28.0259  -12.3309   18.6486 C   0  0  0  0  0  0
  -27.6271  -13.2533   19.8330 C   0  0  2  0  0  0
  -28.6827  -13.2676   20.9566 C   0  0  0  0  0  0
  -25.2459  -13.8232   20.5795 C   0  0  0  0  0  0
  -24.1777  -13.0434   20.9253 C   0  0  0  0  0  0
  -24.6403  -11.6929   20.8763 C   0  0  0  0  0  0
  -23.9091  -10.4300   21.0406 C   0  0  0  0  0  0
  -24.3657   -9.4195   21.9151 C   0  0  0  0  0  0
  -23.6319   -8.2237   22.0715 C   0  0  0  0  0  0
  -22.4283   -8.0296   21.3535 C   0  0  0  0  0  0
  -21.9932   -9.0280   20.4645 C   0  0  0  0  0  0
  -22.7253  -10.2161   20.3061 C   0  0  0  0  0  0
  -21.6855   -6.0746   22.5275 C   0  0  0  0  0  0
  -21.4041   -6.5657   23.8208 C   0  0  0  0  0  0
  -21.3687   -5.6816   24.9181 C   0  0  0  0  0  0
  -21.6051   -4.3070   24.7235 C   0  0  0  0  0  0
  -21.8810   -3.8153   23.4358 C   0  0  0  0  0  0
  -21.9182   -4.6966   22.3406 C   0  0  0  0  0  0
  -22.7795  -13.5197   21.1883 C   0  0  0  0  0  0
  -22.1640   -4.2146   21.0979 F   0  0  0  0  0  0
  -21.5618   -3.4558   25.7742 F   0  0  0  0  0  0
  -29.9598  -13.6103   20.3257 N   0  0  0  0  0  0
  -26.2890  -12.9498   20.3292 N   0  0  0  0  0  0
  -25.9344  -11.6605   20.5772 N   0  0  0  0  0  0
  -22.0437  -12.8141   22.0394 N   0  0  0  0  0  0
  -25.4042  -15.1964   20.4339 N   0  0  0  0  0  0
  -31.8864  -14.7290   20.2941 O   0  0  0  0  0  0
  -21.6642   -6.8892   21.4232 O   0  0  0  0  0  0
  -22.3477  -14.5515   20.6741 O   0  0  0  0  0  0
  -24.6332  -31.8509   23.1932 C   0  0  0  0  0  0
  -25.9141  -32.4731   23.8284 C   0  0  1  0  0  0
  -27.2180  -27.2212   20.1254 C   0  0  0  0  0  0
  -25.5916  -33.8532   24.2210 N   0  0  0  0  0  0
  -23.4309  -30.4716   21.5398 C   0  0  2  0  0  0
  -24.8768  -28.9091   20.1094 C   0  0  0  0  0  0
  -22.7504  -29.4577   22.4914 C   0  0  0  0  0  0
  -18.0292  -28.1381   22.8486 C   0  0  0  0  0  0
  -24.1497  -36.7281   23.2640 C   0  0  0  0  0  0
  -25.9799  -30.7507   21.3769 C   0  0  0  0  0  0
  -26.0494  -29.3696   20.7191 C   0  0  0  0  0  0
  -27.2175  -28.5368   20.7168 C   0  0  0  0  0  0
  -26.0163  -26.8315   19.4950 C   0  0  0  0  0  0
  -24.8676  -27.6501   19.4880 C   0  0  0  0  0  0
  -23.6477  -29.7984   20.1575 C   0  0  0  0  0  0
  -25.4125  -36.3056   24.0314 C   0  0  1  0  0  0
  -20.5897  -28.3694   23.1279 C   0  0  2  0  0  0
  -20.6784  -26.9411   22.5418 C   0  0  0  0  0  0
  -19.5756  -26.6379   21.5225 C   0  0  0  0  0  0
  -18.1935  -26.7920   22.1637 C   0  0  0  0  0  0
  -19.1543  -28.8857   23.2874 C   0  0  0  0  0  0
  -18.9464  -30.1458   23.8889 C   0  0  0  0  0  0
  -17.6459  -30.6586   24.0559 C   0  0  0  0  0  0
  -25.9063  -34.9427   23.5074 C   0  0  0  0  0  0
  -16.5353  -29.9076   23.6331 C   0  0  0  0  0  0
  -16.7276  -28.6493   23.0358 C   0  0  0  0  0  0
  -26.4499  -31.6571   25.0687 C   0  0  0  0  0  0
  -25.3699  -31.3746   26.1394 C   0  0  0  0  0  0
  -27.0355  -30.2980   24.6198 C   0  0  0  0  0  0
  -27.6038  -32.4329   25.7459 C   0  0  0  0  0  0
  -27.5578  -37.1799   24.8456 C   0  0  0  0  0  0
  -21.4211  -29.3028   22.3656 N   0  0  0  0  0  0
  -26.4295  -37.3760   23.9394 N   0  0  0  0  0  0
  -24.7013  -31.0431   22.0927 N   0  0  0  0  0  0
  -23.4194  -28.8129   23.3034 O   0  0  0  0  0  0
  -28.3274  -26.3360   20.2073 O   0  0  0  0  0  0
  -26.5662  -34.8914   22.4662 O   0  0  0  0  0  0
  -23.5478  -32.1339   23.7226 O   0  0  0  0  0  0
  -25.6828  -18.9521   19.0982 C   0  0  0  0  0  0
  -28.0368  -19.3831   19.7374 C   0  0  0  0  0  0
  -25.4188  -20.3106   18.9849 C   0  0  0  0  0  0
  -27.7693  -20.8578   19.6240 C   0  0  0  0  0  0
  -26.4777  -21.2356   19.1144 C   0  0  0  0  0  0
  -26.9822  -18.4994   19.3475 C   0  0  0  0  0  0
  -27.2593  -23.5071   21.6187 C   0  0  0  0  0  0
  -28.6976  -23.7115   21.9667 C   0  0  0  0  0  0
  -30.1067  -18.1838   18.7694 C   0  0  0  0  0  0
  -30.7294  -16.7809   18.9508 C   0  0  0  0  0  0
  -29.3851  -17.1226   20.8199 C   0  0  0  0  0  0
  -29.3881  -18.5758   20.0622 C   0  0  2  0  0  0
  -28.2994  -23.5433   20.5078 C   0  0  0  0  0  0
  -23.9998  -20.7295   18.6261 C   0  0  0  0  0  0
  -26.2120  -22.6300   18.5581 C   0  0  0  0  0  0
  -26.8650  -16.6756   17.8484 C   0  0  0  0  0  0
  -28.7641  -22.1081   19.8450 C   0  0  0  0  0  0
  -28.3916  -24.9227   19.6449 C   0  0  0  0  0  0
  -30.0504  -16.0116   20.0182 N   0  0  0  0  0  0
  -27.2161  -17.1594   19.1438 O   0  0  0  0  0  0
  -31.4525  -12.5979   19.1447 H   0  0  0  0  0  0
  -30.3464  -11.5430   19.9850 H   0  0  0  0  0  0
  -29.7808  -11.7095   17.5296 H   0  0  0  0  0  0
  -29.6129  -13.4435   17.6776 H   0  0  0  0  0  0
  -27.8920  -11.2867   18.9351 H   0  0  0  0  0  0
  -27.3619  -12.5002   17.8006 H   0  0  0  0  0  0
  -27.5926  -14.2620   19.4228 H   0  0  0  0  0  0
  -28.7387  -12.3029   21.4619 H   0  0  0  0  0  0
  -28.4243  -14.0097   21.7139 H   0  0  0  0  0  0
  -25.2836   -9.5631   22.4686 H   0  0  0  0  0  0
  -24.0050   -7.4587   22.7369 H   0  0  0  0  0  0
  -21.0859   -8.8814   19.8955 H   0  0  0  0  0  0
  -22.3707  -10.9715   19.6175 H   0  0  0  0  0  0
  -21.2052   -7.6165   23.9709 H   0  0  0  0  0  0
  -21.1529   -6.0565   25.9083 H   0  0  0  0  0  0
  -22.0569   -2.7610   23.2877 H   0  0  0  0  0  0
  -22.4076  -11.9792   22.4734 H   0  0  0  0  0  0
  -21.1043  -13.1116   22.2585 H   0  0  0  0  0  0
  -24.6307  -15.8359   20.5686 H   0  0  0  0  0  0
  -26.2465  -15.6661   20.1169 H   0  0  0  0  0  0
  -26.7192  -32.5362   23.1008 H   0  0  0  0  0  0
  -24.9996  -33.9655   25.0310 H   0  0  0  0  0  0
  -22.7284  -31.2943   21.3910 H   0  0  0  0  0  0
  -23.3752  -35.9619   23.3296 H   0  0  0  0  0  0
  -24.3579  -36.8916   22.2052 H   0  0  0  0  0  0
  -23.7266  -37.6483   23.6679 H   0  0  0  0  0  0
  -26.1212  -31.5079   20.6042 H   0  0  0  0  0  0
  -26.8571  -30.8022   22.0107 H   0  0  0  0  0  0
  -28.1138  -28.8838   21.2118 H   0  0  0  0  0  0
  -25.9217  -25.8643   19.0280 H   0  0  0  0  0  0
  -23.9656  -27.2897   19.0140 H   0  0  0  0  0  0
  -23.7654  -30.5700   19.3958 H   0  0  0  0  0  0
  -22.7654  -29.2265   19.8621 H   0  0  0  0  0  0
  -25.1324  -36.1888   25.0807 H   0  0  0  0  0  0
  -20.9989  -28.3272   24.1402 H   0  0  0  0  0  0
  -20.5701  -26.2301   23.3624 H   0  0  0  0  0  0
  -21.6652  -26.7442   22.1207 H   0  0  0  0  0  0
  -19.6918  -25.6291   21.1251 H   0  0  0  0  0  0
  -19.6693  -27.3197   20.6760 H   0  0  0  0  0  0
  -17.4212  -26.6669   21.4034 H   0  0  0  0  0  0
  -18.0327  -26.0069   22.9041 H   0  0  0  0  0  0
  -19.7940  -30.7279   24.2254 H   0  0  0  0  0  0
  -17.5013  -31.6268   24.5159 H   0  0  0  0  0  0
  -15.5350  -30.2979   23.7657 H   0  0  0  0  0  0
  -15.8678  -28.0807   22.7082 H   0  0  0  0  0  0
  -24.5861  -30.7117   25.7707 H   0  0  0  0  0  0
  -24.8909  -32.2937   26.4778 H   0  0  0  0  0  0
  -25.7981  -30.8926   27.0190 H   0  0  0  0  0  0
  -26.2966  -29.6729   24.1169 H   0  0  0  0  0  0
  -27.3974  -29.7233   25.4733 H   0  0  0  0  0  0
  -27.8865  -30.4244   23.9498 H   0  0  0  0  0  0
  -27.2621  -33.3627   26.2016 H   0  0  0  0  0  0
  -28.3849  -32.6893   25.0288 H   0  0  0  0  0  0
  -28.0709  -31.8470   26.5385 H   0  0  0  0  0  0
  -28.2600  -38.0094   24.7506 H   0  0  0  0  0  0
  -28.1080  -36.2625   24.6298 H   0  0  0  0  0  0
  -27.2289  -37.1462   25.8858 H   0  0  0  0  0  0
  -20.9396  -29.8716   21.6831 H   0  0  0  0  0  0
  -26.0166  -38.2833   24.1384 H   0  0  0  0  0  0
  -24.8926  -18.2419   18.8988 H   0  0  0  0  0  0
  -26.5933  -24.3628   21.7136 H   0  0  0  0  0  0
  -26.8143  -22.5445   21.8640 H   0  0  0  0  0  0
  -29.2101  -22.8875   22.4598 H   0  0  0  0  0  0
  -28.9986  -24.7039   22.2981 H   0  0  0  0  0  0
  -29.3948  -18.1281   17.9461 H   0  0  0  0  0  0
  -30.8445  -18.9315   18.4761 H   0  0  0  0  0  0
  -31.7808  -16.9245   19.2097 H   0  0  0  0  0  0
  -30.7111  -16.2254   18.0118 H   0  0  0  0  0  0
  -28.3956  -16.8155   21.1556 H   0  0  0  0  0  0
  -29.9551  -17.2262   21.7447 H   0  0  0  0  0  0
  -30.0325  -19.2437   20.6346 H   0  0  0  0  0  0
  -23.9052  -20.8788   17.5498 H   0  0  0  0  0  0
  -23.7178  -21.6527   19.1333 H   0  0  0  0  0  0
  -23.2770  -19.9680   18.9212 H   0  0  0  0  0  0
  -25.9088  -23.3318   19.3323 H   0  0  0  0  0  0
  -27.0912  -22.9860   18.0271 H   0  0  0  0  0  0
  -25.4327  -22.6409   17.7985 H   0  0  0  0  0  0
  -27.4452  -15.7814   17.6231 H   0  0  0  0  0  0
  -27.0780  -17.4075   17.0672 H   0  0  0  0  0  0
  -25.8089  -16.4087   17.7960 H   0  0  0  0  0  0
  -29.2152  -22.3261   18.8764 H   0  0  0  0  0  0
  -29.5922  -21.7269   20.4417 H   0  0  0  0  0  0
  -27.7397  -24.8612   18.7811 H   0  0  0  0  0  0
  -29.3817  -24.8886   19.1904 H   0  0  0  0  0  0
  1 25  1  0  0  0
  1 30  2  0  0  0
  1 89  1  0  0  0
  2  3  1  0  0  0
  2 25  1  0  0  0
  2 91  1  0  0  0
  2 92  1  0  0  0
  3  4  1  0  0  0
  3 93  1  0  0  0
  3 94  1  0  0  0
  4  5  1  0  0  0
  4 95  1  0  0  0
  4 96  1  0  0  0
  5  6  1  0  0  0
  5 26  1  0  0  0
  5 97  1  0  0  0
  6 25  1  0  0  0
  6 98  1  0  0  0
  6 99  1  0  0  0
  7  8  2  0  0  0
  7 26  1  0  0  0
  7 29  1  0  0  0
  8  9  1  0  0  0
  8 22  1  0  0  0
  9 10  1  0  0  0
  9 27  2  0  0  0
 10 11  2  0  0  0
 10 15  1  0  0  0
 11 12  1  0  0  0
 11100  1  0  0  0
 12 13  2  0  0  0
 12101  1  0  0  0
 13 14  1  0  0  0
 13 31  1  0  0  0
 14 15  2  0  0  0
 14102  1  0  0  0
 15103  1  0  0  0
 16 17  2  0  0  0
 16 21  1  0  0  0
 16 31  1  0  0  0
 17 18  1  0  0  0
 17104  1  0  0  0
 18 19  2  0  0  0
 18105  1  0  0  0
 19 20  1  0  0  0
 19 24  1  0  0  0
 20 21  2  0  0  0
 20106  1  0  0  0
 21 23  1  0  0  0
 22 28  1  0  0  0
 22 32  2  0  0  0
 26 27  1  0  0  0
 28107  1  0  0  0
 28108  1  0  0  0
 29109  1  0  0  0
 29110  1  0  0  0
 33 34  1  0  0  0
 33 66  1  0  0  0
 33 70  2  0  0  0
 34 36  1  0  0  0
 34 59  1  0  0  0
 34111  1  0  0  0
 35 44  2  0  0  0
 35 45  1  0  0  0
 35 68  1  0  0  0
 36 56  1  0  0  0
 36112  1  0  0  0
 37 39  1  0  0  0
 37 47  1  0  0  0
 37 66  1  0  0  0
 37113  1  0  0  0
 38 43  2  0  0  0
 38 46  1  0  0  0
 38 47  1  0  0  0
 39 64  1  0  0  0
 39 67  2  0  0  0
 40 52  1  0  0  0
 40 53  2  0  0  0
 40 58  1  0  0  0
 41114  1  0  0  0
 41115  1  0  0  0
 41116  1  0  0  0
 41 48  1  0  0  0
 42 43  1  0  0  0
 42 66  1  0  0  0
 42117  1  0  0  0
 42118  1  0  0  0
 43 44  1  0  0  0
 44119  1  0  0  0
 45 46  2  0  0  0
 45120  1  0  0  0
 46121  1  0  0  0
 47122  1  0  0  0
 47123  1  0  0  0
 48 56  1  0  0  0
 48 65  1  0  0  0
 48124  1  0  0  0
 49 50  1  0  0  0
 49 53  1  0  0  0
 49 64  1  0  0  0
 49125  1  0  0  0
 50 51  1  0  0  0
 50126  1  0  0  0
 50127  1  0  0  0
 51 52  1  0  0  0
 51128  1  0  0  0
 51129  1  0  0  0
 52130  1  0  0  0
 52131  1  0  0  0
 53 54  1  0  0  0
 54 55  2  0  0  0
 54132  1  0  0  0
 55 57  1  0  0  0
 55133  1  0  0  0
 56 69  2  0  0  0
 57 58  2  0  0  0
 57134  1  0  0  0
 58135  1  0  0  0
 59 60  1  0  0  0
 59 61  1  0  0  0
 59 62  1  0  0  0
 60136  1  0  0  0
 60137  1  0  0  0
 60138  1  0  0  0
 61139  1  0  0  0
 61140  1  0  0  0
 61141  1  0  0  0
 62142  1  0  0  0
 62143  1  0  0  0
 62144  1  0  0  0
 63 65  1  0  0  0
 63145  1  0  0  0
 63146  1  0  0  0
 63147  1  0  0  0
 64148  1  0  0  0
 65149  1  0  0  0
 68 88  1  0  0  0
 71 73  2  0  0  0
 71 76  1  0  0  0
 71150  1  0  0  0
 72 74  1  0  0  0
 72 76  2  0  0  0
 72 82  1  0  0  0
 73 75  1  0  0  0
 73 84  1  0  0  0
 74 75  2  0  0  0
 74 87  1  0  0  0
 75 85  1  0  0  0
 76 90  1  0  0  0
 77 78  1  0  0  0
 77 83  1  0  0  0
 77151  1  0  0  0
 77152  1  0  0  0
 78 83  1  0  0  0
 78153  1  0  0  0
 78154  1  0  0  0
 79 80  1  0  0  0
 79 82  1  0  0  0
 79155  1  0  0  0
 79156  1  0  0  0
 80 89  1  0  0  0
 80157  1  0  0  0
 80158  1  0  0  0
 81 82  1  0  0  0
 81 89  1  0  0  0
 81159  1  0  0  0
 81160  1  0  0  0
 82161  1  0  0  0
 83 87  1  0  0  0
 83 88  1  0  0  0
 84162  1  0  0  0
 84163  1  0  0  0
 84164  1  0  0  0
 85165  1  0  0  0
 85166  1  0  0  0
 85167  1  0  0  0
 86 90  1  0  0  0
 86168  1  0  0  0
 86169  1  0  0  0
 86170  1  0  0  0
 87171  1  0  0  0
 87172  1  0  0  0
 88173  1  0  0  0
 88174  1  0  0  0
M  ISO  4   1 100  68 101  88 101  89 100
M  END
> <chiral flag>
0

> <version>
0

> <s_m_source_file>
/data/baiqing/PycharmProjects/Reinvent-master-3.2/result/LINK_invent/BTK/process_docking_weight1_custom_sum_contain_oxygen_bond_distance_aromatic_linkinvent_7_9_3/rearranged_h_0159.sdf

> <i_m_source_file_index>
81

> <r_mmod_Potential_Energy-OPLS-2005>
670.84716796875

> <r_mmod_Stretch_Energy-OPLS-2005>
191.654220581055

> <r_mmod_Bend_Energy-OPLS-2005>
269.388824462891

> <r_mmod_Torsional_Energy-OPLS-2005>
431.358062744141

> <r_mmod_Improper_Torsional_Energy-OPLS-2005>
26.8258533477783

> <r_mmod_Van_der_Waal_Energy-OPLS-2005>
147.313720703125

> <r_mmod_Electrostatic_Energy-OPLS-2005>
-330.978942871094

> <r_mmod_Solvation_Energy-OPLS-2005>
-184.149032592773

> <b_mmod_Minimization_Converged-OPLS-2005>
0

> <r_mmod_RMS_Derivative-OPLS-2005>
1.8823174238205

$$$$
81
                    3D
 Structure written by MMmdl.
173183  0  0  1  0            999 V2000
  -30.6042  -14.7188   20.4466 C   0  0  0  0  0  0
  -30.4325  -12.4360   19.4573 C   0  0  0  0  0  0
  -29.5044  -12.4947   18.2247 C   0  0  0  0  0  0
  -28.0299  -12.3292   18.6414 C   0  0  0  0  0  0
  -27.6423  -13.2264   19.8469 C   0  0  2  0  0  0
  -28.6880  -13.1461   20.9789 C   0  0  0  0  0  0
  -25.2542  -13.8189   20.5709 C   0  0  0  0  0  0
  -24.1826  -13.0434   20.9204 C   0  0  0  0  0  0
  -24.6413  -11.6913   20.8750 C   0  0  0  0  0  0
  -23.9086  -10.4292   21.0418 C   0  0  0  0  0  0
  -24.3642   -9.4208   21.9192 C   0  0  0  0  0  0
  -23.6311   -8.2246   22.0757 C   0  0  0  0  0  0
  -22.4289   -8.0288   21.3541 C   0  0  0  0  0  0
  -21.9931   -9.0261   20.4643 C   0  0  0  0  0  0
  -22.7264  -10.2133   20.3057 C   0  0  0  0  0  0
  -21.6850   -6.0752   22.5285 C   0  0  0  0  0  0
  -21.3994   -6.5650   23.8220 C   0  0  0  0  0  0
  -21.3647   -5.6797   24.9175 C   0  0  0  0  0  0
  -21.6037   -4.3061   24.7220 C   0  0  0  0  0  0
  -21.8827   -3.8156   23.4345 C   0  0  0  0  0  0
  -21.9199   -4.6979   22.3403 C   0  0  0  0  0  0
  -22.7847  -13.5222   21.1860 C   0  0  0  0  0  0
  -22.1670   -4.2170   21.0985 F   0  0  0  0  0  0
  -21.5631   -3.4543   25.7731 F   0  0  0  0  0  0
  -29.9872  -13.4924   20.3927 N   0  0  0  0  0  0
  -26.2956  -12.9384   20.3263 N   0  0  0  0  0  0
  -25.9339  -11.6526   20.5746 N   0  0  0  0  0  0
  -22.0491  -12.8198   22.0405 N   0  0  0  0  0  0
  -25.4225  -15.1925   20.4174 N   0  0  0  0  0  0
  -31.7981  -14.8218   20.1530 O   0  0  0  0  0  0
  -21.6638   -6.8896   21.4251 O   0  0  0  0  0  0
  -22.3523  -14.5538   20.6732 O   0  0  0  0  0  0
  -24.6324  -31.8542   23.1992 C   0  0  0  0  0  0
  -25.9152  -32.4741   23.8322 C   0  0  1  0  0  0
  -27.2085  -27.2665   20.1271 C   0  0  0  0  0  0
  -25.5952  -33.8548   24.2259 N   0  0  0  0  0  0
  -23.4243  -30.4787   21.5419 C   0  0  2  0  0  0
  -24.8684  -28.9203   20.1148 C   0  0  0  0  0  0
  -22.7483  -29.4599   22.4910 C   0  0  0  0  0  0
  -18.0275  -28.1391   22.8472 C   0  0  0  0  0  0
  -24.1474  -36.7239   23.2645 C   0  0  0  0  0  0
  -25.9713  -30.7694   21.3740 C   0  0  0  0  0  0
  -26.0421  -29.3908   20.7188 C   0  0  0  0  0  0
  -27.2202  -28.5783   20.7079 C   0  0  0  0  0  0
  -26.0142  -26.8544   19.5044 C   0  0  0  0  0  0
  -24.8589  -27.6601   19.4960 C   0  0  0  0  0  0
  -23.6427  -29.8112   20.1585 C   0  0  0  0  0  0
  -25.4099  -36.3036   24.0334 C   0  0  1  0  0  0
  -20.5884  -28.3683   23.1263 C   0  0  2  0  0  0
  -20.6763  -26.9405   22.5394 C   0  0  0  0  0  0
  -19.5754  -26.6381   21.5198 C   0  0  0  0  0  0
  -18.1923  -26.7944   22.1592 C   0  0  0  0  0  0
  -19.1535  -28.8848   23.2871 C   0  0  0  0  0  0
  -18.9482  -30.1449   23.8887 C   0  0  0  0  0  0
  -17.6486  -30.6595   24.0563 C   0  0  0  0  0  0
  -25.9044  -34.9425   23.5082 C   0  0  0  0  0  0
  -16.5362  -29.9093   23.6347 C   0  0  0  0  0  0
  -16.7263  -28.6510   23.0362 C   0  0  0  0  0  0
  -26.4526  -31.6559   25.0701 C   0  0  0  0  0  0
  -25.3765  -31.3706   26.1426 C   0  0  0  0  0  0
  -27.0371  -30.2982   24.6150 C   0  0  0  0  0  0
  -27.6069  -32.4302   25.7502 C   0  0  0  0  0  0
  -27.5561  -37.1770   24.8480 C   0  0  0  0  0  0
  -21.4191  -29.3040   22.3664 N   0  0  0  0  0  0
  -26.4260  -37.3748   23.9437 N   0  0  0  0  0  0
  -24.6956  -31.0512   22.0943 N   0  0  0  0  0  0
  -23.4209  -28.8122   23.2980 O   0  0  0  0  0  0
  -28.3062  -26.3855   20.1093 O   0  0  0  0  0  0
  -26.5611  -34.8910   22.4650 O   0  0  0  0  0  0
  -23.5474  -32.1354   23.7295 O   0  0  0  0  0  0
  -27.8266  -19.5237   18.2795 C   0  0  0  0  0  0
  -27.9603  -20.7969   18.9105 C   0  0  0  0  0  0
  -29.4041  -19.6841   20.5367 C   0  0  0  0  0  0
  -28.7549  -20.9077   20.0847 C   0  0  0  0  0  0
  -29.2833  -18.4221   19.8887 C   0  0  0  0  0  0
  -28.4628  -18.3447   18.7442 C   0  0  0  0  0  0
  -30.3344  -19.5128   21.7186 C   0  0  0  0  0  0
  -30.5835  -17.9741   21.8435 C   0  0  0  0  0  0
  -28.8181  -22.3093   20.8138 C   0  0  1  0  0  0
  -30.2145  -17.3113   20.4928 C   0  0  1  0  0  0
  -28.4056  -23.6052   19.9416 C   0  0  2  0  0  0
  -27.2919  -22.0406   18.2597 C   0  0  0  0  0  0
  -28.2652  -17.0529   17.9684 C   0  0  0  0  0  0
  -27.9674  -22.2319   22.0988 C   0  0  0  0  0  0
  -25.8447  -21.7138   17.8190 C   0  0  0  0  0  0
  -28.0935  -22.4241   16.9986 C   0  0  0  0  0  0
  -28.1656  -25.0214   20.7178 C   0  0  0  0  0  0
  -29.8139  -15.8444   20.6101 N   0  0  0  0  0  0
  -27.1953  -23.2217   19.1690 N   0  3  0  0  0  0
  -31.4723  -12.5643   19.1510 H   0  0  0  0  0  0
  -30.3795  -11.4557   19.9341 H   0  0  0  0  0  0
  -29.7792  -11.7185   17.5092 H   0  0  0  0  0  0
  -29.6359  -13.4467   17.7058 H   0  0  0  0  0  0
  -27.8798  -11.2803   18.8984 H   0  0  0  0  0  0
  -27.3722  -12.5281   17.7943 H   0  0  0  0  0  0
  -27.6386  -14.2498   19.4692 H   0  0  0  0  0  0
  -28.7204  -12.1456   21.4113 H   0  0  0  0  0  0
  -28.4324  -13.8248   21.7937 H   0  0  0  0  0  0
  -25.2799   -9.5674   22.4754 H   0  0  0  0  0  0
  -24.0015   -7.4639   22.7480 H   0  0  0  0  0  0
  -21.0858   -8.8790   19.8945 H   0  0  0  0  0  0
  -22.3749  -10.9675   19.6158 H   0  0  0  0  0  0
  -21.1963   -7.6155   23.9724 H   0  0  0  0  0  0
  -21.1449   -6.0521   25.9076 H   0  0  0  0  0  0
  -22.0614   -2.7620   23.2836 H   0  0  0  0  0  0
  -22.4096  -11.9837   22.4761 H   0  0  0  0  0  0
  -21.1113  -13.1214   22.2623 H   0  0  0  0  0  0
  -24.6534  -15.8408   20.5454 H   0  0  0  0  0  0
  -26.2724  -15.6453   20.1113 H   0  0  0  0  0  0
  -26.7208  -32.5384   23.1051 H   0  0  0  0  0  0
  -25.0177  -33.9703   25.0455 H   0  0  0  0  0  0
  -22.7183  -31.2995   21.3935 H   0  0  0  0  0  0
  -23.3767  -35.9544   23.3286 H   0  0  0  0  0  0
  -24.3538  -36.8861   22.2060 H   0  0  0  0  0  0
  -23.7204  -37.6422   23.6672 H   0  0  0  0  0  0
  -26.1058  -31.5289   20.6029 H   0  0  0  0  0  0
  -26.8528  -30.8190   22.0006 H   0  0  0  0  0  0
  -28.1241  -28.9393   21.1782 H   0  0  0  0  0  0
  -25.9613  -25.8927   19.0190 H   0  0  0  0  0  0
  -23.9591  -27.2974   19.0165 H   0  0  0  0  0  0
  -23.7731  -30.5881   19.4043 H   0  0  0  0  0  0
  -22.7605  -29.2491   19.8477 H   0  0  0  0  0  0
  -25.1281  -36.1856   25.0828 H   0  0  0  0  0  0
  -20.9955  -28.3252   24.1396 H   0  0  0  0  0  0
  -20.5636  -26.2297   23.3594 H   0  0  0  0  0  0
  -21.6635  -26.7410   22.1200 H   0  0  0  0  0  0
  -19.6919  -25.6292   21.1228 H   0  0  0  0  0  0
  -19.6727  -27.3178   20.6732 H   0  0  0  0  0  0
  -17.4198  -26.6690   21.3993 H   0  0  0  0  0  0
  -18.0310  -26.0079   22.8981 H   0  0  0  0  0  0
  -19.7970  -30.7254   24.2244 H   0  0  0  0  0  0
  -17.5062  -31.6289   24.5154 H   0  0  0  0  0  0
  -15.5370  -30.3012   23.7710 H   0  0  0  0  0  0
  -15.8643  -28.0842   22.7102 H   0  0  0  0  0  0
  -24.5974  -30.7000   25.7777 H   0  0  0  0  0  0
  -24.8943  -32.2888   26.4793 H   0  0  0  0  0  0
  -25.8117  -30.8954   27.0233 H   0  0  0  0  0  0
  -26.2939  -29.6710   24.1212 H   0  0  0  0  0  0
  -27.4139  -29.7224   25.4617 H   0  0  0  0  0  0
  -27.8770  -30.4261   23.9320 H   0  0  0  0  0  0
  -27.2670  -33.3653   26.1970 H   0  0  0  0  0  0
  -28.3971  -32.6755   25.0393 H   0  0  0  0  0  0
  -28.0621  -31.8488   26.5526 H   0  0  0  0  0  0
  -28.2554  -38.0086   24.7499 H   0  0  0  0  0  0
  -28.1066  -36.2602   24.6314 H   0  0  0  0  0  0
  -27.2272  -37.1405   25.8882 H   0  0  0  0  0  0
  -20.9354  -29.8800   21.6916 H   0  0  0  0  0  0
  -26.0122  -38.2806   24.1481 H   0  0  0  0  0  0
  -27.2408  -19.4392   17.3766 H   0  0  0  0  0  0
  -29.9220  -19.9222   22.6392 H   0  0  0  0  0  0
  -31.2672  -20.0374   21.5071 H   0  0  0  0  0  0
  -29.8926  -17.5993   22.6000 H   0  0  0  0  0  0
  -31.5885  -17.7287   22.1872 H   0  0  0  0  0  0
  -29.8557  -22.4462   21.1225 H   0  0  0  0  0  0
  -31.1027  -17.3432   19.8583 H   0  0  0  0  0  0
  -29.2132  -23.7797   19.2307 H   0  0  0  0  0  0
  -28.2124  -17.2547   16.8986 H   0  0  0  0  0  0
  -27.3289  -16.5756   18.2590 H   0  0  0  0  0  0
  -29.0777  -16.3453   18.1209 H   0  0  0  0  0  0
  -26.9052  -22.1444   21.8746 H   0  0  0  0  0  0
  -28.1057  -23.1093   22.7307 H   0  0  0  0  0  0
  -28.2333  -21.3696   22.7066 H   0  0  0  0  0  0
  -25.8024  -20.9704   17.0244 H   0  0  0  0  0  0
  -25.3388  -22.5956   17.4240 H   0  0  0  0  0  0
  -25.2465  -21.3358   18.6497 H   0  0  0  0  0  0
  -28.1021  -21.6081   16.2751 H   0  0  0  0  0  0
  -29.1345  -22.6490   17.2254 H   0  0  0  0  0  0
  -27.6657  -23.2903   16.4930 H   0  0  0  0  0  0
  -28.9110  -25.0412   21.5123 H   0  0  0  0  0  0
  -27.2156  -24.9722   21.2541 H   0  0  0  0  0  0
  -28.8366  -15.6701   20.7835 H   0  0  0  0  0  0
  -26.9045  -24.0087   18.6111 H   0  0  0  0  0  0
  -26.4507  -23.0242   19.8206 H   0  0  0  0  0  0
  1 25  1  0  0  0
  1 30  2  0  0  0
  1 88  1  0  0  0
  2  3  1  0  0  0
  2 25  1  0  0  0
  2 90  1  0  0  0
  2 91  1  0  0  0
  3  4  1  0  0  0
  3 92  1  0  0  0
  3 93  1  0  0  0
  4  5  1  0  0  0
  4 94  1  0  0  0
  4 95  1  0  0  0
  5  6  1  0  0  0
  5 26  1  0  0  0
  5 96  1  0  0  0
  6 25  1  0  0  0
  6 97  1  0  0  0
  6 98  1  0  0  0
  7  8  2  0  0  0
  7 26  1  0  0  0
  7 29  1  0  0  0
  8  9  1  0  0  0
  8 22  1  0  0  0
  9 10  1  0  0  0
  9 27  2  0  0  0
 10 11  2  0  0  0
 10 15  1  0  0  0
 11 12  1  0  0  0
 11 99  1  0  0  0
 12 13  2  0  0  0
 12100  1  0  0  0
 13 14  1  0  0  0
 13 31  1  0  0  0
 14 15  2  0  0  0
 14101  1  0  0  0
 15102  1  0  0  0
 16 17  2  0  0  0
 16 21  1  0  0  0
 16 31  1  0  0  0
 17 18  1  0  0  0
 17103  1  0  0  0
 18 19  2  0  0  0
 18104  1  0  0  0
 19 20  1  0  0  0
 19 24  1  0  0  0
 20 21  2  0  0  0
 20105  1  0  0  0
 21 23  1  0  0  0
 22 28  1  0  0  0
 22 32  2  0  0  0
 26 27  1  0  0  0
 28106  1  0  0  0
 28107  1  0  0  0
 29108  1  0  0  0
 29109  1  0  0  0
 33 34  1  0  0  0
 33 66  1  0  0  0
 33 70  2  0  0  0
 34 36  1  0  0  0
 34 59  1  0  0  0
 34110  1  0  0  0
 35 44  2  0  0  0
 35 45  1  0  0  0
 35 68  1  0  0  0
 36 56  1  0  0  0
 36111  1  0  0  0
 37 39  1  0  0  0
 37 47  1  0  0  0
 37 66  1  0  0  0
 37112  1  0  0  0
 38 43  2  0  0  0
 38 46  1  0  0  0
 38 47  1  0  0  0
 39 64  1  0  0  0
 39 67  2  0  0  0
 40 52  1  0  0  0
 40 53  2  0  0  0
 40 58  1  0  0  0
 41113  1  0  0  0
 41114  1  0  0  0
 41115  1  0  0  0
 41 48  1  0  0  0
 42 43  1  0  0  0
 42 66  1  0  0  0
 42116  1  0  0  0
 42117  1  0  0  0
 43 44  1  0  0  0
 44118  1  0  0  0
 45 46  2  0  0  0
 45119  1  0  0  0
 46120  1  0  0  0
 47121  1  0  0  0
 47122  1  0  0  0
 48 56  1  0  0  0
 48 65  1  0  0  0
 48123  1  0  0  0
 49 50  1  0  0  0
 49 53  1  0  0  0
 49 64  1  0  0  0
 49124  1  0  0  0
 50 51  1  0  0  0
 50125  1  0  0  0
 50126  1  0  0  0
 51 52  1  0  0  0
 51127  1  0  0  0
 51128  1  0  0  0
 52129  1  0  0  0
 52130  1  0  0  0
 53 54  1  0  0  0
 54 55  2  0  0  0
 54131  1  0  0  0
 55 57  1  0  0  0
 55132  1  0  0  0
 56 69  2  0  0  0
 57 58  2  0  0  0
 57133  1  0  0  0
 58134  1  0  0  0
 59 60  1  0  0  0
 59 61  1  0  0  0
 59 62  1  0  0  0
 60135  1  0  0  0
 60136  1  0  0  0
 60137  1  0  0  0
 61138  1  0  0  0
 61139  1  0  0  0
 61140  1  0  0  0
 62141  1  0  0  0
 62142  1  0  0  0
 62143  1  0  0  0
 63 65  1  0  0  0
 63144  1  0  0  0
 63145  1  0  0  0
 63146  1  0  0  0
 64147  1  0  0  0
 65148  1  0  0  0
 68 87  1  0  0  0
 71 72  2  0  0  0
 71 76  1  0  0  0
 71149  1  0  0  0
 72 74  1  0  0  0
 72 82  1  0  0  0
 73 74  2  0  0  0
 73 75  1  0  0  0
 73 77  1  0  0  0
 74 79  1  0  0  0
 75 76  2  0  0  0
 75 80  1  0  0  0
 76 83  1  0  0  0
 77 78  1  0  0  0
 77150  1  0  0  0
 77151  1  0  0  0
 78 80  1  0  0  0
 78152  1  0  0  0
 78153  1  0  0  0
 79 81  1  0  0  0
 79 84  1  0  0  0
 79154  1  0  0  0
 80 88  1  0  0  0
 80155  1  0  0  0
 81 87  1  0  0  0
 81 89  1  0  0  0
 81156  1  0  0  0
 82 85  1  0  0  0
 82 86  1  0  0  0
 82 89  1  0  0  0
 83157  1  0  0  0
 83158  1  0  0  0
 83159  1  0  0  0
 84160  1  0  0  0
 84161  1  0  0  0
 84162  1  0  0  0
 85163  1  0  0  0
 85164  1  0  0  0
 85165  1  0  0  0
 86166  1  0  0  0
 86167  1  0  0  0
 86168  1  0  0  0
 87169  1  0  0  0
 87170  1  0  0  0
 88171  1  0  0  0
 89172  1  0  0  0
 89173  1  0  0  0
M  CHG  1  89   1
M  ISO  4   1 100  68 101  87 101  88 100
M  END
> <chiral flag>
0

> <version>
0

> <s_m_source_file>
/data/baiqing/PycharmProjects/Reinvent-master-3.2/result/LINK_invent/BTK/process_docking_weight1_custom_sum_contain_oxygen_bond_distance_aromatic_linkinvent_7_9_3/rearranged_h_0159.sdf

> <i_m_source_file_index>
82

> <r_mmod_Potential_Energy-OPLS-2005>
-9.70557880401611

> <r_mmod_Stretch_Energy-OPLS-2005>
113.852912902832

> <r_mmod_Bend_Energy-OPLS-2005>
214.961532592773

> <r_mmod_Torsional_Energy-OPLS-2005>
266.898101806641

> <r_mmod_Improper_Torsional_Energy-OPLS-2005>
5.45945835113525

> <r_mmod_Van_der_Waal_Energy-OPLS-2005>
125.644805908203

> <r_mmod_Electrostatic_Energy-OPLS-2005>
-387.709991455078

> <r_mmod_Solvation_Energy-OPLS-2005>
-425.794036865234

> <b_mmod_Minimization_Converged-OPLS-2005>
0

> <r_mmod_RMS_Derivative-OPLS-2005>
2.67472338676453

$$$$
82
                    3D
 Structure written by MMmdl.
170180  0  0  1  0            999 V2000
  -30.6028  -14.8837   20.3484 C   0  0  0  0  0  0
  -30.4323  -12.5347   19.4776 C   0  0  0  0  0  0
  -29.5086  -12.4985   18.2392 C   0  0  0  0  0  0
  -28.0411  -12.3083   18.6676 C   0  0  0  0  0  0
  -27.6320  -13.2489   19.8311 C   0  0  2  0  0  0
  -28.6853  -13.2831   20.9599 C   0  0  0  0  0  0
  -25.2526  -13.8231   20.5754 C   0  0  0  0  0  0
  -24.1815  -13.0471   20.9261 C   0  0  0  0  0  0
  -24.6410  -11.6940   20.8767 C   0  0  0  0  0  0
  -23.9084  -10.4310   21.0390 C   0  0  0  0  0  0
  -24.3618   -9.4221   21.9174 C   0  0  0  0  0  0
  -23.6295   -8.2246   22.0733 C   0  0  0  0  0  0
  -22.4265   -8.0295   21.3533 C   0  0  0  0  0  0
  -21.9911   -9.0280   20.4631 C   0  0  0  0  0  0
  -22.7263  -10.2141   20.3030 C   0  0  0  0  0  0
  -21.6853   -6.0736   22.5305 C   0  0  0  0  0  0
  -21.4016   -6.5634   23.8236 C   0  0  0  0  0  0
  -21.3658   -5.6783   24.9199 C   0  0  0  0  0  0
  -21.6042   -4.3045   24.7234 C   0  0  0  0  0  0
  -21.8829   -3.8138   23.4355 C   0  0  0  0  0  0
  -21.9182   -4.6959   22.3416 C   0  0  0  0  0  0
  -22.7840  -13.5241   21.1920 C   0  0  0  0  0  0
  -22.1652   -4.2142   21.1001 F   0  0  0  0  0  0
  -21.5640   -3.4532   25.7752 F   0  0  0  0  0  0
  -29.9658  -13.6508   20.3439 N   0  0  0  0  0  0
  -26.2927  -12.9461   20.3268 N   0  0  0  0  0  0
  -25.9329  -11.6584   20.5743 N   0  0  0  0  0  0
  -22.0439  -12.8235   22.0442 N   0  0  0  0  0  0
  -25.4291  -15.1960   20.4275 N   0  0  0  0  0  0
  -31.8281  -14.8785   20.1974 O   0  0  0  0  0  0
  -21.6640   -6.8890   21.4266 O   0  0  0  0  0  0
  -22.3545  -14.5560   20.6753 O   0  0  0  0  0  0
  -24.6399  -31.8467   23.1907 C   0  0  0  0  0  0
  -25.9189  -32.4701   23.8290 C   0  0  1  0  0  0
  -27.2101  -27.1699   20.1333 C   0  0  0  0  0  0
  -25.5978  -33.8516   24.2212 N   0  0  0  0  0  0
  -23.4393  -30.4656   21.5399 C   0  0  2  0  0  0
  -24.8808  -28.9009   20.1066 C   0  0  0  0  0  0
  -22.7563  -29.4532   22.4914 C   0  0  0  0  0  0
  -18.0306  -28.1391   22.8479 C   0  0  0  0  0  0
  -24.1503  -36.7258   23.2638 C   0  0  0  0  0  0
  -25.9905  -30.7309   21.3784 C   0  0  0  0  0  0
  -26.0580  -29.3449   20.7201 C   0  0  0  0  0  0
  -27.2221  -28.4962   20.7141 C   0  0  0  0  0  0
  -26.0005  -26.8110   19.4947 C   0  0  0  0  0  0
  -24.8654  -27.6482   19.4765 C   0  0  0  0  0  0
  -23.6578  -29.7998   20.1550 C   0  0  0  0  0  0
  -25.4131  -36.3034   24.0314 C   0  0  1  0  0  0
  -20.5919  -28.3685   23.1282 C   0  0  2  0  0  0
  -20.6796  -26.9402   22.5411 C   0  0  0  0  0  0
  -19.5762  -26.6386   21.5222 C   0  0  0  0  0  0
  -18.1950  -26.7937   22.1637 C   0  0  0  0  0  0
  -19.1562  -28.8864   23.2869 C   0  0  0  0  0  0
  -18.9465  -30.1478   23.8863 C   0  0  0  0  0  0
  -17.6455  -30.6586   24.0551 C   0  0  0  0  0  0
  -25.9080  -34.9402   23.5058 C   0  0  0  0  0  0
  -16.5351  -29.9065   23.6342 C   0  0  0  0  0  0
  -16.7288  -28.6501   23.0332 C   0  0  0  0  0  0
  -26.4530  -31.6551   25.0713 C   0  0  0  0  0  0
  -25.3767  -31.3766   26.1468 C   0  0  0  0  0  0
  -27.0287  -30.2931   24.6219 C   0  0  0  0  0  0
  -27.6149  -32.4236   25.7440 C   0  0  0  0  0  0
  -27.5581  -37.1796   24.8467 C   0  0  0  0  0  0
  -21.4265  -29.3006   22.3665 N   0  0  0  0  0  0
  -26.4299  -37.3739   23.9403 N   0  0  0  0  0  0
  -24.7096  -31.0370   22.0904 N   0  0  0  0  0  0
  -23.4237  -28.8073   23.3029 O   0  0  0  0  0  0
  -28.3102  -26.2522   20.1919 O   0  0  0  0  0  0
  -26.5646  -34.8897   22.4627 O   0  0  0  0  0  0
  -23.5536  -32.1328   23.7158 O   0  0  0  0  0  0
  -29.6703  -18.8020   20.1369 C   0  0  0  0  0  0
  -30.1577  -20.1197   19.6658 C   0  0  0  0  0  0
  -31.3691  -20.0261   18.9011 C   0  0  0  0  0  0
  -31.7630  -18.7940   18.3030 C   0  0  0  0  0  0
  -31.1160  -17.5699   18.6184 C   0  0  0  0  0  0
  -30.2248  -17.4829   19.7311 C   0  0  0  0  0  0
  -33.7505  -21.2153   19.0730 C   0  0  0  0  0  0
  -32.7958  -22.1415   19.7557 C   0  0  0  0  0  0
  -28.3671  -22.0838   20.8155 C   0  0  0  0  0  0
  -29.4700  -22.6614   18.7455 C   0  0  0  0  0  0
  -28.2153  -23.6793   21.1150 C   0  0  0  0  0  0
  -29.4745  -24.2121   19.0975 C   0  0  0  0  0  0
  -29.6274  -21.6631   19.9694 C   0  0  2  0  0  0
  -32.2862  -21.2236   18.6572 C   0  0  0  0  0  0
  -28.2502  -24.7324   19.9131 C   0  0  2  0  0  0
  -32.9381  -18.8068   17.3082 C   0  0  0  0  0  0
  -31.3447  -16.3726   17.6909 C   0  0  0  0  0  0
  -29.8706  -16.1002   20.2845 N   0  0  0  0  0  0
  -31.4674  -12.6656   19.1577 H   0  0  0  0  0  0
  -30.4029  -11.5838   20.0116 H   0  0  0  0  0  0
  -29.8072  -11.6951   17.5656 H   0  0  0  0  0  0
  -29.6057  -13.4271   17.6735 H   0  0  0  0  0  0
  -27.9279  -11.2725   18.9894 H   0  0  0  0  0  0
  -27.3719  -12.4385   17.8159 H   0  0  0  0  0  0
  -27.5966  -14.2479   19.3959 H   0  0  0  0  0  0
  -28.7570  -12.3229   21.4714 H   0  0  0  0  0  0
  -28.4039  -14.0175   21.7145 H   0  0  0  0  0  0
  -25.2722   -9.5701   22.4788 H   0  0  0  0  0  0
  -24.0002   -7.4616   22.7436 H   0  0  0  0  0  0
  -21.0838   -8.8795   19.8953 H   0  0  0  0  0  0
  -22.3703  -10.9677   19.6136 H   0  0  0  0  0  0
  -21.2001   -7.6138   23.9753 H   0  0  0  0  0  0
  -21.1484   -6.0505   25.9125 H   0  0  0  0  0  0
  -22.0586   -2.7597   23.2860 H   0  0  0  0  0  0
  -22.3956  -11.9850   22.4830 H   0  0  0  0  0  0
  -21.1063  -13.1332   22.2597 H   0  0  0  0  0  0
  -24.6871  -15.8644   20.6032 H   0  0  0  0  0  0
  -26.3047  -15.6371   20.1797 H   0  0  0  0  0  0
  -26.7242  -32.5297   23.1010 H   0  0  0  0  0  0
  -25.0151  -33.9630   25.0372 H   0  0  0  0  0  0
  -22.7372  -31.2891   21.3940 H   0  0  0  0  0  0
  -23.3784  -35.9568   23.3243 H   0  0  0  0  0  0
  -24.3622  -36.8945   22.2070 H   0  0  0  0  0  0
  -23.7221  -37.6423   23.6702 H   0  0  0  0  0  0
  -26.1381  -31.4831   20.6037 H   0  0  0  0  0  0
  -26.8668  -30.7843   22.0142 H   0  0  0  0  0  0
  -28.1251  -28.8357   21.2026 H   0  0  0  0  0  0
  -25.8835  -25.8563   19.0097 H   0  0  0  0  0  0
  -23.9667  -27.3077   18.9809 H   0  0  0  0  0  0
  -23.7833  -30.5746   19.3981 H   0  0  0  0  0  0
  -22.7715  -29.2389   19.8529 H   0  0  0  0  0  0
  -25.1318  -36.1876   25.0808 H   0  0  0  0  0  0
  -21.0000  -28.3237   24.1410 H   0  0  0  0  0  0
  -20.5732  -26.2269   23.3595 H   0  0  0  0  0  0
  -21.6651  -26.7448   22.1164 H   0  0  0  0  0  0
  -19.6913  -25.6298   21.1241 H   0  0  0  0  0  0
  -19.6710  -27.3201   20.6755 H   0  0  0  0  0  0
  -17.4220  -26.6673   21.4042 H   0  0  0  0  0  0
  -18.0357  -26.0100   22.9057 H   0  0  0  0  0  0
  -19.7931  -30.7322   24.2203 H   0  0  0  0  0  0
  -17.4989  -31.6258   24.5145 H   0  0  0  0  0  0
  -15.5338  -30.2917   23.7703 H   0  0  0  0  0  0
  -15.8708  -28.0808   22.7021 H   0  0  0  0  0  0
  -24.5668  -30.7499   25.7722 H   0  0  0  0  0  0
  -24.9335  -32.2991   26.5228 H   0  0  0  0  0  0
  -25.8018  -30.8534   27.0045 H   0  0  0  0  0  0
  -26.2805  -29.6720   24.1286 H   0  0  0  0  0  0
  -27.3949  -29.7196   25.4746 H   0  0  0  0  0  0
  -27.8740  -30.4143   23.9445 H   0  0  0  0  0  0
  -27.2865  -33.3600   26.1962 H   0  0  0  0  0  0
  -28.3981  -32.6668   25.0246 H   0  0  0  0  0  0
  -28.0772  -31.8360   26.5378 H   0  0  0  0  0  0
  -28.2600  -38.0083   24.7477 H   0  0  0  0  0  0
  -28.1063  -36.2614   24.6324 H   0  0  0  0  0  0
  -27.2306  -37.1489   25.8869 H   0  0  0  0  0  0
  -20.9476  -29.8702   21.6838 H   0  0  0  0  0  0
  -26.0166  -38.2817   24.1379 H   0  0  0  0  0  0
  -28.8580  -18.8051   20.8484 H   0  0  0  0  0  0
  -34.1217  -20.3750   19.6581 H   0  0  0  0  0  0
  -34.4756  -21.6719   18.3982 H   0  0  0  0  0  0
  -32.8799  -23.2011   19.5210 H   0  0  0  0  0  0
  -32.5848  -21.9069   20.7968 H   0  0  0  0  0  0
  -27.4670  -21.7190   20.3188 H   0  0  0  0  0  0
  -28.4101  -21.5581   21.7707 H   0  0  0  0  0  0
  -30.2382  -22.5115   17.9967 H   0  0  0  0  0  0
  -28.5495  -22.4306   18.2095 H   0  0  0  0  0  0
  -29.0127  -23.9524   21.8077 H   0  0  0  0  0  0
  -27.2917  -23.8318   21.6714 H   0  0  0  0  0  0
  -29.5394  -24.7896   18.1754 H   0  0  0  0  0  0
  -30.3886  -24.4418   19.6490 H   0  0  0  0  0  0
  -30.4259  -22.0630   20.5824 H   0  0  0  0  0  0
  -32.1239  -21.6309   17.6614 H   0  0  0  0  0  0
  -27.3872  -24.5158   19.2916 H   0  0  0  0  0  0
  -32.8623  -19.6425   16.6114 H   0  0  0  0  0  0
  -33.0563  -17.9170   16.6945 H   0  0  0  0  0  0
  -33.8763  -18.9114   17.8483 H   0  0  0  0  0  0
  -31.3075  -16.6780   16.6441 H   0  0  0  0  0  0
  -30.5491  -15.6343   17.7631 H   0  0  0  0  0  0
  -32.3035  -15.8908   17.8780 H   0  0  0  0  0  0
  -28.9196  -16.0164   20.6106 H   0  0  0  0  0  0
  1 25  1  0  0  0
  1 30  2  0  0  0
  1 88  1  0  0  0
  2  3  1  0  0  0
  2 25  1  0  0  0
  2 89  1  0  0  0
  2 90  1  0  0  0
  3  4  1  0  0  0
  3 91  1  0  0  0
  3 92  1  0  0  0
  4  5  1  0  0  0
  4 93  1  0  0  0
  4 94  1  0  0  0
  5  6  1  0  0  0
  5 26  1  0  0  0
  5 95  1  0  0  0
  6 25  1  0  0  0
  6 96  1  0  0  0
  6 97  1  0  0  0
  7  8  2  0  0  0
  7 26  1  0  0  0
  7 29  1  0  0  0
  8  9  1  0  0  0
  8 22  1  0  0  0
  9 10  1  0  0  0
  9 27  2  0  0  0
 10 11  2  0  0  0
 10 15  1  0  0  0
 11 12  1  0  0  0
 11 98  1  0  0  0
 12 13  2  0  0  0
 12 99  1  0  0  0
 13 14  1  0  0  0
 13 31  1  0  0  0
 14 15  2  0  0  0
 14100  1  0  0  0
 15101  1  0  0  0
 16 17  2  0  0  0
 16 21  1  0  0  0
 16 31  1  0  0  0
 17 18  1  0  0  0
 17102  1  0  0  0
 18 19  2  0  0  0
 18103  1  0  0  0
 19 20  1  0  0  0
 19 24  1  0  0  0
 20 21  2  0  0  0
 20104  1  0  0  0
 21 23  1  0  0  0
 22 28  1  0  0  0
 22 32  2  0  0  0
 26 27  1  0  0  0
 28105  1  0  0  0
 28106  1  0  0  0
 29107  1  0  0  0
 29108  1  0  0  0
 33 34  1  0  0  0
 33 66  1  0  0  0
 33 70  2  0  0  0
 34 36  1  0  0  0
 34 59  1  0  0  0
 34109  1  0  0  0
 35 44  2  0  0  0
 35 45  1  0  0  0
 35 68  1  0  0  0
 36 56  1  0  0  0
 36110  1  0  0  0
 37 39  1  0  0  0
 37 47  1  0  0  0
 37 66  1  0  0  0
 37111  1  0  0  0
 38 43  2  0  0  0
 38 46  1  0  0  0
 38 47  1  0  0  0
 39 64  1  0  0  0
 39 67  2  0  0  0
 40 52  1  0  0  0
 40 53  2  0  0  0
 40 58  1  0  0  0
 41112  1  0  0  0
 41113  1  0  0  0
 41114  1  0  0  0
 41 48  1  0  0  0
 42 43  1  0  0  0
 42 66  1  0  0  0
 42115  1  0  0  0
 42116  1  0  0  0
 43 44  1  0  0  0
 44117  1  0  0  0
 45 46  2  0  0  0
 45118  1  0  0  0
 46119  1  0  0  0
 47120  1  0  0  0
 47121  1  0  0  0
 48 56  1  0  0  0
 48 65  1  0  0  0
 48122  1  0  0  0
 49 50  1  0  0  0
 49 53  1  0  0  0
 49 64  1  0  0  0
 49123  1  0  0  0
 50 51  1  0  0  0
 50124  1  0  0  0
 50125  1  0  0  0
 51 52  1  0  0  0
 51126  1  0  0  0
 51127  1  0  0  0
 52128  1  0  0  0
 52129  1  0  0  0
 53 54  1  0  0  0
 54 55  2  0  0  0
 54130  1  0  0  0
 55 57  1  0  0  0
 55131  1  0  0  0
 56 69  2  0  0  0
 57 58  2  0  0  0
 57132  1  0  0  0
 58133  1  0  0  0
 59 60  1  0  0  0
 59 61  1  0  0  0
 59 62  1  0  0  0
 60134  1  0  0  0
 60135  1  0  0  0
 60136  1  0  0  0
 61137  1  0  0  0
 61138  1  0  0  0
 61139  1  0  0  0
 62140  1  0  0  0
 62141  1  0  0  0
 62142  1  0  0  0
 63 65  1  0  0  0
 63143  1  0  0  0
 63144  1  0  0  0
 63145  1  0  0  0
 64146  1  0  0  0
 65147  1  0  0  0
 68 85  1  0  0  0
 71 72  2  0  0  0
 71 76  1  0  0  0
 71148  1  0  0  0
 72 73  1  0  0  0
 72 83  1  0  0  0
 73 74  2  0  0  0
 73 84  1  0  0  0
 74 75  1  0  0  0
 74 86  1  0  0  0
 75 76  2  0  0  0
 75 87  1  0  0  0
 76 88  1  0  0  0
 77 78  1  0  0  0
 77 84  1  0  0  0
 77149  1  0  0  0
 77150  1  0  0  0
 78 84  1  0  0  0
 78151  1  0  0  0
 78152  1  0  0  0
 79 81  1  0  0  0
 79 83  1  0  0  0
 79153  1  0  0  0
 79154  1  0  0  0
 80 82  1  0  0  0
 80 83  1  0  0  0
 80155  1  0  0  0
 80156  1  0  0  0
 81 85  1  0  0  0
 81157  1  0  0  0
 81158  1  0  0  0
 82 85  1  0  0  0
 82159  1  0  0  0
 82160  1  0  0  0
 83161  1  0  0  0
 84162  1  0  0  0
 85163  1  0  0  0
 86164  1  0  0  0
 86165  1  0  0  0
 86166  1  0  0  0
 87167  1  0  0  0
 87168  1  0  0  0
 87169  1  0  0  0
 88170  1  0  0  0
M  ISO  4   1 100  68 101  85 101  88 100
M  END
> <chiral flag>
0

> <version>
0

> <s_m_source_file>
/data/baiqing/PycharmProjects/Reinvent-master-3.2/result/LINK_invent/BTK/process_docking_weight1_custom_sum_contain_oxygen_bond_distance_aromatic_linkinvent_7_9_3/rearranged_h_0159.sdf

> <i_m_source_file_index>
83

> <r_mmod_Potential_Energy-OPLS-2005>
504.811401367188

> <r_mmod_Stretch_Energy-OPLS-2005>
215.570175170898

> <r_mmod_Bend_Energy-OPLS-2005>
257.668304443359

> <r_mmod_Torsional_Energy-OPLS-2005>
321.876739501953

> <r_mmod_Improper_Torsional_Energy-OPLS-2005>
5.74634552001953

> <r_mmod_Van_der_Waal_Energy-OPLS-2005>
165.464248657227

> <r_mmod_Electrostatic_Energy-OPLS-2005>
-412.565948486328

> <r_mmod_Solvation_Energy-OPLS-2005>
-204.044921875

> <b_mmod_Minimization_Converged-OPLS-2005>
0

> <r_mmod_RMS_Derivative-OPLS-2005>
3.87454700469971

$$$$
83
                    3D
 Structure written by MMmdl.
173183  0  0  1  0            999 V2000
  -30.7705  -14.4357   20.2224 C   0  0  0  0  0  0
  -30.3934  -12.2100   19.3749 C   0  0  0  0  0  0
  -29.4260  -12.3122   18.1727 C   0  0  0  0  0  0
  -27.9670  -12.2668   18.6400 C   0  0  0  0  0  0
  -27.6522  -13.2030   19.8379 C   0  0  2  0  0  0
  -28.7403  -13.1116   20.9352 C   0  0  0  0  0  0
  -25.2593  -13.8204   20.5722 C   0  0  0  0  0  0
  -24.1825  -13.0481   20.9225 C   0  0  0  0  0  0
  -24.6379  -11.6950   20.8823 C   0  0  0  0  0  0
  -23.9041  -10.4324   21.0461 C   0  0  0  0  0  0
  -24.3599   -9.4224   21.9218 C   0  0  0  0  0  0
  -23.6304   -8.2244   22.0747 C   0  0  0  0  0  0
  -22.4291   -8.0283   21.3538 C   0  0  0  0  0  0
  -21.9922   -9.0254   20.4654 C   0  0  0  0  0  0
  -22.7228  -10.2149   20.3093 C   0  0  0  0  0  0
  -21.6853   -6.0751   22.5277 C   0  0  0  0  0  0
  -21.4009   -6.5655   23.8214 C   0  0  0  0  0  0
  -21.3651   -5.6806   24.9175 C   0  0  0  0  0  0
  -21.6036   -4.3066   24.7226 C   0  0  0  0  0  0
  -21.8814   -3.8160   23.4354 C   0  0  0  0  0  0
  -21.9185   -4.6976   22.3408 C   0  0  0  0  0  0
  -22.7833  -13.5278   21.1870 C   0  0  0  0  0  0
  -22.1649   -4.2169   21.0983 F   0  0  0  0  0  0
  -21.5637   -3.4548   25.7740 F   0  0  0  0  0  0
  -30.0549  -13.2894   20.3011 N   0  0  0  0  0  0
  -26.3045  -12.9393   20.3453 N   0  0  0  0  0  0
  -25.9329  -11.6571   20.5977 N   0  0  0  0  0  0
  -22.0439  -12.8254   22.0395 N   0  0  0  0  0  0
  -25.4347  -15.1896   20.4040 N   0  0  0  0  0  0
  -31.9232  -14.5433   20.6223 O   0  0  0  0  0  0
  -21.6647   -6.8891   21.4238 O   0  0  0  0  0  0
  -22.3526  -14.5591   20.6733 O   0  0  0  0  0  0
  -24.6057  -31.8713   23.2148 C   0  0  0  0  0  0
  -25.8987  -32.4832   23.8434 C   0  0  1  0  0  0
  -27.2449  -27.4966   20.0883 C   0  0  0  0  0  0
  -25.5888  -33.8637   24.2376 N   0  0  0  0  0  0
  -23.3918  -30.4908   21.5553 C   0  0  2  0  0  0
  -24.8427  -28.9579   20.1230 C   0  0  0  0  0  0
  -22.7343  -29.4665   22.5056 C   0  0  0  0  0  0
  -18.0248  -28.1363   22.8483 C   0  0  0  0  0  0
  -24.1504  -36.7342   23.2622 C   0  0  0  0  0  0
  -25.9126  -30.8525   21.3617 C   0  0  0  0  0  0
  -25.9938  -29.4879   20.7176 C   0  0  0  0  0  0
  -27.1972  -28.7575   20.7099 C   0  0  0  0  0  0
  -26.0816  -26.9580   19.4994 C   0  0  0  0  0  0
  -24.8756  -27.6856   19.5198 C   0  0  0  0  0  0
  -23.5983  -29.8146   20.1720 C   0  0  0  0  0  0
  -25.4119  -36.3133   24.0335 C   0  0  1  0  0  0
  -20.5822  -28.3630   23.1338 C   0  0  2  0  0  0
  -20.6728  -26.9371   22.5428 C   0  0  0  0  0  0
  -19.5739  -26.6365   21.5202 C   0  0  0  0  0  0
  -18.1908  -26.7919   22.1578 C   0  0  0  0  0  0
  -19.1501  -28.8808   23.2903 C   0  0  0  0  0  0
  -18.9433  -30.1419   23.8909 C   0  0  0  0  0  0
  -17.6445  -30.6565   24.0555 C   0  0  0  0  0  0
  -25.9028  -34.9484   23.5161 C   0  0  0  0  0  0
  -16.5324  -29.9069   23.6330 C   0  0  0  0  0  0
  -16.7245  -28.6472   23.0360 C   0  0  0  0  0  0
  -26.4437  -31.6558   25.0714 C   0  0  0  0  0  0
  -25.3746  -31.3668   26.1480 C   0  0  0  0  0  0
  -27.0219  -30.2992   24.6047 C   0  0  0  0  0  0
  -27.6056  -32.4192   25.7474 C   0  0  0  0  0  0
  -27.5616  -37.1822   24.8434 C   0  0  0  0  0  0
  -21.4075  -29.3011   22.3758 N   0  0  0  0  0  0
  -26.4319  -37.3794   23.9386 N   0  0  0  0  0  0
  -24.6536  -31.0858   22.1019 N   0  0  0  0  0  0
  -23.4124  -28.8234   23.3109 O   0  0  0  0  0  0
  -28.4267  -26.8126   20.0568 O   0  0  0  0  0  0
  -26.5597  -34.8911   22.4734 O   0  0  0  0  0  0
  -23.5270  -32.1433   23.7594 O   0  0  0  0  0  0
  -30.0065  -23.1598   18.5377 C   0  0  0  0  0  0
  -29.9316  -24.4876   18.9869 C   0  0  0  0  0  0
  -28.6073  -25.0660   17.0228 C   0  0  0  0  0  0
  -29.3768  -22.7666   17.3358 C   0  0  0  0  0  0
  -29.2091  -25.4344   18.2431 C   0  0  0  0  0  0
  -28.6896  -23.7346   16.5554 C   0  0  0  0  0  0
  -31.6285  -16.5269   17.4702 C   0  0  0  0  0  0
  -30.8370  -20.7362   16.8583 C   0  0  0  0  0  0
  -28.5801  -20.4815   17.9823 C   0  0  0  0  0  0
  -31.5402  -15.1064   17.9980 C   0  0  0  0  0  0
  -29.8360  -16.3963   19.0447 C   0  0  0  0  0  0
  -30.8232  -19.2229   16.6059 C   0  0  0  0  0  0
  -28.6608  -18.9728   17.7232 C   0  0  0  0  0  0
  -29.4032  -21.2885   16.9609 C   0  0  1  0  0  0
  -30.2149  -17.0447   17.6979 C   0  0  1  0  0  0
  -28.0309  -23.3833   15.2280 C   0  0  0  0  0  0
  -29.0771  -26.8353   18.7931 C   0  0  0  0  0  0
  -30.5121  -15.0978   19.0689 N   0  0  0  0  0  0
  -30.0761  -18.5243   17.6904 N   0  3  1  0  0  0
  -31.4323  -12.2659   19.0362 H   0  0  0  0  0  0
  -30.2878  -11.2438   19.8683 H   0  0  0  0  0  0
  -29.6093  -11.4832   17.4873 H   0  0  0  0  0  0
  -29.5637  -13.2090   17.5799 H   0  0  0  0  0  0
  -27.7686  -11.2322   18.9180 H   0  0  0  0  0  0
  -27.2987  -12.4847   17.8069 H   0  0  0  0  0  0
  -27.6627  -14.2194   19.4452 H   0  0  0  0  0  0
  -28.7018  -12.1422   21.4337 H   0  0  0  0  0  0
  -28.5758  -13.8724   21.6994 H   0  0  0  0  0  0
  -25.2743   -9.5699   22.4802 H   0  0  0  0  0  0
  -24.0024   -7.4626   22.7444 H   0  0  0  0  0  0
  -21.0870   -8.8763   19.8963 H   0  0  0  0  0  0
  -22.3689  -10.9685   19.6199 H   0  0  0  0  0  0
  -21.1999   -7.6166   23.9723 H   0  0  0  0  0  0
  -21.1466   -6.0542   25.9079 H   0  0  0  0  0  0
  -22.0598   -2.7634   23.2841 H   0  0  0  0  0  0
  -22.4067  -11.9928   22.4812 H   0  0  0  0  0  0
  -21.1023  -13.1234   22.2563 H   0  0  0  0  0  0
  -24.6760  -15.8524   20.5219 H   0  0  0  0  0  0
  -26.3066  -15.6268   20.1349 H   0  0  0  0  0  0
  -26.7053  -32.5560   23.1200 H   0  0  0  0  0  0
  -25.0035  -33.9816   25.0522 H   0  0  0  0  0  0
  -22.6796  -31.3061   21.4175 H   0  0  0  0  0  0
  -23.3762  -35.9671   23.3229 H   0  0  0  0  0  0
  -24.3621  -36.8997   22.2044 H   0  0  0  0  0  0
  -23.7234  -37.6539   23.6647 H   0  0  0  0  0  0
  -26.0164  -31.6188   20.5941 H   0  0  0  0  0  0
  -26.8003  -30.9093   21.9773 H   0  0  0  0  0  0
  -28.0901  -29.1653   21.1595 H   0  0  0  0  0  0
  -26.1110  -25.9876   19.0224 H   0  0  0  0  0  0
  -23.9851  -27.2674   19.0696 H   0  0  0  0  0  0
  -23.6950  -30.5842   19.4062 H   0  0  0  0  0  0
  -22.7254  -29.2239   19.8895 H   0  0  0  0  0  0
  -25.1304  -36.2018   25.0827 H   0  0  0  0  0  0
  -20.9920  -28.3168   24.1460 H   0  0  0  0  0  0
  -20.5605  -26.2241   23.3607 H   0  0  0  0  0  0
  -21.6606  -26.7413   22.1247 H   0  0  0  0  0  0
  -19.6883  -25.6271   21.1249 H   0  0  0  0  0  0
  -19.6723  -27.3170   20.6732 H   0  0  0  0  0  0
  -17.4205  -26.6696   21.3942 H   0  0  0  0  0  0
  -18.0282  -26.0040   22.8944 H   0  0  0  0  0  0
  -19.7921  -30.7229   24.2271 H   0  0  0  0  0  0
  -17.4995  -31.6249   24.5153 H   0  0  0  0  0  0
  -15.5324  -30.2964   23.7657 H   0  0  0  0  0  0
  -15.8632  -28.0780   22.7102 H   0  0  0  0  0  0
  -24.5956  -30.6941   25.7847 H   0  0  0  0  0  0
  -24.8908  -32.2830   26.4885 H   0  0  0  0  0  0
  -25.8139  -30.8900   27.0246 H   0  0  0  0  0  0
  -26.2751  -29.6815   24.1024 H   0  0  0  0  0  0
  -27.3889  -29.7142   25.4491 H   0  0  0  0  0  0
  -27.8627  -30.4286   23.9223 H   0  0  0  0  0  0
  -27.2728  -33.3461   26.2143 H   0  0  0  0  0  0
  -28.3850  -32.6750   25.0292 H   0  0  0  0  0  0
  -28.0710  -31.8217   26.5320 H   0  0  0  0  0  0
  -28.2595  -38.0161   24.7537 H   0  0  0  0  0  0
  -28.1168  -36.2702   24.6191 H   0  0  0  0  0  0
  -27.2344  -37.1368   25.8837 H   0  0  0  0  0  0
  -20.9222  -29.8694   21.6952 H   0  0  0  0  0  0
  -26.0220  -38.2865   24.1426 H   0  0  0  0  0  0
  -30.5321  -22.4408   19.1497 H   0  0  0  0  0  0
  -30.4050  -24.7684   19.9191 H   0  0  0  0  0  0
  -28.0572  -25.8013   16.4511 H   0  0  0  0  0  0
  -31.9347  -16.5558   16.4216 H   0  0  0  0  0  0
  -32.3592  -17.0890   18.0566 H   0  0  0  0  0  0
  -31.3801  -21.2468   16.0640 H   0  0  0  0  0  0
  -31.3992  -20.9233   17.7739 H   0  0  0  0  0  0
  -28.9289  -20.6757   18.9975 H   0  0  0  0  0  0
  -27.5395  -20.8059   17.9571 H   0  0  0  0  0  0
  -32.5296  -14.7544   18.2985 H   0  0  0  0  0  0
  -31.2296  -14.4527   17.1860 H   0  0  0  0  0  0
  -28.7580  -16.2798   19.1449 H   0  0  0  0  0  0
  -30.1951  -17.0015   19.8810 H   0  0  0  0  0  0
  -31.8605  -18.8995   16.5516 H   0  0  0  0  0  0
  -30.3767  -18.9978   15.6364 H   0  0  0  0  0  0
  -28.1701  -18.7282   16.7794 H   0  0  0  0  0  0
  -28.1085  -18.4549   18.5064 H   0  0  0  0  0  0
  -28.9452  -21.1360   15.9856 H   0  0  0  0  0  0
  -29.5770  -16.6318   16.9126 H   0  0  0  0  0  0
  -27.5669  -24.2538   14.7616 H   0  0  0  0  0  0
  -27.2528  -22.6310   15.3645 H   0  0  0  0  0  0
  -28.7725  -22.9952   14.5279 H   0  0  0  0  0  0
  -28.5834  -27.4882   18.0709 H   0  0  0  0  0  0
  -30.0755  -27.2452   18.9431 H   0  0  0  0  0  0
  -30.5036  -18.8312   18.5511 H   0  0  0  0  0  0
  1 25  1  0  0  0
  1 30  2  0  0  0
  1 88  1  0  0  0
  2  3  1  0  0  0
  2 25  1  0  0  0
  2 90  1  0  0  0
  2 91  1  0  0  0
  3  4  1  0  0  0
  3 92  1  0  0  0
  3 93  1  0  0  0
  4  5  1  0  0  0
  4 94  1  0  0  0
  4 95  1  0  0  0
  5  6  1  0  0  0
  5 26  1  0  0  0
  5 96  1  0  0  0
  6 25  1  0  0  0
  6 97  1  0  0  0
  6 98  1  0  0  0
  7  8  2  0  0  0
  7 26  1  0  0  0
  7 29  1  0  0  0
  8  9  1  0  0  0
  8 22  1  0  0  0
  9 10  1  0  0  0
  9 27  2  0  0  0
 10 11  2  0  0  0
 10 15  1  0  0  0
 11 12  1  0  0  0
 11 99  1  0  0  0
 12 13  2  0  0  0
 12100  1  0  0  0
 13 14  1  0  0  0
 13 31  1  0  0  0
 14 15  2  0  0  0
 14101  1  0  0  0
 15102  1  0  0  0
 16 17  2  0  0  0
 16 21  1  0  0  0
 16 31  1  0  0  0
 17 18  1  0  0  0
 17103  1  0  0  0
 18 19  2  0  0  0
 18104  1  0  0  0
 19 20  1  0  0  0
 19 24  1  0  0  0
 20 21  2  0  0  0
 20105  1  0  0  0
 21 23  1  0  0  0
 22 28  1  0  0  0
 22 32  2  0  0  0
 26 27  1  0  0  0
 28106  1  0  0  0
 28107  1  0  0  0
 29108  1  0  0  0
 29109  1  0  0  0
 33 34  1  0  0  0
 33 66  1  0  0  0
 33 70  2  0  0  0
 34 36  1  0  0  0
 34 59  1  0  0  0
 34110  1  0  0  0
 35 44  2  0  0  0
 35 45  1  0  0  0
 35 68  1  0  0  0
 36 56  1  0  0  0
 36111  1  0  0  0
 37 39  1  0  0  0
 37 47  1  0  0  0
 37 66  1  0  0  0
 37112  1  0  0  0
 38 43  2  0  0  0
 38 46  1  0  0  0
 38 47  1  0  0  0
 39 64  1  0  0  0
 39 67  2  0  0  0
 40 52  1  0  0  0
 40 53  2  0  0  0
 40 58  1  0  0  0
 41113  1  0  0  0
 41114  1  0  0  0
 41115  1  0  0  0
 41 48  1  0  0  0
 42 43  1  0  0  0
 42 66  1  0  0  0
 42116  1  0  0  0
 42117  1  0  0  0
 43 44  1  0  0  0
 44118  1  0  0  0
 45 46  2  0  0  0
 45119  1  0  0  0
 46120  1  0  0  0
 47121  1  0  0  0
 47122  1  0  0  0
 48 56  1  0  0  0
 48 65  1  0  0  0
 48123  1  0  0  0
 49 50  1  0  0  0
 49 53  1  0  0  0
 49 64  1  0  0  0
 49124  1  0  0  0
 50 51  1  0  0  0
 50125  1  0  0  0
 50126  1  0  0  0
 51 52  1  0  0  0
 51127  1  0  0  0
 51128  1  0  0  0
 52129  1  0  0  0
 52130  1  0  0  0
 53 54  1  0  0  0
 54 55  2  0  0  0
 54131  1  0  0  0
 55 57  1  0  0  0
 55132  1  0  0  0
 56 69  2  0  0  0
 57 58  2  0  0  0
 57133  1  0  0  0
 58134  1  0  0  0
 59 60  1  0  0  0
 59 61  1  0  0  0
 59 62  1  0  0  0
 60135  1  0  0  0
 60136  1  0  0  0
 60137  1  0  0  0
 61138  1  0  0  0
 61139  1  0  0  0
 61140  1  0  0  0
 62141  1  0  0  0
 62142  1  0  0  0
 62143  1  0  0  0
 63 65  1  0  0  0
 63144  1  0  0  0
 63145  1  0  0  0
 63146  1  0  0  0
 64147  1  0  0  0
 65148  1  0  0  0
 68 87  1  0  0  0
 71 72  2  0  0  0
 71 74  1  0  0  0
 71149  1  0  0  0
 72 75  1  0  0  0
 72150  1  0  0  0
 73 75  2  0  0  0
 73 76  1  0  0  0
 73151  1  0  0  0
 74 76  2  0  0  0
 74 84  1  0  0  0
 75 87  1  0  0  0
 76 86  1  0  0  0
 77 80  1  0  0  0
 77152  1  0  0  0
 77153  1  0  0  0
 77 85  1  0  0  0
 78 82  1  0  0  0
 78 84  1  0  0  0
 78154  1  0  0  0
 78155  1  0  0  0
 79 83  1  0  0  0
 79 84  1  0  0  0
 79156  1  0  0  0
 79157  1  0  0  0
 80 88  1  0  0  0
 80158  1  0  0  0
 80159  1  0  0  0
 81 85  1  0  0  0
 81 88  1  0  0  0
 81160  1  0  0  0
 81161  1  0  0  0
 82162  1  0  0  0
 82163  1  0  0  0
 82 89  1  0  0  0
 83 89  1  0  0  0
 83164  1  0  0  0
 83165  1  0  0  0
 84166  1  0  0  0
 85 89  1  0  0  0
 85167  1  0  0  0
 86168  1  0  0  0
 86169  1  0  0  0
 86170  1  0  0  0
 87171  1  0  0  0
 87172  1  0  0  0
 89173  1  0  0  0
M  CHG  1  89   1
M  ISO  4   1 100  68 101  87 101  88 100
M  END
> <chiral flag>
0

> <version>
0

> <s_m_source_file>
/data/baiqing/PycharmProjects/Reinvent-master-3.2/result/LINK_invent/BTK/process_docking_weight1_custom_sum_contain_oxygen_bond_distance_aromatic_linkinvent_7_9_3/rearranged_h_0159.sdf

> <i_m_source_file_index>
84

> <r_mmod_Potential_Energy-OPLS-2005>
259.28564453125

> <r_mmod_Stretch_Energy-OPLS-2005>
34.3364067077637

> <r_mmod_Bend_Energy-OPLS-2005>
127.762725830078

> <r_mmod_Torsional_Energy-OPLS-2005>
446.887939453125

> <r_mmod_Improper_Torsional_Energy-OPLS-2005>
33.1141357421875

> <r_mmod_Van_der_Waal_Energy-OPLS-2005>
163.115570068359

> <r_mmod_Electrostatic_Energy-OPLS-2005>
-187.09831237793

> <r_mmod_Solvation_Energy-OPLS-2005>
-435.141143798828

> <b_mmod_Minimization_Converged-OPLS-2005>
0

> <r_mmod_RMS_Derivative-OPLS-2005>
3.64152479171753

$$$$
84
                    3D
 Structure written by MMmdl.
167176  0  0  1  0            999 V2000
  -30.7222  -14.4391   20.4972 C   0  0  0  0  0  0
  -30.4139  -12.2590   19.4264 C   0  0  0  0  0  0
  -29.4896  -12.4326   18.2044 C   0  0  0  0  0  0
  -28.0072  -12.3385   18.6211 C   0  0  0  0  0  0
  -27.6545  -13.1996   19.8660 C   0  0  2  0  0  0
  -28.7027  -13.0238   20.9880 C   0  0  0  0  0  0
  -25.2583  -13.8143   20.5701 C   0  0  0  0  0  0
  -24.1825  -13.0430   20.9186 C   0  0  0  0  0  0
  -24.6371  -11.6894   20.8763 C   0  0  0  0  0  0
  -23.9044  -10.4286   21.0427 C   0  0  0  0  0  0
  -24.3602   -9.4197   21.9197 C   0  0  0  0  0  0
  -23.6280   -8.2232   22.0757 C   0  0  0  0  0  0
  -22.4262   -8.0275   21.3546 C   0  0  0  0  0  0
  -21.9897   -9.0250   20.4652 C   0  0  0  0  0  0
  -22.7223  -10.2130   20.3070 C   0  0  0  0  0  0
  -21.6847   -6.0733   22.5280 C   0  0  0  0  0  0
  -21.4011   -6.5639   23.8213 C   0  0  0  0  0  0
  -21.3656   -5.6793   24.9175 C   0  0  0  0  0  0
  -21.6043   -4.3056   24.7228 C   0  0  0  0  0  0
  -21.8819   -3.8145   23.4352 C   0  0  0  0  0  0
  -21.9189   -4.6960   22.3406 C   0  0  0  0  0  0
  -22.7853  -13.5240   21.1845 C   0  0  0  0  0  0
  -22.1659   -4.2146   21.0984 F   0  0  0  0  0  0
  -21.5627   -3.4543   25.7744 F   0  0  0  0  0  0
  -30.0306  -13.2757   20.4114 N   0  0  0  0  0  0
  -26.2998  -12.9290   20.3378 N   0  0  0  0  0  0
  -25.9293  -11.6461   20.5809 N   0  0  0  0  0  0
  -22.0489  -12.8238   22.0405 N   0  0  0  0  0  0
  -25.4337  -15.1859   20.4128 N   0  0  0  0  0  0
  -31.9172  -14.5419   20.2041 O   0  0  0  0  0  0
  -21.6628   -6.8872   21.4242 O   0  0  0  0  0  0
  -22.3546  -14.5549   20.6696 O   0  0  0  0  0  0
  -24.6092  -31.8721   23.2138 C   0  0  0  0  0  0
  -25.9002  -32.4843   23.8423 C   0  0  1  0  0  0
  -27.2364  -27.4760   20.0929 C   0  0  0  0  0  0
  -25.5879  -33.8642   24.2349 N   0  0  0  0  0  0
  -23.3946  -30.4960   21.5548 C   0  0  2  0  0  0
  -24.8398  -28.9670   20.1202 C   0  0  0  0  0  0
  -22.7383  -29.4677   22.5029 C   0  0  0  0  0  0
  -18.0263  -28.1369   22.8495 C   0  0  0  0  0  0
  -24.1489  -36.7324   23.2634 C   0  0  0  0  0  0
  -25.9193  -30.8532   21.3581 C   0  0  0  0  0  0
  -25.9982  -29.4906   20.7057 C   0  0  0  0  0  0
  -27.2000  -28.7547   20.6833 C   0  0  0  0  0  0
  -26.0549  -26.9515   19.5171 C   0  0  0  0  0  0
  -24.8607  -27.6945   19.5243 C   0  0  0  0  0  0
  -23.6000  -29.8282   20.1691 C   0  0  0  0  0  0
  -25.4103  -36.3117   24.0341 C   0  0  1  0  0  0
  -20.5850  -28.3646   23.1343 C   0  0  2  0  0  0
  -20.6760  -26.9396   22.5423 C   0  0  0  0  0  0
  -19.5744  -26.6388   21.5212 C   0  0  0  0  0  0
  -18.1918  -26.7919   22.1622 C   0  0  0  0  0  0
  -19.1511  -28.8823   23.2917 C   0  0  0  0  0  0
  -18.9443  -30.1431   23.8924 C   0  0  0  0  0  0
  -17.6448  -30.6582   24.0556 C   0  0  0  0  0  0
  -25.9029  -34.9484   23.5140 C   0  0  0  0  0  0
  -16.5338  -29.9083   23.6323 C   0  0  0  0  0  0
  -16.7256  -28.6496   23.0351 C   0  0  0  0  0  0
  -26.4454  -31.6601   25.0727 C   0  0  0  0  0  0
  -25.3732  -31.3694   26.1489 C   0  0  0  0  0  0
  -27.0266  -30.3049   24.6052 C   0  0  0  0  0  0
  -27.6055  -32.4304   25.7468 C   0  0  0  0  0  0
  -27.5584  -37.1803   24.8460 C   0  0  0  0  0  0
  -21.4120  -29.3022   22.3762 N   0  0  0  0  0  0
  -26.4286  -37.3803   23.9421 N   0  0  0  0  0  0
  -24.6595  -31.0872   22.1010 N   0  0  0  0  0  0
  -23.4182  -28.8223   23.3053 O   0  0  0  0  0  0
  -28.4330  -26.7986   20.0892 O   0  0  0  0  0  0
  -26.5590  -34.8924   22.4701 O   0  0  0  0  0  0
  -23.5298  -32.1449   23.7560 O   0  0  0  0  0  0
  -28.1153  -20.4777   20.8571 C   0  0  0  0  0  0
  -28.9857  -20.3844   18.5862 C   0  0  0  0  0  0
  -28.8326  -19.7897   19.8558 C   0  0  0  0  0  0
  -27.5824  -21.7584   20.5963 C   0  0  0  0  0  0
  -28.4377  -21.6474   18.3060 C   0  0  0  0  0  0
  -27.7661  -22.3574   19.3273 C   0  0  0  0  0  0
  -29.4618  -17.8564   21.5064 C   0  0  0  0  0  0
  -28.8480  -17.3586   19.1745 C   0  0  0  0  0  0
  -30.2879  -16.5488   21.5803 C   0  0  0  0  0  0
  -29.7416  -16.1222   19.1872 C   0  0  0  0  0  0
  -29.4677  -18.4226   20.0771 C   0  0  0  0  0  0
  -26.8305  -22.4808   21.6992 C   0  0  0  0  0  0
  -28.5682  -22.2140   16.9017 C   0  0  0  0  0  0
  -28.3840  -25.3918   20.2988 C   0  0  0  0  0  0
  -28.2883  -24.6179   18.9768 C   0  0  0  0  0  0
  -29.9594  -15.5542   20.5353 N   0  0  0  0  0  0
  -27.2796  -23.6151   19.0831 O   0  0  0  0  0  0
  -31.4599  -12.3390   19.1241 H   0  0  0  0  0  0
  -30.3000  -11.2636   19.8582 H   0  0  0  0  0  0
  -29.7096  -11.6626   17.4634 H   0  0  0  0  0  0
  -29.6865  -13.3813   17.7077 H   0  0  0  0  0  0
  -27.7997  -11.2889   18.8331 H   0  0  0  0  0  0
  -27.3624  -12.6076   17.7836 H   0  0  0  0  0  0
  -27.6737  -14.2382   19.5448 H   0  0  0  0  0  0
  -28.6651  -12.0141   21.3984 H   0  0  0  0  0  0
  -28.4957  -13.7012   21.8187 H   0  0  0  0  0  0
  -25.2746   -9.5669   22.4770 H   0  0  0  0  0  0
  -23.9990   -7.4618   22.7470 H   0  0  0  0  0  0
  -21.0828   -8.8773   19.8956 H   0  0  0  0  0  0
  -22.3687  -10.9674   19.6181 H   0  0  0  0  0  0
  -21.2006   -7.6145   23.9719 H   0  0  0  0  0  0
  -21.1478   -6.0523   25.9080 H   0  0  0  0  0  0
  -22.0601   -2.7609   23.2855 H   0  0  0  0  0  0
  -22.4092  -11.9893   22.4789 H   0  0  0  0  0  0
  -21.1117  -13.1289   22.2625 H   0  0  0  0  0  0
  -24.6771  -15.8497   20.5350 H   0  0  0  0  0  0
  -26.3051  -15.6217   20.1393 H   0  0  0  0  0  0
  -26.7075  -32.5583   23.1198 H   0  0  0  0  0  0
  -25.0031  -33.9821   25.0493 H   0  0  0  0  0  0
  -22.6806  -31.3105   21.4180 H   0  0  0  0  0  0
  -23.3744  -35.9664   23.3290 H   0  0  0  0  0  0
  -24.3587  -36.8942   22.2050 H   0  0  0  0  0  0
  -23.7253  -37.6534   23.6652 H   0  0  0  0  0  0
  -26.0225  -31.6203   20.5896 H   0  0  0  0  0  0
  -26.8110  -30.9088   21.9713 H   0  0  0  0  0  0
  -28.0982  -29.1608   21.1282 H   0  0  0  0  0  0
  -26.0375  -25.9790   19.0502 H   0  0  0  0  0  0
  -23.9679  -27.2826   19.0755 H   0  0  0  0  0  0
  -23.7047  -30.6028   19.4087 H   0  0  0  0  0  0
  -22.7263  -29.2434   19.8766 H   0  0  0  0  0  0
  -25.1270  -36.1985   25.0832 H   0  0  0  0  0  0
  -20.9934  -28.3200   24.1466 H   0  0  0  0  0  0
  -20.5664  -26.2252   23.3599 H   0  0  0  0  0  0
  -21.6635  -26.7457   22.1213 H   0  0  0  0  0  0
  -19.6912  -25.6303   21.1230 H   0  0  0  0  0  0
  -19.6686  -27.3210   20.6749 H   0  0  0  0  0  0
  -17.4196  -26.6667   21.4018 H   0  0  0  0  0  0
  -18.0312  -26.0054   22.9011 H   0  0  0  0  0  0
  -19.7921  -30.7229   24.2323 H   0  0  0  0  0  0
  -17.5008  -31.6271   24.5140 H   0  0  0  0  0  0
  -15.5339  -30.2991   23.7640 H   0  0  0  0  0  0
  -15.8653  -28.0818   22.7065 H   0  0  0  0  0  0
  -24.5918  -30.7018   25.7839 H   0  0  0  0  0  0
  -24.8897  -32.2839   26.4938 H   0  0  0  0  0  0
  -25.8098  -30.8882   27.0248 H   0  0  0  0  0  0
  -26.2792  -29.6828   24.1115 H   0  0  0  0  0  0
  -27.4067  -29.7263   25.4480 H   0  0  0  0  0  0
  -27.8612  -30.4378   23.9162 H   0  0  0  0  0  0
  -27.2707  -33.3600   26.2083 H   0  0  0  0  0  0
  -28.3843  -32.6865   25.0270 H   0  0  0  0  0  0
  -28.0747  -31.8398   26.5349 H   0  0  0  0  0  0
  -28.2591  -38.0108   24.7527 H   0  0  0  0  0  0
  -28.1091  -36.2645   24.6255 H   0  0  0  0  0  0
  -27.2311  -37.1418   25.8863 H   0  0  0  0  0  0
  -20.9278  -29.8741   21.6984 H   0  0  0  0  0  0
  -26.0174  -38.2880   24.1430 H   0  0  0  0  0  0
  -27.9774  -20.0371   21.8342 H   0  0  0  0  0  0
  -29.5270  -19.8595   17.8106 H   0  0  0  0  0  0
  -29.8824  -18.5823   22.2038 H   0  0  0  0  0  0
  -28.4381  -17.6674   21.8337 H   0  0  0  0  0  0
  -27.8346  -17.1177   19.4981 H   0  0  0  0  0  0
  -28.7653  -17.7084   18.1456 H   0  0  0  0  0  0
  -30.1519  -16.0938   22.5629 H   0  0  0  0  0  0
  -31.3476  -16.8032   21.5089 H   0  0  0  0  0  0
  -30.7041  -16.3805   18.7387 H   0  0  0  0  0  0
  -29.2970  -15.3835   18.5235 H   0  0  0  0  0  0
  -30.5121  -18.5563   19.7876 H   0  0  0  0  0  0
  -26.3002  -21.7724   22.3356 H   0  0  0  0  0  0
  -26.0941  -23.1753   21.2950 H   0  0  0  0  0  0
  -27.5262  -23.0417   22.3239 H   0  0  0  0  0  0
  -29.4733  -22.8142   16.8092 H   0  0  0  0  0  0
  -27.7107  -22.8382   16.6482 H   0  0  0  0  0  0
  -28.6160  -21.4153   16.1611 H   0  0  0  0  0  0
  -29.2842  -25.0887   20.8339 H   0  0  0  0  0  0
  -27.5532  -25.1464   20.9620 H   0  0  0  0  0  0
  -29.2715  -24.2232   18.7158 H   0  0  0  0  0  0
  -28.0111  -25.2814   18.1576 H   0  0  0  0  0  0
  1 25  1  0  0  0
  1 30  2  0  0  0
  1 86  1  0  0  0
  2  3  1  0  0  0
  2 25  1  0  0  0
  2 88  1  0  0  0
  2 89  1  0  0  0
  3  4  1  0  0  0
  3 90  1  0  0  0
  3 91  1  0  0  0
  4  5  1  0  0  0
  4 92  1  0  0  0
  4 93  1  0  0  0
  5  6  1  0  0  0
  5 26  1  0  0  0
  5 94  1  0  0  0
  6 25  1  0  0  0
  6 95  1  0  0  0
  6 96  1  0  0  0
  7  8  2  0  0  0
  7 26  1  0  0  0
  7 29  1  0  0  0
  8  9  1  0  0  0
  8 22  1  0  0  0
  9 10  1  0  0  0
  9 27  2  0  0  0
 10 11  2  0  0  0
 10 15  1  0  0  0
 11 12  1  0  0  0
 11 97  1  0  0  0
 12 13  2  0  0  0
 12 98  1  0  0  0
 13 14  1  0  0  0
 13 31  1  0  0  0
 14 15  2  0  0  0
 14 99  1  0  0  0
 15100  1  0  0  0
 16 17  2  0  0  0
 16 21  1  0  0  0
 16 31  1  0  0  0
 17 18  1  0  0  0
 17101  1  0  0  0
 18 19  2  0  0  0
 18102  1  0  0  0
 19 20  1  0  0  0
 19 24  1  0  0  0
 20 21  2  0  0  0
 20103  1  0  0  0
 21 23  1  0  0  0
 22 28  1  0  0  0
 22 32  2  0  0  0
 26 27  1  0  0  0
 28104  1  0  0  0
 28105  1  0  0  0
 29106  1  0  0  0
 29107  1  0  0  0
 33 34  1  0  0  0
 33 66  1  0  0  0
 33 70  2  0  0  0
 34 36  1  0  0  0
 34 59  1  0  0  0
 34108  1  0  0  0
 35 44  2  0  0  0
 35 45  1  0  0  0
 35 68  1  0  0  0
 36 56  1  0  0  0
 36109  1  0  0  0
 37 39  1  0  0  0
 37 47  1  0  0  0
 37 66  1  0  0  0
 37110  1  0  0  0
 38 43  2  0  0  0
 38 46  1  0  0  0
 38 47  1  0  0  0
 39 64  1  0  0  0
 39 67  2  0  0  0
 40 52  1  0  0  0
 40 53  2  0  0  0
 40 58  1  0  0  0
 41111  1  0  0  0
 41112  1  0  0  0
 41113  1  0  0  0
 41 48  1  0  0  0
 42 43  1  0  0  0
 42 66  1  0  0  0
 42114  1  0  0  0
 42115  1  0  0  0
 43 44  1  0  0  0
 44116  1  0  0  0
 45 46  2  0  0  0
 45117  1  0  0  0
 46118  1  0  0  0
 47119  1  0  0  0
 47120  1  0  0  0
 48 56  1  0  0  0
 48 65  1  0  0  0
 48121  1  0  0  0
 49 50  1  0  0  0
 49 53  1  0  0  0
 49 64  1  0  0  0
 49122  1  0  0  0
 50 51  1  0  0  0
 50123  1  0  0  0
 50124  1  0  0  0
 51 52  1  0  0  0
 51125  1  0  0  0
 51126  1  0  0  0
 52127  1  0  0  0
 52128  1  0  0  0
 53 54  1  0  0  0
 54 55  2  0  0  0
 54129  1  0  0  0
 55 57  1  0  0  0
 55130  1  0  0  0
 56 69  2  0  0  0
 57 58  2  0  0  0
 57131  1  0  0  0
 58132  1  0  0  0
 59 60  1  0  0  0
 59 61  1  0  0  0
 59 62  1  0  0  0
 60133  1  0  0  0
 60134  1  0  0  0
 60135  1  0  0  0
 61136  1  0  0  0
 61137  1  0  0  0
 61138  1  0  0  0
 62139  1  0  0  0
 62140  1  0  0  0
 62141  1  0  0  0
 63 65  1  0  0  0
 63142  1  0  0  0
 63143  1  0  0  0
 63144  1  0  0  0
 64145  1  0  0  0
 65146  1  0  0  0
 68 84  1  0  0  0
 71 73  2  0  0  0
 71 74  1  0  0  0
 71147  1  0  0  0
 72 73  1  0  0  0
 72 75  2  0  0  0
 72148  1  0  0  0
 73 81  1  0  0  0
 74 76  2  0  0  0
 74 82  1  0  0  0
 75 76  1  0  0  0
 75 83  1  0  0  0
 76 87  1  0  0  0
 77 79  1  0  0  0
 77 81  1  0  0  0
 77149  1  0  0  0
 77150  1  0  0  0
 78 80  1  0  0  0
 78 81  1  0  0  0
 78151  1  0  0  0
 78152  1  0  0  0
 79 86  1  0  0  0
 79153  1  0  0  0
 79154  1  0  0  0
 80 86  1  0  0  0
 80155  1  0  0  0
 80156  1  0  0  0
 81157  1  0  0  0
 82158  1  0  0  0
 82159  1  0  0  0
 82160  1  0  0  0
 83161  1  0  0  0
 83162  1  0  0  0
 83163  1  0  0  0
 84 85  1  0  0  0
 84164  1  0  0  0
 84165  1  0  0  0
 85 87  1  0  0  0
 85166  1  0  0  0
 85167  1  0  0  0
M  ISO  4   1 100  68 101  84 101  86 100
M  END
> <chiral flag>
0

> <version>
0

> <s_m_source_file>
/data/baiqing/PycharmProjects/Reinvent-master-3.2/result/LINK_invent/BTK/process_docking_weight1_custom_sum_contain_oxygen_bond_distance_aromatic_linkinvent_7_9_3/rearranged_h_0159.sdf

> <i_m_source_file_index>
85

> <r_mmod_Potential_Energy-OPLS-2005>
196.91357421875

> <r_mmod_Stretch_Energy-OPLS-2005>
34.0738677978516

> <r_mmod_Bend_Energy-OPLS-2005>
107.9501953125

> <r_mmod_Torsional_Energy-OPLS-2005>
364.987030029297

> <r_mmod_Improper_Torsional_Energy-OPLS-2005>
14.3888530731201

> <r_mmod_Van_der_Waal_Energy-OPLS-2005>
163.640701293945

> <r_mmod_Electrostatic_Energy-OPLS-2005>
-319.201171875

> <r_mmod_Solvation_Energy-OPLS-2005>
-188.02880859375

> <b_mmod_Minimization_Converged-OPLS-2005>
0

> <r_mmod_RMS_Derivative-OPLS-2005>
0.963813185691833

$$$$
85
                    3D
 Structure written by MMmdl.
179189  0  0  1  0            999 V2000
  -30.7096  -14.4645   20.5058 C   0  0  0  0  0  0
  -30.4057  -12.2901   19.4254 C   0  0  0  0  0  0
  -29.4884  -12.4894   18.2032 C   0  0  0  0  0  0
  -28.0059  -12.3674   18.6102 C   0  0  0  0  0  0
  -27.6490  -13.2158   19.8634 C   0  0  2  0  0  0
  -28.6940  -13.0325   20.9880 C   0  0  0  0  0  0
  -25.2530  -13.8178   20.5715 C   0  0  0  0  0  0
  -24.1815  -13.0430   20.9212 C   0  0  0  0  0  0
  -24.6383  -11.6897   20.8760 C   0  0  0  0  0  0
  -23.9043  -10.4279   21.0392 C   0  0  0  0  0  0
  -24.3595   -9.4202   21.9175 C   0  0  0  0  0  0
  -23.6287   -8.2225   22.0744 C   0  0  0  0  0  0
  -22.4271   -8.0259   21.3528 C   0  0  0  0  0  0
  -21.9892   -9.0238   20.4641 C   0  0  0  0  0  0
  -22.7203  -10.2125   20.3047 C   0  0  0  0  0  0
  -21.6850   -6.0720   22.5274 C   0  0  0  0  0  0
  -21.4013   -6.5629   23.8206 C   0  0  0  0  0  0
  -21.3670   -5.6788   24.9174 C   0  0  0  0  0  0
  -21.6033   -4.3045   24.7225 C   0  0  0  0  0  0
  -21.8825   -3.8127   23.4353 C   0  0  0  0  0  0
  -21.9203   -4.6948   22.3399 C   0  0  0  0  0  0
  -22.7836  -13.5226   21.1868 C   0  0  0  0  0  0
  -22.1661   -4.2127   21.0979 F   0  0  0  0  0  0
  -21.5633   -3.4538   25.7742 F   0  0  0  0  0  0
  -30.0197  -13.3004   20.4166 N   0  0  0  0  0  0
  -26.2963  -12.9361   20.3340 N   0  0  0  0  0  0
  -25.9315  -11.6507   20.5768 N   0  0  0  0  0  0
  -22.0487  -12.8214   22.0428 N   0  0  0  0  0  0
  -25.4204  -15.1919   20.4137 N   0  0  0  0  0  0
  -31.9153  -14.5241   20.2694 O   0  0  0  0  0  0
  -21.6627   -6.8865   21.4232 O   0  0  0  0  0  0
  -22.3514  -14.5526   20.6717 O   0  0  0  0  0  0
  -24.6129  -31.8683   23.2066 C   0  0  0  0  0  0
  -25.9025  -32.4823   23.8364 C   0  0  1  0  0  0
  -27.2401  -27.4625   20.0799 C   0  0  0  0  0  0
  -25.5873  -33.8619   24.2303 N   0  0  0  0  0  0
  -23.3975  -30.4895   21.5486 C   0  0  2  0  0  0
  -24.8379  -28.9510   20.1145 C   0  0  0  0  0  0
  -22.7391  -29.4638   22.4990 C   0  0  0  0  0  0
  -18.0266  -28.1364   22.8493 C   0  0  0  0  0  0
  -24.1475  -36.7335   23.2639 C   0  0  0  0  0  0
  -25.9185  -30.8455   21.3432 C   0  0  0  0  0  0
  -25.9952  -29.4768   20.7004 C   0  0  0  0  0  0
  -27.1959  -28.7415   20.6754 C   0  0  0  0  0  0
  -26.0625  -26.9330   19.5036 C   0  0  0  0  0  0
  -24.8654  -27.6775   19.5157 C   0  0  0  0  0  0
  -23.6000  -29.8179   20.1614 C   0  0  0  0  0  0
  -25.4097  -36.3114   24.0335 C   0  0  1  0  0  0
  -20.5855  -28.3622   23.1339 C   0  0  2  0  0  0
  -20.6733  -26.9359   22.5416 C   0  0  0  0  0  0
  -19.5713  -26.6366   21.5205 C   0  0  0  0  0  0
  -18.1899  -26.7907   22.1625 C   0  0  0  0  0  0
  -19.1511  -28.8805   23.2915 C   0  0  0  0  0  0
  -18.9440  -30.1421   23.8922 C   0  0  0  0  0  0
  -17.6447  -30.6560   24.0569 C   0  0  0  0  0  0
  -25.9025  -34.9483   23.5111 C   0  0  0  0  0  0
  -16.5337  -29.9066   23.6324 C   0  0  0  0  0  0
  -16.7257  -28.6493   23.0340 C   0  0  0  0  0  0
  -26.4473  -31.6596   25.0690 C   0  0  0  0  0  0
  -25.3763  -31.3714   26.1455 C   0  0  0  0  0  0
  -27.0270  -30.3045   24.6000 C   0  0  0  0  0  0
  -27.6023  -32.4313   25.7480 C   0  0  0  0  0  0
  -27.5570  -37.1817   24.8468 C   0  0  0  0  0  0
  -21.4119  -29.3013   22.3767 N   0  0  0  0  0  0
  -26.4286  -37.3794   23.9417 N   0  0  0  0  0  0
  -24.6617  -31.0818   22.0935 N   0  0  0  0  0  0
  -23.4165  -28.8182   23.3024 O   0  0  0  0  0  0
  -28.4533  -26.8158   20.0719 O   0  0  0  0  0  0
  -26.5600  -34.8948   22.4686 O   0  0  0  0  0  0
  -23.5334  -32.1401   23.7494 O   0  0  0  0  0  0
  -30.1433  -19.2353   21.4232 C   0  0  0  0  0  0
  -31.2551  -19.6789   20.6670 C   0  0  0  0  0  0
  -29.7406  -17.8820   21.4197 C   0  0  0  0  0  0
  -31.8821  -18.7464   19.7990 C   0  0  0  0  0  0
  -31.3380  -17.4459   19.6275 C   0  0  0  0  0  0
  -30.3617  -16.9507   20.5468 C   0  0  0  0  0  0
  -32.0342  -21.9026   19.5101 C   0  0  0  0  0  0
  -32.6318  -23.8806   20.9583 C   0  0  0  0  0  0
  -29.9030  -22.7571   21.1610 C   0  0  0  0  0  0
  -31.8167  -21.1089   20.8325 C   0  0  1  0  0  0
  -31.1219  -22.0649   21.8485 C   0  0  1  0  0  0
  -32.1783  -23.1374   22.2437 C   0  0  2  0  0  0
  -31.7919  -23.4118   19.7375 C   0  0  2  0  0  0
  -28.6394  -17.4580   22.3829 C   0  0  0  0  0  0
  -33.1760  -19.1042   19.0664 C   0  0  0  0  0  0
  -31.8005  -16.6435   18.4096 C   0  0  0  0  0  0
  -31.7233  -24.0839   23.3701 C   0  0  0  0  0  0
  -29.9891  -25.0618   20.1443 C   0  0  0  0  0  0
  -28.5153  -25.4068   19.8814 C   0  0  0  0  0  0
  -29.9466  -15.5755   20.6138 N   0  0  0  0  0  0
  -30.3424  -23.6200   20.0163 N   0  3  2  0  0  0
  -31.4528  -12.3764   19.1308 H   0  0  0  0  0  0
  -30.2906  -11.2911   19.8438 H   0  0  0  0  0  0
  -29.7265  -11.7562   17.4324 H   0  0  0  0  0  0
  -29.6698  -13.4702   17.7612 H   0  0  0  0  0  0
  -27.8020  -11.3149   18.7979 H   0  0  0  0  0  0
  -27.3666  -12.6469   17.7706 H   0  0  0  0  0  0
  -27.6753  -14.2583   19.5475 H   0  0  0  0  0  0
  -28.6650  -12.0128   21.3768 H   0  0  0  0  0  0
  -28.4821  -13.6895   21.8351 H   0  0  0  0  0  0
  -25.2739   -9.5688   22.4755 H   0  0  0  0  0  0
  -24.0004   -7.4612   22.7468 H   0  0  0  0  0  0
  -21.0820   -8.8749   19.8954 H   0  0  0  0  0  0
  -22.3647  -10.9668   19.6163 H   0  0  0  0  0  0
  -21.1982   -7.6130   23.9706 H   0  0  0  0  0  0
  -21.1494   -6.0511   25.9081 H   0  0  0  0  0  0
  -22.0596   -2.7590   23.2856 H   0  0  0  0  0  0
  -22.4105  -11.9881   22.4815 H   0  0  0  0  0  0
  -21.1108  -13.1244   22.2635 H   0  0  0  0  0  0
  -24.6478  -15.8411   20.5113 H   0  0  0  0  0  0
  -26.2613  -15.6319   20.0639 H   0  0  0  0  0  0
  -26.7101  -32.5537   23.1131 H   0  0  0  0  0  0
  -25.0019  -33.9779   25.0438 H   0  0  0  0  0  0
  -22.6866  -31.3064   21.4122 H   0  0  0  0  0  0
  -23.3721  -35.9679   23.3303 H   0  0  0  0  0  0
  -24.3573  -36.8946   22.2054 H   0  0  0  0  0  0
  -23.7249  -37.6553   23.6650 H   0  0  0  0  0  0
  -26.0063  -31.6043   20.5637 H   0  0  0  0  0  0
  -26.8182  -30.9156   21.9427 H   0  0  0  0  0  0
  -28.0954  -29.1597   21.1063 H   0  0  0  0  0  0
  -26.0561  -25.9640   19.0241 H   0  0  0  0  0  0
  -23.9754  -27.2714   19.0542 H   0  0  0  0  0  0
  -23.7033  -30.5948   19.4020 H   0  0  0  0  0  0
  -22.7246  -29.2344   19.8705 H   0  0  0  0  0  0
  -25.1269  -36.1966   25.0827 H   0  0  0  0  0  0
  -20.9959  -28.3152   24.1452 H   0  0  0  0  0  0
  -20.5600  -26.2234   23.3596 H   0  0  0  0  0  0
  -21.6612  -26.7368   22.1239 H   0  0  0  0  0  0
  -19.6870  -25.6282   21.1204 H   0  0  0  0  0  0
  -19.6652  -27.3214   20.6769 H   0  0  0  0  0  0
  -17.4172  -26.6673   21.4019 H   0  0  0  0  0  0
  -18.0284  -26.0031   22.9010 H   0  0  0  0  0  0
  -19.7925  -30.7236   24.2275 H   0  0  0  0  0  0
  -17.5007  -31.6243   24.5168 H   0  0  0  0  0  0
  -15.5343  -30.2989   23.7613 H   0  0  0  0  0  0
  -15.8667  -28.0833   22.7018 H   0  0  0  0  0  0
  -24.5930  -30.7046   25.7847 H   0  0  0  0  0  0
  -24.8966  -32.2879   26.4902 H   0  0  0  0  0  0
  -25.8149  -30.8922   27.0213 H   0  0  0  0  0  0
  -26.2768  -29.6840   24.1080 H   0  0  0  0  0  0
  -27.4112  -29.7247   25.4406 H   0  0  0  0  0  0
  -27.8573  -30.4412   23.9060 H   0  0  0  0  0  0
  -27.2600  -33.3598   26.2070 H   0  0  0  0  0  0
  -28.3844  -32.6896   25.0328 H   0  0  0  0  0  0
  -28.0665  -31.8425   26.5403 H   0  0  0  0  0  0
  -28.2597  -38.0107   24.7498 H   0  0  0  0  0  0
  -28.1042  -36.2636   24.6278 H   0  0  0  0  0  0
  -27.2293  -37.1465   25.8874 H   0  0  0  0  0  0
  -20.9241  -29.8806   21.7076 H   0  0  0  0  0  0
  -26.0163  -38.2862   24.1421 H   0  0  0  0  0  0
  -29.6193  -19.9145   22.0782 H   0  0  0  0  0  0
  -31.3663  -21.5420   18.7261 H   0  0  0  0  0  0
  -33.0501  -21.7684   19.1406 H   0  0  0  0  0  0
  -33.6854  -23.6711   20.7717 H   0  0  0  0  0  0
  -32.5813  -24.9611   21.0816 H   0  0  0  0  0  0
  -29.3276  -23.3251   21.8922 H   0  0  0  0  0  0
  -29.2196  -22.0009   20.7700 H   0  0  0  0  0  0
  -32.8031  -20.9179   21.2529 H   0  0  0  0  0  0
  -30.8290  -21.5369   22.7553 H   0  0  0  0  0  0
  -33.0519  -22.6195   22.6436 H   0  0  0  0  0  0
  -32.0884  -23.9609   18.8426 H   0  0  0  0  0  0
  -28.8752  -16.5093   22.8628 H   0  0  0  0  0  0
  -27.6832  -17.3658   21.8681 H   0  0  0  0  0  0
  -28.5187  -18.1862   23.1870 H   0  0  0  0  0  0
  -33.8380  -19.7074   19.6855 H   0  0  0  0  0  0
  -32.9636  -19.6422   18.1466 H   0  0  0  0  0  0
  -33.7703  -18.2281   18.8115 H   0  0  0  0  0  0
  -31.8954  -17.2962   17.5415 H   0  0  0  0  0  0
  -31.0886  -15.8716   18.1238 H   0  0  0  0  0  0
  -32.7727  -16.1831   18.5874 H   0  0  0  0  0  0
  -31.5881  -23.5360   24.3033 H   0  0  0  0  0  0
  -30.7811  -24.5799   23.1511 H   0  0  0  0  0  0
  -32.4663  -24.8622   23.5588 H   0  0  0  0  0  0
  -30.2781  -25.4322   21.1263 H   0  0  0  0  0  0
  -30.5856  -25.6305   19.4277 H   0  0  0  0  0  0
  -28.2320  -25.1347   18.8643 H   0  0  0  0  0  0
  -27.8511  -24.8916   20.5782 H   0  0  0  0  0  0
  -28.9826  -15.4120   20.8583 H   0  0  0  0  0  0
  -29.8528  -23.2871   19.1979 H   0  0  0  0  0  0
  1 25  1  0  0  0
  1 30  2  0  0  0
  1 90  1  0  0  0
  2  3  1  0  0  0
  2 25  1  0  0  0
  2 92  1  0  0  0
  2 93  1  0  0  0
  3  4  1  0  0  0
  3 94  1  0  0  0
  3 95  1  0  0  0
  4  5  1  0  0  0
  4 96  1  0  0  0
  4 97  1  0  0  0
  5  6  1  0  0  0
  5 26  1  0  0  0
  5 98  1  0  0  0
  6 25  1  0  0  0
  6 99  1  0  0  0
  6100  1  0  0  0
  7  8  2  0  0  0
  7 26  1  0  0  0
  7 29  1  0  0  0
  8  9  1  0  0  0
  8 22  1  0  0  0
  9 10  1  0  0  0
  9 27  2  0  0  0
 10 11  2  0  0  0
 10 15  1  0  0  0
 11 12  1  0  0  0
 11101  1  0  0  0
 12 13  2  0  0  0
 12102  1  0  0  0
 13 14  1  0  0  0
 13 31  1  0  0  0
 14 15  2  0  0  0
 14103  1  0  0  0
 15104  1  0  0  0
 16 17  2  0  0  0
 16 21  1  0  0  0
 16 31  1  0  0  0
 17 18  1  0  0  0
 17105  1  0  0  0
 18 19  2  0  0  0
 18106  1  0  0  0
 19 20  1  0  0  0
 19 24  1  0  0  0
 20 21  2  0  0  0
 20107  1  0  0  0
 21 23  1  0  0  0
 22 28  1  0  0  0
 22 32  2  0  0  0
 26 27  1  0  0  0
 28108  1  0  0  0
 28109  1  0  0  0
 29110  1  0  0  0
 29111  1  0  0  0
 33 34  1  0  0  0
 33 66  1  0  0  0
 33 70  2  0  0  0
 34 36  1  0  0  0
 34 59  1  0  0  0
 34112  1  0  0  0
 35 44  2  0  0  0
 35 45  1  0  0  0
 35 68  1  0  0  0
 36 56  1  0  0  0
 36113  1  0  0  0
 37 39  1  0  0  0
 37 47  1  0  0  0
 37 66  1  0  0  0
 37114  1  0  0  0
 38 43  2  0  0  0
 38 46  1  0  0  0
 38 47  1  0  0  0
 39 64  1  0  0  0
 39 67  2  0  0  0
 40 52  1  0  0  0
 40 53  2  0  0  0
 40 58  1  0  0  0
 41115  1  0  0  0
 41116  1  0  0  0
 41117  1  0  0  0
 41 48  1  0  0  0
 42 43  1  0  0  0
 42 66  1  0  0  0
 42118  1  0  0  0
 42119  1  0  0  0
 43 44  1  0  0  0
 44120  1  0  0  0
 45 46  2  0  0  0
 45121  1  0  0  0
 46122  1  0  0  0
 47123  1  0  0  0
 47124  1  0  0  0
 48 56  1  0  0  0
 48 65  1  0  0  0
 48125  1  0  0  0
 49 50  1  0  0  0
 49 53  1  0  0  0
 49 64  1  0  0  0
 49126  1  0  0  0
 50 51  1  0  0  0
 50127  1  0  0  0
 50128  1  0  0  0
 51 52  1  0  0  0
 51129  1  0  0  0
 51130  1  0  0  0
 52131  1  0  0  0
 52132  1  0  0  0
 53 54  1  0  0  0
 54 55  2  0  0  0
 54133  1  0  0  0
 55 57  1  0  0  0
 55134  1  0  0  0
 56 69  2  0  0  0
 57 58  2  0  0  0
 57135  1  0  0  0
 58136  1  0  0  0
 59 60  1  0  0  0
 59 61  1  0  0  0
 59 62  1  0  0  0
 60137  1  0  0  0
 60138  1  0  0  0
 60139  1  0  0  0
 61140  1  0  0  0
 61141  1  0  0  0
 61142  1  0  0  0
 62143  1  0  0  0
 62144  1  0  0  0
 62145  1  0  0  0
 63 65  1  0  0  0
 63146  1  0  0  0
 63147  1  0  0  0
 63148  1  0  0  0
 64149  1  0  0  0
 65150  1  0  0  0
 68 89  1  0  0  0
 71 72  2  0  0  0
 71 73  1  0  0  0
 71151  1  0  0  0
 72 74  1  0  0  0
 72 80  1  0  0  0
 73 76  2  0  0  0
 73 84  1  0  0  0
 74 75  2  0  0  0
 74 85  1  0  0  0
 75 76  1  0  0  0
 75 86  1  0  0  0
 76 90  1  0  0  0
 77 80  1  0  0  0
 77152  1  0  0  0
 77153  1  0  0  0
 77 83  1  0  0  0
 78 82  1  0  0  0
 78 83  1  0  0  0
 78154  1  0  0  0
 78155  1  0  0  0
 79 91  1  0  0  0
 79156  1  0  0  0
 79157  1  0  0  0
 79 81  1  0  0  0
 80 81  1  0  0  0
 80158  1  0  0  0
 81 82  1  0  0  0
 81159  1  0  0  0
 82 87  1  0  0  0
 82160  1  0  0  0
 83 91  1  0  0  0
 83161  1  0  0  0
 84162  1  0  0  0
 84163  1  0  0  0
 84164  1  0  0  0
 85165  1  0  0  0
 85166  1  0  0  0
 85167  1  0  0  0
 86168  1  0  0  0
 86169  1  0  0  0
 86170  1  0  0  0
 87171  1  0  0  0
 87172  1  0  0  0
 87173  1  0  0  0
 88 89  1  0  0  0
 88174  1  0  0  0
 88175  1  0  0  0
 88 91  1  0  0  0
 89176  1  0  0  0
 89177  1  0  0  0
 90178  1  0  0  0
 91179  1  0  0  0
M  CHG  1  91   1
M  ISO  4   1 100  68 101  89 101  90 100
M  END
> <chiral flag>
0

> <version>
0

> <s_m_source_file>
/data/baiqing/PycharmProjects/Reinvent-master-3.2/result/LINK_invent/BTK/process_docking_weight1_custom_sum_contain_oxygen_bond_distance_aromatic_linkinvent_7_9_3/rearranged_h_0159.sdf

> <i_m_source_file_index>
86

> <r_mmod_Potential_Energy-OPLS-2005>
53.9067039489746

> <r_mmod_Stretch_Energy-OPLS-2005>
46.9073257446289

> <r_mmod_Bend_Energy-OPLS-2005>
130.815368652344

> <r_mmod_Torsional_Energy-OPLS-2005>
356.880859375

> <r_mmod_Improper_Torsional_Energy-OPLS-2005>
6.3055305480957

> <r_mmod_Van_der_Waal_Energy-OPLS-2005>
205.515975952148

> <r_mmod_Electrostatic_Energy-OPLS-2005>
-305.276580810547

> <r_mmod_Solvation_Energy-OPLS-2005>
-409.740844726562

> <b_mmod_Minimization_Converged-OPLS-2005>
0

> <r_mmod_RMS_Derivative-OPLS-2005>
3.60799884796143

$$$$
86
                    3D
 Structure written by MMmdl.
182192  0  0  1  0            999 V2000
  -30.8861  -14.1522   20.8233 C   0  0  0  0  0  0
  -30.3958  -12.2869   19.3065 C   0  0  0  0  0  0
  -29.4356  -12.5627   18.1468 C   0  0  0  0  0  0
  -27.9769  -12.3959   18.6002 C   0  0  0  0  0  0
  -27.6664  -13.2010   19.8881 C   0  0  2  0  0  0
  -28.7201  -12.9225   20.9846 C   0  0  0  0  0  0
  -25.2594  -13.8181   20.5718 C   0  0  0  0  0  0
  -24.1822  -13.0474   20.9195 C   0  0  0  0  0  0
  -24.6371  -11.6937   20.8770 C   0  0  0  0  0  0
  -23.9052  -10.4311   21.0430 C   0  0  0  0  0  0
  -24.3607   -9.4216   21.9198 C   0  0  0  0  0  0
  -23.6284   -8.2247   22.0740 C   0  0  0  0  0  0
  -22.4259   -8.0285   21.3544 C   0  0  0  0  0  0
  -21.9911   -9.0255   20.4641 C   0  0  0  0  0  0
  -22.7239  -10.2139   20.3066 C   0  0  0  0  0  0
  -21.6850   -6.0728   22.5279 C   0  0  0  0  0  0
  -21.4012   -6.5637   23.8211 C   0  0  0  0  0  0
  -21.3652   -5.6794   24.9178 C   0  0  0  0  0  0
  -21.6046   -4.3052   24.7234 C   0  0  0  0  0  0
  -21.8818   -3.8142   23.4357 C   0  0  0  0  0  0
  -21.9187   -4.6957   22.3413 C   0  0  0  0  0  0
  -22.7841  -13.5246   21.1859 C   0  0  0  0  0  0
  -22.1657   -4.2140   21.0995 F   0  0  0  0  0  0
  -21.5630   -3.4540   25.7750 F   0  0  0  0  0  0
  -30.0520  -13.1763   20.4155 N   0  0  0  0  0  0
  -26.3053  -12.9343   20.3514 N   0  0  0  0  0  0
  -25.9309  -11.6501   20.5862 N   0  0  0  0  0  0
  -22.0489  -12.8214   22.0415 N   0  0  0  0  0  0
  -25.4359  -15.1895   20.4070 N   0  0  0  0  0  0
  -31.7108  -14.6907   20.0732 O   0  0  0  0  0  0
  -21.6633   -6.8877   21.4239 O   0  0  0  0  0  0
  -22.3533  -14.5559   20.6731 O   0  0  0  0  0  0
  -24.6047  -31.8720   23.2102 C   0  0  0  0  0  0
  -25.8977  -32.4837   23.8393 C   0  0  1  0  0  0
  -27.2437  -27.5087   20.0833 C   0  0  0  0  0  0
  -25.5891  -33.8625   24.2337 N   0  0  0  0  0  0
  -23.3898  -30.4944   21.5460 C   0  0  2  0  0  0
  -24.8396  -28.9566   20.1234 C   0  0  0  0  0  0
  -22.7376  -29.4677   22.4970 C   0  0  0  0  0  0
  -18.0316  -28.1393   22.8454 C   0  0  0  0  0  0
  -24.1504  -36.7292   23.2649 C   0  0  0  0  0  0
  -25.9097  -30.8563   21.3562 C   0  0  0  0  0  0
  -25.9913  -29.4945   20.7111 C   0  0  0  0  0  0
  -27.1975  -28.7743   20.6905 C   0  0  0  0  0  0
  -26.0830  -26.9585   19.5042 C   0  0  0  0  0  0
  -24.8748  -27.6827   19.5267 C   0  0  0  0  0  0
  -23.5993  -29.8149   20.1659 C   0  0  0  0  0  0
  -25.4115  -36.3083   24.0360 C   0  0  1  0  0  0
  -20.5878  -28.3651   23.1319 C   0  0  2  0  0  0
  -20.6810  -26.9403   22.5396 C   0  0  0  0  0  0
  -19.5806  -26.6377   21.5180 C   0  0  0  0  0  0
  -18.1975  -26.7940   22.1584 C   0  0  0  0  0  0
  -19.1550  -28.8833   23.2894 C   0  0  0  0  0  0
  -18.9501  -30.1449   23.8884 C   0  0  0  0  0  0
  -17.6511  -30.6580   24.0575 C   0  0  0  0  0  0
  -25.9035  -34.9466   23.5139 C   0  0  0  0  0  0
  -16.5396  -29.9080   23.6351 C   0  0  0  0  0  0
  -16.7304  -28.6535   23.0302 C   0  0  0  0  0  0
  -26.4458  -31.6600   25.0680 C   0  0  0  0  0  0
  -25.3759  -31.3737   26.1455 C   0  0  0  0  0  0
  -27.0257  -30.3050   24.5982 C   0  0  0  0  0  0
  -27.6037  -32.4312   25.7461 C   0  0  0  0  0  0
  -27.5602  -37.1798   24.8479 C   0  0  0  0  0  0
  -21.4103  -29.3029   22.3727 N   0  0  0  0  0  0
  -26.4297  -37.3761   23.9439 N   0  0  0  0  0  0
  -24.6513  -31.0878   22.0979 N   0  0  0  0  0  0
  -23.4208  -28.8239   23.2981 O   0  0  0  0  0  0
  -28.4431  -26.8626   19.9940 O   0  0  0  0  0  0
  -26.5544  -34.8922   22.4666 O   0  0  0  0  0  0
  -23.5261  -32.1449   23.7555 O   0  0  0  0  0  0
  -31.0426  -17.6744   21.4732 C   0  0  0  0  0  0
  -31.9902  -19.9153   21.5385 C   0  0  0  0  0  0
  -31.1083  -18.9715   20.9479 C   0  0  0  0  0  0
  -32.9355  -19.4468   22.4935 C   0  0  0  0  0  0
  -32.7904  -18.1484   23.0577 C   0  0  0  0  0  0
  -31.7800  -17.2623   22.6046 C   0  0  0  0  0  0
  -31.8367  -22.0418   19.9559 C   0  0  0  0  0  0
  -30.4664  -21.7865   22.1195 C   0  0  0  0  0  0
  -30.2671  -15.3432   23.0687 C   0  0  0  0  0  0
  -32.3393  -14.9163   22.8333 C   0  0  0  0  0  0
  -30.5367  -22.7319   19.4681 C   0  0  0  0  0  0
  -30.1225  -23.2486   21.9109 C   0  0  0  0  0  0
  -31.7541  -21.4259   21.3728 C   0  0  1  0  0  0
  -31.0492  -14.2353   22.3550 C   0  0  0  0  0  0
  -30.1598  -19.2892   19.7997 C   0  0  0  0  0  0
  -34.0942  -20.3316   22.9498 C   0  0  0  0  0  0
  -33.7024  -17.6926   24.2009 C   0  0  0  0  0  0
  -28.8968  -26.2917   22.2803 C   0  0  0  0  0  0
  -29.8052  -25.0075   20.2027 C   0  0  0  0  0  0
  -28.6236  -25.7569   20.8563 C   0  0  2  0  0  0
  -31.5331  -16.0392   23.2939 N   0  0  0  0  0  0
  -29.8109  -23.5541   20.4917 N   0  3  1  0  0  0
  -31.4272  -12.4171   18.9724 H   0  0  0  0  0  0
  -30.3142  -11.2486   19.6325 H   0  0  0  0  0  0
  -29.6482  -11.8977   17.3090 H   0  0  0  0  0  0
  -29.5889  -13.5792   17.7831 H   0  0  0  0  0  0
  -27.7907  -11.3336   18.7694 H   0  0  0  0  0  0
  -27.2996  -12.7014   17.8013 H   0  0  0  0  0  0
  -27.7342  -14.2592   19.6318 H   0  0  0  0  0  0
  -28.6589  -11.8870   21.3244 H   0  0  0  0  0  0
  -28.5140  -13.5474   21.8539 H   0  0  0  0  0  0
  -25.2752   -9.5681   22.4778 H   0  0  0  0  0  0
  -23.9995   -7.4633   22.7445 H   0  0  0  0  0  0
  -21.0850   -8.8773   19.8942 H   0  0  0  0  0  0
  -22.3704  -10.9672   19.6166 H   0  0  0  0  0  0
  -21.1995   -7.6144   23.9714 H   0  0  0  0  0  0
  -21.1480   -6.0525   25.9078 H   0  0  0  0  0  0
  -22.0598   -2.7602   23.2867 H   0  0  0  0  0  0
  -22.4083  -11.9846   22.4763 H   0  0  0  0  0  0
  -21.1109  -13.1231   22.2653 H   0  0  0  0  0  0
  -24.6803  -15.8572   20.5143 H   0  0  0  0  0  0
  -26.2971  -15.6186   20.0934 H   0  0  0  0  0  0
  -26.7042  -32.5559   23.1156 H   0  0  0  0  0  0
  -25.0150  -33.9794   25.0558 H   0  0  0  0  0  0
  -22.6769  -31.3095   21.3990 H   0  0  0  0  0  0
  -23.3759  -35.9630   23.3286 H   0  0  0  0  0  0
  -24.3632  -36.8886   22.2074 H   0  0  0  0  0  0
  -23.7261  -37.6513   23.6633 H   0  0  0  0  0  0
  -26.0112  -31.6222   20.5852 H   0  0  0  0  0  0
  -26.8037  -30.9107   21.9664 H   0  0  0  0  0  0
  -28.0959  -29.1905   21.1250 H   0  0  0  0  0  0
  -26.1200  -25.9925   19.0206 H   0  0  0  0  0  0
  -23.9861  -27.2602   19.0781 H   0  0  0  0  0  0
  -23.7106  -30.5816   19.3991 H   0  0  0  0  0  0
  -22.7282  -29.2274   19.8727 H   0  0  0  0  0  0
  -25.1288  -36.1967   25.0855 H   0  0  0  0  0  0
  -20.9989  -28.3199   24.1424 H   0  0  0  0  0  0
  -20.5724  -26.2240   23.3553 H   0  0  0  0  0  0
  -21.6689  -26.7449   22.1198 H   0  0  0  0  0  0
  -19.6994  -25.6277   21.1230 H   0  0  0  0  0  0
  -19.6805  -27.3167   20.6702 H   0  0  0  0  0  0
  -17.4262  -26.6673   21.3982 H   0  0  0  0  0  0
  -18.0408  -26.0081   22.8986 H   0  0  0  0  0  0
  -19.7998  -30.7266   24.2214 H   0  0  0  0  0  0
  -17.5096  -31.6263   24.5169 H   0  0  0  0  0  0
  -15.5415  -30.2998   23.7685 H   0  0  0  0  0  0
  -15.8706  -28.0881   22.6956 H   0  0  0  0  0  0
  -24.5927  -30.7061   25.7834 H   0  0  0  0  0  0
  -24.8953  -32.2916   26.4867 H   0  0  0  0  0  0
  -25.8145  -30.8976   27.0233 H   0  0  0  0  0  0
  -26.2759  -29.6848   24.1038 H   0  0  0  0  0  0
  -27.4083  -29.7238   25.4381 H   0  0  0  0  0  0
  -27.8577  -30.4383   23.9053 H   0  0  0  0  0  0
  -27.2647  -33.3602   26.2065 H   0  0  0  0  0  0
  -28.3864  -32.6897   25.0311 H   0  0  0  0  0  0
  -28.0672  -31.8409   26.5374 H   0  0  0  0  0  0
  -28.2577  -38.0126   24.7500 H   0  0  0  0  0  0
  -28.1132  -36.2643   24.6304 H   0  0  0  0  0  0
  -27.2330  -37.1457   25.8884 H   0  0  0  0  0  0
  -20.9239  -29.8713   21.6935 H   0  0  0  0  0  0
  -26.0195  -38.2847   24.1421 H   0  0  0  0  0  0
  -30.3338  -17.0021   21.0181 H   0  0  0  0  0  0
  -32.6285  -22.7942   19.9526 H   0  0  0  0  0  0
  -32.1687  -21.3071   19.2237 H   0  0  0  0  0  0
  -29.6178  -21.1735   21.8220 H   0  0  0  0  0  0
  -30.6049  -21.5923   23.1835 H   0  0  0  0  0  0
  -29.8242  -15.0003   24.0039 H   0  0  0  0  0  0
  -29.5137  -15.8516   22.4707 H   0  0  0  0  0  0
  -33.0647  -15.1711   22.0586 H   0  0  0  0  0  0
  -32.8111  -14.3844   23.6599 H   0  0  0  0  0  0
  -29.8332  -21.9744   19.1297 H   0  0  0  0  0  0
  -30.7514  -23.3124   18.5712 H   0  0  0  0  0  0
  -30.9447  -23.8700   22.2691 H   0  0  0  0  0  0
  -29.2495  -23.4668   22.5226 H   0  0  0  0  0  0
  -32.5108  -21.9772   21.9217 H   0  0  0  0  0  0
  -30.9139  -13.2598   22.8246 H   0  0  0  0  0  0
  -29.6349  -18.3946   19.4630 H   0  0  0  0  0  0
  -30.7034  -19.6660   18.9365 H   0  0  0  0  0  0
  -29.3830  -19.9935   20.0815 H   0  0  0  0  0  0
  -34.3562  -21.0892   22.2145 H   0  0  0  0  0  0
  -35.0040  -19.7442   23.0709 H   0  0  0  0  0  0
  -33.8709  -20.8217   23.8972 H   0  0  0  0  0  0
  -34.1486  -18.5184   24.7517 H   0  0  0  0  0  0
  -34.5079  -17.0677   23.8121 H   0  0  0  0  0  0
  -33.1564  -17.1082   24.9431 H   0  0  0  0  0  0
  -29.0568  -25.5075   23.0147 H   0  0  0  0  0  0
  -28.0487  -26.8661   22.6527 H   0  0  0  0  0  0
  -29.7705  -26.9428   22.2997 H   0  0  0  0  0  0
  -30.7583  -25.4714   20.4532 H   0  0  0  0  0  0
  -29.6921  -25.1223   19.1218 H   0  0  0  0  0  0
  -27.7282  -25.1304   20.8453 H   0  0  0  0  0  0
  -28.8509  -23.2658   20.3615 H   0  0  0  0  0  0
  1 25  1  0  0  0
  1 30  2  0  0  0
  1 84  1  0  0  0
  2  3  1  0  0  0
  2 25  1  0  0  0
  2 93  1  0  0  0
  2 94  1  0  0  0
  3  4  1  0  0  0
  3 95  1  0  0  0
  3 96  1  0  0  0
  4  5  1  0  0  0
  4 97  1  0  0  0
  4 98  1  0  0  0
  5  6  1  0  0  0
  5 26  1  0  0  0
  5 99  1  0  0  0
  6 25  1  0  0  0
  6100  1  0  0  0
  6101  1  0  0  0
  7  8  2  0  0  0
  7 26  1  0  0  0
  7 29  1  0  0  0
  8  9  1  0  0  0
  8 22  1  0  0  0
  9 10  1  0  0  0
  9 27  2  0  0  0
 10 11  2  0  0  0
 10 15  1  0  0  0
 11 12  1  0  0  0
 11102  1  0  0  0
 12 13  2  0  0  0
 12103  1  0  0  0
 13 14  1  0  0  0
 13 31  1  0  0  0
 14 15  2  0  0  0
 14104  1  0  0  0
 15105  1  0  0  0
 16 17  2  0  0  0
 16 21  1  0  0  0
 16 31  1  0  0  0
 17 18  1  0  0  0
 17106  1  0  0  0
 18 19  2  0  0  0
 18107  1  0  0  0
 19 20  1  0  0  0
 19 24  1  0  0  0
 20 21  2  0  0  0
 20108  1  0  0  0
 21 23  1  0  0  0
 22 28  1  0  0  0
 22 32  2  0  0  0
 26 27  1  0  0  0
 28109  1  0  0  0
 28110  1  0  0  0
 29111  1  0  0  0
 29112  1  0  0  0
 33 34  1  0  0  0
 33 66  1  0  0  0
 33 70  2  0  0  0
 34 36  1  0  0  0
 34 59  1  0  0  0
 34113  1  0  0  0
 35 44  2  0  0  0
 35 45  1  0  0  0
 35 68  1  0  0  0
 36 56  1  0  0  0
 36114  1  0  0  0
 37 39  1  0  0  0
 37 47  1  0  0  0
 37 66  1  0  0  0
 37115  1  0  0  0
 38 43  2  0  0  0
 38 46  1  0  0  0
 38 47  1  0  0  0
 39 64  1  0  0  0
 39 67  2  0  0  0
 40 52  1  0  0  0
 40 53  2  0  0  0
 40 58  1  0  0  0
 41116  1  0  0  0
 41117  1  0  0  0
 41118  1  0  0  0
 41 48  1  0  0  0
 42 43  1  0  0  0
 42 66  1  0  0  0
 42119  1  0  0  0
 42120  1  0  0  0
 43 44  1  0  0  0
 44121  1  0  0  0
 45 46  2  0  0  0
 45122  1  0  0  0
 46123  1  0  0  0
 47124  1  0  0  0
 47125  1  0  0  0
 48 56  1  0  0  0
 48 65  1  0  0  0
 48126  1  0  0  0
 49 50  1  0  0  0
 49 53  1  0  0  0
 49 64  1  0  0  0
 49127  1  0  0  0
 50 51  1  0  0  0
 50128  1  0  0  0
 50129  1  0  0  0
 51 52  1  0  0  0
 51130  1  0  0  0
 51131  1  0  0  0
 52132  1  0  0  0
 52133  1  0  0  0
 53 54  1  0  0  0
 54 55  2  0  0  0
 54134  1  0  0  0
 55 57  1  0  0  0
 55135  1  0  0  0
 56 69  2  0  0  0
 57 58  2  0  0  0
 57136  1  0  0  0
 58137  1  0  0  0
 59 60  1  0  0  0
 59 61  1  0  0  0
 59 62  1  0  0  0
 60138  1  0  0  0
 60139  1  0  0  0
 60140  1  0  0  0
 61141  1  0  0  0
 61142  1  0  0  0
 61143  1  0  0  0
 62144  1  0  0  0
 62145  1  0  0  0
 62146  1  0  0  0
 63 65  1  0  0  0
 63147  1  0  0  0
 63148  1  0  0  0
 63149  1  0  0  0
 64150  1  0  0  0
 65151  1  0  0  0
 68 90  1  0  0  0
 71 73  2  0  0  0
 71 76  1  0  0  0
 71152  1  0  0  0
 72 73  1  0  0  0
 72 74  2  0  0  0
 72 83  1  0  0  0
 73 85  1  0  0  0
 74 75  1  0  0  0
 74 86  1  0  0  0
 75 76  2  0  0  0
 75 87  1  0  0  0
 76 91  1  0  0  0
 77 81  1  0  0  0
 77 83  1  0  0  0
 77153  1  0  0  0
 77154  1  0  0  0
 78 82  1  0  0  0
 78 83  1  0  0  0
 78155  1  0  0  0
 78156  1  0  0  0
 79 84  1  0  0  0
 79 91  1  0  0  0
 79157  1  0  0  0
 79158  1  0  0  0
 80 84  1  0  0  0
 80 91  1  0  0  0
 80159  1  0  0  0
 80160  1  0  0  0
 81 92  1  0  0  0
 81161  1  0  0  0
 81162  1  0  0  0
 82 92  1  0  0  0
 82163  1  0  0  0
 82164  1  0  0  0
 83165  1  0  0  0
 84166  1  0  0  0
 85167  1  0  0  0
 85168  1  0  0  0
 85169  1  0  0  0
 86170  1  0  0  0
 86171  1  0  0  0
 86172  1  0  0  0
 87173  1  0  0  0
 87174  1  0  0  0
 87175  1  0  0  0
 88176  1  0  0  0
 88177  1  0  0  0
 88178  1  0  0  0
 88 90  1  0  0  0
 89 90  1  0  0  0
 89179  1  0  0  0
 89180  1  0  0  0
 89 92  1  0  0  0
 90181  1  0  0  0
 92182  1  0  0  0
M  CHG  1  92   1
M  ISO  4   1 100  68 101  84 100  90 101
M  END
> <chiral flag>
0

> <version>
0

> <s_m_source_file>
/data/baiqing/PycharmProjects/Reinvent-master-3.2/result/LINK_invent/BTK/process_docking_weight1_custom_sum_contain_oxygen_bond_distance_aromatic_linkinvent_7_9_3/rearranged_h_0159.sdf

> <i_m_source_file_index>
87

> <r_mmod_Potential_Energy-OPLS-2005>
58.9945945739746

> <r_mmod_Stretch_Energy-OPLS-2005>
36.9618148803711

> <r_mmod_Bend_Energy-OPLS-2005>
143.116622924805

> <r_mmod_Torsional_Energy-OPLS-2005>
340.575897216797

> <r_mmod_Improper_Torsional_Energy-OPLS-2005>
18.7196178436279

> <r_mmod_Van_der_Waal_Energy-OPLS-2005>
187.597229003906

> <r_mmod_Electrostatic_Energy-OPLS-2005>
-266.123321533203

> <r_mmod_Solvation_Energy-OPLS-2005>
-420.066375732422

> <b_mmod_Minimization_Converged-OPLS-2005>
0

> <r_mmod_RMS_Derivative-OPLS-2005>
3.88043069839478

$$$$
87
                    3D
 Structure written by MMmdl.
158167  0  0  1  0            999 V2000
  -30.5698  -14.9496   20.4082 C   0  0  0  0  0  0
  -30.4320  -12.5953   19.4736 C   0  0  0  0  0  0
  -29.5091  -12.5369   18.2351 C   0  0  0  0  0  0
  -28.0481  -12.3151   18.6652 C   0  0  0  0  0  0
  -27.6284  -13.2505   19.8300 C   0  0  2  0  0  0
  -28.6776  -13.2990   20.9626 C   0  0  0  0  0  0
  -25.2480  -13.8225   20.5739 C   0  0  0  0  0  0
  -24.1799  -13.0446   20.9253 C   0  0  0  0  0  0
  -24.6385  -11.6921   20.8754 C   0  0  0  0  0  0
  -23.9047  -10.4302   21.0397 C   0  0  0  0  0  0
  -24.3609   -9.4239   21.9183 C   0  0  0  0  0  0
  -23.6300   -8.2262   22.0751 C   0  0  0  0  0  0
  -22.4294   -8.0281   21.3527 C   0  0  0  0  0  0
  -21.9922   -9.0236   20.4615 C   0  0  0  0  0  0
  -22.7226  -10.2126   20.3022 C   0  0  0  0  0  0
  -21.6863   -6.0733   22.5265 C   0  0  0  0  0  0
  -21.4030   -6.5638   23.8199 C   0  0  0  0  0  0
  -21.3668   -5.6793   24.9174 C   0  0  0  0  0  0
  -21.6044   -4.3054   24.7230 C   0  0  0  0  0  0
  -21.8820   -3.8134   23.4352 C   0  0  0  0  0  0
  -21.9201   -4.6953   22.3408 C   0  0  0  0  0  0
  -22.7823  -13.5209   21.1906 C   0  0  0  0  0  0
  -22.1673   -4.2138   21.0991 F   0  0  0  0  0  0
  -21.5632   -3.4535   25.7743 F   0  0  0  0  0  0
  -29.9488  -13.7023   20.3499 N   0  0  0  0  0  0
  -26.2895  -12.9459   20.3239 N   0  0  0  0  0  0
  -25.9319  -11.6580   20.5729 N   0  0  0  0  0  0
  -22.0468  -12.8152   22.0419 N   0  0  0  0  0  0
  -25.4148  -15.1964   20.4195 N   0  0  0  0  0  0
  -31.7836  -14.9635   20.1805 O   0  0  0  0  0  0
  -21.6651   -6.8873   21.4226 O   0  0  0  0  0  0
  -22.3497  -14.5512   20.6751 O   0  0  0  0  0  0
  -24.6432  -31.8438   23.1874 C   0  0  0  0  0  0
  -25.9219  -32.4683   23.8244 C   0  0  1  0  0  0
  -27.2123  -27.1379   20.1374 C   0  0  0  0  0  0
  -25.5969  -33.8488   24.2183 N   0  0  0  0  0  0
  -23.4446  -30.4648   21.5333 C   0  0  2  0  0  0
  -24.8935  -28.8970   20.1037 C   0  0  0  0  0  0
  -22.7560  -29.4548   22.4853 C   0  0  0  0  0  0
  -18.0304  -28.1403   22.8478 C   0  0  0  0  0  0
  -24.1515  -36.7274   23.2634 C   0  0  0  0  0  0
  -26.0003  -30.7192   21.3824 C   0  0  0  0  0  0
  -26.0714  -29.3297   20.7260 C   0  0  0  0  0  0
  -27.2315  -28.4666   20.7284 C   0  0  0  0  0  0
  -26.0128  -26.8162   19.4643 C   0  0  0  0  0  0
  -24.8790  -27.6557   19.4521 C   0  0  0  0  0  0
  -23.6689  -29.7973   20.1512 C   0  0  0  0  0  0
  -25.4139  -36.3024   24.0307 C   0  0  1  0  0  0
  -20.5913  -28.3724   23.1239 C   0  0  2  0  0  0
  -20.6791  -26.9432   22.5390 C   0  0  0  0  0  0
  -19.5759  -26.6399   21.5203 C   0  0  0  0  0  0
  -18.1944  -26.7939   22.1623 C   0  0  0  0  0  0
  -19.1560  -28.8880   23.2853 C   0  0  0  0  0  0
  -18.9466  -30.1472   23.8887 C   0  0  0  0  0  0
  -17.6463  -30.6591   24.0562 C   0  0  0  0  0  0
  -25.9083  -34.9402   23.5060 C   0  0  0  0  0  0
  -16.5358  -29.9085   23.6329 C   0  0  0  0  0  0
  -16.7287  -28.6499   23.0355 C   0  0  0  0  0  0
  -26.4556  -31.6520   25.0665 C   0  0  0  0  0  0
  -25.3742  -31.3671   26.1348 C   0  0  0  0  0  0
  -27.0399  -30.2916   24.6193 C   0  0  0  0  0  0
  -27.6099  -32.4260   25.7466 C   0  0  0  0  0  0
  -27.5591  -37.1790   24.8460 C   0  0  0  0  0  0
  -21.4251  -29.3045   22.3614 N   0  0  0  0  0  0
  -26.4303  -37.3734   23.9401 N   0  0  0  0  0  0
  -24.7166  -31.0298   22.0902 N   0  0  0  0  0  0
  -23.4213  -28.8100   23.3000 O   0  0  0  0  0  0
  -28.2504  -26.1365   20.2151 O   0  0  0  0  0  0
  -26.5659  -34.8901   22.4637 O   0  0  0  0  0  0
  -23.5564  -32.1317   23.7118 O   0  0  0  0  0  0
  -28.5864  -21.8925   20.2021 C   0  0  0  0  0  0
  -30.7563  -21.2094   20.9813 C   0  0  0  0  0  0
  -30.2035  -23.6137   20.7615 C   0  0  0  0  0  0
  -29.4933  -20.7552   20.5229 C   0  0  0  0  0  0
  -28.8985  -23.3457   20.3183 C   0  0  0  0  0  0
  -31.1132  -22.5850   21.0960 C   0  0  0  0  0  0
  -29.5884  -18.3663   21.7635 C   0  0  0  0  0  0
  -29.2037  -19.1122   20.5210 C   0  0  2  0  0  0
  -30.1554  -17.7009   20.5224 C   0  0  2  0  0  0
  -31.5955  -17.9258   20.0790 C   0  0  0  0  0  0
  -33.2208  -22.0716   22.1430 C   0  0  0  0  0  0
  -27.9236  -24.6293   19.9882 C   0  0  0  0  0  0
  -29.8146  -16.1605   20.5287 N   0  0  0  0  0  0
  -32.3427  -23.0168   21.5444 O   0  0  0  0  0  0
  -31.4634  -12.7443   19.1509 H   0  0  0  0  0  0
  -30.4213  -11.6445   20.0086 H   0  0  0  0  0  0
  -29.8245  -11.7441   17.5552 H   0  0  0  0  0  0
  -29.5886  -13.4700   17.6732 H   0  0  0  0  0  0
  -27.9506  -11.2741   18.9756 H   0  0  0  0  0  0
  -27.3766  -12.4427   17.8148 H   0  0  0  0  0  0
  -27.5810  -14.2495   19.3929 H   0  0  0  0  0  0
  -28.7728  -12.3329   21.4604 H   0  0  0  0  0  0
  -28.3836  -14.0202   21.7278 H   0  0  0  0  0  0
  -25.2751   -9.5745   22.4764 H   0  0  0  0  0  0
  -24.0009   -7.4671   22.7481 H   0  0  0  0  0  0
  -21.0864   -8.8725   19.8907 H   0  0  0  0  0  0
  -22.3671  -10.9658   19.6121 H   0  0  0  0  0  0
  -21.2012   -7.6143   23.9697 H   0  0  0  0  0  0
  -21.1503   -6.0535   25.9078 H   0  0  0  0  0  0
  -22.0585   -2.7589   23.2852 H   0  0  0  0  0  0
  -22.4103  -11.9801   22.4770 H   0  0  0  0  0  0
  -21.1052  -13.1089   22.2579 H   0  0  0  0  0  0
  -24.6436  -15.8456   20.5350 H   0  0  0  0  0  0
  -26.2452  -15.6349   20.0450 H   0  0  0  0  0  0
  -26.7272  -32.5303   23.0962 H   0  0  0  0  0  0
  -25.0093  -33.9597   25.0307 H   0  0  0  0  0  0
  -22.7454  -31.2895   21.3825 H   0  0  0  0  0  0
  -23.3769  -35.9613   23.3252 H   0  0  0  0  0  0
  -24.3604  -36.8953   22.2058 H   0  0  0  0  0  0
  -23.7283  -37.6464   23.6697 H   0  0  0  0  0  0
  -26.1448  -31.4688   20.6025 H   0  0  0  0  0  0
  -26.8771  -30.7772   22.0157 H   0  0  0  0  0  0
  -28.1260  -28.7932   21.2408 H   0  0  0  0  0  0
  -25.9117  -25.8731   18.9503 H   0  0  0  0  0  0
  -23.9866  -27.3284   18.9370 H   0  0  0  0  0  0
  -23.7991  -30.5726   19.3956 H   0  0  0  0  0  0
  -22.7836  -29.2373   19.8446 H   0  0  0  0  0  0
  -25.1329  -36.1847   25.0796 H   0  0  0  0  0  0
  -21.0008  -28.3311   24.1361 H   0  0  0  0  0  0
  -20.5708  -26.2330   23.3601 H   0  0  0  0  0  0
  -21.6653  -26.7457   22.1173 H   0  0  0  0  0  0
  -19.6928  -25.6313   21.1228 H   0  0  0  0  0  0
  -19.6694  -27.3210   20.6734 H   0  0  0  0  0  0
  -17.4212  -26.6685   21.4025 H   0  0  0  0  0  0
  -18.0350  -26.0082   22.9022 H   0  0  0  0  0  0
  -19.7939  -30.7290   24.2264 H   0  0  0  0  0  0
  -17.5011  -31.6269   24.5174 H   0  0  0  0  0  0
  -15.5357  -30.2988   23.7653 H   0  0  0  0  0  0
  -15.8686  -28.0816   22.7087 H   0  0  0  0  0  0
  -24.5984  -30.6950   25.7650 H   0  0  0  0  0  0
  -24.8857  -32.2830   26.4683 H   0  0  0  0  0  0
  -25.8044  -30.8911   27.0168 H   0  0  0  0  0  0
  -26.2961  -29.6620   24.1286 H   0  0  0  0  0  0
  -27.4121  -29.7222   25.4720 H   0  0  0  0  0  0
  -27.8837  -30.4144   23.9400 H   0  0  0  0  0  0
  -27.2712  -33.3602   26.1961 H   0  0  0  0  0  0
  -28.3973  -32.6734   25.0328 H   0  0  0  0  0  0
  -28.0682  -31.8403   26.5447 H   0  0  0  0  0  0
  -28.2568  -38.0125   24.7532 H   0  0  0  0  0  0
  -28.1134  -36.2653   24.6268 H   0  0  0  0  0  0
  -27.2300  -37.1403   25.8857 H   0  0  0  0  0  0
  -20.9467  -29.8739   21.6770 H   0  0  0  0  0  0
  -26.0171  -38.2804   24.1383 H   0  0  0  0  0  0
  -27.5912  -21.6398   19.8644 H   0  0  0  0  0  0
  -31.4719  -20.4621   21.2785 H   0  0  0  0  0  0
  -30.5121  -24.6435   20.8687 H   0  0  0  0  0  0
  -28.7770  -17.8600   22.2836 H   0  0  0  0  0  0
  -30.3157  -18.8165   22.4366 H   0  0  0  0  0  0
  -28.1874  -18.9701   20.1567 H   0  0  0  0  0  0
  -32.2931  -17.6655   20.8760 H   0  0  0  0  0  0
  -31.7674  -18.9596   19.7899 H   0  0  0  0  0  0
  -31.8244  -17.3366   19.1920 H   0  0  0  0  0  0
  -34.0526  -22.6071   22.6018 H   0  0  0  0  0  0
  -33.6372  -21.3835   21.4056 H   0  0  0  0  0  0
  -32.7263  -21.5030   22.9321 H   0  0  0  0  0  0
  -26.9902  -24.4249   20.5128 H   0  0  0  0  0  0
  -27.6948  -24.5266   18.9276 H   0  0  0  0  0  0
  -28.8278  -15.9752   20.6261 H   0  0  0  0  0  0
  1 25  1  0  0  0
  1 30  2  0  0  0
  1 83  1  0  0  0
  2  3  1  0  0  0
  2 25  1  0  0  0
  2 85  1  0  0  0
  2 86  1  0  0  0
  3  4  1  0  0  0
  3 87  1  0  0  0
  3 88  1  0  0  0
  4  5  1  0  0  0
  4 89  1  0  0  0
  4 90  1  0  0  0
  5  6  1  0  0  0
  5 26  1  0  0  0
  5 91  1  0  0  0
  6 25  1  0  0  0
  6 92  1  0  0  0
  6 93  1  0  0  0
  7  8  2  0  0  0
  7 26  1  0  0  0
  7 29  1  0  0  0
  8  9  1  0  0  0
  8 22  1  0  0  0
  9 10  1  0  0  0
  9 27  2  0  0  0
 10 11  2  0  0  0
 10 15  1  0  0  0
 11 12  1  0  0  0
 11 94  1  0  0  0
 12 13  2  0  0  0
 12 95  1  0  0  0
 13 14  1  0  0  0
 13 31  1  0  0  0
 14 15  2  0  0  0
 14 96  1  0  0  0
 15 97  1  0  0  0
 16 17  2  0  0  0
 16 21  1  0  0  0
 16 31  1  0  0  0
 17 18  1  0  0  0
 17 98  1  0  0  0
 18 19  2  0  0  0
 18 99  1  0  0  0
 19 20  1  0  0  0
 19 24  1  0  0  0
 20 21  2  0  0  0
 20100  1  0  0  0
 21 23  1  0  0  0
 22 28  1  0  0  0
 22 32  2  0  0  0
 26 27  1  0  0  0
 28101  1  0  0  0
 28102  1  0  0  0
 29103  1  0  0  0
 29104  1  0  0  0
 33 34  1  0  0  0
 33 66  1  0  0  0
 33 70  2  0  0  0
 34 36  1  0  0  0
 34 59  1  0  0  0
 34105  1  0  0  0
 35 44  2  0  0  0
 35 45  1  0  0  0
 35 68  1  0  0  0
 36 56  1  0  0  0
 36106  1  0  0  0
 37 39  1  0  0  0
 37 47  1  0  0  0
 37 66  1  0  0  0
 37107  1  0  0  0
 38 43  2  0  0  0
 38 46  1  0  0  0
 38 47  1  0  0  0
 39 64  1  0  0  0
 39 67  2  0  0  0
 40 52  1  0  0  0
 40 53  2  0  0  0
 40 58  1  0  0  0
 41108  1  0  0  0
 41109  1  0  0  0
 41110  1  0  0  0
 41 48  1  0  0  0
 42 43  1  0  0  0
 42 66  1  0  0  0
 42111  1  0  0  0
 42112  1  0  0  0
 43 44  1  0  0  0
 44113  1  0  0  0
 45 46  2  0  0  0
 45114  1  0  0  0
 46115  1  0  0  0
 47116  1  0  0  0
 47117  1  0  0  0
 48 56  1  0  0  0
 48 65  1  0  0  0
 48118  1  0  0  0
 49 50  1  0  0  0
 49 53  1  0  0  0
 49 64  1  0  0  0
 49119  1  0  0  0
 50 51  1  0  0  0
 50120  1  0  0  0
 50121  1  0  0  0
 51 52  1  0  0  0
 51122  1  0  0  0
 51123  1  0  0  0
 52124  1  0  0  0
 52125  1  0  0  0
 53 54  1  0  0  0
 54 55  2  0  0  0
 54126  1  0  0  0
 55 57  1  0  0  0
 55127  1  0  0  0
 56 69  2  0  0  0
 57 58  2  0  0  0
 57128  1  0  0  0
 58129  1  0  0  0
 59 60  1  0  0  0
 59 61  1  0  0  0
 59 62  1  0  0  0
 60130  1  0  0  0
 60131  1  0  0  0
 60132  1  0  0  0
 61133  1  0  0  0
 61134  1  0  0  0
 61135  1  0  0  0
 62136  1  0  0  0
 62137  1  0  0  0
 62138  1  0  0  0
 63 65  1  0  0  0
 63139  1  0  0  0
 63140  1  0  0  0
 63141  1  0  0  0
 64142  1  0  0  0
 65143  1  0  0  0
 68 82  1  0  0  0
 71 74  2  0  0  0
 71 75  1  0  0  0
 71144  1  0  0  0
 72 74  1  0  0  0
 72 76  2  0  0  0
 72145  1  0  0  0
 73 75  2  0  0  0
 73 76  1  0  0  0
 73146  1  0  0  0
 74 78  1  0  0  0
 75 82  1  0  0  0
 76 84  1  0  0  0
 77 78  1  0  0  0
 77 79  1  0  0  0
 77147  1  0  0  0
 77148  1  0  0  0
 78 79  1  0  0  0
 78149  1  0  0  0
 79 80  1  0  0  0
 79 83  1  0  0  0
 80150  1  0  0  0
 80151  1  0  0  0
 80152  1  0  0  0
 81 84  1  0  0  0
 81153  1  0  0  0
 81154  1  0  0  0
 81155  1  0  0  0
 82156  1  0  0  0
 82157  1  0  0  0
 83158  1  0  0  0
M  ISO  4   1 100  68 101  82 101  83 100
M  END
> <chiral flag>
0

> <version>
0

> <s_m_source_file>
/data/baiqing/PycharmProjects/Reinvent-master-3.2/result/LINK_invent/BTK/process_docking_weight1_custom_sum_contain_oxygen_bond_distance_aromatic_linkinvent_7_9_3/rearranged_h_0159.sdf

> <i_m_source_file_index>
88

> <r_mmod_Potential_Energy-OPLS-2005>
574.753784179688

> <r_mmod_Stretch_Energy-OPLS-2005>
284.022857666016

> <r_mmod_Bend_Energy-OPLS-2005>
255.200576782227

> <r_mmod_Torsional_Energy-OPLS-2005>
264.654357910156

> <r_mmod_Improper_Torsional_Energy-OPLS-2005>
4.20561027526855

> <r_mmod_Van_der_Waal_Energy-OPLS-2005>
141.755935668945

> <r_mmod_Electrostatic_Energy-OPLS-2005>
-352.600494384766

> <r_mmod_Solvation_Energy-OPLS-2005>
-216.333770751953

> <b_mmod_Minimization_Converged-OPLS-2005>
0

> <r_mmod_RMS_Derivative-OPLS-2005>
2.50730419158936

$$$$
88
                    3D
 Structure written by MMmdl.
161170  0  0  1  0            999 V2000
  -30.6994  -14.6108   20.5270 C   0  0  0  0  0  0
  -30.4126  -12.3894   19.4494 C   0  0  0  0  0  0
  -29.4913  -12.4998   18.2177 C   0  0  0  0  0  0
  -28.0191  -12.3224   18.6334 C   0  0  0  0  0  0
  -27.6401  -13.2042   19.8506 C   0  0  2  0  0  0
  -28.6892  -13.0971   20.9848 C   0  0  0  0  0  0
  -25.2484  -13.8124   20.5640 C   0  0  0  0  0  0
  -24.1771  -13.0401   20.9197 C   0  0  0  0  0  0
  -24.6348  -11.6878   20.8753 C   0  0  0  0  0  0
  -23.9033  -10.4266   21.0416 C   0  0  0  0  0  0
  -24.3596   -9.4189   21.9192 C   0  0  0  0  0  0
  -23.6277   -8.2225   22.0753 C   0  0  0  0  0  0
  -22.4262   -8.0258   21.3543 C   0  0  0  0  0  0
  -21.9891   -9.0226   20.4644 C   0  0  0  0  0  0
  -22.7210  -10.2111   20.3058 C   0  0  0  0  0  0
  -21.6841   -6.0723   22.5283 C   0  0  0  0  0  0
  -21.4003   -6.5633   23.8216 C   0  0  0  0  0  0
  -21.3657   -5.6788   24.9180 C   0  0  0  0  0  0
  -21.6043   -4.3050   24.7228 C   0  0  0  0  0  0
  -21.8816   -3.8139   23.4351 C   0  0  0  0  0  0
  -21.9185   -4.6952   22.3406 C   0  0  0  0  0  0
  -22.7800  -13.5205   21.1856 C   0  0  0  0  0  0
  -22.1656   -4.2136   21.0984 F   0  0  0  0  0  0
  -21.5642   -3.4537   25.7745 F   0  0  0  0  0  0
  -29.9983  -13.4341   20.4118 N   0  0  0  0  0  0
  -26.2908  -12.9293   20.3278 N   0  0  0  0  0  0
  -25.9267  -11.6463   20.5769 N   0  0  0  0  0  0
  -22.0437  -12.8217   22.0422 N   0  0  0  0  0  0
  -25.4108  -15.1837   20.3967 N   0  0  0  0  0  0
  -31.8689  -14.6635   20.1342 O   0  0  0  0  0  0
  -21.6628   -6.8857   21.4241 O   0  0  0  0  0  0
  -22.3496  -14.5512   20.6693 O   0  0  0  0  0  0
  -24.6202  -31.8624   23.2049 C   0  0  0  0  0  0
  -25.9072  -32.4788   23.8365 C   0  0  1  0  0  0
  -27.2318  -27.3674   20.0994 C   0  0  0  0  0  0
  -25.5908  -33.8592   24.2291 N   0  0  0  0  0  0
  -23.4112  -30.4862   21.5460 C   0  0  2  0  0  0
  -24.8567  -28.9439   20.1109 C   0  0  0  0  0  0
  -22.7441  -29.4636   22.4950 C   0  0  0  0  0  0
  -18.0278  -28.1373   22.8492 C   0  0  0  0  0  0
  -24.1489  -36.7306   23.2639 C   0  0  0  0  0  0
  -25.9468  -30.8072   21.3678 C   0  0  0  0  0  0
  -26.0204  -29.4374   20.7118 C   0  0  0  0  0  0
  -27.2063  -28.6562   20.7029 C   0  0  0  0  0  0
  -26.0367  -26.8983   19.5064 C   0  0  0  0  0  0
  -24.8629  -27.6769   19.5055 C   0  0  0  0  0  0
  -23.6223  -29.8183   20.1608 C   0  0  0  0  0  0
  -25.4112  -36.3095   24.0333 C   0  0  1  0  0  0
  -20.5875  -28.3671   23.1294 C   0  0  2  0  0  0
  -20.6763  -26.9399   22.5410 C   0  0  0  0  0  0
  -19.5742  -26.6379   21.5209 C   0  0  0  0  0  0
  -18.1923  -26.7920   22.1620 C   0  0  0  0  0  0
  -19.1530  -28.8839   23.2892 C   0  0  0  0  0  0
  -18.9455  -30.1444   23.8902 C   0  0  0  0  0  0
  -17.6457  -30.6581   24.0559 C   0  0  0  0  0  0
  -25.9044  -34.9461   23.5113 C   0  0  0  0  0  0
  -16.5347  -29.9080   23.6326 C   0  0  0  0  0  0
  -16.7265  -28.6494   23.0353 C   0  0  0  0  0  0
  -26.4481  -31.6592   25.0721 C   0  0  0  0  0  0
  -25.3736  -31.3713   26.1466 C   0  0  0  0  0  0
  -27.0312  -30.3022   24.6140 C   0  0  0  0  0  0
  -27.6050  -32.4320   25.7486 C   0  0  0  0  0  0
  -27.5582  -37.1807   24.8460 C   0  0  0  0  0  0
  -21.4160  -29.3037   22.3699 N   0  0  0  0  0  0
  -26.4291  -37.3785   23.9408 N   0  0  0  0  0  0
  -24.6782  -31.0679   22.0973 N   0  0  0  0  0  0
  -23.4189  -28.8174   23.3009 O   0  0  0  0  0  0
  -28.3967  -26.6032   20.1496 O   0  0  0  0  0  0
  -26.5611  -34.8924   22.4678 O   0  0  0  0  0  0
  -23.5381  -32.1400   23.7411 O   0  0  0  0  0  0
  -28.2913  -22.8669   19.2601 C   0  0  0  0  0  0
  -28.5404  -21.5394   19.7055 C   0  0  0  0  0  0
  -29.6498  -22.4360   21.6456 C   0  0  0  0  0  0
  -28.7309  -24.0114   19.9788 C   0  0  0  0  0  0
  -29.4225  -23.7687   21.1966 C   0  0  0  0  0  0
  -29.2449  -21.2947   20.9090 C   0  0  0  0  0  0
  -31.0165  -18.1367   20.9003 C   0  0  0  0  0  0
  -28.5301  -17.8125   20.9891 C   0  0  0  0  0  0
  -30.9528  -16.7938   21.6974 C   0  0  0  0  0  0
  -28.8234  -16.3240   20.5858 C   0  0  0  0  0  0
  -29.6485  -18.8240   20.6395 C   0  0  0  0  0  0
  -29.9655  -24.9206   22.0248 C   0  0  0  0  0  0
  -28.5865  -25.4200   19.3178 C   0  0  0  0  0  0
  -30.1137  -15.7490   21.0541 N   0  0  0  0  0  0
  -29.5425  -20.0338   21.4412 O   0  0  0  0  0  0
  -31.4565  -12.4804   19.1446 H   0  0  0  0  0  0
  -30.3278  -11.4005   19.9026 H   0  0  0  0  0  0
  -29.7625  -11.7486   17.4748 H   0  0  0  0  0  0
  -29.6256  -13.4704   17.7377 H   0  0  0  0  0  0
  -27.8698  -11.2704   18.8778 H   0  0  0  0  0  0
  -27.3578  -12.5346   17.7920 H   0  0  0  0  0  0
  -27.6365  -14.2177   19.4607 H   0  0  0  0  0  0
  -28.7079  -12.0835   21.3881 H   0  0  0  0  0  0
  -28.4396  -13.7399   21.8290 H   0  0  0  0  0  0
  -25.2732   -9.5681   22.4780 H   0  0  0  0  0  0
  -23.9981   -7.4615   22.7478 H   0  0  0  0  0  0
  -21.0820   -8.8738   19.8953 H   0  0  0  0  0  0
  -22.3656  -10.9651   19.6179 H   0  0  0  0  0  0
  -21.1993   -7.6142   23.9716 H   0  0  0  0  0  0
  -21.1488   -6.0521   25.9085 H   0  0  0  0  0  0
  -22.0597   -2.7599   23.2854 H   0  0  0  0  0  0
  -22.4043  -11.9893   22.4845 H   0  0  0  0  0  0
  -21.1052  -13.1250   22.2610 H   0  0  0  0  0  0
  -24.6358  -15.8293   20.5056 H   0  0  0  0  0  0
  -26.2517  -15.6284   20.0546 H   0  0  0  0  0  0
  -26.7140  -32.5471   23.1120 H   0  0  0  0  0  0
  -25.0060  -33.9741   25.0439 H   0  0  0  0  0  0
  -22.7033  -31.3057   21.4035 H   0  0  0  0  0  0
  -23.3750  -35.9639   23.3298 H   0  0  0  0  0  0
  -24.3583  -36.8926   22.2053 H   0  0  0  0  0  0
  -23.7241  -37.6510   23.6658 H   0  0  0  0  0  0
  -26.0708  -31.5719   20.6000 H   0  0  0  0  0  0
  -26.8301  -30.8565   21.9929 H   0  0  0  0  0  0
  -28.1033  -29.0334   21.1742 H   0  0  0  0  0  0
  -25.9698  -25.9153   19.0665 H   0  0  0  0  0  0
  -23.9642  -27.2851   19.0492 H   0  0  0  0  0  0
  -23.7344  -30.5925   19.4007 H   0  0  0  0  0  0
  -22.7448  -29.2412   19.8637 H   0  0  0  0  0  0
  -25.1292  -36.1952   25.0824 H   0  0  0  0  0  0
  -20.9970  -28.3234   24.1414 H   0  0  0  0  0  0
  -20.5654  -26.2280   23.3604 H   0  0  0  0  0  0
  -21.6632  -26.7427   22.1199 H   0  0  0  0  0  0
  -19.6898  -25.6289   21.1238 H   0  0  0  0  0  0
  -19.6684  -27.3192   20.6741 H   0  0  0  0  0  0
  -17.4194  -26.6674   21.4022 H   0  0  0  0  0  0
  -18.0323  -26.0054   22.9008 H   0  0  0  0  0  0
  -19.7933  -30.7257   24.2271 H   0  0  0  0  0  0
  -17.5013  -31.6265   24.5154 H   0  0  0  0  0  0
  -15.5348  -30.2985   23.7643 H   0  0  0  0  0  0
  -15.8665  -28.0814   22.7066 H   0  0  0  0  0  0
  -24.5891  -30.7086   25.7794 H   0  0  0  0  0  0
  -24.8956  -32.2876   26.4939 H   0  0  0  0  0  0
  -25.8077  -30.8851   27.0210 H   0  0  0  0  0  0
  -26.2865  -29.6782   24.1184 H   0  0  0  0  0  0
  -27.4045  -29.7267   25.4620 H   0  0  0  0  0  0
  -27.8722  -30.4318   23.9323 H   0  0  0  0  0  0
  -27.2664  -33.3616   26.2072 H   0  0  0  0  0  0
  -28.3857  -32.6881   25.0312 H   0  0  0  0  0  0
  -28.0721  -31.8438   26.5395 H   0  0  0  0  0  0
  -28.2591  -38.0113   24.7518 H   0  0  0  0  0  0
  -28.1088  -36.2644   24.6271 H   0  0  0  0  0  0
  -27.2302  -37.1434   25.8863 H   0  0  0  0  0  0
  -20.9323  -29.8783   21.6941 H   0  0  0  0  0  0
  -26.0178  -38.2861   24.1415 H   0  0  0  0  0  0
  -27.7735  -23.0028   18.3208 H   0  0  0  0  0  0
  -28.1783  -20.7165   19.1070 H   0  0  0  0  0  0
  -30.1811  -22.2788   22.5738 H   0  0  0  0  0  0
  -31.4947  -17.9398   19.9400 H   0  0  0  0  0  0
  -31.6831  -18.8317   21.4114 H   0  0  0  0  0  0
  -28.3602  -17.8422   22.0660 H   0  0  0  0  0  0
  -27.5913  -18.1415   20.5418 H   0  0  0  0  0  0
  -30.5528  -16.9820   22.6948 H   0  0  0  0  0  0
  -31.9704  -16.4400   21.8719 H   0  0  0  0  0  0
  -28.7790  -16.2403   19.4984 H   0  0  0  0  0  0
  -28.0090  -15.7362   20.9963 H   0  0  0  0  0  0
  -29.6010  -19.0639   19.5769 H   0  0  0  0  0  0
  -30.5526  -24.5671   22.8729 H   0  0  0  0  0  0
  -29.1492  -25.5285   22.4155 H   0  0  0  0  0  0
  -30.6101  -25.5588   21.4196 H   0  0  0  0  0  0
  -27.8916  -25.3700   18.4821 H   0  0  0  0  0  0
  -29.5451  -25.5876   18.8256 H   0  0  0  0  0  0
  1 25  1  0  0  0
  1 30  2  0  0  0
  1 84  1  0  0  0
  2  3  1  0  0  0
  2 25  1  0  0  0
  2 86  1  0  0  0
  2 87  1  0  0  0
  3  4  1  0  0  0
  3 88  1  0  0  0
  3 89  1  0  0  0
  4  5  1  0  0  0
  4 90  1  0  0  0
  4 91  1  0  0  0
  5  6  1  0  0  0
  5 26  1  0  0  0
  5 92  1  0  0  0
  6 25  1  0  0  0
  6 93  1  0  0  0
  6 94  1  0  0  0
  7  8  2  0  0  0
  7 26  1  0  0  0
  7 29  1  0  0  0
  8  9  1  0  0  0
  8 22  1  0  0  0
  9 10  1  0  0  0
  9 27  2  0  0  0
 10 11  2  0  0  0
 10 15  1  0  0  0
 11 12  1  0  0  0
 11 95  1  0  0  0
 12 13  2  0  0  0
 12 96  1  0  0  0
 13 14  1  0  0  0
 13 31  1  0  0  0
 14 15  2  0  0  0
 14 97  1  0  0  0
 15 98  1  0  0  0
 16 17  2  0  0  0
 16 21  1  0  0  0
 16 31  1  0  0  0
 17 18  1  0  0  0
 17 99  1  0  0  0
 18 19  2  0  0  0
 18100  1  0  0  0
 19 20  1  0  0  0
 19 24  1  0  0  0
 20 21  2  0  0  0
 20101  1  0  0  0
 21 23  1  0  0  0
 22 28  1  0  0  0
 22 32  2  0  0  0
 26 27  1  0  0  0
 28102  1  0  0  0
 28103  1  0  0  0
 29104  1  0  0  0
 29105  1  0  0  0
 33 34  1  0  0  0
 33 66  1  0  0  0
 33 70  2  0  0  0
 34 36  1  0  0  0
 34 59  1  0  0  0
 34106  1  0  0  0
 35 44  2  0  0  0
 35 45  1  0  0  0
 35 68  1  0  0  0
 36 56  1  0  0  0
 36107  1  0  0  0
 37 39  1  0  0  0
 37 47  1  0  0  0
 37 66  1  0  0  0
 37108  1  0  0  0
 38 43  2  0  0  0
 38 46  1  0  0  0
 38 47  1  0  0  0
 39 64  1  0  0  0
 39 67  2  0  0  0
 40 52  1  0  0  0
 40 53  2  0  0  0
 40 58  1  0  0  0
 41109  1  0  0  0
 41110  1  0  0  0
 41111  1  0  0  0
 41 48  1  0  0  0
 42 43  1  0  0  0
 42 66  1  0  0  0
 42112  1  0  0  0
 42113  1  0  0  0
 43 44  1  0  0  0
 44114  1  0  0  0
 45 46  2  0  0  0
 45115  1  0  0  0
 46116  1  0  0  0
 47117  1  0  0  0
 47118  1  0  0  0
 48 56  1  0  0  0
 48 65  1  0  0  0
 48119  1  0  0  0
 49 50  1  0  0  0
 49 53  1  0  0  0
 49 64  1  0  0  0
 49120  1  0  0  0
 50 51  1  0  0  0
 50121  1  0  0  0
 50122  1  0  0  0
 51 52  1  0  0  0
 51123  1  0  0  0
 51124  1  0  0  0
 52125  1  0  0  0
 52126  1  0  0  0
 53 54  1  0  0  0
 54 55  2  0  0  0
 54127  1  0  0  0
 55 57  1  0  0  0
 55128  1  0  0  0
 56 69  2  0  0  0
 57 58  2  0  0  0
 57129  1  0  0  0
 58130  1  0  0  0
 59 60  1  0  0  0
 59 61  1  0  0  0
 59 62  1  0  0  0
 60131  1  0  0  0
 60132  1  0  0  0
 60133  1  0  0  0
 61134  1  0  0  0
 61135  1  0  0  0
 61136  1  0  0  0
 62137  1  0  0  0
 62138  1  0  0  0
 62139  1  0  0  0
 63 65  1  0  0  0
 63140  1  0  0  0
 63141  1  0  0  0
 63142  1  0  0  0
 64143  1  0  0  0
 65144  1  0  0  0
 68 83  1  0  0  0
 71 72  2  0  0  0
 71 74  1  0  0  0
 71145  1  0  0  0
 72 76  1  0  0  0
 72146  1  0  0  0
 73 75  1  0  0  0
 73 76  2  0  0  0
 73147  1  0  0  0
 74 75  2  0  0  0
 74 83  1  0  0  0
 75 82  1  0  0  0
 76 85  1  0  0  0
 77 79  1  0  0  0
 77 81  1  0  0  0
 77148  1  0  0  0
 77149  1  0  0  0
 78 80  1  0  0  0
 78 81  1  0  0  0
 78150  1  0  0  0
 78151  1  0  0  0
 79 84  1  0  0  0
 79152  1  0  0  0
 79153  1  0  0  0
 80 84  1  0  0  0
 80154  1  0  0  0
 80155  1  0  0  0
 81 85  1  0  0  0
 81156  1  0  0  0
 82157  1  0  0  0
 82158  1  0  0  0
 82159  1  0  0  0
 83160  1  0  0  0
 83161  1  0  0  0
M  ISO  4   1 100  68 101  83 101  84 100
M  END
> <chiral flag>
0

> <version>
0

> <s_m_source_file>
/data/baiqing/PycharmProjects/Reinvent-master-3.2/result/LINK_invent/BTK/process_docking_weight1_custom_sum_contain_oxygen_bond_distance_aromatic_linkinvent_7_9_3/rearranged_h_0159.sdf

> <i_m_source_file_index>
89

> <r_mmod_Potential_Energy-OPLS-2005>
281.669586181641

> <r_mmod_Stretch_Energy-OPLS-2005>
65.289192199707

> <r_mmod_Bend_Energy-OPLS-2005>
156.534912109375

> <r_mmod_Torsional_Energy-OPLS-2005>
332.843536376953

> <r_mmod_Improper_Torsional_Energy-OPLS-2005>
4.03899192810059

> <r_mmod_Van_der_Waal_Energy-OPLS-2005>
161.074493408203

> <r_mmod_Electrostatic_Energy-OPLS-2005>
-273.562530517578

> <r_mmod_Solvation_Energy-OPLS-2005>
-200.507873535156

> <b_mmod_Minimization_Converged-OPLS-2005>
0

> <r_mmod_RMS_Derivative-OPLS-2005>
1.01607751846313

$$$$
89
                    3D
 Structure written by MMmdl.
157166  0  0  1  0            999 V2000
  -30.6047  -14.8348   20.4425 C   0  0  0  0  0  0
  -30.4290  -12.5120   19.4944 C   0  0  0  0  0  0
  -29.5162  -12.5135   18.2484 C   0  0  0  0  0  0
  -28.0429  -12.3280   18.6610 C   0  0  0  0  0  0
  -27.6348  -13.2442   19.8452 C   0  0  2  0  0  0
  -28.6776  -13.2365   20.9839 C   0  0  0  0  0  0
  -25.2481  -13.8214   20.5713 C   0  0  0  0  0  0
  -24.1789  -13.0441   20.9219 C   0  0  0  0  0  0
  -24.6388  -11.6925   20.8753 C   0  0  0  0  0  0
  -23.9072  -10.4293   21.0414 C   0  0  0  0  0  0
  -24.3622   -9.4200   21.9192 C   0  0  0  0  0  0
  -23.6294   -8.2232   22.0746 C   0  0  0  0  0  0
  -22.4274   -8.0276   21.3533 C   0  0  0  0  0  0
  -21.9916   -9.0248   20.4640 C   0  0  0  0  0  0
  -22.7246  -10.2135   20.3060 C   0  0  0  0  0  0
  -21.6849   -6.0745   22.5280 C   0  0  0  0  0  0
  -21.4012   -6.5641   23.8217 C   0  0  0  0  0  0
  -21.3661   -5.6789   24.9180 C   0  0  0  0  0  0
  -21.6047   -4.3049   24.7225 C   0  0  0  0  0  0
  -21.8816   -3.8150   23.4343 C   0  0  0  0  0  0
  -21.9185   -4.6970   22.3404 C   0  0  0  0  0  0
  -22.7806  -13.5199   21.1889 C   0  0  0  0  0  0
  -22.1648   -4.2158   21.0982 F   0  0  0  0  0  0
  -21.5635   -3.4528   25.7735 F   0  0  0  0  0  0
  -29.9677  -13.6057   20.3898 N   0  0  0  0  0  0
  -26.2908  -12.9445   20.3276 N   0  0  0  0  0  0
  -25.9327  -11.6573   20.5759 N   0  0  0  0  0  0
  -22.0458  -12.8183   22.0436 N   0  0  0  0  0  0
  -25.4154  -15.1945   20.4152 N   0  0  0  0  0  0
  -31.8028  -14.8825   20.1505 O   0  0  0  0  0  0
  -21.6630   -6.8880   21.4236 O   0  0  0  0  0  0
  -22.3477  -14.5502   20.6734 O   0  0  0  0  0  0
  -24.6371  -31.8496   23.1916 C   0  0  0  0  0  0
  -25.9173  -32.4728   23.8287 C   0  0  1  0  0  0
  -27.2204  -27.1958   20.1328 C   0  0  0  0  0  0
  -25.5937  -33.8531   24.2203 N   0  0  0  0  0  0
  -23.4361  -30.4702   21.5369 C   0  0  2  0  0  0
  -24.8821  -28.9026   20.1105 C   0  0  0  0  0  0
  -22.7526  -29.4579   22.4891 C   0  0  0  0  0  0
  -18.0303  -28.1385   22.8484 C   0  0  0  0  0  0
  -24.1484  -36.7267   23.2633 C   0  0  0  0  0  0
  -25.9872  -30.7384   21.3835 C   0  0  0  0  0  0
  -26.0551  -29.3561   20.7236 C   0  0  0  0  0  0
  -27.2219  -28.5162   20.7200 C   0  0  0  0  0  0
  -26.0189  -26.8271   19.4848 C   0  0  0  0  0  0
  -24.8728  -27.6489   19.4807 C   0  0  0  0  0  0
  -23.6559  -29.7970   20.1559 C   0  0  0  0  0  0
  -25.4119  -36.3053   24.0312 C   0  0  1  0  0  0
  -20.5907  -28.3701   23.1246 C   0  0  2  0  0  0
  -20.6789  -26.9407   22.5391 C   0  0  0  0  0  0
  -19.5765  -26.6371   21.5195 C   0  0  0  0  0  0
  -18.1950  -26.7923   22.1616 C   0  0  0  0  0  0
  -19.1558  -28.8862   23.2858 C   0  0  0  0  0  0
  -18.9472  -30.1461   23.8874 C   0  0  0  0  0  0
  -17.6473  -30.6581   24.0558 C   0  0  0  0  0  0
  -25.9069  -34.9428   23.5065 C   0  0  0  0  0  0
  -16.5364  -29.9070   23.6337 C   0  0  0  0  0  0
  -16.7286  -28.6486   23.0358 C   0  0  0  0  0  0
  -26.4493  -31.6605   25.0734 C   0  0  0  0  0  0
  -25.3675  -31.3811   26.1437 C   0  0  0  0  0  0
  -27.0352  -30.3000   24.6320 C   0  0  0  0  0  0
  -27.6031  -32.4372   25.7514 C   0  0  0  0  0  0
  -27.5577  -37.1791   24.8462 C   0  0  0  0  0  0
  -21.4229  -29.3041   22.3633 N   0  0  0  0  0  0
  -26.4287  -37.3764   23.9408 N   0  0  0  0  0  0
  -24.7062  -31.0396   22.0923 N   0  0  0  0  0  0
  -23.4199  -28.8130   23.3019 O   0  0  0  0  0  0
  -28.3394  -26.3077   20.2049 O   0  0  0  0  0  0
  -26.5645  -34.8915   22.4638 O   0  0  0  0  0  0
  -23.5505  -32.1353   23.7173 O   0  0  0  0  0  0
  -28.8876  -21.0592   19.3804 C   0  0  0  0  0  0
  -29.5675  -19.6905   21.6899 C   0  0  0  0  0  0
  -28.7998  -21.8485   20.5725 C   0  0  0  0  0  0
  -29.3035  -19.6669   19.3353 C   0  0  0  0  0  0
  -29.1477  -21.0741   21.7335 C   0  0  0  0  0  0
  -29.6765  -18.9106   20.5000 C   0  0  0  0  0  0
  -29.0114  -24.4576   21.2404 C   0  0  0  0  0  0
  -28.2242  -23.3683   20.6956 C   0  0  1  0  0  0
  -28.3861  -24.8016   19.8735 C   0  0  1  0  0  0
  -29.3856  -18.9932   17.9773 C   0  0  0  0  0  0
  -29.0749  -21.7378   23.0996 C   0  0  0  0  0  0
  -30.4424  -17.4689   20.4727 C   0  0  0  0  0  0
  -29.8827  -16.0291   20.6068 N   0  0  0  0  0  0
  -31.4701  -12.6337   19.1931 H   0  0  0  0  0  0
  -30.3776  -11.5513   20.0089 H   0  0  0  0  0  0
  -29.8150  -11.7228   17.5592 H   0  0  0  0  0  0
  -29.6342  -13.4542   17.7074 H   0  0  0  0  0  0
  -27.9135  -11.2824   18.9411 H   0  0  0  0  0  0
  -27.3842  -12.4970   17.8080 H   0  0  0  0  0  0
  -27.6093  -14.2561   19.4391 H   0  0  0  0  0  0
  -28.7350  -12.2580   21.4627 H   0  0  0  0  0  0
  -28.3964  -13.9480   21.7620 H   0  0  0  0  0  0
  -25.2766   -9.5674   22.4782 H   0  0  0  0  0  0
  -23.9999   -7.4619   22.7469 H   0  0  0  0  0  0
  -21.0847   -8.8777   19.8948 H   0  0  0  0  0  0
  -22.3697  -10.9681   19.6177 H   0  0  0  0  0  0
  -21.2002   -7.6152   23.9714 H   0  0  0  0  0  0
  -21.1491   -6.0528   25.9084 H   0  0  0  0  0  0
  -22.0596   -2.7609   23.2844 H   0  0  0  0  0  0
  -22.4054  -11.9849   22.4853 H   0  0  0  0  0  0
  -21.1078  -13.1218   22.2652 H   0  0  0  0  0  0
  -24.6444  -15.8441   20.5281 H   0  0  0  0  0  0
  -26.2580  -15.6386   20.0712 H   0  0  0  0  0  0
  -26.7242  -32.5338   23.1018 H   0  0  0  0  0  0
  -25.0074  -33.9660   25.0345 H   0  0  0  0  0  0
  -22.7352  -31.2937   21.3845 H   0  0  0  0  0  0
  -23.3757  -35.9589   23.3291 H   0  0  0  0  0  0
  -24.3561  -36.8903   22.2047 H   0  0  0  0  0  0
  -23.7230  -37.6458   23.6674 H   0  0  0  0  0  0
  -26.1419  -31.4960   20.6151 H   0  0  0  0  0  0
  -26.8570  -30.7812   22.0269 H   0  0  0  0  0  0
  -28.1200  -28.8615   21.2115 H   0  0  0  0  0  0
  -25.9140  -25.8826   18.9783 H   0  0  0  0  0  0
  -23.9759  -27.2981   18.9891 H   0  0  0  0  0  0
  -23.7823  -30.5677   19.3947 H   0  0  0  0  0  0
  -22.7731  -29.2304   19.8545 H   0  0  0  0  0  0
  -25.1308  -36.1880   25.0805 H   0  0  0  0  0  0
  -21.0001  -28.3278   24.1370 H   0  0  0  0  0  0
  -20.5662  -26.2307   23.3603 H   0  0  0  0  0  0
  -21.6661  -26.7408   22.1203 H   0  0  0  0  0  0
  -19.6914  -25.6273   21.1246 H   0  0  0  0  0  0
  -19.6707  -27.3163   20.6713 H   0  0  0  0  0  0
  -17.4214  -26.6663   21.4026 H   0  0  0  0  0  0
  -18.0360  -26.0063   22.9015 H   0  0  0  0  0  0
  -19.7946  -30.7291   24.2222 H   0  0  0  0  0  0
  -17.5021  -31.6261   24.5162 H   0  0  0  0  0  0
  -15.5361  -30.2960   23.7679 H   0  0  0  0  0  0
  -15.8689  -28.0799   22.7084 H   0  0  0  0  0  0
  -24.5834  -30.7179   25.7754 H   0  0  0  0  0  0
  -24.8882  -32.3006   26.4814 H   0  0  0  0  0  0
  -25.7947  -30.9005   27.0250 H   0  0  0  0  0  0
  -26.2970  -29.6744   24.1286 H   0  0  0  0  0  0
  -27.3902  -29.7295   25.4914 H   0  0  0  0  0  0
  -27.8908  -30.4229   23.9675 H   0  0  0  0  0  0
  -27.2615  -33.3674   26.2071 H   0  0  0  0  0  0
  -28.3849  -32.6943   25.0354 H   0  0  0  0  0  0
  -28.0695  -31.8522   26.5451 H   0  0  0  0  0  0
  -28.2600  -38.0084   24.7518 H   0  0  0  0  0  0
  -28.1070  -36.2621   24.6285 H   0  0  0  0  0  0
  -27.2294  -37.1432   25.8863 H   0  0  0  0  0  0
  -20.9421  -29.8755   21.6831 H   0  0  0  0  0  0
  -26.0158  -38.2833   24.1422 H   0  0  0  0  0  0
  -28.6200  -21.5419   18.4500 H   0  0  0  0  0  0
  -29.8643  -19.2177   22.6173 H   0  0  0  0  0  0
  -30.0943  -24.3492   21.2405 H   0  0  0  0  0  0
  -28.6109  -24.9274   22.1379 H   0  0  0  0  0  0
  -27.2336  -23.2475   21.1308 H   0  0  0  0  0  0
  -27.4478  -24.6371   19.3642 H   0  0  0  0  0  0
  -28.8006  -19.5277   17.2285 H   0  0  0  0  0  0
  -29.0026  -17.9728   18.0310 H   0  0  0  0  0  0
  -30.4204  -18.9551   17.6332 H   0  0  0  0  0  0
  -28.1211  -22.2475   23.2372 H   0  0  0  0  0  0
  -29.8747  -22.4706   23.2088 H   0  0  0  0  0  0
  -29.1700  -21.0131   23.9073 H   0  0  0  0  0  0
  -31.1968  -17.5451   21.2567 H   0  0  0  0  0  0
  -31.0332  -17.4699   19.5556 H   0  0  0  0  0  0
  -28.8982  -15.9418   20.8080 H   0  0  0  0  0  0
  1 25  1  0  0  0
  1 30  2  0  0  0
  1 83  1  0  0  0
  2  3  1  0  0  0
  2 25  1  0  0  0
  2 84  1  0  0  0
  2 85  1  0  0  0
  3  4  1  0  0  0
  3 86  1  0  0  0
  3 87  1  0  0  0
  4  5  1  0  0  0
  4 88  1  0  0  0
  4 89  1  0  0  0
  5  6  1  0  0  0
  5 26  1  0  0  0
  5 90  1  0  0  0
  6 25  1  0  0  0
  6 91  1  0  0  0
  6 92  1  0  0  0
  7  8  2  0  0  0
  7 26  1  0  0  0
  7 29  1  0  0  0
  8  9  1  0  0  0
  8 22  1  0  0  0
  9 10  1  0  0  0
  9 27  2  0  0  0
 10 11  2  0  0  0
 10 15  1  0  0  0
 11 12  1  0  0  0
 11 93  1  0  0  0
 12 13  2  0  0  0
 12 94  1  0  0  0
 13 14  1  0  0  0
 13 31  1  0  0  0
 14 15  2  0  0  0
 14 95  1  0  0  0
 15 96  1  0  0  0
 16 17  2  0  0  0
 16 21  1  0  0  0
 16 31  1  0  0  0
 17 18  1  0  0  0
 17 97  1  0  0  0
 18 19  2  0  0  0
 18 98  1  0  0  0
 19 20  1  0  0  0
 19 24  1  0  0  0
 20 21  2  0  0  0
 20 99  1  0  0  0
 21 23  1  0  0  0
 22 28  1  0  0  0
 22 32  2  0  0  0
 26 27  1  0  0  0
 28100  1  0  0  0
 28101  1  0  0  0
 29102  1  0  0  0
 29103  1  0  0  0
 33 34  1  0  0  0
 33 66  1  0  0  0
 33 70  2  0  0  0
 34 36  1  0  0  0
 34 59  1  0  0  0
 34104  1  0  0  0
 35 44  2  0  0  0
 35 45  1  0  0  0
 35 68  1  0  0  0
 36 56  1  0  0  0
 36105  1  0  0  0
 37 39  1  0  0  0
 37 47  1  0  0  0
 37 66  1  0  0  0
 37106  1  0  0  0
 38 43  2  0  0  0
 38 46  1  0  0  0
 38 47  1  0  0  0
 39 64  1  0  0  0
 39 67  2  0  0  0
 40 52  1  0  0  0
 40 53  2  0  0  0
 40 58  1  0  0  0
 41107  1  0  0  0
 41108  1  0  0  0
 41109  1  0  0  0
 41 48  1  0  0  0
 42 43  1  0  0  0
 42 66  1  0  0  0
 42110  1  0  0  0
 42111  1  0  0  0
 43 44  1  0  0  0
 44112  1  0  0  0
 45 46  2  0  0  0
 45113  1  0  0  0
 46114  1  0  0  0
 47115  1  0  0  0
 47116  1  0  0  0
 48 56  1  0  0  0
 48 65  1  0  0  0
 48117  1  0  0  0
 49 50  1  0  0  0
 49 53  1  0  0  0
 49 64  1  0  0  0
 49118  1  0  0  0
 50 51  1  0  0  0
 50119  1  0  0  0
 50120  1  0  0  0
 51 52  1  0  0  0
 51121  1  0  0  0
 51122  1  0  0  0
 52123  1  0  0  0
 52124  1  0  0  0
 53 54  1  0  0  0
 54 55  2  0  0  0
 54125  1  0  0  0
 55 57  1  0  0  0
 55126  1  0  0  0
 56 69  2  0  0  0
 57 58  2  0  0  0
 57127  1  0  0  0
 58128  1  0  0  0
 59 60  1  0  0  0
 59 61  1  0  0  0
 59 62  1  0  0  0
 60129  1  0  0  0
 60130  1  0  0  0
 60131  1  0  0  0
 61132  1  0  0  0
 61133  1  0  0  0
 61134  1  0  0  0
 62135  1  0  0  0
 62136  1  0  0  0
 62137  1  0  0  0
 63 65  1  0  0  0
 63138  1  0  0  0
 63139  1  0  0  0
 63140  1  0  0  0
 64141  1  0  0  0
 65142  1  0  0  0
 68 79  1  0  0  0
 71 73  2  0  0  0
 71 74  1  0  0  0
 71143  1  0  0  0
 72 75  2  0  0  0
 72 76  1  0  0  0
 72144  1  0  0  0
 73 75  1  0  0  0
 73 78  1  0  0  0
 74 76  2  0  0  0
 74 80  1  0  0  0
 75 81  1  0  0  0
 76 82  1  0  0  0
 77 78  1  0  0  0
 77 79  1  0  0  0
 77145  1  0  0  0
 77146  1  0  0  0
 78 79  1  0  0  0
 78147  1  0  0  0
 79148  1  0  0  0
 80149  1  0  0  0
 80150  1  0  0  0
 80151  1  0  0  0
 81152  1  0  0  0
 81153  1  0  0  0
 81154  1  0  0  0
 82 83  1  0  0  0
 82155  1  0  0  0
 82156  1  0  0  0
 83157  1  0  0  0
M  ISO  4   1 100  68 101  79 101  83 100
M  END
> <chiral flag>
0

> <version>
0

> <s_m_source_file>
/data/baiqing/PycharmProjects/Reinvent-master-3.2/result/LINK_invent/BTK/process_docking_weight1_custom_sum_contain_oxygen_bond_distance_aromatic_linkinvent_7_9_3/rearranged_h_0159.sdf

> <i_m_source_file_index>
90

> <r_mmod_Potential_Energy-OPLS-2005>
403.815307617188

> <r_mmod_Stretch_Energy-OPLS-2005>
192.179397583008

> <r_mmod_Bend_Energy-OPLS-2005>
342.515747070312

> <r_mmod_Torsional_Energy-OPLS-2005>
224.106597900391

> <r_mmod_Improper_Torsional_Energy-OPLS-2005>
7.03182220458984

> <r_mmod_Van_der_Waal_Energy-OPLS-2005>
137.775588989258

> <r_mmod_Electrostatic_Energy-OPLS-2005>
-418.382110595703

> <r_mmod_Solvation_Energy-OPLS-2005>
-206.712219238281

> <b_mmod_Minimization_Converged-OPLS-2005>
0

> <r_mmod_RMS_Derivative-OPLS-2005>
1.82230937480927

$$$$
90
                    3D
 Structure written by MMmdl.
149157  0  0  1  0            999 V2000
  -30.2947  -15.6124   20.3291 C   0  0  0  0  0  0
  -30.4306  -13.0573   19.5493 C   0  0  0  0  0  0
  -29.5537  -12.6545   18.3280 C   0  0  0  0  0  0
  -28.1236  -12.3027   18.7654 C   0  0  0  0  0  0
  -27.5997  -13.3055   19.8179 C   0  0  2  0  0  0
  -28.6158  -13.6177   20.9426 C   0  0  0  0  0  0
  -25.2332  -13.8284   20.5784 C   0  0  0  0  0  0
  -24.1720  -13.0436   20.9287 C   0  0  0  0  0  0
  -24.6417  -11.6946   20.8765 C   0  0  0  0  0  0
  -23.9119  -10.4294   21.0400 C   0  0  0  0  0  0
  -24.3653   -9.4206   21.9182 C   0  0  0  0  0  0
  -23.6314   -8.2247   22.0754 C   0  0  0  0  0  0
  -22.4294   -8.0288   21.3545 C   0  0  0  0  0  0
  -21.9941   -9.0264   20.4644 C   0  0  0  0  0  0
  -22.7285  -10.2136   20.3052 C   0  0  0  0  0  0
  -21.6859   -6.0742   22.5278 C   0  0  0  0  0  0
  -21.4019   -6.5643   23.8212 C   0  0  0  0  0  0
  -21.3661   -5.6795   24.9173 C   0  0  0  0  0  0
  -21.6044   -4.3058   24.7223 C   0  0  0  0  0  0
  -21.8818   -3.8151   23.4343 C   0  0  0  0  0  0
  -21.9194   -4.6969   22.3400 C   0  0  0  0  0  0
  -22.7731  -13.5168   21.1921 C   0  0  0  0  0  0
  -22.1661   -4.2154   21.0977 F   0  0  0  0  0  0
  -21.5628   -3.4540   25.7735 F   0  0  0  0  0  0
  -29.8003  -14.2346   20.3012 N   0  0  0  0  0  0
  -26.2782  -12.9610   20.3235 N   0  0  0  0  0  0
  -25.9364  -11.6684   20.5705 N   0  0  0  0  0  0
  -22.0395  -12.8143   22.0472 N   0  0  0  0  0  0
  -25.3920  -15.2025   20.4208 N   0  0  0  0  0  0
  -31.5239  -15.5773   20.1169 O   0  0  0  0  0  0
  -21.6649   -6.8890   21.4243 O   0  0  0  0  0  0
  -22.3405  -14.5465   20.6755 O   0  0  0  0  0  0
  -24.6839  -31.7993   23.1516 C   0  0  0  0  0  0
  -25.9420  -32.4464   23.8062 C   0  0  1  0  0  0
  -27.2284  -26.7034   20.2121 C   0  0  0  0  0  0
  -25.5997  -33.8289   24.1949 N   0  0  0  0  0  0
  -23.5105  -30.4012   21.5047 C   0  0  2  0  0  0
  -24.9696  -28.7437   20.1149 C   0  0  0  0  0  0
  -22.7768  -29.4311   22.4703 C   0  0  0  0  0  0
  -18.0338  -28.1426   22.8457 C   0  0  0  0  0  0
  -24.1492  -36.7151   23.2651 C   0  0  0  0  0  0
  -26.0909  -30.5320   21.4169 C   0  0  0  0  0  0
  -26.1571  -29.0971   20.7663 C   0  0  0  0  0  0
  -27.2703  -28.1037   20.7856 C   0  0  0  0  0  0
  -26.0110  -26.5626   19.4974 C   0  0  0  0  0  0
  -24.9358  -27.5021   19.4567 C   0  0  0  0  0  0
  -23.7651  -29.6985   20.1396 C   0  0  0  0  0  0
  -25.4143  -36.2892   24.0281 C   0  0  1  0  0  0
  -20.5975  -28.3785   23.1142 C   0  0  2  0  0  0
  -20.6802  -26.9443   22.5405 C   0  0  0  0  0  0
  -19.5777  -26.6375   21.5218 C   0  0  0  0  0  0
  -18.1960  -26.7953   22.1623 C   0  0  0  0  0  0
  -19.1606  -28.8930   23.2779 C   0  0  0  0  0  0
  -18.9510  -30.1514   23.8825 C   0  0  0  0  0  0
  -17.6501  -30.6607   24.0554 C   0  0  0  0  0  0
  -25.9125  -34.9283   23.4952 C   0  0  0  0  0  0
  -16.5390  -29.9091   23.6352 C   0  0  0  0  0  0
  -16.7318  -28.6514   23.0368 C   0  0  0  0  0  0
  -26.4598  -31.6500   25.0686 C   0  0  0  0  0  0
  -25.3665  -31.3819   26.1304 C   0  0  0  0  0  0
  -27.0532  -30.2837   24.6587 C   0  0  0  0  0  0
  -27.6041  -32.4366   25.7508 C   0  0  0  0  0  0
  -27.5563  -37.1730   24.8464 C   0  0  0  0  0  0
  -21.4415  -29.3029   22.3457 N   0  0  0  0  0  0
  -26.4265  -37.3657   23.9413 N   0  0  0  0  0  0
  -24.7851  -30.9439   22.0769 N   0  0  0  0  0  0
  -23.4210  -28.7913   23.3049 O   0  0  0  0  0  0
  -28.1737  -25.4720   20.3172 O   0  0  0  0  0  0
  -26.5767  -34.8861   22.4570 O   0  0  0  0  0  0
  -23.5858  -32.1067   23.6469 O   0  0  0  0  0  0
  -28.2260  -19.4190   20.9964 C   0  0  0  0  0  0
  -27.8897  -20.9043   20.9660 C   0  0  0  0  0  0
  -28.5854  -22.0291   20.2853 C   0  0  0  0  0  0
  -29.6866  -21.1956   19.6851 C   0  0  0  0  0  0
  -29.3293  -18.6458   20.3837 C   0  0  0  0  0  0
  -26.6227  -21.2874   21.7087 C   0  0  0  0  0  0
  -30.6660  -21.9360   18.7987 C   0  0  0  0  0  0
  -27.9211  -23.7668   19.9975 C   0  0  0  0  0  0
  -30.0070  -19.7464   19.7506 N   0  0  0  0  0  0
  -29.4701  -16.9266   20.4589 N   0  0  0  0  0  0
  -31.4271  -13.3156   19.1893 H   0  0  0  0  0  0
  -30.5835  -12.2046   20.2131 H   0  0  0  0  0  0
  -30.0023  -11.8160   17.7936 H   0  0  0  0  0  0
  -29.5213  -13.4863   17.6228 H   0  0  0  0  0  0
  -28.1431  -11.3009   19.1963 H   0  0  0  0  0  0
  -27.4558  -12.2563   17.9044 H   0  0  0  0  0  0
  -27.4698  -14.2330   19.2588 H   0  0  0  0  0  0
  -28.8651  -12.7269   21.5212 H   0  0  0  0  0  0
  -28.1860  -14.3299   21.6484 H   0  0  0  0  0  0
  -25.2792   -9.5679   22.4766 H   0  0  0  0  0  0
  -24.0014   -7.4640   22.7480 H   0  0  0  0  0  0
  -21.0870   -8.8794   19.8951 H   0  0  0  0  0  0
  -22.3744  -10.9678   19.6164 H   0  0  0  0  0  0
  -21.2014   -7.6152   23.9717 H   0  0  0  0  0  0
  -21.1484   -6.0524   25.9077 H   0  0  0  0  0  0
  -22.0595   -2.7613   23.2841 H   0  0  0  0  0  0
  -22.4035  -11.9818   22.4866 H   0  0  0  0  0  0
  -21.1003  -13.1141   22.2675 H   0  0  0  0  0  0
  -24.6124  -15.8438   20.5198 H   0  0  0  0  0  0
  -26.2164  -15.6408   20.0335 H   0  0  0  0  0  0
  -26.7504  -32.4938   23.0776 H   0  0  0  0  0  0
  -25.0053  -33.9327   25.0040 H   0  0  0  0  0  0
  -22.8359  -31.2386   21.3149 H   0  0  0  0  0  0
  -23.3772  -35.9461   23.3259 H   0  0  0  0  0  0
  -24.3559  -36.8868   22.2076 H   0  0  0  0  0  0
  -23.7232  -37.6307   23.6763 H   0  0  0  0  0  0
  -26.2940  -31.2567   20.6274 H   0  0  0  0  0  0
  -26.9417  -30.6000   22.0823 H   0  0  0  0  0  0
  -28.1593  -28.3772   21.3362 H   0  0  0  0  0  0
  -25.8436  -25.6224   18.9919 H   0  0  0  0  0  0
  -24.0404  -27.2234   18.9178 H   0  0  0  0  0  0
  -23.9402  -30.4591   19.3778 H   0  0  0  0  0  0
  -22.8701  -29.1651   19.8149 H   0  0  0  0  0  0
  -25.1350  -36.1650   25.0770 H   0  0  0  0  0  0
  -21.0059  -28.3412   24.1267 H   0  0  0  0  0  0
  -20.5659  -26.2412   23.3670 H   0  0  0  0  0  0
  -21.6664  -26.7380   22.1226 H   0  0  0  0  0  0
  -19.6930  -25.6266   21.1296 H   0  0  0  0  0  0
  -19.6718  -27.3145   20.6715 H   0  0  0  0  0  0
  -17.4229  -26.6698   21.4027 H   0  0  0  0  0  0
  -18.0348  -26.0113   22.9036 H   0  0  0  0  0  0
  -19.7985  -30.7350   24.2161 H   0  0  0  0  0  0
  -17.5051  -31.6278   24.5174 H   0  0  0  0  0  0
  -15.5388  -30.2972   23.7715 H   0  0  0  0  0  0
  -15.8719  -28.0810   22.7125 H   0  0  0  0  0  0
  -24.5877  -30.7136   25.7612 H   0  0  0  0  0  0
  -24.8825  -32.3042   26.4525 H   0  0  0  0  0  0
  -25.7849  -30.9123   27.0215 H   0  0  0  0  0  0
  -26.3250  -29.6452   24.1575 H   0  0  0  0  0  0
  -27.3952  -29.7282   25.5330 H   0  0  0  0  0  0
  -27.9234  -30.3960   24.0118 H   0  0  0  0  0  0
  -27.2570  -33.3732   26.1884 H   0  0  0  0  0  0
  -28.3956  -32.6828   25.0417 H   0  0  0  0  0  0
  -28.0596  -31.8633   26.5592 H   0  0  0  0  0  0
  -28.2540  -38.0063   24.7528 H   0  0  0  0  0  0
  -28.1100  -36.2588   24.6268 H   0  0  0  0  0  0
  -27.2282  -37.1337   25.8865 H   0  0  0  0  0  0
  -20.9719  -29.8690   21.6528 H   0  0  0  0  0  0
  -26.0089  -38.2700   24.1440 H   0  0  0  0  0  0
  -27.5279  -18.8041   21.5479 H   0  0  0  0  0  0
  -26.3267  -20.5225   22.4268 H   0  0  0  0  0  0
  -25.7996  -21.4292   21.0082 H   0  0  0  0  0  0
  -26.7654  -22.2139   22.2654 H   0  0  0  0  0  0
  -30.2964  -22.9267   18.5353 H   0  0  0  0  0  0
  -30.8405  -21.3893   17.8719 H   0  0  0  0  0  0
  -31.6204  -22.0575   19.3107 H   0  0  0  0  0  0
  -26.8834  -23.6581   20.3100 H   0  0  0  0  0  0
  -27.8478  -23.7747   18.9099 H   0  0  0  0  0  0
  -28.5586  -16.5816   20.7151 H   0  0  0  0  0  0
  1 25  1  0  0  0
  1 30  2  0  0  0
  1 80  1  0  0  0
  2  3  1  0  0  0
  2 25  1  0  0  0
  2 81  1  0  0  0
  2 82  1  0  0  0
  3  4  1  0  0  0
  3 83  1  0  0  0
  3 84  1  0  0  0
  4  5  1  0  0  0
  4 85  1  0  0  0
  4 86  1  0  0  0
  5  6  1  0  0  0
  5 26  1  0  0  0
  5 87  1  0  0  0
  6 25  1  0  0  0
  6 88  1  0  0  0
  6 89  1  0  0  0
  7  8  2  0  0  0
  7 26  1  0  0  0
  7 29  1  0  0  0
  8  9  1  0  0  0
  8 22  1  0  0  0
  9 10  1  0  0  0
  9 27  2  0  0  0
 10 11  2  0  0  0
 10 15  1  0  0  0
 11 12  1  0  0  0
 11 90  1  0  0  0
 12 13  2  0  0  0
 12 91  1  0  0  0
 13 14  1  0  0  0
 13 31  1  0  0  0
 14 15  2  0  0  0
 14 92  1  0  0  0
 15 93  1  0  0  0
 16 17  2  0  0  0
 16 21  1  0  0  0
 16 31  1  0  0  0
 17 18  1  0  0  0
 17 94  1  0  0  0
 18 19  2  0  0  0
 18 95  1  0  0  0
 19 20  1  0  0  0
 19 24  1  0  0  0
 20 21  2  0  0  0
 20 96  1  0  0  0
 21 23  1  0  0  0
 22 28  1  0  0  0
 22 32  2  0  0  0
 26 27  1  0  0  0
 28 97  1  0  0  0
 28 98  1  0  0  0
 29 99  1  0  0  0
 29100  1  0  0  0
 33 34  1  0  0  0
 33 66  1  0  0  0
 33 70  2  0  0  0
 34 36  1  0  0  0
 34 59  1  0  0  0
 34101  1  0  0  0
 35 44  2  0  0  0
 35 45  1  0  0  0
 35 68  1  0  0  0
 36 56  1  0  0  0
 36102  1  0  0  0
 37 39  1  0  0  0
 37 47  1  0  0  0
 37 66  1  0  0  0
 37103  1  0  0  0
 38 43  2  0  0  0
 38 46  1  0  0  0
 38 47  1  0  0  0
 39 64  1  0  0  0
 39 67  2  0  0  0
 40 52  1  0  0  0
 40 53  2  0  0  0
 40 58  1  0  0  0
 41104  1  0  0  0
 41105  1  0  0  0
 41106  1  0  0  0
 41 48  1  0  0  0
 42 43  1  0  0  0
 42 66  1  0  0  0
 42107  1  0  0  0
 42108  1  0  0  0
 43 44  1  0  0  0
 44109  1  0  0  0
 45 46  2  0  0  0
 45110  1  0  0  0
 46111  1  0  0  0
 47112  1  0  0  0
 47113  1  0  0  0
 48 56  1  0  0  0
 48 65  1  0  0  0
 48114  1  0  0  0
 49 50  1  0  0  0
 49 53  1  0  0  0
 49 64  1  0  0  0
 49115  1  0  0  0
 50 51  1  0  0  0
 50116  1  0  0  0
 50117  1  0  0  0
 51 52  1  0  0  0
 51118  1  0  0  0
 51119  1  0  0  0
 52120  1  0  0  0
 52121  1  0  0  0
 53 54  1  0  0  0
 54 55  2  0  0  0
 54122  1  0  0  0
 55 57  1  0  0  0
 55123  1  0  0  0
 56 69  2  0  0  0
 57 58  2  0  0  0
 57124  1  0  0  0
 58125  1  0  0  0
 59 60  1  0  0  0
 59 61  1  0  0  0
 59 62  1  0  0  0
 60126  1  0  0  0
 60127  1  0  0  0
 60128  1  0  0  0
 61129  1  0  0  0
 61130  1  0  0  0
 61131  1  0  0  0
 62132  1  0  0  0
 62133  1  0  0  0
 62134  1  0  0  0
 63 65  1  0  0  0
 63135  1  0  0  0
 63136  1  0  0  0
 63137  1  0  0  0
 64138  1  0  0  0
 65139  1  0  0  0
 68 78  1  0  0  0
 71 72  2  0  0  0
 71 75  1  0  0  0
 71140  1  0  0  0
 72 73  1  0  0  0
 72 76  1  0  0  0
 73 74  2  0  0  0
 73 78  1  0  0  0
 74 77  1  0  0  0
 74 79  1  0  0  0
 75 79  2  0  0  0
 75 80  1  0  0  0
 76141  1  0  0  0
 76142  1  0  0  0
 76143  1  0  0  0
 77144  1  0  0  0
 77145  1  0  0  0
 77146  1  0  0  0
 78147  1  0  0  0
 78148  1  0  0  0
 80149  1  0  0  0
M  ISO  4   1 100  68 101  78 101  80 100
M  END
> <chiral flag>
0

> <version>
0

> <s_m_source_file>
/data/baiqing/PycharmProjects/Reinvent-master-3.2/result/LINK_invent/BTK/process_docking_weight1_custom_sum_contain_oxygen_bond_distance_aromatic_linkinvent_7_9_3/rearranged_h_0159.sdf

> <i_m_source_file_index>
91

> <r_mmod_Potential_Energy-OPLS-2005>
2170.373046875

> <r_mmod_Stretch_Energy-OPLS-2005>
944.798217773438

> <r_mmod_Bend_Energy-OPLS-2005>
684.281677246094

> <r_mmod_Torsional_Energy-OPLS-2005>
223.474838256836

> <r_mmod_Improper_Torsional_Energy-OPLS-2005>
6.72241353988647

> <r_mmod_Van_der_Waal_Energy-OPLS-2005>
134.088821411133

> <r_mmod_Electrostatic_Energy-OPLS-2005>
-471.487182617188

> <r_mmod_Solvation_Energy-OPLS-2005>
-238.21955871582

> <b_mmod_Minimization_Converged-OPLS-2005>
0

> <r_mmod_RMS_Derivative-OPLS-2005>
0.263512223958969

$$$$
91
                    3D
 Structure written by MMmdl.
184195  0  0  1  0            999 V2000
  -30.6833  -14.6116   20.4615 C   0  0  0  0  0  0
  -30.4182  -12.3732   19.4515 C   0  0  0  0  0  0
  -29.4996  -12.4948   18.2187 C   0  0  0  0  0  0
  -28.0238  -12.3431   18.6335 C   0  0  0  0  0  0
  -27.6469  -13.2278   19.8530 C   0  0  2  0  0  0
  -28.6943  -13.1251   20.9839 C   0  0  0  0  0  0
  -25.2533  -13.8198   20.5685 C   0  0  0  0  0  0
  -24.1818  -13.0451   20.9195 C   0  0  0  0  0  0
  -24.6402  -11.6923   20.8747 C   0  0  0  0  0  0
  -23.9081  -10.4300   21.0410 C   0  0  0  0  0  0
  -24.3631   -9.4212   21.9188 C   0  0  0  0  0  0
  -23.6300   -8.2252   22.0758 C   0  0  0  0  0  0
  -22.4283   -8.0291   21.3548 C   0  0  0  0  0  0
  -21.9923   -9.0268   20.4648 C   0  0  0  0  0  0
  -22.7256  -10.2142   20.3057 C   0  0  0  0  0  0
  -21.6857   -6.0742   22.5280 C   0  0  0  0  0  0
  -21.4016   -6.5644   23.8213 C   0  0  0  0  0  0
  -21.3660   -5.6795   24.9176 C   0  0  0  0  0  0
  -21.6045   -4.3057   24.7223 C   0  0  0  0  0  0
  -21.8820   -3.8150   23.4343 C   0  0  0  0  0  0
  -21.9193   -4.6968   22.3400 C   0  0  0  0  0  0
  -22.7837  -13.5228   21.1848 C   0  0  0  0  0  0
  -22.1662   -4.2154   21.0976 F   0  0  0  0  0  0
  -21.5628   -3.4539   25.7736 F   0  0  0  0  0  0
  -30.0070  -13.4249   20.4003 N   0  0  0  0  0  0
  -26.2969  -12.9405   20.3298 N   0  0  0  0  0  0
  -25.9335  -11.6547   20.5758 N   0  0  0  0  0  0
  -22.0490  -12.8220   22.0407 N   0  0  0  0  0  0
  -25.4215  -15.1926   20.4092 N   0  0  0  0  0  0
  -31.8820  -14.6688   20.1856 O   0  0  0  0  0  0
  -21.6643   -6.8891   21.4243 O   0  0  0  0  0  0
  -22.3520  -14.5539   20.6704 O   0  0  0  0  0  0
  -24.6253  -31.8616   23.2044 C   0  0  0  0  0  0
  -25.9106  -32.4787   23.8370 C   0  0  1  0  0  0
  -27.2237  -27.3353   20.1062 C   0  0  0  0  0  0
  -25.5922  -33.8587   24.2291 N   0  0  0  0  0  0
  -23.4189  -30.4851   21.5473 C   0  0  2  0  0  0
  -24.8661  -28.9444   20.1098 C   0  0  0  0  0  0
  -22.7476  -29.4628   22.4950 C   0  0  0  0  0  0
  -18.0283  -28.1382   22.8485 C   0  0  0  0  0  0
  -24.1489  -36.7300   23.2639 C   0  0  0  0  0  0
  -25.9604  -30.7931   21.3769 C   0  0  0  0  0  0
  -26.0358  -29.4231   20.7162 C   0  0  0  0  0  0
  -27.2211  -28.6290   20.7088 C   0  0  0  0  0  0
  -26.0382  -26.9148   19.4638 C   0  0  0  0  0  0
  -24.8670  -27.6929   19.4768 C   0  0  0  0  0  0
  -23.6329  -29.8221   20.1622 C   0  0  0  0  0  0
  -25.4111  -36.3090   24.0329 C   0  0  1  0  0  0
  -20.5884  -28.3689   23.1283 C   0  0  2  0  0  0
  -20.6780  -26.9416   22.5414 C   0  0  0  0  0  0
  -19.5759  -26.6383   21.5211 C   0  0  0  0  0  0
  -18.1932  -26.7928   22.1613 C   0  0  0  0  0  0
  -19.1536  -28.8851   23.2877 C   0  0  0  0  0  0
  -18.9461  -30.1452   23.8901 C   0  0  0  0  0  0
  -17.6465  -30.6591   24.0556 C   0  0  0  0  0  0
  -25.9045  -34.9457   23.5109 C   0  0  0  0  0  0
  -16.5354  -29.9093   23.6325 C   0  0  0  0  0  0
  -16.7273  -28.6503   23.0356 C   0  0  0  0  0  0
  -26.4495  -31.6598   25.0740 C   0  0  0  0  0  0
  -25.3728  -31.3721   26.1469 C   0  0  0  0  0  0
  -27.0354  -30.3027   24.6197 C   0  0  0  0  0  0
  -27.6055  -32.4342   25.7503 C   0  0  0  0  0  0
  -27.5584  -37.1798   24.8456 C   0  0  0  0  0  0
  -21.4192  -29.3044   22.3684 N   0  0  0  0  0  0
  -26.4290  -37.3781   23.9407 N   0  0  0  0  0  0
  -24.6865  -31.0624   22.0997 N   0  0  0  0  0  0
  -23.4211  -28.8168   23.3019 O   0  0  0  0  0  0
  -28.3081  -26.4487   20.1404 O   0  0  0  0  0  0
  -26.5626  -34.8925   22.4682 O   0  0  0  0  0  0
  -23.5415  -32.1412   23.7370 O   0  0  0  0  0  0
  -29.3277  -23.1639   21.6634 C   0  0  0  0  0  0
  -29.8252  -21.8380   21.6133 C   0  0  0  0  0  0
  -29.7654  -21.0889   20.4052 C   0  0  0  0  0  0
  -29.1882  -21.7082   19.2490 C   0  0  0  0  0  0
  -28.7697  -23.8238   20.5415 C   0  0  0  0  0  0
  -28.7315  -23.0816   19.3181 C   0  0  0  0  0  0
  -30.4054  -21.0875   22.8014 C   0  0  0  0  0  0
  -31.7467  -20.4005   22.5123 C   0  0  0  0  0  0
  -31.8795  -19.9257   21.0589 C   0  0  0  0  0  0
  -29.8405  -18.4015   21.0021 C   0  0  0  0  0  0
  -29.0813  -20.7237   18.0708 C   0  0  2  0  0  0
  -30.8465  -19.1284   18.9129 C   0  0  1  0  0  0
  -30.4292  -20.0498   17.7507 C   0  0  2  0  0  0
  -30.4802  -17.1521   20.2949 C   0  0  2  0  0  0
  -30.5176  -19.6770   20.3476 C   0  0  1  0  0  0
  -30.4320  -17.6080   18.8128 C   0  0  0  0  0  0
  -28.1808  -23.7682   18.0762 C   0  0  0  0  0  0
  -31.5197  -21.0844   17.3999 C   0  0  0  0  0  0
  -29.0232  -17.3551   18.2122 C   0  0  0  0  0  0
  -31.4418  -16.8390   17.9357 C   0  0  0  0  0  0
  -27.8834  -20.3824   16.0162 C   0  0  0  0  0  0
  -27.9917  -25.1686   20.8055 C   0  0  0  0  0  0
  -29.9552  -15.7657   20.5786 N   0  0  0  0  0  0
  -28.5553  -21.2971   16.8765 O   0  0  0  0  0  0
  -31.4635  -12.4643   19.1499 H   0  0  0  0  0  0
  -30.3235  -11.3883   19.9109 H   0  0  0  0  0  0
  -29.7594  -11.7385   17.4771 H   0  0  0  0  0  0
  -29.6514  -13.4629   17.7376 H   0  0  0  0  0  0
  -27.8577  -11.2920   18.8736 H   0  0  0  0  0  0
  -27.3710  -12.5688   17.7893 H   0  0  0  0  0  0
  -27.6546  -14.2568   19.4931 H   0  0  0  0  0  0
  -28.6960  -12.1271   21.4241 H   0  0  0  0  0  0
  -28.4578  -13.8181   21.7938 H   0  0  0  0  0  0
  -25.2776   -9.5685   22.4761 H   0  0  0  0  0  0
  -24.0005   -7.4646   22.7481 H   0  0  0  0  0  0
  -21.0854   -8.8795   19.8953 H   0  0  0  0  0  0
  -22.3723  -10.9685   19.6167 H   0  0  0  0  0  0
  -21.2015   -7.6153   23.9719 H   0  0  0  0  0  0
  -21.1479   -6.0524   25.9079 H   0  0  0  0  0  0
  -22.0599   -2.7613   23.2842 H   0  0  0  0  0  0
  -22.4105  -11.9877   22.4792 H   0  0  0  0  0  0
  -21.1106  -13.1236   22.2615 H   0  0  0  0  0  0
  -24.6515  -15.8434   20.5185 H   0  0  0  0  0  0
  -26.2672  -15.6352   20.0753 H   0  0  0  0  0  0
  -26.7174  -32.5464   23.1117 H   0  0  0  0  0  0
  -25.0070  -33.9727   25.0439 H   0  0  0  0  0  0
  -22.7110  -31.3049   21.4057 H   0  0  0  0  0  0
  -23.3761  -35.9625   23.3286 H   0  0  0  0  0  0
  -24.3580  -36.8935   22.2057 H   0  0  0  0  0  0
  -23.7237  -37.6488   23.6679 H   0  0  0  0  0  0
  -26.0930  -31.5584   20.6115 H   0  0  0  0  0  0
  -26.8398  -30.8389   22.0078 H   0  0  0  0  0  0
  -28.1169  -28.9848   21.1978 H   0  0  0  0  0  0
  -26.0033  -25.9575   18.9643 H   0  0  0  0  0  0
  -23.9724  -27.3218   18.9956 H   0  0  0  0  0  0
  -23.7516  -30.6010   19.4077 H   0  0  0  0  0  0
  -22.7536  -29.2503   19.8597 H   0  0  0  0  0  0
  -25.1288  -36.1942   25.0821 H   0  0  0  0  0  0
  -20.9958  -28.3279   24.1407 H   0  0  0  0  0  0
  -20.5674  -26.2309   23.3616 H   0  0  0  0  0  0
  -21.6653  -26.7453   22.1208 H   0  0  0  0  0  0
  -19.6925  -25.6290   21.1248 H   0  0  0  0  0  0
  -19.6698  -27.3189   20.6733 H   0  0  0  0  0  0
  -17.4204  -26.6673   21.4012 H   0  0  0  0  0  0
  -18.0322  -26.0069   22.8999 H   0  0  0  0  0  0
  -19.7942  -30.7251   24.2292 H   0  0  0  0  0  0
  -17.5030  -31.6273   24.5166 H   0  0  0  0  0  0
  -15.5360  -30.3004   23.7651 H   0  0  0  0  0  0
  -15.8662  -28.0825   22.7086 H   0  0  0  0  0  0
  -24.5916  -30.7052   25.7792 H   0  0  0  0  0  0
  -24.8910  -32.2882   26.4898 H   0  0  0  0  0  0
  -25.8064  -30.8902   27.0243 H   0  0  0  0  0  0
  -26.2936  -29.6758   24.1236 H   0  0  0  0  0  0
  -27.4066  -29.7297   25.4701 H   0  0  0  0  0  0
  -27.8797  -30.4310   23.9420 H   0  0  0  0  0  0
  -27.2671  -33.3651   26.2066 H   0  0  0  0  0  0
  -28.3874  -32.6884   25.0335 H   0  0  0  0  0  0
  -28.0723  -31.8483   26.5428 H   0  0  0  0  0  0
  -28.2580  -38.0119   24.7551 H   0  0  0  0  0  0
  -28.1106  -36.2653   24.6231 H   0  0  0  0  0  0
  -27.2313  -37.1387   25.8861 H   0  0  0  0  0  0
  -20.9383  -29.8770   21.6889 H   0  0  0  0  0  0
  -26.0176  -38.2848   24.1440 H   0  0  0  0  0  0
  -29.3426  -23.6748   22.6157 H   0  0  0  0  0  0
  -29.6671  -20.3520   23.1205 H   0  0  0  0  0  0
  -30.5184  -21.7662   23.6479 H   0  0  0  0  0  0
  -31.8831  -19.5697   23.2056 H   0  0  0  0  0  0
  -32.5618  -21.0954   22.7184 H   0  0  0  0  0  0
  -32.5324  -19.0533   21.0327 H   0  0  0  0  0  0
  -32.4165  -20.6975   20.5041 H   0  0  0  0  0  0
  -29.9730  -18.3523   22.0812 H   0  0  0  0  0  0
  -28.7650  -18.4309   20.8316 H   0  0  0  0  0  0
  -28.3607  -19.9824   18.4116 H   0  0  0  0  0  0
  -31.9342  -19.0945   18.8343 H   0  0  0  0  0  0
  -30.3342  -19.4256   16.8652 H   0  0  0  0  0  0
  -31.5243  -17.1356   20.6088 H   0  0  0  0  0  0
  -27.2350  -23.3220   17.7717 H   0  0  0  0  0  0
  -28.8921  -23.6786   17.2548 H   0  0  0  0  0  0
  -28.0203  -24.8355   18.2114 H   0  0  0  0  0  0
  -31.7680  -21.7186   18.2506 H   0  0  0  0  0  0
  -31.1933  -21.7352   16.5879 H   0  0  0  0  0  0
  -32.4377  -20.5953   17.0739 H   0  0  0  0  0  0
  -28.2225  -17.8212   18.7824 H   0  0  0  0  0  0
  -28.7961  -16.2895   18.1761 H   0  0  0  0  0  0
  -28.9455  -17.7117   17.1858 H   0  0  0  0  0  0
  -32.4442  -16.8543   18.3652 H   0  0  0  0  0  0
  -31.5084  -17.2688   16.9360 H   0  0  0  0  0  0
  -31.1572  -15.7939   17.8141 H   0  0  0  0  0  0
  -27.4701  -20.9226   15.1647 H   0  0  0  0  0  0
  -27.0552  -19.8880   16.5252 H   0  0  0  0  0  0
  -28.5489  -19.6174   15.6175 H   0  0  0  0  0  0
  -28.0653  -25.3833   21.8719 H   0  0  0  0  0  0
  -26.9457  -24.8940   20.6750 H   0  0  0  0  0  0
  -28.9675  -15.6681   20.7532 H   0  0  0  0  0  0
  1 25  1  0  0  0
  1 30  2  0  0  0
  1 93  1  0  0  0
  2  3  1  0  0  0
  2 25  1  0  0  0
  2 95  1  0  0  0
  2 96  1  0  0  0
  3  4  1  0  0  0
  3 97  1  0  0  0
  3 98  1  0  0  0
  4  5  1  0  0  0
  4 99  1  0  0  0
  4100  1  0  0  0
  5  6  1  0  0  0
  5 26  1  0  0  0
  5101  1  0  0  0
  6 25  1  0  0  0
  6102  1  0  0  0
  6103  1  0  0  0
  7  8  2  0  0  0
  7 26  1  0  0  0
  7 29  1  0  0  0
  8  9  1  0  0  0
  8 22  1  0  0  0
  9 10  1  0  0  0
  9 27  2  0  0  0
 10 11  2  0  0  0
 10 15  1  0  0  0
 11 12  1  0  0  0
 11104  1  0  0  0
 12 13  2  0  0  0
 12105  1  0  0  0
 13 14  1  0  0  0
 13 31  1  0  0  0
 14 15  2  0  0  0
 14106  1  0  0  0
 15107  1  0  0  0
 16 17  2  0  0  0
 16 21  1  0  0  0
 16 31  1  0  0  0
 17 18  1  0  0  0
 17108  1  0  0  0
 18 19  2  0  0  0
 18109  1  0  0  0
 19 20  1  0  0  0
 19 24  1  0  0  0
 20 21  2  0  0  0
 20110  1  0  0  0
 21 23  1  0  0  0
 22 28  1  0  0  0
 22 32  2  0  0  0
 26 27  1  0  0  0
 28111  1  0  0  0
 28112  1  0  0  0
 29113  1  0  0  0
 29114  1  0  0  0
 33 34  1  0  0  0
 33 66  1  0  0  0
 33 70  2  0  0  0
 34 36  1  0  0  0
 34 59  1  0  0  0
 34115  1  0  0  0
 35 44  2  0  0  0
 35 45  1  0  0  0
 35 68  1  0  0  0
 36 56  1  0  0  0
 36116  1  0  0  0
 37 39  1  0  0  0
 37 47  1  0  0  0
 37 66  1  0  0  0
 37117  1  0  0  0
 38 43  2  0  0  0
 38 46  1  0  0  0
 38 47  1  0  0  0
 39 64  1  0  0  0
 39 67  2  0  0  0
 40 52  1  0  0  0
 40 53  2  0  0  0
 40 58  1  0  0  0
 41118  1  0  0  0
 41119  1  0  0  0
 41120  1  0  0  0
 41 48  1  0  0  0
 42 43  1  0  0  0
 42 66  1  0  0  0
 42121  1  0  0  0
 42122  1  0  0  0
 43 44  1  0  0  0
 44123  1  0  0  0
 45 46  2  0  0  0
 45124  1  0  0  0
 46125  1  0  0  0
 47126  1  0  0  0
 47127  1  0  0  0
 48 56  1  0  0  0
 48 65  1  0  0  0
 48128  1  0  0  0
 49 50  1  0  0  0
 49 53  1  0  0  0
 49 64  1  0  0  0
 49129  1  0  0  0
 50 51  1  0  0  0
 50130  1  0  0  0
 50131  1  0  0  0
 51 52  1  0  0  0
 51132  1  0  0  0
 51133  1  0  0  0
 52134  1  0  0  0
 52135  1  0  0  0
 53 54  1  0  0  0
 54 55  2  0  0  0
 54136  1  0  0  0
 55 57  1  0  0  0
 55137  1  0  0  0
 56 69  2  0  0  0
 57 58  2  0  0  0
 57138  1  0  0  0
 58139  1  0  0  0
 59 60  1  0  0  0
 59 61  1  0  0  0
 59 62  1  0  0  0
 60140  1  0  0  0
 60141  1  0  0  0
 60142  1  0  0  0
 61143  1  0  0  0
 61144  1  0  0  0
 61145  1  0  0  0
 62146  1  0  0  0
 62147  1  0  0  0
 62148  1  0  0  0
 63 65  1  0  0  0
 63149  1  0  0  0
 63150  1  0  0  0
 63151  1  0  0  0
 64152  1  0  0  0
 65153  1  0  0  0
 68 92  1  0  0  0
 71 72  2  0  0  0
 71 75  1  0  0  0
 71154  1  0  0  0
 72 73  1  0  0  0
 72 77  1  0  0  0
 73 74  2  0  0  0
 73 85  1  0  0  0
 74 76  1  0  0  0
 74 81  1  0  0  0
 75 76  2  0  0  0
 75 92  1  0  0  0
 76 87  1  0  0  0
 77 78  1  0  0  0
 77155  1  0  0  0
 77156  1  0  0  0
 78 79  1  0  0  0
 78157  1  0  0  0
 78158  1  0  0  0
 79159  1  0  0  0
 79160  1  0  0  0
 79 85  1  0  0  0
 80 84  1  0  0  0
 80 85  1  0  0  0
 80161  1  0  0  0
 80162  1  0  0  0
 81 83  1  0  0  0
 81 94  1  0  0  0
 81163  1  0  0  0
 82 83  1  0  0  0
 82 85  1  0  0  0
 82 86  1  0  0  0
 82164  1  0  0  0
 83 88  1  0  0  0
 83165  1  0  0  0
 84 86  1  0  0  0
 84 93  1  0  0  0
 84166  1  0  0  0
 86 89  1  0  0  0
 86 90  1  0  0  0
 87167  1  0  0  0
 87168  1  0  0  0
 87169  1  0  0  0
 88170  1  0  0  0
 88171  1  0  0  0
 88172  1  0  0  0
 89173  1  0  0  0
 89174  1  0  0  0
 89175  1  0  0  0
 90176  1  0  0  0
 90177  1  0  0  0
 90178  1  0  0  0
 91 94  1  0  0  0
 91179  1  0  0  0
 91180  1  0  0  0
 91181  1  0  0  0
 92182  1  0  0  0
 92183  1  0  0  0
 93184  1  0  0  0
M  ISO  4   1 100  68 101  92 101  93 100
M  END
> <chiral flag>
0

> <version>
0

> <s_m_source_file>
/data/baiqing/PycharmProjects/Reinvent-master-3.2/result/LINK_invent/BTK/process_docking_weight1_custom_sum_contain_oxygen_bond_distance_aromatic_linkinvent_7_9_3/rearranged_h_0159.sdf

> <i_m_source_file_index>
92

> <r_mmod_Potential_Energy-OPLS-2005>
315.966888427734

> <r_mmod_Stretch_Energy-OPLS-2005>
92.5742874145508

> <r_mmod_Bend_Energy-OPLS-2005>
241.539596557617

> <r_mmod_Torsional_Energy-OPLS-2005>
361.123382568359

> <r_mmod_Improper_Torsional_Energy-OPLS-2005>
8.66815280914307

> <r_mmod_Van_der_Waal_Energy-OPLS-2005>
168.042678833008

> <r_mmod_Electrostatic_Energy-OPLS-2005>
-406.474334716797

> <r_mmod_Solvation_Energy-OPLS-2005>
-198.944793701172

> <b_mmod_Minimization_Converged-OPLS-2005>
0

> <r_mmod_RMS_Derivative-OPLS-2005>
1.40503072738647

$$$$
92
                    3D
 Structure written by MMmdl.
170180  0  0  1  0            999 V2000
  -30.7326  -14.4675   20.6277 C   0  0  0  0  0  0
  -30.4180  -12.3311   19.4138 C   0  0  0  0  0  0
  -29.4862  -12.5170   18.2004 C   0  0  0  0  0  0
  -28.0117  -12.3647   18.6198 C   0  0  0  0  0  0
  -27.6592  -13.2100   19.8723 C   0  0  2  0  0  0
  -28.7022  -13.0036   20.9932 C   0  0  0  0  0  0
  -25.2589  -13.8178   20.5686 C   0  0  0  0  0  0
  -24.1843  -13.0451   20.9176 C   0  0  0  0  0  0
  -24.6396  -11.6914   20.8734 C   0  0  0  0  0  0
  -23.9062  -10.4297   21.0404 C   0  0  0  0  0  0
  -24.3611   -9.4213   21.9184 C   0  0  0  0  0  0
  -23.6289   -8.2246   22.0756 C   0  0  0  0  0  0
  -22.4274   -8.0283   21.3543 C   0  0  0  0  0  0
  -21.9907   -9.0254   20.4642 C   0  0  0  0  0  0
  -22.7234  -10.2138   20.3053 C   0  0  0  0  0  0
  -21.6853   -6.0735   22.5276 C   0  0  0  0  0  0
  -21.4014   -6.5641   23.8207 C   0  0  0  0  0  0
  -21.3654   -5.6793   24.9172 C   0  0  0  0  0  0
  -21.6043   -4.3055   24.7220 C   0  0  0  0  0  0
  -21.8819   -3.8151   23.4341 C   0  0  0  0  0  0
  -21.9192   -4.6967   22.3400 C   0  0  0  0  0  0
  -22.7862  -13.5240   21.1842 C   0  0  0  0  0  0
  -22.1662   -4.2156   21.0977 F   0  0  0  0  0  0
  -21.5625   -3.4539   25.7733 F   0  0  0  0  0  0
  -30.0298  -13.3161   20.4378 N   0  0  0  0  0  0
  -26.3015  -12.9346   20.3363 N   0  0  0  0  0  0
  -25.9323  -11.6502   20.5772 N   0  0  0  0  0  0
  -22.0506  -12.8230   22.0397 N   0  0  0  0  0  0
  -25.4340  -15.1892   20.4094 N   0  0  0  0  0  0
  -31.8326  -14.6655   20.1050 O   0  0  0  0  0  0
  -21.6640   -6.8878   21.4240 O   0  0  0  0  0  0
  -22.3543  -14.5544   20.6691 O   0  0  0  0  0  0
  -24.6155  -31.8672   23.2114 C   0  0  0  0  0  0
  -25.9053  -32.4807   23.8389 C   0  0  1  0  0  0
  -27.2213  -27.4005   20.0989 C   0  0  0  0  0  0
  -25.5910  -33.8609   24.2323 N   0  0  0  0  0  0
  -23.4039  -30.4926   21.5528 C   0  0  2  0  0  0
  -24.8486  -28.9631   20.1086 C   0  0  0  0  0  0
  -22.7410  -29.4637   22.4977 C   0  0  0  0  0  0
  -18.0263  -28.1379   22.8468 C   0  0  0  0  0  0
  -24.1487  -36.7292   23.2639 C   0  0  0  0  0  0
  -25.9369  -30.8215   21.3726 C   0  0  0  0  0  0
  -26.0103  -29.4567   20.7132 C   0  0  0  0  0  0
  -27.1982  -28.6831   20.7064 C   0  0  0  0  0  0
  -26.0416  -26.9480   19.4593 C   0  0  0  0  0  0
  -24.8602  -27.7101   19.4772 C   0  0  0  0  0  0
  -23.6134  -29.8331   20.1645 C   0  0  0  0  0  0
  -25.4110  -36.3092   24.0342 C   0  0  1  0  0  0
  -20.5855  -28.3650   23.1307 C   0  0  2  0  0  0
  -20.6764  -26.9393   22.5404 C   0  0  0  0  0  0
  -19.5751  -26.6383   21.5194 C   0  0  0  0  0  0
  -18.1917  -26.7915   22.1605 C   0  0  0  0  0  0
  -19.1514  -28.8826   23.2869 C   0  0  0  0  0  0
  -18.9461  -30.1432   23.8880 C   0  0  0  0  0  0
  -17.6477  -30.6579   24.0555 C   0  0  0  0  0  0
  -25.9053  -34.9463   23.5130 C   0  0  0  0  0  0
  -16.5361  -29.9082   23.6347 C   0  0  0  0  0  0
  -16.7256  -28.6506   23.0342 C   0  0  0  0  0  0
  -26.4479  -31.6581   25.0714 C   0  0  0  0  0  0
  -25.3753  -31.3691   26.1469 C   0  0  0  0  0  0
  -27.0326  -30.3032   24.6085 C   0  0  0  0  0  0
  -27.6035  -32.4312   25.7497 C   0  0  0  0  0  0
  -27.5570  -37.1796   24.8469 C   0  0  0  0  0  0
  -21.4140  -29.3007   22.3719 N   0  0  0  0  0  0
  -26.4290  -37.3779   23.9415 N   0  0  0  0  0  0
  -24.6700  -31.0737   22.1037 N   0  0  0  0  0  0
  -23.4186  -28.8171   23.3022 O   0  0  0  0  0  0
  -28.3759  -26.6320   20.1563 O   0  0  0  0  0  0
  -26.5591  -34.8910   22.4677 O   0  0  0  0  0  0
  -23.5343  -32.1424   23.7489 O   0  0  0  0  0  0
  -31.7981  -18.5970   21.0430 C   0  0  0  0  0  0
  -31.8097  -19.9834   20.7734 C   0  0  0  0  0  0
  -30.6360  -20.7422   21.0029 C   0  0  0  0  0  0
  -29.4725  -20.0965   21.4738 C   0  0  0  0  0  0
  -30.6713  -17.9459   21.5923 C   0  0  0  0  0  0
  -29.4813  -18.7034   21.7945 C   0  0  0  0  0  0
  -28.2535  -20.9931   21.6677 C   0  0  0  0  0  0
  -30.6315  -22.2809   20.8727 C   0  0  0  0  0  0
  -34.4393  -20.2373   20.8438 C   0  0  0  0  0  0
  -33.8453  -21.5775   21.1994 C   0  0  0  0  0  0
  -28.1448  -22.0731   20.5649 C   0  0  0  0  0  0
  -33.0827  -20.6299   20.2994 C   0  0  0  0  0  0
  -28.2407  -18.0565   22.4044 C   0  0  0  0  0  0
  -30.8693  -16.4972   22.0907 C   0  0  0  0  0  0
  -29.2553  -24.3555   20.7625 C   0  0  0  0  0  0
  -28.2728  -25.2055   19.9084 C   0  0  0  0  0  0
  -30.1584  -15.3988   21.4131 N   0  0  0  0  0  0
  -29.3713  -22.9046   20.3689 N   0  3  1  0  0  0
  -31.4604  -12.4311   19.1075 H   0  0  0  0  0  0
  -30.3233  -11.3207   19.8137 H   0  0  0  0  0  0
  -29.7283  -11.7909   17.4227 H   0  0  0  0  0  0
  -29.6430  -13.5024   17.7591 H   0  0  0  0  0  0
  -27.8312  -11.3077   18.8225 H   0  0  0  0  0  0
  -27.3538  -12.6289   17.7906 H   0  0  0  0  0  0
  -27.7014  -14.2561   19.5689 H   0  0  0  0  0  0
  -28.6888  -11.9691   21.3395 H   0  0  0  0  0  0
  -28.4511  -13.6047   21.8679 H   0  0  0  0  0  0
  -25.2758   -9.5689   22.4759 H   0  0  0  0  0  0
  -23.9995   -7.4641   22.7478 H   0  0  0  0  0  0
  -21.0834   -8.8765   19.8946 H   0  0  0  0  0  0
  -22.3686  -10.9672   19.6156 H   0  0  0  0  0  0
  -21.2012   -7.6150   23.9712 H   0  0  0  0  0  0
  -21.1474   -6.0526   25.9072 H   0  0  0  0  0  0
  -22.0605   -2.7613   23.2839 H   0  0  0  0  0  0
  -22.4113  -11.9868   22.4749 H   0  0  0  0  0  0
  -21.1128  -13.1257   22.2626 H   0  0  0  0  0  0
  -24.6713  -15.8497   20.5119 H   0  0  0  0  0  0
  -26.2917  -15.6208   20.0869 H   0  0  0  0  0  0
  -26.7102  -32.5524   23.1136 H   0  0  0  0  0  0
  -25.0096  -33.9779   25.0490 H   0  0  0  0  0  0
  -22.6921  -31.3095   21.4162 H   0  0  0  0  0  0
  -23.3755  -35.9617   23.3316 H   0  0  0  0  0  0
  -24.3577  -36.8901   22.2046 H   0  0  0  0  0  0
  -23.7243  -37.6502   23.6649 H   0  0  0  0  0  0
  -26.0541  -31.5917   20.6096 H   0  0  0  0  0  0
  -26.8223  -30.8686   21.9944 H   0  0  0  0  0  0
  -28.0886  -29.0541   21.1929 H   0  0  0  0  0  0
  -25.9994  -26.0062   18.9328 H   0  0  0  0  0  0
  -23.9705  -27.3326   18.9907 H   0  0  0  0  0  0
  -23.7251  -30.6129   19.4111 H   0  0  0  0  0  0
  -22.7361  -29.2575   19.8636 H   0  0  0  0  0  0
  -25.1285  -36.1946   25.0834 H   0  0  0  0  0  0
  -20.9905  -28.3207   24.1447 H   0  0  0  0  0  0
  -20.5687  -26.2248   23.3585 H   0  0  0  0  0  0
  -21.6631  -26.7467   22.1179 H   0  0  0  0  0  0
  -19.6943  -25.6293   21.1217 H   0  0  0  0  0  0
  -19.6708  -27.3190   20.6722 H   0  0  0  0  0  0
  -17.4196  -26.6633   21.4010 H   0  0  0  0  0  0
  -18.0333  -26.0069   22.9015 H   0  0  0  0  0  0
  -19.7952  -30.7215   24.2251 H   0  0  0  0  0  0
  -17.5055  -31.6272   24.5132 H   0  0  0  0  0  0
  -15.5357  -30.2987   23.7699 H   0  0  0  0  0  0
  -15.8651  -28.0834   22.7069 H   0  0  0  0  0  0
  -24.5936  -30.7030   25.7816 H   0  0  0  0  0  0
  -24.8944  -32.2844   26.4915 H   0  0  0  0  0  0
  -25.8121  -30.8871   27.0228 H   0  0  0  0  0  0
  -26.2867  -29.6787   24.1163 H   0  0  0  0  0  0
  -27.4140  -29.7273   25.4528 H   0  0  0  0  0  0
  -27.8679  -30.4377   23.9215 H   0  0  0  0  0  0
  -27.2637  -33.3611   26.2079 H   0  0  0  0  0  0
  -28.3856  -32.6886   25.0338 H   0  0  0  0  0  0
  -28.0688  -31.8444   26.5433 H   0  0  0  0  0  0
  -28.2575  -38.0096   24.7503 H   0  0  0  0  0  0
  -28.1083  -36.2632   24.6320 H   0  0  0  0  0  0
  -27.2280  -37.1447   25.8867 H   0  0  0  0  0  0
  -20.9302  -29.8756   21.6963 H   0  0  0  0  0  0
  -26.0184  -38.2856   24.1438 H   0  0  0  0  0  0
  -32.7083  -18.0324   20.8957 H   0  0  0  0  0  0
  -28.3128  -21.4613   22.6505 H   0  0  0  0  0  0
  -27.3341  -20.4092   21.6546 H   0  0  0  0  0  0
  -31.4371  -22.6270   20.2267 H   0  0  0  0  0  0
  -30.8495  -22.6706   21.8678 H   0  0  0  0  0  0
  -34.4927  -19.4992   21.6407 H   0  0  0  0  0  0
  -35.2819  -20.2403   20.1546 H   0  0  0  0  0  0
  -34.2964  -22.4581   20.7439 H   0  0  0  0  0  0
  -33.4911  -21.7061   22.2208 H   0  0  0  0  0  0
  -27.2638  -22.6877   20.7481 H   0  0  0  0  0  0
  -27.9584  -21.5707   19.6146 H   0  0  0  0  0  0
  -33.0219  -20.8817   19.2408 H   0  0  0  0  0  0
  -27.7582  -18.7283   23.1166 H   0  0  0  0  0  0
  -28.4600  -17.1450   22.9575 H   0  0  0  0  0  0
  -27.5203  -17.8069   21.6238 H   0  0  0  0  0  0
  -30.5921  -16.4659   23.1443 H   0  0  0  0  0  0
  -31.9385  -16.2756   22.1067 H   0  0  0  0  0  0
  -28.9844  -24.4236   21.8172 H   0  0  0  0  0  0
  -30.2400  -24.8162   20.6712 H   0  0  0  0  0  0
  -27.2747  -24.8319   20.1343 H   0  0  0  0  0  0
  -28.4560  -25.0384   18.8469 H   0  0  0  0  0  0
  -29.2309  -15.1887   21.7472 H   0  0  0  0  0  0
  -29.4990  -22.9029   19.3665 H   0  0  0  0  0  0
  1 25  1  0  0  0
  1 30  2  0  0  0
  1 87  1  0  0  0
  2  3  1  0  0  0
  2 25  1  0  0  0
  2 89  1  0  0  0
  2 90  1  0  0  0
  3  4  1  0  0  0
  3 91  1  0  0  0
  3 92  1  0  0  0
  4  5  1  0  0  0
  4 93  1  0  0  0
  4 94  1  0  0  0
  5  6  1  0  0  0
  5 26  1  0  0  0
  5 95  1  0  0  0
  6 25  1  0  0  0
  6 96  1  0  0  0
  6 97  1  0  0  0
  7  8  2  0  0  0
  7 26  1  0  0  0
  7 29  1  0  0  0
  8  9  1  0  0  0
  8 22  1  0  0  0
  9 10  1  0  0  0
  9 27  2  0  0  0
 10 11  2  0  0  0
 10 15  1  0  0  0
 11 12  1  0  0  0
 11 98  1  0  0  0
 12 13  2  0  0  0
 12 99  1  0  0  0
 13 14  1  0  0  0
 13 31  1  0  0  0
 14 15  2  0  0  0
 14100  1  0  0  0
 15101  1  0  0  0
 16 17  2  0  0  0
 16 21  1  0  0  0
 16 31  1  0  0  0
 17 18  1  0  0  0
 17102  1  0  0  0
 18 19  2  0  0  0
 18103  1  0  0  0
 19 20  1  0  0  0
 19 24  1  0  0  0
 20 21  2  0  0  0
 20104  1  0  0  0
 21 23  1  0  0  0
 22 28  1  0  0  0
 22 32  2  0  0  0
 26 27  1  0  0  0
 28105  1  0  0  0
 28106  1  0  0  0
 29107  1  0  0  0
 29108  1  0  0  0
 33 34  1  0  0  0
 33 66  1  0  0  0
 33 70  2  0  0  0
 34 36  1  0  0  0
 34 59  1  0  0  0
 34109  1  0  0  0
 35 44  2  0  0  0
 35 45  1  0  0  0
 35 68  1  0  0  0
 36 56  1  0  0  0
 36110  1  0  0  0
 37 39  1  0  0  0
 37 47  1  0  0  0
 37 66  1  0  0  0
 37111  1  0  0  0
 38 43  2  0  0  0
 38 46  1  0  0  0
 38 47  1  0  0  0
 39 64  1  0  0  0
 39 67  2  0  0  0
 40 52  1  0  0  0
 40 53  2  0  0  0
 40 58  1  0  0  0
 41112  1  0  0  0
 41113  1  0  0  0
 41114  1  0  0  0
 41 48  1  0  0  0
 42 43  1  0  0  0
 42 66  1  0  0  0
 42115  1  0  0  0
 42116  1  0  0  0
 43 44  1  0  0  0
 44117  1  0  0  0
 45 46  2  0  0  0
 45118  1  0  0  0
 46119  1  0  0  0
 47120  1  0  0  0
 47121  1  0  0  0
 48 56  1  0  0  0
 48 65  1  0  0  0
 48122  1  0  0  0
 49 50  1  0  0  0
 49 53  1  0  0  0
 49 64  1  0  0  0
 49123  1  0  0  0
 50 51  1  0  0  0
 50124  1  0  0  0
 50125  1  0  0  0
 51 52  1  0  0  0
 51126  1  0  0  0
 51127  1  0  0  0
 52128  1  0  0  0
 52129  1  0  0  0
 53 54  1  0  0  0
 54 55  2  0  0  0
 54130  1  0  0  0
 55 57  1  0  0  0
 55131  1  0  0  0
 56 69  2  0  0  0
 57 58  2  0  0  0
 57132  1  0  0  0
 58133  1  0  0  0
 59 60  1  0  0  0
 59 61  1  0  0  0
 59 62  1  0  0  0
 60134  1  0  0  0
 60135  1  0  0  0
 60136  1  0  0  0
 61137  1  0  0  0
 61138  1  0  0  0
 61139  1  0  0  0
 62140  1  0  0  0
 62141  1  0  0  0
 62142  1  0  0  0
 63 65  1  0  0  0
 63143  1  0  0  0
 63144  1  0  0  0
 63145  1  0  0  0
 64146  1  0  0  0
 65147  1  0  0  0
 68 86  1  0  0  0
 71 72  2  0  0  0
 71 75  1  0  0  0
 71148  1  0  0  0
 72 73  1  0  0  0
 72 82  1  0  0  0
 73 74  2  0  0  0
 73 78  1  0  0  0
 74 76  1  0  0  0
 74 77  1  0  0  0
 75 76  2  0  0  0
 75 84  1  0  0  0
 76 83  1  0  0  0
 77 81  1  0  0  0
 77149  1  0  0  0
 77150  1  0  0  0
 78 88  1  0  0  0
 78151  1  0  0  0
 78152  1  0  0  0
 79 80  1  0  0  0
 79 82  1  0  0  0
 79153  1  0  0  0
 79154  1  0  0  0
 80 82  1  0  0  0
 80155  1  0  0  0
 80156  1  0  0  0
 81 88  1  0  0  0
 81157  1  0  0  0
 81158  1  0  0  0
 82159  1  0  0  0
 83160  1  0  0  0
 83161  1  0  0  0
 83162  1  0  0  0
 84 87  1  0  0  0
 84163  1  0  0  0
 84164  1  0  0  0
 85 86  1  0  0  0
 85165  1  0  0  0
 85166  1  0  0  0
 85 88  1  0  0  0
 86167  1  0  0  0
 86168  1  0  0  0
 87169  1  0  0  0
 88170  1  0  0  0
M  CHG  1  88   1
M  ISO  4   1 100  68 101  86 101  87 100
M  END
> <chiral flag>
0

> <version>
0

> <s_m_source_file>
/data/baiqing/PycharmProjects/Reinvent-master-3.2/result/LINK_invent/BTK/process_docking_weight1_custom_sum_contain_oxygen_bond_distance_aromatic_linkinvent_7_9_3/rearranged_h_0159.sdf

> <i_m_source_file_index>
93

> <r_mmod_Potential_Energy-OPLS-2005>
-147.835296630859

> <r_mmod_Stretch_Energy-OPLS-2005>
47.6525650024414

> <r_mmod_Bend_Energy-OPLS-2005>
118.156425476074

> <r_mmod_Torsional_Energy-OPLS-2005>
259.428344726562

> <r_mmod_Improper_Torsional_Energy-OPLS-2005>
3.40527701377869

> <r_mmod_Van_der_Waal_Energy-OPLS-2005>
166.414138793945

> <r_mmod_Electrostatic_Energy-OPLS-2005>
-328.49267578125

> <r_mmod_Solvation_Energy-OPLS-2005>
-430.920684814453

> <b_mmod_Minimization_Converged-OPLS-2005>
0

> <r_mmod_RMS_Derivative-OPLS-2005>
2.35644602775574

$$$$
93
                    3D
 Structure written by MMmdl.
175184  0  0  1  0            999 V2000
  -30.8262  -14.2838   20.7287 C   0  0  0  0  0  0
  -30.4029  -12.2707   19.3777 C   0  0  0  0  0  0
  -29.4658  -12.5183   18.1846 C   0  0  0  0  0  0
  -27.9962  -12.3797   18.6138 C   0  0  0  0  0  0
  -27.6665  -13.2033   19.8837 C   0  0  2  0  0  0
  -28.7063  -12.9491   20.9974 C   0  0  0  0  0  0
  -25.2607  -13.8181   20.5704 C   0  0  0  0  0  0
  -24.1845  -13.0455   20.9195 C   0  0  0  0  0  0
  -24.6394  -11.6924   20.8749 C   0  0  0  0  0  0
  -23.9067  -10.4304   21.0408 C   0  0  0  0  0  0
  -24.3612   -9.4223   21.9198 C   0  0  0  0  0  0
  -23.6286   -8.2254   22.0766 C   0  0  0  0  0  0
  -22.4279   -8.0275   21.3538 C   0  0  0  0  0  0
  -21.9915   -9.0259   20.4646 C   0  0  0  0  0  0
  -22.7242  -10.2143   20.3057 C   0  0  0  0  0  0
  -21.6842   -6.0740   22.5285 C   0  0  0  0  0  0
  -21.4010   -6.5645   23.8223 C   0  0  0  0  0  0
  -21.3661   -5.6787   24.9177 C   0  0  0  0  0  0
  -21.6041   -4.3050   24.7219 C   0  0  0  0  0  0
  -21.8820   -3.8150   23.4339 C   0  0  0  0  0  0
  -21.9197   -4.6969   22.3400 C   0  0  0  0  0  0
  -22.7865  -13.5239   21.1853 C   0  0  0  0  0  0
  -22.1653   -4.2161   21.0972 F   0  0  0  0  0  0
  -21.5636   -3.4531   25.7728 F   0  0  0  0  0  0
  -30.0544  -13.2040   20.4547 N   0  0  0  0  0  0
  -26.3048  -12.9344   20.3438 N   0  0  0  0  0  0
  -25.9320  -11.6506   20.5804 N   0  0  0  0  0  0
  -22.0514  -12.8191   22.0392 N   0  0  0  0  0  0
  -25.4374  -15.1884   20.4093 N   0  0  0  0  0  0
  -31.7722  -14.6464   20.0225 O   0  0  0  0  0  0
  -21.6632   -6.8881   21.4244 O   0  0  0  0  0  0
  -22.3541  -14.5546   20.6722 O   0  0  0  0  0  0
  -24.6096  -31.8701   23.2134 C   0  0  0  0  0  0
  -25.8996  -32.4855   23.8423 C   0  0  1  0  0  0
  -27.2370  -27.4803   20.0881 C   0  0  0  0  0  0
  -25.5872  -33.8648   24.2354 N   0  0  0  0  0  0
  -23.3991  -30.4905   21.5517 C   0  0  2  0  0  0
  -24.8495  -28.9711   20.1056 C   0  0  0  0  0  0
  -22.7423  -29.4609   22.4988 C   0  0  0  0  0  0
  -18.0283  -28.1335   22.8487 C   0  0  0  0  0  0
  -24.1474  -36.7307   23.2643 C   0  0  0  0  0  0
  -25.9211  -30.8535   21.3585 C   0  0  0  0  0  0
  -26.0057  -29.4933   20.6985 C   0  0  0  0  0  0
  -27.2077  -28.7553   20.6859 C   0  0  0  0  0  0
  -26.0725  -26.9631   19.4830 C   0  0  0  0  0  0
  -24.8761  -27.7045   19.4923 C   0  0  0  0  0  0
  -23.6065  -29.8290   20.1623 C   0  0  0  0  0  0
  -25.4100  -36.3144   24.0349 C   0  0  1  0  0  0
  -20.5870  -28.3625   23.1316 C   0  0  2  0  0  0
  -20.6749  -26.9352   22.5433 C   0  0  0  0  0  0
  -19.5765  -26.6368   21.5178 C   0  0  0  0  0  0
  -18.1935  -26.7894   22.1572 C   0  0  0  0  0  0
  -19.1535  -28.8788   23.2907 C   0  0  0  0  0  0
  -18.9473  -30.1383   23.8932 C   0  0  0  0  0  0
  -17.6484  -30.6557   24.0536 C   0  0  0  0  0  0
  -25.9017  -34.9497   23.5148 C   0  0  0  0  0  0
  -16.5372  -29.9068   23.6280 C   0  0  0  0  0  0
  -16.7272  -28.6461   23.0353 C   0  0  0  0  0  0
  -26.4448  -31.6618   25.0726 C   0  0  0  0  0  0
  -25.3731  -31.3662   26.1477 C   0  0  0  0  0  0
  -27.0303  -30.3105   24.6014 C   0  0  0  0  0  0
  -27.6019  -32.4321   25.7531 C   0  0  0  0  0  0
  -27.5581  -37.1827   24.8464 C   0  0  0  0  0  0
  -21.4154  -29.2995   22.3735 N   0  0  0  0  0  0
  -26.4285  -37.3829   23.9412 N   0  0  0  0  0  0
  -24.6611  -31.0828   22.1013 N   0  0  0  0  0  0
  -23.4215  -28.8122   23.2989 O   0  0  0  0  0  0
  -28.3706  -26.7150   20.1541 O   0  0  0  0  0  0
  -26.5590  -34.8945   22.4717 O   0  0  0  0  0  0
  -23.5294  -32.1417   23.7541 O   0  0  0  0  0  0
  -30.0246  -17.8804   22.7278 C   0  0  0  0  0  0
  -31.8724  -17.8828   21.1622 C   0  0  0  0  0  0
  -30.5077  -19.9125   21.4242 C   0  0  0  0  0  0
  -31.1208  -17.2271   22.1503 C   0  0  0  0  0  0
  -29.7088  -19.2063   22.3751 C   0  0  0  0  0  0
  -31.5723  -19.2085   20.7817 C   0  0  0  0  0  0
  -31.3329  -22.3928   21.4930 C   0  0  0  0  0  0
  -29.6173  -21.6857   19.7353 C   0  0  0  0  0  0
  -31.3886  -23.5947   20.5222 C   0  0  0  0  0  0
  -30.2068  -21.3969   21.1268 C   0  0  1  0  0  0
  -29.0704  -23.1327   19.6983 C   0  0  2  0  0  0
  -28.4900  -19.8150   23.0534 C   0  0  0  0  0  0
  -32.4103  -19.7951   19.6527 C   0  0  0  0  0  0
  -28.5954  -23.5316   18.2942 C   0  0  0  0  0  0
  -31.4587  -15.8106   22.5711 C   0  0  0  0  0  0
  -29.5236  -24.9360   21.4028 C   0  0  0  0  0  0
  -28.2149  -25.6969   21.1416 C   0  0  0  0  0  0
  -30.6009  -14.8261   21.9272 N   0  0  0  0  0  0
  -30.0344  -24.1498   20.2413 N   0  3  1  0  0  0
  -31.4435  -12.3647   19.0628 H   0  0  0  0  0  0
  -30.2958  -11.2465   19.7395 H   0  0  0  0  0  0
  -29.6850  -11.8103   17.3834 H   0  0  0  0  0  0
  -29.6398  -13.5127   17.7733 H   0  0  0  0  0  0
  -27.8019  -11.3226   18.7975 H   0  0  0  0  0  0
  -27.3367  -12.6729   17.7978 H   0  0  0  0  0  0
  -27.7285  -14.2572   19.6106 H   0  0  0  0  0  0
  -28.6503  -11.9162   21.3450 H   0  0  0  0  0  0
  -28.4606  -13.5632   21.8643 H   0  0  0  0  0  0
  -25.2744   -9.5697   22.4793 H   0  0  0  0  0  0
  -23.9995   -7.4642   22.7488 H   0  0  0  0  0  0
  -21.0860   -8.8775   19.8938 H   0  0  0  0  0  0
  -22.3703  -10.9683   19.6171 H   0  0  0  0  0  0
  -21.1998   -7.6152   23.9725 H   0  0  0  0  0  0
  -21.1481   -6.0512   25.9078 H   0  0  0  0  0  0
  -22.0608   -2.7622   23.2831 H   0  0  0  0  0  0
  -22.4117  -11.9803   22.4681 H   0  0  0  0  0  0
  -21.1141  -13.1215   22.2636 H   0  0  0  0  0  0
  -24.6859  -15.8597   20.5221 H   0  0  0  0  0  0
  -26.3049  -15.6162   20.1079 H   0  0  0  0  0  0
  -26.7083  -32.5594   23.1211 H   0  0  0  0  0  0
  -25.0067  -33.9820   25.0532 H   0  0  0  0  0  0
  -22.6829  -31.3029   21.4165 H   0  0  0  0  0  0
  -23.3777  -35.9599   23.3298 H   0  0  0  0  0  0
  -24.3568  -36.8929   22.2062 H   0  0  0  0  0  0
  -23.7178  -37.6480   23.6668 H   0  0  0  0  0  0
  -26.0256  -31.6283   20.5971 H   0  0  0  0  0  0
  -26.8089  -30.9067   21.9762 H   0  0  0  0  0  0
  -28.1022  -29.1472   21.1524 H   0  0  0  0  0  0
  -26.0862  -25.9881   19.0158 H   0  0  0  0  0  0
  -23.9889  -27.2976   19.0285 H   0  0  0  0  0  0
  -23.7075  -30.6083   19.4058 H   0  0  0  0  0  0
  -22.7331  -29.2445   19.8701 H   0  0  0  0  0  0
  -25.1256  -36.2032   25.0838 H   0  0  0  0  0  0
  -20.9956  -28.3205   24.1438 H   0  0  0  0  0  0
  -20.5575  -26.2239   23.3629 H   0  0  0  0  0  0
  -21.6641  -26.7356   22.1291 H   0  0  0  0  0  0
  -19.6932  -25.6291   21.1191 H   0  0  0  0  0  0
  -19.6710  -27.3173   20.6702 H   0  0  0  0  0  0
  -17.4213  -26.6678   21.3961 H   0  0  0  0  0  0
  -18.0302  -26.0002   22.8921 H   0  0  0  0  0  0
  -19.7959  -30.7149   24.2377 H   0  0  0  0  0  0
  -17.5059  -31.6242   24.5161 H   0  0  0  0  0  0
  -15.5376  -30.3000   23.7562 H   0  0  0  0  0  0
  -15.8679  -28.0761   22.7096 H   0  0  0  0  0  0
  -24.5985  -30.6903   25.7829 H   0  0  0  0  0  0
  -24.8818  -32.2780   26.4879 H   0  0  0  0  0  0
  -25.8125  -30.8925   27.0266 H   0  0  0  0  0  0
  -26.2845  -29.6902   24.1037 H   0  0  0  0  0  0
  -27.4117  -29.7278   25.4401 H   0  0  0  0  0  0
  -27.8644  -30.4494   23.9134 H   0  0  0  0  0  0
  -27.2625  -33.3576   26.2187 H   0  0  0  0  0  0
  -28.3833  -32.6940   25.0391 H   0  0  0  0  0  0
  -28.0694  -31.8398   26.5405 H   0  0  0  0  0  0
  -28.2606  -38.0125   24.7550 H   0  0  0  0  0  0
  -28.1071  -36.2663   24.6244 H   0  0  0  0  0  0
  -27.2301  -37.1426   25.8866 H   0  0  0  0  0  0
  -20.9312  -29.8805   21.7026 H   0  0  0  0  0  0
  -26.0181  -38.2895   24.1456 H   0  0  0  0  0  0
  -29.4258  -17.3523   23.4568 H   0  0  0  0  0  0
  -32.6868  -17.3491   20.6865 H   0  0  0  0  0  0
  -31.1804  -22.7419   22.5146 H   0  0  0  0  0  0
  -32.3075  -21.9155   21.5255 H   0  0  0  0  0  0
  -28.8014  -20.9924   19.5307 H   0  0  0  0  0  0
  -30.3478  -21.5377   18.9437 H   0  0  0  0  0  0
  -31.8435  -23.2839   19.5805 H   0  0  0  0  0  0
  -32.0490  -24.3698   20.9189 H   0  0  0  0  0  0
  -29.4071  -21.6995   21.7962 H   0  0  0  0  0  0
  -28.1845  -23.1025   20.3331 H   0  0  0  0  0  0
  -27.9139  -19.0570   23.5843 H   0  0  0  0  0  0
  -27.8140  -20.2629   22.3258 H   0  0  0  0  0  0
  -28.7870  -20.5709   23.7804 H   0  0  0  0  0  0
  -33.2008  -19.1045   19.3562 H   0  0  0  0  0  0
  -32.9056  -20.7246   19.9169 H   0  0  0  0  0  0
  -31.8006  -19.9528   18.7654 H   0  0  0  0  0  0
  -29.4261  -23.5975   17.5903 H   0  0  0  0  0  0
  -28.0840  -24.4948   18.3023 H   0  0  0  0  0  0
  -27.8897  -22.7995   17.9001 H   0  0  0  0  0  0
  -31.3342  -15.7221   23.6506 H   0  0  0  0  0  0
  -32.5105  -15.5932   22.3721 H   0  0  0  0  0  0
  -29.3653  -24.2640   22.2464 H   0  0  0  0  0  0
  -30.2824  -25.6516   21.7220 H   0  0  0  0  0  0
  -27.9032  -26.1560   22.0826 H   0  0  0  0  0  0
  -27.4059  -25.0214   20.8702 H   0  0  0  0  0  0
  -29.8356  -14.4474   22.4650 H   0  0  0  0  0  0
  -30.1681  -24.8305   19.5046 H   0  0  0  0  0  0
  1 25  1  0  0  0
  1 30  2  0  0  0
  1 88  1  0  0  0
  2  3  1  0  0  0
  2 25  1  0  0  0
  2 90  1  0  0  0
  2 91  1  0  0  0
  3  4  1  0  0  0
  3 92  1  0  0  0
  3 93  1  0  0  0
  4  5  1  0  0  0
  4 94  1  0  0  0
  4 95  1  0  0  0
  5  6  1  0  0  0
  5 26  1  0  0  0
  5 96  1  0  0  0
  6 25  1  0  0  0
  6 97  1  0  0  0
  6 98  1  0  0  0
  7  8  2  0  0  0
  7 26  1  0  0  0
  7 29  1  0  0  0
  8  9  1  0  0  0
  8 22  1  0  0  0
  9 10  1  0  0  0
  9 27  2  0  0  0
 10 11  2  0  0  0
 10 15  1  0  0  0
 11 12  1  0  0  0
 11 99  1  0  0  0
 12 13  2  0  0  0
 12100  1  0  0  0
 13 14  1  0  0  0
 13 31  1  0  0  0
 14 15  2  0  0  0
 14101  1  0  0  0
 15102  1  0  0  0
 16 17  2  0  0  0
 16 21  1  0  0  0
 16 31  1  0  0  0
 17 18  1  0  0  0
 17103  1  0  0  0
 18 19  2  0  0  0
 18104  1  0  0  0
 19 20  1  0  0  0
 19 24  1  0  0  0
 20 21  2  0  0  0
 20105  1  0  0  0
 21 23  1  0  0  0
 22 28  1  0  0  0
 22 32  2  0  0  0
 26 27  1  0  0  0
 28106  1  0  0  0
 28107  1  0  0  0
 29108  1  0  0  0
 29109  1  0  0  0
 33 34  1  0  0  0
 33 66  1  0  0  0
 33 70  2  0  0  0
 34 36  1  0  0  0
 34 59  1  0  0  0
 34110  1  0  0  0
 35 44  2  0  0  0
 35 45  1  0  0  0
 35 68  1  0  0  0
 36 56  1  0  0  0
 36111  1  0  0  0
 37 39  1  0  0  0
 37 47  1  0  0  0
 37 66  1  0  0  0
 37112  1  0  0  0
 38 43  2  0  0  0
 38 46  1  0  0  0
 38 47  1  0  0  0
 39 64  1  0  0  0
 39 67  2  0  0  0
 40 52  1  0  0  0
 40 53  2  0  0  0
 40 58  1  0  0  0
 41113  1  0  0  0
 41114  1  0  0  0
 41115  1  0  0  0
 41 48  1  0  0  0
 42 43  1  0  0  0
 42 66  1  0  0  0
 42116  1  0  0  0
 42117  1  0  0  0
 43 44  1  0  0  0
 44118  1  0  0  0
 45 46  2  0  0  0
 45119  1  0  0  0
 46120  1  0  0  0
 47121  1  0  0  0
 47122  1  0  0  0
 48 56  1  0  0  0
 48 65  1  0  0  0
 48123  1  0  0  0
 49 50  1  0  0  0
 49 53  1  0  0  0
 49 64  1  0  0  0
 49124  1  0  0  0
 50 51  1  0  0  0
 50125  1  0  0  0
 50126  1  0  0  0
 51 52  1  0  0  0
 51127  1  0  0  0
 51128  1  0  0  0
 52129  1  0  0  0
 52130  1  0  0  0
 53 54  1  0  0  0
 54 55  2  0  0  0
 54131  1  0  0  0
 55 57  1  0  0  0
 55132  1  0  0  0
 56 69  2  0  0  0
 57 58  2  0  0  0
 57133  1  0  0  0
 58134  1  0  0  0
 59 60  1  0  0  0
 59 61  1  0  0  0
 59 62  1  0  0  0
 60135  1  0  0  0
 60136  1  0  0  0
 60137  1  0  0  0
 61138  1  0  0  0
 61139  1  0  0  0
 61140  1  0  0  0
 62141  1  0  0  0
 62142  1  0  0  0
 62143  1  0  0  0
 63 65  1  0  0  0
 63144  1  0  0  0
 63145  1  0  0  0
 63146  1  0  0  0
 64147  1  0  0  0
 65148  1  0  0  0
 68 87  1  0  0  0
 71 74  2  0  0  0
 71 75  1  0  0  0
 71149  1  0  0  0
 72 74  1  0  0  0
 72 76  2  0  0  0
 72150  1  0  0  0
 73 75  2  0  0  0
 73 76  1  0  0  0
 73 80  1  0  0  0
 74 85  1  0  0  0
 75 82  1  0  0  0
 76 83  1  0  0  0
 77 79  1  0  0  0
 77 80  1  0  0  0
 77151  1  0  0  0
 77152  1  0  0  0
 78 80  1  0  0  0
 78 81  1  0  0  0
 78153  1  0  0  0
 78154  1  0  0  0
 79 89  1  0  0  0
 79155  1  0  0  0
 79156  1  0  0  0
 80157  1  0  0  0
 81 84  1  0  0  0
 81 89  1  0  0  0
 81158  1  0  0  0
 82159  1  0  0  0
 82160  1  0  0  0
 82161  1  0  0  0
 83162  1  0  0  0
 83163  1  0  0  0
 83164  1  0  0  0
 84165  1  0  0  0
 84166  1  0  0  0
 84167  1  0  0  0
 85 88  1  0  0  0
 85168  1  0  0  0
 85169  1  0  0  0
 86 87  1  0  0  0
 86170  1  0  0  0
 86171  1  0  0  0
 86 89  1  0  0  0
 87172  1  0  0  0
 87173  1  0  0  0
 88174  1  0  0  0
 89175  1  0  0  0
M  CHG  1  89   1
M  ISO  4   1 100  68 101  87 101  88 100
M  END
> <chiral flag>
0

> <version>
0

> <s_m_source_file>
/data/baiqing/PycharmProjects/Reinvent-master-3.2/result/LINK_invent/BTK/process_docking_weight1_custom_sum_contain_oxygen_bond_distance_aromatic_linkinvent_7_9_3/rearranged_h_0159.sdf

> <i_m_source_file_index>
94

> <r_mmod_Potential_Energy-OPLS-2005>
-132.458267211914

> <r_mmod_Stretch_Energy-OPLS-2005>
37.9185829162598

> <r_mmod_Bend_Energy-OPLS-2005>
102.969627380371

> <r_mmod_Torsional_Energy-OPLS-2005>
290.209533691406

> <r_mmod_Improper_Torsional_Energy-OPLS-2005>
3.67004632949829

> <r_mmod_Van_der_Waal_Energy-OPLS-2005>
172.105880737305

> <r_mmod_Electrostatic_Energy-OPLS-2005>
-342.685546875

> <r_mmod_Solvation_Energy-OPLS-2005>
-406.297027587891

> <b_mmod_Minimization_Converged-OPLS-2005>
0

> <r_mmod_RMS_Derivative-OPLS-2005>
2.66348528862

$$$$
94
                    3D
 Structure written by MMmdl.
174183  0  0  1  0            999 V2000
  -30.7076  -14.4780   20.5109 C   0  0  0  0  0  0
  -30.4221  -12.2987   19.4192 C   0  0  0  0  0  0
  -29.4930  -12.4836   18.2027 C   0  0  0  0  0  0
  -28.0165  -12.3352   18.6216 C   0  0  0  0  0  0
  -27.6541  -13.1906   19.8658 C   0  0  2  0  0  0
  -28.7051  -13.0239   20.9876 C   0  0  0  0  0  0
  -25.2584  -13.8093   20.5688 C   0  0  0  0  0  0
  -24.1812  -13.0417   20.9179 C   0  0  0  0  0  0
  -24.6330  -11.6879   20.8751 C   0  0  0  0  0  0
  -23.8978  -10.4285   21.0418 C   0  0  0  0  0  0
  -24.3544   -9.4209   21.9192 C   0  0  0  0  0  0
  -23.6239   -8.2232   22.0755 C   0  0  0  0  0  0
  -22.4230   -8.0251   21.3541 C   0  0  0  0  0  0
  -21.9845   -9.0222   20.4657 C   0  0  0  0  0  0
  -22.7145  -10.2120   20.3065 C   0  0  0  0  0  0
  -21.6831   -6.0703   22.5283 C   0  0  0  0  0  0
  -21.3987   -6.5612   23.8211 C   0  0  0  0  0  0
  -21.3649   -5.6775   24.9184 C   0  0  0  0  0  0
  -21.6051   -4.3039   24.7241 C   0  0  0  0  0  0
  -21.8823   -3.8120   23.4368 C   0  0  0  0  0  0
  -21.9186   -4.6934   22.3423 C   0  0  0  0  0  0
  -22.7830  -13.5261   21.1810 C   0  0  0  0  0  0
  -22.1649   -4.2121   21.0998 F   0  0  0  0  0  0
  -21.5658   -3.4522   25.7757 F   0  0  0  0  0  0
  -30.0301  -13.3037   20.4148 N   0  0  0  0  0  0
  -26.2990  -12.9220   20.3369 N   0  0  0  0  0  0
  -25.9262  -11.6407   20.5785 N   0  0  0  0  0  0
  -22.0396  -12.8313   22.0356 N   0  0  0  0  0  0
  -25.4356  -15.1805   20.4083 N   0  0  0  0  0  0
  -31.8852  -14.6069   20.1627 O   0  0  0  0  0  0
  -21.6616   -6.8836   21.4232 O   0  0  0  0  0  0
  -22.3577  -14.5572   20.6623 O   0  0  0  0  0  0
  -24.6128  -31.8703   23.2124 C   0  0  0  0  0  0
  -25.9037  -32.4836   23.8416 C   0  0  1  0  0  0
  -27.2463  -27.4639   20.0817 C   0  0  0  0  0  0
  -25.5908  -33.8637   24.2346 N   0  0  0  0  0  0
  -23.4006  -30.4913   21.5512 C   0  0  2  0  0  0
  -24.8477  -28.9580   20.1162 C   0  0  0  0  0  0
  -22.7400  -29.4676   22.5014 C   0  0  0  0  0  0
  -18.0274  -28.1379   22.8504 C   0  0  0  0  0  0
  -24.1481  -36.7313   23.2631 C   0  0  0  0  0  0
  -25.9247  -30.8433   21.3596 C   0  0  0  0  0  0
  -26.0037  -29.4768   20.7114 C   0  0  0  0  0  0
  -27.2009  -28.7301   20.7033 C   0  0  0  0  0  0
  -26.0678  -26.9439   19.5005 C   0  0  0  0  0  0
  -24.8713  -27.6869   19.5140 C   0  0  0  0  0  0
  -23.6076  -29.8214   20.1658 C   0  0  0  0  0  0
  -25.4099  -36.3120   24.0340 C   0  0  1  0  0  0
  -20.5857  -28.3670   23.1330 C   0  0  2  0  0  0
  -20.6765  -26.9403   22.5435 C   0  0  0  0  0  0
  -19.5745  -26.6388   21.5226 C   0  0  0  0  0  0
  -18.1916  -26.7937   22.1615 C   0  0  0  0  0  0
  -19.1521  -28.8841   23.2911 C   0  0  0  0  0  0
  -18.9444  -30.1447   23.8920 C   0  0  0  0  0  0
  -17.6443  -30.6588   24.0571 C   0  0  0  0  0  0
  -25.9033  -34.9489   23.5136 C   0  0  0  0  0  0
  -16.5335  -29.9091   23.6329 C   0  0  0  0  0  0
  -16.7258  -28.6504   23.0358 C   0  0  0  0  0  0
  -26.4474  -31.6609   25.0734 C   0  0  0  0  0  0
  -25.3743  -31.3719   26.1482 C   0  0  0  0  0  0
  -27.0295  -30.3059   24.6086 C   0  0  0  0  0  0
  -27.6066  -32.4315   25.7490 C   0  0  0  0  0  0
  -27.5589  -37.1787   24.8454 C   0  0  0  0  0  0
  -21.4131  -29.3045   22.3744 N   0  0  0  0  0  0
  -26.4284  -37.3806   23.9428 N   0  0  0  0  0  0
  -24.6644  -31.0821   22.1008 N   0  0  0  0  0  0
  -23.4183  -28.8216   23.3047 O   0  0  0  0  0  0
  -28.4264  -26.7563   20.1074 O   0  0  0  0  0  0
  -26.5576  -34.8940   22.4687 O   0  0  0  0  0  0
  -23.5323  -32.1448   23.7528 O   0  0  0  0  0  0
  -28.6292  -23.5870   18.5557 C   0  0  0  0  0  0
  -29.3166  -24.6387   19.1930 C   0  0  0  0  0  0
  -29.0658  -22.2542   18.6670 C   0  0  0  0  0  0
  -30.4558  -24.3403   19.9910 C   0  0  0  0  0  0
  -30.9012  -22.9934   20.1162 C   0  0  0  0  0  0
  -30.2084  -21.9450   19.4434 C   0  0  0  0  0  0
  -29.5114  -17.7930   21.8787 C   0  0  0  0  0  0
  -29.9880  -17.6846   19.3897 C   0  0  0  0  0  0
  -30.3225  -16.4730   21.8588 C   0  0  0  0  0  0
  -29.4005  -16.2743   19.5630 C   0  0  0  0  0  0
  -29.6036  -18.6059   20.5634 C   0  0  0  0  0  0
  -28.2966  -21.1689   17.9289 C   0  0  0  0  0  0
  -31.2343  -25.4480   20.6995 C   0  0  0  0  0  0
  -32.1516  -22.7065   20.9507 C   0  0  0  0  0  0
  -31.7368  -20.3185   18.5259 C   0  0  0  0  0  0
  -28.8363  -26.0667   18.9263 C   0  0  0  0  0  0
  -30.5225  -19.8432   20.7064 C   0  0  0  0  0  0
  -29.9488  -15.5762   20.7470 N   0  0  0  0  0  0
  -30.6581  -20.6121   19.4664 N   0  0  0  0  0  0
  -31.4662  -12.3952   19.1170 H   0  0  0  0  0  0
  -30.3253  -11.2945   19.8348 H   0  0  0  0  0  0
  -29.7411  -11.7570   17.4280 H   0  0  0  0  0  0
  -29.6533  -13.4670   17.7589 H   0  0  0  0  0  0
  -27.8397  -11.2804   18.8365 H   0  0  0  0  0  0
  -27.3609  -12.5876   17.7877 H   0  0  0  0  0  0
  -27.6700  -14.2237   19.5308 H   0  0  0  0  0  0
  -28.6841  -12.0099   21.3906 H   0  0  0  0  0  0
  -28.4845  -13.6862   21.8259 H   0  0  0  0  0  0
  -25.2678   -9.5696   22.4780 H   0  0  0  0  0  0
  -23.9944   -7.4612   22.7461 H   0  0  0  0  0  0
  -21.0777   -8.8702   19.8972 H   0  0  0  0  0  0
  -22.3556  -10.9644   19.6177 H   0  0  0  0  0  0
  -21.1944   -7.6115   23.9713 H   0  0  0  0  0  0
  -21.1467   -6.0503   25.9090 H   0  0  0  0  0  0
  -22.0619   -2.7584   23.2875 H   0  0  0  0  0  0
  -22.3880  -11.9964   22.4817 H   0  0  0  0  0  0
  -21.1017  -13.1418   22.2474 H   0  0  0  0  0  0
  -24.6794  -15.8465   20.5223 H   0  0  0  0  0  0
  -26.3090  -15.6138   20.1372 H   0  0  0  0  0  0
  -26.7112  -32.5564   23.1192 H   0  0  0  0  0  0
  -25.0134  -33.9809   25.0543 H   0  0  0  0  0  0
  -22.6884  -31.3082   21.4124 H   0  0  0  0  0  0
  -23.3770  -35.9617   23.3264 H   0  0  0  0  0  0
  -24.3593  -36.8955   22.2053 H   0  0  0  0  0  0
  -23.7194  -37.6493   23.6662 H   0  0  0  0  0  0
  -26.0267  -31.6082   20.5885 H   0  0  0  0  0  0
  -26.8164  -30.9045   21.9724 H   0  0  0  0  0  0
  -28.0954  -29.1261   21.1637 H   0  0  0  0  0  0
  -26.0599  -25.9593   19.0554 H   0  0  0  0  0  0
  -23.9767  -27.2760   19.0665 H   0  0  0  0  0  0
  -23.7123  -30.5969   19.4055 H   0  0  0  0  0  0
  -22.7333  -29.2379   19.8710 H   0  0  0  0  0  0
  -25.1267  -36.1982   25.0831 H   0  0  0  0  0  0
  -20.9942  -28.3227   24.1450 H   0  0  0  0  0  0
  -20.5685  -26.2264   23.3615 H   0  0  0  0  0  0
  -21.6629  -26.7468   22.1197 H   0  0  0  0  0  0
  -19.6901  -25.6302   21.1248 H   0  0  0  0  0  0
  -19.6693  -27.3204   20.6758 H   0  0  0  0  0  0
  -17.4198  -26.6724   21.3996 H   0  0  0  0  0  0
  -18.0281  -26.0064   22.8984 H   0  0  0  0  0  0
  -19.7918  -30.7263   24.2293 H   0  0  0  0  0  0
  -17.4998  -31.6270   24.5165 H   0  0  0  0  0  0
  -15.5336  -30.2992   23.7653 H   0  0  0  0  0  0
  -15.8656  -28.0826   22.7070 H   0  0  0  0  0  0
  -24.5924  -30.7052   25.7828 H   0  0  0  0  0  0
  -24.8926  -32.2873   26.4925 H   0  0  0  0  0  0
  -25.8091  -30.8903   27.0247 H   0  0  0  0  0  0
  -26.2824  -29.6820   24.1161 H   0  0  0  0  0  0
  -27.4099  -29.7292   25.4528 H   0  0  0  0  0  0
  -27.8646  -30.4395   23.9205 H   0  0  0  0  0  0
  -27.2710  -33.3614   26.2092 H   0  0  0  0  0  0
  -28.3863  -32.6861   25.0299 H   0  0  0  0  0  0
  -28.0745  -31.8418   26.5381 H   0  0  0  0  0  0
  -28.2560  -38.0132   24.7579 H   0  0  0  0  0  0
  -28.1125  -36.2667   24.6166 H   0  0  0  0  0  0
  -27.2325  -37.1299   25.8858 H   0  0  0  0  0  0
  -20.9284  -29.8756   21.6961 H   0  0  0  0  0  0
  -26.0176  -38.2874   24.1487 H   0  0  0  0  0  0
  -27.7636  -23.8115   17.9488 H   0  0  0  0  0  0
  -29.8127  -18.4081   22.7282 H   0  0  0  0  0  0
  -28.4648  -17.5448   22.0647 H   0  0  0  0  0  0
  -29.6449  -18.1217   18.4504 H   0  0  0  0  0  0
  -31.0733  -17.6071   19.3104 H   0  0  0  0  0  0
  -30.1844  -15.9434   22.8023 H   0  0  0  0  0  0
  -31.3865  -16.7110   21.7942 H   0  0  0  0  0  0
  -29.5704  -15.7105   18.6438 H   0  0  0  0  0  0
  -28.3186  -16.3526   19.6721 H   0  0  0  0  0  0
  -28.6006  -18.9846   20.3609 H   0  0  0  0  0  0
  -27.6047  -21.5891   17.1987 H   0  0  0  0  0  0
  -27.7233  -20.5713   18.6368 H   0  0  0  0  0  0
  -28.9722  -20.5051   17.3899 H   0  0  0  0  0  0
  -30.8205  -26.4438   20.5603 H   0  0  0  0  0  0
  -32.2629  -25.4833   20.3402 H   0  0  0  0  0  0
  -31.2575  -25.2649   21.7741 H   0  0  0  0  0  0
  -33.0020  -23.2753   20.5759 H   0  0  0  0  0  0
  -32.4589  -21.6642   20.9451 H   0  0  0  0  0  0
  -31.9856  -22.9836   21.9913 H   0  0  0  0  0  0
  -32.2710  -21.2212   18.2216 H   0  0  0  0  0  0
  -31.3356  -19.8536   17.6248 H   0  0  0  0  0  0
  -32.4641  -19.6320   18.9611 H   0  0  0  0  0  0
  -28.0792  -26.0654   18.1421 H   0  0  0  0  0  0
  -29.6698  -26.6201   18.4930 H   0  0  0  0  0  0
  -31.5104  -19.5213   21.0389 H   0  0  0  0  0  0
  -30.1341  -20.4886   21.4969 H   0  0  0  0  0  0
  1 25  1  0  0  0
  1 30  2  0  0  0
  1 88  1  0  0  0
  2  3  1  0  0  0
  2 25  1  0  0  0
  2 90  1  0  0  0
  2 91  1  0  0  0
  3  4  1  0  0  0
  3 92  1  0  0  0
  3 93  1  0  0  0
  4  5  1  0  0  0
  4 94  1  0  0  0
  4 95  1  0  0  0
  5  6  1  0  0  0
  5 26  1  0  0  0
  5 96  1  0  0  0
  6 25  1  0  0  0
  6 97  1  0  0  0
  6 98  1  0  0  0
  7  8  2  0  0  0
  7 26  1  0  0  0
  7 29  1  0  0  0
  8  9  1  0  0  0
  8 22  1  0  0  0
  9 10  1  0  0  0
  9 27  2  0  0  0
 10 11  2  0  0  0
 10 15  1  0  0  0
 11 12  1  0  0  0
 11 99  1  0  0  0
 12 13  2  0  0  0
 12100  1  0  0  0
 13 14  1  0  0  0
 13 31  1  0  0  0
 14 15  2  0  0  0
 14101  1  0  0  0
 15102  1  0  0  0
 16 17  2  0  0  0
 16 21  1  0  0  0
 16 31  1  0  0  0
 17 18  1  0  0  0
 17103  1  0  0  0
 18 19  2  0  0  0
 18104  1  0  0  0
 19 20  1  0  0  0
 19 24  1  0  0  0
 20 21  2  0  0  0
 20105  1  0  0  0
 21 23  1  0  0  0
 22 28  1  0  0  0
 22 32  2  0  0  0
 26 27  1  0  0  0
 28106  1  0  0  0
 28107  1  0  0  0
 29108  1  0  0  0
 29109  1  0  0  0
 33 34  1  0  0  0
 33 66  1  0  0  0
 33 70  2  0  0  0
 34 36  1  0  0  0
 34 59  1  0  0  0
 34110  1  0  0  0
 35 44  2  0  0  0
 35 45  1  0  0  0
 35 68  1  0  0  0
 36 56  1  0  0  0
 36111  1  0  0  0
 37 39  1  0  0  0
 37 47  1  0  0  0
 37 66  1  0  0  0
 37112  1  0  0  0
 38 43  2  0  0  0
 38 46  1  0  0  0
 38 47  1  0  0  0
 39 64  1  0  0  0
 39 67  2  0  0  0
 40 52  1  0  0  0
 40 53  2  0  0  0
 40 58  1  0  0  0
 41113  1  0  0  0
 41114  1  0  0  0
 41115  1  0  0  0
 41 48  1  0  0  0
 42 43  1  0  0  0
 42 66  1  0  0  0
 42116  1  0  0  0
 42117  1  0  0  0
 43 44  1  0  0  0
 44118  1  0  0  0
 45 46  2  0  0  0
 45119  1  0  0  0
 46120  1  0  0  0
 47121  1  0  0  0
 47122  1  0  0  0
 48 56  1  0  0  0
 48 65  1  0  0  0
 48123  1  0  0  0
 49 50  1  0  0  0
 49 53  1  0  0  0
 49 64  1  0  0  0
 49124  1  0  0  0
 50 51  1  0  0  0
 50125  1  0  0  0
 50126  1  0  0  0
 51 52  1  0  0  0
 51127  1  0  0  0
 51128  1  0  0  0
 52129  1  0  0  0
 52130  1  0  0  0
 53 54  1  0  0  0
 54 55  2  0  0  0
 54131  1  0  0  0
 55 57  1  0  0  0
 55132  1  0  0  0
 56 69  2  0  0  0
 57 58  2  0  0  0
 57133  1  0  0  0
 58134  1  0  0  0
 59 60  1  0  0  0
 59 61  1  0  0  0
 59 62  1  0  0  0
 60135  1  0  0  0
 60136  1  0  0  0
 60137  1  0  0  0
 61138  1  0  0  0
 61139  1  0  0  0
 61140  1  0  0  0
 62141  1  0  0  0
 62142  1  0  0  0
 62143  1  0  0  0
 63 65  1  0  0  0
 63144  1  0  0  0
 63145  1  0  0  0
 63146  1  0  0  0
 64147  1  0  0  0
 65148  1  0  0  0
 68 86  1  0  0  0
 71 72  2  0  0  0
 71 73  1  0  0  0
 71149  1  0  0  0
 72 74  1  0  0  0
 72 86  1  0  0  0
 73 76  2  0  0  0
 73 82  1  0  0  0
 74 75  2  0  0  0
 74 83  1  0  0  0
 75 76  1  0  0  0
 75 84  1  0  0  0
 76 89  1  0  0  0
 77 79  1  0  0  0
 77 81  1  0  0  0
 77150  1  0  0  0
 77151  1  0  0  0
 78 80  1  0  0  0
 78 81  1  0  0  0
 78152  1  0  0  0
 78153  1  0  0  0
 79 88  1  0  0  0
 79154  1  0  0  0
 79155  1  0  0  0
 80 88  1  0  0  0
 80156  1  0  0  0
 80157  1  0  0  0
 81 87  1  0  0  0
 81158  1  0  0  0
 82159  1  0  0  0
 82160  1  0  0  0
 82161  1  0  0  0
 83162  1  0  0  0
 83163  1  0  0  0
 83164  1  0  0  0
 84165  1  0  0  0
 84166  1  0  0  0
 84167  1  0  0  0
 85 89  1  0  0  0
 85168  1  0  0  0
 85169  1  0  0  0
 85170  1  0  0  0
 86171  1  0  0  0
 86172  1  0  0  0
 87 89  1  0  0  0
 87173  1  0  0  0
 87174  1  0  0  0
M  ISO  4   1 100  68 101  86 101  88 100
M  END
> <chiral flag>
0

> <version>
0

> <s_m_source_file>
/data/baiqing/PycharmProjects/Reinvent-master-3.2/result/LINK_invent/BTK/process_docking_weight1_custom_sum_contain_oxygen_bond_distance_aromatic_linkinvent_7_9_3/rearranged_h_0159.sdf

> <i_m_source_file_index>
95

> <r_mmod_Potential_Energy-OPLS-2005>
235.771774291992

> <r_mmod_Stretch_Energy-OPLS-2005>
40.8458709716797

> <r_mmod_Bend_Energy-OPLS-2005>
109.023948669434

> <r_mmod_Torsional_Energy-OPLS-2005>
403.526062011719

> <r_mmod_Improper_Torsional_Energy-OPLS-2005>
11.2567577362061

> <r_mmod_Van_der_Waal_Energy-OPLS-2005>
169.875946044922

> <r_mmod_Electrostatic_Energy-OPLS-2005>
-325.039215087891

> <r_mmod_Solvation_Energy-OPLS-2005>
-190.522079467773

> <b_mmod_Minimization_Converged-OPLS-2005>
0

> <r_mmod_RMS_Derivative-OPLS-2005>
2.05210256576538

$$$$
95
                    3D
 Structure written by MMmdl.
168179  0  0  1  0            999 V2000
  -30.6374  -14.7444   20.4365 C   0  0  0  0  0  0
  -30.4191  -12.4495   19.4799 C   0  0  0  0  0  0
  -29.5044  -12.4977   18.2376 C   0  0  0  0  0  0
  -28.0313  -12.3260   18.6514 C   0  0  0  0  0  0
  -27.6361  -13.2361   19.8454 C   0  0  2  0  0  0
  -28.6802  -13.1948   20.9825 C   0  0  0  0  0  0
  -25.2488  -13.8210   20.5702 C   0  0  0  0  0  0
  -24.1791  -13.0444   20.9215 C   0  0  0  0  0  0
  -24.6387  -11.6925   20.8757 C   0  0  0  0  0  0
  -23.9071  -10.4298   21.0410 C   0  0  0  0  0  0
  -24.3623   -9.4211   21.9184 C   0  0  0  0  0  0
  -23.6300   -8.2243   22.0754 C   0  0  0  0  0  0
  -22.4284   -8.0280   21.3541 C   0  0  0  0  0  0
  -21.9918   -9.0255   20.4643 C   0  0  0  0  0  0
  -22.7244  -10.2136   20.3057 C   0  0  0  0  0  0
  -21.6857   -6.0739   22.5283 C   0  0  0  0  0  0
  -21.4013   -6.5644   23.8216 C   0  0  0  0  0  0
  -21.3657   -5.6799   24.9178 C   0  0  0  0  0  0
  -21.6045   -4.3062   24.7231 C   0  0  0  0  0  0
  -21.8819   -3.8150   23.4352 C   0  0  0  0  0  0
  -21.9193   -4.6965   22.3405 C   0  0  0  0  0  0
  -22.7813  -13.5218   21.1876 C   0  0  0  0  0  0
  -22.1662   -4.2150   21.0981 F   0  0  0  0  0  0
  -21.5627   -3.4543   25.7742 F   0  0  0  0  0  0
  -29.9805  -13.5326   20.3938 N   0  0  0  0  0  0
  -26.2910  -12.9420   20.3274 N   0  0  0  0  0  0
  -25.9316  -11.6560   20.5764 N   0  0  0  0  0  0
  -22.0463  -12.8202   22.0427 N   0  0  0  0  0  0
  -25.4162  -15.1934   20.4107 N   0  0  0  0  0  0
  -31.8417  -14.7508   20.1627 O   0  0  0  0  0  0
  -21.6645   -6.8881   21.4243 O   0  0  0  0  0  0
  -22.3495  -14.5524   20.6725 O   0  0  0  0  0  0
  -24.6299  -31.8560   23.1991 C   0  0  0  0  0  0
  -25.9128  -32.4757   23.8334 C   0  0  1  0  0  0
  -27.2115  -27.2575   20.1450 C   0  0  0  0  0  0
  -25.5919  -33.8560   24.2250 N   0  0  0  0  0  0
  -23.4257  -30.4775   21.5432 C   0  0  2  0  0  0
  -24.8709  -28.9194   20.1172 C   0  0  0  0  0  0
  -22.7483  -29.4608   22.4930 C   0  0  0  0  0  0
  -18.0280  -28.1393   22.8493 C   0  0  0  0  0  0
  -24.1486  -36.7291   23.2641 C   0  0  0  0  0  0
  -25.9704  -30.7665   21.3799 C   0  0  0  0  0  0
  -26.0416  -29.3858   20.7300 C   0  0  0  0  0  0
  -27.2160  -28.5678   20.7309 C   0  0  0  0  0  0
  -26.0285  -26.8679   19.4846 C   0  0  0  0  0  0
  -24.8693  -27.6676   19.4828 C   0  0  0  0  0  0
  -23.6436  -29.8088   20.1605 C   0  0  0  0  0  0
  -25.4115  -36.3072   24.0323 C   0  0  1  0  0  0
  -20.5883  -28.3706   23.1278 C   0  0  2  0  0  0
  -20.6769  -26.9427   22.5413 C   0  0  0  0  0  0
  -19.5744  -26.6394   21.5214 C   0  0  0  0  0  0
  -18.1923  -26.7936   22.1627 C   0  0  0  0  0  0
  -19.1533  -28.8864   23.2880 C   0  0  0  0  0  0
  -18.9455  -30.1462   23.8908 C   0  0  0  0  0  0
  -17.6456  -30.6599   24.0569 C   0  0  0  0  0  0
  -25.9056  -34.9441   23.5093 C   0  0  0  0  0  0
  -16.5347  -29.9100   23.6333 C   0  0  0  0  0  0
  -16.7268  -28.6511   23.0367 C   0  0  0  0  0  0
  -26.4501  -31.6581   25.0723 C   0  0  0  0  0  0
  -25.3722  -31.3729   26.1441 C   0  0  0  0  0  0
  -27.0355  -30.2997   24.6219 C   0  0  0  0  0  0
  -27.6053  -32.4330   25.7496 C   0  0  0  0  0  0
  -27.5577  -37.1796   24.8462 C   0  0  0  0  0  0
  -21.4190  -29.3053   22.3667 N   0  0  0  0  0  0
  -26.4288  -37.3771   23.9408 N   0  0  0  0  0  0
  -24.6944  -31.0519   22.0971 N   0  0  0  0  0  0
  -23.4181  -28.8156   23.3037 O   0  0  0  0  0  0
  -28.3294  -26.3979   20.1122 O   0  0  0  0  0  0
  -26.5641  -34.8916   22.4671 O   0  0  0  0  0  0
  -23.5453  -32.1390   23.7287 O   0  0  0  0  0  0
  -29.4397  -18.5087   20.4309 C   0  0  0  0  0  0
  -29.8346  -19.8543   20.0131 C   0  0  0  0  0  0
  -31.1160  -19.9255   19.3994 C   0  0  0  0  0  0
  -30.2959  -17.3355   20.2739 C   0  0  0  0  0  0
  -31.9252  -18.7734   19.3518 C   0  0  0  0  0  0
  -30.9221  -21.8965   17.6402 C   0  0  0  0  0  0
  -32.2310  -21.2080   17.3728 C   0  0  0  0  0  0
  -27.1266  -22.7583   21.4024 C   0  0  0  0  0  0
  -27.0168  -24.1203   20.6246 C   0  0  0  0  0  0
  -29.3370  -24.0042   19.8875 C   0  0  0  0  0  0
  -28.9779  -21.2025   20.0555 C   0  0  1  0  0  0
  -31.6477  -21.1959   18.7742 C   0  0  0  0  0  0
  -28.4307  -21.9350   21.2878 C   0  0  1  0  0  0
  -29.5622  -22.5879   20.5437 C   0  0  2  0  0  0
  -28.3173  -24.9708   20.6097 C   0  0  1  0  0  0
  -33.9683  -17.6806   18.6733 C   0  0  0  0  0  0
  -31.5237  -17.5590   19.7696 N   0  0  0  0  0  0
  -29.9088  -15.9289   20.5921 N   0  0  0  0  0  0
  -33.2008  -18.8710   18.8323 O   0  0  0  0  0  0
  -31.4625  -12.5488   19.1755 H   0  0  0  0  0  0
  -30.3471  -11.4808   19.9759 H   0  0  0  0  0  0
  -29.7867  -11.7175   17.5292 H   0  0  0  0  0  0
  -29.6342  -13.4472   17.7163 H   0  0  0  0  0  0
  -27.8893  -11.2792   18.9220 H   0  0  0  0  0  0
  -27.3742  -12.5094   17.8006 H   0  0  0  0  0  0
  -27.6236  -14.2530   19.4531 H   0  0  0  0  0  0
  -28.7147  -12.2074   21.4451 H   0  0  0  0  0  0
  -28.4177  -13.8973   21.7751 H   0  0  0  0  0  0
  -25.2764   -9.5692   22.4764 H   0  0  0  0  0  0
  -24.0012   -7.4637   22.7476 H   0  0  0  0  0  0
  -21.0850   -8.8770   19.8951 H   0  0  0  0  0  0
  -22.3696  -10.9675   19.6174 H   0  0  0  0  0  0
  -21.2006   -7.6151   23.9718 H   0  0  0  0  0  0
  -21.1479   -6.0529   25.9079 H   0  0  0  0  0  0
  -22.0599   -2.7610   23.2855 H   0  0  0  0  0  0
  -22.4092  -11.9870   22.4816 H   0  0  0  0  0  0
  -21.1074  -13.1210   22.2630 H   0  0  0  0  0  0
  -24.6443  -15.8431   20.5175 H   0  0  0  0  0  0
  -26.2549  -15.6336   20.0549 H   0  0  0  0  0  0
  -26.7187  -32.5407   23.1070 H   0  0  0  0  0  0
  -25.0025  -33.9702   25.0364 H   0  0  0  0  0  0
  -22.7222  -31.2998   21.3963 H   0  0  0  0  0  0
  -23.3745  -35.9625   23.3298 H   0  0  0  0  0  0
  -24.3570  -36.8929   22.2055 H   0  0  0  0  0  0
  -23.7240  -37.6489   23.6676 H   0  0  0  0  0  0
  -26.1062  -31.5215   20.6046 H   0  0  0  0  0  0
  -26.8495  -30.8195   22.0109 H   0  0  0  0  0  0
  -28.1176  -28.9254   21.2087 H   0  0  0  0  0  0
  -25.9923  -25.9274   18.9574 H   0  0  0  0  0  0
  -23.9790  -27.3124   18.9820 H   0  0  0  0  0  0
  -23.7703  -30.5840   19.4040 H   0  0  0  0  0  0
  -22.7613  -29.2430   19.8558 H   0  0  0  0  0  0
  -25.1294  -36.1920   25.0814 H   0  0  0  0  0  0
  -20.9969  -28.3288   24.1400 H   0  0  0  0  0  0
  -20.5672  -26.2321   23.3620 H   0  0  0  0  0  0
  -21.6637  -26.7457   22.1206 H   0  0  0  0  0  0
  -19.6911  -25.6303   21.1250 H   0  0  0  0  0  0
  -19.6681  -27.3203   20.6743 H   0  0  0  0  0  0
  -17.4192  -26.6686   21.4031 H   0  0  0  0  0  0
  -18.0326  -26.0075   22.9022 H   0  0  0  0  0  0
  -19.7928  -30.7271   24.2296 H   0  0  0  0  0  0
  -17.5011  -31.6282   24.5169 H   0  0  0  0  0  0
  -15.5349  -30.3011   23.7654 H   0  0  0  0  0  0
  -15.8661  -28.0831   22.7101 H   0  0  0  0  0  0
  -24.5903  -30.7078   25.7757 H   0  0  0  0  0  0
  -24.8911  -32.2898   26.4853 H   0  0  0  0  0  0
  -25.8034  -30.8908   27.0223 H   0  0  0  0  0  0
  -26.2943  -29.6735   24.1243 H   0  0  0  0  0  0
  -27.4027  -29.7272   25.4745 H   0  0  0  0  0  0
  -27.8822  -30.4262   23.9470 H   0  0  0  0  0  0
  -27.2659  -33.3640   26.2052 H   0  0  0  0  0  0
  -28.3875  -32.6882   25.0332 H   0  0  0  0  0  0
  -28.0710  -31.8473   26.5432 H   0  0  0  0  0  0
  -28.2588  -38.0099   24.7517 H   0  0  0  0  0  0
  -28.1080  -36.2630   24.6279 H   0  0  0  0  0  0
  -27.2297  -37.1435   25.8865 H   0  0  0  0  0  0
  -20.9377  -29.8772   21.6866 H   0  0  0  0  0  0
  -26.0167  -38.2846   24.1413 H   0  0  0  0  0  0
  -28.4515  -18.3772   20.8505 H   0  0  0  0  0  0
  -30.0256  -21.4321   17.2337 H   0  0  0  0  0  0
  -30.9361  -22.9842   17.6166 H   0  0  0  0  0  0
  -33.0925  -21.8468   17.1874 H   0  0  0  0  0  0
  -32.1927  -20.2957   16.7805 H   0  0  0  0  0  0
  -26.2836  -22.1157   21.1462 H   0  0  0  0  0  0
  -27.0037  -22.9864   22.4621 H   0  0  0  0  0  0
  -26.2043  -24.6911   21.0737 H   0  0  0  0  0  0
  -26.7122  -23.9099   19.5990 H   0  0  0  0  0  0
  -29.0152  -23.8547   18.8566 H   0  0  0  0  0  0
  -30.3069  -24.4977   19.8204 H   0  0  0  0  0  0
  -28.3400  -21.2268   19.1738 H   0  0  0  0  0  0
  -32.1586  -21.8080   19.5158 H   0  0  0  0  0  0
  -28.6877  -21.4404   22.2231 H   0  0  0  0  0  0
  -30.5014  -22.5437   21.0914 H   0  0  0  0  0  0
  -28.6407  -25.0610   21.6473 H   0  0  0  0  0  0
  -34.9253  -17.9245   18.2130 H   0  0  0  0  0  0
  -33.4639  -16.9657   18.0214 H   0  0  0  0  0  0
  -34.1739  -17.2039   19.6327 H   0  0  0  0  0  0
  -28.9453  -15.7985   20.8539 H   0  0  0  0  0  0
  1 25  1  0  0  0
  1 30  2  0  0  0
  1 88  1  0  0  0
  2  3  1  0  0  0
  2 25  1  0  0  0
  2 90  1  0  0  0
  2 91  1  0  0  0
  3  4  1  0  0  0
  3 92  1  0  0  0
  3 93  1  0  0  0
  4  5  1  0  0  0
  4 94  1  0  0  0
  4 95  1  0  0  0
  5  6  1  0  0  0
  5 26  1  0  0  0
  5 96  1  0  0  0
  6 25  1  0  0  0
  6 97  1  0  0  0
  6 98  1  0  0  0
  7  8  2  0  0  0
  7 26  1  0  0  0
  7 29  1  0  0  0
  8  9  1  0  0  0
  8 22  1  0  0  0
  9 10  1  0  0  0
  9 27  2  0  0  0
 10 11  2  0  0  0
 10 15  1  0  0  0
 11 12  1  0  0  0
 11 99  1  0  0  0
 12 13  2  0  0  0
 12100  1  0  0  0
 13 14  1  0  0  0
 13 31  1  0  0  0
 14 15  2  0  0  0
 14101  1  0  0  0
 15102  1  0  0  0
 16 17  2  0  0  0
 16 21  1  0  0  0
 16 31  1  0  0  0
 17 18  1  0  0  0
 17103  1  0  0  0
 18 19  2  0  0  0
 18104  1  0  0  0
 19 20  1  0  0  0
 19 24  1  0  0  0
 20 21  2  0  0  0
 20105  1  0  0  0
 21 23  1  0  0  0
 22 28  1  0  0  0
 22 32  2  0  0  0
 26 27  1  0  0  0
 28106  1  0  0  0
 28107  1  0  0  0
 29108  1  0  0  0
 29109  1  0  0  0
 33 34  1  0  0  0
 33 66  1  0  0  0
 33 70  2  0  0  0
 34 36  1  0  0  0
 34 59  1  0  0  0
 34110  1  0  0  0
 35 44  2  0  0  0
 35 45  1  0  0  0
 35 68  1  0  0  0
 36 56  1  0  0  0
 36111  1  0  0  0
 37 39  1  0  0  0
 37 47  1  0  0  0
 37 66  1  0  0  0
 37112  1  0  0  0
 38 43  2  0  0  0
 38 46  1  0  0  0
 38 47  1  0  0  0
 39 64  1  0  0  0
 39 67  2  0  0  0
 40 52  1  0  0  0
 40 53  2  0  0  0
 40 58  1  0  0  0
 41113  1  0  0  0
 41114  1  0  0  0
 41115  1  0  0  0
 41 48  1  0  0  0
 42 43  1  0  0  0
 42 66  1  0  0  0
 42116  1  0  0  0
 42117  1  0  0  0
 43 44  1  0  0  0
 44118  1  0  0  0
 45 46  2  0  0  0
 45119  1  0  0  0
 46120  1  0  0  0
 47121  1  0  0  0
 47122  1  0  0  0
 48 56  1  0  0  0
 48 65  1  0  0  0
 48123  1  0  0  0
 49 50  1  0  0  0
 49 53  1  0  0  0
 49 64  1  0  0  0
 49124  1  0  0  0
 50 51  1  0  0  0
 50125  1  0  0  0
 50126  1  0  0  0
 51 52  1  0  0  0
 51127  1  0  0  0
 51128  1  0  0  0
 52129  1  0  0  0
 52130  1  0  0  0
 53 54  1  0  0  0
 54 55  2  0  0  0
 54131  1  0  0  0
 55 57  1  0  0  0
 55132  1  0  0  0
 56 69  2  0  0  0
 57 58  2  0  0  0
 57133  1  0  0  0
 58134  1  0  0  0
 59 60  1  0  0  0
 59 61  1  0  0  0
 59 62  1  0  0  0
 60135  1  0  0  0
 60136  1  0  0  0
 60137  1  0  0  0
 61138  1  0  0  0
 61139  1  0  0  0
 61140  1  0  0  0
 62141  1  0  0  0
 62142  1  0  0  0
 62143  1  0  0  0
 63 65  1  0  0  0
 63144  1  0  0  0
 63145  1  0  0  0
 63146  1  0  0  0
 64147  1  0  0  0
 65148  1  0  0  0
 68 85  1  0  0  0
 71 72  2  0  0  0
 71 74  1  0  0  0
 71149  1  0  0  0
 72 73  1  0  0  0
 72 81  1  0  0  0
 73 75  2  0  0  0
 73 82  1  0  0  0
 74 87  2  0  0  0
 74 88  1  0  0  0
 75 87  1  0  0  0
 75 89  1  0  0  0
 76 77  1  0  0  0
 76 82  1  0  0  0
 76150  1  0  0  0
 76151  1  0  0  0
 77 82  1  0  0  0
 77152  1  0  0  0
 77153  1  0  0  0
 78 79  1  0  0  0
 78154  1  0  0  0
 78155  1  0  0  0
 78 83  1  0  0  0
 79 85  1  0  0  0
 79156  1  0  0  0
 79157  1  0  0  0
 80 85  1  0  0  0
 80158  1  0  0  0
 80159  1  0  0  0
 80 84  1  0  0  0
 81 83  1  0  0  0
 81 84  1  0  0  0
 81160  1  0  0  0
 82161  1  0  0  0
 83 84  1  0  0  0
 83162  1  0  0  0
 84163  1  0  0  0
 85164  1  0  0  0
 86 89  1  0  0  0
 86165  1  0  0  0
 86166  1  0  0  0
 86167  1  0  0  0
 88168  1  0  0  0
M  ISO  4   1 100  68 101  85 101  88 100
M  END
> <chiral flag>
0

> <version>
0

> <s_m_source_file>
/data/baiqing/PycharmProjects/Reinvent-master-3.2/result/LINK_invent/BTK/process_docking_weight1_custom_sum_contain_oxygen_bond_distance_aromatic_linkinvent_7_9_3/rearranged_h_0159.sdf

> <i_m_source_file_index>
96

> <r_mmod_Potential_Energy-OPLS-2005>
174.646865844727

> <r_mmod_Stretch_Energy-OPLS-2005>
126.391418457031

> <r_mmod_Bend_Energy-OPLS-2005>
197.646697998047

> <r_mmod_Torsional_Energy-OPLS-2005>
320.330139160156

> <r_mmod_Improper_Torsional_Energy-OPLS-2005>
4.82543134689331

> <r_mmod_Van_der_Waal_Energy-OPLS-2005>
153.344650268555

> <r_mmod_Electrostatic_Energy-OPLS-2005>
-488.211120605469

> <r_mmod_Solvation_Energy-OPLS-2005>
-222.186279296875

> <b_mmod_Minimization_Converged-OPLS-2005>
0

> <r_mmod_RMS_Derivative-OPLS-2005>
0.869914293289185

$$$$
96
                    3D
 Structure written by MMmdl.
178187  0  0  1  0            999 V2000
  -30.7060  -14.4499   20.5329 C   0  0  0  0  0  0
  -30.4176  -12.2809   19.4204 C   0  0  0  0  0  0
  -29.4910  -12.4849   18.2037 C   0  0  0  0  0  0
  -28.0109  -12.3595   18.6175 C   0  0  0  0  0  0
  -27.6592  -13.2003   19.8748 C   0  0  2  0  0  0
  -28.7047  -12.9813   20.9931 C   0  0  0  0  0  0
  -25.2592  -13.8142   20.5692 C   0  0  0  0  0  0
  -24.1845  -13.0431   20.9224 C   0  0  0  0  0  0
  -24.6386  -11.6897   20.8771 C   0  0  0  0  0  0
  -23.9050  -10.4285   21.0426 C   0  0  0  0  0  0
  -24.3603   -9.4200   21.9196 C   0  0  0  0  0  0
  -23.6281   -8.2232   22.0753 C   0  0  0  0  0  0
  -22.4264   -8.0279   21.3542 C   0  0  0  0  0  0
  -21.9901   -9.0255   20.4646 C   0  0  0  0  0  0
  -22.7227  -10.2135   20.3067 C   0  0  0  0  0  0
  -21.6851   -6.0733   22.5275 C   0  0  0  0  0  0
  -21.4015   -6.5638   23.8209 C   0  0  0  0  0  0
  -21.3657   -5.6792   24.9172 C   0  0  0  0  0  0
  -21.6039   -4.3054   24.7227 C   0  0  0  0  0  0
  -21.8817   -3.8145   23.4350 C   0  0  0  0  0  0
  -21.9191   -4.6959   22.3405 C   0  0  0  0  0  0
  -22.7868  -13.5243   21.1864 C   0  0  0  0  0  0
  -22.1659   -4.2142   21.0984 F   0  0  0  0  0  0
  -21.5625   -3.4541   25.7741 F   0  0  0  0  0  0
  -30.0294  -13.2761   20.4293 N   0  0  0  0  0  0
  -26.3013  -12.9293   20.3380 N   0  0  0  0  0  0
  -25.9309  -11.6464   20.5799 N   0  0  0  0  0  0
  -22.0500  -12.8228   22.0408 N   0  0  0  0  0  0
  -25.4322  -15.1845   20.3998 N   0  0  0  0  0  0
  -31.8846  -14.5630   20.1819 O   0  0  0  0  0  0
  -21.6633   -6.8874   21.4236 O   0  0  0  0  0  0
  -22.3565  -14.5549   20.6710 O   0  0  0  0  0  0
  -24.6108  -31.8713   23.2139 C   0  0  0  0  0  0
  -25.9017  -32.4839   23.8419 C   0  0  1  0  0  0
  -27.2326  -27.4652   20.0930 C   0  0  0  0  0  0
  -25.5884  -33.8636   24.2352 N   0  0  0  0  0  0
  -23.3978  -30.4949   21.5531 C   0  0  2  0  0  0
  -24.8455  -28.9618   20.1207 C   0  0  0  0  0  0
  -22.7390  -29.4677   22.5006 C   0  0  0  0  0  0
  -18.0270  -28.1389   22.8487 C   0  0  0  0  0  0
  -24.1485  -36.7331   23.2639 C   0  0  0  0  0  0
  -25.9237  -30.8416   21.3665 C   0  0  0  0  0  0
  -26.0016  -29.4744   20.7242 C   0  0  0  0  0  0
  -27.1997  -28.7280   20.7205 C   0  0  0  0  0  0
  -26.0698  -26.9664   19.4739 C   0  0  0  0  0  0
  -24.8710  -27.7016   19.4987 C   0  0  0  0  0  0
  -23.6063  -29.8258   20.1680 C   0  0  0  0  0  0
  -25.4100  -36.3121   24.0342 C   0  0  1  0  0  0
  -20.5856  -28.3668   23.1336 C   0  0  2  0  0  0
  -20.6759  -26.9409   22.5430 C   0  0  0  0  0  0
  -19.5752  -26.6395   21.5217 C   0  0  0  0  0  0
  -18.1921  -26.7937   22.1613 C   0  0  0  0  0  0
  -19.1517  -28.8844   23.2908 C   0  0  0  0  0  0
  -18.9447  -30.1450   23.8921 C   0  0  0  0  0  0
  -17.6453  -30.6592   24.0574 C   0  0  0  0  0  0
  -25.9022  -34.9484   23.5142 C   0  0  0  0  0  0
  -16.5344  -29.9097   23.6331 C   0  0  0  0  0  0
  -16.7261  -28.6519   23.0340 C   0  0  0  0  0  0
  -26.4460  -31.6605   25.0732 C   0  0  0  0  0  0
  -25.3738  -31.3700   26.1488 C   0  0  0  0  0  0
  -27.0290  -30.3049   24.6094 C   0  0  0  0  0  0
  -27.6047  -32.4317   25.7484 C   0  0  0  0  0  0
  -27.5579  -37.1814   24.8462 C   0  0  0  0  0  0
  -21.4123  -29.3036   22.3737 N   0  0  0  0  0  0
  -26.4294  -37.3796   23.9404 N   0  0  0  0  0  0
  -24.6618  -31.0834   22.1033 N   0  0  0  0  0  0
  -23.4175  -28.8212   23.3030 O   0  0  0  0  0  0
  -28.3858  -26.7284   20.0136 O   0  0  0  0  0  0
  -26.5589  -34.8930   22.4706 O   0  0  0  0  0  0
  -23.5309  -32.1455   23.7548 O   0  0  0  0  0  0
  -27.7554  -20.2798   19.3761 C   0  0  0  0  0  0
  -30.0964  -16.4586   19.3626 C   0  0  0  0  0  0
  -29.3624  -16.1277   21.7446 C   0  0  0  0  0  0
  -27.8908  -21.8149   19.2772 C   0  0  0  0  0  0
  -29.2185  -17.7271   19.3238 C   0  0  0  0  0  0
  -27.2004  -21.7629   21.6559 C   0  0  0  0  0  0
  -27.7245  -20.3020   21.8746 C   0  0  2  0  0  0
  -28.4873  -19.7399   20.6287 C   0  0  1  0  0  0
  -29.4521  -17.6751   21.8058 C   0  0  1  0  0  0
  -26.5277  -19.4301   22.3281 C   0  0  0  0  0  0
  -31.6407  -17.6717   23.2024 C   0  0  0  0  0  0
  -30.8993  -18.2201   21.9728 C   0  0  0  0  0  0
  -27.8293  -24.8900   21.5961 C   0  0  0  0  0  0
  -27.4746  -23.9307   20.4326 C   0  0  0  0  0  0
  -28.7784  -26.0464   21.2038 C   0  0  0  0  0  0
  -29.9130  -15.5498   20.5085 N   0  0  0  0  0  0
  -27.9229  -22.5183   20.5941 N   0  3  2  0  0  0
  -28.7202  -18.2486   20.6308 N   0  3  2  0  0  0
  -31.4629  -12.3685   19.1186 H   0  0  0  0  0  0
  -30.3080  -11.2723   19.8225 H   0  0  0  0  0  0
  -29.7229  -11.7550   17.4271 H   0  0  0  0  0  0
  -29.6671  -13.4656   17.7599 H   0  0  0  0  0  0
  -27.8147  -11.3054   18.8150 H   0  0  0  0  0  0
  -27.3612  -12.6361   17.7863 H   0  0  0  0  0  0
  -27.6989  -14.2463   19.5733 H   0  0  0  0  0  0
  -28.6767  -11.9476   21.3403 H   0  0  0  0  0  0
  -28.4867  -13.5851   21.8726 H   0  0  0  0  0  0
  -25.2756   -9.5670   22.4761 H   0  0  0  0  0  0
  -23.9993   -7.4613   22.7461 H   0  0  0  0  0  0
  -21.0836   -8.8782   19.8944 H   0  0  0  0  0  0
  -22.3700  -10.9678   19.6175 H   0  0  0  0  0  0
  -21.2010   -7.6146   23.9714 H   0  0  0  0  0  0
  -21.1480   -6.0524   25.9076 H   0  0  0  0  0  0
  -22.0598   -2.7607   23.2854 H   0  0  0  0  0  0
  -22.4120  -11.9899   22.4799 H   0  0  0  0  0  0
  -21.1108  -13.1241   22.2594 H   0  0  0  0  0  0
  -24.6317  -15.8071   20.4289 H   0  0  0  0  0  0
  -26.2120  -15.5624   19.8816 H   0  0  0  0  0  0
  -26.7092  -32.5566   23.1191 H   0  0  0  0  0  0
  -25.0023  -33.9802   25.0489 H   0  0  0  0  0  0
  -22.6858  -31.3117   21.4144 H   0  0  0  0  0  0
  -23.3736  -35.9676   23.3311 H   0  0  0  0  0  0
  -24.3584  -36.8933   22.2052 H   0  0  0  0  0  0
  -23.7254  -37.6548   23.6647 H   0  0  0  0  0  0
  -26.0306  -31.6034   20.5932 H   0  0  0  0  0  0
  -26.8141  -30.9000   21.9807 H   0  0  0  0  0  0
  -28.0958  -29.1234   21.1780 H   0  0  0  0  0  0
  -26.0911  -26.0137   18.9658 H   0  0  0  0  0  0
  -23.9834  -27.3041   19.0257 H   0  0  0  0  0  0
  -23.7124  -30.6003   19.4075 H   0  0  0  0  0  0
  -22.7316  -29.2433   19.8734 H   0  0  0  0  0  0
  -25.1271  -36.1995   25.0837 H   0  0  0  0  0  0
  -20.9946  -28.3235   24.1458 H   0  0  0  0  0  0
  -20.5667  -26.2274   23.3608 H   0  0  0  0  0  0
  -21.6629  -26.7462   22.1227 H   0  0  0  0  0  0
  -19.6923  -25.6309   21.1243 H   0  0  0  0  0  0
  -19.6709  -27.3212   20.6755 H   0  0  0  0  0  0
  -17.4196  -26.6701   21.4006 H   0  0  0  0  0  0
  -18.0307  -26.0076   22.9005 H   0  0  0  0  0  0
  -19.7926  -30.7256   24.2306 H   0  0  0  0  0  0
  -17.5011  -31.6274   24.5174 H   0  0  0  0  0  0
  -15.5346  -30.3005   23.7650 H   0  0  0  0  0  0
  -15.8660  -28.0854   22.7033 H   0  0  0  0  0  0
  -24.5919  -30.7034   25.7828 H   0  0  0  0  0  0
  -24.8918  -32.2850   26.4942 H   0  0  0  0  0  0
  -25.8100  -30.8873   27.0242 H   0  0  0  0  0  0
  -26.2833  -29.6810   24.1155 H   0  0  0  0  0  0
  -27.4070  -29.7276   25.4543 H   0  0  0  0  0  0
  -27.8658  -30.4366   23.9232 H   0  0  0  0  0  0
  -27.2678  -33.3604   26.2100 H   0  0  0  0  0  0
  -28.3830  -32.6899   25.0293 H   0  0  0  0  0  0
  -28.0748  -31.8423   26.5365 H   0  0  0  0  0  0
  -28.2599  -38.0108   24.7499 H   0  0  0  0  0  0
  -28.1070  -36.2639   24.6289 H   0  0  0  0  0  0
  -27.2300  -37.1464   25.8867 H   0  0  0  0  0  0
  -20.9280  -29.8757   21.6959 H   0  0  0  0  0  0
  -26.0188  -38.2879   24.1398 H   0  0  0  0  0  0
  -28.1245  -19.8739   18.4364 H   0  0  0  0  0  0
  -26.7009  -20.0025   19.4130 H   0  0  0  0  0  0
  -31.1405  -16.7745   19.3178 H   0  0  0  0  0  0
  -29.9380  -15.9014   18.4371 H   0  0  0  0  0  0
  -28.3108  -15.8416   21.8039 H   0  0  0  0  0  0
  -29.8259  -15.6801   22.6252 H   0  0  0  0  0  0
  -27.0645  -22.1839   18.6661 H   0  0  0  0  0  0
  -28.8017  -22.0752   18.7363 H   0  0  0  0  0  0
  -28.3506  -17.5365   18.6914 H   0  0  0  0  0  0
  -29.8072  -18.4916   18.8142 H   0  0  0  0  0  0
  -27.2336  -22.3030   22.6025 H   0  0  0  0  0  0
  -26.1465  -21.7407   21.3702 H   0  0  0  0  0  0
  -28.4391  -20.3363   22.6987 H   0  0  0  0  0  0
  -29.4793  -20.1944   20.6058 H   0  0  0  0  0  0
  -28.9260  -17.9662   22.7132 H   0  0  0  0  0  0
  -25.7881  -19.3084   21.5349 H   0  0  0  0  0  0
  -26.0143  -19.8947   23.1712 H   0  0  0  0  0  0
  -26.8094  -18.4339   22.6618 H   0  0  0  0  0  0
  -32.6085  -18.1610   23.3171 H   0  0  0  0  0  0
  -31.8353  -16.6021   23.1217 H   0  0  0  0  0  0
  -31.0747  -17.8446   24.1187 H   0  0  0  0  0  0
  -30.8691  -19.3027   22.0859 H   0  0  0  0  0  0
  -31.5066  -18.0351   21.0891 H   0  0  0  0  0  0
  -28.2649  -24.3544   22.4394 H   0  0  0  0  0  0
  -26.9034  -25.3214   21.9800 H   0  0  0  0  0  0
  -27.9080  -24.3208   19.5103 H   0  0  0  0  0  0
  -26.3951  -23.9419   20.2705 H   0  0  0  0  0  0
  -29.7756  -25.6425   21.0258 H   0  0  0  0  0  0
  -28.8822  -26.7503   22.0307 H   0  0  0  0  0  0
  -28.8923  -22.5686   20.8730 H   0  0  0  0  0  0
  -27.7968  -17.8476   20.7115 H   0  0  0  0  0  0
  1 25  1  0  0  0
  1 30  2  0  0  0
  1 86  1  0  0  0
  2  3  1  0  0  0
  2 25  1  0  0  0
  2 89  1  0  0  0
  2 90  1  0  0  0
  3  4  1  0  0  0
  3 91  1  0  0  0
  3 92  1  0  0  0
  4  5  1  0  0  0
  4 93  1  0  0  0
  4 94  1  0  0  0
  5  6  1  0  0  0
  5 26  1  0  0  0
  5 95  1  0  0  0
  6 25  1  0  0  0
  6 96  1  0  0  0
  6 97  1  0  0  0
  7  8  2  0  0  0
  7 26  1  0  0  0
  7 29  1  0  0  0
  8  9  1  0  0  0
  8 22  1  0  0  0
  9 10  1  0  0  0
  9 27  2  0  0  0
 10 11  2  0  0  0
 10 15  1  0  0  0
 11 12  1  0  0  0
 11 98  1  0  0  0
 12 13  2  0  0  0
 12 99  1  0  0  0
 13 14  1  0  0  0
 13 31  1  0  0  0
 14 15  2  0  0  0
 14100  1  0  0  0
 15101  1  0  0  0
 16 17  2  0  0  0
 16 21  1  0  0  0
 16 31  1  0  0  0
 17 18  1  0  0  0
 17102  1  0  0  0
 18 19  2  0  0  0
 18103  1  0  0  0
 19 20  1  0  0  0
 19 24  1  0  0  0
 20 21  2  0  0  0
 20104  1  0  0  0
 21 23  1  0  0  0
 22 28  1  0  0  0
 22 32  2  0  0  0
 26 27  1  0  0  0
 28105  1  0  0  0
 28106  1  0  0  0
 29107  1  0  0  0
 29108  1  0  0  0
 33 34  1  0  0  0
 33 66  1  0  0  0
 33 70  2  0  0  0
 34 36  1  0  0  0
 34 59  1  0  0  0
 34109  1  0  0  0
 35 44  2  0  0  0
 35 45  1  0  0  0
 35 68  1  0  0  0
 36 56  1  0  0  0
 36110  1  0  0  0
 37 39  1  0  0  0
 37 47  1  0  0  0
 37 66  1  0  0  0
 37111  1  0  0  0
 38 43  2  0  0  0
 38 46  1  0  0  0
 38 47  1  0  0  0
 39 64  1  0  0  0
 39 67  2  0  0  0
 40 52  1  0  0  0
 40 53  2  0  0  0
 40 58  1  0  0  0
 41112  1  0  0  0
 41113  1  0  0  0
 41114  1  0  0  0
 41 48  1  0  0  0
 42 43  1  0  0  0
 42 66  1  0  0  0
 42115  1  0  0  0
 42116  1  0  0  0
 43 44  1  0  0  0
 44117  1  0  0  0
 45 46  2  0  0  0
 45118  1  0  0  0
 46119  1  0  0  0
 47120  1  0  0  0
 47121  1  0  0  0
 48 56  1  0  0  0
 48 65  1  0  0  0
 48122  1  0  0  0
 49 50  1  0  0  0
 49 53  1  0  0  0
 49 64  1  0  0  0
 49123  1  0  0  0
 50 51  1  0  0  0
 50124  1  0  0  0
 50125  1  0  0  0
 51 52  1  0  0  0
 51126  1  0  0  0
 51127  1  0  0  0
 52128  1  0  0  0
 52129  1  0  0  0
 53 54  1  0  0  0
 54 55  2  0  0  0
 54130  1  0  0  0
 55 57  1  0  0  0
 55131  1  0  0  0
 56 69  2  0  0  0
 57 58  2  0  0  0
 57132  1  0  0  0
 58133  1  0  0  0
 59 60  1  0  0  0
 59 61  1  0  0  0
 59 62  1  0  0  0
 60134  1  0  0  0
 60135  1  0  0  0
 60136  1  0  0  0
 61137  1  0  0  0
 61138  1  0  0  0
 61139  1  0  0  0
 62140  1  0  0  0
 62141  1  0  0  0
 62142  1  0  0  0
 63 65  1  0  0  0
 63143  1  0  0  0
 63144  1  0  0  0
 63145  1  0  0  0
 64146  1  0  0  0
 65147  1  0  0  0
 68 85  1  0  0  0
 71 74  1  0  0  0
 71148  1  0  0  0
 71149  1  0  0  0
 71 78  1  0  0  0
 72 75  1  0  0  0
 72 86  1  0  0  0
 72150  1  0  0  0
 72151  1  0  0  0
 73 79  1  0  0  0
 73 86  1  0  0  0
 73152  1  0  0  0
 73153  1  0  0  0
 74 87  1  0  0  0
 74154  1  0  0  0
 74155  1  0  0  0
 75156  1  0  0  0
 75157  1  0  0  0
 75 88  1  0  0  0
 76 77  1  0  0  0
 76 87  1  0  0  0
 76158  1  0  0  0
 76159  1  0  0  0
 77 78  1  0  0  0
 77 80  1  0  0  0
 77160  1  0  0  0
 78 88  1  0  0  0
 78161  1  0  0  0
 79 82  1  0  0  0
 79 88  1  0  0  0
 79162  1  0  0  0
 80163  1  0  0  0
 80164  1  0  0  0
 80165  1  0  0  0
 81 82  1  0  0  0
 81166  1  0  0  0
 81167  1  0  0  0
 81168  1  0  0  0
 82169  1  0  0  0
 82170  1  0  0  0
 83 84  1  0  0  0
 83 85  1  0  0  0
 83171  1  0  0  0
 83172  1  0  0  0
 84173  1  0  0  0
 84174  1  0  0  0
 84 87  1  0  0  0
 85175  1  0  0  0
 85176  1  0  0  0
 87177  1  0  0  0
 88178  1  0  0  0
M  CHG  2  87   1  88   1
M  ISO  4   1 100  68 101  85 101  86 100
M  END
> <chiral flag>
0

> <version>
0

> <s_m_source_file>
/data/baiqing/PycharmProjects/Reinvent-master-3.2/result/LINK_invent/BTK/process_docking_weight1_custom_sum_contain_oxygen_bond_distance_aromatic_linkinvent_7_9_3/rearranged_h_0159.sdf

> <i_m_source_file_index>
97

> <r_mmod_Potential_Energy-OPLS-2005>
124.978294372559

> <r_mmod_Stretch_Energy-OPLS-2005>
43.4331703186035

> <r_mmod_Bend_Energy-OPLS-2005>
128.581008911133

> <r_mmod_Torsional_Energy-OPLS-2005>
518.482971191406

> <r_mmod_Improper_Torsional_Energy-OPLS-2005>
20.5366268157959

> <r_mmod_Van_der_Waal_Energy-OPLS-2005>
151.916946411133

> <r_mmod_Electrostatic_Energy-OPLS-2005>
167.606094360352

> <r_mmod_Solvation_Energy-OPLS-2005>
-919.586181640625

> <b_mmod_Minimization_Converged-OPLS-2005>
0

> <r_mmod_RMS_Derivative-OPLS-2005>
1.01038014888763

$$$$
97
                    3D
 Structure written by MMmdl.
168177  0  0  1  0            999 V2000
  -30.6652  -14.4299   20.5295 C   0  0  0  0  0  0
  -30.4268  -12.2635   19.4120 C   0  0  0  0  0  0
  -29.4971  -12.4698   18.1980 C   0  0  0  0  0  0
  -28.0132  -12.3474   18.6100 C   0  0  0  0  0  0
  -27.6585  -13.1939   19.8641 C   0  0  2  0  0  0
  -28.6929  -12.9485   20.9842 C   0  0  0  0  0  0
  -25.2627  -13.8150   20.5891 C   0  0  0  0  0  0
  -24.1854  -13.0432   20.9279 C   0  0  0  0  0  0
  -24.6355  -11.6885   20.8694 C   0  0  0  0  0  0
  -23.8972  -10.4308   21.0358 C   0  0  0  0  0  0
  -24.3557   -9.4253   21.9149 C   0  0  0  0  0  0
  -23.6280   -8.2266   22.0725 C   0  0  0  0  0  0
  -22.4269   -8.0271   21.3517 C   0  0  0  0  0  0
  -21.9863   -9.0209   20.4602 C   0  0  0  0  0  0
  -22.7137  -10.2120   20.3006 C   0  0  0  0  0  0
  -21.6895   -6.0750   22.5276 C   0  0  0  0  0  0
  -21.4036   -6.5655   23.8208 C   0  0  0  0  0  0
  -21.3611   -5.6790   24.9156 C   0  0  0  0  0  0
  -21.6035   -4.3066   24.7205 C   0  0  0  0  0  0
  -21.8808   -3.8154   23.4330 C   0  0  0  0  0  0
  -21.9214   -4.6976   22.3391 C   0  0  0  0  0  0
  -22.7859  -13.5207   21.1888 C   0  0  0  0  0  0
  -22.1699   -4.2163   21.0977 F   0  0  0  0  0  0
  -21.5562   -3.4537   25.7704 F   0  0  0  0  0  0
  -30.0262  -13.2403   20.4383 N   0  0  0  0  0  0
  -26.3007  -12.9297   20.3332 N   0  0  0  0  0  0
  -25.9274  -11.6453   20.5657 N   0  0  0  0  0  0
  -22.0466  -12.8209   22.0406 N   0  0  0  0  0  0
  -25.4325  -15.1923   20.4438 N   0  0  0  0  0  0
  -31.8383  -14.5941   20.1771 O   0  0  0  0  0  0
  -21.6655   -6.8878   21.4240 O   0  0  0  0  0  0
  -22.3576  -14.5483   20.6650 O   0  0  0  0  0  0
  -24.6102  -31.8671   23.2057 C   0  0  0  0  0  0
  -25.9025  -32.4824   23.8334 C   0  0  1  0  0  0
  -27.2287  -27.4675   20.0953 C   0  0  0  0  0  0
  -25.5894  -33.8605   24.2292 N   0  0  0  0  0  0
  -23.3954  -30.4928   21.5404 C   0  0  2  0  0  0
  -24.8464  -28.9639   20.1015 C   0  0  0  0  0  0
  -22.7312  -29.4687   22.4899 C   0  0  0  0  0  0
  -18.0216  -28.1343   22.8432 C   0  0  0  0  0  0
  -24.1496  -36.7316   23.2638 C   0  0  0  0  0  0
  -25.9195  -30.8465   21.3548 C   0  0  0  0  0  0
  -25.9997  -29.4841   20.7032 C   0  0  0  0  0  0
  -27.1944  -28.7338   20.7142 C   0  0  0  0  0  0
  -26.0731  -26.9591   19.4756 C   0  0  0  0  0  0
  -24.8747  -27.6974   19.4903 C   0  0  0  0  0  0
  -23.6042  -29.8227   20.1547 C   0  0  0  0  0  0
  -25.4121  -36.3110   24.0330 C   0  0  1  0  0  0
  -20.5785  -28.3671   23.1205 C   0  0  2  0  0  0
  -20.6660  -26.9443   22.5206 C   0  0  0  0  0  0
  -19.5646  -26.6426   21.5011 C   0  0  0  0  0  0
  -18.1856  -26.7909   22.1461 C   0  0  0  0  0  0
  -19.1450  -28.8808   23.2871 C   0  0  0  0  0  0
  -18.9365  -30.1414   23.8890 C   0  0  0  0  0  0
  -17.6359  -30.6522   24.0578 C   0  0  0  0  0  0
  -25.9051  -34.9472   23.5112 C   0  0  0  0  0  0
  -16.5259  -29.9028   23.6275 C   0  0  0  0  0  0
  -16.7196  -28.6484   23.0240 C   0  0  0  0  0  0
  -26.4482  -31.6604   25.0633 C   0  0  0  0  0  0
  -25.3733  -31.3722   26.1356 C   0  0  0  0  0  0
  -27.0317  -30.3057   24.5988 C   0  0  0  0  0  0
  -27.6028  -32.4298   25.7464 C   0  0  0  0  0  0
  -27.5578  -37.1824   24.8468 C   0  0  0  0  0  0
  -21.4034  -29.3022   22.3584 N   0  0  0  0  0  0
  -26.4299  -37.3802   23.9410 N   0  0  0  0  0  0
  -24.6585  -31.0827   22.0932 N   0  0  0  0  0  0
  -23.4101  -28.8269   23.2978 O   0  0  0  0  0  0
  -28.3286  -26.6562   20.2000 O   0  0  0  0  0  0
  -26.5607  -34.8938   22.4666 O   0  0  0  0  0  0
  -23.5307  -32.1352   23.7525 O   0  0  0  0  0  0
  -28.4374  -18.0528   21.5340 C   0  0  0  0  0  0
  -27.6402  -19.1905   21.7515 C   0  0  0  0  0  0
  -29.1917  -17.9259   20.3473 C   0  0  0  0  0  0
  -27.5490  -20.2168   20.7827 C   0  0  0  0  0  0
  -29.0466  -18.9083   19.3289 C   0  0  0  0  0  0
  -28.2005  -20.0301   19.5389 C   0  0  0  0  0  0
  -28.1195  -23.6097   22.5120 C   0  0  0  0  0  0
  -28.7348  -24.5561   21.4685 C   0  0  2  0  0  0
  -28.0531  -22.5906   21.3632 C   0  0  1  0  0  0
  -29.8265  -18.7757   18.0217 C   0  0  0  0  0  0
  -25.8570  -21.5120   22.2536 C   0  0  0  0  0  0
  -30.2351  -16.8079   20.2297 C   0  0  0  0  0  0
  -28.3596  -26.0420   21.4971 C   0  0  0  0  0  0
  -26.9012  -21.5739   21.1162 C   0  0  2  0  0  0
  -28.0301  -20.9786   18.5272 N   0  0  0  0  0  0
  -29.8608  -15.4873   20.7361 N   0  0  0  0  0  0
  -28.0234  -23.7498   20.4670 N   0  3  0  0  0  0
  -31.4717  -12.3697   19.1121 H   0  0  0  0  0  0
  -30.3268  -11.2460   19.7938 H   0  0  0  0  0  0
  -29.7333  -11.7325   17.4284 H   0  0  0  0  0  0
  -29.6722  -13.4526   17.7580 H   0  0  0  0  0  0
  -27.8195  -11.2930   18.8105 H   0  0  0  0  0  0
  -27.3680  -12.6152   17.7688 H   0  0  0  0  0  0
  -27.7054  -14.2412   19.5655 H   0  0  0  0  0  0
  -28.6527  -11.9030   21.2911 H   0  0  0  0  0  0
  -28.4741  -13.5358   21.8780 H   0  0  0  0  0  0
  -25.2682   -9.5845   22.4750 H   0  0  0  0  0  0
  -24.0007   -7.4700   22.7467 H   0  0  0  0  0  0
  -21.0785   -8.8668   19.8937 H   0  0  0  0  0  0
  -22.3501  -10.9636   19.6123 H   0  0  0  0  0  0
  -21.2060   -7.6170   23.9732 H   0  0  0  0  0  0
  -21.1446   -6.0516   25.9072 H   0  0  0  0  0  0
  -22.0650   -2.7634   23.2807 H   0  0  0  0  0  0
  -22.4076  -11.9849   22.4749 H   0  0  0  0  0  0
  -21.1090  -13.1231   22.2638 H   0  0  0  0  0  0
  -24.6646  -15.8371   20.6013 H   0  0  0  0  0  0
  -26.2644  -15.6645   20.1133 H   0  0  0  0  0  0
  -26.7047  -32.5586   23.1064 H   0  0  0  0  0  0
  -25.0062  -33.9769   25.0449 H   0  0  0  0  0  0
  -22.6896  -31.3121   21.3885 H   0  0  0  0  0  0
  -23.3731  -35.9671   23.3327 H   0  0  0  0  0  0
  -24.3594  -36.8909   22.2046 H   0  0  0  0  0  0
  -23.7275  -37.6542   23.6636 H   0  0  0  0  0  0
  -26.0234  -31.6161   20.5905 H   0  0  0  0  0  0
  -26.8118  -30.9051   21.9638 H   0  0  0  0  0  0
  -28.0682  -29.1055   21.2277 H   0  0  0  0  0  0
  -26.0884  -25.9823   19.0163 H   0  0  0  0  0  0
  -23.9846  -27.2801   19.0404 H   0  0  0  0  0  0
  -23.7161  -30.5925   19.3884 H   0  0  0  0  0  0
  -22.7346  -29.2337   19.8537 H   0  0  0  0  0  0
  -25.1298  -36.1954   25.0814 H   0  0  0  0  0  0
  -20.9953  -28.3269   24.1295 H   0  0  0  0  0  0
  -20.5591  -26.2280   23.3349 H   0  0  0  0  0  0
  -21.6485  -26.7456   22.0893 H   0  0  0  0  0  0
  -19.6803  -25.6358   21.1015 H   0  0  0  0  0  0
  -19.6568  -27.3204   20.6522 H   0  0  0  0  0  0
  -17.4090  -26.6648   21.3901 H   0  0  0  0  0  0
  -18.0352  -25.9877   22.8697 H   0  0  0  0  0  0
  -19.7802  -30.7281   24.2242 H   0  0  0  0  0  0
  -17.4911  -31.6190   24.5174 H   0  0  0  0  0  0
  -15.5226  -30.2910   23.7554 H   0  0  0  0  0  0
  -15.8632  -28.0855   22.6777 H   0  0  0  0  0  0
  -24.5876  -30.7128   25.7672 H   0  0  0  0  0  0
  -24.8953  -32.2897   26.4793 H   0  0  0  0  0  0
  -25.8059  -30.8880   27.0110 H   0  0  0  0  0  0
  -26.2861  -29.6808   24.1058 H   0  0  0  0  0  0
  -27.4124  -29.7307   25.4437 H   0  0  0  0  0  0
  -27.8672  -30.4386   23.9101 H   0  0  0  0  0  0
  -27.2613  -33.3536   26.2147 H   0  0  0  0  0  0
  -28.3862  -32.6958   25.0358 H   0  0  0  0  0  0
  -28.0664  -31.8321   26.5332 H   0  0  0  0  0  0
  -28.2617  -38.0105   24.7497 H   0  0  0  0  0  0
  -28.1055  -36.2625   24.6324 H   0  0  0  0  0  0
  -27.2290  -37.1527   25.8876 H   0  0  0  0  0  0
  -20.9186  -29.8477   21.6579 H   0  0  0  0  0  0
  -26.0171  -38.2867   24.1443 H   0  0  0  0  0  0
  -28.5267  -17.3112   22.3205 H   0  0  0  0  0  0
  -27.1405  -19.2887   22.7040 H   0  0  0  0  0  0
  -27.1511  -23.9512   22.8876 H   0  0  0  0  0  0
  -28.7878  -23.3497   23.3363 H   0  0  0  0  0  0
  -29.8075  -24.3937   21.3389 H   0  0  0  0  0  0
  -29.0339  -22.1160   21.2681 H   0  0  0  0  0  0
  -29.8254  -19.6717   17.4057 H   0  0  0  0  0  0
  -30.8760  -18.5759   18.2321 H   0  0  0  0  0  0
  -29.4211  -17.9698   17.4079 H   0  0  0  0  0  0
  -25.3492  -22.4693   22.3671 H   0  0  0  0  0  0
  -26.3094  -21.2623   23.2153 H   0  0  0  0  0  0
  -25.0784  -20.7738   22.0427 H   0  0  0  0  0  0
  -31.1436  -17.1489   20.7320 H   0  0  0  0  0  0
  -30.4999  -16.6429   19.1860 H   0  0  0  0  0  0
  -29.0718  -26.5874   22.1178 H   0  0  0  0  0  0
  -27.4032  -26.1482   22.0259 H   0  0  0  0  0  0
  -26.3196  -21.8620   20.2398 H   0  0  0  0  0  0
  -27.0761  -21.3034   18.4195 H   0  0  0  0  0  0
  -28.3714  -20.6899   17.6180 H   0  0  0  0  0  0
  -28.8867  -15.3129   20.9342 H   0  0  0  0  0  0
  -28.5292  -23.5990   19.6049 H   0  0  0  0  0  0
  -27.0875  -24.0748   20.3092 H   0  0  0  0  0  0
  1 25  1  0  0  0
  1 30  2  0  0  0
  1 86  1  0  0  0
  2  3  1  0  0  0
  2 25  1  0  0  0
  2 88  1  0  0  0
  2 89  1  0  0  0
  3  4  1  0  0  0
  3 90  1  0  0  0
  3 91  1  0  0  0
  4  5  1  0  0  0
  4 92  1  0  0  0
  4 93  1  0  0  0
  5  6  1  0  0  0
  5 26  1  0  0  0
  5 94  1  0  0  0
  6 25  1  0  0  0
  6 95  1  0  0  0
  6 96  1  0  0  0
  7  8  2  0  0  0
  7 26  1  0  0  0
  7 29  1  0  0  0
  8  9  1  0  0  0
  8 22  1  0  0  0
  9 10  1  0  0  0
  9 27  2  0  0  0
 10 11  2  0  0  0
 10 15  1  0  0  0
 11 12  1  0  0  0
 11 97  1  0  0  0
 12 13  2  0  0  0
 12 98  1  0  0  0
 13 14  1  0  0  0
 13 31  1  0  0  0
 14 15  2  0  0  0
 14 99  1  0  0  0
 15100  1  0  0  0
 16 17  2  0  0  0
 16 21  1  0  0  0
 16 31  1  0  0  0
 17 18  1  0  0  0
 17101  1  0  0  0
 18 19  2  0  0  0
 18102  1  0  0  0
 19 20  1  0  0  0
 19 24  1  0  0  0
 20 21  2  0  0  0
 20103  1  0  0  0
 21 23  1  0  0  0
 22 28  1  0  0  0
 22 32  2  0  0  0
 26 27  1  0  0  0
 28104  1  0  0  0
 28105  1  0  0  0
 29106  1  0  0  0
 29107  1  0  0  0
 33 34  1  0  0  0
 33 66  1  0  0  0
 33 70  2  0  0  0
 34 36  1  0  0  0
 34 59  1  0  0  0
 34108  1  0  0  0
 35 44  2  0  0  0
 35 45  1  0  0  0
 35 68  1  0  0  0
 36 56  1  0  0  0
 36109  1  0  0  0
 37 39  1  0  0  0
 37 47  1  0  0  0
 37 66  1  0  0  0
 37110  1  0  0  0
 38 43  2  0  0  0
 38 46  1  0  0  0
 38 47  1  0  0  0
 39 64  1  0  0  0
 39 67  2  0  0  0
 40 52  1  0  0  0
 40 53  2  0  0  0
 40 58  1  0  0  0
 41111  1  0  0  0
 41112  1  0  0  0
 41113  1  0  0  0
 41 48  1  0  0  0
 42 43  1  0  0  0
 42 66  1  0  0  0
 42114  1  0  0  0
 42115  1  0  0  0
 43 44  1  0  0  0
 44116  1  0  0  0
 45 46  2  0  0  0
 45117  1  0  0  0
 46118  1  0  0  0
 47119  1  0  0  0
 47120  1  0  0  0
 48 56  1  0  0  0
 48 65  1  0  0  0
 48121  1  0  0  0
 49 50  1  0  0  0
 49 53  1  0  0  0
 49 64  1  0  0  0
 49122  1  0  0  0
 50 51  1  0  0  0
 50123  1  0  0  0
 50124  1  0  0  0
 51 52  1  0  0  0
 51125  1  0  0  0
 51126  1  0  0  0
 52127  1  0  0  0
 52128  1  0  0  0
 53 54  1  0  0  0
 54 55  2  0  0  0
 54129  1  0  0  0
 55 57  1  0  0  0
 55130  1  0  0  0
 56 69  2  0  0  0
 57 58  2  0  0  0
 57131  1  0  0  0
 58132  1  0  0  0
 59 60  1  0  0  0
 59 61  1  0  0  0
 59 62  1  0  0  0
 60133  1  0  0  0
 60134  1  0  0  0
 60135  1  0  0  0
 61136  1  0  0  0
 61137  1  0  0  0
 61138  1  0  0  0
 62139  1  0  0  0
 62140  1  0  0  0
 62141  1  0  0  0
 63 65  1  0  0  0
 63142  1  0  0  0
 63143  1  0  0  0
 63144  1  0  0  0
 64145  1  0  0  0
 65146  1  0  0  0
 68 83  1  0  0  0
 71 72  2  0  0  0
 71 73  1  0  0  0
 71147  1  0  0  0
 72 74  1  0  0  0
 72148  1  0  0  0
 73 75  2  0  0  0
 73 82  1  0  0  0
 74 76  2  0  0  0
 74 84  1  0  0  0
 75 76  1  0  0  0
 75 80  1  0  0  0
 76 85  1  0  0  0
 77 78  1  0  0  0
 77149  1  0  0  0
 77150  1  0  0  0
 77 79  1  0  0  0
 78 83  1  0  0  0
 78 87  1  0  0  0
 78151  1  0  0  0
 79 84  1  0  0  0
 79 87  1  0  0  0
 79152  1  0  0  0
 80153  1  0  0  0
 80154  1  0  0  0
 80155  1  0  0  0
 81156  1  0  0  0
 81157  1  0  0  0
 81158  1  0  0  0
 81 84  1  0  0  0
 82 86  1  0  0  0
 82159  1  0  0  0
 82160  1  0  0  0
 83161  1  0  0  0
 83162  1  0  0  0
 84163  1  0  0  0
 85164  1  0  0  0
 85165  1  0  0  0
 86166  1  0  0  0
 87167  1  0  0  0
 87168  1  0  0  0
M  CHG  1  87   1
M  ISO  4   1 100  68 101  83 101  86 100
M  END
> <chiral flag>
0

> <version>
0

> <s_m_source_file>
/data/baiqing/PycharmProjects/Reinvent-master-3.2/result/LINK_invent/BTK/process_docking_weight1_custom_sum_contain_oxygen_bond_distance_aromatic_linkinvent_7_9_3/rearranged_h_0159.sdf

> <i_m_source_file_index>
98

> <r_mmod_Potential_Energy-OPLS-2005>
-277.297821044922

> <r_mmod_Stretch_Energy-OPLS-2005>
38.5632019042969

> <r_mmod_Bend_Energy-OPLS-2005>
110.31233215332

> <r_mmod_Torsional_Energy-OPLS-2005>
310.904235839844

> <r_mmod_Improper_Torsional_Energy-OPLS-2005>
15.6335868835449

> <r_mmod_Van_der_Waal_Energy-OPLS-2005>
171.641235351562

> <r_mmod_Electrostatic_Energy-OPLS-2005>
-504.452362060547

> <r_mmod_Solvation_Energy-OPLS-2005>
-437.428985595703

> <b_mmod_Minimization_Converged-OPLS-2005>
0

> <r_mmod_RMS_Derivative-OPLS-2005>
7.08009910583496

$$$$
98
                    3D
 Structure written by MMmdl.
168178  0  0  1  0            999 V2000
  -30.6819  -14.6010   20.4871 C   0  0  0  0  0  0
  -30.4169  -12.3667   19.4537 C   0  0  0  0  0  0
  -29.4988  -12.4937   18.2216 C   0  0  0  0  0  0
  -28.0221  -12.3433   18.6354 C   0  0  0  0  0  0
  -27.6475  -13.2263   19.8572 C   0  0  2  0  0  0
  -28.6931  -13.1168   20.9887 C   0  0  0  0  0  0
  -25.2546  -13.8204   20.5712 C   0  0  0  0  0  0
  -24.1822  -13.0450   20.9198 C   0  0  0  0  0  0
  -24.6406  -11.6923   20.8743 C   0  0  0  0  0  0
  -23.9087  -10.4296   21.0401 C   0  0  0  0  0  0
  -24.3634   -9.4211   21.9181 C   0  0  0  0  0  0
  -23.6306   -8.2246   22.0752 C   0  0  0  0  0  0
  -22.4288   -8.0285   21.3548 C   0  0  0  0  0  0
  -21.9928   -9.0254   20.4647 C   0  0  0  0  0  0
  -22.7257  -10.2131   20.3052 C   0  0  0  0  0  0
  -21.6856   -6.0746   22.5286 C   0  0  0  0  0  0
  -21.4014   -6.5645   23.8219 C   0  0  0  0  0  0
  -21.3659   -5.6798   24.9183 C   0  0  0  0  0  0
  -21.6044   -4.3064   24.7232 C   0  0  0  0  0  0
  -21.8817   -3.8162   23.4352 C   0  0  0  0  0  0
  -21.9193   -4.6977   22.3410 C   0  0  0  0  0  0
  -22.7842  -13.5228   21.1855 C   0  0  0  0  0  0
  -22.1656   -4.2164   21.0983 F   0  0  0  0  0  0
  -21.5634   -3.4546   25.7743 F   0  0  0  0  0  0
  -30.0055  -13.4152   20.4066 N   0  0  0  0  0  0
  -26.2975  -12.9400   20.3332 N   0  0  0  0  0  0
  -25.9341  -11.6546   20.5780 N   0  0  0  0  0  0
  -22.0487  -12.8210   22.0408 N   0  0  0  0  0  0
  -25.4280  -15.1925   20.4143 N   0  0  0  0  0  0
  -31.8693  -14.6750   20.1560 O   0  0  0  0  0  0
  -21.6644   -6.8888   21.4249 O   0  0  0  0  0  0
  -22.3521  -14.5531   20.6707 O   0  0  0  0  0  0
  -24.6223  -31.8624   23.2033 C   0  0  0  0  0  0
  -25.9087  -32.4796   23.8362 C   0  0  1  0  0  0
  -27.2266  -27.3599   20.1148 C   0  0  0  0  0  0
  -25.5908  -33.8592   24.2290 N   0  0  0  0  0  0
  -23.4152  -30.4844   21.5451 C   0  0  2  0  0  0
  -24.8659  -28.9449   20.1084 C   0  0  0  0  0  0
  -22.7457  -29.4636   22.4951 C   0  0  0  0  0  0
  -18.0283  -28.1389   22.8485 C   0  0  0  0  0  0
  -24.1488  -36.7305   23.2637 C   0  0  0  0  0  0
  -25.9526  -30.8056   21.3690 C   0  0  0  0  0  0
  -26.0313  -29.4358   20.7124 C   0  0  0  0  0  0
  -27.2200  -28.6527   20.7099 C   0  0  0  0  0  0
  -26.0481  -26.9093   19.4868 C   0  0  0  0  0  0
  -24.8731  -27.6848   19.4870 C   0  0  0  0  0  0
  -23.6286  -29.8177   20.1603 C   0  0  0  0  0  0
  -25.4112  -36.3098   24.0330 C   0  0  1  0  0  0
  -20.5878  -28.3687   23.1288 C   0  0  2  0  0  0
  -20.6774  -26.9413   22.5413 C   0  0  0  0  0  0
  -19.5753  -26.6387   21.5215 C   0  0  0  0  0  0
  -18.1930  -26.7933   22.1624 C   0  0  0  0  0  0
  -19.1532  -28.8855   23.2886 C   0  0  0  0  0  0
  -18.9463  -30.1460   23.8901 C   0  0  0  0  0  0
  -17.6460  -30.6587   24.0566 C   0  0  0  0  0  0
  -25.9043  -34.9465   23.5113 C   0  0  0  0  0  0
  -16.5348  -29.9087   23.6330 C   0  0  0  0  0  0
  -16.7269  -28.6506   23.0348 C   0  0  0  0  0  0
  -26.4482  -31.6589   25.0718 C   0  0  0  0  0  0
  -25.3726  -31.3711   26.1450 C   0  0  0  0  0  0
  -27.0309  -30.3013   24.6143 C   0  0  0  0  0  0
  -27.6047  -32.4314   25.7491 C   0  0  0  0  0  0
  -27.5584  -37.1804   24.8461 C   0  0  0  0  0  0
  -21.4175  -29.3042   22.3686 N   0  0  0  0  0  0
  -26.4294  -37.3790   23.9408 N   0  0  0  0  0  0
  -24.6819  -31.0657   22.0973 N   0  0  0  0  0  0
  -23.4189  -28.8182   23.3032 O   0  0  0  0  0  0
  -28.3038  -26.4792   20.1643 O   0  0  0  0  0  0
  -26.5622  -34.8921   22.4686 O   0  0  0  0  0  0
  -23.5393  -32.1414   23.7383 O   0  0  0  0  0  0
  -28.9614  -23.3629   19.7440 C   0  0  0  0  0  0
  -28.6299  -23.1221   22.1120 C   0  0  0  0  0  0
  -29.3416  -21.9826   19.6620 C   0  0  0  0  0  0
  -28.6075  -23.9671   20.9759 C   0  0  0  0  0  0
  -28.9920  -21.7497   22.0478 C   0  0  0  0  0  0
  -29.3475  -21.1409   20.8160 C   0  0  0  0  0  0
  -31.1128  -20.8236   18.1101 C   0  0  0  0  0  0
  -30.7317  -22.1178   17.4324 C   0  0  0  0  0  0
  -28.9658  -17.8449   19.4707 C   0  0  0  0  0  0
  -28.9985  -17.7020   21.9597 C   0  0  0  0  0  0
  -30.0531  -16.7258   19.4730 C   0  0  0  0  0  0
  -30.0555  -16.5563   21.8361 C   0  0  0  0  0  0
  -29.7385  -21.4154   18.3309 C   0  0  0  0  0  0
  -28.8836  -18.6969   20.7632 C   0  0  0  0  0  0
  -29.0222  -20.9519   23.3361 C   0  0  0  0  0  0
  -28.1264  -25.4427   21.1820 C   0  0  0  0  0  0
  -29.9426  -15.7591   20.5962 N   0  0  0  0  0  0
  -29.8190  -19.8147   20.7629 O   0  0  0  0  0  0
  -31.4627  -12.4552   19.1549 H   0  0  0  0  0  0
  -30.3177  -11.3809   19.9104 H   0  0  0  0  0  0
  -29.7580  -11.7405   17.4773 H   0  0  0  0  0  0
  -29.6524  -13.4618   17.7423 H   0  0  0  0  0  0
  -27.8551  -11.2921   18.8729 H   0  0  0  0  0  0
  -27.3686  -12.5688   17.7913 H   0  0  0  0  0  0
  -27.6577  -14.2574   19.5031 H   0  0  0  0  0  0
  -28.6931  -12.1169   21.4244 H   0  0  0  0  0  0
  -28.4566  -13.8087   21.7987 H   0  0  0  0  0  0
  -25.2773   -9.5688   22.4764 H   0  0  0  0  0  0
  -24.0019   -7.4639   22.7467 H   0  0  0  0  0  0
  -21.0864   -8.8771   19.8948 H   0  0  0  0  0  0
  -22.3715  -10.9671   19.6165 H   0  0  0  0  0  0
  -21.1993   -7.6146   23.9732 H   0  0  0  0  0  0
  -21.1486   -6.0526   25.9087 H   0  0  0  0  0  0
  -22.0596   -2.7628   23.2853 H   0  0  0  0  0  0
  -22.4106  -11.9864   22.4785 H   0  0  0  0  0  0
  -21.1107  -13.1231   22.2611 H   0  0  0  0  0  0
  -24.6703  -15.8553   20.5347 H   0  0  0  0  0  0
  -26.2964  -15.6282   20.1304 H   0  0  0  0  0  0
  -26.7155  -32.5483   23.1114 H   0  0  0  0  0  0
  -25.0041  -33.9748   25.0423 H   0  0  0  0  0  0
  -22.7087  -31.3044   21.4022 H   0  0  0  0  0  0
  -23.3753  -35.9635   23.3297 H   0  0  0  0  0  0
  -24.3580  -36.8930   22.2053 H   0  0  0  0  0  0
  -23.7234  -37.6500   23.6661 H   0  0  0  0  0  0
  -26.0768  -31.5701   20.6005 H   0  0  0  0  0  0
  -26.8352  -30.8580   21.9942 H   0  0  0  0  0  0
  -28.1142  -29.0195   21.1946 H   0  0  0  0  0  0
  -26.0314  -25.9334   19.0223 H   0  0  0  0  0  0
  -23.9787  -27.3019   19.0151 H   0  0  0  0  0  0
  -23.7387  -30.5936   19.4017 H   0  0  0  0  0  0
  -22.7514  -29.2397   19.8637 H   0  0  0  0  0  0
  -25.1294  -36.1958   25.0820 H   0  0  0  0  0  0
  -20.9974  -28.3266   24.1405 H   0  0  0  0  0  0
  -20.5682  -26.2299   23.3613 H   0  0  0  0  0  0
  -21.6647  -26.7452   22.1199 H   0  0  0  0  0  0
  -19.6914  -25.6300   21.1245 H   0  0  0  0  0  0
  -19.6690  -27.3198   20.6749 H   0  0  0  0  0  0
  -17.4203  -26.6685   21.4024 H   0  0  0  0  0  0
  -18.0325  -26.0073   22.9015 H   0  0  0  0  0  0
  -19.7939  -30.7285   24.2263 H   0  0  0  0  0  0
  -17.5012  -31.6269   24.5169 H   0  0  0  0  0  0
  -15.5350  -30.2994   23.7653 H   0  0  0  0  0  0
  -15.8670  -28.0831   22.7057 H   0  0  0  0  0  0
  -24.5895  -30.7074   25.7773 H   0  0  0  0  0  0
  -24.8928  -32.2872   26.4902 H   0  0  0  0  0  0
  -25.8059  -30.8865   27.0208 H   0  0  0  0  0  0
  -26.2867  -29.6775   24.1176 H   0  0  0  0  0  0
  -27.4021  -29.7256   25.4634 H   0  0  0  0  0  0
  -27.8735  -30.4299   23.9344 H   0  0  0  0  0  0
  -27.2660  -33.3604   26.2083 H   0  0  0  0  0  0
  -28.3851  -32.6885   25.0319 H   0  0  0  0  0  0
  -28.0718  -31.8428   26.5394 H   0  0  0  0  0  0
  -28.2596  -38.0107   24.7525 H   0  0  0  0  0  0
  -28.1088  -36.2641   24.6272 H   0  0  0  0  0  0
  -27.2304  -37.1434   25.8865 H   0  0  0  0  0  0
  -20.9352  -29.8750   21.6884 H   0  0  0  0  0  0
  -26.0181  -38.2865   24.1417 H   0  0  0  0  0  0
  -28.9443  -23.9658   18.8469 H   0  0  0  0  0  0
  -28.3608  -23.5467   23.0694 H   0  0  0  0  0  0
  -31.8299  -20.8792   18.9272 H   0  0  0  0  0  0
  -31.1873  -19.9368   17.4837 H   0  0  0  0  0  0
  -30.5661  -22.0754   16.3578 H   0  0  0  0  0  0
  -31.2085  -23.0258   17.7975 H   0  0  0  0  0  0
  -27.9970  -17.3670   19.3162 H   0  0  0  0  0  0
  -29.1083  -18.4977   18.6093 H   0  0  0  0  0  0
  -29.1588  -18.2380   22.8927 H   0  0  0  0  0  0
  -28.0246  -17.2230   22.0732 H   0  0  0  0  0  0
  -31.0438  -17.1860   19.4834 H   0  0  0  0  0  0
  -29.9901  -16.1844   18.5266 H   0  0  0  0  0  0
  -29.9569  -15.8936   22.6973 H   0  0  0  0  0  0
  -31.0583  -16.9811   21.9008 H   0  0  0  0  0  0
  -28.8935  -20.9189   17.8572 H   0  0  0  0  0  0
  -27.8860  -19.1375   20.8021 H   0  0  0  0  0  0
  -28.9941  -21.6012   24.2112 H   0  0  0  0  0  0
  -29.9335  -20.3575   23.3983 H   0  0  0  0  0  0
  -28.1608  -20.2857   23.3854 H   0  0  0  0  0  0
  -28.6337  -25.8177   22.0723 H   0  0  0  0  0  0
  -27.0769  -25.3659   21.4723 H   0  0  0  0  0  0
  1 25  1  0  0  0
  1 30  2  0  0  0
  1 87  1  0  0  0
  2  3  1  0  0  0
  2 25  1  0  0  0
  2 89  1  0  0  0
  2 90  1  0  0  0
  3  4  1  0  0  0
  3 91  1  0  0  0
  3 92  1  0  0  0
  4  5  1  0  0  0
  4 93  1  0  0  0
  4 94  1  0  0  0
  5  6  1  0  0  0
  5 26  1  0  0  0
  5 95  1  0  0  0
  6 25  1  0  0  0
  6 96  1  0  0  0
  6 97  1  0  0  0
  7  8  2  0  0  0
  7 26  1  0  0  0
  7 29  1  0  0  0
  8  9  1  0  0  0
  8 22  1  0  0  0
  9 10  1  0  0  0
  9 27  2  0  0  0
 10 11  2  0  0  0
 10 15  1  0  0  0
 11 12  1  0  0  0
 11 98  1  0  0  0
 12 13  2  0  0  0
 12 99  1  0  0  0
 13 14  1  0  0  0
 13 31  1  0  0  0
 14 15  2  0  0  0
 14100  1  0  0  0
 15101  1  0  0  0
 16 17  2  0  0  0
 16 21  1  0  0  0
 16 31  1  0  0  0
 17 18  1  0  0  0
 17102  1  0  0  0
 18 19  2  0  0  0
 18103  1  0  0  0
 19 20  1  0  0  0
 19 24  1  0  0  0
 20 21  2  0  0  0
 20104  1  0  0  0
 21 23  1  0  0  0
 22 28  1  0  0  0
 22 32  2  0  0  0
 26 27  1  0  0  0
 28105  1  0  0  0
 28106  1  0  0  0
 29107  1  0  0  0
 29108  1  0  0  0
 33 34  1  0  0  0
 33 66  1  0  0  0
 33 70  2  0  0  0
 34 36  1  0  0  0
 34 59  1  0  0  0
 34109  1  0  0  0
 35 44  2  0  0  0
 35 45  1  0  0  0
 35 68  1  0  0  0
 36 56  1  0  0  0
 36110  1  0  0  0
 37 39  1  0  0  0
 37 47  1  0  0  0
 37 66  1  0  0  0
 37111  1  0  0  0
 38 43  2  0  0  0
 38 46  1  0  0  0
 38 47  1  0  0  0
 39 64  1  0  0  0
 39 67  2  0  0  0
 40 52  1  0  0  0
 40 53  2  0  0  0
 40 58  1  0  0  0
 41112  1  0  0  0
 41113  1  0  0  0
 41114  1  0  0  0
 41 48  1  0  0  0
 42 43  1  0  0  0
 42 66  1  0  0  0
 42115  1  0  0  0
 42116  1  0  0  0
 43 44  1  0  0  0
 44117  1  0  0  0
 45 46  2  0  0  0
 45118  1  0  0  0
 46119  1  0  0  0
 47120  1  0  0  0
 47121  1  0  0  0
 48 56  1  0  0  0
 48 65  1  0  0  0
 48122  1  0  0  0
 49 50  1  0  0  0
 49 53  1  0  0  0
 49 64  1  0  0  0
 49123  1  0  0  0
 50 51  1  0  0  0
 50124  1  0  0  0
 50125  1  0  0  0
 51 52  1  0  0  0
 51126  1  0  0  0
 51127  1  0  0  0
 52128  1  0  0  0
 52129  1  0  0  0
 53 54  1  0  0  0
 54 55  2  0  0  0
 54130  1  0  0  0
 55 57  1  0  0  0
 55131  1  0  0  0
 56 69  2  0  0  0
 57 58  2  0  0  0
 57132  1  0  0  0
 58133  1  0  0  0
 59 60  1  0  0  0
 59 61  1  0  0  0
 59 62  1  0  0  0
 60134  1  0  0  0
 60135  1  0  0  0
 60136  1  0  0  0
 61137  1  0  0  0
 61138  1  0  0  0
 61139  1  0  0  0
 62140  1  0  0  0
 62141  1  0  0  0
 62142  1  0  0  0
 63 65  1  0  0  0
 63143  1  0  0  0
 63144  1  0  0  0
 63145  1  0  0  0
 64146  1  0  0  0
 65147  1  0  0  0
 68 86  1  0  0  0
 71 73  2  0  0  0
 71 74  1  0  0  0
 71148  1  0  0  0
 72 74  2  0  0  0
 72 75  1  0  0  0
 72149  1  0  0  0
 73 76  1  0  0  0
 73 83  1  0  0  0
 74 86  1  0  0  0
 75 76  2  0  0  0
 75 85  1  0  0  0
 76 88  1  0  0  0
 77 78  1  0  0  0
 77 83  1  0  0  0
 77150  1  0  0  0
 77151  1  0  0  0
 78 83  1  0  0  0
 78152  1  0  0  0
 78153  1  0  0  0
 79 81  1  0  0  0
 79 84  1  0  0  0
 79154  1  0  0  0
 79155  1  0  0  0
 80 82  1  0  0  0
 80 84  1  0  0  0
 80156  1  0  0  0
 80157  1  0  0  0
 81 87  1  0  0  0
 81158  1  0  0  0
 81159  1  0  0  0
 82 87  1  0  0  0
 82160  1  0  0  0
 82161  1  0  0  0
 83162  1  0  0  0
 84 88  1  0  0  0
 84163  1  0  0  0
 85164  1  0  0  0
 85165  1  0  0  0
 85166  1  0  0  0
 86167  1  0  0  0
 86168  1  0  0  0
M  ISO  4   1 100  68 101  86 101  87 100
M  END
> <chiral flag>
0

> <version>
0

> <s_m_source_file>
/data/baiqing/PycharmProjects/Reinvent-master-3.2/result/LINK_invent/BTK/process_docking_weight1_custom_sum_contain_oxygen_bond_distance_aromatic_linkinvent_7_9_3/rearranged_h_0159.sdf

> <i_m_source_file_index>
99

> <r_mmod_Potential_Energy-OPLS-2005>
331.038146972656

> <r_mmod_Stretch_Energy-OPLS-2005>
65.9587478637695

> <r_mmod_Bend_Energy-OPLS-2005>
145.456268310547

> <r_mmod_Torsional_Energy-OPLS-2005>
420.580932617188

> <r_mmod_Improper_Torsional_Energy-OPLS-2005>
14.6696624755859

> <r_mmod_Van_der_Waal_Energy-OPLS-2005>
132.011337280273

> <r_mmod_Electrostatic_Energy-OPLS-2005>
-298.222900390625

> <r_mmod_Solvation_Energy-OPLS-2005>
-192.159820556641

> <b_mmod_Minimization_Converged-OPLS-2005>
0

> <r_mmod_RMS_Derivative-OPLS-2005>
1.26691079139709

$$$$
