0
                    3D
 Structure written by MMmdl.
151158  0  0  1  0            999 V2000
  -30.6553  -14.5615   20.5164 C   0  0  0  0  0  0
  -30.4343  -12.3448   19.4472 C   0  0  0  0  0  0
  -29.5058  -12.5000   18.2222 C   0  0  0  0  0  0
  -28.0269  -12.3522   18.6318 C   0  0  0  0  0  0
  -27.6599  -13.2100   19.8722 C   0  0  2  0  0  0
  -28.7030  -13.0341   21.0011 C   0  0  0  0  0  0
  -25.2584  -13.8162   20.5687 C   0  0  0  0  0  0
  -24.1839  -13.0436   20.9184 C   0  0  0  0  0  0
  -24.6399  -11.6904   20.8735 C   0  0  0  0  0  0
  -23.9065  -10.4291   21.0404 C   0  0  0  0  0  0
  -24.3613   -9.4209   21.9185 C   0  0  0  0  0  0
  -23.6290   -8.2244   22.0754 C   0  0  0  0  0  0
  -22.4274   -8.0280   21.3544 C   0  0  0  0  0  0
  -21.9908   -9.0255   20.4647 C   0  0  0  0  0  0
  -22.7234  -10.2136   20.3058 C   0  0  0  0  0  0
  -21.6852   -6.0737   22.5281 C   0  0  0  0  0  0
  -21.4013   -6.5642   23.8214 C   0  0  0  0  0  0
  -21.3659   -5.6793   24.9176 C   0  0  0  0  0  0
  -21.6042   -4.3056   24.7226 C   0  0  0  0  0  0
  -21.8819   -3.8149   23.4347 C   0  0  0  0  0  0
  -21.9193   -4.6966   22.3403 C   0  0  0  0  0  0
  -22.7864  -13.5235   21.1847 C   0  0  0  0  0  0
  -22.1662   -4.2151   21.0980 F   0  0  0  0  0  0
  -21.5628   -3.4539   25.7739 F   0  0  0  0  0  0
  -30.0293  -13.3503   20.4461 N   0  0  0  0  0  0
  -26.3021  -12.9338   20.3357 N   0  0  0  0  0  0
  -25.9330  -11.6495   20.5769 N   0  0  0  0  0  0
  -22.0500  -12.8230   22.0403 N   0  0  0  0  0  0
  -25.4306  -15.1882   20.4098 N   0  0  0  0  0  0
  -31.7943  -14.7459   20.0817 O   0  0  0  0  0  0
  -21.6637   -6.8878   21.4242 O   0  0  0  0  0  0
  -22.3554  -14.5544   20.6697 O   0  0  0  0  0  0
  -24.6214  -31.8639   23.2075 C   0  0  0  0  0  0
  -25.9085  -32.4801   23.8384 C   0  0  1  0  0  0
  -27.2255  -27.3712   20.1033 C   0  0  0  0  0  0
  -25.5919  -33.8602   24.2308 N   0  0  0  0  0  0
  -23.4114  -30.4896   21.5492 C   0  0  2  0  0  0
  -24.8565  -28.9542   20.1093 C   0  0  0  0  0  0
  -22.7445  -29.4644   22.4958 C   0  0  0  0  0  0
  -18.0278  -28.1380   22.8491 C   0  0  0  0  0  0
  -24.1487  -36.7311   23.2637 C   0  0  0  0  0  0
  -25.9475  -30.8102   21.3710 C   0  0  0  0  0  0
  -26.0215  -29.4415   20.7145 C   0  0  0  0  0  0
  -27.2071  -28.6586   20.7081 C   0  0  0  0  0  0
  -26.0402  -26.9304   19.4662 C   0  0  0  0  0  0
  -24.8648  -27.7015   19.4786 C   0  0  0  0  0  0
  -23.6224  -29.8285   20.1616 C   0  0  0  0  0  0
  -25.4106  -36.3097   24.0333 C   0  0  1  0  0  0
  -20.5876  -28.3678   23.1297 C   0  0  2  0  0  0
  -20.6771  -26.9407   22.5414 C   0  0  0  0  0  0
  -19.5748  -26.6385   21.5213 C   0  0  0  0  0  0
  -18.1926  -26.7925   22.1623 C   0  0  0  0  0  0
  -19.1531  -28.8844   23.2893 C   0  0  0  0  0  0
  -18.9454  -30.1447   23.8907 C   0  0  0  0  0  0
  -17.6457  -30.6586   24.0563 C   0  0  0  0  0  0
  -25.9042  -34.9465   23.5117 C   0  0  0  0  0  0
  -16.5347  -29.9089   23.6325 C   0  0  0  0  0  0
  -16.7266  -28.6504   23.0347 C   0  0  0  0  0  0
  -26.4492  -31.6591   25.0732 C   0  0  0  0  0  0
  -25.3750  -31.3715   26.1476 C   0  0  0  0  0  0
  -27.0327  -30.3021   24.6144 C   0  0  0  0  0  0
  -27.6054  -32.4318   25.7506 C   0  0  0  0  0  0
  -27.5575  -37.1810   24.8463 C   0  0  0  0  0  0
  -21.4166  -29.3041   22.3700 N   0  0  0  0  0  0
  -26.4286  -37.3783   23.9409 N   0  0  0  0  0  0
  -24.6785  -31.0701   22.1001 N   0  0  0  0  0  0
  -23.4196  -28.8175   23.3006 O   0  0  0  0  0  0
  -28.3648  -26.5671   20.1596 O   0  0  0  0  0  0
  -26.5600  -34.8920   22.4678 O   0  0  0  0  0  0
  -23.5393  -32.1416   23.7435 O   0  0  0  0  0  0
  -29.9427  -17.0084   20.3659 C   0  0  0  0  0  0
  -30.2398  -18.1042   21.4380 C   0  0  0  0  0  0
  -28.2075  -25.1343   19.9110 C   0  0  0  0  0  0
  -29.2662  -24.1793   20.5573 C   0  0  0  0  0  0
  -29.9175  -20.3642   20.4052 C   0  0  0  0  0  0
  -29.8174  -21.8260   20.9840 C   0  0  0  0  0  0
  -29.8654  -15.6054   20.8638 N   0  0  0  0  0  0
  -29.4912  -19.3441   21.3363 O   0  0  0  0  0  0
  -29.0968  -22.7873   20.1739 O   0  0  0  0  0  0
  -31.4781  -12.4560   19.1472 H   0  0  0  0  0  0
  -30.3514  -11.3425   19.8699 H   0  0  0  0  0  0
  -29.7587  -11.7587   17.4631 H   0  0  0  0  0  0
  -29.6633  -13.4758   17.7598 H   0  0  0  0  0  0
  -27.8494  -11.2980   18.8472 H   0  0  0  0  0  0
  -27.3765  -12.6041   17.7933 H   0  0  0  0  0  0
  -27.6900  -14.2503   19.5482 H   0  0  0  0  0  0
  -28.6939  -12.0094   21.3754 H   0  0  0  0  0  0
  -28.4608  -13.6637   21.8586 H   0  0  0  0  0  0
  -25.2760   -9.5685   22.4755 H   0  0  0  0  0  0
  -24.0002   -7.4637   22.7472 H   0  0  0  0  0  0
  -21.0840   -8.8774   19.8954 H   0  0  0  0  0  0
  -22.3696  -10.9673   19.6164 H   0  0  0  0  0  0
  -21.2005   -7.6149   23.9717 H   0  0  0  0  0  0
  -21.1480   -6.0523   25.9077 H   0  0  0  0  0  0
  -22.0598   -2.7611   23.2847 H   0  0  0  0  0  0
  -22.4113  -11.9886   22.4785 H   0  0  0  0  0  0
  -21.1121  -13.1263   22.2609 H   0  0  0  0  0  0
  -24.6640  -15.8434   20.5187 H   0  0  0  0  0  0
  -26.2817  -15.6270   20.0812 H   0  0  0  0  0  0
  -26.7157  -32.5488   23.1142 H   0  0  0  0  0  0
  -25.0089  -33.9756   25.0468 H   0  0  0  0  0  0
  -22.7027  -31.3087   21.4110 H   0  0  0  0  0  0
  -23.3738  -35.9655   23.3305 H   0  0  0  0  0  0
  -24.3581  -36.8924   22.2051 H   0  0  0  0  0  0
  -23.7254  -37.6523   23.6652 H   0  0  0  0  0  0
  -26.0704  -31.5737   20.6015 H   0  0  0  0  0  0
  -26.8328  -30.8610   21.9934 H   0  0  0  0  0  0
  -28.1002  -29.0266   21.1935 H   0  0  0  0  0  0
  -25.9945  -25.9816   18.9532 H   0  0  0  0  0  0
  -23.9737  -27.3260   18.9946 H   0  0  0  0  0  0
  -23.7382  -30.6078   19.4073 H   0  0  0  0  0  0
  -22.7435  -29.2556   19.8597 H   0  0  0  0  0  0
  -25.1283  -36.1955   25.0825 H   0  0  0  0  0  0
  -20.9968  -28.3250   24.1416 H   0  0  0  0  0  0
  -20.5675  -26.2286   23.3609 H   0  0  0  0  0  0
  -21.6641  -26.7445   22.1203 H   0  0  0  0  0  0
  -19.6911  -25.6300   21.1234 H   0  0  0  0  0  0
  -19.6685  -27.3205   20.6752 H   0  0  0  0  0  0
  -17.4196  -26.6671   21.4025 H   0  0  0  0  0  0
  -18.0322  -26.0066   22.9016 H   0  0  0  0  0  0
  -19.7933  -30.7257   24.2281 H   0  0  0  0  0  0
  -17.5015  -31.6265   24.5168 H   0  0  0  0  0  0
  -15.5351  -30.2995   23.7644 H   0  0  0  0  0  0
  -15.8663  -28.0830   22.7056 H   0  0  0  0  0  0
  -24.5923  -30.7058   25.7824 H   0  0  0  0  0  0
  -24.8950  -32.2878   26.4917 H   0  0  0  0  0  0
  -25.8105  -30.8896   27.0238 H   0  0  0  0  0  0
  -26.2885  -29.6782   24.1174 H   0  0  0  0  0  0
  -27.4053  -29.7258   25.4624 H   0  0  0  0  0  0
  -27.8744  -30.4323   23.9335 H   0  0  0  0  0  0
  -27.2656  -33.3602   26.2106 H   0  0  0  0  0  0
  -28.3859  -32.6902   25.0339 H   0  0  0  0  0  0
  -28.0726  -31.8432   26.5410 H   0  0  0  0  0  0
  -28.2595  -38.0105   24.7496 H   0  0  0  0  0  0
  -28.1067  -36.2633   24.6297 H   0  0  0  0  0  0
  -27.2294  -37.1473   25.8868 H   0  0  0  0  0  0
  -20.9327  -29.8783   21.6941 H   0  0  0  0  0  0
  -26.0170  -38.2861   24.1406 H   0  0  0  0  0  0
  -30.6541  -17.0949   19.5428 H   0  0  0  0  0  0
  -28.9678  -17.2228   19.9266 H   0  0  0  0  0  0
  -31.3103  -18.3080   21.4926 H   0  0  0  0  0  0
  -29.9771  -17.6939   22.4136 H   0  0  0  0  0  0
  -27.2444  -24.7911   20.2910 H   0  0  0  0  0  0
  -28.1973  -24.9789   18.8314 H   0  0  0  0  0  0
  -29.1932  -24.2677   21.6418 H   0  0  0  0  0  0
  -30.2711  -24.5014   20.2815 H   0  0  0  0  0  0
  -30.9434  -20.1789   20.0829 H   0  0  0  0  0  0
  -29.3018  -20.2769   19.5094 H   0  0  0  0  0  0
  -30.8295  -22.1951   21.1586 H   0  0  0  0  0  0
  -29.3415  -21.7928   21.9649 H   0  0  0  0  0  0
  -28.9732  -15.3399   21.2544 H   0  0  0  0  0  0
  1 25  1  0  0  0
  1 30  2  0  0  0
  1 77  1  0  0  0
  2  3  1  0  0  0
  2 25  1  0  0  0
  2 80  1  0  0  0
  2 81  1  0  0  0
  3  4  1  0  0  0
  3 82  1  0  0  0
  3 83  1  0  0  0
  4  5  1  0  0  0
  4 84  1  0  0  0
  4 85  1  0  0  0
  5  6  1  0  0  0
  5 26  1  0  0  0
  5 86  1  0  0  0
  6 25  1  0  0  0
  6 87  1  0  0  0
  6 88  1  0  0  0
  7  8  2  0  0  0
  7 26  1  0  0  0
  7 29  1  0  0  0
  8  9  1  0  0  0
  8 22  1  0  0  0
  9 10  1  0  0  0
  9 27  2  0  0  0
 10 11  2  0  0  0
 10 15  1  0  0  0
 11 12  1  0  0  0
 11 89  1  0  0  0
 12 13  2  0  0  0
 12 90  1  0  0  0
 13 14  1  0  0  0
 13 31  1  0  0  0
 14 15  2  0  0  0
 14 91  1  0  0  0
 15 92  1  0  0  0
 16 17  2  0  0  0
 16 21  1  0  0  0
 16 31  1  0  0  0
 17 18  1  0  0  0
 17 93  1  0  0  0
 18 19  2  0  0  0
 18 94  1  0  0  0
 19 20  1  0  0  0
 19 24  1  0  0  0
 20 21  2  0  0  0
 20 95  1  0  0  0
 21 23  1  0  0  0
 22 28  1  0  0  0
 22 32  2  0  0  0
 26 27  1  0  0  0
 28 96  1  0  0  0
 28 97  1  0  0  0
 29 98  1  0  0  0
 29 99  1  0  0  0
 33 34  1  0  0  0
 33 66  1  0  0  0
 33 70  2  0  0  0
 34 36  1  0  0  0
 34 59  1  0  0  0
 34100  1  0  0  0
 35 44  2  0  0  0
 35 45  1  0  0  0
 35 68  1  0  0  0
 36 56  1  0  0  0
 36101  1  0  0  0
 37 39  1  0  0  0
 37 47  1  0  0  0
 37 66  1  0  0  0
 37102  1  0  0  0
 38 43  2  0  0  0
 38 46  1  0  0  0
 38 47  1  0  0  0
 39 64  1  0  0  0
 39 67  2  0  0  0
 40 52  1  0  0  0
 40 53  2  0  0  0
 40 58  1  0  0  0
 41103  1  0  0  0
 41104  1  0  0  0
 41105  1  0  0  0
 41 48  1  0  0  0
 42 43  1  0  0  0
 42 66  1  0  0  0
 42106  1  0  0  0
 42107  1  0  0  0
 43 44  1  0  0  0
 44108  1  0  0  0
 45 46  2  0  0  0
 45109  1  0  0  0
 46110  1  0  0  0
 47111  1  0  0  0
 47112  1  0  0  0
 48 56  1  0  0  0
 48 65  1  0  0  0
 48113  1  0  0  0
 49 50  1  0  0  0
 49 53  1  0  0  0
 49 64  1  0  0  0
 49114  1  0  0  0
 50 51  1  0  0  0
 50115  1  0  0  0
 50116  1  0  0  0
 51 52  1  0  0  0
 51117  1  0  0  0
 51118  1  0  0  0
 52119  1  0  0  0
 52120  1  0  0  0
 53 54  1  0  0  0
 54 55  2  0  0  0
 54121  1  0  0  0
 55 57  1  0  0  0
 55122  1  0  0  0
 56 69  2  0  0  0
 57 58  2  0  0  0
 57123  1  0  0  0
 58124  1  0  0  0
 59 60  1  0  0  0
 59 61  1  0  0  0
 59 62  1  0  0  0
 60125  1  0  0  0
 60126  1  0  0  0
 60127  1  0  0  0
 61128  1  0  0  0
 61129  1  0  0  0
 61130  1  0  0  0
 62131  1  0  0  0
 62132  1  0  0  0
 62133  1  0  0  0
 63 65  1  0  0  0
 63134  1  0  0  0
 63135  1  0  0  0
 63136  1  0  0  0
 64137  1  0  0  0
 65138  1  0  0  0
 68 73  1  0  0  0
 71 72  1  0  0  0
 71 77  1  0  0  0
 71139  1  0  0  0
 71140  1  0  0  0
 72 78  1  0  0  0
 72141  1  0  0  0
 72142  1  0  0  0
 73 74  1  0  0  0
 73143  1  0  0  0
 73144  1  0  0  0
 74 79  1  0  0  0
 74145  1  0  0  0
 74146  1  0  0  0
 75 76  1  0  0  0
 75 78  1  0  0  0
 75147  1  0  0  0
 75148  1  0  0  0
 76 79  1  0  0  0
 76149  1  0  0  0
 76150  1  0  0  0
 77151  1  0  0  0
M  ISO  4   1 100  68 101  73 101  77 100
M  END
> <chiral flag>
0

> <version>
0

> <s_m_source_file>
/data/baiqing/PycharmProjects/Reinvent-master-3.2/result/LINK_invent/BTK/process_docking_weight1_custom_sum_contain_oxygen_bond_distance_aromatic_linkinvent_7_9_3/rearranged_h_0000.sdf

> <i_m_source_file_index>
1

> <r_mmod_Potential_Energy-OPLS-2005>
-33.6661491394043

> <r_mmod_Stretch_Energy-OPLS-2005>
54.1415176391602

> <r_mmod_Bend_Energy-OPLS-2005>
117.664672851562

> <r_mmod_Torsional_Energy-OPLS-2005>
224.785095214844

> <r_mmod_Improper_Torsional_Energy-OPLS-2005>
6.75608205795288

> <r_mmod_Van_der_Waal_Energy-OPLS-2005>
133.051956176758

> <r_mmod_Electrostatic_Energy-OPLS-2005>
-384.544891357422

> <r_mmod_Solvation_Energy-OPLS-2005>
-214.149185180664

> <b_mmod_Minimization_Converged-OPLS-2005>
0

> <r_mmod_RMS_Derivative-OPLS-2005>
0.78693014383316

$$$$
1
                    3D
 Structure written by MMmdl.
151159  0  0  1  0            999 V2000
  -30.5843  -14.6338   20.5631 C   0  0  0  0  0  0
  -30.4437  -12.4089   19.4612 C   0  0  0  0  0  0
  -29.5086  -12.5255   18.2361 C   0  0  0  0  0  0
  -28.0319  -12.3477   18.6416 C   0  0  0  0  0  0
  -27.6524  -13.2082   19.8770 C   0  0  2  0  0  0
  -28.6850  -13.0313   21.0111 C   0  0  0  0  0  0
  -25.2523  -13.8165   20.5602 C   0  0  0  0  0  0
  -24.1778  -13.0460   20.9153 C   0  0  0  0  0  0
  -24.6340  -11.6928   20.8728 C   0  0  0  0  0  0
  -23.8998  -10.4323   21.0394 C   0  0  0  0  0  0
  -24.3587   -9.4260   21.9175 C   0  0  0  0  0  0
  -23.6300   -8.2266   22.0740 C   0  0  0  0  0  0
  -22.4280   -8.0288   21.3539 C   0  0  0  0  0  0
  -21.9894   -9.0241   20.4633 C   0  0  0  0  0  0
  -22.7164  -10.2147   20.3054 C   0  0  0  0  0  0
  -21.6857   -6.0751   22.5268 C   0  0  0  0  0  0
  -21.4002   -6.5656   23.8199 C   0  0  0  0  0  0
  -21.3675   -5.6802   24.9159 C   0  0  0  0  0  0
  -21.6043   -4.3058   24.7202 C   0  0  0  0  0  0
  -21.8828   -3.8166   23.4318 C   0  0  0  0  0  0
  -21.9202   -4.6991   22.3377 C   0  0  0  0  0  0
  -22.7812  -13.5268   21.1850 C   0  0  0  0  0  0
  -22.1661   -4.2169   21.0960 F   0  0  0  0  0  0
  -21.5662   -3.4555   25.7717 F   0  0  0  0  0  0
  -30.0066  -13.3965   20.4709 N   0  0  0  0  0  0
  -26.2951  -12.9318   20.3330 N   0  0  0  0  0  0
  -25.9260  -11.6481   20.5740 N   0  0  0  0  0  0
  -22.0452  -12.8252   22.0420 N   0  0  0  0  0  0
  -25.4271  -15.1882   20.3951 N   0  0  0  0  0  0
  -31.7055  -14.8548   20.0846 O   0  0  0  0  0  0
  -21.6664   -6.8882   21.4213 O   0  0  0  0  0  0
  -22.3490  -14.5588   20.6730 O   0  0  0  0  0  0
  -24.6303  -31.8573   23.2040 C   0  0  0  0  0  0
  -25.9134  -32.4772   23.8338 C   0  0  1  0  0  0
  -27.1765  -27.2989   20.1324 C   0  0  0  0  0  0
  -25.5951  -33.8576   24.2284 N   0  0  0  0  0  0
  -23.4198  -30.4942   21.5428 C   0  0  2  0  0  0
  -24.8616  -28.9667   20.0883 C   0  0  0  0  0  0
  -22.7531  -29.4616   22.4824 C   0  0  0  0  0  0
  -18.0314  -28.1404   22.8455 C   0  0  0  0  0  0
  -24.1496  -36.7257   23.2646 C   0  0  0  0  0  0
  -25.9681  -30.7878   21.3768 C   0  0  0  0  0  0
  -26.0315  -29.4208   20.7134 C   0  0  0  0  0  0
  -27.1977  -28.5972   20.7216 C   0  0  0  0  0  0
  -26.0042  -26.9166   19.4454 C   0  0  0  0  0  0
  -24.8575  -27.7266   19.4346 C   0  0  0  0  0  0
  -23.6322  -29.8481   20.1506 C   0  0  0  0  0  0
  -25.4085  -36.3063   24.0361 C   0  0  1  0  0  0
  -20.5926  -28.3660   23.1263 C   0  0  2  0  0  0
  -20.6808  -26.9363   22.5399 C   0  0  0  0  0  0
  -19.5772  -26.6360   21.5224 C   0  0  0  0  0  0
  -18.1953  -26.7944   22.1629 C   0  0  0  0  0  0
  -19.1580  -28.8839   23.2896 C   0  0  0  0  0  0
  -18.9484  -30.1441   23.8888 C   0  0  0  0  0  0
  -17.6487  -30.6571   24.0553 C   0  0  0  0  0  0
  -25.9017  -34.9446   23.5113 C   0  0  0  0  0  0
  -16.5378  -29.9052   23.6355 C   0  0  0  0  0  0
  -16.7312  -28.6520   23.0308 C   0  0  0  0  0  0
  -26.4508  -31.6596   25.0729 C   0  0  0  0  0  0
  -25.3733  -31.3794   26.1459 C   0  0  0  0  0  0
  -27.0326  -30.3021   24.6158 C   0  0  0  0  0  0
  -27.6073  -32.4333   25.7482 C   0  0  0  0  0  0
  -27.5573  -37.1759   24.8477 C   0  0  0  0  0  0
  -21.4219  -29.3044   22.3639 N   0  0  0  0  0  0
  -26.4288  -37.3725   23.9432 N   0  0  0  0  0  0
  -24.6932  -31.0610   22.0995 N   0  0  0  0  0  0
  -23.4280  -28.8093   23.2835 O   0  0  0  0  0  0
  -28.2315  -26.3837   20.2120 O   0  0  0  0  0  0
  -26.5562  -34.8918   22.4668 O   0  0  0  0  0  0
  -23.5458  -32.1389   23.7357 O   0  0  0  0  0  0
  -30.0384  -19.1201   19.5638 C   0  0  0  0  0  0
  -30.3024  -17.7390   19.8143 C   0  0  0  0  0  0
  -28.4075  -19.1616   21.3301 C   0  0  0  0  0  0
  -29.0711  -19.8669   20.2969 C   0  0  0  0  0  0
  -29.6381  -17.0352   20.8537 C   0  0  0  0  0  0
  -28.6856  -17.7854   21.6072 C   0  0  0  0  0  0
  -28.6519  -21.3079   19.8185 C   0  0  0  0  0  0
  -27.8817  -25.0281   20.7304 C   0  0  0  0  0  0
  -28.6963  -23.7723   20.1974 C   0  0  0  0  0  0
  -29.8194  -15.6094   21.1416 N   0  0  0  0  0  0
  -28.4873  -22.4223   20.7689 O   0  0  0  0  0  0
  -27.7837  -17.0014   22.8589 Cl  0  0  0  0  0  0
  -31.4758  -12.5728   19.1486 H   0  0  0  0  0  0
  -30.4208  -11.4000   19.8784 H   0  0  0  0  0  0
  -29.7759  -11.7816   17.4857 H   0  0  0  0  0  0
  -29.6374  -13.5008   17.7660 H   0  0  0  0  0  0
  -27.8717  -11.2888   18.8588 H   0  0  0  0  0  0
  -27.3760  -12.5856   17.8017 H   0  0  0  0  0  0
  -27.6815  -14.2499   19.5547 H   0  0  0  0  0  0
  -28.6973  -11.9977   21.3616 H   0  0  0  0  0  0
  -28.4042  -13.6294   21.8788 H   0  0  0  0  0  0
  -25.2728   -9.5797   22.4750 H   0  0  0  0  0  0
  -24.0055   -7.4669   22.7460 H   0  0  0  0  0  0
  -21.0844   -8.8718   19.8926 H   0  0  0  0  0  0
  -22.3575  -10.9696   19.6196 H   0  0  0  0  0  0
  -21.1956   -7.6149   23.9686 H   0  0  0  0  0  0
  -21.1488   -6.0538   25.9058 H   0  0  0  0  0  0
  -22.0594   -2.7623   23.2795 H   0  0  0  0  0  0
  -22.4066  -11.9909   22.4787 H   0  0  0  0  0  0
  -21.1071  -13.1284   22.2638 H   0  0  0  0  0  0
  -24.6651  -15.8485   20.5019 H   0  0  0  0  0  0
  -26.2870  -15.6257   20.0899 H   0  0  0  0  0  0
  -26.7177  -32.5409   23.1061 H   0  0  0  0  0  0
  -25.0251  -33.9727   25.0539 H   0  0  0  0  0  0
  -22.7136  -31.3167   21.4044 H   0  0  0  0  0  0
  -23.3796  -35.9575   23.3308 H   0  0  0  0  0  0
  -24.3608  -36.8856   22.2070 H   0  0  0  0  0  0
  -23.7256  -37.6462   23.6646 H   0  0  0  0  0  0
  -26.1058  -31.5504   20.6082 H   0  0  0  0  0  0
  -26.8505  -30.8263   22.0033 H   0  0  0  0  0  0
  -28.0984  -28.9322   21.2149 H   0  0  0  0  0  0
  -25.9612  -25.9723   18.9213 H   0  0  0  0  0  0
  -23.9683  -27.3938   18.9173 H   0  0  0  0  0  0
  -23.7456  -30.6324   19.4027 H   0  0  0  0  0  0
  -22.7510  -29.2828   19.8428 H   0  0  0  0  0  0
  -25.1274  -36.1902   25.0860 H   0  0  0  0  0  0
  -21.0056  -28.3203   24.1371 H   0  0  0  0  0  0
  -20.5747  -26.2221   23.3564 H   0  0  0  0  0  0
  -21.6645  -26.7383   22.1115 H   0  0  0  0  0  0
  -19.6927  -25.6287   21.1203 H   0  0  0  0  0  0
  -19.6752  -27.3212   20.6783 H   0  0  0  0  0  0
  -17.4221  -26.6740   21.4031 H   0  0  0  0  0  0
  -18.0302  -26.0096   22.9016 H   0  0  0  0  0  0
  -19.7962  -30.7287   24.2236 H   0  0  0  0  0  0
  -17.5029  -31.6252   24.5138 H   0  0  0  0  0  0
  -15.5379  -30.2938   23.7690 H   0  0  0  0  0  0
  -15.8721  -28.0849   22.6956 H   0  0  0  0  0  0
  -24.5895  -30.7135   25.7786 H   0  0  0  0  0  0
  -24.8934  -32.3012   26.4783 H   0  0  0  0  0  0
  -25.8021  -30.9033   27.0283 H   0  0  0  0  0  0
  -26.2858  -29.6794   24.1191 H   0  0  0  0  0  0
  -27.4088  -29.7232   25.4596 H   0  0  0  0  0  0
  -27.8717  -30.4338   23.9313 H   0  0  0  0  0  0
  -27.2698  -33.3659   26.2010 H   0  0  0  0  0  0
  -28.3887  -32.6868   25.0296 H   0  0  0  0  0  0
  -28.0745  -31.8526   26.5426 H   0  0  0  0  0  0
  -28.2538  -38.0091   24.7453 H   0  0  0  0  0  0
  -28.1111  -36.2603   24.6340 H   0  0  0  0  0  0
  -27.2310  -37.1422   25.8892 H   0  0  0  0  0  0
  -20.9369  -29.8757   21.6859 H   0  0  0  0  0  0
  -26.0190  -38.2818   24.1424 H   0  0  0  0  0  0
  -30.5625  -19.5998   18.7490 H   0  0  0  0  0  0
  -30.9981  -17.2161   19.1702 H   0  0  0  0  0  0
  -27.6376  -19.6687   21.8917 H   0  0  0  0  0  0
  -27.6928  -21.1852   19.3048 H   0  0  0  0  0  0
  -29.3634  -21.5932   19.0406 H   0  0  0  0  0  0
  -27.9591  -25.0809   21.8181 H   0  0  0  0  0  0
  -26.8289  -24.7918   20.5631 H   0  0  0  0  0  0
  -29.7586  -23.9848   20.3089 H   0  0  0  0  0  0
  -28.4896  -23.7214   19.1306 H   0  0  0  0  0  0
  -29.1012  -15.2409   21.7496 H   0  0  0  0  0  0
  1 25  1  0  0  0
  1 30  2  0  0  0
  1 80  1  0  0  0
  2  3  1  0  0  0
  2 25  1  0  0  0
  2 83  1  0  0  0
  2 84  1  0  0  0
  3  4  1  0  0  0
  3 85  1  0  0  0
  3 86  1  0  0  0
  4  5  1  0  0  0
  4 87  1  0  0  0
  4 88  1  0  0  0
  5  6  1  0  0  0
  5 26  1  0  0  0
  5 89  1  0  0  0
  6 25  1  0  0  0
  6 90  1  0  0  0
  6 91  1  0  0  0
  7  8  2  0  0  0
  7 26  1  0  0  0
  7 29  1  0  0  0
  8  9  1  0  0  0
  8 22  1  0  0  0
  9 10  1  0  0  0
  9 27  2  0  0  0
 10 11  2  0  0  0
 10 15  1  0  0  0
 11 12  1  0  0  0
 11 92  1  0  0  0
 12 13  2  0  0  0
 12 93  1  0  0  0
 13 14  1  0  0  0
 13 31  1  0  0  0
 14 15  2  0  0  0
 14 94  1  0  0  0
 15 95  1  0  0  0
 16 17  2  0  0  0
 16 21  1  0  0  0
 16 31  1  0  0  0
 17 18  1  0  0  0
 17 96  1  0  0  0
 18 19  2  0  0  0
 18 97  1  0  0  0
 19 20  1  0  0  0
 19 24  1  0  0  0
 20 21  2  0  0  0
 20 98  1  0  0  0
 21 23  1  0  0  0
 22 28  1  0  0  0
 22 32  2  0  0  0
 26 27  1  0  0  0
 28 99  1  0  0  0
 28100  1  0  0  0
 29101  1  0  0  0
 29102  1  0  0  0
 33 34  1  0  0  0
 33 66  1  0  0  0
 33 70  2  0  0  0
 34 36  1  0  0  0
 34 59  1  0  0  0
 34103  1  0  0  0
 35 44  2  0  0  0
 35 45  1  0  0  0
 35 68  1  0  0  0
 36 56  1  0  0  0
 36104  1  0  0  0
 37 39  1  0  0  0
 37 47  1  0  0  0
 37 66  1  0  0  0
 37105  1  0  0  0
 38 43  2  0  0  0
 38 46  1  0  0  0
 38 47  1  0  0  0
 39 64  1  0  0  0
 39 67  2  0  0  0
 40 52  1  0  0  0
 40 53  2  0  0  0
 40 58  1  0  0  0
 41106  1  0  0  0
 41107  1  0  0  0
 41108  1  0  0  0
 41 48  1  0  0  0
 42 43  1  0  0  0
 42 66  1  0  0  0
 42109  1  0  0  0
 42110  1  0  0  0
 43 44  1  0  0  0
 44111  1  0  0  0
 45 46  2  0  0  0
 45112  1  0  0  0
 46113  1  0  0  0
 47114  1  0  0  0
 47115  1  0  0  0
 48 56  1  0  0  0
 48 65  1  0  0  0
 48116  1  0  0  0
 49 50  1  0  0  0
 49 53  1  0  0  0
 49 64  1  0  0  0
 49117  1  0  0  0
 50 51  1  0  0  0
 50118  1  0  0  0
 50119  1  0  0  0
 51 52  1  0  0  0
 51120  1  0  0  0
 51121  1  0  0  0
 52122  1  0  0  0
 52123  1  0  0  0
 53 54  1  0  0  0
 54 55  2  0  0  0
 54124  1  0  0  0
 55 57  1  0  0  0
 55125  1  0  0  0
 56 69  2  0  0  0
 57 58  2  0  0  0
 57126  1  0  0  0
 58127  1  0  0  0
 59 60  1  0  0  0
 59 61  1  0  0  0
 59 62  1  0  0  0
 60128  1  0  0  0
 60129  1  0  0  0
 60130  1  0  0  0
 61131  1  0  0  0
 61132  1  0  0  0
 61133  1  0  0  0
 62134  1  0  0  0
 62135  1  0  0  0
 62136  1  0  0  0
 63 65  1  0  0  0
 63137  1  0  0  0
 63138  1  0  0  0
 63139  1  0  0  0
 64140  1  0  0  0
 65141  1  0  0  0
 68 78  1  0  0  0
 71 72  2  0  0  0
 71 74  1  0  0  0
 71142  1  0  0  0
 72 75  1  0  0  0
 72143  1  0  0  0
 73 74  2  0  0  0
 73 76  1  0  0  0
 73144  1  0  0  0
 74 77  1  0  0  0
 75 76  2  0  0  0
 75 80  1  0  0  0
 76 82  1  0  0  0
 77 81  1  0  0  0
 77145  1  0  0  0
 77146  1  0  0  0
 78 79  1  0  0  0
 78147  1  0  0  0
 78148  1  0  0  0
 79 81  1  0  0  0
 79149  1  0  0  0
 79150  1  0  0  0
 80151  1  0  0  0
M  ISO  4   1 100  68 101  78 101  80 100
M  END
> <chiral flag>
0

> <version>
0

> <s_m_source_file>
/data/baiqing/PycharmProjects/Reinvent-master-3.2/result/LINK_invent/BTK/process_docking_weight1_custom_sum_contain_oxygen_bond_distance_aromatic_linkinvent_7_9_3/rearranged_h_0000.sdf

> <i_m_source_file_index>
2

> <r_mmod_Potential_Energy-OPLS-2005>
83.4438781738281

> <r_mmod_Stretch_Energy-OPLS-2005>
82.8864440917969

> <r_mmod_Bend_Energy-OPLS-2005>
137.469818115234

> <r_mmod_Torsional_Energy-OPLS-2005>
250.853912353516

> <r_mmod_Improper_Torsional_Energy-OPLS-2005>
4.10828161239624

> <r_mmod_Van_der_Waal_Energy-OPLS-2005>
142.524963378906

> <r_mmod_Electrostatic_Energy-OPLS-2005>
-393.756988525391

> <r_mmod_Solvation_Energy-OPLS-2005>
-203.176483154297

> <b_mmod_Minimization_Converged-OPLS-2005>
0

> <r_mmod_RMS_Derivative-OPLS-2005>
6.75558280944824

$$$$
2
                    3D
 Structure written by MMmdl.
183192  0  0  1  0            999 V2000
  -30.8873  -14.2859   20.7713 C   0  0  0  0  0  0
  -30.4387  -12.2876   19.4024 C   0  0  0  0  0  0
  -29.5000  -12.5247   18.2087 C   0  0  0  0  0  0
  -28.0448  -12.3367   18.6551 C   0  0  0  0  0  0
  -27.7001  -13.1969   19.9009 C   0  0  2  0  0  0
  -28.7396  -12.9805   21.0282 C   0  0  0  0  0  0
  -25.2836  -13.8155   20.5830 C   0  0  0  0  0  0
  -24.2017  -13.0439   20.9305 C   0  0  0  0  0  0
  -24.6520  -11.6923   20.8896 C   0  0  0  0  0  0
  -23.9122  -10.4320   21.0590 C   0  0  0  0  0  0
  -24.3656   -9.4194   21.9325 C   0  0  0  0  0  0
  -23.6425   -8.2106   22.0607 C   0  0  0  0  0  0
  -22.4378   -8.0233   21.3459 C   0  0  0  0  0  0
  -22.0050   -9.0254   20.4632 C   0  0  0  0  0  0
  -22.7325  -10.2203   20.3174 C   0  0  0  0  0  0
  -21.6914   -6.0720   22.5205 C   0  0  0  0  0  0
  -21.4008   -6.5590   23.8146 C   0  0  0  0  0  0
  -21.3722   -5.6721   24.9099 C   0  0  0  0  0  0
  -21.6102   -4.2981   24.7163 C   0  0  0  0  0  0
  -21.8884   -3.8106   23.4258 C   0  0  0  0  0  0
  -21.9253   -4.6966   22.3336 C   0  0  0  0  0  0
  -22.8076  -13.5339   21.2062 C   0  0  0  0  0  0
  -22.1811   -4.2165   21.0919 F   0  0  0  0  0  0
  -21.5707   -3.4451   25.7671 F   0  0  0  0  0  0
  -30.1003  -13.2126   20.4955 N   0  0  0  0  0  0
  -26.3323  -12.9291   20.3612 N   0  0  0  0  0  0
  -25.9469  -11.6473   20.5957 N   0  0  0  0  0  0
  -22.0818  -12.8525   22.0877 N   0  0  0  0  0  0
  -25.4640  -15.1822   20.4196 N   0  0  0  0  0  0
  -31.7311  -14.7209   19.9853 O   0  0  0  0  0  0
  -21.6693   -6.8857   21.4139 O   0  0  0  0  0  0
  -22.3719  -14.5580   20.6831 O   0  0  0  0  0  0
  -24.6083  -31.8712   23.2134 C   0  0  0  0  0  0
  -25.8996  -32.4832   23.8402 C   0  0  1  0  0  0
  -27.2379  -27.4823   20.0869 C   0  0  0  0  0  0
  -25.5880  -33.8639   24.2334 N   0  0  0  0  0  0
  -23.3924  -30.4926   21.5547 C   0  0  2  0  0  0
  -24.8401  -28.9616   20.1183 C   0  0  0  0  0  0
  -22.7365  -29.4652   22.5031 C   0  0  0  0  0  0
  -18.0254  -28.1344   22.8505 C   0  0  0  0  0  0
  -24.1487  -36.7328   23.2634 C   0  0  0  0  0  0
  -25.9148  -30.8467   21.3632 C   0  0  0  0  0  0
  -25.9930  -29.4819   20.7194 C   0  0  0  0  0  0
  -27.1923  -28.7415   20.7186 C   0  0  0  0  0  0
  -26.0669  -26.9492   19.5104 C   0  0  0  0  0  0
  -24.8670  -27.6893   19.5185 C   0  0  0  0  0  0
  -23.5961  -29.8218   20.1694 C   0  0  0  0  0  0
  -25.4103  -36.3125   24.0334 C   0  0  1  0  0  0
  -20.5842  -28.3616   23.1345 C   0  0  2  0  0  0
  -20.6745  -26.9363   22.5418 C   0  0  0  0  0  0
  -19.5726  -26.6366   21.5209 C   0  0  0  0  0  0
  -18.1906  -26.7893   22.1628 C   0  0  0  0  0  0
  -19.1505  -28.8797   23.2925 C   0  0  0  0  0  0
  -18.9439  -30.1415   23.8917 C   0  0  0  0  0  0
  -17.6446  -30.6571   24.0551 C   0  0  0  0  0  0
  -25.9028  -34.9487   23.5129 C   0  0  0  0  0  0
  -16.5332  -29.9068   23.6323 C   0  0  0  0  0  0
  -16.7246  -28.6474   23.0356 C   0  0  0  0  0  0
  -26.4458  -31.6603   25.0714 C   0  0  0  0  0  0
  -25.3748  -31.3691   26.1476 C   0  0  0  0  0  0
  -27.0272  -30.3047   24.6051 C   0  0  0  0  0  0
  -27.6030  -32.4322   25.7467 C   0  0  0  0  0  0
  -27.5583  -37.1809   24.8462 C   0  0  0  0  0  0
  -21.4107  -29.3001   22.3763 N   0  0  0  0  0  0
  -26.4297  -37.3797   23.9409 N   0  0  0  0  0  0
  -24.6548  -31.0841   22.1016 N   0  0  0  0  0  0
  -23.4163  -28.8213   23.3066 O   0  0  0  0  0  0
  -28.3921  -26.7416   20.0659 O   0  0  0  0  0  0
  -26.5591  -34.8932   22.4693 O   0  0  0  0  0  0
  -23.5287  -32.1455   23.7554 O   0  0  0  0  0  0
  -24.6944  -19.4848   20.1459 C   0  0  0  0  0  0
  -26.9151  -19.7471   21.1183 C   0  0  0  0  0  0
  -26.8757  -17.3562   25.5341 C   0  0  0  0  0  0
  -25.5998  -15.9898   23.9765 C   0  0  0  0  0  0
  -25.1482  -20.1186   18.9696 C   0  0  0  0  0  0
  -27.3766  -20.3101   19.9216 C   0  0  0  0  0  0
  -27.4763  -16.1901   26.0524 C   0  0  0  0  0  0
  -26.1969  -14.8281   24.4908 C   0  0  0  0  0  0
  -25.5911  -19.2747   21.2147 C   0  0  0  0  0  0
  -26.0182  -17.2624   24.4139 C   0  0  0  0  0  0
  -26.5002  -20.5050   18.8327 C   0  0  0  0  0  0
  -27.2274  -14.9356   25.4374 C   0  0  0  0  0  0
  -25.2841  -18.3679   22.3124 C   0  0  0  0  0  0
  -25.8482  -18.4292   23.5366 C   0  0  0  0  0  0
  -29.3724  -27.0510   19.1844 C   0  0  0  0  0  0
  -30.4976  -26.0131   19.1469 C   0  0  0  0  0  0
  -30.0157  -24.5546   19.2395 C   0  0  0  0  0  0
  -29.0180  -24.1403   18.1406 C   0  0  0  0  0  0
  -28.6099  -22.6790   18.3095 C   0  0  0  0  0  0
  -29.9604  -14.9030   24.3316 C   0  0  0  0  0  0
  -30.7497  -14.1025   23.2767 C   0  0  0  0  0  0
  -27.3823  -22.2791   17.4738 C   0  0  0  0  0  0
  -29.4587  -14.1041   25.5737 C   0  0  0  0  0  0
  -30.8069  -14.8264   21.9968 N   0  0  0  0  0  0
  -29.4000  -28.0396   18.4477 O   0  0  0  0  0  0
  -26.9745  -20.9183   17.6099 O   0  0  0  0  0  0
  -28.0470  -13.8442   25.6030 O   0  0  0  0  0  0
  -31.4785  -12.3911   19.0804 H   0  0  0  0  0  0
  -30.3486  -11.2647   19.7666 H   0  0  0  0  0  0
  -29.7458  -11.8398   17.3941 H   0  0  0  0  0  0
  -29.6605  -13.5262   17.8073 H   0  0  0  0  0  0
  -27.9057  -11.2767   18.8863 H   0  0  0  0  0  0
  -27.3723  -12.5825   17.8372 H   0  0  0  0  0  0
  -27.7673  -14.2446   19.5985 H   0  0  0  0  0  0
  -28.6936  -11.9662   21.4316 H   0  0  0  0  0  0
  -28.4889  -13.6451   21.8591 H   0  0  0  0  0  0
  -25.2732   -9.5670   22.5067 H   0  0  0  0  0  0
  -24.0303   -7.4302   22.7036 H   0  0  0  0  0  0
  -21.1102   -8.8633   19.8828 H   0  0  0  0  0  0
  -22.3839  -10.9696   19.6194 H   0  0  0  0  0  0
  -21.1874   -7.6067   23.9606 H   0  0  0  0  0  0
  -21.1657   -6.0471   25.9016 H   0  0  0  0  0  0
  -22.0720   -2.7601   23.2716 H   0  0  0  0  0  0
  -22.4315  -12.0167   22.5343 H   0  0  0  0  0  0
  -21.1823  -13.2172   22.3755 H   0  0  0  0  0  0
  -24.7264  -15.8693   20.5335 H   0  0  0  0  0  0
  -26.3520  -15.5991   20.1641 H   0  0  0  0  0  0
  -26.7059  -32.5565   23.1159 H   0  0  0  0  0  0
  -25.0036  -33.9807   25.0481 H   0  0  0  0  0  0
  -22.6786  -31.3063   21.4189 H   0  0  0  0  0  0
  -23.3742  -35.9673   23.3319 H   0  0  0  0  0  0
  -24.3578  -36.8917   22.2047 H   0  0  0  0  0  0
  -23.7258  -37.6543   23.6632 H   0  0  0  0  0  0
  -26.0204  -31.6105   20.5916 H   0  0  0  0  0  0
  -26.8041  -30.9014   21.9785 H   0  0  0  0  0  0
  -28.0811  -29.1360   21.1885 H   0  0  0  0  0  0
  -26.0818  -25.9711   19.0503 H   0  0  0  0  0  0
  -23.9753  -27.2783   19.0644 H   0  0  0  0  0  0
  -23.6882  -30.5921   19.4026 H   0  0  0  0  0  0
  -22.7242  -29.2287   19.8867 H   0  0  0  0  0  0
  -25.1281  -36.1981   25.0826 H   0  0  0  0  0  0
  -20.9919  -28.3162   24.1472 H   0  0  0  0  0  0
  -20.5635  -26.2219   23.3590 H   0  0  0  0  0  0
  -21.6623  -26.7411   22.1222 H   0  0  0  0  0  0
  -19.6890  -25.6287   21.1216 H   0  0  0  0  0  0
  -19.6672  -27.3195   20.6757 H   0  0  0  0  0  0
  -17.4174  -26.6630   21.4033 H   0  0  0  0  0  0
  -18.0330  -26.0026   22.9020 H   0  0  0  0  0  0
  -19.7919  -30.7219   24.2296 H   0  0  0  0  0  0
  -17.5002  -31.6261   24.5140 H   0  0  0  0  0  0
  -15.5330  -30.2970   23.7640 H   0  0  0  0  0  0
  -15.8644  -28.0788   22.7074 H   0  0  0  0  0  0
  -24.5899  -30.7059   25.7818 H   0  0  0  0  0  0
  -24.8979  -32.2854   26.4968 H   0  0  0  0  0  0
  -25.8131  -30.8824   27.0200 H   0  0  0  0  0  0
  -26.2795  -29.6813   24.1129 H   0  0  0  0  0  0
  -27.4076  -29.7257   25.4479 H   0  0  0  0  0  0
  -27.8620  -30.4362   23.9159 H   0  0  0  0  0  0
  -27.2628  -33.3590   26.2092 H   0  0  0  0  0  0
  -28.3811  -32.6933   25.0285 H   0  0  0  0  0  0
  -28.0731  -31.8430   26.5345 H   0  0  0  0  0  0
  -28.2596  -38.0108   24.7520 H   0  0  0  0  0  0
  -28.1080  -36.2643   24.6274 H   0  0  0  0  0  0
  -27.2304  -37.1448   25.8864 H   0  0  0  0  0  0
  -20.9235  -29.8725   21.7007 H   0  0  0  0  0  0
  -26.0188  -38.2869   24.1426 H   0  0  0  0  0  0
  -23.6896  -19.0798   20.1887 H   0  0  0  0  0  0
  -27.6329  -19.5479   21.9056 H   0  0  0  0  0  0
  -27.2010  -18.3187   25.9042 H   0  0  0  0  0  0
  -24.9609  -15.8569   23.1214 H   0  0  0  0  0  0
  -24.4755  -20.2378   18.1338 H   0  0  0  0  0  0
  -28.4308  -20.5162   19.8453 H   0  0  0  0  0  0
  -28.2284  -16.2884   26.8237 H   0  0  0  0  0  0
  -25.9595  -13.8758   24.0393 H   0  0  0  0  0  0
  -24.6971  -17.5205   22.0033 H   0  0  0  0  0  0
  -26.3214  -19.3446   23.8670 H   0  0  0  0  0  0
  -31.2020  -26.2258   19.9519 H   0  0  0  0  0  0
  -31.0415  -26.1494   18.2132 H   0  0  0  0  0  0
  -29.5787  -24.3802   20.2243 H   0  0  0  0  0  0
  -30.8810  -23.8949   19.1915 H   0  0  0  0  0  0
  -29.4496  -24.3056   17.1514 H   0  0  0  0  0  0
  -28.1213  -24.7596   18.1971 H   0  0  0  0  0  0
  -28.3792  -22.5661   19.3658 H   0  0  0  0  0  0
  -29.4559  -22.0284   18.0833 H   0  0  0  0  0  0
  -29.1309  -15.3979   23.8275 H   0  0  0  0  0  0
  -30.5985  -15.7134   24.6930 H   0  0  0  0  0  0
  -30.3331  -13.1031   23.1313 H   0  0  0  0  0  0
  -31.7721  -13.9380   23.6305 H   0  0  0  0  0  0
  -27.6258  -22.4191   16.4201 H   0  0  0  0  0  0
  -26.5420  -22.9416   17.6877 H   0  0  0  0  0  0
  -29.7364  -14.5952   26.5082 H   0  0  0  0  0  0
  -29.9592  -13.1346   25.6054 H   0  0  0  0  0  0
  -31.3080  -15.7040   22.0475 H   0  0  0  0  0  0
  1 25  1  0  0  0
  1 30  2  0  0  0
  1 94  1  0  0  0
  2  3  1  0  0  0
  2 25  1  0  0  0
  2 98  1  0  0  0
  2 99  1  0  0  0
  3  4  1  0  0  0
  3100  1  0  0  0
  3101  1  0  0  0
  4  5  1  0  0  0
  4102  1  0  0  0
  4103  1  0  0  0
  5  6  1  0  0  0
  5 26  1  0  0  0
  5104  1  0  0  0
  6 25  1  0  0  0
  6105  1  0  0  0
  6106  1  0  0  0
  7  8  2  0  0  0
  7 26  1  0  0  0
  7 29  1  0  0  0
  8  9  1  0  0  0
  8 22  1  0  0  0
  9 10  1  0  0  0
  9 27  2  0  0  0
 10 11  2  0  0  0
 10 15  1  0  0  0
 11 12  1  0  0  0
 11107  1  0  0  0
 12 13  2  0  0  0
 12108  1  0  0  0
 13 14  1  0  0  0
 13 31  1  0  0  0
 14 15  2  0  0  0
 14109  1  0  0  0
 15110  1  0  0  0
 16 17  2  0  0  0
 16 21  1  0  0  0
 16 31  1  0  0  0
 17 18  1  0  0  0
 17111  1  0  0  0
 18 19  2  0  0  0
 18112  1  0  0  0
 19 20  1  0  0  0
 19 24  1  0  0  0
 20 21  2  0  0  0
 20113  1  0  0  0
 21 23  1  0  0  0
 22 28  1  0  0  0
 22 32  2  0  0  0
 26 27  1  0  0  0
 28114  1  0  0  0
 28115  1  0  0  0
 29116  1  0  0  0
 29117  1  0  0  0
 33 34  1  0  0  0
 33 66  1  0  0  0
 33 70  2  0  0  0
 34 36  1  0  0  0
 34 59  1  0  0  0
 34118  1  0  0  0
 35 44  2  0  0  0
 35 45  1  0  0  0
 35 68  1  0  0  0
 36 56  1  0  0  0
 36119  1  0  0  0
 37 39  1  0  0  0
 37 47  1  0  0  0
 37 66  1  0  0  0
 37120  1  0  0  0
 38 43  2  0  0  0
 38 46  1  0  0  0
 38 47  1  0  0  0
 39 64  1  0  0  0
 39 67  2  0  0  0
 40 52  1  0  0  0
 40 53  2  0  0  0
 40 58  1  0  0  0
 41121  1  0  0  0
 41122  1  0  0  0
 41123  1  0  0  0
 41 48  1  0  0  0
 42 43  1  0  0  0
 42 66  1  0  0  0
 42124  1  0  0  0
 42125  1  0  0  0
 43 44  1  0  0  0
 44126  1  0  0  0
 45 46  2  0  0  0
 45127  1  0  0  0
 46128  1  0  0  0
 47129  1  0  0  0
 47130  1  0  0  0
 48 56  1  0  0  0
 48 65  1  0  0  0
 48131  1  0  0  0
 49 50  1  0  0  0
 49 53  1  0  0  0
 49 64  1  0  0  0
 49132  1  0  0  0
 50 51  1  0  0  0
 50133  1  0  0  0
 50134  1  0  0  0
 51 52  1  0  0  0
 51135  1  0  0  0
 51136  1  0  0  0
 52137  1  0  0  0
 52138  1  0  0  0
 53 54  1  0  0  0
 54 55  2  0  0  0
 54139  1  0  0  0
 55 57  1  0  0  0
 55140  1  0  0  0
 56 69  2  0  0  0
 57 58  2  0  0  0
 57141  1  0  0  0
 58142  1  0  0  0
 59 60  1  0  0  0
 59 61  1  0  0  0
 59 62  1  0  0  0
 60143  1  0  0  0
 60144  1  0  0  0
 60145  1  0  0  0
 61146  1  0  0  0
 61147  1  0  0  0
 61148  1  0  0  0
 62149  1  0  0  0
 62150  1  0  0  0
 62151  1  0  0  0
 63 65  1  0  0  0
 63152  1  0  0  0
 63153  1  0  0  0
 63154  1  0  0  0
 64155  1  0  0  0
 65156  1  0  0  0
 68 85  1  0  0  0
 71 75  2  0  0  0
 71 79  1  0  0  0
 71157  1  0  0  0
 72 76  1  0  0  0
 72 79  2  0  0  0
 72158  1  0  0  0
 73 77  2  0  0  0
 73 80  1  0  0  0
 73159  1  0  0  0
 74 78  1  0  0  0
 74 80  2  0  0  0
 74160  1  0  0  0
 75 81  1  0  0  0
 75161  1  0  0  0
 76 81  2  0  0  0
 76162  1  0  0  0
 77 82  1  0  0  0
 77163  1  0  0  0
 78 82  2  0  0  0
 78164  1  0  0  0
 79 83  1  0  0  0
 80 84  1  0  0  0
 81 96  1  0  0  0
 82 97  1  0  0  0
 83 84  2  0  0  0
 83165  1  0  0  0
 84166  1  0  0  0
 85 86  1  0  0  0
 85 95  2  0  0  0
 86 87  1  0  0  0
 86167  1  0  0  0
 86168  1  0  0  0
 87 88  1  0  0  0
 87169  1  0  0  0
 87170  1  0  0  0
 88 89  1  0  0  0
 88171  1  0  0  0
 88172  1  0  0  0
 89 92  1  0  0  0
 89173  1  0  0  0
 89174  1  0  0  0
 90 91  1  0  0  0
 90 93  1  0  0  0
 90175  1  0  0  0
 90176  1  0  0  0
 91 94  1  0  0  0
 91177  1  0  0  0
 91178  1  0  0  0
 92 96  1  0  0  0
 92179  1  0  0  0
 92180  1  0  0  0
 93 97  1  0  0  0
 93181  1  0  0  0
 93182  1  0  0  0
 94183  1  0  0  0
M  ISO  4   1 100  68 101  85 101  94 100
M  END
> <chiral flag>
0

> <version>
0

> <s_m_source_file>
/data/baiqing/PycharmProjects/Reinvent-master-3.2/result/LINK_invent/BTK/process_docking_weight1_custom_sum_contain_oxygen_bond_distance_aromatic_linkinvent_7_9_3/rearranged_h_0000.sdf

> <i_m_source_file_index>
3

> <r_mmod_Potential_Energy-OPLS-2005>
130.558746337891

> <r_mmod_Stretch_Energy-OPLS-2005>
37.572566986084

> <r_mmod_Bend_Energy-OPLS-2005>
114.184349060059

> <r_mmod_Torsional_Energy-OPLS-2005>
383.162078857422

> <r_mmod_Improper_Torsional_Energy-OPLS-2005>
17.5943584442139

> <r_mmod_Van_der_Waal_Energy-OPLS-2005>
173.396987915039

> <r_mmod_Electrostatic_Energy-OPLS-2005>
-391.286346435547

> <r_mmod_Solvation_Energy-OPLS-2005>
-217.868148803711

> <b_mmod_Minimization_Converged-OPLS-2005>
0

> <r_mmod_RMS_Derivative-OPLS-2005>
8.6870698928833

$$$$
3
                    3D
 Structure written by MMmdl.
179187  0  0  1  0            999 V2000
  -30.7724  -14.3817   20.6215 C   0  0  0  0  0  0
  -30.4052  -12.2724   19.4171 C   0  0  0  0  0  0
  -29.4878  -12.5321   18.2093 C   0  0  0  0  0  0
  -28.0095  -12.3987   18.6226 C   0  0  0  0  0  0
  -27.6659  -13.2200   19.8928 C   0  0  2  0  0  0
  -28.7065  -12.9669   21.0076 C   0  0  0  0  0  0
  -25.2564  -13.8221   20.5779 C   0  0  0  0  0  0
  -24.1809  -13.0458   20.9289 C   0  0  0  0  0  0
  -24.6384  -11.6947   20.8800 C   0  0  0  0  0  0
  -23.9067  -10.4312   21.0426 C   0  0  0  0  0  0
  -24.3615   -9.4216   21.9189 C   0  0  0  0  0  0
  -23.6300   -8.2240   22.0728 C   0  0  0  0  0  0
  -22.4270   -8.0290   21.3543 C   0  0  0  0  0  0
  -21.9928   -9.0268   20.4638 C   0  0  0  0  0  0
  -22.7255  -10.2153   20.3060 C   0  0  0  0  0  0
  -21.6849   -6.0756   22.5292 C   0  0  0  0  0  0
  -21.4000   -6.5648   23.8232 C   0  0  0  0  0  0
  -21.3673   -5.6790   24.9193 C   0  0  0  0  0  0
  -21.6061   -4.3058   24.7229 C   0  0  0  0  0  0
  -21.8800   -3.8162   23.4342 C   0  0  0  0  0  0
  -21.9183   -4.6989   22.3405 C   0  0  0  0  0  0
  -22.7826  -13.5255   21.1930 C   0  0  0  0  0  0
  -22.1652   -4.2179   21.0980 F   0  0  0  0  0  0
  -21.5655   -3.4526   25.7737 F   0  0  0  0  0  0
  -30.0493  -13.2419   20.4641 N   0  0  0  0  0  0
  -26.3029  -12.9416   20.3507 N   0  0  0  0  0  0
  -25.9312  -11.6557   20.5841 N   0  0  0  0  0  0
  -22.0420  -12.8244   22.0481 N   0  0  0  0  0  0
  -25.4266  -15.1909   20.4093 N   0  0  0  0  0  0
  -31.8231  -14.5784   20.0038 O   0  0  0  0  0  0
  -21.6638   -6.8886   21.4237 O   0  0  0  0  0  0
  -22.3517  -14.5548   20.6771 O   0  0  0  0  0  0
  -24.6080  -31.8704   23.2103 C   0  0  0  0  0  0
  -25.9019  -32.4809   23.8395 C   0  0  1  0  0  0
  -27.2341  -27.4514   20.0898 C   0  0  0  0  0  0
  -25.5905  -33.8623   24.2307 N   0  0  0  0  0  0
  -23.3961  -30.4934   21.5465 C   0  0  2  0  0  0
  -24.8436  -28.9583   20.1222 C   0  0  0  0  0  0
  -22.7397  -29.4686   22.4996 C   0  0  0  0  0  0
  -18.0262  -28.1345   22.8518 C   0  0  0  0  0  0
  -24.1479  -36.7308   23.2632 C   0  0  0  0  0  0
  -25.9198  -30.8437   21.3606 C   0  0  0  0  0  0
  -26.0028  -29.4761   20.7110 C   0  0  0  0  0  0
  -27.2014  -28.7317   20.6876 C   0  0  0  0  0  0
  -26.0538  -26.9476   19.4925 C   0  0  0  0  0  0
  -24.8617  -27.6934   19.5152 C   0  0  0  0  0  0
  -23.6079  -29.8210   20.1647 C   0  0  0  0  0  0
  -25.4122  -36.3114   24.0311 C   0  0  1  0  0  0
  -20.5854  -28.3658   23.1318 C   0  0  2  0  0  0
  -20.6766  -26.9414   22.5395 C   0  0  0  0  0  0
  -19.5736  -26.6369   21.5203 C   0  0  0  0  0  0
  -18.1915  -26.7892   22.1620 C   0  0  0  0  0  0
  -19.1515  -28.8825   23.2909 C   0  0  0  0  0  0
  -18.9447  -30.1439   23.8913 C   0  0  0  0  0  0
  -17.6455  -30.6571   24.0597 C   0  0  0  0  0  0
  -25.9052  -34.9478   23.5099 C   0  0  0  0  0  0
  -16.5349  -29.9078   23.6335 C   0  0  0  0  0  0
  -16.7259  -28.6483   23.0371 C   0  0  0  0  0  0
  -26.4505  -31.6562   25.0697 C   0  0  0  0  0  0
  -25.3776  -31.3675   26.1442 C   0  0  0  0  0  0
  -27.0373  -30.2995   24.6104 C   0  0  0  0  0  0
  -27.6053  -32.4285   25.7528 C   0  0  0  0  0  0
  -27.5594  -37.1815   24.8477 C   0  0  0  0  0  0
  -21.4134  -29.3035   22.3743 N   0  0  0  0  0  0
  -26.4314  -37.3798   23.9406 N   0  0  0  0  0  0
  -24.6582  -31.0856   22.0974 N   0  0  0  0  0  0
  -23.4205  -28.8273   23.3049 O   0  0  0  0  0  0
  -28.4343  -26.7744   20.0662 O   0  0  0  0  0  0
  -26.5617  -34.8933   22.4657 O   0  0  0  0  0  0
  -23.5283  -32.1457   23.7528 O   0  0  0  0  0  0
  -29.7590  -17.6436   21.9202 C   0  0  0  0  0  0
  -30.1598  -18.9873   22.0658 C   0  0  0  0  0  0
  -32.0749  -17.0102   21.5394 C   0  0  0  0  0  0
  -32.4779  -18.3562   21.6438 C   0  0  0  0  0  0
  -30.7100  -16.6414   21.6381 C   0  0  0  0  0  0
  -31.5188  -19.3532   21.9322 C   0  0  0  0  0  0
  -33.9465  -18.7001   21.4505 C   0  0  0  0  0  0
  -28.4334  -25.3456   20.1636 C   0  0  0  0  0  0
  -31.5957  -21.3149   23.2594 C   0  0  0  0  0  0
  -28.4701  -24.8897   21.6340 C   0  0  0  0  0  0
  -31.7022  -22.8397   23.0869 C   0  0  0  0  0  0
  -27.1950  -24.7837   23.6626 C   0  0  0  0  0  0
  -33.1580  -24.4981   22.1421 C   0  0  0  0  0  0
  -27.7049  -25.9417   24.5454 C   0  0  0  0  0  0
  -32.9515  -25.6872   23.1008 C   0  0  0  0  0  0
  -29.6768  -27.1848   23.9906 C   0  0  0  0  0  0
  -31.2066  -27.0526   24.0165 C   0  0  0  0  0  0
  -30.2549  -15.3013   21.4539 N   0  0  0  0  0  0
  -31.9214  -20.6621   22.0336 O   0  0  0  0  0  0
  -27.2156  -25.1068   22.2718 O   0  0  0  0  0  0
  -33.0380  -23.2166   22.7618 O   0  0  0  0  0  0
  -29.1270  -26.0042   24.5759 O   0  0  0  0  0  0
  -31.5560  -25.9082   23.2451 O   0  0  0  0  0  0
  -31.4534  -12.3429   19.1212 H   0  0  0  0  0  0
  -30.2774  -11.2544   19.7877 H   0  0  0  0  0  0
  -29.7126  -11.8287   17.4077 H   0  0  0  0  0  0
  -29.6765  -13.5313   17.8098 H   0  0  0  0  0  0
  -27.8139  -11.3435   18.8140 H   0  0  0  0  0  0
  -27.3560  -12.6904   17.7981 H   0  0  0  0  0  0
  -27.7219  -14.2763   19.6237 H   0  0  0  0  0  0
  -28.6600  -11.9246   21.3295 H   0  0  0  0  0  0
  -28.4729  -13.5560   21.8943 H   0  0  0  0  0  0
  -25.2724   -9.5713   22.4810 H   0  0  0  0  0  0
  -24.0029   -7.4613   22.7408 H   0  0  0  0  0  0
  -21.0889   -8.8802   19.8914 H   0  0  0  0  0  0
  -22.3711  -10.9712   19.6210 H   0  0  0  0  0  0
  -21.1951   -7.6141   23.9767 H   0  0  0  0  0  0
  -21.1540   -6.0502   25.9116 H   0  0  0  0  0  0
  -22.0557   -2.7621   23.2833 H   0  0  0  0  0  0
  -22.3960  -11.9912   22.4934 H   0  0  0  0  0  0
  -21.1021  -13.1279   22.2612 H   0  0  0  0  0  0
  -24.6611  -15.8529   20.4845 H   0  0  0  0  0  0
  -26.2754  -15.6120   20.0530 H   0  0  0  0  0  0
  -26.7096  -32.5585   23.1185 H   0  0  0  0  0  0
  -25.0082  -33.9824   25.0480 H   0  0  0  0  0  0
  -22.6790  -31.3025   21.3984 H   0  0  0  0  0  0
  -23.3744  -35.9642   23.3326 H   0  0  0  0  0  0
  -24.3560  -36.8919   22.2043 H   0  0  0  0  0  0
  -23.7213  -37.6510   23.6634 H   0  0  0  0  0  0
  -26.0179  -31.6113   20.5909 H   0  0  0  0  0  0
  -26.8094  -30.9041   21.9749 H   0  0  0  0  0  0
  -28.1019  -29.1351   21.1325 H   0  0  0  0  0  0
  -26.0309  -25.9997   18.9806 H   0  0  0  0  0  0
  -23.9636  -27.2967   19.0614 H   0  0  0  0  0  0
  -23.7278  -30.5820   19.3912 H   0  0  0  0  0  0
  -22.7349  -29.2331   19.8731 H   0  0  0  0  0  0
  -25.1285  -36.1992   25.0793 H   0  0  0  0  0  0
  -20.9937  -28.3183   24.1437 H   0  0  0  0  0  0
  -20.5634  -26.2299   23.3573 H   0  0  0  0  0  0
  -21.6647  -26.7438   22.1222 H   0  0  0  0  0  0
  -19.6926  -25.6275   21.1218 H   0  0  0  0  0  0
  -19.6637  -27.3204   20.6745 H   0  0  0  0  0  0
  -17.4193  -26.6666   21.4003 H   0  0  0  0  0  0
  -18.0353  -25.9986   22.8973 H   0  0  0  0  0  0
  -19.7939  -30.7274   24.2245 H   0  0  0  0  0  0
  -17.5015  -31.6248   24.5193 H   0  0  0  0  0  0
  -15.5357  -30.3009   23.7606 H   0  0  0  0  0  0
  -15.8661  -28.0809   22.7068 H   0  0  0  0  0  0
  -24.5972  -30.6995   25.7756 H   0  0  0  0  0  0
  -24.8951  -32.2832   26.4860 H   0  0  0  0  0  0
  -25.8113  -30.8847   27.0203 H   0  0  0  0  0  0
  -26.2909  -29.6645   24.1282 H   0  0  0  0  0  0
  -27.4267  -29.7352   25.4590 H   0  0  0  0  0  0
  -27.8699  -30.4275   23.9183 H   0  0  0  0  0  0
  -27.2669  -33.3672   26.1933 H   0  0  0  0  0  0
  -28.4009  -32.6715   25.0452 H   0  0  0  0  0  0
  -28.0515  -31.8455   26.5611 H   0  0  0  0  0  0
  -28.2627  -38.0102   24.7551 H   0  0  0  0  0  0
  -28.1061  -36.2637   24.6264 H   0  0  0  0  0  0
  -27.2325  -37.1470   25.8886 H   0  0  0  0  0  0
  -20.9291  -29.8764   21.6996 H   0  0  0  0  0  0
  -26.0201  -38.2864   24.1403 H   0  0  0  0  0  0
  -28.7084  -17.3986   22.0000 H   0  0  0  0  0  0
  -29.4051  -19.7377   22.2574 H   0  0  0  0  0  0
  -32.8381  -16.2667   21.3617 H   0  0  0  0  0  0
  -34.4335  -17.9735   20.7997 H   0  0  0  0  0  0
  -34.4618  -18.6836   22.4104 H   0  0  0  0  0  0
  -34.0886  -19.6788   20.9924 H   0  0  0  0  0  0
  -27.6452  -24.8448   19.6071 H   0  0  0  0  0  0
  -29.3622  -25.0185   19.6954 H   0  0  0  0  0  0
  -30.5801  -21.0832   23.5815 H   0  0  0  0  0  0
  -32.2728  -20.9666   24.0418 H   0  0  0  0  0  0
  -29.2829  -25.4074   22.1266 H   0  0  0  0  0  0
  -28.7197  -23.8308   21.7003 H   0  0  0  0  0  0
  -31.4032  -23.3247   24.0171 H   0  0  0  0  0  0
  -31.0021  -23.1597   22.3133 H   0  0  0  0  0  0
  -26.1496  -24.6060   23.9231 H   0  0  0  0  0  0
  -27.7153  -23.8489   23.8827 H   0  0  0  0  0  0
  -34.1700  -24.5536   21.7368 H   0  0  0  0  0  0
  -32.4875  -24.5806   21.2839 H   0  0  0  0  0  0
  -27.3827  -25.7420   25.5685 H   0  0  0  0  0  0
  -27.2415  -26.8875   24.2616 H   0  0  0  0  0  0
  -33.3994  -26.5806   22.6607 H   0  0  0  0  0  0
  -33.4474  -25.5147   24.0565 H   0  0  0  0  0  0
  -29.3315  -27.3358   22.9660 H   0  0  0  0  0  0
  -29.3616  -28.0679   24.5470 H   0  0  0  0  0  0
  -31.5647  -26.9602   25.0435 H   0  0  0  0  0  0
  -31.6543  -27.9512   23.5865 H   0  0  0  0  0  0
  -29.3503  -15.0680   21.8325 H   0  0  0  0  0  0
  1 25  1  0  0  0
  1 30  2  0  0  0
  1 88  1  0  0  0
  2  3  1  0  0  0
  2 25  1  0  0  0
  2 94  1  0  0  0
  2 95  1  0  0  0
  3  4  1  0  0  0
  3 96  1  0  0  0
  3 97  1  0  0  0
  4  5  1  0  0  0
  4 98  1  0  0  0
  4 99  1  0  0  0
  5  6  1  0  0  0
  5 26  1  0  0  0
  5100  1  0  0  0
  6 25  1  0  0  0
  6101  1  0  0  0
  6102  1  0  0  0
  7  8  2  0  0  0
  7 26  1  0  0  0
  7 29  1  0  0  0
  8  9  1  0  0  0
  8 22  1  0  0  0
  9 10  1  0  0  0
  9 27  2  0  0  0
 10 11  2  0  0  0
 10 15  1  0  0  0
 11 12  1  0  0  0
 11103  1  0  0  0
 12 13  2  0  0  0
 12104  1  0  0  0
 13 14  1  0  0  0
 13 31  1  0  0  0
 14 15  2  0  0  0
 14105  1  0  0  0
 15106  1  0  0  0
 16 17  2  0  0  0
 16 21  1  0  0  0
 16 31  1  0  0  0
 17 18  1  0  0  0
 17107  1  0  0  0
 18 19  2  0  0  0
 18108  1  0  0  0
 19 20  1  0  0  0
 19 24  1  0  0  0
 20 21  2  0  0  0
 20109  1  0  0  0
 21 23  1  0  0  0
 22 28  1  0  0  0
 22 32  2  0  0  0
 26 27  1  0  0  0
 28110  1  0  0  0
 28111  1  0  0  0
 29112  1  0  0  0
 29113  1  0  0  0
 33 34  1  0  0  0
 33 66  1  0  0  0
 33 70  2  0  0  0
 34 36  1  0  0  0
 34 59  1  0  0  0
 34114  1  0  0  0
 35 44  2  0  0  0
 35 45  1  0  0  0
 35 68  1  0  0  0
 36 56  1  0  0  0
 36115  1  0  0  0
 37 39  1  0  0  0
 37 47  1  0  0  0
 37 66  1  0  0  0
 37116  1  0  0  0
 38 43  2  0  0  0
 38 46  1  0  0  0
 38 47  1  0  0  0
 39 64  1  0  0  0
 39 67  2  0  0  0
 40 52  1  0  0  0
 40 53  2  0  0  0
 40 58  1  0  0  0
 41117  1  0  0  0
 41118  1  0  0  0
 41119  1  0  0  0
 41 48  1  0  0  0
 42 43  1  0  0  0
 42 66  1  0  0  0
 42120  1  0  0  0
 42121  1  0  0  0
 43 44  1  0  0  0
 44122  1  0  0  0
 45 46  2  0  0  0
 45123  1  0  0  0
 46124  1  0  0  0
 47125  1  0  0  0
 47126  1  0  0  0
 48 56  1  0  0  0
 48 65  1  0  0  0
 48127  1  0  0  0
 49 50  1  0  0  0
 49 53  1  0  0  0
 49 64  1  0  0  0
 49128  1  0  0  0
 50 51  1  0  0  0
 50129  1  0  0  0
 50130  1  0  0  0
 51 52  1  0  0  0
 51131  1  0  0  0
 51132  1  0  0  0
 52133  1  0  0  0
 52134  1  0  0  0
 53 54  1  0  0  0
 54 55  2  0  0  0
 54135  1  0  0  0
 55 57  1  0  0  0
 55136  1  0  0  0
 56 69  2  0  0  0
 57 58  2  0  0  0
 57137  1  0  0  0
 58138  1  0  0  0
 59 60  1  0  0  0
 59 61  1  0  0  0
 59 62  1  0  0  0
 60139  1  0  0  0
 60140  1  0  0  0
 60141  1  0  0  0
 61142  1  0  0  0
 61143  1  0  0  0
 61144  1  0  0  0
 62145  1  0  0  0
 62146  1  0  0  0
 62147  1  0  0  0
 63 65  1  0  0  0
 63148  1  0  0  0
 63149  1  0  0  0
 63150  1  0  0  0
 64151  1  0  0  0
 65152  1  0  0  0
 68 78  1  0  0  0
 71 72  2  0  0  0
 71 75  1  0  0  0
 71153  1  0  0  0
 72 76  1  0  0  0
 72154  1  0  0  0
 73 74  1  0  0  0
 73 75  2  0  0  0
 73155  1  0  0  0
 74 76  2  0  0  0
 74 77  1  0  0  0
 75 88  1  0  0  0
 76 89  1  0  0  0
 77156  1  0  0  0
 77157  1  0  0  0
 77158  1  0  0  0
 78 80  1  0  0  0
 78159  1  0  0  0
 78160  1  0  0  0
 79 81  1  0  0  0
 79 89  1  0  0  0
 79161  1  0  0  0
 79162  1  0  0  0
 80 90  1  0  0  0
 80163  1  0  0  0
 80164  1  0  0  0
 81 91  1  0  0  0
 81165  1  0  0  0
 81166  1  0  0  0
 82 84  1  0  0  0
 82 90  1  0  0  0
 82167  1  0  0  0
 82168  1  0  0  0
 83 85  1  0  0  0
 83 91  1  0  0  0
 83169  1  0  0  0
 83170  1  0  0  0
 84 92  1  0  0  0
 84171  1  0  0  0
 84172  1  0  0  0
 85 93  1  0  0  0
 85173  1  0  0  0
 85174  1  0  0  0
 86 87  1  0  0  0
 86 92  1  0  0  0
 86175  1  0  0  0
 86176  1  0  0  0
 87 93  1  0  0  0
 87177  1  0  0  0
 87178  1  0  0  0
 88179  1  0  0  0
M  ISO  4   1 100  68 101  78 101  88 100
M  END
> <chiral flag>
0

> <version>
0

> <s_m_source_file>
/data/baiqing/PycharmProjects/Reinvent-master-3.2/result/LINK_invent/BTK/process_docking_weight1_custom_sum_contain_oxygen_bond_distance_aromatic_linkinvent_7_9_3/rearranged_h_0000.sdf

> <i_m_source_file_index>
4

> <r_mmod_Potential_Energy-OPLS-2005>
-39.8820953369141

> <r_mmod_Stretch_Energy-OPLS-2005>
37.1735229492188

> <r_mmod_Bend_Energy-OPLS-2005>
115.767845153809

> <r_mmod_Torsional_Energy-OPLS-2005>
233.774505615234

> <r_mmod_Improper_Torsional_Energy-OPLS-2005>
2.80438160896301

> <r_mmod_Van_der_Waal_Energy-OPLS-2005>
147.516021728516

> <r_mmod_Electrostatic_Energy-OPLS-2005>
-346.019653320312

> <r_mmod_Solvation_Energy-OPLS-2005>
-239.80158996582

> <b_mmod_Minimization_Converged-OPLS-2005>
0

> <r_mmod_RMS_Derivative-OPLS-2005>
5.48328018188477

$$$$
4
                    3D
 Structure written by MMmdl.
165173  0  0  1  0            999 V2000
  -30.7484  -14.4125   20.5545 C   0  0  0  0  0  0
  -30.4105  -12.2586   19.4354 C   0  0  0  0  0  0
  -29.4947  -12.4891   18.2161 C   0  0  0  0  0  0
  -28.0137  -12.3675   18.6211 C   0  0  0  0  0  0
  -27.6661  -13.2085   19.8785 C   0  0  2  0  0  0
  -28.7045  -12.9924   21.0032 C   0  0  0  0  0  0
  -25.2598  -13.8175   20.5659 C   0  0  0  0  0  0
  -24.1844  -13.0457   20.9158 C   0  0  0  0  0  0
  -24.6402  -11.6932   20.8733 C   0  0  0  0  0  0
  -23.9064  -10.4317   21.0389 C   0  0  0  0  0  0
  -24.3615   -9.4225   21.9169 C   0  0  0  0  0  0
  -23.6295   -8.2251   22.0729 C   0  0  0  0  0  0
  -22.4279   -8.0273   21.3516 C   0  0  0  0  0  0
  -21.9912   -9.0261   20.4628 C   0  0  0  0  0  0
  -22.7238  -10.2144   20.3043 C   0  0  0  0  0  0
  -21.6877   -6.0728   22.5258 C   0  0  0  0  0  0
  -21.4035   -6.5635   23.8187 C   0  0  0  0  0  0
  -21.3652   -5.6783   24.9148 C   0  0  0  0  0  0
  -21.6045   -4.3045   24.7204 C   0  0  0  0  0  0
  -21.8834   -3.8138   23.4321 C   0  0  0  0  0  0
  -21.9204   -4.6952   22.3386 C   0  0  0  0  0  0
  -22.7861  -13.5239   21.1810 C   0  0  0  0  0  0
  -22.1672   -4.2138   21.0961 F   0  0  0  0  0  0
  -21.5619   -3.4531   25.7713 F   0  0  0  0  0  0
  -30.0489  -13.2522   20.4576 N   0  0  0  0  0  0
  -26.3045  -12.9347   20.3382 N   0  0  0  0  0  0
  -25.9333  -11.6508   20.5793 N   0  0  0  0  0  0
  -22.0518  -12.8239   22.0377 N   0  0  0  0  0  0
  -25.4357  -15.1878   20.4063 N   0  0  0  0  0  0
  -31.8849  -14.5516   20.0952 O   0  0  0  0  0  0
  -21.6646   -6.8859   21.4210 O   0  0  0  0  0  0
  -22.3534  -14.5543   20.6651 O   0  0  0  0  0  0
  -24.6121  -31.8762   23.2125 C   0  0  0  0  0  0
  -25.9042  -32.4864   23.8425 C   0  0  1  0  0  0
  -27.2185  -27.4591   20.0711 C   0  0  0  0  0  0
  -25.5932  -33.8672   24.2351 N   0  0  0  0  0  0
  -23.3952  -30.5025   21.5524 C   0  0  2  0  0  0
  -24.8305  -28.9670   20.1194 C   0  0  0  0  0  0
  -22.7376  -29.4744   22.4992 C   0  0  0  0  0  0
  -18.0281  -28.1362   22.8473 C   0  0  0  0  0  0
  -24.1489  -36.7318   23.2637 C   0  0  0  0  0  0
  -25.9232  -30.8435   21.3624 C   0  0  0  0  0  0
  -25.9919  -29.4788   20.7081 C   0  0  0  0  0  0
  -27.1859  -28.7303   20.6858 C   0  0  0  0  0  0
  -26.0255  -26.9461   19.5055 C   0  0  0  0  0  0
  -24.8392  -27.6972   19.5211 C   0  0  0  0  0  0
  -23.5967  -29.8344   20.1671 C   0  0  0  0  0  0
  -25.4118  -36.3147   24.0334 C   0  0  1  0  0  0
  -20.5865  -28.3690   23.1287 C   0  0  2  0  0  0
  -20.6768  -26.9438   22.5380 C   0  0  0  0  0  0
  -19.5756  -26.6387   21.5173 C   0  0  0  0  0  0
  -18.1936  -26.7904   22.1600 C   0  0  0  0  0  0
  -19.1520  -28.8833   23.2882 C   0  0  0  0  0  0
  -18.9466  -30.1419   23.8917 C   0  0  0  0  0  0
  -17.6480  -30.6582   24.0557 C   0  0  0  0  0  0
  -25.9055  -34.9514   23.5130 C   0  0  0  0  0  0
  -16.5365  -29.9086   23.6308 C   0  0  0  0  0  0
  -16.7269  -28.6492   23.0359 C   0  0  0  0  0  0
  -26.4470  -31.6627   25.0743 C   0  0  0  0  0  0
  -25.3733  -31.3734   26.1479 C   0  0  0  0  0  0
  -27.0280  -30.3075   24.6104 C   0  0  0  0  0  0
  -27.6059  -32.4324   25.7497 C   0  0  0  0  0  0
  -27.5588  -37.1821   24.8477 C   0  0  0  0  0  0
  -21.4121  -29.3085   22.3714 N   0  0  0  0  0  0
  -26.4308  -37.3825   23.9410 N   0  0  0  0  0  0
  -24.6618  -31.0885   22.1004 N   0  0  0  0  0  0
  -23.4171  -28.8297   23.3033 O   0  0  0  0  0  0
  -28.4182  -26.7826   20.0532 O   0  0  0  0  0  0
  -26.5606  -34.8949   22.4691 O   0  0  0  0  0  0
  -23.5327  -32.1499   23.7541 O   0  0  0  0  0  0
  -29.8286  -19.1831   21.1636 C   0  0  0  0  0  0
  -30.3596  -19.5462   19.9078 C   0  0  0  0  0  0
  -29.7476  -17.8286   21.5419 C   0  0  0  0  0  0
  -30.7564  -17.1952   19.4190 C   0  0  0  0  0  0
  -30.8136  -18.5464   19.0167 C   0  0  0  0  0  0
  -30.2224  -16.8196   20.6799 C   0  0  0  0  0  0
  -31.3715  -18.8820   17.6621 C   0  0  0  0  0  0
  -30.9331  -20.1083   15.5436 C   0  0  0  0  0  0
  -31.3049  -21.5790   15.3325 C   0  0  0  0  0  0
  -28.4866  -25.5067   19.4212 C   0  0  0  0  0  0
  -28.4518  -25.6144   17.8832 C   0  0  0  0  0  0
  -30.4179  -23.7593   15.3900 C   0  0  0  0  0  0
  -29.2389  -24.5865   15.9084 C   0  0  0  0  0  0
  -30.0864  -15.4556   21.0767 N   0  0  0  0  0  0
  -30.7001  -19.7983   16.9546 N   0  0  0  0  0  0
  -32.3363  -18.2599   17.2122 O   0  0  0  0  0  0
  -30.1995  -22.3893   15.7019 O   0  0  0  0  0  0
  -29.3396  -24.6609   17.3237 O   0  0  0  0  0  0
  -31.4589  -12.3161   19.1386 H   0  0  0  0  0  0
  -30.2729  -11.2518   19.8335 H   0  0  0  0  0  0
  -29.7294  -11.7672   17.4323 H   0  0  0  0  0  0
  -29.6801  -13.4755   17.7904 H   0  0  0  0  0  0
  -27.8077  -11.3144   18.8126 H   0  0  0  0  0  0
  -27.3721  -12.6519   17.7859 H   0  0  0  0  0  0
  -27.7151  -14.2572   19.5823 H   0  0  0  0  0  0
  -28.6571  -11.9673   21.3733 H   0  0  0  0  0  0
  -28.4750  -13.6233   21.8613 H   0  0  0  0  0  0
  -25.2760   -9.5707   22.4740 H   0  0  0  0  0  0
  -24.0017   -7.4643   22.7449 H   0  0  0  0  0  0
  -21.0835   -8.8783   19.8949 H   0  0  0  0  0  0
  -22.3691  -10.9671   19.6146 H   0  0  0  0  0  0
  -21.2050   -7.6147   23.9689 H   0  0  0  0  0  0
  -21.1452   -6.0507   25.9047 H   0  0  0  0  0  0
  -22.0628   -2.7601   23.2824 H   0  0  0  0  0  0
  -22.4191  -11.9936   22.4791 H   0  0  0  0  0  0
  -21.1119  -13.1217   22.2570 H   0  0  0  0  0  0
  -24.6746  -15.8494   20.5047 H   0  0  0  0  0  0
  -26.2965  -15.6181   20.0926 H   0  0  0  0  0  0
  -26.7107  -32.5576   23.1190 H   0  0  0  0  0  0
  -25.0137  -33.9874   25.0530 H   0  0  0  0  0  0
  -22.6834  -31.3194   21.4132 H   0  0  0  0  0  0
  -23.3760  -35.9642   23.3339 H   0  0  0  0  0  0
  -24.3600  -36.8897   22.2048 H   0  0  0  0  0  0
  -23.7212  -37.6525   23.6624 H   0  0  0  0  0  0
  -26.0381  -31.6135   20.5980 H   0  0  0  0  0  0
  -26.8131  -30.8911   21.9779 H   0  0  0  0  0  0
  -28.0858  -29.1313   21.1297 H   0  0  0  0  0  0
  -25.9737  -25.9705   19.0479 H   0  0  0  0  0  0
  -23.9387  -27.2906   19.0792 H   0  0  0  0  0  0
  -23.7125  -30.6087   19.4075 H   0  0  0  0  0  0
  -22.7201  -29.2560   19.8670 H   0  0  0  0  0  0
  -25.1280  -36.2026   25.0821 H   0  0  0  0  0  0
  -20.9949  -28.3246   24.1410 H   0  0  0  0  0  0
  -20.5638  -26.2339   23.3583 H   0  0  0  0  0  0
  -21.6650  -26.7476   22.1205 H   0  0  0  0  0  0
  -19.6956  -25.6291   21.1226 H   0  0  0  0  0  0
  -19.6672  -27.3164   20.6675 H   0  0  0  0  0  0
  -17.4205  -26.6638   21.4006 H   0  0  0  0  0  0
  -18.0375  -26.0014   22.8978 H   0  0  0  0  0  0
  -19.7963  -30.7195   24.2309 H   0  0  0  0  0  0
  -17.5069  -31.6255   24.5161 H   0  0  0  0  0  0
  -15.5377  -30.3028   23.7604 H   0  0  0  0  0  0
  -15.8665  -28.0804   22.7106 H   0  0  0  0  0  0
  -24.5909  -30.7082   25.7806 H   0  0  0  0  0  0
  -24.8907  -32.2884   26.4925 H   0  0  0  0  0  0
  -25.8074  -30.8905   27.0240 H   0  0  0  0  0  0
  -26.2809  -29.6864   24.1134 H   0  0  0  0  0  0
  -27.4032  -29.7290   25.4558 H   0  0  0  0  0  0
  -27.8670  -30.4411   23.9266 H   0  0  0  0  0  0
  -27.2706  -33.3623   26.2107 H   0  0  0  0  0  0
  -28.3842  -32.6886   25.0296 H   0  0  0  0  0  0
  -28.0749  -31.8421   26.5378 H   0  0  0  0  0  0
  -28.2623  -38.0103   24.7511 H   0  0  0  0  0  0
  -28.1058  -36.2639   24.6291 H   0  0  0  0  0  0
  -27.2326  -37.1435   25.8888 H   0  0  0  0  0  0
  -20.9277  -29.8837   21.6956 H   0  0  0  0  0  0
  -26.0207  -38.2922   24.1363 H   0  0  0  0  0  0
  -29.4695  -19.9471   21.8418 H   0  0  0  0  0  0
  -30.4185  -20.5919   19.6374 H   0  0  0  0  0  0
  -29.3200  -17.5734   22.5028 H   0  0  0  0  0  0
  -31.1058  -16.4469   18.7211 H   0  0  0  0  0  0
  -31.7115  -19.4780   15.1130 H   0  0  0  0  0  0
  -30.0264  -19.8795   14.9836 H   0  0  0  0  0  0
  -31.5467  -21.7390   14.2793 H   0  0  0  0  0  0
  -32.1897  -21.8464   15.9141 H   0  0  0  0  0  0
  -29.4441  -25.0844   19.7280 H   0  0  0  0  0  0
  -27.7326  -24.8165   19.7991 H   0  0  0  0  0  0
  -28.7644  -26.6116   17.5696 H   0  0  0  0  0  0
  -27.4397  -25.4586   17.5039 H   0  0  0  0  0  0
  -31.3483  -24.1184   15.8329 H   0  0  0  0  0  0
  -30.5012  -23.8816   14.3092 H   0  0  0  0  0  0
  -28.2881  -24.1419   15.6079 H   0  0  0  0  0  0
  -29.2845  -25.5865   15.4720 H   0  0  0  0  0  0
  -29.2870  -15.2310   21.6492 H   0  0  0  0  0  0
  -29.9043  -20.2396   17.3948 H   0  0  0  0  0  0
  1 25  1  0  0  0
  1 30  2  0  0  0
  1 84  1  0  0  0
  2  3  1  0  0  0
  2 25  1  0  0  0
  2 89  1  0  0  0
  2 90  1  0  0  0
  3  4  1  0  0  0
  3 91  1  0  0  0
  3 92  1  0  0  0
  4  5  1  0  0  0
  4 93  1  0  0  0
  4 94  1  0  0  0
  5  6  1  0  0  0
  5 26  1  0  0  0
  5 95  1  0  0  0
  6 25  1  0  0  0
  6 96  1  0  0  0
  6 97  1  0  0  0
  7  8  2  0  0  0
  7 26  1  0  0  0
  7 29  1  0  0  0
  8  9  1  0  0  0
  8 22  1  0  0  0
  9 10  1  0  0  0
  9 27  2  0  0  0
 10 11  2  0  0  0
 10 15  1  0  0  0
 11 12  1  0  0  0
 11 98  1  0  0  0
 12 13  2  0  0  0
 12 99  1  0  0  0
 13 14  1  0  0  0
 13 31  1  0  0  0
 14 15  2  0  0  0
 14100  1  0  0  0
 15101  1  0  0  0
 16 17  2  0  0  0
 16 21  1  0  0  0
 16 31  1  0  0  0
 17 18  1  0  0  0
 17102  1  0  0  0
 18 19  2  0  0  0
 18103  1  0  0  0
 19 20  1  0  0  0
 19 24  1  0  0  0
 20 21  2  0  0  0
 20104  1  0  0  0
 21 23  1  0  0  0
 22 28  1  0  0  0
 22 32  2  0  0  0
 26 27  1  0  0  0
 28105  1  0  0  0
 28106  1  0  0  0
 29107  1  0  0  0
 29108  1  0  0  0
 33 34  1  0  0  0
 33 66  1  0  0  0
 33 70  2  0  0  0
 34 36  1  0  0  0
 34 59  1  0  0  0
 34109  1  0  0  0
 35 44  2  0  0  0
 35 45  1  0  0  0
 35 68  1  0  0  0
 36 56  1  0  0  0
 36110  1  0  0  0
 37 39  1  0  0  0
 37 47  1  0  0  0
 37 66  1  0  0  0
 37111  1  0  0  0
 38 43  2  0  0  0
 38 46  1  0  0  0
 38 47  1  0  0  0
 39 64  1  0  0  0
 39 67  2  0  0  0
 40 52  1  0  0  0
 40 53  2  0  0  0
 40 58  1  0  0  0
 41112  1  0  0  0
 41113  1  0  0  0
 41114  1  0  0  0
 41 48  1  0  0  0
 42 43  1  0  0  0
 42 66  1  0  0  0
 42115  1  0  0  0
 42116  1  0  0  0
 43 44  1  0  0  0
 44117  1  0  0  0
 45 46  2  0  0  0
 45118  1  0  0  0
 46119  1  0  0  0
 47120  1  0  0  0
 47121  1  0  0  0
 48 56  1  0  0  0
 48 65  1  0  0  0
 48122  1  0  0  0
 49 50  1  0  0  0
 49 53  1  0  0  0
 49 64  1  0  0  0
 49123  1  0  0  0
 50 51  1  0  0  0
 50124  1  0  0  0
 50125  1  0  0  0
 51 52  1  0  0  0
 51126  1  0  0  0
 51127  1  0  0  0
 52128  1  0  0  0
 52129  1  0  0  0
 53 54  1  0  0  0
 54 55  2  0  0  0
 54130  1  0  0  0
 55 57  1  0  0  0
 55131  1  0  0  0
 56 69  2  0  0  0
 57 58  2  0  0  0
 57132  1  0  0  0
 58133  1  0  0  0
 59 60  1  0  0  0
 59 61  1  0  0  0
 59 62  1  0  0  0
 60134  1  0  0  0
 60135  1  0  0  0
 60136  1  0  0  0
 61137  1  0  0  0
 61138  1  0  0  0
 61139  1  0  0  0
 62140  1  0  0  0
 62141  1  0  0  0
 62142  1  0  0  0
 63 65  1  0  0  0
 63143  1  0  0  0
 63144  1  0  0  0
 63145  1  0  0  0
 64146  1  0  0  0
 65147  1  0  0  0
 68 80  1  0  0  0
 71 72  2  0  0  0
 71 73  1  0  0  0
 71148  1  0  0  0
 72 75  1  0  0  0
 72149  1  0  0  0
 73 76  2  0  0  0
 73150  1  0  0  0
 74 75  2  0  0  0
 74 76  1  0  0  0
 74151  1  0  0  0
 75 77  1  0  0  0
 76 84  1  0  0  0
 77 85  1  0  0  0
 77 86  2  0  0  0
 78 79  1  0  0  0
 78 85  1  0  0  0
 78152  1  0  0  0
 78153  1  0  0  0
 79 87  1  0  0  0
 79154  1  0  0  0
 79155  1  0  0  0
 80 81  1  0  0  0
 80156  1  0  0  0
 80157  1  0  0  0
 81 88  1  0  0  0
 81158  1  0  0  0
 81159  1  0  0  0
 82 83  1  0  0  0
 82 87  1  0  0  0
 82160  1  0  0  0
 82161  1  0  0  0
 83 88  1  0  0  0
 83162  1  0  0  0
 83163  1  0  0  0
 84164  1  0  0  0
 85165  1  0  0  0
M  ISO  4   1 100  68 101  80 101  84 100
M  END
> <chiral flag>
0

> <version>
0

> <s_m_source_file>
/data/baiqing/PycharmProjects/Reinvent-master-3.2/result/LINK_invent/BTK/process_docking_weight1_custom_sum_contain_oxygen_bond_distance_aromatic_linkinvent_7_9_3/rearranged_h_0000.sdf

> <i_m_source_file_index>
5

> <r_mmod_Potential_Energy-OPLS-2005>
-143.912567138672

> <r_mmod_Stretch_Energy-OPLS-2005>
33.5541572570801

> <r_mmod_Bend_Energy-OPLS-2005>
95.9659652709961

> <r_mmod_Torsional_Energy-OPLS-2005>
228.611755371094

> <r_mmod_Improper_Torsional_Energy-OPLS-2005>
4.46815919876099

> <r_mmod_Van_der_Waal_Energy-OPLS-2005>
167.714752197266

> <r_mmod_Electrostatic_Energy-OPLS-2005>
-438.431274414062

> <r_mmod_Solvation_Energy-OPLS-2005>
-248.601348876953

> <b_mmod_Minimization_Converged-OPLS-2005>
0

> <r_mmod_RMS_Derivative-OPLS-2005>
3.17848825454712

$$$$
5
                    3D
 Structure written by MMmdl.
186194  0  0  1  0            999 V2000
  -30.6352  -14.4898   20.4001 C   0  0  0  0  0  0
  -30.4339  -12.2693   19.4099 C   0  0  0  0  0  0
  -29.4927  -12.4358   18.1925 C   0  0  0  0  0  0
  -28.0099  -12.3210   18.6170 C   0  0  0  0  0  0
  -27.6490  -13.1826   19.8563 C   0  0  2  0  0  0
  -28.7117  -13.0240   20.9733 C   0  0  0  0  0  0
  -25.2588  -13.8099   20.5707 C   0  0  0  0  0  0
  -24.1812  -13.0432   20.9193 C   0  0  0  0  0  0
  -24.6316  -11.6874   20.8745 C   0  0  0  0  0  0
  -23.8984  -10.4280   21.0391 C   0  0  0  0  0  0
  -24.3541   -9.4207   21.9182 C   0  0  0  0  0  0
  -23.6247   -8.2225   22.0744 C   0  0  0  0  0  0
  -22.4249   -8.0246   21.3513 C   0  0  0  0  0  0
  -21.9858   -9.0223   20.4633 C   0  0  0  0  0  0
  -22.7151  -10.2116   20.3044 C   0  0  0  0  0  0
  -21.6863   -6.0705   22.5267 C   0  0  0  0  0  0
  -21.4022   -6.5606   23.8193 C   0  0  0  0  0  0
  -21.3669   -5.6761   24.9158 C   0  0  0  0  0  0
  -21.6044   -4.3025   24.7217 C   0  0  0  0  0  0
  -21.8820   -3.8114   23.4340 C   0  0  0  0  0  0
  -21.9193   -4.6932   22.3394 C   0  0  0  0  0  0
  -22.7835  -13.5273   21.1852 C   0  0  0  0  0  0
  -22.1667   -4.2108   21.0982 F   0  0  0  0  0  0
  -21.5625   -3.4520   25.7736 F   0  0  0  0  0  0
  -30.0440  -13.2741   20.3984 N   0  0  0  0  0  0
  -26.2973  -12.9196   20.3354 N   0  0  0  0  0  0
  -25.9234  -11.6397   20.5773 N   0  0  0  0  0  0
  -22.0417  -12.8303   22.0387 N   0  0  0  0  0  0
  -25.4363  -15.1834   20.4093 N   0  0  0  0  0  0
  -31.8489  -14.6882   20.3471 O   0  0  0  0  0  0
  -21.6618   -6.8848   21.4225 O   0  0  0  0  0  0
  -22.3567  -14.5612   20.6709 O   0  0  0  0  0  0
  -24.6090  -31.8731   23.2121 C   0  0  0  0  0  0
  -25.9012  -32.4838   23.8405 C   0  0  1  0  0  0
  -27.2369  -27.4773   20.0958 C   0  0  0  0  0  0
  -25.5890  -33.8630   24.2356 N   0  0  0  0  0  0
  -23.3944  -30.4921   21.5529 C   0  0  2  0  0  0
  -24.8429  -28.9567   20.1191 C   0  0  0  0  0  0
  -22.7378  -29.4654   22.5023 C   0  0  0  0  0  0
  -18.0280  -28.1345   22.8470 C   0  0  0  0  0  0
  -24.1487  -36.7321   23.2630 C   0  0  0  0  0  0
  -25.9179  -30.8475   21.3613 C   0  0  0  0  0  0
  -25.9955  -29.4802   20.7189 C   0  0  0  0  0  0
  -27.1972  -28.7442   20.7123 C   0  0  0  0  0  0
  -26.0760  -26.9581   19.4905 C   0  0  0  0  0  0
  -24.8732  -27.6900   19.5083 C   0  0  0  0  0  0
  -23.6019  -29.8212   20.1678 C   0  0  0  0  0  0
  -25.4112  -36.3120   24.0346 C   0  0  1  0  0  0
  -20.5858  -28.3658   23.1353 C   0  0  2  0  0  0
  -20.6799  -26.9369   22.5525 C   0  0  0  0  0  0
  -19.5831  -26.6358   21.5266 C   0  0  0  0  0  0
  -18.1969  -26.7900   22.1605 C   0  0  0  0  0  0
  -19.1505  -28.8828   23.2896 C   0  0  0  0  0  0
  -18.9409  -30.1428   23.8912 C   0  0  0  0  0  0
  -17.6398  -30.6520   24.0577 C   0  0  0  0  0  0
  -25.9035  -34.9475   23.5143 C   0  0  0  0  0  0
  -16.5306  -29.9025   23.6293 C   0  0  0  0  0  0
  -16.7257  -28.6438   23.0330 C   0  0  0  0  0  0
  -26.4474  -31.6598   25.0711 C   0  0  0  0  0  0
  -25.3764  -31.3711   26.1475 C   0  0  0  0  0  0
  -27.0297  -30.3035   24.6060 C   0  0  0  0  0  0
  -27.6059  -32.4304   25.7478 C   0  0  0  0  0  0
  -27.5588  -37.1815   24.8461 C   0  0  0  0  0  0
  -21.4117  -29.2985   22.3727 N   0  0  0  0  0  0
  -26.4296  -37.3800   23.9408 N   0  0  0  0  0  0
  -24.6577  -31.0863   22.1005 N   0  0  0  0  0  0
  -23.4172  -28.8236   23.3077 O   0  0  0  0  0  0
  -28.4059  -26.7675   20.0338 O   0  0  0  0  0  0
  -26.5561  -34.8906   22.4687 O   0  0  0  0  0  0
  -23.5290  -32.1428   23.7554 O   0  0  0  0  0  0
  -28.6186  -18.3919   21.5358 C   0  0  0  0  0  0
  -27.8142  -18.9520   20.5167 C   0  0  0  0  0  0
  -29.3587  -17.2100   21.3087 C   0  0  0  0  0  0
  -28.5115  -17.1680   19.0232 C   0  0  0  0  0  0
  -27.7498  -18.3325   19.2485 C   0  0  0  0  0  0
  -29.2921  -16.5896   20.0423 C   0  0  0  0  0  0
  -26.9248  -18.8787   18.1174 C   0  0  0  0  0  0
  -24.7208  -19.6438   17.3704 C   0  0  0  0  0  0
  -23.4500  -20.2980   17.9222 C   0  0  0  0  0  0
  -28.7107  -26.0232   21.2086 C   0  0  0  0  0  0
  -28.0183  -24.6496   21.1611 C   0  0  0  0  0  0
  -21.3654  -19.6403   18.8251 C   0  0  0  0  0  0
  -20.6555  -18.5988   19.7082 C   0  0  0  0  0  0
  -25.9061  -23.6277   21.5309 C   0  0  0  0  0  0
  -24.6545  -23.7254   22.4143 C   0  0  0  0  0  0
  -21.7364  -18.8500   21.8580 C   0  0  0  0  0  0
  -22.3860  -20.2136   22.1556 C   0  0  0  0  0  0
  -22.3189  -23.2229   22.4310 C   0  0  0  0  0  0
  -22.1034  -22.1665   23.5323 C   0  0  0  0  0  0
  -29.8486  -15.3322   19.7213 N   0  0  0  0  0  0
  -25.7053  -19.3460   18.4089 N   0  0  0  0  0  0
  -27.3340  -18.7875   16.9577 O   0  0  0  0  0  0
  -22.7621  -19.3730   18.7581 O   0  0  0  0  0  0
  -26.7549  -24.7323   21.8086 O   0  0  0  0  0  0
  -20.5527  -18.9998   21.0754 O   0  0  0  0  0  0
  -23.5710  -23.0684   21.7672 O   0  0  0  0  0  0
  -21.5459  -20.9491   23.0399 O   0  0  0  0  0  0
  -31.4783  -12.3800   19.1086 H   0  0  0  0  0  0
  -30.3400  -11.2732   19.8431 H   0  0  0  0  0  0
  -29.7148  -11.6709   17.4481 H   0  0  0  0  0  0
  -29.6774  -13.3891   17.6943 H   0  0  0  0  0  0
  -27.8195  -11.2707   18.8414 H   0  0  0  0  0  0
  -27.3579  -12.5715   17.7795 H   0  0  0  0  0  0
  -27.6410  -14.2125   19.5133 H   0  0  0  0  0  0
  -28.6777  -12.0233   21.4030 H   0  0  0  0  0  0
  -28.5063  -13.7224   21.7871 H   0  0  0  0  0  0
  -25.2664   -9.5719   22.4772 H   0  0  0  0  0  0
  -23.9957   -7.4630   22.7481 H   0  0  0  0  0  0
  -21.0766   -8.8718   19.8973 H   0  0  0  0  0  0
  -22.3569  -10.9647   19.6162 H   0  0  0  0  0  0
  -21.2028   -7.6113   23.9692 H   0  0  0  0  0  0
  -21.1496   -6.0490   25.9062 H   0  0  0  0  0  0
  -22.0600   -2.7581   23.2840 H   0  0  0  0  0  0
  -22.3966  -11.9978   22.4863 H   0  0  0  0  0  0
  -21.1027  -13.1356   22.2513 H   0  0  0  0  0  0
  -24.6695  -15.8373   20.5091 H   0  0  0  0  0  0
  -26.3027  -15.6278   20.1331 H   0  0  0  0  0  0
  -26.7116  -32.5585   23.1205 H   0  0  0  0  0  0
  -25.0154  -33.9808   25.0575 H   0  0  0  0  0  0
  -22.6775  -31.3044   21.4161 H   0  0  0  0  0  0
  -23.3733  -35.9666   23.3294 H   0  0  0  0  0  0
  -24.3576  -36.8908   22.2037 H   0  0  0  0  0  0
  -23.7233  -37.6534   23.6623 H   0  0  0  0  0  0
  -26.0205  -31.6134   20.5907 H   0  0  0  0  0  0
  -26.8107  -30.9071   21.9734 H   0  0  0  0  0  0
  -28.0908  -29.1490   21.1661 H   0  0  0  0  0  0
  -26.1078  -25.9927   19.0059 H   0  0  0  0  0  0
  -23.9850  -27.2824   19.0425 H   0  0  0  0  0  0
  -23.7051  -30.5939   19.4057 H   0  0  0  0  0  0
  -22.7276  -29.2361   19.8774 H   0  0  0  0  0  0
  -25.1287  -36.2002   25.0841 H   0  0  0  0  0  0
  -20.9935  -28.3302   24.1477 H   0  0  0  0  0  0
  -20.5634  -26.2294   23.3752 H   0  0  0  0  0  0
  -21.6709  -26.7396   22.1415 H   0  0  0  0  0  0
  -19.7044  -25.6294   21.1272 H   0  0  0  0  0  0
  -19.6816  -27.3178   20.6822 H   0  0  0  0  0  0
  -17.4307  -26.6647   21.3944 H   0  0  0  0  0  0
  -18.0278  -26.0047   22.8979 H   0  0  0  0  0  0
  -19.7876  -30.7248   24.2309 H   0  0  0  0  0  0
  -17.4920  -31.6188   24.5206 H   0  0  0  0  0  0
  -15.5303  -30.2924   23.7579 H   0  0  0  0  0  0
  -15.8679  -28.0754   22.7028 H   0  0  0  0  0  0
  -24.5954  -30.7033   25.7829 H   0  0  0  0  0  0
  -24.8952  -32.2874   26.4896 H   0  0  0  0  0  0
  -25.8135  -30.8912   27.0239 H   0  0  0  0  0  0
  -26.2846  -29.6794   24.1122 H   0  0  0  0  0  0
  -27.4081  -29.7255   25.4502 H   0  0  0  0  0  0
  -27.8656  -30.4344   23.9190 H   0  0  0  0  0  0
  -27.2707  -33.3601   26.2086 H   0  0  0  0  0  0
  -28.3867  -32.6863   25.0309 H   0  0  0  0  0  0
  -28.0740  -31.8409   26.5368 H   0  0  0  0  0  0
  -28.2623  -38.0102   24.7522 H   0  0  0  0  0  0
  -28.1068  -36.2629   24.6289 H   0  0  0  0  0  0
  -27.2302  -37.1491   25.8863 H   0  0  0  0  0  0
  -20.9284  -29.8591   21.6845 H   0  0  0  0  0  0
  -26.0180  -38.2875   24.1393 H   0  0  0  0  0  0
  -28.6542  -18.8638   22.5082 H   0  0  0  0  0  0
  -27.2513  -19.8537   20.7148 H   0  0  0  0  0  0
  -29.9307  -16.7811   22.1208 H   0  0  0  0  0  0
  -28.4639  -16.6934   18.0516 H   0  0  0  0  0  0
  -25.1629  -20.3006   16.6186 H   0  0  0  0  0  0
  -24.4572  -18.7155   16.8586 H   0  0  0  0  0  0
  -22.8342  -20.5855   17.0660 H   0  0  0  0  0  0
  -23.6746  -21.2143   18.4710 H   0  0  0  0  0  0
  -29.7928  -25.8831   21.2152 H   0  0  0  0  0  0
  -28.4622  -26.5698   22.1214 H   0  0  0  0  0  0
  -28.6285  -23.9004   21.6694 H   0  0  0  0  0  0
  -27.9214  -24.3277   20.1227 H   0  0  0  0  0  0
  -21.1669  -20.6526   19.1798 H   0  0  0  0  0  0
  -20.9542  -19.5738   17.8150 H   0  0  0  0  0  0
  -21.0994  -17.6061   19.6009 H   0  0  0  0  0  0
  -19.6326  -18.5010   19.3403 H   0  0  0  0  0  0
  -25.6188  -23.6690   20.4794 H   0  0  0  0  0  0
  -26.4170  -22.6755   21.6875 H   0  0  0  0  0  0
  -24.4002  -24.7764   22.5601 H   0  0  0  0  0  0
  -24.8541  -23.3034   23.3993 H   0  0  0  0  0  0
  -21.4669  -18.3762   22.8039 H   0  0  0  0  0  0
  -22.4481  -18.1785   21.3763 H   0  0  0  0  0  0
  -22.5581  -20.7639   21.2304 H   0  0  0  0  0  0
  -23.3562  -20.0562   22.6288 H   0  0  0  0  0  0
  -22.2389  -24.2230   22.8573 H   0  0  0  0  0  0
  -21.5186  -23.1603   21.6921 H   0  0  0  0  0  0
  -21.3665  -22.5635   24.2325 H   0  0  0  0  0  0
  -23.0079  -21.9909   24.1163 H   0  0  0  0  0  0
  -29.2998  -14.8310   19.0418 H   0  0  0  0  0  0
  -25.4033  -19.3747   19.3714 H   0  0  0  0  0  0
  1 25  1  0  0  0
  1 30  2  0  0  0
  1 90  1  0  0  0
  2  3  1  0  0  0
  2 25  1  0  0  0
  2 98  1  0  0  0
  2 99  1  0  0  0
  3  4  1  0  0  0
  3100  1  0  0  0
  3101  1  0  0  0
  4  5  1  0  0  0
  4102  1  0  0  0
  4103  1  0  0  0
  5  6  1  0  0  0
  5 26  1  0  0  0
  5104  1  0  0  0
  6 25  1  0  0  0
  6105  1  0  0  0
  6106  1  0  0  0
  7  8  2  0  0  0
  7 26  1  0  0  0
  7 29  1  0  0  0
  8  9  1  0  0  0
  8 22  1  0  0  0
  9 10  1  0  0  0
  9 27  2  0  0  0
 10 11  2  0  0  0
 10 15  1  0  0  0
 11 12  1  0  0  0
 11107  1  0  0  0
 12 13  2  0  0  0
 12108  1  0  0  0
 13 14  1  0  0  0
 13 31  1  0  0  0
 14 15  2  0  0  0
 14109  1  0  0  0
 15110  1  0  0  0
 16 17  2  0  0  0
 16 21  1  0  0  0
 16 31  1  0  0  0
 17 18  1  0  0  0
 17111  1  0  0  0
 18 19  2  0  0  0
 18112  1  0  0  0
 19 20  1  0  0  0
 19 24  1  0  0  0
 20 21  2  0  0  0
 20113  1  0  0  0
 21 23  1  0  0  0
 22 28  1  0  0  0
 22 32  2  0  0  0
 26 27  1  0  0  0
 28114  1  0  0  0
 28115  1  0  0  0
 29116  1  0  0  0
 29117  1  0  0  0
 33 34  1  0  0  0
 33 66  1  0  0  0
 33 70  2  0  0  0
 34 36  1  0  0  0
 34 59  1  0  0  0
 34118  1  0  0  0
 35 44  2  0  0  0
 35 45  1  0  0  0
 35 68  1  0  0  0
 36 56  1  0  0  0
 36119  1  0  0  0
 37 39  1  0  0  0
 37 47  1  0  0  0
 37 66  1  0  0  0
 37120  1  0  0  0
 38 43  2  0  0  0
 38 46  1  0  0  0
 38 47  1  0  0  0
 39 64  1  0  0  0
 39 67  2  0  0  0
 40 52  1  0  0  0
 40 53  2  0  0  0
 40 58  1  0  0  0
 41121  1  0  0  0
 41122  1  0  0  0
 41123  1  0  0  0
 41 48  1  0  0  0
 42 43  1  0  0  0
 42 66  1  0  0  0
 42124  1  0  0  0
 42125  1  0  0  0
 43 44  1  0  0  0
 44126  1  0  0  0
 45 46  2  0  0  0
 45127  1  0  0  0
 46128  1  0  0  0
 47129  1  0  0  0
 47130  1  0  0  0
 48 56  1  0  0  0
 48 65  1  0  0  0
 48131  1  0  0  0
 49 50  1  0  0  0
 49 53  1  0  0  0
 49 64  1  0  0  0
 49132  1  0  0  0
 50 51  1  0  0  0
 50133  1  0  0  0
 50134  1  0  0  0
 51 52  1  0  0  0
 51135  1  0  0  0
 51136  1  0  0  0
 52137  1  0  0  0
 52138  1  0  0  0
 53 54  1  0  0  0
 54 55  2  0  0  0
 54139  1  0  0  0
 55 57  1  0  0  0
 55140  1  0  0  0
 56 69  2  0  0  0
 57 58  2  0  0  0
 57141  1  0  0  0
 58142  1  0  0  0
 59 60  1  0  0  0
 59 61  1  0  0  0
 59 62  1  0  0  0
 60143  1  0  0  0
 60144  1  0  0  0
 60145  1  0  0  0
 61146  1  0  0  0
 61147  1  0  0  0
 61148  1  0  0  0
 62149  1  0  0  0
 62150  1  0  0  0
 62151  1  0  0  0
 63 65  1  0  0  0
 63152  1  0  0  0
 63153  1  0  0  0
 63154  1  0  0  0
 64155  1  0  0  0
 65156  1  0  0  0
 68 80  1  0  0  0
 71 72  2  0  0  0
 71 73  1  0  0  0
 71157  1  0  0  0
 72 75  1  0  0  0
 72158  1  0  0  0
 73 76  2  0  0  0
 73159  1  0  0  0
 74 75  2  0  0  0
 74 76  1  0  0  0
 74160  1  0  0  0
 75 77  1  0  0  0
 76 90  1  0  0  0
 77 91  1  0  0  0
 77 92  2  0  0  0
 78 79  1  0  0  0
 78 91  1  0  0  0
 78161  1  0  0  0
 78162  1  0  0  0
 79 93  1  0  0  0
 79163  1  0  0  0
 79164  1  0  0  0
 80 81  1  0  0  0
 80165  1  0  0  0
 80166  1  0  0  0
 81 94  1  0  0  0
 81167  1  0  0  0
 81168  1  0  0  0
 82 83  1  0  0  0
 82 93  1  0  0  0
 82169  1  0  0  0
 82170  1  0  0  0
 83 95  1  0  0  0
 83171  1  0  0  0
 83172  1  0  0  0
 84 85  1  0  0  0
 84 94  1  0  0  0
 84173  1  0  0  0
 84174  1  0  0  0
 85 96  1  0  0  0
 85175  1  0  0  0
 85176  1  0  0  0
 86 87  1  0  0  0
 86 95  1  0  0  0
 86177  1  0  0  0
 86178  1  0  0  0
 87 97  1  0  0  0
 87179  1  0  0  0
 87180  1  0  0  0
 88 89  1  0  0  0
 88 96  1  0  0  0
 88181  1  0  0  0
 88182  1  0  0  0
 89 97  1  0  0  0
 89183  1  0  0  0
 89184  1  0  0  0
 90185  1  0  0  0
 91186  1  0  0  0
M  ISO  4   1 100  68 101  80 101  90 100
M  END
> <chiral flag>
0

> <version>
0

> <s_m_source_file>
/data/baiqing/PycharmProjects/Reinvent-master-3.2/result/LINK_invent/BTK/process_docking_weight1_custom_sum_contain_oxygen_bond_distance_aromatic_linkinvent_7_9_3/rearranged_h_0000.sdf

> <i_m_source_file_index>
6

> <r_mmod_Potential_Energy-OPLS-2005>
-18.7015113830566

> <r_mmod_Stretch_Energy-OPLS-2005>
33.5549240112305

> <r_mmod_Bend_Energy-OPLS-2005>
122.875297546387

> <r_mmod_Torsional_Energy-OPLS-2005>
319.722259521484

> <r_mmod_Improper_Torsional_Energy-OPLS-2005>
30.5362796783447

> <r_mmod_Van_der_Waal_Energy-OPLS-2005>
125.284576416016

> <r_mmod_Electrostatic_Energy-OPLS-2005>
-421.044067382812

> <r_mmod_Solvation_Energy-OPLS-2005>
-258.328979492188

> <b_mmod_Minimization_Converged-OPLS-2005>
0

> <r_mmod_RMS_Derivative-OPLS-2005>
3.86928725242615

$$$$
6
                    3D
 Structure written by MMmdl.
150157  0  0  1  0            999 V2000
  -30.6252  -14.6883   20.4813 C   0  0  0  0  0  0
  -30.4338  -12.4235   19.4557 C   0  0  0  0  0  0
  -29.5070  -12.5028   18.2232 C   0  0  0  0  0  0
  -28.0315  -12.3358   18.6383 C   0  0  0  0  0  0
  -27.6454  -13.2249   19.8514 C   0  0  2  0  0  0
  -28.6917  -13.1265   20.9826 C   0  0  0  0  0  0
  -25.2528  -13.8188   20.5686 C   0  0  0  0  0  0
  -24.1808  -13.0442   20.9197 C   0  0  0  0  0  0
  -24.6390  -11.6916   20.8740 C   0  0  0  0  0  0
  -23.9069  -10.4293   21.0406 C   0  0  0  0  0  0
  -24.3624   -9.4206   21.9184 C   0  0  0  0  0  0
  -23.6294   -8.2242   22.0754 C   0  0  0  0  0  0
  -22.4276   -8.0283   21.3544 C   0  0  0  0  0  0
  -21.9910   -9.0258   20.4648 C   0  0  0  0  0  0
  -22.7243  -10.2136   20.3053 C   0  0  0  0  0  0
  -21.6855   -6.0738   22.5277 C   0  0  0  0  0  0
  -21.4018   -6.5638   23.8215 C   0  0  0  0  0  0
  -21.3658   -5.6789   24.9173 C   0  0  0  0  0  0
  -21.6041   -4.3050   24.7222 C   0  0  0  0  0  0
  -21.8820   -3.8146   23.4340 C   0  0  0  0  0  0
  -21.9195   -4.6963   22.3400 C   0  0  0  0  0  0
  -22.7830  -13.5228   21.1854 C   0  0  0  0  0  0
  -22.1660   -4.2149   21.0976 F   0  0  0  0  0  0
  -21.5629   -3.4534   25.7736 F   0  0  0  0  0  0
  -29.9964  -13.4705   20.4022 N   0  0  0  0  0  0
  -26.2952  -12.9383   20.3277 N   0  0  0  0  0  0
  -25.9316  -11.6533   20.5739 N   0  0  0  0  0  0
  -22.0474  -12.8225   22.0416 N   0  0  0  0  0  0
  -25.4225  -15.1913   20.4104 N   0  0  0  0  0  0
  -31.8122  -14.8052   20.1669 O   0  0  0  0  0  0
  -21.6637   -6.8880   21.4241 O   0  0  0  0  0  0
  -22.3513  -14.5535   20.6699 O   0  0  0  0  0  0
  -24.6270  -31.8576   23.1995 C   0  0  0  0  0  0
  -25.9106  -32.4769   23.8337 C   0  0  1  0  0  0
  -27.2262  -27.2983   20.1344 C   0  0  0  0  0  0
  -25.5914  -33.8571   24.2264 N   0  0  0  0  0  0
  -23.4229  -30.4781   21.5422 C   0  0  2  0  0  0
  -24.8716  -28.9228   20.1163 C   0  0  0  0  0  0
  -22.7479  -29.4608   22.4929 C   0  0  0  0  0  0
  -18.0286  -28.1387   22.8488 C   0  0  0  0  0  0
  -24.1489  -36.7290   23.2639 C   0  0  0  0  0  0
  -25.9641  -30.7831   21.3718 C   0  0  0  0  0  0
  -26.0406  -29.4058   20.7192 C   0  0  0  0  0  0
  -27.2242  -28.6071   20.7127 C   0  0  0  0  0  0
  -26.0370  -26.8637   19.5150 C   0  0  0  0  0  0
  -24.8721  -27.6577   19.5045 C   0  0  0  0  0  0
  -23.6406  -29.8068   20.1599 C   0  0  0  0  0  0
  -25.4115  -36.3079   24.0327 C   0  0  1  0  0  0
  -20.5885  -28.3690   23.1285 C   0  0  2  0  0  0
  -20.6777  -26.9413   22.5413 C   0  0  0  0  0  0
  -19.5755  -26.6385   21.5215 C   0  0  0  0  0  0
  -18.1935  -26.7930   22.1626 C   0  0  0  0  0  0
  -19.1538  -28.8855   23.2883 C   0  0  0  0  0  0
  -18.9459  -30.1457   23.8901 C   0  0  0  0  0  0
  -17.6460  -30.6590   24.0560 C   0  0  0  0  0  0
  -25.9050  -34.9448   23.5100 C   0  0  0  0  0  0
  -16.5351  -29.9087   23.6328 C   0  0  0  0  0  0
  -16.7274  -28.6502   23.0354 C   0  0  0  0  0  0
  -26.4490  -31.6586   25.0714 C   0  0  0  0  0  0
  -25.3722  -31.3728   26.1440 C   0  0  0  0  0  0
  -27.0328  -30.3008   24.6169 C   0  0  0  0  0  0
  -27.6047  -32.4325   25.7488 C   0  0  0  0  0  0
  -27.5578  -37.1802   24.8465 C   0  0  0  0  0  0
  -21.4190  -29.3041   22.3675 N   0  0  0  0  0  0
  -26.4292  -37.3774   23.9408 N   0  0  0  0  0  0
  -24.6904  -31.0567   22.0951 N   0  0  0  0  0  0
  -23.4191  -28.8155   23.3024 O   0  0  0  0  0  0
  -28.3407  -26.4449   20.1292 O   0  0  0  0  0  0
  -26.5622  -34.8918   22.4669 O   0  0  0  0  0  0
  -23.5430  -32.1378   23.7312 O   0  0  0  0  0  0
  -29.3901  -18.4411   20.2863 C   0  0  0  0  0  0
  -28.6693  -23.7546   19.9436 C   0  0  0  0  0  0
  -30.2543  -17.2489   20.9403 C   0  0  0  0  0  0
  -29.5858  -19.9433   20.8393 C   0  0  0  0  0  0
  -28.2078  -25.0840   20.7238 C   0  0  0  0  0  0
  -28.8816  -22.3943   20.7837 C   0  0  0  0  0  0
  -29.8465  -15.7982   20.7341 N   0  0  0  0  0  0
  -29.0350  -21.0953   20.0840 O   0  0  0  0  0  0
  -31.4749  -12.5484   19.1524 H   0  0  0  0  0  0
  -30.3733  -11.4395   19.9230 H   0  0  0  0  0  0
  -29.7806  -11.7374   17.4955 H   0  0  0  0  0  0
  -29.6420  -13.4627   17.7227 H   0  0  0  0  0  0
  -27.8782  -11.2855   18.8885 H   0  0  0  0  0  0
  -27.3762  -12.5438   17.7918 H   0  0  0  0  0  0
  -27.6497  -14.2523   19.4870 H   0  0  0  0  0  0
  -28.7146  -12.1195   21.4020 H   0  0  0  0  0  0
  -28.4350  -13.7933   21.8073 H   0  0  0  0  0  0
  -25.2775   -9.5681   22.4751 H   0  0  0  0  0  0
  -24.0005   -7.4634   22.7471 H   0  0  0  0  0  0
  -21.0843   -8.8780   19.8953 H   0  0  0  0  0  0
  -22.3707  -10.9673   19.6156 H   0  0  0  0  0  0
  -21.2010   -7.6147   23.9717 H   0  0  0  0  0  0
  -21.1481   -6.0518   25.9078 H   0  0  0  0  0  0
  -22.0601   -2.7607   23.2839 H   0  0  0  0  0  0
  -22.4095  -11.9895   22.4816 H   0  0  0  0  0  0
  -21.1089  -13.1249   22.2616 H   0  0  0  0  0  0
  -24.6541  -15.8444   20.5198 H   0  0  0  0  0  0
  -26.2673  -15.6313   20.0688 H   0  0  0  0  0  0
  -26.7171  -32.5438   23.1084 H   0  0  0  0  0  0
  -25.0060  -33.9714   25.0406 H   0  0  0  0  0  0
  -22.7175  -31.2988   21.3948 H   0  0  0  0  0  0
  -23.3752  -35.9622   23.3308 H   0  0  0  0  0  0
  -24.3578  -36.8907   22.2053 H   0  0  0  0  0  0
  -23.7243  -37.6493   23.6660 H   0  0  0  0  0  0
  -26.0932  -31.5431   20.5999 H   0  0  0  0  0  0
  -26.8451  -30.8371   22.0003 H   0  0  0  0  0  0
  -28.1249  -28.9757   21.1834 H   0  0  0  0  0  0
  -26.0073  -25.8915   19.0433 H   0  0  0  0  0  0
  -23.9758  -27.2810   19.0311 H   0  0  0  0  0  0
  -23.7635  -30.5805   19.4013 H   0  0  0  0  0  0
  -22.7605  -29.2370   19.8569 H   0  0  0  0  0  0
  -25.1298  -36.1931   25.0820 H   0  0  0  0  0  0
  -20.9978  -28.3269   24.1405 H   0  0  0  0  0  0
  -20.5687  -26.2297   23.3611 H   0  0  0  0  0  0
  -21.6646  -26.7451   22.1201 H   0  0  0  0  0  0
  -19.6917  -25.6295   21.1249 H   0  0  0  0  0  0
  -19.6695  -27.3191   20.6743 H   0  0  0  0  0  0
  -17.4203  -26.6673   21.4030 H   0  0  0  0  0  0
  -18.0337  -26.0074   22.9025 H   0  0  0  0  0  0
  -19.7936  -30.7270   24.2275 H   0  0  0  0  0  0
  -17.5016  -31.6272   24.5159 H   0  0  0  0  0  0
  -15.5354  -30.2991   23.7650 H   0  0  0  0  0  0
  -15.8673  -28.0821   22.7073 H   0  0  0  0  0  0
  -24.5896  -30.7077   25.7772 H   0  0  0  0  0  0
  -24.8910  -32.2891   26.4869 H   0  0  0  0  0  0
  -25.8043  -30.8904   27.0215 H   0  0  0  0  0  0
  -26.2893  -29.6769   24.1189 H   0  0  0  0  0  0
  -27.4018  -29.7260   25.4675 H   0  0  0  0  0  0
  -27.8772  -30.4298   23.9393 H   0  0  0  0  0  0
  -27.2654  -33.3628   26.2060 H   0  0  0  0  0  0
  -28.3860  -32.6882   25.0317 H   0  0  0  0  0  0
  -28.0709  -31.8451   26.5409 H   0  0  0  0  0  0
  -28.2601  -38.0095   24.7505 H   0  0  0  0  0  0
  -28.1070  -36.2624   24.6303 H   0  0  0  0  0  0
  -27.2292  -37.1466   25.8867 H   0  0  0  0  0  0
  -20.9368  -29.8749   21.6871 H   0  0  0  0  0  0
  -26.0174  -38.2850   24.1407 H   0  0  0  0  0  0
  -28.3323  -18.1932   20.3746 H   0  0  0  0  0  0
  -29.5957  -18.4440   19.2158 H   0  0  0  0  0  0
  -29.6044  -23.9722   19.4271 H   0  0  0  0  0  0
  -27.9408  -23.5647   19.1551 H   0  0  0  0  0  0
  -30.2631  -17.4005   22.0202 H   0  0  0  0  0  0
  -31.2939  -17.3713   20.6317 H   0  0  0  0  0  0
  -30.6539  -20.1294   20.9605 H   0  0  0  0  0  0
  -29.1688  -19.9755   21.8468 H   0  0  0  0  0  0
  -28.7980  -25.1282   21.6394 H   0  0  0  0  0  0
  -27.1853  -24.9316   21.0723 H   0  0  0  0  0  0
  -28.0405  -22.2810   21.4689 H   0  0  0  0  0  0
  -29.7578  -22.5342   21.4186 H   0  0  0  0  0  0
  -28.8740  -15.5927   20.9077 H   0  0  0  0  0  0
  1 25  1  0  0  0
  1 30  2  0  0  0
  1 77  1  0  0  0
  2  3  1  0  0  0
  2 25  1  0  0  0
  2 79  1  0  0  0
  2 80  1  0  0  0
  3  4  1  0  0  0
  3 81  1  0  0  0
  3 82  1  0  0  0
  4  5  1  0  0  0
  4 83  1  0  0  0
  4 84  1  0  0  0
  5  6  1  0  0  0
  5 26  1  0  0  0
  5 85  1  0  0  0
  6 25  1  0  0  0
  6 86  1  0  0  0
  6 87  1  0  0  0
  7  8  2  0  0  0
  7 26  1  0  0  0
  7 29  1  0  0  0
  8  9  1  0  0  0
  8 22  1  0  0  0
  9 10  1  0  0  0
  9 27  2  0  0  0
 10 11  2  0  0  0
 10 15  1  0  0  0
 11 12  1  0  0  0
 11 88  1  0  0  0
 12 13  2  0  0  0
 12 89  1  0  0  0
 13 14  1  0  0  0
 13 31  1  0  0  0
 14 15  2  0  0  0
 14 90  1  0  0  0
 15 91  1  0  0  0
 16 17  2  0  0  0
 16 21  1  0  0  0
 16 31  1  0  0  0
 17 18  1  0  0  0
 17 92  1  0  0  0
 18 19  2  0  0  0
 18 93  1  0  0  0
 19 20  1  0  0  0
 19 24  1  0  0  0
 20 21  2  0  0  0
 20 94  1  0  0  0
 21 23  1  0  0  0
 22 28  1  0  0  0
 22 32  2  0  0  0
 26 27  1  0  0  0
 28 95  1  0  0  0
 28 96  1  0  0  0
 29 97  1  0  0  0
 29 98  1  0  0  0
 33 34  1  0  0  0
 33 66  1  0  0  0
 33 70  2  0  0  0
 34 36  1  0  0  0
 34 59  1  0  0  0
 34 99  1  0  0  0
 35 44  2  0  0  0
 35 45  1  0  0  0
 35 68  1  0  0  0
 36 56  1  0  0  0
 36100  1  0  0  0
 37 39  1  0  0  0
 37 47  1  0  0  0
 37 66  1  0  0  0
 37101  1  0  0  0
 38 43  2  0  0  0
 38 46  1  0  0  0
 38 47  1  0  0  0
 39 64  1  0  0  0
 39 67  2  0  0  0
 40 52  1  0  0  0
 40 53  2  0  0  0
 40 58  1  0  0  0
 41102  1  0  0  0
 41103  1  0  0  0
 41104  1  0  0  0
 41 48  1  0  0  0
 42 43  1  0  0  0
 42 66  1  0  0  0
 42105  1  0  0  0
 42106  1  0  0  0
 43 44  1  0  0  0
 44107  1  0  0  0
 45 46  2  0  0  0
 45108  1  0  0  0
 46109  1  0  0  0
 47110  1  0  0  0
 47111  1  0  0  0
 48 56  1  0  0  0
 48 65  1  0  0  0
 48112  1  0  0  0
 49 50  1  0  0  0
 49 53  1  0  0  0
 49 64  1  0  0  0
 49113  1  0  0  0
 50 51  1  0  0  0
 50114  1  0  0  0
 50115  1  0  0  0
 51 52  1  0  0  0
 51116  1  0  0  0
 51117  1  0  0  0
 52118  1  0  0  0
 52119  1  0  0  0
 53 54  1  0  0  0
 54 55  2  0  0  0
 54120  1  0  0  0
 55 57  1  0  0  0
 55121  1  0  0  0
 56 69  2  0  0  0
 57 58  2  0  0  0
 57122  1  0  0  0
 58123  1  0  0  0
 59 60  1  0  0  0
 59 61  1  0  0  0
 59 62  1  0  0  0
 60124  1  0  0  0
 60125  1  0  0  0
 60126  1  0  0  0
 61127  1  0  0  0
 61128  1  0  0  0
 61129  1  0  0  0
 62130  1  0  0  0
 62131  1  0  0  0
 62132  1  0  0  0
 63 65  1  0  0  0
 63133  1  0  0  0
 63134  1  0  0  0
 63135  1  0  0  0
 64136  1  0  0  0
 65137  1  0  0  0
 68 75  1  0  0  0
 71 73  1  0  0  0
 71 74  1  0  0  0
 71138  1  0  0  0
 71139  1  0  0  0
 72 75  1  0  0  0
 72 76  1  0  0  0
 72140  1  0  0  0
 72141  1  0  0  0
 73 77  1  0  0  0
 73142  1  0  0  0
 73143  1  0  0  0
 74 78  1  0  0  0
 74144  1  0  0  0
 74145  1  0  0  0
 75146  1  0  0  0
 75147  1  0  0  0
 76 78  1  0  0  0
 76148  1  0  0  0
 76149  1  0  0  0
 77150  1  0  0  0
M  ISO  4   1 100  68 101  75 101  77 100
M  END
> <chiral flag>
0

> <version>
0

> <s_m_source_file>
/data/baiqing/PycharmProjects/Reinvent-master-3.2/result/LINK_invent/BTK/process_docking_weight1_custom_sum_contain_oxygen_bond_distance_aromatic_linkinvent_7_9_3/rearranged_h_0000.sdf

> <i_m_source_file_index>
7

> <r_mmod_Potential_Energy-OPLS-2005>
94.6526336669922

> <r_mmod_Stretch_Energy-OPLS-2005>
103.187034606934

> <r_mmod_Bend_Energy-OPLS-2005>
151.712387084961

> <r_mmod_Torsional_Energy-OPLS-2005>
225.690048217773

> <r_mmod_Improper_Torsional_Energy-OPLS-2005>
4.12854099273682

> <r_mmod_Van_der_Waal_Energy-OPLS-2005>
117.486457824707

> <r_mmod_Electrostatic_Energy-OPLS-2005>
-354.946533203125

> <r_mmod_Solvation_Energy-OPLS-2005>
-214.53239440918

> <b_mmod_Minimization_Converged-OPLS-2005>
0

> <r_mmod_RMS_Derivative-OPLS-2005>
0.831159591674805

$$$$
7
                    3D
 Structure written by MMmdl.
161168  0  0  1  0            999 V2000
  -30.6888  -14.4514   20.5205 C   0  0  0  0  0  0
  -30.4300  -12.2810   19.4136 C   0  0  0  0  0  0
  -29.4927  -12.4734   18.2022 C   0  0  0  0  0  0
  -28.0160  -12.3441   18.6279 C   0  0  0  0  0  0
  -27.6652  -13.1955   19.8781 C   0  0  2  0  0  0
  -28.7122  -12.9746   20.9933 C   0  0  0  0  0  0
  -25.2641  -13.8149   20.5731 C   0  0  0  0  0  0
  -24.1857  -13.0443   20.9215 C   0  0  0  0  0  0
  -24.6396  -11.6903   20.8796 C   0  0  0  0  0  0
  -23.9065  -10.4280   21.0450 C   0  0  0  0  0  0
  -24.3616   -9.4176   21.9212 C   0  0  0  0  0  0
  -23.6279   -8.2225   22.0778 C   0  0  0  0  0  0
  -22.4253   -8.0293   21.3573 C   0  0  0  0  0  0
  -21.9911   -9.0281   20.4672 C   0  0  0  0  0  0
  -22.7250  -10.2146   20.3085 C   0  0  0  0  0  0
  -21.6825   -6.0745   22.5286 C   0  0  0  0  0  0
  -21.4000   -6.5655   23.8220 C   0  0  0  0  0  0
  -21.3654   -5.6810   24.9191 C   0  0  0  0  0  0
  -21.6043   -4.3078   24.7223 C   0  0  0  0  0  0
  -21.8813   -3.8165   23.4342 C   0  0  0  0  0  0
  -21.9177   -4.6983   22.3391 C   0  0  0  0  0  0
  -22.7871  -13.5272   21.1841 C   0  0  0  0  0  0
  -22.1663   -4.2173   21.0973 F   0  0  0  0  0  0
  -21.5613   -3.4558   25.7731 F   0  0  0  0  0  0
  -30.0361  -13.2681   20.4256 N   0  0  0  0  0  0
  -26.3074  -12.9293   20.3455 N   0  0  0  0  0  0
  -25.9334  -11.6468   20.5852 N   0  0  0  0  0  0
  -22.0492  -12.8278   22.0392 N   0  0  0  0  0  0
  -25.4386  -15.1859   20.4101 N   0  0  0  0  0  0
  -31.8561  -14.6174   20.1663 O   0  0  0  0  0  0
  -21.6605   -6.8898   21.4247 O   0  0  0  0  0  0
  -22.3553  -14.5566   20.6671 O   0  0  0  0  0  0
  -24.6116  -31.8693   23.2127 C   0  0  0  0  0  0
  -25.9009  -32.4833   23.8434 C   0  0  1  0  0  0
  -27.2459  -27.4676   20.0884 C   0  0  0  0  0  0
  -25.5871  -33.8626   24.2358 N   0  0  0  0  0  0
  -23.3995  -30.4941   21.5511 C   0  0  2  0  0  0
  -24.8465  -28.9614   20.1161 C   0  0  0  0  0  0
  -22.7377  -29.4695   22.4989 C   0  0  0  0  0  0
  -18.0271  -28.1394   22.8486 C   0  0  0  0  0  0
  -24.1482  -36.7336   23.2634 C   0  0  0  0  0  0
  -25.9236  -30.8453   21.3610 C   0  0  0  0  0  0
  -26.0031  -29.4816   20.7088 C   0  0  0  0  0  0
  -27.2051  -28.7423   20.6897 C   0  0  0  0  0  0
  -26.0692  -26.9508   19.4975 C   0  0  0  0  0  0
  -24.8728  -27.6923   19.5105 C   0  0  0  0  0  0
  -23.6055  -29.8227   20.1669 C   0  0  0  0  0  0
  -25.4097  -36.3126   24.0347 C   0  0  1  0  0  0
  -20.5849  -28.3692   23.1302 C   0  0  2  0  0  0
  -20.6772  -26.9428   22.5409 C   0  0  0  0  0  0
  -19.5761  -26.6412   21.5191 C   0  0  0  0  0  0
  -18.1937  -26.7949   22.1603 C   0  0  0  0  0  0
  -19.1512  -28.8851   23.2905 C   0  0  0  0  0  0
  -18.9449  -30.1451   23.8929 C   0  0  0  0  0  0
  -17.6456  -30.6607   24.0564 C   0  0  0  0  0  0
  -25.9022  -34.9473   23.5153 C   0  0  0  0  0  0
  -16.5346  -29.9115   23.6318 C   0  0  0  0  0  0
  -16.7258  -28.6521   23.0350 C   0  0  0  0  0  0
  -26.4458  -31.6602   25.0749 C   0  0  0  0  0  0
  -25.3755  -31.3667   26.1524 C   0  0  0  0  0  0
  -27.0273  -30.3051   24.6089 C   0  0  0  0  0  0
  -27.6063  -32.4309   25.7475 C   0  0  0  0  0  0
  -27.5590  -37.1797   24.8441 C   0  0  0  0  0  0
  -21.4104  -29.3057   22.3694 N   0  0  0  0  0  0
  -26.4275  -37.3815   23.9428 N   0  0  0  0  0  0
  -24.6629  -31.0828   22.1010 N   0  0  0  0  0  0
  -23.4139  -28.8233   23.3041 O   0  0  0  0  0  0
  -28.4421  -26.7863   20.0877 O   0  0  0  0  0  0
  -26.5590  -34.8911   22.4721 O   0  0  0  0  0  0
  -23.5316  -32.1423   23.7539 O   0  0  0  0  0  0
  -29.6718  -24.7846   20.6765 C   0  0  0  0  0  0
  -29.4534  -16.2986   21.6245 C   0  0  0  0  0  0
  -28.3805  -25.3640   20.0733 C   0  0  0  0  0  0
  -30.7497  -24.4430   19.6393 C   0  0  0  0  0  0
  -28.6692  -17.5130   21.1008 C   0  0  0  0  0  0
  -31.2128  -22.6671   18.1037 C   0  0  0  0  0  0
  -28.4843  -18.8710   19.1599 C   0  0  0  0  0  0
  -30.5243  -21.4548   17.4574 C   0  0  0  0  0  0
  -29.2632  -19.5032   17.9959 C   0  0  0  0  0  0
  -29.8736  -15.5071   20.4788 N   0  0  0  0  0  0
  -30.2382  -23.3707   18.8602 O   0  0  0  0  0  0
  -29.3383  -18.0597   19.9636 O   0  0  0  0  0  0
  -30.0122  -20.6104   18.4852 O   0  0  0  0  0  0
  -31.4735  -12.3897   19.1088 H   0  0  0  0  0  0
  -30.3405  -11.2714   19.8178 H   0  0  0  0  0  0
  -29.7221  -11.7413   17.4275 H   0  0  0  0  0  0
  -29.6657  -13.4516   17.7506 H   0  0  0  0  0  0
  -27.8292  -11.2914   18.8435 H   0  0  0  0  0  0
  -27.3595  -12.6027   17.7983 H   0  0  0  0  0  0
  -27.7068  -14.2394   19.5718 H   0  0  0  0  0  0
  -28.6897  -11.9426   21.3454 H   0  0  0  0  0  0
  -28.4983  -13.5877   21.8680 H   0  0  0  0  0  0
  -25.2775   -9.5614   22.4782 H   0  0  0  0  0  0
  -23.9967   -7.4610   22.7494 H   0  0  0  0  0  0
  -21.0855   -8.8842   19.8972 H   0  0  0  0  0  0
  -22.3771  -10.9712   19.6190 H   0  0  0  0  0  0
  -21.2011   -7.6165   23.9746 H   0  0  0  0  0  0
  -21.1477   -6.0538   25.9105 H   0  0  0  0  0  0
  -22.0588   -2.7624   23.2834 H   0  0  0  0  0  0
  -22.4077  -11.9941   22.4780 H   0  0  0  0  0  0
  -21.1134  -13.1353   22.2628 H   0  0  0  0  0  0
  -24.6727  -15.8434   20.5087 H   0  0  0  0  0  0
  -26.2984  -15.6138   20.0933 H   0  0  0  0  0  0
  -26.7077  -32.5560   23.1202 H   0  0  0  0  0  0
  -24.9994  -33.9787   25.0484 H   0  0  0  0  0  0
  -22.6898  -31.3119   21.4121 H   0  0  0  0  0  0
  -23.3738  -35.9669   23.3266 H   0  0  0  0  0  0
  -24.3585  -36.8990   22.2052 H   0  0  0  0  0  0
  -23.7217  -37.6528   23.6666 H   0  0  0  0  0  0
  -26.0314  -31.6111   20.5924 H   0  0  0  0  0  0
  -26.8114  -30.9002   21.9784 H   0  0  0  0  0  0
  -28.1019  -29.1448   21.1400 H   0  0  0  0  0  0
  -26.0666  -25.9860   19.0141 H   0  0  0  0  0  0
  -23.9830  -27.2838   19.0527 H   0  0  0  0  0  0
  -23.7068  -30.5952   19.4046 H   0  0  0  0  0  0
  -22.7319  -29.2382   19.8777 H   0  0  0  0  0  0
  -25.1258  -36.2004   25.0838 H   0  0  0  0  0  0
  -20.9949  -28.3293   24.1417 H   0  0  0  0  0  0
  -20.5686  -26.2300   23.3603 H   0  0  0  0  0  0
  -21.6655  -26.7501   22.1202 H   0  0  0  0  0  0
  -19.6931  -25.6323   21.1233 H   0  0  0  0  0  0
  -19.6717  -27.3213   20.6714 H   0  0  0  0  0  0
  -17.4211  -26.6674   21.4011 H   0  0  0  0  0  0
  -18.0350  -26.0088   22.8997 H   0  0  0  0  0  0
  -19.7925  -30.7239   24.2338 H   0  0  0  0  0  0
  -17.5026  -31.6287   24.5173 H   0  0  0  0  0  0
  -15.5352  -30.3037   23.7644 H   0  0  0  0  0  0
  -15.8647  -28.0855   22.7069 H   0  0  0  0  0  0
  -24.5941  -30.6989   25.7869 H   0  0  0  0  0  0
  -24.8917  -32.2790   26.5025 H   0  0  0  0  0  0
  -25.8160  -30.8822   27.0248 H   0  0  0  0  0  0
  -26.2785  -29.6809   24.1194 H   0  0  0  0  0  0
  -27.4099  -29.7297   25.4528 H   0  0  0  0  0  0
  -27.8606  -30.4375   23.9182 H   0  0  0  0  0  0
  -27.2728  -33.3605   26.2098 H   0  0  0  0  0  0
  -28.3839  -32.6874   25.0266 H   0  0  0  0  0  0
  -28.0771  -31.8402   26.5345 H   0  0  0  0  0  0
  -28.2562  -38.0143   24.7590 H   0  0  0  0  0  0
  -28.1145  -36.2690   24.6150 H   0  0  0  0  0  0
  -27.2327  -37.1303   25.8841 H   0  0  0  0  0  0
  -20.9258  -29.8748   21.6888 H   0  0  0  0  0  0
  -26.0177  -38.2883   24.1496 H   0  0  0  0  0  0
  -29.4249  -23.8683   21.2124 H   0  0  0  0  0  0
  -30.0665  -25.4660   21.4319 H   0  0  0  0  0  0
  -30.3297  -16.6328   22.1814 H   0  0  0  0  0  0
  -28.8317  -15.7206   22.3094 H   0  0  0  0  0  0
  -27.5394  -25.0174   20.6763 H   0  0  0  0  0  0
  -28.2249  -25.0042   19.0546 H   0  0  0  0  0  0
  -31.6597  -24.1403   20.1621 H   0  0  0  0  0  0
  -31.0024  -25.3039   19.0190 H   0  0  0  0  0  0
  -28.5683  -18.2771   21.8730 H   0  0  0  0  0  0
  -27.6584  -17.1954   20.8341 H   0  0  0  0  0  0
  -31.6422  -23.3220   17.3421 H   0  0  0  0  0  0
  -32.0289  -22.3289   18.7430 H   0  0  0  0  0  0
  -27.6906  -18.2432   18.7537 H   0  0  0  0  0  0
  -28.0023  -19.6490   19.7548 H   0  0  0  0  0  0
  -31.2330  -20.9026   16.8401 H   0  0  0  0  0  0
  -29.7198  -21.7949   16.8042 H   0  0  0  0  0  0
  -28.5445  -19.8445   17.2483 H   0  0  0  0  0  0
  -29.9079  -18.7717   17.5065 H   0  0  0  0  0  0
  -30.1607  -16.1588   19.7598 H   0  0  0  0  0  0
  1 25  1  0  0  0
  1 30  2  0  0  0
  1 80  1  0  0  0
  2  3  1  0  0  0
  2 25  1  0  0  0
  2 84  1  0  0  0
  2 85  1  0  0  0
  3  4  1  0  0  0
  3 86  1  0  0  0
  3 87  1  0  0  0
  4  5  1  0  0  0
  4 88  1  0  0  0
  4 89  1  0  0  0
  5  6  1  0  0  0
  5 26  1  0  0  0
  5 90  1  0  0  0
  6 25  1  0  0  0
  6 91  1  0  0  0
  6 92  1  0  0  0
  7  8  2  0  0  0
  7 26  1  0  0  0
  7 29  1  0  0  0
  8  9  1  0  0  0
  8 22  1  0  0  0
  9 10  1  0  0  0
  9 27  2  0  0  0
 10 11  2  0  0  0
 10 15  1  0  0  0
 11 12  1  0  0  0
 11 93  1  0  0  0
 12 13  2  0  0  0
 12 94  1  0  0  0
 13 14  1  0  0  0
 13 31  1  0  0  0
 14 15  2  0  0  0
 14 95  1  0  0  0
 15 96  1  0  0  0
 16 17  2  0  0  0
 16 21  1  0  0  0
 16 31  1  0  0  0
 17 18  1  0  0  0
 17 97  1  0  0  0
 18 19  2  0  0  0
 18 98  1  0  0  0
 19 20  1  0  0  0
 19 24  1  0  0  0
 20 21  2  0  0  0
 20 99  1  0  0  0
 21 23  1  0  0  0
 22 28  1  0  0  0
 22 32  2  0  0  0
 26 27  1  0  0  0
 28100  1  0  0  0
 28101  1  0  0  0
 29102  1  0  0  0
 29103  1  0  0  0
 33 34  1  0  0  0
 33 66  1  0  0  0
 33 70  2  0  0  0
 34 36  1  0  0  0
 34 59  1  0  0  0
 34104  1  0  0  0
 35 44  2  0  0  0
 35 45  1  0  0  0
 35 68  1  0  0  0
 36 56  1  0  0  0
 36105  1  0  0  0
 37 39  1  0  0  0
 37 47  1  0  0  0
 37 66  1  0  0  0
 37106  1  0  0  0
 38 43  2  0  0  0
 38 46  1  0  0  0
 38 47  1  0  0  0
 39 64  1  0  0  0
 39 67  2  0  0  0
 40 52  1  0  0  0
 40 53  2  0  0  0
 40 58  1  0  0  0
 41107  1  0  0  0
 41108  1  0  0  0
 41109  1  0  0  0
 41 48  1  0  0  0
 42 43  1  0  0  0
 42 66  1  0  0  0
 42110  1  0  0  0
 42111  1  0  0  0
 43 44  1  0  0  0
 44112  1  0  0  0
 45 46  2  0  0  0
 45113  1  0  0  0
 46114  1  0  0  0
 47115  1  0  0  0
 47116  1  0  0  0
 48 56  1  0  0  0
 48 65  1  0  0  0
 48117  1  0  0  0
 49 50  1  0  0  0
 49 53  1  0  0  0
 49 64  1  0  0  0
 49118  1  0  0  0
 50 51  1  0  0  0
 50119  1  0  0  0
 50120  1  0  0  0
 51 52  1  0  0  0
 51121  1  0  0  0
 51122  1  0  0  0
 52123  1  0  0  0
 52124  1  0  0  0
 53 54  1  0  0  0
 54 55  2  0  0  0
 54125  1  0  0  0
 55 57  1  0  0  0
 55126  1  0  0  0
 56 69  2  0  0  0
 57 58  2  0  0  0
 57127  1  0  0  0
 58128  1  0  0  0
 59 60  1  0  0  0
 59 61  1  0  0  0
 59 62  1  0  0  0
 60129  1  0  0  0
 60130  1  0  0  0
 60131  1  0  0  0
 61132  1  0  0  0
 61133  1  0  0  0
 61134  1  0  0  0
 62135  1  0  0  0
 62136  1  0  0  0
 62137  1  0  0  0
 63 65  1  0  0  0
 63138  1  0  0  0
 63139  1  0  0  0
 63140  1  0  0  0
 64141  1  0  0  0
 65142  1  0  0  0
 68 73  1  0  0  0
 71 73  1  0  0  0
 71 74  1  0  0  0
 71143  1  0  0  0
 71144  1  0  0  0
 72 75  1  0  0  0
 72 80  1  0  0  0
 72145  1  0  0  0
 72146  1  0  0  0
 73147  1  0  0  0
 73148  1  0  0  0
 74 81  1  0  0  0
 74149  1  0  0  0
 74150  1  0  0  0
 75 82  1  0  0  0
 75151  1  0  0  0
 75152  1  0  0  0
 76 78  1  0  0  0
 76 81  1  0  0  0
 76153  1  0  0  0
 76154  1  0  0  0
 77 79  1  0  0  0
 77 82  1  0  0  0
 77155  1  0  0  0
 77156  1  0  0  0
 78 83  1  0  0  0
 78157  1  0  0  0
 78158  1  0  0  0
 79 83  1  0  0  0
 79159  1  0  0  0
 79160  1  0  0  0
 80161  1  0  0  0
M  ISO  4   1 100  68 101  73 101  80 100
M  END
> <chiral flag>
0

> <version>
0

> <s_m_source_file>
/data/baiqing/PycharmProjects/Reinvent-master-3.2/result/LINK_invent/BTK/process_docking_weight1_custom_sum_contain_oxygen_bond_distance_aromatic_linkinvent_7_9_3/rearranged_h_0000.sdf

> <i_m_source_file_index>
8

> <r_mmod_Potential_Energy-OPLS-2005>
-51.2629890441895

> <r_mmod_Stretch_Energy-OPLS-2005>
30.2742881774902

> <r_mmod_Bend_Energy-OPLS-2005>
101.959243774414

> <r_mmod_Torsional_Energy-OPLS-2005>
281.075897216797

> <r_mmod_Improper_Torsional_Energy-OPLS-2005>
22.5346069335938

> <r_mmod_Van_der_Waal_Energy-OPLS-2005>
133.281784057617

> <r_mmod_Electrostatic_Energy-OPLS-2005>
-415.093627929688

> <r_mmod_Solvation_Energy-OPLS-2005>
-219.312866210938

> <b_mmod_Minimization_Converged-OPLS-2005>
0

> <r_mmod_RMS_Derivative-OPLS-2005>
3.14718699455261

$$$$
8
                    3D
 Structure written by MMmdl.
165172  0  0  1  0            999 V2000
  -30.7299  -14.3479   20.7028 C   0  0  0  0  0  0
  -30.4295  -12.2794   19.3894 C   0  0  0  0  0  0
  -29.4879  -12.5170   18.1910 C   0  0  0  0  0  0
  -28.0100  -12.3728   18.6080 C   0  0  0  0  0  0
  -27.6692  -13.1920   19.8792 C   0  0  2  0  0  0
  -28.7005  -12.8911   20.9895 C   0  0  0  0  0  0
  -25.2627  -13.8152   20.5622 C   0  0  0  0  0  0
  -24.1869  -13.0449   20.9142 C   0  0  0  0  0  0
  -24.6394  -11.6913   20.8689 C   0  0  0  0  0  0
  -23.9042  -10.4311   21.0375 C   0  0  0  0  0  0
  -24.3598   -9.4240   21.9152 C   0  0  0  0  0  0
  -23.6296   -8.2263   22.0718 C   0  0  0  0  0  0
  -22.4264   -8.0294   21.3523 C   0  0  0  0  0  0
  -21.9896   -9.0256   20.4609 C   0  0  0  0  0  0
  -22.7212  -10.2145   20.3022 C   0  0  0  0  0  0
  -21.6855   -6.0769   22.5293 C   0  0  0  0  0  0
  -21.4017   -6.5648   23.8231 C   0  0  0  0  0  0
  -21.3661   -5.6779   24.9179 C   0  0  0  0  0  0
  -21.6032   -4.3046   24.7227 C   0  0  0  0  0  0
  -21.8825   -3.8168   23.4329 C   0  0  0  0  0  0
  -21.9189   -4.6996   22.3407 C   0  0  0  0  0  0
  -22.7904  -13.5243   21.1842 C   0  0  0  0  0  0
  -22.1645   -4.2192   21.0975 F   0  0  0  0  0  0
  -21.5630   -3.4515   25.7723 F   0  0  0  0  0  0
  -30.0515  -13.1958   20.4738 N   0  0  0  0  0  0
  -26.3056  -12.9298   20.3328 N   0  0  0  0  0  0
  -25.9314  -11.6475   20.5751 N   0  0  0  0  0  0
  -22.0528  -12.8245   22.0405 N   0  0  0  0  0  0
  -25.4375  -15.1869   20.3983 N   0  0  0  0  0  0
  -31.7234  -14.7055   20.0651 O   0  0  0  0  0  0
  -21.6623   -6.8899   21.4246 O   0  0  0  0  0  0
  -22.3596  -14.5568   20.6717 O   0  0  0  0  0  0
  -24.6135  -31.8698   23.2124 C   0  0  0  0  0  0
  -25.9036  -32.4823   23.8418 C   0  0  1  0  0  0
  -27.2335  -27.4498   20.0928 C   0  0  0  0  0  0
  -25.5897  -33.8623   24.2343 N   0  0  0  0  0  0
  -23.4007  -30.4940   21.5521 C   0  0  2  0  0  0
  -24.8437  -28.9601   20.1177 C   0  0  0  0  0  0
  -22.7407  -29.4664   22.4994 C   0  0  0  0  0  0
  -18.0280  -28.1366   22.8497 C   0  0  0  0  0  0
  -24.1489  -36.7317   23.2642 C   0  0  0  0  0  0
  -25.9284  -30.8376   21.3656 C   0  0  0  0  0  0
  -26.0037  -29.4745   20.7101 C   0  0  0  0  0  0
  -27.1999  -28.7280   20.6910 C   0  0  0  0  0  0
  -26.0522  -26.9415   19.5043 C   0  0  0  0  0  0
  -24.8614  -27.6916   19.5151 C   0  0  0  0  0  0
  -23.6082  -29.8266   20.1663 C   0  0  0  0  0  0
  -25.4106  -36.3119   24.0347 C   0  0  1  0  0  0
  -20.5875  -28.3653   23.1318 C   0  0  2  0  0  0
  -20.6769  -26.9390   22.5414 C   0  0  0  0  0  0
  -19.5738  -26.6383   21.5212 C   0  0  0  0  0  0
  -18.1923  -26.7920   22.1624 C   0  0  0  0  0  0
  -19.1530  -28.8827   23.2904 C   0  0  0  0  0  0
  -18.9457  -30.1443   23.8908 C   0  0  0  0  0  0
  -17.6455  -30.6574   24.0573 C   0  0  0  0  0  0
  -25.9033  -34.9479   23.5143 C   0  0  0  0  0  0
  -16.5350  -29.9077   23.6328 C   0  0  0  0  0  0
  -16.7268  -28.6495   23.0346 C   0  0  0  0  0  0
  -26.4469  -31.6612   25.0748 C   0  0  0  0  0  0
  -25.3742  -31.3714   26.1502 C   0  0  0  0  0  0
  -27.0314  -30.3058   24.6135 C   0  0  0  0  0  0
  -27.6057  -32.4335   25.7485 C   0  0  0  0  0  0
  -27.5582  -37.1813   24.8463 C   0  0  0  0  0  0
  -21.4144  -29.3032   22.3730 N   0  0  0  0  0  0
  -26.4295  -37.3797   23.9407 N   0  0  0  0  0  0
  -24.6656  -31.0811   22.1018 N   0  0  0  0  0  0
  -23.4193  -28.8201   23.3019 O   0  0  0  0  0  0
  -28.4309  -26.7688   20.0780 O   0  0  0  0  0  0
  -26.5582  -34.8923   22.4699 O   0  0  0  0  0  0
  -23.5331  -32.1445   23.7520 O   0  0  0  0  0  0
  -30.2804  -16.5388   21.8064 C   0  0  0  0  0  0
  -28.8853  -17.1149   21.5177 C   0  0  0  0  0  0
  -28.4233  -25.3391   20.1229 C   0  0  0  0  0  0
  -28.0994  -24.8309   21.5388 C   0  0  0  0  0  0
  -27.6376  -19.1061   21.1721 C   0  0  0  0  0  0
  -26.5880  -19.1081   22.3040 C   0  0  0  0  0  0
  -26.3204  -24.7739   23.1021 C   0  0  0  0  0  0
  -24.9186  -24.1606   23.2620 C   0  0  0  0  0  0
  -25.4972  -20.5381   23.8530 C   0  0  0  0  0  0
  -25.3863  -22.0205   24.2268 C   0  0  0  0  0  0
  -30.2068  -15.0894   21.6822 N   0  0  0  0  0  0
  -28.8879  -18.5361   21.5630 O   0  0  0  0  0  0
  -26.6930  -24.7460   21.7301 O   0  0  0  0  0  0
  -26.5917  -20.3704   22.9577 O   0  0  0  0  0  0
  -24.9529  -22.7472   23.0794 O   0  0  0  0  0  0
  -31.4677  -12.4045   19.0812 H   0  0  0  0  0  0
  -30.3526  -11.2467   19.7345 H   0  0  0  0  0  0
  -29.7200  -11.8154   17.3886 H   0  0  0  0  0  0
  -29.6550  -13.5141   17.7797 H   0  0  0  0  0  0
  -27.8151  -11.3152   18.7912 H   0  0  0  0  0  0
  -27.3552  -12.6580   17.7846 H   0  0  0  0  0  0
  -27.7387  -14.2504   19.6224 H   0  0  0  0  0  0
  -28.6619  -11.8329   21.2560 H   0  0  0  0  0  0
  -28.4336  -13.4202   21.9069 H   0  0  0  0  0  0
  -25.2733   -9.5761   22.4744 H   0  0  0  0  0  0
  -24.0055   -7.4669   22.7416 H   0  0  0  0  0  0
  -21.0840   -8.8750   19.8901 H   0  0  0  0  0  0
  -22.3636  -10.9680   19.6141 H   0  0  0  0  0  0
  -21.2001   -7.6154   23.9754 H   0  0  0  0  0  0
  -21.1458   -6.0493   25.9078 H   0  0  0  0  0  0
  -22.0600   -2.7639   23.2812 H   0  0  0  0  0  0
  -22.4085  -11.9892   22.4825 H   0  0  0  0  0  0
  -21.1137  -13.1277   22.2552 H   0  0  0  0  0  0
  -24.6578  -15.8310   20.4706 H   0  0  0  0  0  0
  -26.2702  -15.6097   20.0114 H   0  0  0  0  0  0
  -26.7106  -32.5537   23.1187 H   0  0  0  0  0  0
  -25.0090  -33.9801   25.0514 H   0  0  0  0  0  0
  -22.6897  -31.3108   21.4130 H   0  0  0  0  0  0
  -23.3752  -35.9650   23.3319 H   0  0  0  0  0  0
  -24.3585  -36.8913   22.2053 H   0  0  0  0  0  0
  -23.7236  -37.6529   23.6638 H   0  0  0  0  0  0
  -26.0476  -31.6066   20.6013 H   0  0  0  0  0  0
  -26.8150  -30.8832   21.9879 H   0  0  0  0  0  0
  -28.0992  -29.1266   21.1414 H   0  0  0  0  0  0
  -26.0298  -25.9758   19.0235 H   0  0  0  0  0  0
  -23.9705  -27.2907   19.0524 H   0  0  0  0  0  0
  -23.7169  -30.6014   19.4055 H   0  0  0  0  0  0
  -22.7324  -29.2461   19.8707 H   0  0  0  0  0  0
  -25.1281  -36.2000   25.0840 H   0  0  0  0  0  0
  -20.9970  -28.3210   24.1433 H   0  0  0  0  0  0
  -20.5667  -26.2262   23.3597 H   0  0  0  0  0  0
  -21.6639  -26.7424   22.1203 H   0  0  0  0  0  0
  -19.6897  -25.6301   21.1221 H   0  0  0  0  0  0
  -19.6677  -27.3212   20.6755 H   0  0  0  0  0  0
  -17.4197  -26.6693   21.4022 H   0  0  0  0  0  0
  -18.0313  -26.0052   22.9005 H   0  0  0  0  0  0
  -19.7937  -30.7264   24.2268 H   0  0  0  0  0  0
  -17.5011  -31.6253   24.5178 H   0  0  0  0  0  0
  -15.5351  -30.2974   23.7647 H   0  0  0  0  0  0
  -15.8674  -28.0819   22.7032 H   0  0  0  0  0  0
  -24.5879  -30.7105   25.7831 H   0  0  0  0  0  0
  -24.8979  -32.2877   26.5003 H   0  0  0  0  0  0
  -25.8095  -30.8829   27.0231 H   0  0  0  0  0  0
  -26.2868  -29.6789   24.1211 H   0  0  0  0  0  0
  -27.4117  -29.7317   25.4599 H   0  0  0  0  0  0
  -27.8688  -30.4388   23.9278 H   0  0  0  0  0  0
  -27.2684  -33.3614   26.2108 H   0  0  0  0  0  0
  -28.3820  -32.6929   25.0275 H   0  0  0  0  0  0
  -28.0781  -31.8443   26.5351 H   0  0  0  0  0  0
  -28.2613  -38.0100   24.7506 H   0  0  0  0  0  0
  -28.1070  -36.2636   24.6296 H   0  0  0  0  0  0
  -27.2306  -37.1472   25.8869 H   0  0  0  0  0  0
  -20.9295  -29.8776   21.6983 H   0  0  0  0  0  0
  -26.0199  -38.2888   24.1389 H   0  0  0  0  0  0
  -30.5970  -16.7970   22.8178 H   0  0  0  0  0  0
  -31.0162  -16.9644   21.1210 H   0  0  0  0  0  0
  -28.1696  -16.7179   22.2386 H   0  0  0  0  0  0
  -28.5609  -16.7743   20.5330 H   0  0  0  0  0  0
  -27.7986  -24.8703   19.3648 H   0  0  0  0  0  0
  -29.4403  -25.0300   19.8793 H   0  0  0  0  0  0
  -28.5849  -25.4711   22.2791 H   0  0  0  0  0  0
  -28.5102  -23.8286   21.6743 H   0  0  0  0  0  0
  -27.8079  -20.1312   20.8410 H   0  0  0  0  0  0
  -27.2452  -18.5850   20.2959 H   0  0  0  0  0  0
  -26.7408  -18.2991   23.0220 H   0  0  0  0  0  0
  -25.6062  -18.9474   21.8570 H   0  0  0  0  0  0
  -27.0491  -24.2537   23.7249 H   0  0  0  0  0  0
  -26.3099  -25.8138   23.4285 H   0  0  0  0  0  0
  -24.2466  -24.5980   22.5239 H   0  0  0  0  0  0
  -24.4947  -24.4050   24.2366 H   0  0  0  0  0  0
  -24.5562  -20.2186   23.4033 H   0  0  0  0  0  0
  -25.6589  -19.9313   24.7458 H   0  0  0  0  0  0
  -26.3451  -22.3744   24.6047 H   0  0  0  0  0  0
  -24.6570  -22.1469   25.0300 H   0  0  0  0  0  0
  -29.4792  -14.6360   22.2158 H   0  0  0  0  0  0
  1 25  1  0  0  0
  1 30  2  0  0  0
  1 81  1  0  0  0
  2  3  1  0  0  0
  2 25  1  0  0  0
  2 86  1  0  0  0
  2 87  1  0  0  0
  3  4  1  0  0  0
  3 88  1  0  0  0
  3 89  1  0  0  0
  4  5  1  0  0  0
  4 90  1  0  0  0
  4 91  1  0  0  0
  5  6  1  0  0  0
  5 26  1  0  0  0
  5 92  1  0  0  0
  6 25  1  0  0  0
  6 93  1  0  0  0
  6 94  1  0  0  0
  7  8  2  0  0  0
  7 26  1  0  0  0
  7 29  1  0  0  0
  8  9  1  0  0  0
  8 22  1  0  0  0
  9 10  1  0  0  0
  9 27  2  0  0  0
 10 11  2  0  0  0
 10 15  1  0  0  0
 11 12  1  0  0  0
 11 95  1  0  0  0
 12 13  2  0  0  0
 12 96  1  0  0  0
 13 14  1  0  0  0
 13 31  1  0  0  0
 14 15  2  0  0  0
 14 97  1  0  0  0
 15 98  1  0  0  0
 16 17  2  0  0  0
 16 21  1  0  0  0
 16 31  1  0  0  0
 17 18  1  0  0  0
 17 99  1  0  0  0
 18 19  2  0  0  0
 18100  1  0  0  0
 19 20  1  0  0  0
 19 24  1  0  0  0
 20 21  2  0  0  0
 20101  1  0  0  0
 21 23  1  0  0  0
 22 28  1  0  0  0
 22 32  2  0  0  0
 26 27  1  0  0  0
 28102  1  0  0  0
 28103  1  0  0  0
 29104  1  0  0  0
 29105  1  0  0  0
 33 34  1  0  0  0
 33 66  1  0  0  0
 33 70  2  0  0  0
 34 36  1  0  0  0
 34 59  1  0  0  0
 34106  1  0  0  0
 35 44  2  0  0  0
 35 45  1  0  0  0
 35 68  1  0  0  0
 36 56  1  0  0  0
 36107  1  0  0  0
 37 39  1  0  0  0
 37 47  1  0  0  0
 37 66  1  0  0  0
 37108  1  0  0  0
 38 43  2  0  0  0
 38 46  1  0  0  0
 38 47  1  0  0  0
 39 64  1  0  0  0
 39 67  2  0  0  0
 40 52  1  0  0  0
 40 53  2  0  0  0
 40 58  1  0  0  0
 41109  1  0  0  0
 41110  1  0  0  0
 41111  1  0  0  0
 41 48  1  0  0  0
 42 43  1  0  0  0
 42 66  1  0  0  0
 42112  1  0  0  0
 42113  1  0  0  0
 43 44  1  0  0  0
 44114  1  0  0  0
 45 46  2  0  0  0
 45115  1  0  0  0
 46116  1  0  0  0
 47117  1  0  0  0
 47118  1  0  0  0
 48 56  1  0  0  0
 48 65  1  0  0  0
 48119  1  0  0  0
 49 50  1  0  0  0
 49 53  1  0  0  0
 49 64  1  0  0  0
 49120  1  0  0  0
 50 51  1  0  0  0
 50121  1  0  0  0
 50122  1  0  0  0
 51 52  1  0  0  0
 51123  1  0  0  0
 51124  1  0  0  0
 52125  1  0  0  0
 52126  1  0  0  0
 53 54  1  0  0  0
 54 55  2  0  0  0
 54127  1  0  0  0
 55 57  1  0  0  0
 55128  1  0  0  0
 56 69  2  0  0  0
 57 58  2  0  0  0
 57129  1  0  0  0
 58130  1  0  0  0
 59 60  1  0  0  0
 59 61  1  0  0  0
 59 62  1  0  0  0
 60131  1  0  0  0
 60132  1  0  0  0
 60133  1  0  0  0
 61134  1  0  0  0
 61135  1  0  0  0
 61136  1  0  0  0
 62137  1  0  0  0
 62138  1  0  0  0
 62139  1  0  0  0
 63 65  1  0  0  0
 63140  1  0  0  0
 63141  1  0  0  0
 63142  1  0  0  0
 64143  1  0  0  0
 65144  1  0  0  0
 68 73  1  0  0  0
 71 72  1  0  0  0
 71 81  1  0  0  0
 71145  1  0  0  0
 71146  1  0  0  0
 72 82  1  0  0  0
 72147  1  0  0  0
 72148  1  0  0  0
 73 74  1  0  0  0
 73149  1  0  0  0
 73150  1  0  0  0
 74 83  1  0  0  0
 74151  1  0  0  0
 74152  1  0  0  0
 75 76  1  0  0  0
 75 82  1  0  0  0
 75153  1  0  0  0
 75154  1  0  0  0
 76 84  1  0  0  0
 76155  1  0  0  0
 76156  1  0  0  0
 77 78  1  0  0  0
 77 83  1  0  0  0
 77157  1  0  0  0
 77158  1  0  0  0
 78 85  1  0  0  0
 78159  1  0  0  0
 78160  1  0  0  0
 79 80  1  0  0  0
 79 84  1  0  0  0
 79161  1  0  0  0
 79162  1  0  0  0
 80 85  1  0  0  0
 80163  1  0  0  0
 80164  1  0  0  0
 81165  1  0  0  0
M  ISO  4   1 100  68 101  73 101  81 100
M  END
> <chiral flag>
0

> <version>
0

> <s_m_source_file>
/data/baiqing/PycharmProjects/Reinvent-master-3.2/result/LINK_invent/BTK/process_docking_weight1_custom_sum_contain_oxygen_bond_distance_aromatic_linkinvent_7_9_3/rearranged_h_0000.sdf

> <i_m_source_file_index>
9

> <r_mmod_Potential_Energy-OPLS-2005>
-122.28645324707

> <r_mmod_Stretch_Energy-OPLS-2005>
32.0088500976562

> <r_mmod_Bend_Energy-OPLS-2005>
97.7230072021484

> <r_mmod_Torsional_Energy-OPLS-2005>
201.062683105469

> <r_mmod_Improper_Torsional_Energy-OPLS-2005>
3.23831534385681

> <r_mmod_Van_der_Waal_Energy-OPLS-2005>
131.441696166992

> <r_mmod_Electrostatic_Energy-OPLS-2005>
-358.040924072266

> <r_mmod_Solvation_Energy-OPLS-2005>
-238.455581665039

> <b_mmod_Minimization_Converged-OPLS-2005>
0

> <r_mmod_RMS_Derivative-OPLS-2005>
2.76533460617065

$$$$
9
                    3D
 Structure written by MMmdl.
189196  0  0  1  0            999 V2000
  -30.7874  -14.3164   20.7497 C   0  0  0  0  0  0
  -30.4261  -12.2985   19.3725 C   0  0  0  0  0  0
  -29.4816  -12.5454   18.1835 C   0  0  0  0  0  0
  -28.0089  -12.3902   18.6074 C   0  0  0  0  0  0
  -27.6723  -13.2013   19.8849 C   0  0  2  0  0  0
  -28.7097  -12.9150   20.9901 C   0  0  0  0  0  0
  -25.2634  -13.8156   20.5679 C   0  0  0  0  0  0
  -24.1870  -13.0445   20.9180 C   0  0  0  0  0  0
  -24.6413  -11.6907   20.8744 C   0  0  0  0  0  0
  -23.9075  -10.4287   21.0411 C   0  0  0  0  0  0
  -24.3624   -9.4198   21.9187 C   0  0  0  0  0  0
  -23.6290   -8.2247   22.0757 C   0  0  0  0  0  0
  -22.4280   -8.0281   21.3549 C   0  0  0  0  0  0
  -21.9909   -9.0260   20.4661 C   0  0  0  0  0  0
  -22.7246  -10.2134   20.3060 C   0  0  0  0  0  0
  -21.6837   -6.0740   22.5285 C   0  0  0  0  0  0
  -21.4002   -6.5644   23.8218 C   0  0  0  0  0  0
  -21.3666   -5.6804   24.9186 C   0  0  0  0  0  0
  -21.6049   -4.3068   24.7240 C   0  0  0  0  0  0
  -21.8812   -3.8155   23.4362 C   0  0  0  0  0  0
  -21.9188   -4.6970   22.3415 C   0  0  0  0  0  0
  -22.7890  -13.5240   21.1855 C   0  0  0  0  0  0
  -22.1658   -4.2158   21.0992 F   0  0  0  0  0  0
  -21.5637   -3.4548   25.7753 F   0  0  0  0  0  0
  -30.0584  -13.2078   20.4651 N   0  0  0  0  0  0
  -26.3087  -12.9319   20.3407 N   0  0  0  0  0  0
  -25.9336  -11.6481   20.5767 N   0  0  0  0  0  0
  -22.0526  -12.8231   22.0413 N   0  0  0  0  0  0
  -25.4362  -15.1870   20.4088 N   0  0  0  0  0  0
  -31.7445  -14.7076   20.0763 O   0  0  0  0  0  0
  -21.6634   -6.8887   21.4249 O   0  0  0  0  0  0
  -22.3586  -14.5557   20.6719 O   0  0  0  0  0  0
  -24.6144  -31.8721   23.2139 C   0  0  0  0  0  0
  -25.9052  -32.4823   23.8437 C   0  0  1  0  0  0
  -27.2333  -27.4638   20.0489 C   0  0  0  0  0  0
  -25.5948  -33.8633   24.2387 N   0  0  0  0  0  0
  -23.3990  -30.4970   21.5554 C   0  0  2  0  0  0
  -24.8397  -28.9691   20.1132 C   0  0  0  0  0  0
  -22.7389  -29.4681   22.5009 C   0  0  0  0  0  0
  -18.0275  -28.1354   22.8500 C   0  0  0  0  0  0
  -24.1488  -36.7303   23.2620 C   0  0  0  0  0  0
  -25.9262  -30.8362   21.3679 C   0  0  0  0  0  0
  -25.9981  -29.4731   20.7140 C   0  0  0  0  0  0
  -27.1921  -28.7182   20.6977 C   0  0  0  0  0  0
  -26.0495  -26.9708   19.4527 C   0  0  0  0  0  0
  -24.8560  -27.7120   19.4897 C   0  0  0  0  0  0
  -23.6030  -29.8353   20.1680 C   0  0  0  0  0  0
  -25.4100  -36.3121   24.0339 C   0  0  1  0  0  0
  -20.5865  -28.3657   23.1325 C   0  0  2  0  0  0
  -20.6772  -26.9388   22.5452 C   0  0  0  0  0  0
  -19.5753  -26.6320   21.5268 C   0  0  0  0  0  0
  -18.1933  -26.7881   22.1681 C   0  0  0  0  0  0
  -19.1522  -28.8828   23.2899 C   0  0  0  0  0  0
  -18.9445  -30.1447   23.8886 C   0  0  0  0  0  0
  -17.6443  -30.6578   24.0544 C   0  0  0  0  0  0
  -25.9038  -34.9481   23.5152 C   0  0  0  0  0  0
  -16.5335  -29.9059   23.6326 C   0  0  0  0  0  0
  -16.7266  -28.6479   23.0352 C   0  0  0  0  0  0
  -26.4442  -31.6569   25.0764 C   0  0  0  0  0  0
  -25.3646  -31.3659   26.1449 C   0  0  0  0  0  0
  -27.0260  -30.3009   24.6113 C   0  0  0  0  0  0
  -27.6016  -32.4244   25.7583 C   0  0  0  0  0  0
  -27.5577  -37.1800   24.8468 C   0  0  0  0  0  0
  -21.4127  -29.3035   22.3722 N   0  0  0  0  0  0
  -26.4293  -37.3794   23.9419 N   0  0  0  0  0  0
  -24.6647  -31.0817   22.1044 N   0  0  0  0  0  0
  -23.4174  -28.8245   23.3065 O   0  0  0  0  0  0
  -28.4181  -26.7597   20.0595 O   0  0  0  0  0  0
  -26.5562  -34.8920   22.4691 O   0  0  0  0  0  0
  -23.5337  -32.1491   23.7525 O   0  0  0  0  0  0
  -24.7536  -23.3671   21.7177 C   0  0  0  0  0  0
  -23.3015  -23.0789   22.1076 C   0  0  0  0  0  0
  -26.5309  -22.5372   25.0932 C   0  0  0  0  0  0
  -26.8571  -22.3222   20.7440 C   0  0  0  0  0  0
  -30.9865  -16.1188   22.4825 C   0  0  0  0  0  0
  -27.9579  -21.9735   25.1209 C   0  0  0  0  0  0
  -26.2806  -23.5595   26.2088 C   0  0  0  0  0  0
  -27.4988  -23.6808   20.3968 C   0  0  0  0  0  0
  -30.1284  -17.3264   22.0806 C   0  0  0  0  0  0
  -28.7675  -25.9312   18.9440 C   0  0  0  0  0  0
  -21.8509  -23.2774   23.9892 C   0  0  0  0  0  0
  -29.4758  -24.6528   19.4489 C   0  0  0  0  0  0
  -21.8963  -23.7551   25.4437 C   0  0  0  0  0  0
  -29.3484  -20.3953   24.0178 C   0  0  0  0  0  0
  -24.6001  -25.2550   26.2758 C   0  0  0  0  0  0
  -29.3269  -19.4102   22.8419 C   0  0  0  0  0  0
  -23.1043  -25.5006   26.5590 C   0  0  0  0  0  0
  -25.4471  -22.3660   21.1540 N   0  0  0  0  0  0
  -30.4429  -14.8983   21.9014 N   0  0  0  0  0  0
  -25.2315  -24.4768   21.9606 O   0  0  0  0  0  0
  -23.1789  -23.3382   23.4967 O   0  0  0  0  0  0
  -28.0992  -21.0771   24.0308 O   0  0  0  0  0  0
  -24.8931  -23.8631   26.2731 O   0  0  0  0  0  0
  -28.6425  -23.4987   19.5754 O   0  0  0  0  0  0
  -30.2805  -18.3705   23.0328 O   0  0  0  0  0  0
  -22.2891  -25.1268   25.4529 O   0  0  0  0  0  0
  -31.4635  -12.4295   19.0596 H   0  0  0  0  0  0
  -30.3481  -11.2646   19.7130 H   0  0  0  0  0  0
  -29.7087  -11.8509   17.3735 H   0  0  0  0  0  0
  -29.6490  -13.5473   17.7850 H   0  0  0  0  0  0
  -27.8149  -11.3309   18.7774 H   0  0  0  0  0  0
  -27.3504  -12.6927   17.7922 H   0  0  0  0  0  0
  -27.7394  -14.2595   19.6330 H   0  0  0  0  0  0
  -28.6667  -11.8649   21.2811 H   0  0  0  0  0  0
  -28.4487  -13.4737   21.8891 H   0  0  0  0  0  0
  -25.2772   -9.5668   22.4767 H   0  0  0  0  0  0
  -23.9999   -7.4629   22.7463 H   0  0  0  0  0  0
  -21.0843   -8.8795   19.8955 H   0  0  0  0  0  0
  -22.3714  -10.9686   19.6185 H   0  0  0  0  0  0
  -21.1970   -7.6147   23.9729 H   0  0  0  0  0  0
  -21.1504   -6.0531   25.9092 H   0  0  0  0  0  0
  -22.0578   -2.7614   23.2867 H   0  0  0  0  0  0
  -22.4127  -11.9869   22.4778 H   0  0  0  0  0  0
  -21.1157  -13.1277   22.2650 H   0  0  0  0  0  0
  -24.6718  -15.8447   20.5160 H   0  0  0  0  0  0
  -26.2950  -15.6234   20.0987 H   0  0  0  0  0  0
  -26.7146  -32.5529   23.1231 H   0  0  0  0  0  0
  -25.0160  -33.9804   25.0571 H   0  0  0  0  0  0
  -22.6893  -31.3152   21.4206 H   0  0  0  0  0  0
  -23.3759  -35.9628   23.3308 H   0  0  0  0  0  0
  -24.3575  -36.8879   22.2026 H   0  0  0  0  0  0
  -23.7225  -37.6514   23.6602 H   0  0  0  0  0  0
  -26.0348  -31.6001   20.5975 H   0  0  0  0  0  0
  -26.8160  -30.8912   21.9834 H   0  0  0  0  0  0
  -28.0874  -29.1017   21.1669 H   0  0  0  0  0  0
  -26.0097  -26.0188   18.9510 H   0  0  0  0  0  0
  -23.9634  -27.3149   19.0260 H   0  0  0  0  0  0
  -23.7102  -30.6126   19.4110 H   0  0  0  0  0  0
  -22.7264  -29.2573   19.8703 H   0  0  0  0  0  0
  -25.1261  -36.2021   25.0825 H   0  0  0  0  0  0
  -20.9972  -28.3244   24.1445 H   0  0  0  0  0  0
  -20.5667  -26.2328   23.3692 H   0  0  0  0  0  0
  -21.6646  -26.7401   22.1276 H   0  0  0  0  0  0
  -19.6896  -25.6202   21.1358 H   0  0  0  0  0  0
  -19.6673  -27.3094   20.6767 H   0  0  0  0  0  0
  -17.4195  -26.6588   21.4089 H   0  0  0  0  0  0
  -18.0361  -26.0035   22.9113 H   0  0  0  0  0  0
  -19.7925  -30.7278   24.2229 H   0  0  0  0  0  0
  -17.5000  -31.6282   24.5110 H   0  0  0  0  0  0
  -15.5340  -30.2975   23.7623 H   0  0  0  0  0  0
  -15.8665  -28.0799   22.7079 H   0  0  0  0  0  0
  -24.5930  -30.6876   25.7771 H   0  0  0  0  0  0
  -24.8685  -32.2803   26.4727 H   0  0  0  0  0  0
  -25.7939  -30.8974   27.0315 H   0  0  0  0  0  0
  -26.2795  -29.6811   24.1127 H   0  0  0  0  0  0
  -27.4028  -29.7199   25.4546 H   0  0  0  0  0  0
  -27.8637  -30.4353   23.9262 H   0  0  0  0  0  0
  -27.2649  -33.3498   26.2267 H   0  0  0  0  0  0
  -28.3833  -32.6852   25.0442 H   0  0  0  0  0  0
  -28.0674  -31.8289   26.5446 H   0  0  0  0  0  0
  -28.2620  -38.0077   24.7523 H   0  0  0  0  0  0
  -28.1049  -36.2608   24.6304 H   0  0  0  0  0  0
  -27.2289  -37.1476   25.8869 H   0  0  0  0  0  0
  -20.9275  -29.8773   21.6958 H   0  0  0  0  0  0
  -26.0199  -38.2886   24.1397 H   0  0  0  0  0  0
  -23.0208  -22.0482   21.8852 H   0  0  0  0  0  0
  -22.6490  -23.7326   21.5258 H   0  0  0  0  0  0
  -25.8172  -21.7166   25.1749 H   0  0  0  0  0  0
  -26.3440  -23.0085   24.1289 H   0  0  0  0  0  0
  -27.4443  -21.8225   21.5134 H   0  0  0  0  0  0
  -26.8981  -21.6789   19.8647 H   0  0  0  0  0  0
  -30.9507  -15.9939   23.5663 H   0  0  0  0  0  0
  -32.0355  -16.2721   22.2224 H   0  0  0  0  0  0
  -28.1256  -21.4527   26.0653 H   0  0  0  0  0  0
  -28.6935  -22.7758   25.0481 H   0  0  0  0  0  0
  -26.8987  -24.4437   26.0340 H   0  0  0  0  0  0
  -26.5798  -23.1420   27.1706 H   0  0  0  0  0  0
  -27.7577  -24.2210   21.3099 H   0  0  0  0  0  0
  -26.7818  -24.2749   19.8397 H   0  0  0  0  0  0
  -29.0799  -17.0205   22.0494 H   0  0  0  0  0  0
  -30.3952  -17.6757   21.0816 H   0  0  0  0  0  0
  -27.9653  -25.6846   18.2522 H   0  0  0  0  0  0
  -29.4762  -26.5142   18.3552 H   0  0  0  0  0  0
  -21.1807  -23.9055   23.4005 H   0  0  0  0  0  0
  -21.4795  -22.2544   23.9350 H   0  0  0  0  0  0
  -29.9927  -24.8458   20.3906 H   0  0  0  0  0  0
  -30.2509  -24.3826   18.7315 H   0  0  0  0  0  0
  -22.5699  -23.1160   26.0142 H   0  0  0  0  0  0
  -20.9171  -23.6658   25.9112 H   0  0  0  0  0  0
  -30.1840  -21.0922   23.9286 H   0  0  0  0  0  0
  -29.4707  -19.8474   24.9530 H   0  0  0  0  0  0
  -25.1899  -25.7401   27.0564 H   0  0  0  0  0  0
  -24.8918  -25.7039   25.3240 H   0  0  0  0  0  0
  -29.5025  -19.9331   21.9013 H   0  0  0  0  0  0
  -28.3263  -18.9789   22.7840 H   0  0  0  0  0  0
  -22.9610  -26.5725   26.7038 H   0  0  0  0  0  0
  -22.7807  -25.0252   27.4863 H   0  0  0  0  0  0
  -24.9347  -21.5022   21.0300 H   0  0  0  0  0  0
  -29.6893  -14.4563   22.4052 H   0  0  0  0  0  0
  1 25  1  0  0  0
  1 30  2  0  0  0
  1 89  1  0  0  0
  2  3  1  0  0  0
  2 25  1  0  0  0
  2 97  1  0  0  0
  2 98  1  0  0  0
  3  4  1  0  0  0
  3 99  1  0  0  0
  3100  1  0  0  0
  4  5  1  0  0  0
  4101  1  0  0  0
  4102  1  0  0  0
  5  6  1  0  0  0
  5 26  1  0  0  0
  5103  1  0  0  0
  6 25  1  0  0  0
  6104  1  0  0  0
  6105  1  0  0  0
  7  8  2  0  0  0
  7 26  1  0  0  0
  7 29  1  0  0  0
  8  9  1  0  0  0
  8 22  1  0  0  0
  9 10  1  0  0  0
  9 27  2  0  0  0
 10 11  2  0  0  0
 10 15  1  0  0  0
 11 12  1  0  0  0
 11106  1  0  0  0
 12 13  2  0  0  0
 12107  1  0  0  0
 13 14  1  0  0  0
 13 31  1  0  0  0
 14 15  2  0  0  0
 14108  1  0  0  0
 15109  1  0  0  0
 16 17  2  0  0  0
 16 21  1  0  0  0
 16 31  1  0  0  0
 17 18  1  0  0  0
 17110  1  0  0  0
 18 19  2  0  0  0
 18111  1  0  0  0
 19 20  1  0  0  0
 19 24  1  0  0  0
 20 21  2  0  0  0
 20112  1  0  0  0
 21 23  1  0  0  0
 22 28  1  0  0  0
 22 32  2  0  0  0
 26 27  1  0  0  0
 28113  1  0  0  0
 28114  1  0  0  0
 29115  1  0  0  0
 29116  1  0  0  0
 33 34  1  0  0  0
 33 66  1  0  0  0
 33 70  2  0  0  0
 34 36  1  0  0  0
 34 59  1  0  0  0
 34117  1  0  0  0
 35 44  2  0  0  0
 35 45  1  0  0  0
 35 68  1  0  0  0
 36 56  1  0  0  0
 36118  1  0  0  0
 37 39  1  0  0  0
 37 47  1  0  0  0
 37 66  1  0  0  0
 37119  1  0  0  0
 38 43  2  0  0  0
 38 46  1  0  0  0
 38 47  1  0  0  0
 39 64  1  0  0  0
 39 67  2  0  0  0
 40 52  1  0  0  0
 40 53  2  0  0  0
 40 58  1  0  0  0
 41120  1  0  0  0
 41121  1  0  0  0
 41122  1  0  0  0
 41 48  1  0  0  0
 42 43  1  0  0  0
 42 66  1  0  0  0
 42123  1  0  0  0
 42124  1  0  0  0
 43 44  1  0  0  0
 44125  1  0  0  0
 45 46  2  0  0  0
 45126  1  0  0  0
 46127  1  0  0  0
 47128  1  0  0  0
 47129  1  0  0  0
 48 56  1  0  0  0
 48 65  1  0  0  0
 48130  1  0  0  0
 49 50  1  0  0  0
 49 53  1  0  0  0
 49 64  1  0  0  0
 49131  1  0  0  0
 50 51  1  0  0  0
 50132  1  0  0  0
 50133  1  0  0  0
 51 52  1  0  0  0
 51134  1  0  0  0
 51135  1  0  0  0
 52136  1  0  0  0
 52137  1  0  0  0
 53 54  1  0  0  0
 54 55  2  0  0  0
 54138  1  0  0  0
 55 57  1  0  0  0
 55139  1  0  0  0
 56 69  2  0  0  0
 57 58  2  0  0  0
 57140  1  0  0  0
 58141  1  0  0  0
 59 60  1  0  0  0
 59 61  1  0  0  0
 59 62  1  0  0  0
 60142  1  0  0  0
 60143  1  0  0  0
 60144  1  0  0  0
 61145  1  0  0  0
 61146  1  0  0  0
 61147  1  0  0  0
 62148  1  0  0  0
 62149  1  0  0  0
 62150  1  0  0  0
 63 65  1  0  0  0
 63151  1  0  0  0
 63152  1  0  0  0
 63153  1  0  0  0
 64154  1  0  0  0
 65155  1  0  0  0
 68 80  1  0  0  0
 71 72  1  0  0  0
 71 88  1  0  0  0
 71 90  2  0  0  0
 72 91  1  0  0  0
 72156  1  0  0  0
 72157  1  0  0  0
 73 76  1  0  0  0
 73 77  1  0  0  0
 73158  1  0  0  0
 73159  1  0  0  0
 74 78  1  0  0  0
 74 88  1  0  0  0
 74160  1  0  0  0
 74161  1  0  0  0
 75 79  1  0  0  0
 75 89  1  0  0  0
 75162  1  0  0  0
 75163  1  0  0  0
 76 92  1  0  0  0
 76164  1  0  0  0
 76165  1  0  0  0
 77 93  1  0  0  0
 77166  1  0  0  0
 77167  1  0  0  0
 78 94  1  0  0  0
 78168  1  0  0  0
 78169  1  0  0  0
 79 95  1  0  0  0
 79170  1  0  0  0
 79171  1  0  0  0
 80 82  1  0  0  0
 80172  1  0  0  0
 80173  1  0  0  0
 81 83  1  0  0  0
 81 91  1  0  0  0
 81174  1  0  0  0
 81175  1  0  0  0
 82 94  1  0  0  0
 82176  1  0  0  0
 82177  1  0  0  0
 83 96  1  0  0  0
 83178  1  0  0  0
 83179  1  0  0  0
 84 86  1  0  0  0
 84 92  1  0  0  0
 84180  1  0  0  0
 84181  1  0  0  0
 85 87  1  0  0  0
 85 93  1  0  0  0
 85182  1  0  0  0
 85183  1  0  0  0
 86 95  1  0  0  0
 86184  1  0  0  0
 86185  1  0  0  0
 87 96  1  0  0  0
 87186  1  0  0  0
 87187  1  0  0  0
 88188  1  0  0  0
 89189  1  0  0  0
M  ISO  4   1 100  68 101  80 101  89 100
M  END
> <chiral flag>
0

> <version>
0

> <s_m_source_file>
/data/baiqing/PycharmProjects/Reinvent-master-3.2/result/LINK_invent/BTK/process_docking_weight1_custom_sum_contain_oxygen_bond_distance_aromatic_linkinvent_7_9_3/rearranged_h_0000.sdf

> <i_m_source_file_index>
10

> <r_mmod_Potential_Energy-OPLS-2005>
-185.711318969727

> <r_mmod_Stretch_Energy-OPLS-2005>
33.6272277832031

> <r_mmod_Bend_Energy-OPLS-2005>
118.270805358887

> <r_mmod_Torsional_Energy-OPLS-2005>
214.51513671875

> <r_mmod_Improper_Torsional_Energy-OPLS-2005>
2.40545558929443

> <r_mmod_Van_der_Waal_Energy-OPLS-2005>
112.754913330078

> <r_mmod_Electrostatic_Energy-OPLS-2005>
-391.470550537109

> <r_mmod_Solvation_Energy-OPLS-2005>
-285.395202636719

> <b_mmod_Minimization_Converged-OPLS-2005>
0

> <r_mmod_RMS_Derivative-OPLS-2005>
3.06734085083008

$$$$
10
                    3D
 Structure written by MMmdl.
161169  0  0  1  0            999 V2000
  -30.7141  -14.3038   20.8625 C   0  0  0  0  0  0
  -30.4358  -12.3308   19.3609 C   0  0  0  0  0  0
  -29.4608  -12.5470   18.1850 C   0  0  0  0  0  0
  -27.9920  -12.3615   18.6023 C   0  0  0  0  0  0
  -27.6554  -13.1725   19.8745 C   0  0  2  0  0  0
  -28.6810  -12.8487   20.9783 C   0  0  0  0  0  0
  -25.2584  -13.8003   20.5720 C   0  0  0  0  0  0
  -24.1795  -13.0388   20.9137 C   0  0  0  0  0  0
  -24.6274  -11.6808   20.8703 C   0  0  0  0  0  0
  -23.8907  -10.4232   21.0406 C   0  0  0  0  0  0
  -24.3488   -9.4137   21.9141 C   0  0  0  0  0  0
  -23.6189   -8.2185   22.0713 C   0  0  0  0  0  0
  -22.4190   -8.0223   21.3518 C   0  0  0  0  0  0
  -21.9802   -9.0164   20.4599 C   0  0  0  0  0  0
  -22.7126  -10.2040   20.3008 C   0  0  0  0  0  0
  -21.6819   -6.0639   22.5235 C   0  0  0  0  0  0
  -21.4048   -6.5581   23.8153 C   0  0  0  0  0  0
  -21.3643   -5.6749   24.9141 C   0  0  0  0  0  0
  -21.6023   -4.3001   24.7211 C   0  0  0  0  0  0
  -21.8847   -3.8072   23.4353 C   0  0  0  0  0  0
  -21.9198   -4.6873   22.3388 C   0  0  0  0  0  0
  -22.7843  -13.5227   21.1914 C   0  0  0  0  0  0
  -22.1662   -4.2093   21.0941 F   0  0  0  0  0  0
  -21.5621   -3.4471   25.7701 F   0  0  0  0  0  0
  -30.0463  -13.1673   20.5106 N   0  0  0  0  0  0
  -26.2941  -12.9123   20.3314 N   0  0  0  0  0  0
  -25.9179  -11.6306   20.5654 N   0  0  0  0  0  0
  -22.0417  -12.8207   22.0381 N   0  0  0  0  0  0
  -25.4590  -15.1724   20.4354 N   0  0  0  0  0  0
  -31.5999  -14.8154   20.1678 O   0  0  0  0  0  0
  -21.6593   -6.8824   21.4234 O   0  0  0  0  0  0
  -22.3528  -14.5536   20.6753 O   0  0  0  0  0  0
  -24.6099  -31.8807   23.1968 C   0  0  0  0  0  0
  -25.8975  -32.4855   23.8366 C   0  0  1  0  0  0
  -27.2274  -27.4811   20.0821 C   0  0  0  0  0  0
  -25.5853  -33.8652   24.2354 N   0  0  0  0  0  0
  -23.4001  -30.5096   21.5466 C   0  0  2  0  0  0
  -24.8356  -28.9771   20.1173 C   0  0  0  0  0  0
  -22.7390  -29.4764   22.4955 C   0  0  0  0  0  0
  -18.0212  -28.1292   22.8461 C   0  0  0  0  0  0
  -24.1495  -36.7350   23.2640 C   0  0  0  0  0  0
  -25.9234  -30.8781   21.3346 C   0  0  0  0  0  0
  -25.9990  -29.5045   20.6866 C   0  0  0  0  0  0
  -27.2013  -28.7642   20.6678 C   0  0  0  0  0  0
  -26.0415  -26.9851   19.4853 C   0  0  0  0  0  0
  -24.8455  -27.7093   19.5293 C   0  0  0  0  0  0
  -23.5966  -29.8297   20.1681 C   0  0  0  0  0  0
  -25.4096  -36.3106   24.0342 C   0  0  1  0  0  0
  -20.5777  -28.3641   23.1117 C   0  0  2  0  0  0
  -20.6649  -26.9322   22.5216 C   0  0  0  0  0  0
  -19.5580  -26.6210   21.5117 C   0  0  0  0  0  0
  -18.1851  -26.7749   22.1728 C   0  0  0  0  0  0
  -19.1467  -28.8797   23.2752 C   0  0  0  0  0  0
  -18.9483  -30.1475   23.8698 C   0  0  0  0  0  0
  -17.6496  -30.6630   24.0486 C   0  0  0  0  0  0
  -25.8979  -34.9480   23.5115 C   0  0  0  0  0  0
  -16.5376  -29.9057   23.6385 C   0  0  0  0  0  0
  -16.7259  -28.6448   23.0454 C   0  0  0  0  0  0
  -26.4419  -31.6599   25.0670 C   0  0  0  0  0  0
  -25.3620  -31.3736   26.1375 C   0  0  0  0  0  0
  -27.0247  -30.3031   24.5992 C   0  0  0  0  0  0
  -27.5990  -32.4311   25.7436 C   0  0  0  0  0  0
  -27.5585  -37.1803   24.8477 C   0  0  0  0  0  0
  -21.4103  -29.3108   22.3633 N   0  0  0  0  0  0
  -26.4291  -37.3789   23.9387 N   0  0  0  0  0  0
  -24.6667  -31.0930   22.0901 N   0  0  0  0  0  0
  -23.4125  -28.8268   23.3014 O   0  0  0  0  0  0
  -28.4007  -26.7531   20.0956 O   0  0  0  0  0  0
  -26.5618  -34.8955   22.4711 O   0  0  0  0  0  0
  -23.5297  -32.1493   23.7418 O   0  0  0  0  0  0
  -27.2773  -20.4522   20.5713 C   0  0  0  0  0  0
  -29.0126  -21.6252   21.8050 C   0  0  0  0  0  0
  -27.3620  -19.3737   21.4686 C   0  0  0  0  0  0
  -29.0463  -20.5715   22.7483 C   0  0  0  0  0  0
  -28.1628  -21.5406   20.6856 C   0  0  0  0  0  0
  -28.2455  -19.4247   22.5719 C   0  0  0  0  0  0
  -29.3199  -23.1583   19.2714 C   0  0  0  0  0  0
  -29.5166  -24.5314   19.9241 C   0  0  0  0  0  0
  -28.4142  -16.2586   22.3645 C   0  0  0  0  0  0
  -29.9638  -16.0507   22.5726 C   0  0  0  0  0  0
  -28.2640  -25.3835   19.7174 C   0  0  0  0  0  0
  -27.7041  -17.2033   23.3706 C   0  0  0  0  0  0
  -28.2315  -22.4456   19.6004 N   0  0  0  0  0  0
  -30.4420  -14.7285   22.1211 N   0  0  0  0  0  0
  -30.1354  -22.7248   18.4557 O   0  0  0  0  0  0
  -28.3886  -18.4384   23.5200 O   0  0  0  0  0  0
  -31.4548  -12.5357   19.0332 H   0  0  0  0  0  0
  -30.4357  -11.2852   19.6649 H   0  0  0  0  0  0
  -29.6875  -11.8817   17.3536 H   0  0  0  0  0  0
  -29.5812  -13.5615   17.8099 H   0  0  0  0  0  0
  -27.8050  -11.3003   18.7746 H   0  0  0  0  0  0
  -27.3253  -12.6477   17.7891 H   0  0  0  0  0  0
  -27.7337  -14.2272   19.6126 H   0  0  0  0  0  0
  -28.6361  -11.7872   21.2234 H   0  0  0  0  0  0
  -28.3981  -13.3581   21.8925 H   0  0  0  0  0  0
  -25.2676   -9.5591   22.4689 H   0  0  0  0  0  0
  -23.9883   -7.4544   22.7421 H   0  0  0  0  0  0
  -21.0723   -8.8629   19.8888 H   0  0  0  0  0  0
  -22.3583  -10.9539   19.6037 H   0  0  0  0  0  0
  -21.2101   -7.6090   23.9668 H   0  0  0  0  0  0
  -21.1434   -6.0452   25.9018 H   0  0  0  0  0  0
  -22.0672   -2.7551   23.2826 H   0  0  0  0  0  0
  -22.4012  -11.9852   22.4791 H   0  0  0  0  0  0
  -21.1031  -13.1240   22.2651 H   0  0  0  0  0  0
  -24.7558  -15.8753   20.6476 H   0  0  0  0  0  0
  -26.3660  -15.5552   20.2012 H   0  0  0  0  0  0
  -26.7162  -32.5590   23.1293 H   0  0  0  0  0  0
  -24.9853  -33.9913   25.0379 H   0  0  0  0  0  0
  -22.6818  -31.3096   21.3906 H   0  0  0  0  0  0
  -23.3712  -35.9723   23.3274 H   0  0  0  0  0  0
  -24.3628  -36.8987   22.2066 H   0  0  0  0  0  0
  -23.7308  -37.6569   23.6678 H   0  0  0  0  0  0
  -26.0013  -31.6581   20.5655 H   0  0  0  0  0  0
  -26.8289  -30.9503   21.9316 H   0  0  0  0  0  0
  -28.1072  -29.1785   21.0993 H   0  0  0  0  0  0
  -25.9847  -26.0425   18.9698 H   0  0  0  0  0  0
  -23.9330  -27.2989   19.1233 H   0  0  0  0  0  0
  -23.6735  -30.5792   19.3794 H   0  0  0  0  0  0
  -22.7350  -29.2166   19.9008 H   0  0  0  0  0  0
  -25.1261  -36.1953   25.0844 H   0  0  0  0  0  0
  -20.9844  -28.3112   24.1235 H   0  0  0  0  0  0
  -20.5504  -26.2215   23.3437 H   0  0  0  0  0  0
  -21.6521  -26.7417   22.0942 H   0  0  0  0  0  0
  -19.6670  -25.6028   21.1416 H   0  0  0  0  0  0
  -19.6418  -27.2759   20.6449 H   0  0  0  0  0  0
  -17.3934  -26.6167   21.4426 H   0  0  0  0  0  0
  -18.0659  -26.0028   22.9294 H   0  0  0  0  0  0
  -19.8043  -30.7294   24.1914 H   0  0  0  0  0  0
  -17.5224  -31.6333   24.5114 H   0  0  0  0  0  0
  -15.5410  -30.2987   23.7813 H   0  0  0  0  0  0
  -15.8678  -28.0626   22.7301 H   0  0  0  0  0  0
  -24.5806  -30.7104   25.7694 H   0  0  0  0  0  0
  -24.8779  -32.2906   26.4718 H   0  0  0  0  0  0
  -25.7870  -30.8962   27.0190 H   0  0  0  0  0  0
  -26.2804  -29.6760   24.1070 H   0  0  0  0  0  0
  -27.4106  -29.7289   25.4426 H   0  0  0  0  0  0
  -27.8563  -30.4394   23.9052 H   0  0  0  0  0  0
  -27.2610  -33.3609   26.2018 H   0  0  0  0  0  0
  -28.3753  -32.6876   25.0212 H   0  0  0  0  0  0
  -28.0685  -31.8407   26.5328 H   0  0  0  0  0  0
  -28.2578  -38.0118   24.7446 H   0  0  0  0  0  0
  -28.1083  -36.2617   24.6312 H   0  0  0  0  0  0
  -27.2309  -37.1478   25.8896 H   0  0  0  0  0  0
  -20.9260  -29.8951   21.6877 H   0  0  0  0  0  0
  -26.0154  -38.2857   24.1321 H   0  0  0  0  0  0
  -26.5487  -20.4312   19.7746 H   0  0  0  0  0  0
  -29.6464  -22.4842   21.9289 H   0  0  0  0  0  0
  -26.7454  -18.5189   21.2548 H   0  0  0  0  0  0
  -29.7239  -20.6319   23.5938 H   0  0  0  0  0  0
  -30.3804  -25.0284   19.4850 H   0  0  0  0  0  0
  -29.7264  -24.4457   20.9894 H   0  0  0  0  0  0
  -27.8892  -15.3153   22.4951 H   0  0  0  0  0  0
  -28.1838  -16.5907   21.3501 H   0  0  0  0  0  0
  -30.1721  -16.1017   23.6440 H   0  0  0  0  0  0
  -30.4990  -16.9009   22.1385 H   0  0  0  0  0  0
  -27.4439  -24.9375   20.2894 H   0  0  0  0  0  0
  -28.0105  -25.3696   18.6557 H   0  0  0  0  0  0
  -27.7031  -16.7321   24.3501 H   0  0  0  0  0  0
  -26.6331  -17.3540   23.1413 H   0  0  0  0  0  0
  -27.7314  -22.0695   18.8071 H   0  0  0  0  0  0
  -30.3252  -13.9789   22.8232 H   0  0  0  0  0  0
  1 25  1  0  0  0
  1 30  2  0  0  0
  1 84  1  0  0  0
  2  3  1  0  0  0
  2 25  1  0  0  0
  2 87  1  0  0  0
  2 88  1  0  0  0
  3  4  1  0  0  0
  3 89  1  0  0  0
  3 90  1  0  0  0
  4  5  1  0  0  0
  4 91  1  0  0  0
  4 92  1  0  0  0
  5  6  1  0  0  0
  5 26  1  0  0  0
  5 93  1  0  0  0
  6 25  1  0  0  0
  6 94  1  0  0  0
  6 95  1  0  0  0
  7  8  2  0  0  0
  7 26  1  0  0  0
  7 29  1  0  0  0
  8  9  1  0  0  0
  8 22  1  0  0  0
  9 10  1  0  0  0
  9 27  2  0  0  0
 10 11  2  0  0  0
 10 15  1  0  0  0
 11 12  1  0  0  0
 11 96  1  0  0  0
 12 13  2  0  0  0
 12 97  1  0  0  0
 13 14  1  0  0  0
 13 31  1  0  0  0
 14 15  2  0  0  0
 14 98  1  0  0  0
 15 99  1  0  0  0
 16 17  2  0  0  0
 16 21  1  0  0  0
 16 31  1  0  0  0
 17 18  1  0  0  0
 17100  1  0  0  0
 18 19  2  0  0  0
 18101  1  0  0  0
 19 20  1  0  0  0
 19 24  1  0  0  0
 20 21  2  0  0  0
 20102  1  0  0  0
 21 23  1  0  0  0
 22 28  1  0  0  0
 22 32  2  0  0  0
 26 27  1  0  0  0
 28103  1  0  0  0
 28104  1  0  0  0
 29105  1  0  0  0
 29106  1  0  0  0
 33 34  1  0  0  0
 33 66  1  0  0  0
 33 70  2  0  0  0
 34 36  1  0  0  0
 34 59  1  0  0  0
 34107  1  0  0  0
 35 44  2  0  0  0
 35 45  1  0  0  0
 35 68  1  0  0  0
 36 56  1  0  0  0
 36108  1  0  0  0
 37 39  1  0  0  0
 37 47  1  0  0  0
 37 66  1  0  0  0
 37109  1  0  0  0
 38 43  2  0  0  0
 38 46  1  0  0  0
 38 47  1  0  0  0
 39 64  1  0  0  0
 39 67  2  0  0  0
 40 52  1  0  0  0
 40 53  2  0  0  0
 40 58  1  0  0  0
 41110  1  0  0  0
 41111  1  0  0  0
 41112  1  0  0  0
 41 48  1  0  0  0
 42 43  1  0  0  0
 42 66  1  0  0  0
 42113  1  0  0  0
 42114  1  0  0  0
 43 44  1  0  0  0
 44115  1  0  0  0
 45 46  2  0  0  0
 45116  1  0  0  0
 46117  1  0  0  0
 47118  1  0  0  0
 47119  1  0  0  0
 48 56  1  0  0  0
 48 65  1  0  0  0
 48120  1  0  0  0
 49 50  1  0  0  0
 49 53  1  0  0  0
 49 64  1  0  0  0
 49121  1  0  0  0
 50 51  1  0  0  0
 50122  1  0  0  0
 50123  1  0  0  0
 51 52  1  0  0  0
 51124  1  0  0  0
 51125  1  0  0  0
 52126  1  0  0  0
 52127  1  0  0  0
 53 54  1  0  0  0
 54 55  2  0  0  0
 54128  1  0  0  0
 55 57  1  0  0  0
 55129  1  0  0  0
 56 69  2  0  0  0
 57 58  2  0  0  0
 57130  1  0  0  0
 58131  1  0  0  0
 59 60  1  0  0  0
 59 61  1  0  0  0
 59 62  1  0  0  0
 60132  1  0  0  0
 60133  1  0  0  0
 60134  1  0  0  0
 61135  1  0  0  0
 61136  1  0  0  0
 61137  1  0  0  0
 62138  1  0  0  0
 62139  1  0  0  0
 62140  1  0  0  0
 63 65  1  0  0  0
 63141  1  0  0  0
 63142  1  0  0  0
 63143  1  0  0  0
 64144  1  0  0  0
 65145  1  0  0  0
 68 81  1  0  0  0
 71 73  2  0  0  0
 71 75  1  0  0  0
 71146  1  0  0  0
 72 74  1  0  0  0
 72 75  2  0  0  0
 72147  1  0  0  0
 73 76  1  0  0  0
 73148  1  0  0  0
 74 76  2  0  0  0
 74149  1  0  0  0
 75 83  1  0  0  0
 76 86  1  0  0  0
 77 78  1  0  0  0
 77 83  1  0  0  0
 77 85  2  0  0  0
 78 81  1  0  0  0
 78150  1  0  0  0
 78151  1  0  0  0
 79 80  1  0  0  0
 79 82  1  0  0  0
 79152  1  0  0  0
 79153  1  0  0  0
 80 84  1  0  0  0
 80154  1  0  0  0
 80155  1  0  0  0
 81156  1  0  0  0
 81157  1  0  0  0
 82 86  1  0  0  0
 82158  1  0  0  0
 82159  1  0  0  0
 83160  1  0  0  0
 84161  1  0  0  0
M  ISO  4   1 100  68 101  81 101  84 100
M  END
> <chiral flag>
0

> <version>
0

> <s_m_source_file>
/data/baiqing/PycharmProjects/Reinvent-master-3.2/result/LINK_invent/BTK/process_docking_weight1_custom_sum_contain_oxygen_bond_distance_aromatic_linkinvent_7_9_3/rearranged_h_0000.sdf

> <i_m_source_file_index>
11

> <r_mmod_Potential_Energy-OPLS-2005>
17.5544929504395

> <r_mmod_Stretch_Energy-OPLS-2005>
39.6714668273926

> <r_mmod_Bend_Energy-OPLS-2005>
117.061744689941

> <r_mmod_Torsional_Energy-OPLS-2005>
332.172271728516

> <r_mmod_Improper_Torsional_Energy-OPLS-2005>
8.05071258544922

> <r_mmod_Van_der_Waal_Energy-OPLS-2005>
162.908325195312

> <r_mmod_Electrostatic_Energy-OPLS-2005>
-417.304626464844

> <r_mmod_Solvation_Energy-OPLS-2005>
-247.124496459961

> <b_mmod_Minimization_Converged-OPLS-2005>
0

> <r_mmod_RMS_Derivative-OPLS-2005>
17.4207515716553

$$$$
11
                    3D
 Structure written by MMmdl.
213221  0  0  1  0            999 V2000
  -30.7828  -14.3630   20.6819 C   0  0  0  0  0  0
  -30.4088  -12.3080   19.3758 C   0  0  0  0  0  0
  -29.4785  -12.5680   18.1782 C   0  0  0  0  0  0
  -28.0097  -12.4048   18.6081 C   0  0  0  0  0  0
  -27.6673  -13.2108   19.8866 C   0  0  2  0  0  0
  -28.7093  -12.9617   20.9995 C   0  0  0  0  0  0
  -25.2562  -13.8027   20.5718 C   0  0  0  0  0  0
  -24.1853  -13.0345   20.9226 C   0  0  0  0  0  0
  -24.6423  -11.6808   20.8770 C   0  0  0  0  0  0
  -23.9096  -10.4215   21.0408 C   0  0  0  0  0  0
  -24.3609   -9.4098   21.9174 C   0  0  0  0  0  0
  -23.6243   -8.2165   22.0757 C   0  0  0  0  0  0
  -22.4202   -8.0259   21.3562 C   0  0  0  0  0  0
  -21.9868   -9.0253   20.4662 C   0  0  0  0  0  0
  -22.7269  -10.2082   20.3053 C   0  0  0  0  0  0
  -21.6827   -6.0687   22.5305 C   0  0  0  0  0  0
  -21.4009   -6.5585   23.8254 C   0  0  0  0  0  0
  -21.3679   -5.6737   24.9207 C   0  0  0  0  0  0
  -21.6046   -4.3003   24.7254 C   0  0  0  0  0  0
  -21.8805   -3.8101   23.4373 C   0  0  0  0  0  0
  -21.9170   -4.6911   22.3431 C   0  0  0  0  0  0
  -22.7812  -13.5055   21.1849 C   0  0  0  0  0  0
  -22.1642   -4.2095   21.1009 F   0  0  0  0  0  0
  -21.5638   -3.4497   25.7762 F   0  0  0  0  0  0
  -30.0490  -13.2455   20.4522 N   0  0  0  0  0  0
  -26.3063  -12.9281   20.3434 N   0  0  0  0  0  0
  -25.9346  -11.6413   20.5775 N   0  0  0  0  0  0
  -22.0456  -12.8167   22.0467 N   0  0  0  0  0  0
  -25.4401  -15.1708   20.4052 N   0  0  0  0  0  0
  -31.8016  -14.6531   20.0518 O   0  0  0  0  0  0
  -21.6585   -6.8825   21.4263 O   0  0  0  0  0  0
  -22.3355  -14.5163   20.6455 O   0  0  0  0  0  0
  -24.6224  -31.8772   23.2104 C   0  0  0  0  0  0
  -25.9149  -32.4789   23.8398 C   0  0  1  0  0  0
  -27.2374  -27.4504   20.0693 C   0  0  0  0  0  0
  -25.5997  -33.8572   24.2374 N   0  0  0  0  0  0
  -23.4016  -30.5120   21.5431 C   0  0  2  0  0  0
  -24.8396  -28.9525   20.1279 C   0  0  0  0  0  0
  -22.7311  -29.4936   22.4935 C   0  0  0  0  0  0
  -18.0256  -28.1232   22.8730 C   0  0  0  0  0  0
  -24.1524  -36.7334   23.2618 C   0  0  0  0  0  0
  -25.9336  -30.8260   21.3656 C   0  0  0  0  0  0
  -26.0007  -29.4548   20.7293 C   0  0  0  0  0  0
  -27.2001  -28.7084   20.7085 C   0  0  0  0  0  0
  -26.0767  -26.9874   19.4179 C   0  0  0  0  0  0
  -24.8683  -27.7102   19.4713 C   0  0  0  0  0  0
  -23.6132  -29.8363   20.1605 C   0  0  0  0  0  0
  -25.4101  -36.3062   24.0353 C   0  0  1  0  0  0
  -20.5922  -28.3745   23.1245 C   0  0  2  0  0  0
  -20.6940  -26.9544   22.5253 C   0  0  0  0  0  0
  -19.5596  -26.6316   21.5442 C   0  0  0  0  0  0
  -18.1940  -26.7655   22.2175 C   0  0  0  0  0  0
  -19.1541  -28.8741   23.2966 C   0  0  0  0  0  0
  -18.9516  -30.1386   23.8861 C   0  0  0  0  0  0
  -17.6545  -30.6481   24.0667 C   0  0  0  0  0  0
  -25.9006  -34.9432   23.5120 C   0  0  0  0  0  0
  -16.5389  -29.8979   23.6553 C   0  0  0  0  0  0
  -16.7260  -28.6388   23.0575 C   0  0  0  0  0  0
  -26.4505  -31.6488   25.0694 C   0  0  0  0  0  0
  -25.3868  -31.3506   26.1521 C   0  0  0  0  0  0
  -27.0320  -30.2977   24.5941 C   0  0  0  0  0  0
  -27.6107  -32.4135   25.7396 C   0  0  0  0  0  0
  -27.5573  -37.1813   24.8448 C   0  0  0  0  0  0
  -21.4073  -29.3186   22.3579 N   0  0  0  0  0  0
  -26.4281  -37.3730   23.9402 N   0  0  0  0  0  0
  -24.6689  -31.0922   22.0932 N   0  0  0  0  0  0
  -23.4030  -28.8628   23.3137 O   0  0  0  0  0  0
  -28.4088  -26.7290   20.0035 O   0  0  0  0  0  0
  -26.5475  -34.8905   22.4613 O   0  0  0  0  0  0
  -23.5468  -32.1549   23.7572 O   0  0  0  0  0  0
  -23.1979  -17.3093   21.5616 C   0  0  0  0  0  0
  -25.4387  -18.2482   21.3411 C   0  0  0  0  0  0
  -22.9197  -17.6545   20.2268 C   0  0  0  0  0  0
  -25.1592  -18.6077   20.0111 C   0  0  0  0  0  0
  -24.4564  -17.6032   22.1282 C   0  0  0  0  0  0
  -23.8972  -18.3185   19.4567 C   0  0  0  0  0  0
  -22.2930  -18.7819   16.2137 C   0  0  0  0  0  0
  -22.3726  -18.5596   14.8926 C   0  0  0  0  0  0
  -24.7266  -17.2501   23.5580 C   0  0  0  0  0  0
  -23.1811  -18.1268   17.1581 C   0  0  0  0  0  0
  -22.2019  -20.1130   12.9121 C   0  0  0  0  0  0
  -21.4454  -19.2174   13.8958 C   0  0  0  0  0  0
  -26.4342  -16.3706   25.1211 C   0  0  0  0  0  0
  -29.5229  -16.2305   21.5767 C   0  0  0  0  0  0
  -23.4742  -20.3696   18.2320 C   0  0  0  0  0  0
  -26.9614  -17.5832   25.9093 C   0  0  0  0  0  0
  -29.7676  -17.2941   22.6597 C   0  0  0  0  0  0
  -22.4572  -20.8531   19.2786 C   0  0  0  0  0  0
  -28.5270  -25.6048   20.8898 C   0  0  0  0  0  0
  -27.5861  -24.4273   20.5537 C   0  0  0  0  0  0
  -27.8531  -19.2514   24.4347 C   0  0  0  0  0  0
  -28.9990  -19.4288   23.4233 C   0  0  0  0  0  0
  -20.1406  -20.6398   19.9069 C   0  0  0  0  0  0
  -19.4904  -22.0285   19.8678 C   0  0  0  0  0  0
  -25.2400  -23.9471   20.6705 C   0  0  0  0  0  0
  -23.9756  -24.6130   21.2333 C   0  0  0  0  0  0
  -20.9401  -23.8249   19.1971 C   0  0  0  0  0  0
  -22.0958  -24.6878   19.7474 C   0  0  0  0  0  0
  -25.9443  -16.7601   23.8067 N   0  0  0  0  0  0
  -30.4354  -15.0989   21.7387 N   0  0  0  0  0  0
  -23.5250  -18.8986   18.2185 N   0  0  0  0  0  0
  -23.8574  -17.3787   24.4222 O   0  0  0  0  0  0
  -23.5777  -16.9629   17.0234 O   0  0  0  0  0  0
  -28.1091  -18.1153   25.2566 O   0  0  0  0  0  0
  -28.9429  -18.4276   22.4060 O   0  0  0  0  0  0
  -21.1292  -20.5018   18.8845 O   0  0  0  0  0  0
  -26.3350  -24.6935   21.1681 O   0  0  0  0  0  0
  -20.3983  -23.0470   20.2686 O   0  0  0  0  0  0
  -22.7812  -23.9851   20.7842 O   0  0  0  0  0  0
  -31.4551  -12.3898   19.0735 H   0  0  0  0  0  0
  -30.2904  -11.2825   19.7271 H   0  0  0  0  0  0
  -29.7098  -11.8816   17.3622 H   0  0  0  0  0  0
  -29.6497  -13.5743   17.7880 H   0  0  0  0  0  0
  -27.8419  -11.3452   18.7956 H   0  0  0  0  0  0
  -27.3414  -12.6856   17.7943 H   0  0  0  0  0  0
  -27.7252  -14.2682   19.6235 H   0  0  0  0  0  0
  -28.6720  -11.9237   21.3333 H   0  0  0  0  0  0
  -28.4704  -13.5594   21.8798 H   0  0  0  0  0  0
  -25.2741   -9.5519   22.4763 H   0  0  0  0  0  0
  -23.9930   -7.4505   22.7442 H   0  0  0  0  0  0
  -21.0796   -8.8831   19.8957 H   0  0  0  0  0  0
  -22.3794  -10.9640   19.6181 H   0  0  0  0  0  0
  -21.2014   -7.6091   23.9783 H   0  0  0  0  0  0
  -21.1533   -6.0435   25.9124 H   0  0  0  0  0  0
  -22.0563   -2.7559   23.2908 H   0  0  0  0  0  0
  -22.3926  -11.9839   22.4977 H   0  0  0  0  0  0
  -21.1060  -13.1227   22.2539 H   0  0  0  0  0  0
  -24.6826  -15.8404   20.4978 H   0  0  0  0  0  0
  -26.2819  -15.5962   20.0476 H   0  0  0  0  0  0
  -26.7232  -32.5501   23.1156 H   0  0  0  0  0  0
  -25.0317  -33.9669   25.0638 H   0  0  0  0  0  0
  -22.7227  -31.3573   21.3969 H   0  0  0  0  0  0
  -23.3704  -35.9728   23.3209 H   0  0  0  0  0  0
  -24.3684  -36.8983   22.2046 H   0  0  0  0  0  0
  -23.7392  -37.6573   23.6649 H   0  0  0  0  0  0
  -26.0710  -31.5746   20.5852 H   0  0  0  0  0  0
  -26.8254  -30.8763   21.9735 H   0  0  0  0  0  0
  -28.1041  -29.0943   21.1565 H   0  0  0  0  0  0
  -26.1251  -26.0623   18.8622 H   0  0  0  0  0  0
  -23.9784  -27.3310   18.9853 H   0  0  0  0  0  0
  -23.7674  -30.6185   19.4192 H   0  0  0  0  0  0
  -22.7352  -29.2937   19.8059 H   0  0  0  0  0  0
  -25.1272  -36.1849   25.0841 H   0  0  0  0  0  0
  -21.0139  -28.3447   24.1316 H   0  0  0  0  0  0
  -20.6550  -26.2313   23.3389 H   0  0  0  0  0  0
  -21.6648  -26.7983   22.0570 H   0  0  0  0  0  0
  -19.6674  -25.6230   21.1508 H   0  0  0  0  0  0
  -19.6106  -27.3029   20.6873 H   0  0  0  0  0  0
  -17.4092  -26.6038   21.4798 H   0  0  0  0  0  0
  -18.0659  -25.9921   22.9775 H   0  0  0  0  0  0
  -19.8105  -30.7191   24.1963 H   0  0  0  0  0  0
  -17.5231  -31.6126   24.5325 H   0  0  0  0  0  0
  -15.5423  -30.2874   23.8039 H   0  0  0  0  0  0
  -15.8577  -28.0710   22.7466 H   0  0  0  0  0  0
  -24.6096  -30.6707   25.7992 H   0  0  0  0  0  0
  -24.8967  -32.2582   26.5052 H   0  0  0  0  0  0
  -25.8409  -30.8731   27.0229 H   0  0  0  0  0  0
  -26.2841  -29.6748   24.1018 H   0  0  0  0  0  0
  -27.4241  -29.7151   25.4293 H   0  0  0  0  0  0
  -27.8599  -30.4403   23.8996 H   0  0  0  0  0  0
  -27.2768  -33.3449   26.1976 H   0  0  0  0  0  0
  -28.3847  -32.6649   25.0125 H   0  0  0  0  0  0
  -28.0778  -31.8193   26.5258 H   0  0  0  0  0  0
  -28.2535  -38.0158   24.7424 H   0  0  0  0  0  0
  -28.1130  -36.2675   24.6276 H   0  0  0  0  0  0
  -27.2296  -37.1427   25.8855 H   0  0  0  0  0  0
  -20.9303  -29.8673   21.6567 H   0  0  0  0  0  0
  -26.0151  -38.2802   24.1313 H   0  0  0  0  0  0
  -22.4398  -16.8067   22.1465 H   0  0  0  0  0  0
  -26.4083  -18.4900   21.7479 H   0  0  0  0  0  0
  -21.9336  -17.4704   19.8216 H   0  0  0  0  0  0
  -25.8998  -19.1421   19.4313 H   0  0  0  0  0  0
  -21.5387  -19.4534   16.5922 H   0  0  0  0  0  0
  -23.1244  -17.8904   14.4943 H   0  0  0  0  0  0
  -21.5068  -20.5944   12.2237 H   0  0  0  0  0  0
  -22.9163  -19.5373   12.3213 H   0  0  0  0  0  0
  -22.7500  -20.8980   13.4364 H   0  0  0  0  0  0
  -20.6990  -19.8106   14.4264 H   0  0  0  0  0  0
  -20.9000  -18.4389   13.3627 H   0  0  0  0  0  0
  -25.6431  -15.8680   25.6807 H   0  0  0  0  0  0
  -27.2307  -15.6351   24.9980 H   0  0  0  0  0  0
  -29.6558  -16.6812   20.5918 H   0  0  0  0  0  0
  -28.4900  -15.8856   21.6283 H   0  0  0  0  0  0
  -24.4643  -20.7315   18.5143 H   0  0  0  0  0  0
  -23.2962  -20.8282   17.2588 H   0  0  0  0  0  0
  -27.2642  -17.2333   26.8959 H   0  0  0  0  0  0
  -26.1881  -18.3356   26.0771 H   0  0  0  0  0  0
  -30.8161  -17.5962   22.6489 H   0  0  0  0  0  0
  -29.5630  -16.8744   23.6456 H   0  0  0  0  0  0
  -22.6060  -21.9162   19.4131 H   0  0  0  0  0  0
  -22.6806  -20.4171   20.2483 H   0  0  0  0  0  0
  -29.5624  -25.2540   20.8345 H   0  0  0  0  0  0
  -28.3640  -25.9211   21.9203 H   0  0  0  0  0  0
  -27.9647  -23.4948   20.9763 H   0  0  0  0  0  0
  -27.5129  -24.3065   19.4717 H   0  0  0  0  0  0
  -26.9062  -19.1843   23.9002 H   0  0  0  0  0  0
  -27.7760  -20.1364   25.0676 H   0  0  0  0  0  0
  -29.9721  -19.4652   23.9196 H   0  0  0  0  0  0
  -28.8726  -20.3946   22.9306 H   0  0  0  0  0  0
  -19.3509  -19.9147   19.6936 H   0  0  0  0  0  0
  -20.5066  -20.3722   20.9009 H   0  0  0  0  0  0
  -18.6539  -22.0526   20.5694 H   0  0  0  0  0  0
  -19.0733  -22.2011   18.8795 H   0  0  0  0  0  0
  -25.2446  -23.9647   19.5805 H   0  0  0  0  0  0
  -25.3075  -22.9088   21.0018 H   0  0  0  0  0  0
  -23.9619  -25.6761   21.0085 H   0  0  0  0  0  0
  -24.0383  -24.5455   22.3168 H   0  0  0  0  0  0
  -21.2968  -23.2110   18.3669 H   0  0  0  0  0  0
  -20.1538  -24.4433   18.7644 H   0  0  0  0  0  0
  -21.7037  -25.6275   20.1353 H   0  0  0  0  0  0
  -22.7981  -24.9414   18.9538 H   0  0  0  0  0  0
  -26.5931  -16.7065   23.0340 H   0  0  0  0  0  0
  -31.2614  -15.3981   22.2361 H   0  0  0  0  0  0
  1 25  1  0  0  0
  1 30  2  0  0  0
  1100  1  0  0  0
  2  3  1  0  0  0
  2 25  1  0  0  0
  2110  1  0  0  0
  2111  1  0  0  0
  3  4  1  0  0  0
  3112  1  0  0  0
  3113  1  0  0  0
  4  5  1  0  0  0
  4114  1  0  0  0
  4115  1  0  0  0
  5  6  1  0  0  0
  5 26  1  0  0  0
  5116  1  0  0  0
  6 25  1  0  0  0
  6117  1  0  0  0
  6118  1  0  0  0
  7  8  2  0  0  0
  7 26  1  0  0  0
  7 29  1  0  0  0
  8  9  1  0  0  0
  8 22  1  0  0  0
  9 10  1  0  0  0
  9 27  2  0  0  0
 10 11  2  0  0  0
 10 15  1  0  0  0
 11 12  1  0  0  0
 11119  1  0  0  0
 12 13  2  0  0  0
 12120  1  0  0  0
 13 14  1  0  0  0
 13 31  1  0  0  0
 14 15  2  0  0  0
 14121  1  0  0  0
 15122  1  0  0  0
 16 17  2  0  0  0
 16 21  1  0  0  0
 16 31  1  0  0  0
 17 18  1  0  0  0
 17123  1  0  0  0
 18 19  2  0  0  0
 18124  1  0  0  0
 19 20  1  0  0  0
 19 24  1  0  0  0
 20 21  2  0  0  0
 20125  1  0  0  0
 21 23  1  0  0  0
 22 28  1  0  0  0
 22 32  2  0  0  0
 26 27  1  0  0  0
 28126  1  0  0  0
 28127  1  0  0  0
 29128  1  0  0  0
 29129  1  0  0  0
 33 34  1  0  0  0
 33 66  1  0  0  0
 33 70  2  0  0  0
 34 36  1  0  0  0
 34 59  1  0  0  0
 34130  1  0  0  0
 35 44  2  0  0  0
 35 45  1  0  0  0
 35 68  1  0  0  0
 36 56  1  0  0  0
 36131  1  0  0  0
 37 39  1  0  0  0
 37 47  1  0  0  0
 37 66  1  0  0  0
 37132  1  0  0  0
 38 43  2  0  0  0
 38 46  1  0  0  0
 38 47  1  0  0  0
 39 64  1  0  0  0
 39 67  2  0  0  0
 40 52  1  0  0  0
 40 53  2  0  0  0
 40 58  1  0  0  0
 41133  1  0  0  0
 41134  1  0  0  0
 41135  1  0  0  0
 41 48  1  0  0  0
 42 43  1  0  0  0
 42 66  1  0  0  0
 42136  1  0  0  0
 42137  1  0  0  0
 43 44  1  0  0  0
 44138  1  0  0  0
 45 46  2  0  0  0
 45139  1  0  0  0
 46140  1  0  0  0
 47141  1  0  0  0
 47142  1  0  0  0
 48 56  1  0  0  0
 48 65  1  0  0  0
 48143  1  0  0  0
 49 50  1  0  0  0
 49 53  1  0  0  0
 49 64  1  0  0  0
 49144  1  0  0  0
 50 51  1  0  0  0
 50145  1  0  0  0
 50146  1  0  0  0
 51 52  1  0  0  0
 51147  1  0  0  0
 51148  1  0  0  0
 52149  1  0  0  0
 52150  1  0  0  0
 53 54  1  0  0  0
 54 55  2  0  0  0
 54151  1  0  0  0
 55 57  1  0  0  0
 55152  1  0  0  0
 56 69  2  0  0  0
 57 58  2  0  0  0
 57153  1  0  0  0
 58154  1  0  0  0
 59 60  1  0  0  0
 59 61  1  0  0  0
 59 62  1  0  0  0
 60155  1  0  0  0
 60156  1  0  0  0
 60157  1  0  0  0
 61158  1  0  0  0
 61159  1  0  0  0
 61160  1  0  0  0
 62161  1  0  0  0
 62162  1  0  0  0
 62163  1  0  0  0
 63 65  1  0  0  0
 63164  1  0  0  0
 63165  1  0  0  0
 63166  1  0  0  0
 64167  1  0  0  0
 65168  1  0  0  0
 68 89  1  0  0  0
 71 73  2  0  0  0
 71 75  1  0  0  0
 71169  1  0  0  0
 72 74  1  0  0  0
 72 75  2  0  0  0
 72170  1  0  0  0
 73 76  1  0  0  0
 73171  1  0  0  0
 74 76  2  0  0  0
 74172  1  0  0  0
 75 79  1  0  0  0
 76101  1  0  0  0
 77 78  2  0  0  0
 77 80  1  0  0  0
 77173  1  0  0  0
 78 82  1  0  0  0
 78174  1  0  0  0
 79 99  1  0  0  0
 79102  2  0  0  0
 80101  1  0  0  0
 80103  2  0  0  0
 81 82  1  0  0  0
 81175  1  0  0  0
 81176  1  0  0  0
 81177  1  0  0  0
 82178  1  0  0  0
 82179  1  0  0  0
 83 86  1  0  0  0
 83 99  1  0  0  0
 83180  1  0  0  0
 83181  1  0  0  0
 84 87  1  0  0  0
 84100  1  0  0  0
 84182  1  0  0  0
 84183  1  0  0  0
 85 88  1  0  0  0
 85101  1  0  0  0
 85184  1  0  0  0
 85185  1  0  0  0
 86104  1  0  0  0
 86186  1  0  0  0
 86187  1  0  0  0
 87105  1  0  0  0
 87188  1  0  0  0
 87189  1  0  0  0
 88106  1  0  0  0
 88190  1  0  0  0
 88191  1  0  0  0
 89 90  1  0  0  0
 89192  1  0  0  0
 89193  1  0  0  0
 90107  1  0  0  0
 90194  1  0  0  0
 90195  1  0  0  0
 91 92  1  0  0  0
 91104  1  0  0  0
 91196  1  0  0  0
 91197  1  0  0  0
 92105  1  0  0  0
 92198  1  0  0  0
 92199  1  0  0  0
 93 94  1  0  0  0
 93106  1  0  0  0
 93200  1  0  0  0
 93201  1  0  0  0
 94108  1  0  0  0
 94202  1  0  0  0
 94203  1  0  0  0
 95 96  1  0  0  0
 95107  1  0  0  0
 95204  1  0  0  0
 95205  1  0  0  0
 96109  1  0  0  0
 96206  1  0  0  0
 96207  1  0  0  0
 97 98  1  0  0  0
 97108  1  0  0  0
 97208  1  0  0  0
 97209  1  0  0  0
 98109  1  0  0  0
 98210  1  0  0  0
 98211  1  0  0  0
 99212  1  0  0  0
100213  1  0  0  0
M  ISO  4   1 100  68 101  89 101 100 100
M  END
> <chiral flag>
0

> <version>
0

> <s_m_source_file>
/data/baiqing/PycharmProjects/Reinvent-master-3.2/result/LINK_invent/BTK/process_docking_weight1_custom_sum_contain_oxygen_bond_distance_aromatic_linkinvent_7_9_3/rearranged_h_0000.sdf

> <i_m_source_file_index>
12

> <r_mmod_Potential_Energy-OPLS-2005>
18.2703609466553

> <r_mmod_Stretch_Energy-OPLS-2005>
38.3280639648438

> <r_mmod_Bend_Energy-OPLS-2005>
131.372543334961

> <r_mmod_Torsional_Energy-OPLS-2005>
416.837829589844

> <r_mmod_Improper_Torsional_Energy-OPLS-2005>
9.88229084014893

> <r_mmod_Van_der_Waal_Energy-OPLS-2005>
128.370635986328

> <r_mmod_Electrostatic_Energy-OPLS-2005>
-457.609527587891

> <r_mmod_Solvation_Energy-OPLS-2005>
-259.611114501953

> <b_mmod_Minimization_Converged-OPLS-2005>
0

> <r_mmod_RMS_Derivative-OPLS-2005>
9.08793449401855

$$$$
12
                    3D
 Structure written by MMmdl.
156164  0  0  1  0            999 V2000
  -30.1010  -16.2044   20.2850 C   0  0  0  0  0  0
  -30.3733  -13.5143   19.5395 C   0  0  0  0  0  0
  -29.5701  -12.8141   18.3845 C   0  0  0  0  0  0
  -28.1892  -12.3411   18.8487 C   0  0  0  0  0  0
  -27.5792  -13.3771   19.8103 C   0  0  2  0  0  0
  -28.5586  -13.9400   20.8889 C   0  0  0  0  0  0
  -25.2219  -13.8399   20.5924 C   0  0  0  0  0  0
  -24.1667  -13.0449   20.9360 C   0  0  0  0  0  0
  -24.6459  -11.6989   20.8774 C   0  0  0  0  0  0
  -23.9170  -10.4309   21.0373 C   0  0  0  0  0  0
  -24.3680   -9.4213   21.9165 C   0  0  0  0  0  0
  -23.6324   -8.2260   22.0747 C   0  0  0  0  0  0
  -22.4308   -8.0298   21.3542 C   0  0  0  0  0  0
  -21.9965   -9.0271   20.4634 C   0  0  0  0  0  0
  -22.7322  -10.2140   20.3026 C   0  0  0  0  0  0
  -21.6865   -6.0735   22.5278 C   0  0  0  0  0  0
  -21.4023   -6.5637   23.8210 C   0  0  0  0  0  0
  -21.3659   -5.6790   24.9175 C   0  0  0  0  0  0
  -21.6043   -4.3050   24.7229 C   0  0  0  0  0  0
  -21.8816   -3.8142   23.4350 C   0  0  0  0  0  0
  -21.9194   -4.6959   22.3407 C   0  0  0  0  0  0
  -22.7653  -13.5119   21.1971 C   0  0  0  0  0  0
  -22.1659   -4.2134   21.0984 F   0  0  0  0  0  0
  -21.5627   -3.4537   25.7744 F   0  0  0  0  0  0
  -29.6357  -14.7409   20.1999 N   0  0  0  0  0  0
  -26.2758  -12.9866   20.3359 N   0  0  0  0  0  0
  -25.9444  -11.6859   20.5685 N   0  0  0  0  0  0
  -22.0336  -12.8073   22.0517 N   0  0  0  0  0  0
  -25.3699  -15.2152   20.4388 N   0  0  0  0  0  0
  -31.3453  -16.0363   20.1872 O   0  0  0  0  0  0
  -21.6657   -6.8892   21.4241 O   0  0  0  0  0  0
  -22.3292  -14.5395   20.6787 O   0  0  0  0  0  0
  -24.7237  -31.7533   23.1242 C   0  0  0  0  0  0
  -25.9632  -32.4231   23.7919 C   0  0  1  0  0  0
  -27.2373  -26.3073   20.2107 C   0  0  0  0  0  0
  -25.6046  -33.8083   24.1745 N   0  0  0  0  0  0
  -23.5698  -30.3410   21.4867 C   0  0  2  0  0  0
  -25.0418  -28.6238   20.1140 C   0  0  0  0  0  0
  -22.7963  -29.4050   22.4601 C   0  0  0  0  0  0
  -18.0369  -28.1434   22.8432 C   0  0  0  0  0  0
  -24.1494  -36.7043   23.2668 C   0  0  0  0  0  0
  -26.1673  -30.3459   21.4650 C   0  0  0  0  0  0
  -26.2285  -28.8722   20.8127 C   0  0  0  0  0  0
  -27.2874  -27.7504   20.8419 C   0  0  0  0  0  0
  -26.0622  -26.4319   19.3885 C   0  0  0  0  0  0
  -25.0258  -27.4326   19.3732 C   0  0  0  0  0  0
  -23.8499  -29.6167   20.1335 C   0  0  0  0  0  0
  -25.4158  -36.2750   24.0255 C   0  0  1  0  0  0
  -20.6030  -28.3811   23.1049 C   0  0  2  0  0  0
  -20.6814  -26.9424   22.5403 C   0  0  0  0  0  0
  -19.5797  -26.6343   21.5215 C   0  0  0  0  0  0
  -18.1980  -26.7950   22.1608 C   0  0  0  0  0  0
  -19.1650  -28.8957   23.2710 C   0  0  0  0  0  0
  -18.9547  -30.1533   23.8778 C   0  0  0  0  0  0
  -17.6527  -30.6607   24.0539 C   0  0  0  0  0  0
  -25.9166  -34.9155   23.4854 C   0  0  0  0  0  0
  -16.5415  -29.9081   23.6360 C   0  0  0  0  0  0
  -16.7347  -28.6509   23.0376 C   0  0  0  0  0  0
  -26.4676  -31.6444   25.0713 C   0  0  0  0  0  0
  -25.3619  -31.3883   26.1237 C   0  0  0  0  0  0
  -27.0675  -30.2728   24.6942 C   0  0  0  0  0  0
  -27.6035  -32.4404   25.7545 C   0  0  0  0  0  0
  -27.5536  -37.1679   24.8477 C   0  0  0  0  0  0
  -21.4576  -29.2975   22.3325 N   0  0  0  0  0  0
  -26.4249  -37.3555   23.9405 N   0  0  0  0  0  0
  -24.8479  -30.8561   22.0749 N   0  0  0  0  0  0
  -23.4206  -28.7711   23.3132 O   0  0  0  0  0  0
  -27.9689  -24.7628   20.2966 O   0  0  0  0  0  0
  -26.5846  -34.8807   22.4505 O   0  0  0  0  0  0
  -23.6167  -32.0817   23.5910 O   0  0  0  0  0  0
  -27.4572  -22.3499   19.4978 C   0  0  0  0  0  0
  -28.9058  -22.7553   21.5284 C   0  0  0  0  0  0
  -26.2391  -23.4021   19.9881 C   0  0  0  0  0  0
  -27.8333  -23.8304   22.2951 C   0  0  0  0  0  0
  -28.6706  -21.6185   20.3358 C   0  0  0  0  0  0
  -26.3052  -24.1633   21.5445 C   0  0  0  0  0  0
  -26.5823  -21.8416   21.7958 C   0  0  0  0  0  0
  -29.4767  -19.7043   20.2034 C   0  0  0  0  0  0
  -25.0223  -21.7101   21.8794 C   0  0  0  0  0  0
  -24.2618  -22.6273   22.8876 C   0  0  0  0  0  0
  -24.8508  -24.0090   23.2720 C   0  0  0  0  0  0
  -29.3717  -17.7340   20.3036 N   0  0  0  0  0  0
  -27.1515  -20.9128   22.4048 O   0  0  0  0  0  0
  -25.2350  -24.7590   22.1329 O   0  0  0  0  0  0
  -31.3127  -13.8533   19.1021 H   0  0  0  0  0  0
  -30.6826  -12.7865   20.2927 H   0  0  0  0  0  0
  -30.1405  -11.9780   17.9770 H   0  0  0  0  0  0
  -29.4429  -13.5228   17.5659 H   0  0  0  0  0  0
  -28.3108  -11.3938   19.3742 H   0  0  0  0  0  0
  -27.5341  -12.1469   17.9981 H   0  0  0  0  0  0
  -27.3676  -14.2208   19.1508 H   0  0  0  0  0  0
  -28.9446  -13.1526   21.5401 H   0  0  0  0  0  0
  -28.0260  -14.6285   21.5460 H   0  0  0  0  0  0
  -25.2810   -9.5674   22.4762 H   0  0  0  0  0  0
  -24.0003   -7.4648   22.7477 H   0  0  0  0  0  0
  -21.0891   -8.8796   19.8945 H   0  0  0  0  0  0
  -22.3772  -10.9666   19.6131 H   0  0  0  0  0  0
  -21.2027   -7.6144   23.9711 H   0  0  0  0  0  0
  -21.1482   -6.0524   25.9073 H   0  0  0  0  0  0
  -22.0599   -2.7602   23.2868 H   0  0  0  0  0  0
  -22.3987  -11.9753   22.4901 H   0  0  0  0  0  0
  -21.0922  -13.1014   22.2686 H   0  0  0  0  0  0
  -24.5961  -15.8608   20.5555 H   0  0  0  0  0  0
  -26.2109  -15.6627   20.1006 H   0  0  0  0  0  0
  -26.7776  -32.4604   23.0676 H   0  0  0  0  0  0
  -25.0064  -33.9064   24.9812 H   0  0  0  0  0  0
  -22.9186  -31.1900   21.2684 H   0  0  0  0  0  0
  -23.3774  -35.9354   23.3265 H   0  0  0  0  0  0
  -24.3546  -36.8791   22.2097 H   0  0  0  0  0  0
  -23.7249  -37.6189   23.6816 H   0  0  0  0  0  0
  -26.4218  -31.0448   20.6663 H   0  0  0  0  0  0
  -27.0003  -30.4188   22.1493 H   0  0  0  0  0  0
  -28.1452  -27.9476   21.4704 H   0  0  0  0  0  0
  -25.8517  -25.5926   18.7460 H   0  0  0  0  0  0
  -24.1673  -27.2384   18.7454 H   0  0  0  0  0  0
  -24.0512  -30.3686   19.3699 H   0  0  0  0  0  0
  -22.9498  -29.0993   19.7964 H   0  0  0  0  0  0
  -25.1387  -36.1458   25.0744 H   0  0  0  0  0  0
  -21.0100  -28.3467   24.1181 H   0  0  0  0  0  0
  -20.5614  -26.2452   23.3709 H   0  0  0  0  0  0
  -21.6677  -26.7275   22.1268 H   0  0  0  0  0  0
  -19.6938  -25.6220   21.1330 H   0  0  0  0  0  0
  -19.6756  -27.3086   20.6694 H   0  0  0  0  0  0
  -17.4247  -26.6703   21.4011 H   0  0  0  0  0  0
  -18.0349  -26.0115   22.9025 H   0  0  0  0  0  0
  -19.8021  -30.7376   24.2103 H   0  0  0  0  0  0
  -17.5077  -31.6275   24.5161 H   0  0  0  0  0  0
  -15.5414  -30.2947   23.7745 H   0  0  0  0  0  0
  -15.8749  -28.0784   22.7158 H   0  0  0  0  0  0
  -24.5871  -30.7170   25.7522 H   0  0  0  0  0  0
  -24.8753  -32.3145   26.4304 H   0  0  0  0  0  0
  -25.7699  -30.9285   27.0251 H   0  0  0  0  0  0
  -26.3481  -29.6195   24.2008 H   0  0  0  0  0  0
  -27.3985  -29.7364   25.5848 H   0  0  0  0  0  0
  -27.9513  -30.3749   24.0640 H   0  0  0  0  0  0
  -27.2529  -33.3839   26.1749 H   0  0  0  0  0  0
  -28.4037  -32.6755   25.0508 H   0  0  0  0  0  0
  -28.0502  -31.8798   26.5773 H   0  0  0  0  0  0
  -28.2525  -37.9991   24.7471 H   0  0  0  0  0  0
  -28.1049  -36.2505   24.6365 H   0  0  0  0  0  0
  -27.2239  -37.1382   25.8876 H   0  0  0  0  0  0
  -20.9969  -29.8600   21.6302 H   0  0  0  0  0  0
  -26.0035  -38.2585   24.1406 H   0  0  0  0  0  0
  -27.2112  -21.8482   18.5706 H   0  0  0  0  0  0
  -29.7823  -22.5616   22.1283 H   0  0  0  0  0  0
  -25.3689  -23.5282   19.3579 H   0  0  0  0  0  0
  -28.0902  -24.2825   23.2424 H   0  0  0  0  0  0
  -29.9065  -19.7871   19.2039 H   0  0  0  0  0  0
  -30.3389  -19.8486   20.8541 H   0  0  0  0  0  0
  -24.7938  -20.6745   22.1293 H   0  0  0  0  0  0
  -24.5987  -21.8392   20.8846 H   0  0  0  0  0  0
  -24.0975  -22.0697   23.8082 H   0  0  0  0  0  0
  -23.2652  -22.7960   22.4751 H   0  0  0  0  0  0
  -25.6843  -23.9058   23.9694 H   0  0  0  0  0  0
  -24.0919  -24.5819   23.8048 H   0  0  0  0  0  0
  -28.3844  -17.5239   20.3514 H   0  0  0  0  0  0
  1 25  1  0  0  0
  1 30  2  0  0  0
  1 82  1  0  0  0
  2  3  1  0  0  0
  2 25  1  0  0  0
  2 85  1  0  0  0
  2 86  1  0  0  0
  3  4  1  0  0  0
  3 87  1  0  0  0
  3 88  1  0  0  0
  4  5  1  0  0  0
  4 89  1  0  0  0
  4 90  1  0  0  0
  5  6  1  0  0  0
  5 26  1  0  0  0
  5 91  1  0  0  0
  6 25  1  0  0  0
  6 92  1  0  0  0
  6 93  1  0  0  0
  7  8  2  0  0  0
  7 26  1  0  0  0
  7 29  1  0  0  0
  8  9  1  0  0  0
  8 22  1  0  0  0
  9 10  1  0  0  0
  9 27  2  0  0  0
 10 11  2  0  0  0
 10 15  1  0  0  0
 11 12  1  0  0  0
 11 94  1  0  0  0
 12 13  2  0  0  0
 12 95  1  0  0  0
 13 14  1  0  0  0
 13 31  1  0  0  0
 14 15  2  0  0  0
 14 96  1  0  0  0
 15 97  1  0  0  0
 16 17  2  0  0  0
 16 21  1  0  0  0
 16 31  1  0  0  0
 17 18  1  0  0  0
 17 98  1  0  0  0
 18 19  2  0  0  0
 18 99  1  0  0  0
 19 20  1  0  0  0
 19 24  1  0  0  0
 20 21  2  0  0  0
 20100  1  0  0  0
 21 23  1  0  0  0
 22 28  1  0  0  0
 22 32  2  0  0  0
 26 27  1  0  0  0
 28101  1  0  0  0
 28102  1  0  0  0
 29103  1  0  0  0
 29104  1  0  0  0
 33 34  1  0  0  0
 33 66  1  0  0  0
 33 70  2  0  0  0
 34 36  1  0  0  0
 34 59  1  0  0  0
 34105  1  0  0  0
 35 44  2  0  0  0
 35 45  1  0  0  0
 35 68  1  0  0  0
 36 56  1  0  0  0
 36106  1  0  0  0
 37 39  1  0  0  0
 37 47  1  0  0  0
 37 66  1  0  0  0
 37107  1  0  0  0
 38 43  2  0  0  0
 38 46  1  0  0  0
 38 47  1  0  0  0
 39 64  1  0  0  0
 39 67  2  0  0  0
 40 52  1  0  0  0
 40 53  2  0  0  0
 40 58  1  0  0  0
 41108  1  0  0  0
 41109  1  0  0  0
 41110  1  0  0  0
 41 48  1  0  0  0
 42 43  1  0  0  0
 42 66  1  0  0  0
 42111  1  0  0  0
 42112  1  0  0  0
 43 44  1  0  0  0
 44113  1  0  0  0
 45 46  2  0  0  0
 45114  1  0  0  0
 46115  1  0  0  0
 47116  1  0  0  0
 47117  1  0  0  0
 48 56  1  0  0  0
 48 65  1  0  0  0
 48118  1  0  0  0
 49 50  1  0  0  0
 49 53  1  0  0  0
 49 64  1  0  0  0
 49119  1  0  0  0
 50 51  1  0  0  0
 50120  1  0  0  0
 50121  1  0  0  0
 51 52  1  0  0  0
 51122  1  0  0  0
 51123  1  0  0  0
 52124  1  0  0  0
 52125  1  0  0  0
 53 54  1  0  0  0
 54 55  2  0  0  0
 54126  1  0  0  0
 55 57  1  0  0  0
 55127  1  0  0  0
 56 69  2  0  0  0
 57 58  2  0  0  0
 57128  1  0  0  0
 58129  1  0  0  0
 59 60  1  0  0  0
 59 61  1  0  0  0
 59 62  1  0  0  0
 60130  1  0  0  0
 60131  1  0  0  0
 60132  1  0  0  0
 61133  1  0  0  0
 61134  1  0  0  0
 61135  1  0  0  0
 62136  1  0  0  0
 62137  1  0  0  0
 62138  1  0  0  0
 63 65  1  0  0  0
 63139  1  0  0  0
 63140  1  0  0  0
 63141  1  0  0  0
 64142  1  0  0  0
 65143  1  0  0  0
 68 77  1  0  0  0
 71 73  2  0  0  0
 71 75  1  0  0  0
 71144  1  0  0  0
 72 74  1  0  0  0
 72 75  2  0  0  0
 72145  1  0  0  0
 73 76  1  0  0  0
 73146  1  0  0  0
 74 76  2  0  0  0
 74147  1  0  0  0
 75 78  1  0  0  0
 76 84  1  0  0  0
 77 79  1  0  0  0
 77 83  2  0  0  0
 78 82  1  0  0  0
 78148  1  0  0  0
 78149  1  0  0  0
 79 80  1  0  0  0
 79150  1  0  0  0
 79151  1  0  0  0
 80 81  1  0  0  0
 80152  1  0  0  0
 80153  1  0  0  0
 81 84  1  0  0  0
 81154  1  0  0  0
 81155  1  0  0  0
 82156  1  0  0  0
M  ISO  4   1 100  68 101  77 101  82 100
M  END
> <chiral flag>
0

> <version>
0

> <s_m_source_file>
/data/baiqing/PycharmProjects/Reinvent-master-3.2/result/LINK_invent/BTK/process_docking_weight1_custom_sum_contain_oxygen_bond_distance_aromatic_linkinvent_7_9_3/rearranged_h_0000.sdf

> <i_m_source_file_index>
13

> <r_mmod_Potential_Energy-OPLS-2005>
11404.2119140625

> <r_mmod_Stretch_Energy-OPLS-2005>
7115.87548828125

> <r_mmod_Bend_Energy-OPLS-2005>
785.609252929688

> <r_mmod_Torsional_Energy-OPLS-2005>
341.792144775391

> <r_mmod_Improper_Torsional_Energy-OPLS-2005>
10.2702751159668

> <r_mmod_Van_der_Waal_Energy-OPLS-2005>
1789.16857910156

> <r_mmod_Electrostatic_Energy-OPLS-2005>
-407.829681396484

> <r_mmod_Solvation_Energy-OPLS-2005>
-235.16748046875

> <b_mmod_Minimization_Converged-OPLS-2005>
0

> <r_mmod_RMS_Derivative-OPLS-2005>
3.66810321807861

$$$$
13
                    3D
 Structure written by MMmdl.
196204  0  0  1  0            999 V2000
  -30.7162  -14.3882   20.6791 C   0  0  0  0  0  0
  -30.4319  -12.2985   19.3936 C   0  0  0  0  0  0
  -29.4964  -12.5352   18.1905 C   0  0  0  0  0  0
  -28.0158  -12.3806   18.5965 C   0  0  0  0  0  0
  -27.6636  -13.1945   19.8673 C   0  0  2  0  0  0
  -28.6976  -12.9085   20.9700 C   0  0  0  0  0  0
  -25.2633  -13.8146   20.5786 C   0  0  0  0  0  0
  -24.1870  -13.0435   20.9238 C   0  0  0  0  0  0
  -24.6371  -11.6884   20.8679 C   0  0  0  0  0  0
  -23.9004  -10.4281   21.0312 C   0  0  0  0  0  0
  -24.3606   -9.4210   21.9069 C   0  0  0  0  0  0
  -23.6310   -8.2241   22.0689 C   0  0  0  0  0  0
  -22.4277   -8.0255   21.3517 C   0  0  0  0  0  0
  -21.9882   -9.0183   20.4596 C   0  0  0  0  0  0
  -22.7199  -10.2060   20.2939 C   0  0  0  0  0  0
  -21.6863   -6.0728   22.5272 C   0  0  0  0  0  0
  -21.4008   -6.5638   23.8193 C   0  0  0  0  0  0
  -21.3620   -5.6783   24.9143 C   0  0  0  0  0  0
  -21.6038   -4.3048   24.7202 C   0  0  0  0  0  0
  -21.8860   -3.8151   23.4323 C   0  0  0  0  0  0
  -21.9227   -4.6967   22.3385 C   0  0  0  0  0  0
  -22.7873  -13.5197   21.1798 C   0  0  0  0  0  0
  -22.1685   -4.2159   21.0957 F   0  0  0  0  0  0
  -21.5610   -3.4533   25.7710 F   0  0  0  0  0  0
  -30.0397  -13.2317   20.4567 N   0  0  0  0  0  0
  -26.3028  -12.9293   20.3317 N   0  0  0  0  0  0
  -25.9276  -11.6456   20.5637 N   0  0  0  0  0  0
  -22.0228  -12.7740   21.9701 N   0  0  0  0  0  0
  -25.4286  -15.1887   20.4245 N   0  0  0  0  0  0
  -31.7821  -14.6724   20.1247 O   0  0  0  0  0  0
  -21.6663   -6.8852   21.4225 O   0  0  0  0  0  0
  -22.3656  -14.5675   20.6905 O   0  0  0  0  0  0
  -24.6139  -31.8695   23.2160 C   0  0  0  0  0  0
  -25.9062  -32.4810   23.8430 C   0  0  1  0  0  0
  -27.2335  -27.4631   20.0760 C   0  0  0  0  0  0
  -25.5917  -33.8613   24.2365 N   0  0  0  0  0  0
  -23.4004  -30.5004   21.5532 C   0  0  2  0  0  0
  -24.8463  -28.9822   20.1102 C   0  0  0  0  0  0
  -22.7385  -29.4712   22.4981 C   0  0  0  0  0  0
  -18.0286  -28.1332   22.8449 C   0  0  0  0  0  0
  -24.1471  -36.7314   23.2641 C   0  0  0  0  0  0
  -25.9315  -30.8460   21.3681 C   0  0  0  0  0  0
  -26.0072  -29.4849   20.7106 C   0  0  0  0  0  0
  -27.1977  -28.7289   20.7006 C   0  0  0  0  0  0
  -26.0492  -26.9793   19.4646 C   0  0  0  0  0  0
  -24.8603  -27.7254   19.4900 C   0  0  0  0  0  0
  -23.6073  -29.8436   20.1627 C   0  0  0  0  0  0
  -25.4079  -36.3118   24.0365 C   0  0  1  0  0  0
  -20.5854  -28.3681   23.1330 C   0  0  2  0  0  0
  -20.6765  -26.9409   22.5460 C   0  0  0  0  0  0
  -19.5793  -26.6354   21.5187 C   0  0  0  0  0  0
  -18.1974  -26.7901   22.1567 C   0  0  0  0  0  0
  -19.1502  -28.8815   23.2881 C   0  0  0  0  0  0
  -18.9396  -30.1411   23.8886 C   0  0  0  0  0  0
  -17.6388  -30.6530   24.0516 C   0  0  0  0  0  0
  -25.9007  -34.9477   23.5157 C   0  0  0  0  0  0
  -16.5321  -29.8968   23.6257 C   0  0  0  0  0  0
  -16.7276  -28.6405   23.0294 C   0  0  0  0  0  0
  -26.4487  -31.6596   25.0760 C   0  0  0  0  0  0
  -25.3784  -31.3730   26.1537 C   0  0  0  0  0  0
  -27.0352  -30.3057   24.6167 C   0  0  0  0  0  0
  -27.6076  -32.4296   25.7490 C   0  0  0  0  0  0
  -27.5583  -37.1805   24.8473 C   0  0  0  0  0  0
  -21.4113  -29.3081   22.3749 N   0  0  0  0  0  0
  -26.4273  -37.3797   23.9456 N   0  0  0  0  0  0
  -24.6678  -31.0831   22.1035 N   0  0  0  0  0  0
  -23.4187  -28.8224   23.2986 O   0  0  0  0  0  0
  -28.4200  -26.7548   20.0957 O   0  0  0  0  0  0
  -26.5552  -34.8922   22.4695 O   0  0  0  0  0  0
  -23.5338  -32.1411   23.7575 O   0  0  0  0  0  0
  -23.8470  -13.2160   25.3446 C   0  0  0  0  0  0
  -23.7770  -15.5424   24.6345 C   0  0  0  0  0  0
  -25.2068  -13.1518   24.9893 C   0  0  0  0  0  0
  -25.1402  -15.4746   24.2744 C   0  0  0  0  0  0
  -23.1329  -14.4245   25.2075 C   0  0  0  0  0  0
  -25.8772  -14.2850   24.4909 C   0  0  0  0  0  0
  -21.7098  -14.5276   25.7434 C   0  0  0  0  0  0
  -29.4626  -14.8271   23.8420 C   0  0  0  0  0  0
  -19.1673  -14.7395   22.8539 C   0  0  0  0  0  0
  -27.6319  -24.4721   20.5607 C   0  0  0  0  0  0
  -19.7635  -19.2154   21.5252 C   0  0  0  0  0  0
  -23.9285  -21.4377   20.8398 C   0  0  0  0  0  0
  -30.4175  -15.5213   22.8480 C   0  0  0  0  0  0
  -20.2180  -15.2048   23.8804 C   0  0  0  0  0  0
  -27.9789  -15.2462   23.7735 C   0  0  0  0  0  0
  -18.4202  -15.9261   22.2297 C   0  0  0  0  0  0
  -28.4161  -25.4104   19.6158 C   0  0  0  0  0  0
  -26.9214  -23.3437   19.8009 C   0  0  0  0  0  0
  -18.7877  -18.0647   21.2432 C   0  0  0  0  0  0
  -21.0122  -19.1909   20.6366 C   0  0  0  0  0  0
  -25.1204  -21.8164   19.9527 C   0  0  0  0  0  0
  -22.9516  -20.4707   20.1572 C   0  0  0  0  0  0
  -30.0801  -15.2887   21.4419 N   0  0  0  0  0  0
  -20.7016  -14.1138   24.7524 N   0  3  0  0  0  0
  -27.2294  -14.1477   24.2768 O   0  0  0  0  0  0
  -19.3668  -16.8567   21.7247 O   0  0  0  0  0  0
  -25.9367  -22.7553   20.6420 O   0  0  0  0  0  0
  -21.8791  -20.2352   21.0578 O   0  0  0  0  0  0
  -31.4728  -12.4240   19.0948 H   0  0  0  0  0  0
  -30.3518  -11.2704   19.7516 H   0  0  0  0  0  0
  -29.7396  -11.8486   17.3795 H   0  0  0  0  0  0
  -29.6627  -13.5401   17.7938 H   0  0  0  0  0  0
  -27.8233  -11.3215   18.7739 H   0  0  0  0  0  0
  -27.3718  -12.6727   17.7666 H   0  0  0  0  0  0
  -27.7276  -14.2508   19.6087 H   0  0  0  0  0  0
  -28.6677  -11.8592   21.2617 H   0  0  0  0  0  0
  -28.4234  -13.4607   21.8581 H   0  0  0  0  0  0
  -25.2818   -9.5716   22.4500 H   0  0  0  0  0  0
  -24.0112   -7.4608   22.7329 H   0  0  0  0  0  0
  -21.0837   -8.8575   19.8883 H   0  0  0  0  0  0
  -22.3640  -10.9490   19.5930 H   0  0  0  0  0  0
  -21.2007   -7.6150   23.9664 H   0  0  0  0  0  0
  -21.1358   -6.0508   25.9021 H   0  0  0  0  0  0
  -22.0711   -2.7628   23.2818 H   0  0  0  0  0  0
  -22.3738  -11.8878   22.3085 H   0  0  0  0  0  0
  -21.0336  -12.9614   21.9886 H   0  0  0  0  0  0
  -24.6516  -15.8298   20.5422 H   0  0  0  0  0  0
  -26.2769  -15.6435   20.1134 H   0  0  0  0  0  0
  -26.7160  -32.5565   23.1219 H   0  0  0  0  0  0
  -25.0210  -33.9782   25.0608 H   0  0  0  0  0  0
  -22.6908  -31.3190   21.4243 H   0  0  0  0  0  0
  -23.3730  -35.9648   23.3280 H   0  0  0  0  0  0
  -24.3590  -36.8939   22.2069 H   0  0  0  0  0  0
  -23.7206  -37.6525   23.6620 H   0  0  0  0  0  0
  -26.0447  -31.6190   20.6067 H   0  0  0  0  0  0
  -26.8211  -30.8917   21.9840 H   0  0  0  0  0  0
  -28.0909  -29.1171   21.1708 H   0  0  0  0  0  0
  -26.0070  -26.0261   18.9622 H   0  0  0  0  0  0
  -23.9661  -27.3345   19.0275 H   0  0  0  0  0  0
  -23.7103  -30.6259   19.4082 H   0  0  0  0  0  0
  -22.7337  -29.2627   19.8628 H   0  0  0  0  0  0
  -25.1210  -36.2000   25.0853 H   0  0  0  0  0  0
  -20.9871  -28.3265   24.1492 H   0  0  0  0  0  0
  -20.5579  -26.2319   23.3655 H   0  0  0  0  0  0
  -21.6667  -26.7377   22.1364 H   0  0  0  0  0  0
  -19.6912  -25.6204   21.1327 H   0  0  0  0  0  0
  -19.6748  -27.3098   20.6692 H   0  0  0  0  0  0
  -17.4291  -26.6581   21.3940 H   0  0  0  0  0  0
  -18.0345  -26.0039   22.8930 H   0  0  0  0  0  0
  -19.7896  -30.7189   24.2250 H   0  0  0  0  0  0
  -17.4890  -31.6206   24.5080 H   0  0  0  0  0  0
  -15.5283  -30.2797   23.7512 H   0  0  0  0  0  0
  -15.8710  -28.0702   22.6977 H   0  0  0  0  0  0
  -24.5885  -30.7127   25.7918 H   0  0  0  0  0  0
  -24.9045  -32.2921   26.5012 H   0  0  0  0  0  0
  -25.8162  -30.8882   27.0282 H   0  0  0  0  0  0
  -26.2940  -29.6778   24.1227 H   0  0  0  0  0  0
  -27.4165  -29.7321   25.4641 H   0  0  0  0  0  0
  -27.8721  -30.4410   23.9312 H   0  0  0  0  0  0
  -27.2696  -33.3566   26.2132 H   0  0  0  0  0  0
  -28.3831  -32.6912   25.0265 H   0  0  0  0  0  0
  -28.0805  -31.8385   26.5352 H   0  0  0  0  0  0
  -28.2581  -38.0118   24.7516 H   0  0  0  0  0  0
  -28.1087  -36.2668   24.6227 H   0  0  0  0  0  0
  -27.2342  -37.1381   25.8884 H   0  0  0  0  0  0
  -20.9233  -29.8767   21.6979 H   0  0  0  0  0  0
  -26.0175  -38.2882   24.1447 H   0  0  0  0  0  0
  -23.3681  -12.3415   25.7613 H   0  0  0  0  0  0
  -23.2430  -16.4725   24.4987 H   0  0  0  0  0  0
  -25.7508  -12.2295   25.1364 H   0  0  0  0  0  0
  -25.6075  -16.3562   23.8616 H   0  0  0  0  0  0
  -21.5070  -15.5333   26.1167 H   0  0  0  0  0  0
  -21.6259  -13.8717   26.6100 H   0  0  0  0  0  0
  -29.8103  -15.0085   24.8602 H   0  0  0  0  0  0
  -29.5452  -13.7473   23.7127 H   0  0  0  0  0  0
  -18.4355  -14.0843   23.3286 H   0  0  0  0  0  0
  -19.6452  -14.1549   22.0698 H   0  0  0  0  0  0
  -26.8789  -25.0327   21.1154 H   0  0  0  0  0  0
  -28.2936  -24.0737   21.3279 H   0  0  0  0  0  0
  -20.0490  -19.1874   22.5777 H   0  0  0  0  0  0
  -19.2514  -20.1653   21.3702 H   0  0  0  0  0  0
  -23.3951  -22.3473   21.1178 H   0  0  0  0  0  0
  -24.2801  -20.9954   21.7713 H   0  0  0  0  0  0
  -31.4429  -15.1972   23.0469 H   0  0  0  0  0  0
  -30.4047  -16.5976   23.0176 H   0  0  0  0  0  0
  -19.7868  -15.9862   24.5074 H   0  0  0  0  0  0
  -21.0631  -15.6520   23.3531 H   0  0  0  0  0  0
  -27.6623  -15.4554   22.7504 H   0  0  0  0  0  0
  -27.8214  -16.1481   24.3669 H   0  0  0  0  0  0
  -17.8064  -16.3956   23.0002 H   0  0  0  0  0  0
  -17.7517  -15.5903   21.4344 H   0  0  0  0  0  0
  -29.4472  -25.0584   19.5385 H   0  0  0  0  0  0
  -28.0400  -25.3894   18.5929 H   0  0  0  0  0  0
  -27.6400  -22.5985   19.4560 H   0  0  0  0  0  0
  -26.4281  -23.7579   18.9186 H   0  0  0  0  0  0
  -18.5671  -17.9827   20.1780 H   0  0  0  0  0  0
  -17.8456  -18.2797   21.7523 H   0  0  0  0  0  0
  -20.7244  -19.3252   19.5937 H   0  0  0  0  0  0
  -21.5241  -18.2306   20.7149 H   0  0  0  0  0  0
  -24.7453  -22.2556   19.0259 H   0  0  0  0  0  0
  -25.7125  -20.9363   19.6937 H   0  0  0  0  0  0
  -23.4533  -19.5373   19.8901 H   0  0  0  0  0  0
  -22.5617  -20.9064   19.2355 H   0  0  0  0  0  0
  -30.0352  -16.1737   20.9578 H   0  0  0  0  0  0
  -19.9164  -13.7535   25.2711 H   0  0  0  0  0  0
  -21.0907  -13.3615   24.2111 H   0  0  0  0  0  0
  1 25  1  0  0  0
  1 30  2  0  0  0
  1 93  1  0  0  0
  2  3  1  0  0  0
  2 25  1  0  0  0
  2 99  1  0  0  0
  2100  1  0  0  0
  3  4  1  0  0  0
  3101  1  0  0  0
  3102  1  0  0  0
  4  5  1  0  0  0
  4103  1  0  0  0
  4104  1  0  0  0
  5  6  1  0  0  0
  5 26  1  0  0  0
  5105  1  0  0  0
  6 25  1  0  0  0
  6106  1  0  0  0
  6107  1  0  0  0
  7  8  2  0  0  0
  7 26  1  0  0  0
  7 29  1  0  0  0
  8  9  1  0  0  0
  8 22  1  0  0  0
  9 10  1  0  0  0
  9 27  2  0  0  0
 10 11  2  0  0  0
 10 15  1  0  0  0
 11 12  1  0  0  0
 11108  1  0  0  0
 12 13  2  0  0  0
 12109  1  0  0  0
 13 14  1  0  0  0
 13 31  1  0  0  0
 14 15  2  0  0  0
 14110  1  0  0  0
 15111  1  0  0  0
 16 17  2  0  0  0
 16 21  1  0  0  0
 16 31  1  0  0  0
 17 18  1  0  0  0
 17112  1  0  0  0
 18 19  2  0  0  0
 18113  1  0  0  0
 19 20  1  0  0  0
 19 24  1  0  0  0
 20 21  2  0  0  0
 20114  1  0  0  0
 21 23  1  0  0  0
 22 28  1  0  0  0
 22 32  2  0  0  0
 26 27  1  0  0  0
 28115  1  0  0  0
 28116  1  0  0  0
 29117  1  0  0  0
 29118  1  0  0  0
 33 34  1  0  0  0
 33 66  1  0  0  0
 33 70  2  0  0  0
 34 36  1  0  0  0
 34 59  1  0  0  0
 34119  1  0  0  0
 35 44  2  0  0  0
 35 45  1  0  0  0
 35 68  1  0  0  0
 36 56  1  0  0  0
 36120  1  0  0  0
 37 39  1  0  0  0
 37 47  1  0  0  0
 37 66  1  0  0  0
 37121  1  0  0  0
 38 43  2  0  0  0
 38 46  1  0  0  0
 38 47  1  0  0  0
 39 64  1  0  0  0
 39 67  2  0  0  0
 40 52  1  0  0  0
 40 53  2  0  0  0
 40 58  1  0  0  0
 41122  1  0  0  0
 41123  1  0  0  0
 41124  1  0  0  0
 41 48  1  0  0  0
 42 43  1  0  0  0
 42 66  1  0  0  0
 42125  1  0  0  0
 42126  1  0  0  0
 43 44  1  0  0  0
 44127  1  0  0  0
 45 46  2  0  0  0
 45128  1  0  0  0
 46129  1  0  0  0
 47130  1  0  0  0
 47131  1  0  0  0
 48 56  1  0  0  0
 48 65  1  0  0  0
 48132  1  0  0  0
 49 50  1  0  0  0
 49 53  1  0  0  0
 49 64  1  0  0  0
 49133  1  0  0  0
 50 51  1  0  0  0
 50134  1  0  0  0
 50135  1  0  0  0
 51 52  1  0  0  0
 51136  1  0  0  0
 51137  1  0  0  0
 52138  1  0  0  0
 52139  1  0  0  0
 53 54  1  0  0  0
 54 55  2  0  0  0
 54140  1  0  0  0
 55 57  1  0  0  0
 55141  1  0  0  0
 56 69  2  0  0  0
 57 58  2  0  0  0
 57142  1  0  0  0
 58143  1  0  0  0
 59 60  1  0  0  0
 59 61  1  0  0  0
 59 62  1  0  0  0
 60144  1  0  0  0
 60145  1  0  0  0
 60146  1  0  0  0
 61147  1  0  0  0
 61148  1  0  0  0
 61149  1  0  0  0
 62150  1  0  0  0
 62151  1  0  0  0
 62152  1  0  0  0
 63 65  1  0  0  0
 63153  1  0  0  0
 63154  1  0  0  0
 63155  1  0  0  0
 64156  1  0  0  0
 65157  1  0  0  0
 68 87  1  0  0  0
 71 73  2  0  0  0
 71 75  1  0  0  0
 71158  1  0  0  0
 72 74  1  0  0  0
 72 75  2  0  0  0
 72159  1  0  0  0
 73 76  1  0  0  0
 73160  1  0  0  0
 74 76  2  0  0  0
 74161  1  0  0  0
 75 77  1  0  0  0
 76 95  1  0  0  0
 77 94  1  0  0  0
 77162  1  0  0  0
 77163  1  0  0  0
 78 83  1  0  0  0
 78 85  1  0  0  0
 78164  1  0  0  0
 78165  1  0  0  0
 79 84  1  0  0  0
 79 86  1  0  0  0
 79166  1  0  0  0
 79167  1  0  0  0
 80 87  1  0  0  0
 80 88  1  0  0  0
 80168  1  0  0  0
 80169  1  0  0  0
 81 89  1  0  0  0
 81 90  1  0  0  0
 81170  1  0  0  0
 81171  1  0  0  0
 82 91  1  0  0  0
 82 92  1  0  0  0
 82172  1  0  0  0
 82173  1  0  0  0
 83 93  1  0  0  0
 83174  1  0  0  0
 83175  1  0  0  0
 84 94  1  0  0  0
 84176  1  0  0  0
 84177  1  0  0  0
 85 95  1  0  0  0
 85178  1  0  0  0
 85179  1  0  0  0
 86 96  1  0  0  0
 86180  1  0  0  0
 86181  1  0  0  0
 87182  1  0  0  0
 87183  1  0  0  0
 88 97  1  0  0  0
 88184  1  0  0  0
 88185  1  0  0  0
 89 96  1  0  0  0
 89186  1  0  0  0
 89187  1  0  0  0
 90 98  1  0  0  0
 90188  1  0  0  0
 90189  1  0  0  0
 91 97  1  0  0  0
 91190  1  0  0  0
 91191  1  0  0  0
 92 98  1  0  0  0
 92192  1  0  0  0
 92193  1  0  0  0
 93194  1  0  0  0
 94195  1  0  0  0
 94196  1  0  0  0
M  CHG  1  94   1
M  ISO  4   1 100  68 101  87 101  93 100
M  END
> <chiral flag>
0

> <version>
0

> <s_m_source_file>
/data/baiqing/PycharmProjects/Reinvent-master-3.2/result/LINK_invent/BTK/process_docking_weight1_custom_sum_contain_oxygen_bond_distance_aromatic_linkinvent_7_9_3/rearranged_h_0000.sdf

> <i_m_source_file_index>
14

> <r_mmod_Potential_Energy-OPLS-2005>
-221.560806274414

> <r_mmod_Stretch_Energy-OPLS-2005>
33.9485359191895

> <r_mmod_Bend_Energy-OPLS-2005>
119.897300720215

> <r_mmod_Torsional_Energy-OPLS-2005>
280.722869873047

> <r_mmod_Improper_Torsional_Energy-OPLS-2005>
8.78028583526611

> <r_mmod_Van_der_Waal_Energy-OPLS-2005>
131.962631225586

> <r_mmod_Electrostatic_Energy-OPLS-2005>
-298.375457763672

> <r_mmod_Solvation_Energy-OPLS-2005>
-508.171417236328

> <b_mmod_Minimization_Converged-OPLS-2005>
0

> <r_mmod_RMS_Derivative-OPLS-2005>
4.6683087348938

$$$$
14
                    3D
 Structure written by MMmdl.
150157  0  0  1  0            999 V2000
  -30.6623  -14.5678   20.5389 C   0  0  0  0  0  0
  -30.4350  -12.3358   19.4355 C   0  0  0  0  0  0
  -29.5045  -12.5042   18.2151 C   0  0  0  0  0  0
  -28.0242  -12.3551   18.6246 C   0  0  0  0  0  0
  -27.6553  -13.2127   19.8658 C   0  0  2  0  0  0
  -28.6896  -13.0276   20.9947 C   0  0  0  0  0  0
  -25.2564  -13.8171   20.5672 C   0  0  0  0  0  0
  -24.1822  -13.0438   20.9165 C   0  0  0  0  0  0
  -24.6384  -11.6906   20.8716 C   0  0  0  0  0  0
  -23.9054  -10.4293   21.0397 C   0  0  0  0  0  0
  -24.3613   -9.4212   21.9179 C   0  0  0  0  0  0
  -23.6292   -8.2244   22.0753 C   0  0  0  0  0  0
  -22.4273   -8.0281   21.3544 C   0  0  0  0  0  0
  -21.9903   -9.0249   20.4647 C   0  0  0  0  0  0
  -22.7225  -10.2130   20.3050 C   0  0  0  0  0  0
  -21.6854   -6.0736   22.5277 C   0  0  0  0  0  0
  -21.4014   -6.5641   23.8209 C   0  0  0  0  0  0
  -21.3658   -5.6795   24.9174 C   0  0  0  0  0  0
  -21.6045   -4.3056   24.7227 C   0  0  0  0  0  0
  -21.8818   -3.8148   23.4347 C   0  0  0  0  0  0
  -21.9194   -4.6964   22.3403 C   0  0  0  0  0  0
  -22.7848  -13.5231   21.1849 C   0  0  0  0  0  0
  -22.1662   -4.2148   21.0980 F   0  0  0  0  0  0
  -21.5630   -3.4539   25.7740 F   0  0  0  0  0  0
  -30.0167  -13.3202   20.4419 N   0  0  0  0  0  0
  -26.2986  -12.9346   20.3304 N   0  0  0  0  0  0
  -25.9306  -11.6499   20.5725 N   0  0  0  0  0  0
  -22.0507  -12.8213   22.0411 N   0  0  0  0  0  0
  -25.4301  -15.1894   20.4127 N   0  0  0  0  0  0
  -31.7993  -14.7981   20.1220 O   0  0  0  0  0  0
  -21.6643   -6.8875   21.4237 O   0  0  0  0  0  0
  -22.3524  -14.5537   20.6710 O   0  0  0  0  0  0
  -24.6196  -31.8641   23.2038 C   0  0  0  0  0  0
  -25.9069  -32.4800   23.8355 C   0  0  1  0  0  0
  -27.2335  -27.3805   20.1159 C   0  0  0  0  0  0
  -25.5913  -33.8600   24.2296 N   0  0  0  0  0  0
  -23.4102  -30.4847   21.5456 C   0  0  2  0  0  0
  -24.8576  -28.9363   20.1192 C   0  0  0  0  0  0
  -22.7435  -29.4644   22.4971 C   0  0  0  0  0  0
  -18.0279  -28.1374   22.8493 C   0  0  0  0  0  0
  -24.1490  -36.7307   23.2641 C   0  0  0  0  0  0
  -25.9429  -30.8139   21.3626 C   0  0  0  0  0  0
  -26.0207  -29.4416   20.7140 C   0  0  0  0  0  0
  -27.2143  -28.6747   20.7000 C   0  0  0  0  0  0
  -26.0526  -26.8966   19.5178 C   0  0  0  0  0  0
  -24.8712  -27.6658   19.5151 C   0  0  0  0  0  0
  -23.6221  -29.8102   20.1634 C   0  0  0  0  0  0
  -25.4113  -36.3099   24.0333 C   0  0  1  0  0  0
  -20.5874  -28.3672   23.1306 C   0  0  2  0  0  0
  -20.6772  -26.9404   22.5416 C   0  0  0  0  0  0
  -19.5750  -26.6383   21.5214 C   0  0  0  0  0  0
  -18.1927  -26.7921   22.1624 C   0  0  0  0  0  0
  -19.1528  -28.8839   23.2897 C   0  0  0  0  0  0
  -18.9457  -30.1446   23.8908 C   0  0  0  0  0  0
  -17.6460  -30.6583   24.0563 C   0  0  0  0  0  0
  -25.9047  -34.9466   23.5115 C   0  0  0  0  0  0
  -16.5351  -29.9083   23.6325 C   0  0  0  0  0  0
  -16.7267  -28.6497   23.0349 C   0  0  0  0  0  0
  -26.4478  -31.6584   25.0699 C   0  0  0  0  0  0
  -25.3731  -31.3693   26.1437 C   0  0  0  0  0  0
  -27.0314  -30.3025   24.6095 C   0  0  0  0  0  0
  -27.6055  -32.4297   25.7465 C   0  0  0  0  0  0
  -27.5577  -37.1809   24.8465 C   0  0  0  0  0  0
  -21.4159  -29.3038   22.3710 N   0  0  0  0  0  0
  -26.4292  -37.3789   23.9407 N   0  0  0  0  0  0
  -24.6760  -31.0702   22.0954 N   0  0  0  0  0  0
  -23.4185  -28.8195   23.3037 O   0  0  0  0  0  0
  -28.3900  -26.6187   20.0764 O   0  0  0  0  0  0
  -26.5609  -34.8926   22.4679 O   0  0  0  0  0  0
  -23.5377  -32.1411   23.7408 O   0  0  0  0  0  0
  -28.3956  -25.3422   20.7774 C   0  0  0  0  0  0
  -30.2206  -16.9199   21.2653 C   0  0  0  0  0  0
  -28.1547  -24.0250   19.9564 C   0  0  0  0  0  0
  -29.7994  -17.9943   20.1999 C   0  0  0  0  0  0
  -28.3761  -21.5706   20.0436 C   0  0  0  0  0  0
  -29.4044  -20.3949   19.8226 C   0  0  0  0  0  0
  -29.8140  -15.5466   21.0316 O   0  0  0  0  0  0
  -28.9132  -22.8682   20.4184 O   0  0  0  0  0  0
  -29.3562  -19.2724   20.7454 O   0  0  0  0  0  0
  -31.4780  -12.4671   19.1420 H   0  0  0  0  0  0
  -30.3582  -11.3276   19.8447 H   0  0  0  0  0  0
  -29.7545  -11.7712   17.4468 H   0  0  0  0  0  0
  -29.6620  -13.4856   17.7644 H   0  0  0  0  0  0
  -27.8459  -11.3006   18.8383 H   0  0  0  0  0  0
  -27.3742  -12.6084   17.7862 H   0  0  0  0  0  0
  -27.6910  -14.2561   19.5511 H   0  0  0  0  0  0
  -28.6684  -12.0027   21.3675 H   0  0  0  0  0  0
  -28.4502  -13.6602   21.8509 H   0  0  0  0  0  0
  -25.2760   -9.5695   22.4749 H   0  0  0  0  0  0
  -24.0008   -7.4637   22.7470 H   0  0  0  0  0  0
  -21.0834   -8.8759   19.8953 H   0  0  0  0  0  0
  -22.3677  -10.9667   19.6156 H   0  0  0  0  0  0
  -21.2001   -7.6148   23.9709 H   0  0  0  0  0  0
  -21.1483   -6.0529   25.9075 H   0  0  0  0  0  0
  -22.0599   -2.7610   23.2849 H   0  0  0  0  0  0
  -22.4133  -11.9863   22.4772 H   0  0  0  0  0  0
  -21.1129  -13.1233   22.2644 H   0  0  0  0  0  0
  -24.6714  -15.8514   20.5348 H   0  0  0  0  0  0
  -26.2984  -15.6278   20.1313 H   0  0  0  0  0  0
  -26.7140  -32.5497   23.1114 H   0  0  0  0  0  0
  -25.0073  -33.9747   25.0447 H   0  0  0  0  0  0
  -22.7016  -31.3029   21.4010 H   0  0  0  0  0  0
  -23.3746  -35.9646   23.3312 H   0  0  0  0  0  0
  -24.3580  -36.8914   22.2053 H   0  0  0  0  0  0
  -23.7247  -37.6519   23.6648 H   0  0  0  0  0  0
  -26.0593  -31.5749   20.5892 H   0  0  0  0  0  0
  -26.8295  -30.8706   21.9826 H   0  0  0  0  0  0
  -28.1163  -29.0660   21.1500 H   0  0  0  0  0  0
  -26.0464  -25.9255   19.0441 H   0  0  0  0  0  0
  -23.9780  -27.2726   19.0493 H   0  0  0  0  0  0
  -23.7343  -30.5818   19.4011 H   0  0  0  0  0  0
  -22.7442  -29.2328   19.8671 H   0  0  0  0  0  0
  -25.1288  -36.1964   25.0825 H   0  0  0  0  0  0
  -20.9966  -28.3243   24.1425 H   0  0  0  0  0  0
  -20.5682  -26.2279   23.3608 H   0  0  0  0  0  0
  -21.6642  -26.7447   22.1204 H   0  0  0  0  0  0
  -19.6919  -25.6298   21.1232 H   0  0  0  0  0  0
  -19.6688  -27.3206   20.6754 H   0  0  0  0  0  0
  -17.4201  -26.6673   21.4022 H   0  0  0  0  0  0
  -18.0327  -26.0053   22.9009 H   0  0  0  0  0  0
  -19.7936  -30.7257   24.2280 H   0  0  0  0  0  0
  -17.5015  -31.6264   24.5164 H   0  0  0  0  0  0
  -15.5351  -30.2991   23.7641 H   0  0  0  0  0  0
  -15.8665  -28.0821   22.7058 H   0  0  0  0  0  0
  -24.5915  -30.7032   25.7759 H   0  0  0  0  0  0
  -24.8904  -32.2846   26.4878 H   0  0  0  0  0  0
  -25.8071  -30.8861   27.0199 H   0  0  0  0  0  0
  -26.2862  -29.6782   24.1152 H   0  0  0  0  0  0
  -27.4082  -29.7267   25.4559 H   0  0  0  0  0  0
  -27.8695  -30.4332   23.9243 H   0  0  0  0  0  0
  -27.2686  -33.3594   26.2060 H   0  0  0  0  0  0
  -28.3858  -32.6862   25.0286 H   0  0  0  0  0  0
  -28.0730  -31.8404   26.5364 H   0  0  0  0  0  0
  -28.2608  -38.0096   24.7507 H   0  0  0  0  0  0
  -28.1058  -36.2628   24.6294 H   0  0  0  0  0  0
  -27.2289  -37.1463   25.8866 H   0  0  0  0  0  0
  -20.9330  -29.8751   21.6917 H   0  0  0  0  0  0
  -26.0182  -38.2870   24.1397 H   0  0  0  0  0  0
  -29.3934  -25.2724   21.2103 H   0  0  0  0  0  0
  -27.7208  -25.3738   21.6343 H   0  0  0  0  0  0
  -29.7504  -17.1971   22.2086 H   0  0  0  0  0  0
  -31.2937  -16.9791   21.4540 H   0  0  0  0  0  0
  -28.4258  -24.1942   18.9136 H   0  0  0  0  0  0
  -27.0859  -23.8055   19.9637 H   0  0  0  0  0  0
  -28.9845  -17.5999   19.5914 H   0  0  0  0  0  0
  -30.6403  -18.1471   19.5217 H   0  0  0  0  0  0
  -27.6201  -21.2774   20.7721 H   0  0  0  0  0  0
  -27.8354  -21.6928   19.1032 H   0  0  0  0  0  0
  -30.4213  -20.7873   19.7924 H   0  0  0  0  0  0
  -29.2173  -20.0058   18.8199 H   0  0  0  0  0  0
  1 25  1  0  0  0
  1 30  2  0  0  0
  1 77  1  0  0  0
  2  3  1  0  0  0
  2 25  1  0  0  0
  2 80  1  0  0  0
  2 81  1  0  0  0
  3  4  1  0  0  0
  3 82  1  0  0  0
  3 83  1  0  0  0
  4  5  1  0  0  0
  4 84  1  0  0  0
  4 85  1  0  0  0
  5  6  1  0  0  0
  5 26  1  0  0  0
  5 86  1  0  0  0
  6 25  1  0  0  0
  6 87  1  0  0  0
  6 88  1  0  0  0
  7  8  2  0  0  0
  7 26  1  0  0  0
  7 29  1  0  0  0
  8  9  1  0  0  0
  8 22  1  0  0  0
  9 10  1  0  0  0
  9 27  2  0  0  0
 10 11  2  0  0  0
 10 15  1  0  0  0
 11 12  1  0  0  0
 11 89  1  0  0  0
 12 13  2  0  0  0
 12 90  1  0  0  0
 13 14  1  0  0  0
 13 31  1  0  0  0
 14 15  2  0  0  0
 14 91  1  0  0  0
 15 92  1  0  0  0
 16 17  2  0  0  0
 16 21  1  0  0  0
 16 31  1  0  0  0
 17 18  1  0  0  0
 17 93  1  0  0  0
 18 19  2  0  0  0
 18 94  1  0  0  0
 19 20  1  0  0  0
 19 24  1  0  0  0
 20 21  2  0  0  0
 20 95  1  0  0  0
 21 23  1  0  0  0
 22 28  1  0  0  0
 22 32  2  0  0  0
 26 27  1  0  0  0
 28 96  1  0  0  0
 28 97  1  0  0  0
 29 98  1  0  0  0
 29 99  1  0  0  0
 33 34  1  0  0  0
 33 66  1  0  0  0
 33 70  2  0  0  0
 34 36  1  0  0  0
 34 59  1  0  0  0
 34100  1  0  0  0
 35 44  2  0  0  0
 35 45  1  0  0  0
 35 68  1  0  0  0
 36 56  1  0  0  0
 36101  1  0  0  0
 37 39  1  0  0  0
 37 47  1  0  0  0
 37 66  1  0  0  0
 37102  1  0  0  0
 38 43  2  0  0  0
 38 46  1  0  0  0
 38 47  1  0  0  0
 39 64  1  0  0  0
 39 67  2  0  0  0
 40 52  1  0  0  0
 40 53  2  0  0  0
 40 58  1  0  0  0
 41103  1  0  0  0
 41104  1  0  0  0
 41105  1  0  0  0
 41 48  1  0  0  0
 42 43  1  0  0  0
 42 66  1  0  0  0
 42106  1  0  0  0
 42107  1  0  0  0
 43 44  1  0  0  0
 44108  1  0  0  0
 45 46  2  0  0  0
 45109  1  0  0  0
 46110  1  0  0  0
 47111  1  0  0  0
 47112  1  0  0  0
 48 56  1  0  0  0
 48 65  1  0  0  0
 48113  1  0  0  0
 49 50  1  0  0  0
 49 53  1  0  0  0
 49 64  1  0  0  0
 49114  1  0  0  0
 50 51  1  0  0  0
 50115  1  0  0  0
 50116  1  0  0  0
 51 52  1  0  0  0
 51117  1  0  0  0
 51118  1  0  0  0
 52119  1  0  0  0
 52120  1  0  0  0
 53 54  1  0  0  0
 54 55  2  0  0  0
 54121  1  0  0  0
 55 57  1  0  0  0
 55122  1  0  0  0
 56 69  2  0  0  0
 57 58  2  0  0  0
 57123  1  0  0  0
 58124  1  0  0  0
 59 60  1  0  0  0
 59 61  1  0  0  0
 59 62  1  0  0  0
 60125  1  0  0  0
 60126  1  0  0  0
 60127  1  0  0  0
 61128  1  0  0  0
 61129  1  0  0  0
 61130  1  0  0  0
 62131  1  0  0  0
 62132  1  0  0  0
 62133  1  0  0  0
 63 65  1  0  0  0
 63134  1  0  0  0
 63135  1  0  0  0
 63136  1  0  0  0
 64137  1  0  0  0
 65138  1  0  0  0
 68 71  1  0  0  0
 71 73  1  0  0  0
 71139  1  0  0  0
 71140  1  0  0  0
 72 74  1  0  0  0
 72 77  1  0  0  0
 72141  1  0  0  0
 72142  1  0  0  0
 73 78  1  0  0  0
 73143  1  0  0  0
 73144  1  0  0  0
 74 79  1  0  0  0
 74145  1  0  0  0
 74146  1  0  0  0
 75 76  1  0  0  0
 75 78  1  0  0  0
 75147  1  0  0  0
 75148  1  0  0  0
 76 79  1  0  0  0
 76149  1  0  0  0
 76150  1  0  0  0
M  ISO  4   1 100  68 101  71 101  77 100
M  END
> <chiral flag>
0

> <version>
0

> <s_m_source_file>
/data/baiqing/PycharmProjects/Reinvent-master-3.2/result/LINK_invent/BTK/process_docking_weight1_custom_sum_contain_oxygen_bond_distance_aromatic_linkinvent_7_9_3/rearranged_h_0000.sdf

> <i_m_source_file_index>
15

> <r_mmod_Potential_Energy-OPLS-2005>
4.52846193313599

> <r_mmod_Stretch_Energy-OPLS-2005>
57.1656455993652

> <r_mmod_Bend_Energy-OPLS-2005>
120.624153137207

> <r_mmod_Torsional_Energy-OPLS-2005>
194.531997680664

> <r_mmod_Improper_Torsional_Energy-OPLS-2005>
3.09483981132507

> <r_mmod_Van_der_Waal_Energy-OPLS-2005>
123.415977478027

> <r_mmod_Electrostatic_Energy-OPLS-2005>
-319.977447509766

> <r_mmod_Solvation_Energy-OPLS-2005>
-198.287109375

> <b_mmod_Minimization_Converged-OPLS-2005>
0

> <r_mmod_RMS_Derivative-OPLS-2005>
0.775499224662781

$$$$
15
                    3D
 Structure written by MMmdl.
191200  0  0  1  0            999 V2000
  -30.7719  -14.3450   20.7165 C   0  0  0  0  0  0
  -30.4201  -12.2945   19.3868 C   0  0  0  0  0  0
  -29.4820  -12.5346   18.1897 C   0  0  0  0  0  0
  -28.0073  -12.3823   18.6084 C   0  0  0  0  0  0
  -27.6672  -13.1990   19.8817 C   0  0  2  0  0  0
  -28.7035  -12.9254   20.9928 C   0  0  0  0  0  0
  -25.2613  -13.8157   20.5670 C   0  0  0  0  0  0
  -24.1840  -13.0438   20.9164 C   0  0  0  0  0  0
  -24.6382  -11.6907   20.8720 C   0  0  0  0  0  0
  -23.9041  -10.4296   21.0397 C   0  0  0  0  0  0
  -24.3602   -9.4215   21.9175 C   0  0  0  0  0  0
  -23.6282   -8.2248   22.0746 C   0  0  0  0  0  0
  -22.4266   -8.0281   21.3539 C   0  0  0  0  0  0
  -21.9895   -9.0254   20.4643 C   0  0  0  0  0  0
  -22.7217  -10.2134   20.3049 C   0  0  0  0  0  0
  -21.6852   -6.0735   22.5281 C   0  0  0  0  0  0
  -21.4014   -6.5638   23.8215 C   0  0  0  0  0  0
  -21.3658   -5.6791   24.9176 C   0  0  0  0  0  0
  -21.6044   -4.3054   24.7227 C   0  0  0  0  0  0
  -21.8820   -3.8145   23.4347 C   0  0  0  0  0  0
  -21.9192   -4.6962   22.3403 C   0  0  0  0  0  0
  -22.7872  -13.5248   21.1834 C   0  0  0  0  0  0
  -22.1660   -4.2149   21.0980 F   0  0  0  0  0  0
  -21.5628   -3.4536   25.7737 F   0  0  0  0  0  0
  -30.0498  -13.2244   20.4629 N   0  0  0  0  0  0
  -26.3043  -12.9310   20.3385 N   0  0  0  0  0  0
  -25.9303  -11.6475   20.5758 N   0  0  0  0  0  0
  -22.0505  -12.8240   22.0397 N   0  0  0  0  0  0
  -25.4352  -15.1864   20.4089 N   0  0  0  0  0  0
  -31.7637  -14.6660   20.0554 O   0  0  0  0  0  0
  -21.6634   -6.8875   21.4241 O   0  0  0  0  0  0
  -22.3552  -14.5559   20.6696 O   0  0  0  0  0  0
  -24.6144  -31.8703   23.2159 C   0  0  0  0  0  0
  -25.9047  -32.4840   23.8437 C   0  0  1  0  0  0
  -27.2163  -27.4460   20.1060 C   0  0  0  0  0  0
  -25.5905  -33.8625   24.2364 N   0  0  0  0  0  0
  -23.4006  -30.4982   21.5520 C   0  0  2  0  0  0
  -24.8448  -28.9617   20.1161 C   0  0  0  0  0  0
  -22.7445  -29.4723   22.5016 C   0  0  0  0  0  0
  -18.0329  -28.1423   22.8479 C   0  0  0  0  0  0
  -24.1487  -36.7316   23.2624 C   0  0  0  0  0  0
  -25.9271  -30.8362   21.3686 C   0  0  0  0  0  0
  -26.0016  -29.4680   20.7246 C   0  0  0  0  0  0
  -27.1925  -28.7101   20.7290 C   0  0  0  0  0  0
  -26.0601  -26.9605   19.4657 C   0  0  0  0  0  0
  -24.8668  -27.7052   19.4843 C   0  0  0  0  0  0
  -23.6084  -29.8284   20.1667 C   0  0  0  0  0  0
  -25.4100  -36.3099   24.0336 C   0  0  1  0  0  0
  -20.5911  -28.3684   23.1298 C   0  0  2  0  0  0
  -20.6766  -26.9477   22.5282 C   0  0  0  0  0  0
  -19.5754  -26.6622   21.5008 C   0  0  0  0  0  0
  -18.1965  -26.8018   22.1512 C   0  0  0  0  0  0
  -19.1587  -28.8856   23.2919 C   0  0  0  0  0  0
  -18.9557  -30.1474   23.8921 C   0  0  0  0  0  0
  -17.6567  -30.6627   24.0584 C   0  0  0  0  0  0
  -25.9027  -34.9474   23.5135 C   0  0  0  0  0  0
  -16.5460  -29.9129   23.6351 C   0  0  0  0  0  0
  -16.7332  -28.6553   23.0353 C   0  0  0  0  0  0
  -26.4476  -31.6615   25.0765 C   0  0  0  0  0  0
  -25.3770  -31.3737   26.1549 C   0  0  0  0  0  0
  -27.0299  -30.3053   24.6140 C   0  0  0  0  0  0
  -27.6043  -32.4347   25.7527 C   0  0  0  0  0  0
  -27.5579  -37.1803   24.8460 C   0  0  0  0  0  0
  -21.4170  -29.3126   22.3770 N   0  0  0  0  0  0
  -26.4286  -37.3785   23.9403 N   0  0  0  0  0  0
  -24.6641  -31.0837   22.1031 N   0  0  0  0  0  0
  -23.4218  -28.8288   23.3061 O   0  0  0  0  0  0
  -28.3510  -26.6821   20.0865 O   0  0  0  0  0  0
  -26.5585  -34.8921   22.4691 O   0  0  0  0  0  0
  -23.5346  -32.1441   23.7569 O   0  0  0  0  0  0
  -28.9609  -20.3054   22.9255 C   0  0  0  0  0  0
  -30.2764  -19.9373   22.5918 C   0  0  0  0  0  0
  -27.0071  -19.8729   19.8718 C   0  0  0  0  0  0
  -29.5487  -19.3980   20.3234 C   0  0  0  0  0  0
  -26.0396  -20.3089   20.7371 C   0  0  0  0  0  0
  -28.2235  -19.7924   20.6221 C   0  0  0  0  0  0
  -27.9479  -20.2250   21.9525 C   0  0  0  0  0  0
  -30.5681  -19.4588   21.2995 C   0  0  0  0  0  0
  -25.0556  -24.9744   22.3589 C   0  0  0  0  0  0
  -24.4161  -24.1206   21.2469 C   0  0  0  0  0  0
  -32.1672  -16.8665   21.9702 C   0  0  0  0  0  0
  -25.8684  -20.9209   23.2003 C   0  0  0  0  0  0
  -30.8454  -16.2388   22.4672 C   0  0  0  0  0  0
  -27.4098  -24.7677   21.4284 C   0  0  0  0  0  0
  -32.0504  -17.7126   20.6854 C   0  0  0  0  0  0
  -28.5202  -25.8290   21.2234 C   0  0  0  0  0  0
  -22.4638  -22.9008   20.6456 C   0  0  0  0  0  0
  -21.1573  -22.2642   21.1542 C   0  0  0  0  0  0
  -21.2721  -21.6972   23.4738 C   0  0  0  0  0  0
  -24.3835  -20.5427   23.1788 C   0  0  0  0  0  0
  -21.8080  -20.6330   24.4445 C   0  0  0  0  0  0
  -26.5856  -20.4905   22.0073 N   0  0  0  0  0  0
  -26.3722  -25.2395   22.3498 N   0  0  0  0  0  0
  -30.3518  -15.0297   21.7908 N   0  0  0  0  0  0
  -24.3495  -25.4259   23.2607 O   0  0  0  0  0  0
  -23.8754  -22.2108   25.2132 O   0  0  0  0  0  0
  -24.0215  -19.7353   25.7050 O   0  0  0  0  0  0
  -31.8542  -19.0885   21.0090 O   0  0  0  0  0  0
  -23.1438  -23.6213   21.6701 O   0  0  0  0  0  0
  -21.4181  -21.2544   22.1264 O   0  0  0  0  0  0
  -23.6000  -20.8214   24.8067 S   0  0  0  0  0  0
  -31.4613  -12.4076   19.0789 H   0  0  0  0  0  0
  -30.3298  -11.2678   19.7444 H   0  0  0  0  0  0
  -29.7158  -11.8389   17.3829 H   0  0  0  0  0  0
  -29.6470  -13.5361   17.7890 H   0  0  0  0  0  0
  -27.8172  -11.3228   18.7852 H   0  0  0  0  0  0
  -27.3514  -12.6753   17.7880 H   0  0  0  0  0  0
  -27.7308  -14.2548   19.6176 H   0  0  0  0  0  0
  -28.6670  -11.8762   21.2896 H   0  0  0  0  0  0
  -28.4406  -13.4825   21.8917 H   0  0  0  0  0  0
  -25.2747   -9.5697   22.4745 H   0  0  0  0  0  0
  -24.0000   -7.4638   22.7461 H   0  0  0  0  0  0
  -21.0826   -8.8766   19.8946 H   0  0  0  0  0  0
  -22.3671  -10.9672   19.6158 H   0  0  0  0  0  0
  -21.2009   -7.6146   23.9722 H   0  0  0  0  0  0
  -21.1477   -6.0517   25.9079 H   0  0  0  0  0  0
  -22.0600   -2.7607   23.2848 H   0  0  0  0  0  0
  -22.4110  -11.9892   22.4781 H   0  0  0  0  0  0
  -21.1127  -13.1277   22.2609 H   0  0  0  0  0  0
  -24.6746  -15.8479   20.5201 H   0  0  0  0  0  0
  -26.2997  -15.6237   20.1137 H   0  0  0  0  0  0
  -26.7134  -32.5575   23.1209 H   0  0  0  0  0  0
  -25.0077  -33.9777   25.0530 H   0  0  0  0  0  0
  -22.6912  -31.3172   21.4132 H   0  0  0  0  0  0
  -23.3735  -35.9664   23.3295 H   0  0  0  0  0  0
  -24.3571  -36.8915   22.2030 H   0  0  0  0  0  0
  -23.7278  -37.6531   23.6651 H   0  0  0  0  0  0
  -26.0492  -31.5937   20.5928 H   0  0  0  0  0  0
  -26.8092  -30.8883   21.9925 H   0  0  0  0  0  0
  -28.0886  -29.0841   21.2014 H   0  0  0  0  0  0
  -26.0860  -26.0041   18.9654 H   0  0  0  0  0  0
  -23.9796  -27.3249   18.9972 H   0  0  0  0  0  0
  -23.7203  -30.5948   19.4006 H   0  0  0  0  0  0
  -22.7327  -29.2467   19.8755 H   0  0  0  0  0  0
  -25.1283  -36.1916   25.0832 H   0  0  0  0  0  0
  -21.0034  -28.3110   24.1394 H   0  0  0  0  0  0
  -20.5557  -26.2352   23.3426 H   0  0  0  0  0  0
  -21.6648  -26.7453   22.1125 H   0  0  0  0  0  0
  -19.6947  -25.6664   21.0728 H   0  0  0  0  0  0
  -19.6601  -27.3660   20.6708 H   0  0  0  0  0  0
  -17.4202  -26.6790   21.3946 H   0  0  0  0  0  0
  -18.0458  -26.0085   22.8844 H   0  0  0  0  0  0
  -19.8050  -30.7234   24.2341 H   0  0  0  0  0  0
  -17.5210  -31.6279   24.5271 H   0  0  0  0  0  0
  -15.5479  -30.3053   23.7727 H   0  0  0  0  0  0
  -15.8742  -28.0873   22.7047 H   0  0  0  0  0  0
  -24.5896  -30.7114   25.7939 H   0  0  0  0  0  0
  -24.9017  -32.2900   26.5054 H   0  0  0  0  0  0
  -25.8134  -30.8879   27.0279 H   0  0  0  0  0  0
  -26.2829  -29.6854   24.1154 H   0  0  0  0  0  0
  -27.4024  -29.7261   25.4595 H   0  0  0  0  0  0
  -27.8709  -30.4385   23.9331 H   0  0  0  0  0  0
  -27.2622  -33.3599   26.2177 H   0  0  0  0  0  0
  -28.3809  -32.6976   25.0338 H   0  0  0  0  0  0
  -28.0767  -31.8440   26.5381 H   0  0  0  0  0  0
  -28.2602  -38.0099   24.7486 H   0  0  0  0  0  0
  -28.1070  -36.2613   24.6294 H   0  0  0  0  0  0
  -27.2300  -37.1478   25.8871 H   0  0  0  0  0  0
  -20.9339  -29.9088   21.7180 H   0  0  0  0  0  0
  -26.0166  -38.2869   24.1366 H   0  0  0  0  0  0
  -28.7347  -20.6443   23.9264 H   0  0  0  0  0  0
  -31.0584  -19.9979   23.3372 H   0  0  0  0  0  0
  -26.8843  -19.6301   18.8253 H   0  0  0  0  0  0
  -29.7766  -19.0564   19.3239 H   0  0  0  0  0  0
  -24.9915  -20.4842   20.5389 H   0  0  0  0  0  0
  -25.0644  -23.2809   20.9976 H   0  0  0  0  0  0
  -24.2981  -24.7443   20.3595 H   0  0  0  0  0  0
  -32.9188  -16.0874   21.8407 H   0  0  0  0  0  0
  -32.5703  -17.5037   22.7585 H   0  0  0  0  0  0
  -26.3388  -20.4584   24.0697 H   0  0  0  0  0  0
  -25.9858  -22.0005   23.3120 H   0  0  0  0  0  0
  -30.0489  -16.9825   22.4597 H   0  0  0  0  0  0
  -30.9763  -15.9683   23.5153 H   0  0  0  0  0  0
  -27.8503  -23.8818   21.8884 H   0  0  0  0  0  0
  -27.0151  -24.4376   20.4681 H   0  0  0  0  0  0
  -31.2848  -17.3229   20.0136 H   0  0  0  0  0  0
  -32.9908  -17.6468   20.1374 H   0  0  0  0  0  0
  -28.6762  -26.4180   22.1299 H   0  0  0  0  0  0
  -29.4527  -25.2902   21.0496 H   0  0  0  0  0  0
  -22.2294  -23.5848   19.8284 H   0  0  0  0  0  0
  -23.1062  -22.1215   20.2373 H   0  0  0  0  0  0
  -20.6757  -21.7689   20.3068 H   0  0  0  0  0  0
  -20.4523  -23.0145   21.5168 H   0  0  0  0  0  0
  -21.7732  -22.6505   23.6398 H   0  0  0  0  0  0
  -20.2118  -21.8626   23.6715 H   0  0  0  0  0  0
  -24.2369  -19.4943   22.9259 H   0  0  0  0  0  0
  -23.8477  -21.1443   22.4541 H   0  0  0  0  0  0
  -21.6316  -19.6230   24.0807 H   0  0  0  0  0  0
  -21.3002  -20.7181   25.4032 H   0  0  0  0  0  0
  -26.6930  -25.8345   23.0994 H   0  0  0  0  0  0
  -29.5482  -14.6085   22.2342 H   0  0  0  0  0  0
  1 25  1  0  0  0
  1 30  2  0  0  0
  1 94  1  0  0  0
  2  3  1  0  0  0
  2 25  1  0  0  0
  2102  1  0  0  0
  2103  1  0  0  0
  3  4  1  0  0  0
  3104  1  0  0  0
  3105  1  0  0  0
  4  5  1  0  0  0
  4106  1  0  0  0
  4107  1  0  0  0
  5  6  1  0  0  0
  5 26  1  0  0  0
  5108  1  0  0  0
  6 25  1  0  0  0
  6109  1  0  0  0
  6110  1  0  0  0
  7  8  2  0  0  0
  7 26  1  0  0  0
  7 29  1  0  0  0
  8  9  1  0  0  0
  8 22  1  0  0  0
  9 10  1  0  0  0
  9 27  2  0  0  0
 10 11  2  0  0  0
 10 15  1  0  0  0
 11 12  1  0  0  0
 11111  1  0  0  0
 12 13  2  0  0  0
 12112  1  0  0  0
 13 14  1  0  0  0
 13 31  1  0  0  0
 14 15  2  0  0  0
 14113  1  0  0  0
 15114  1  0  0  0
 16 17  2  0  0  0
 16 21  1  0  0  0
 16 31  1  0  0  0
 17 18  1  0  0  0
 17115  1  0  0  0
 18 19  2  0  0  0
 18116  1  0  0  0
 19 20  1  0  0  0
 19 24  1  0  0  0
 20 21  2  0  0  0
 20117  1  0  0  0
 21 23  1  0  0  0
 22 28  1  0  0  0
 22 32  2  0  0  0
 26 27  1  0  0  0
 28118  1  0  0  0
 28119  1  0  0  0
 29120  1  0  0  0
 29121  1  0  0  0
 33 34  1  0  0  0
 33 66  1  0  0  0
 33 70  2  0  0  0
 34 36  1  0  0  0
 34 59  1  0  0  0
 34122  1  0  0  0
 35 44  2  0  0  0
 35 45  1  0  0  0
 35 68  1  0  0  0
 36 56  1  0  0  0
 36123  1  0  0  0
 37 39  1  0  0  0
 37 47  1  0  0  0
 37 66  1  0  0  0
 37124  1  0  0  0
 38 43  2  0  0  0
 38 46  1  0  0  0
 38 47  1  0  0  0
 39 64  1  0  0  0
 39 67  2  0  0  0
 40 52  1  0  0  0
 40 53  2  0  0  0
 40 58  1  0  0  0
 41125  1  0  0  0
 41126  1  0  0  0
 41127  1  0  0  0
 41 48  1  0  0  0
 42 43  1  0  0  0
 42 66  1  0  0  0
 42128  1  0  0  0
 42129  1  0  0  0
 43 44  1  0  0  0
 44130  1  0  0  0
 45 46  2  0  0  0
 45131  1  0  0  0
 46132  1  0  0  0
 47133  1  0  0  0
 47134  1  0  0  0
 48 56  1  0  0  0
 48 65  1  0  0  0
 48135  1  0  0  0
 49 50  1  0  0  0
 49 53  1  0  0  0
 49 64  1  0  0  0
 49136  1  0  0  0
 50 51  1  0  0  0
 50137  1  0  0  0
 50138  1  0  0  0
 51 52  1  0  0  0
 51139  1  0  0  0
 51140  1  0  0  0
 52141  1  0  0  0
 52142  1  0  0  0
 53 54  1  0  0  0
 54 55  2  0  0  0
 54143  1  0  0  0
 55 57  1  0  0  0
 55144  1  0  0  0
 56 69  2  0  0  0
 57 58  2  0  0  0
 57145  1  0  0  0
 58146  1  0  0  0
 59 60  1  0  0  0
 59 61  1  0  0  0
 59 62  1  0  0  0
 60147  1  0  0  0
 60148  1  0  0  0
 60149  1  0  0  0
 61150  1  0  0  0
 61151  1  0  0  0
 61152  1  0  0  0
 62153  1  0  0  0
 62154  1  0  0  0
 62155  1  0  0  0
 63 65  1  0  0  0
 63156  1  0  0  0
 63157  1  0  0  0
 63158  1  0  0  0
 64159  1  0  0  0
 65160  1  0  0  0
 68 86  1  0  0  0
 71 72  2  0  0  0
 71 77  1  0  0  0
 71161  1  0  0  0
 72 78  1  0  0  0
 72162  1  0  0  0
 73 75  2  0  0  0
 73 76  1  0  0  0
 73163  1  0  0  0
 74 76  1  0  0  0
 74 78  2  0  0  0
 74164  1  0  0  0
 75 92  1  0  0  0
 75165  1  0  0  0
 76 77  2  0  0  0
 77 92  1  0  0  0
 78 98  1  0  0  0
 79 80  1  0  0  0
 79 93  1  0  0  0
 79 95  2  0  0  0
 80 99  1  0  0  0
 80166  1  0  0  0
 80167  1  0  0  0
 81 83  1  0  0  0
 81 85  1  0  0  0
 81168  1  0  0  0
 81169  1  0  0  0
 82 90  1  0  0  0
 82 92  1  0  0  0
 82170  1  0  0  0
 82171  1  0  0  0
 83 94  1  0  0  0
 83172  1  0  0  0
 83173  1  0  0  0
 84 86  1  0  0  0
 84 93  1  0  0  0
 84174  1  0  0  0
 84175  1  0  0  0
 85 98  1  0  0  0
 85176  1  0  0  0
 85177  1  0  0  0
 86178  1  0  0  0
 86179  1  0  0  0
 87 88  1  0  0  0
 87 99  1  0  0  0
 87180  1  0  0  0
 87181  1  0  0  0
 88100  1  0  0  0
 88182  1  0  0  0
 88183  1  0  0  0
 89 91  1  0  0  0
 89100  1  0  0  0
 89184  1  0  0  0
 89185  1  0  0  0
 90186  1  0  0  0
 90187  1  0  0  0
 90101  1  0  0  0
 91101  1  0  0  0
 91188  1  0  0  0
 91189  1  0  0  0
 93190  1  0  0  0
 94191  1  0  0  0
 96101  2  0  0  0
 97101  2  0  0  0
M  ISO  4   1 100  68 101  86 101  94 100
M  END
> <chiral flag>
0

> <version>
0

> <s_m_source_file>
/data/baiqing/PycharmProjects/Reinvent-master-3.2/result/LINK_invent/BTK/process_docking_weight1_custom_sum_contain_oxygen_bond_distance_aromatic_linkinvent_7_9_3/rearranged_h_0000.sdf

> <i_m_source_file_index>
16

> <r_mmod_Potential_Energy-OPLS-2005>
-301.354919433594

> <r_mmod_Stretch_Energy-OPLS-2005>
35.3506240844727

> <r_mmod_Bend_Energy-OPLS-2005>
123.887741088867

> <r_mmod_Torsional_Energy-OPLS-2005>
297.508544921875

> <r_mmod_Improper_Torsional_Energy-OPLS-2005>
1.96421980857849

> <r_mmod_Van_der_Waal_Energy-OPLS-2005>
100.336357116699

> <r_mmod_Electrostatic_Energy-OPLS-2005>
-553.033447265625

> <r_mmod_Solvation_Energy-OPLS-2005>
-316.355010986328

> <b_mmod_Minimization_Converged-OPLS-2005>
0

> <r_mmod_RMS_Derivative-OPLS-2005>
3.74412798881531

$$$$
16
                    3D
 Structure written by MMmdl.
191200  0  0  1  0            999 V2000
  -30.8570  -14.2943   20.6991 C   0  0  0  0  0  0
  -30.4215  -12.2507   19.4196 C   0  0  0  0  0  0
  -29.5083  -12.5605   18.2229 C   0  0  0  0  0  0
  -28.0323  -12.4041   18.6301 C   0  0  0  0  0  0
  -27.6895  -13.2126   19.9109 C   0  0  2  0  0  0
  -28.7320  -12.9851   21.0370 C   0  0  0  0  0  0
  -25.2683  -13.8157   20.5699 C   0  0  0  0  0  0
  -24.1938  -13.0442   20.9161 C   0  0  0  0  0  0
  -24.6490  -11.6895   20.8746 C   0  0  0  0  0  0
  -23.9133  -10.4306   21.0397 C   0  0  0  0  0  0
  -24.3648   -9.4218   21.9188 C   0  0  0  0  0  0
  -23.6305   -8.2257   22.0754 C   0  0  0  0  0  0
  -22.4293   -8.0289   21.3529 C   0  0  0  0  0  0
  -21.9956   -9.0302   20.4645 C   0  0  0  0  0  0
  -22.7296  -10.2169   20.3054 C   0  0  0  0  0  0
  -21.6862   -6.0736   22.5273 C   0  0  0  0  0  0
  -21.4034   -6.5635   23.8197 C   0  0  0  0  0  0
  -21.3670   -5.6789   24.9175 C   0  0  0  0  0  0
  -21.6035   -4.3053   24.7191 C   0  0  0  0  0  0
  -21.8828   -3.8139   23.4331 C   0  0  0  0  0  0
  -21.9208   -4.6972   22.3390 C   0  0  0  0  0  0
  -22.7936  -13.5240   21.1791 C   0  0  0  0  0  0
  -22.1658   -4.2169   21.0964 F   0  0  0  0  0  0
  -21.5635   -3.4519   25.7698 F   0  0  0  0  0  0
  -30.0957  -13.1883   20.5055 N   0  0  0  0  0  0
  -26.3214  -12.9369   20.3574 N   0  0  0  0  0  0
  -25.9442  -11.6503   20.5826 N   0  0  0  0  0  0
  -22.0559  -12.8261   22.0349 N   0  0  0  0  0  0
  -25.4341  -15.1876   20.3917 N   0  0  0  0  0  0
  -31.7051  -14.6786   19.8924 O   0  0  0  0  0  0
  -21.6635   -6.8891   21.4220 O   0  0  0  0  0  0
  -22.3639  -14.5580   20.6668 O   0  0  0  0  0  0
  -24.6140  -31.8733   23.2172 C   0  0  0  0  0  0
  -25.9046  -32.4837   23.8446 C   0  0  1  0  0  0
  -27.2205  -27.4605   20.0851 C   0  0  0  0  0  0
  -25.5906  -33.8619   24.2391 N   0  0  0  0  0  0
  -23.3982  -30.4989   21.5599 C   0  0  2  0  0  0
  -24.8392  -28.9718   20.1177 C   0  0  0  0  0  0
  -22.7397  -29.4691   22.5048 C   0  0  0  0  0  0
  -18.0272  -28.1390   22.8536 C   0  0  0  0  0  0
  -24.1453  -36.7309   23.2632 C   0  0  0  0  0  0
  -25.9235  -30.8430   21.3687 C   0  0  0  0  0  0
  -25.9975  -29.4754   20.7247 C   0  0  0  0  0  0
  -27.1910  -28.7212   20.7179 C   0  0  0  0  0  0
  -26.0559  -26.9785   19.4519 C   0  0  0  0  0  0
  -24.8613  -27.7202   19.4799 C   0  0  0  0  0  0
  -23.6012  -29.8390   20.1701 C   0  0  0  0  0  0
  -25.4067  -36.3117   24.0363 C   0  0  1  0  0  0
  -20.5863  -28.3667   23.1353 C   0  0  2  0  0  0
  -20.6766  -26.9405   22.5446 C   0  0  0  0  0  0
  -19.5741  -26.6412   21.5232 C   0  0  0  0  0  0
  -18.1924  -26.7952   22.1647 C   0  0  0  0  0  0
  -19.1522  -28.8845   23.2948 C   0  0  0  0  0  0
  -18.9439  -30.1449   23.8956 C   0  0  0  0  0  0
  -17.6444  -30.6590   24.0579 C   0  0  0  0  0  0
  -25.9011  -34.9478   23.5167 C   0  0  0  0  0  0
  -16.5336  -29.9118   23.6296 C   0  0  0  0  0  0
  -16.7268  -28.6537   23.0324 C   0  0  0  0  0  0
  -26.4482  -31.6593   25.0751 C   0  0  0  0  0  0
  -25.3769  -31.3751   26.1525 C   0  0  0  0  0  0
  -27.0253  -30.3020   24.6085 C   0  0  0  0  0  0
  -27.6071  -32.4295   25.7509 C   0  0  0  0  0  0
  -27.5580  -37.1800   24.8465 C   0  0  0  0  0  0
  -21.4131  -29.3044   22.3766 N   0  0  0  0  0  0
  -26.4262  -37.3808   23.9453 N   0  0  0  0  0  0
  -24.6638  -31.0865   22.1073 N   0  0  0  0  0  0
  -23.4195  -28.8197   23.3057 O   0  0  0  0  0  0
  -28.3684  -26.7070   20.0508 O   0  0  0  0  0  0
  -26.5531  -34.8931   22.4712 O   0  0  0  0  0  0
  -23.5332  -32.1473   23.7574 O   0  0  0  0  0  0
  -25.4088  -20.2366   25.2545 C   0  0  0  0  0  0
  -25.2006  -19.7921   23.9352 C   0  0  0  0  0  0
  -25.7699  -21.5768   25.4974 C   0  0  0  0  0  0
  -25.3553  -20.6884   22.8589 C   0  0  0  0  0  0
  -25.9433  -22.4632   24.4144 C   0  0  0  0  0  0
  -25.7414  -22.0252   23.0975 C   0  0  0  0  0  0
  -31.9759  -22.2074   25.1075 C   0  0  0  0  0  0
  -28.8017  -23.8015   23.7724 C   0  0  0  0  0  0
  -27.5630  -24.6012   21.0526 C   0  0  0  0  0  0
  -26.3853  -23.8933   24.6146 C   0  0  0  0  0  0
  -25.9556  -22.9935   21.9408 C   0  0  0  0  0  0
  -27.3943  -24.3911   23.5470 C   0  0  2  0  0  0
  -28.5287  -25.8101   21.1593 C   0  0  0  0  0  0
  -32.8682  -16.2348   22.2700 C   0  0  0  0  0  0
  -32.7448  -20.0813   20.2142 C   0  0  0  0  0  0
  -31.3188  -16.1988   22.1988 C   0  0  0  0  0  0
  -33.4581  -17.6547   22.1427 C   0  0  0  0  0  0
  -32.8900  -18.5665   19.9573 C   0  0  0  0  0  0
  -31.3203  -20.5206   20.5836 C   0  0  0  0  0  0
  -29.7920  -20.5552   22.4301 C   0  0  0  0  0  0
  -30.8728  -21.2378   24.6512 C   0  0  2  0  0  0
  -30.1478  -21.7291   23.3668 C   0  0  2  0  0  0
  -26.9636  -24.0661   22.1555 N   0  0  0  0  0  0
  -28.9214  -22.4768   23.6526 N   0  0  0  0  0  0
  -30.7471  -14.8821   21.8960 N   0  0  0  0  0  0
  -33.0513  -22.2756   24.5035 O   0  0  0  0  0  0
  -29.7706  -24.5408   23.9320 O   0  0  0  0  0  0
  -27.3573  -24.1480   19.9214 O   0  0  0  0  0  0
  -29.9534  -20.9936   25.7132 O   0  0  0  0  0  0
  -33.8650  -17.9563   20.8061 O   0  0  0  0  0  0
  -30.9699  -19.9899   21.8599 O   0  0  0  0  0  0
  -31.4704  -12.3141   19.1206 H   0  0  0  0  0  0
  -30.2782  -11.2254   19.7636 H   0  0  0  0  0  0
  -29.7498  -11.9034   17.3883 H   0  0  0  0  0  0
  -29.7017  -13.5801   17.8841 H   0  0  0  0  0  0
  -27.8335  -11.3429   18.7815 H   0  0  0  0  0  0
  -27.3952  -12.7305   17.8100 H   0  0  0  0  0  0
  -27.7475  -14.2661   19.6455 H   0  0  0  0  0  0
  -28.6515  -11.9733   21.4348 H   0  0  0  0  0  0
  -28.5107  -13.6516   21.8716 H   0  0  0  0  0  0
  -25.2772   -9.5708   22.4789 H   0  0  0  0  0  0
  -23.9999   -7.4645   22.7495 H   0  0  0  0  0  0
  -21.0873   -8.8845   19.8954 H   0  0  0  0  0  0
  -22.3745  -10.9719   19.6175 H   0  0  0  0  0  0
  -21.2013   -7.6131   23.9717 H   0  0  0  0  0  0
  -21.1491   -6.0500   25.9078 H   0  0  0  0  0  0
  -22.0605   -2.7597   23.2811 H   0  0  0  0  0  0
  -22.4057  -11.9846   22.4693 H   0  0  0  0  0  0
  -21.1203  -13.1367   22.2511 H   0  0  0  0  0  0
  -24.6606  -15.8408   20.4505 H   0  0  0  0  0  0
  -26.2845  -15.6229   20.0548 H   0  0  0  0  0  0
  -26.7120  -32.5582   23.1210 H   0  0  0  0  0  0
  -25.0115  -33.9775   25.0568 H   0  0  0  0  0  0
  -22.6874  -31.3181   21.4328 H   0  0  0  0  0  0
  -23.3704  -35.9654   23.3307 H   0  0  0  0  0  0
  -24.3584  -36.8895   22.2054 H   0  0  0  0  0  0
  -23.7191  -37.6518   23.6606 H   0  0  0  0  0  0
  -26.0209  -31.6024   20.5908 H   0  0  0  0  0  0
  -26.8160  -30.9032   21.9816 H   0  0  0  0  0  0
  -28.0856  -29.1030   21.1901 H   0  0  0  0  0  0
  -26.0607  -26.0277   18.9389 H   0  0  0  0  0  0
  -23.9785  -27.3346   18.9890 H   0  0  0  0  0  0
  -23.7095  -30.6181   19.4160 H   0  0  0  0  0  0
  -22.7224  -29.2653   19.8717 H   0  0  0  0  0  0
  -25.1228  -36.2005   25.0856 H   0  0  0  0  0  0
  -20.9961  -28.3232   24.1467 H   0  0  0  0  0  0
  -20.5669  -26.2270   23.3621 H   0  0  0  0  0  0
  -21.6643  -26.7477   22.1224 H   0  0  0  0  0  0
  -19.6887  -25.6339   21.1228 H   0  0  0  0  0  0
  -19.6650  -27.3231   20.6769 H   0  0  0  0  0  0
  -17.4183  -26.6687   21.4046 H   0  0  0  0  0  0
  -18.0328  -26.0066   22.9027 H   0  0  0  0  0  0
  -19.7898  -30.7248   24.2351 H   0  0  0  0  0  0
  -17.4987  -31.6264   24.5175 H   0  0  0  0  0  0
  -15.5336  -30.3033   23.7570 H   0  0  0  0  0  0
  -15.8671  -28.0872   22.6993 H   0  0  0  0  0  0
  -24.5876  -30.7160   25.7900 H   0  0  0  0  0  0
  -24.9034  -32.2923   26.5039 H   0  0  0  0  0  0
  -25.8142  -30.8883   27.0247 H   0  0  0  0  0  0
  -26.2792  -29.6885   24.1012 H   0  0  0  0  0  0
  -27.3860  -29.7183   25.4568 H   0  0  0  0  0  0
  -27.8714  -30.4328   23.9326 H   0  0  0  0  0  0
  -27.2689  -33.3572   26.2145 H   0  0  0  0  0  0
  -28.3835  -32.6901   25.0304 H   0  0  0  0  0  0
  -28.0734  -31.8361   26.5376 H   0  0  0  0  0  0
  -28.2568  -38.0123   24.7539 H   0  0  0  0  0  0
  -28.1096  -36.2660   24.6215 H   0  0  0  0  0  0
  -27.2331  -37.1388   25.8874 H   0  0  0  0  0  0
  -20.9283  -29.8820   21.7039 H   0  0  0  0  0  0
  -26.0156  -38.2889   24.1475 H   0  0  0  0  0  0
  -25.2857  -19.5519   26.0829 H   0  0  0  0  0  0
  -24.9161  -18.7644   23.7473 H   0  0  0  0  0  0
  -25.9265  -21.9132   26.5116 H   0  0  0  0  0  0
  -25.1941  -20.3327   21.8511 H   0  0  0  0  0  0
  -31.7353  -22.8166   25.9811 H   0  0  0  0  0  0
  -26.8051  -24.0086   25.6148 H   0  0  0  0  0  0
  -25.4910  -24.5180   24.5972 H   0  0  0  0  0  0
  -25.0024  -23.4620   21.6903 H   0  0  0  0  0  0
  -26.2262  -22.3704   21.0882 H   0  0  0  0  0  0
  -27.4416  -25.4712   23.6872 H   0  0  0  0  0  0
  -29.5469  -25.4204   21.1251 H   0  0  0  0  0  0
  -28.4378  -26.3731   22.0877 H   0  0  0  0  0  0
  -33.3455  -15.5935   21.5295 H   0  0  0  0  0  0
  -33.1636  -15.8088   23.2283 H   0  0  0  0  0  0
  -33.0335  -20.6129   19.3060 H   0  0  0  0  0  0
  -33.4434  -20.4201   20.9768 H   0  0  0  0  0  0
  -30.9034  -16.5689   23.1356 H   0  0  0  0  0  0
  -30.9584  -16.8829   21.4394 H   0  0  0  0  0  0
  -32.7811  -18.4008   22.5480 H   0  0  0  0  0  0
  -34.3549  -17.7220   22.7658 H   0  0  0  0  0  0
  -33.2326  -18.4364   18.9292 H   0  0  0  0  0  0
  -31.9294  -18.0606   19.9902 H   0  0  0  0  0  0
  -30.6136  -20.1872   19.8192 H   0  0  0  0  0  0
  -31.2613  -21.6098   20.5961 H   0  0  0  0  0  0
  -29.0932  -20.8655   21.6508 H   0  0  0  0  0  0
  -29.2742  -19.7930   23.0107 H   0  0  0  0  0  0
  -31.3752  -20.2984   24.4206 H   0  0  0  0  0  0
  -30.8137  -22.3785   22.7968 H   0  0  0  0  0  0
  -28.0486  -21.9616   23.5950 H   0  0  0  0  0  0
  -30.1320  -14.4501   22.5721 H   0  0  0  0  0  0
  -29.4846  -21.8068   25.8585 H   0  0  0  0  0  0
  1 25  1  0  0  0
  1 30  2  0  0  0
  1 95  1  0  0  0
  2  3  1  0  0  0
  2 25  1  0  0  0
  2102  1  0  0  0
  2103  1  0  0  0
  3  4  1  0  0  0
  3104  1  0  0  0
  3105  1  0  0  0
  4  5  1  0  0  0
  4106  1  0  0  0
  4107  1  0  0  0
  5  6  1  0  0  0
  5 26  1  0  0  0
  5108  1  0  0  0
  6 25  1  0  0  0
  6109  1  0  0  0
  6110  1  0  0  0
  7  8  2  0  0  0
  7 26  1  0  0  0
  7 29  1  0  0  0
  8  9  1  0  0  0
  8 22  1  0  0  0
  9 10  1  0  0  0
  9 27  2  0  0  0
 10 11  2  0  0  0
 10 15  1  0  0  0
 11 12  1  0  0  0
 11111  1  0  0  0
 12 13  2  0  0  0
 12112  1  0  0  0
 13 14  1  0  0  0
 13 31  1  0  0  0
 14 15  2  0  0  0
 14113  1  0  0  0
 15114  1  0  0  0
 16 17  2  0  0  0
 16 21  1  0  0  0
 16 31  1  0  0  0
 17 18  1  0  0  0
 17115  1  0  0  0
 18 19  2  0  0  0
 18116  1  0  0  0
 19 20  1  0  0  0
 19 24  1  0  0  0
 20 21  2  0  0  0
 20117  1  0  0  0
 21 23  1  0  0  0
 22 28  1  0  0  0
 22 32  2  0  0  0
 26 27  1  0  0  0
 28118  1  0  0  0
 28119  1  0  0  0
 29120  1  0  0  0
 29121  1  0  0  0
 33 34  1  0  0  0
 33 66  1  0  0  0
 33 70  2  0  0  0
 34 36  1  0  0  0
 34 59  1  0  0  0
 34122  1  0  0  0
 35 44  2  0  0  0
 35 45  1  0  0  0
 35 68  1  0  0  0
 36 56  1  0  0  0
 36123  1  0  0  0
 37 39  1  0  0  0
 37 47  1  0  0  0
 37 66  1  0  0  0
 37124  1  0  0  0
 38 43  2  0  0  0
 38 46  1  0  0  0
 38 47  1  0  0  0
 39 64  1  0  0  0
 39 67  2  0  0  0
 40 52  1  0  0  0
 40 53  2  0  0  0
 40 58  1  0  0  0
 41125  1  0  0  0
 41126  1  0  0  0
 41127  1  0  0  0
 41 48  1  0  0  0
 42 43  1  0  0  0
 42 66  1  0  0  0
 42128  1  0  0  0
 42129  1  0  0  0
 43 44  1  0  0  0
 44130  1  0  0  0
 45 46  2  0  0  0
 45131  1  0  0  0
 46132  1  0  0  0
 47133  1  0  0  0
 47134  1  0  0  0
 48 56  1  0  0  0
 48 65  1  0  0  0
 48135  1  0  0  0
 49 50  1  0  0  0
 49 53  1  0  0  0
 49 64  1  0  0  0
 49136  1  0  0  0
 50 51  1  0  0  0
 50137  1  0  0  0
 50138  1  0  0  0
 51 52  1  0  0  0
 51139  1  0  0  0
 51140  1  0  0  0
 52141  1  0  0  0
 52142  1  0  0  0
 53 54  1  0  0  0
 54 55  2  0  0  0
 54143  1  0  0  0
 55 57  1  0  0  0
 55144  1  0  0  0
 56 69  2  0  0  0
 57 58  2  0  0  0
 57145  1  0  0  0
 58146  1  0  0  0
 59 60  1  0  0  0
 59 61  1  0  0  0
 59 62  1  0  0  0
 60147  1  0  0  0
 60148  1  0  0  0
 60149  1  0  0  0
 61150  1  0  0  0
 61151  1  0  0  0
 61152  1  0  0  0
 62153  1  0  0  0
 62154  1  0  0  0
 62155  1  0  0  0
 63 65  1  0  0  0
 63156  1  0  0  0
 63157  1  0  0  0
 63158  1  0  0  0
 64159  1  0  0  0
 65160  1  0  0  0
 68 83  1  0  0  0
 71 72  2  0  0  0
 71 73  1  0  0  0
 71161  1  0  0  0
 72 74  1  0  0  0
 72162  1  0  0  0
 73 75  2  0  0  0
 73163  1  0  0  0
 74 76  2  0  0  0
 74164  1  0  0  0
 75 76  1  0  0  0
 75 80  1  0  0  0
 76 81  1  0  0  0
 77 91  1  0  0  0
 77 96  2  0  0  0
 77165  1  0  0  0
 78 94  1  0  0  0
 78 97  2  0  0  0
 78 82  1  0  0  0
 79 83  1  0  0  0
 79 93  1  0  0  0
 79 98  2  0  0  0
 80 82  1  0  0  0
 80166  1  0  0  0
 80167  1  0  0  0
 81 93  1  0  0  0
 81168  1  0  0  0
 81169  1  0  0  0
 82 93  1  0  0  0
 82170  1  0  0  0
 83171  1  0  0  0
 83172  1  0  0  0
 84 86  1  0  0  0
 84 87  1  0  0  0
 84173  1  0  0  0
 84174  1  0  0  0
 85 88  1  0  0  0
 85 89  1  0  0  0
 85175  1  0  0  0
 85176  1  0  0  0
 86 95  1  0  0  0
 86177  1  0  0  0
 86178  1  0  0  0
 87100  1  0  0  0
 87179  1  0  0  0
 87180  1  0  0  0
 88100  1  0  0  0
 88181  1  0  0  0
 88182  1  0  0  0
 89101  1  0  0  0
 89183  1  0  0  0
 89184  1  0  0  0
 90101  1  0  0  0
 90185  1  0  0  0
 90186  1  0  0  0
 90 92  1  0  0  0
 91 92  1  0  0  0
 91 99  1  0  0  0
 91187  1  0  0  0
 92 94  1  0  0  0
 92188  1  0  0  0
 94189  1  0  0  0
 95190  1  0  0  0
 99191  1  0  0  0
M  ISO  4   1 100  68 101  83 101  95 100
M  END
> <chiral flag>
0

> <version>
0

> <s_m_source_file>
/data/baiqing/PycharmProjects/Reinvent-master-3.2/result/LINK_invent/BTK/process_docking_weight1_custom_sum_contain_oxygen_bond_distance_aromatic_linkinvent_7_9_3/rearranged_h_0000.sdf

> <i_m_source_file_index>
17

> <r_mmod_Potential_Energy-OPLS-2005>
-82.2760009765625

> <r_mmod_Stretch_Energy-OPLS-2005>
45.2037696838379

> <r_mmod_Bend_Energy-OPLS-2005>
113.102745056152

> <r_mmod_Torsional_Energy-OPLS-2005>
326.799407958984

> <r_mmod_Improper_Torsional_Energy-OPLS-2005>
5.30475997924805

> <r_mmod_Van_der_Waal_Energy-OPLS-2005>
163.34455871582

> <r_mmod_Electrostatic_Energy-OPLS-2005>
-479.837066650391

> <r_mmod_Solvation_Energy-OPLS-2005>
-269.952331542969

> <b_mmod_Minimization_Converged-OPLS-2005>
0

> <r_mmod_RMS_Derivative-OPLS-2005>
6.12100696563721

$$$$
17
                    3D
 Structure written by MMmdl.
154161  0  0  1  0            999 V2000
  -30.7392  -14.4998   20.6106 C   0  0  0  0  0  0
  -30.4110  -12.3404   19.4340 C   0  0  0  0  0  0
  -29.4982  -12.5275   18.2036 C   0  0  0  0  0  0
  -28.0151  -12.3925   18.6018 C   0  0  0  0  0  0
  -27.6554  -13.2202   19.8640 C   0  0  2  0  0  0
  -28.6921  -13.0102   20.9863 C   0  0  0  0  0  0
  -25.2566  -13.8157   20.5666 C   0  0  0  0  0  0
  -24.1826  -13.0429   20.9162 C   0  0  0  0  0  0
  -24.6386  -11.6901   20.8713 C   0  0  0  0  0  0
  -23.9049  -10.4286   21.0405 C   0  0  0  0  0  0
  -24.3600   -9.4204   21.9181 C   0  0  0  0  0  0
  -23.6287   -8.2230   22.0744 C   0  0  0  0  0  0
  -22.4276   -8.0248   21.3527 C   0  0  0  0  0  0
  -21.9901   -9.0230   20.4647 C   0  0  0  0  0  0
  -22.7220  -10.2123   20.3064 C   0  0  0  0  0  0
  -21.6861   -6.0705   22.5271 C   0  0  0  0  0  0
  -21.4013   -6.5616   23.8197 C   0  0  0  0  0  0
  -21.3687   -5.6778   24.9167 C   0  0  0  0  0  0
  -21.6067   -4.3039   24.7232 C   0  0  0  0  0  0
  -21.8817   -3.8123   23.4352 C   0  0  0  0  0  0
  -21.9190   -4.6932   22.3404 C   0  0  0  0  0  0
  -22.7859  -13.5228   21.1857 C   0  0  0  0  0  0
  -22.1661   -4.2111   21.0985 F   0  0  0  0  0  0
  -21.5659   -3.4539   25.7752 F   0  0  0  0  0  0
  -30.0230  -13.3412   20.4486 N   0  0  0  0  0  0
  -26.2996  -12.9353   20.3295 N   0  0  0  0  0  0
  -25.9312  -11.6499   20.5704 N   0  0  0  0  0  0
  -22.0490  -12.8226   22.0418 N   0  0  0  0  0  0
  -25.4322  -15.1869   20.4116 N   0  0  0  0  0  0
  -31.8373  -14.6421   20.0602 O   0  0  0  0  0  0
  -21.6649   -6.8844   21.4225 O   0  0  0  0  0  0
  -22.3559  -14.5555   20.6728 O   0  0  0  0  0  0
  -24.6175  -31.8665   23.2101 C   0  0  0  0  0  0
  -25.9056  -32.4822   23.8393 C   0  0  1  0  0  0
  -27.2236  -27.3981   20.0938 C   0  0  0  0  0  0
  -25.5901  -33.8617   24.2320 N   0  0  0  0  0  0
  -23.4068  -30.4932   21.5517 C   0  0  2  0  0  0
  -24.8504  -28.9616   20.1123 C   0  0  0  0  0  0
  -22.7440  -29.4644   22.4981 C   0  0  0  0  0  0
  -18.0271  -28.1391   22.8508 C   0  0  0  0  0  0
  -24.1474  -36.7320   23.2640 C   0  0  0  0  0  0
  -25.9408  -30.8205   21.3690 C   0  0  0  0  0  0
  -26.0147  -29.4526   20.7169 C   0  0  0  0  0  0
  -27.2023  -28.6770   20.7092 C   0  0  0  0  0  0
  -26.0391  -26.9514   19.4563 C   0  0  0  0  0  0
  -24.8595  -27.7120   19.4792 C   0  0  0  0  0  0
  -23.6170  -29.8344   20.1633 C   0  0  0  0  0  0
  -25.4096  -36.3112   24.0339 C   0  0  1  0  0  0
  -20.5867  -28.3673   23.1329 C   0  0  2  0  0  0
  -20.6764  -26.9408   22.5434 C   0  0  0  0  0  0
  -19.5735  -26.6382   21.5242 C   0  0  0  0  0  0
  -18.1911  -26.7931   22.1647 C   0  0  0  0  0  0
  -19.1526  -28.8846   23.2911 C   0  0  0  0  0  0
  -18.9455  -30.1453   23.8919 C   0  0  0  0  0  0
  -17.6461  -30.6596   24.0574 C   0  0  0  0  0  0
  -25.9032  -34.9480   23.5129 C   0  0  0  0  0  0
  -16.5349  -29.9109   23.6328 C   0  0  0  0  0  0
  -16.7261  -28.6524   23.0350 C   0  0  0  0  0  0
  -26.4468  -31.6600   25.0722 C   0  0  0  0  0  0
  -25.3738  -31.3725   26.1478 C   0  0  0  0  0  0
  -27.0286  -30.3039   24.6090 C   0  0  0  0  0  0
  -27.6027  -32.4332   25.7504 C   0  0  0  0  0  0
  -27.5570  -37.1821   24.8469 C   0  0  0  0  0  0
  -21.4158  -29.3037   22.3737 N   0  0  0  0  0  0
  -26.4276  -37.3801   23.9419 N   0  0  0  0  0  0
  -24.6737  -31.0739   22.1020 N   0  0  0  0  0  0
  -23.4210  -28.8172   23.3003 O   0  0  0  0  0  0
  -28.3700  -26.6109   20.1370 O   0  0  0  0  0  0
  -26.5604  -34.8938   22.4697 O   0  0  0  0  0  0
  -23.5363  -32.1425   23.7487 O   0  0  0  0  0  0
  -29.8070  -15.5110   22.6347 C   0  0  0  0  0  0
  -30.5515  -16.9599   20.8058 C   0  0  0  0  0  0
  -29.4392  -18.0487   20.8425 C   0  0  0  0  0  0
  -28.2138  -25.2045   19.8155 C   0  0  0  0  0  0
  -29.2962  -24.2299   20.3552 C   0  0  0  0  0  0
  -29.0604  -20.4343   20.5668 C   0  0  0  0  0  0
  -29.7271  -21.8417   20.6351 C   0  0  0  0  0  0
  -30.1413  -15.5779   21.2041 N   0  0  0  0  0  0
  -30.0116  -19.3563   20.6503 O   0  0  0  0  0  0
  -28.8162  -22.8763   20.2303 O   0  0  0  0  0  0
  -31.4599  -12.4127   19.1435 H   0  0  0  0  0  0
  -30.2914  -11.3340   19.8387 H   0  0  0  0  0  0
  -29.7434  -11.7931   17.4363 H   0  0  0  0  0  0
  -29.6741  -13.5052   17.7513 H   0  0  0  0  0  0
  -27.8128  -11.3372   18.7823 H   0  0  0  0  0  0
  -27.3774  -12.6850   17.7655 H   0  0  0  0  0  0
  -27.6935  -14.2703   19.5738 H   0  0  0  0  0  0
  -28.6799  -11.9736   21.3232 H   0  0  0  0  0  0
  -28.4084  -13.5911   21.8568 H   0  0  0  0  0  0
  -25.2736   -9.5699   22.4763 H   0  0  0  0  0  0
  -24.0009   -7.4629   22.7463 H   0  0  0  0  0  0
  -21.0824   -8.8731   19.8970 H   0  0  0  0  0  0
  -22.3640  -10.9652   19.6185 H   0  0  0  0  0  0
  -21.1982   -7.6123   23.9683 H   0  0  0  0  0  0
  -21.1547   -6.0520   25.9072 H   0  0  0  0  0  0
  -22.0584   -2.7579   23.2865 H   0  0  0  0  0  0
  -22.4066  -11.9873   22.4794 H   0  0  0  0  0  0
  -21.1127  -13.1291   22.2650 H   0  0  0  0  0  0
  -24.6717  -15.8511   20.5100 H   0  0  0  0  0  0
  -26.3036  -15.6180   20.1307 H   0  0  0  0  0  0
  -26.7123  -32.5516   23.1153 H   0  0  0  0  0  0
  -25.0029  -33.9773   25.0452 H   0  0  0  0  0  0
  -22.6954  -31.3100   21.4154 H   0  0  0  0  0  0
  -23.3723  -35.9665   23.3312 H   0  0  0  0  0  0
  -24.3569  -36.8925   22.2052 H   0  0  0  0  0  0
  -23.7234  -37.6534   23.6644 H   0  0  0  0  0  0
  -26.0506  -31.5800   20.5937 H   0  0  0  0  0  0
  -26.8318  -30.8796   21.9815 H   0  0  0  0  0  0
  -28.0957  -29.0463   21.1934 H   0  0  0  0  0  0
  -25.9921  -26.0107   18.9290 H   0  0  0  0  0  0
  -23.9690  -27.3333   18.9958 H   0  0  0  0  0  0
  -23.7395  -30.6149   19.4111 H   0  0  0  0  0  0
  -22.7373  -29.2643   19.8582 H   0  0  0  0  0  0
  -25.1265  -36.1975   25.0829 H   0  0  0  0  0  0
  -20.9952  -28.3232   24.1453 H   0  0  0  0  0  0
  -20.5684  -26.2280   23.3623 H   0  0  0  0  0  0
  -21.6629  -26.7453   22.1215 H   0  0  0  0  0  0
  -19.6896  -25.6294   21.1264 H   0  0  0  0  0  0
  -19.6671  -27.3204   20.6783 H   0  0  0  0  0  0
  -17.4186  -26.6689   21.4044 H   0  0  0  0  0  0
  -18.0300  -26.0075   22.9042 H   0  0  0  0  0  0
  -19.7930  -30.7265   24.2293 H   0  0  0  0  0  0
  -17.5018  -31.6278   24.5176 H   0  0  0  0  0  0
  -15.5352  -30.3031   23.7626 H   0  0  0  0  0  0
  -15.8656  -28.0859   22.7048 H   0  0  0  0  0  0
  -24.5896  -30.7080   25.7837 H   0  0  0  0  0  0
  -24.8947  -32.2891   26.4928 H   0  0  0  0  0  0
  -25.8098  -30.8900   27.0232 H   0  0  0  0  0  0
  -26.2825  -29.6836   24.1103 H   0  0  0  0  0  0
  -27.4014  -29.7235   25.4537 H   0  0  0  0  0  0
  -27.8681  -30.4355   23.9261 H   0  0  0  0  0  0
  -27.2613  -33.3620   26.2089 H   0  0  0  0  0  0
  -28.3841  -32.6914   25.0347 H   0  0  0  0  0  0
  -28.0681  -31.8450   26.5423 H   0  0  0  0  0  0
  -28.2594  -38.0113   24.7497 H   0  0  0  0  0  0
  -28.1053  -36.2640   24.6297 H   0  0  0  0  0  0
  -27.2297  -37.1489   25.8877 H   0  0  0  0  0  0
  -20.9319  -29.8796   21.6990 H   0  0  0  0  0  0
  -26.0158  -38.2873   24.1429 H   0  0  0  0  0  0
  -28.7309  -15.6228   22.7690 H   0  0  0  0  0  0
  -30.2909  -16.3040   23.2060 H   0  0  0  0  0  0
  -30.1082  -14.5677   23.0962 H   0  0  0  0  0  0
  -31.3809  -17.2739   21.4433 H   0  0  0  0  0  0
  -30.9557  -16.9597   19.7908 H   0  0  0  0  0  0
  -28.9287  -18.0369   21.8063 H   0  0  0  0  0  0
  -28.6857  -17.8510   20.0791 H   0  0  0  0  0  0
  -27.2772  -24.8405   20.2392 H   0  0  0  0  0  0
  -28.1382  -25.0944   18.7323 H   0  0  0  0  0  0
  -29.4933  -24.4438   21.4068 H   0  0  0  0  0  0
  -30.2347  -24.3599   19.8149 H   0  0  0  0  0  0
  -28.5138  -20.3387   19.6269 H   0  0  0  0  0  0
  -28.3249  -20.3481   21.3692 H   0  0  0  0  0  0
  -30.6023  -21.8684   19.9841 H   0  0  0  0  0  0
  -30.0763  -22.0329   21.6509 H   0  0  0  0  0  0
  1 25  1  0  0  0
  1 30  2  0  0  0
  1 78  1  0  0  0
  2  3  1  0  0  0
  2 25  1  0  0  0
  2 81  1  0  0  0
  2 82  1  0  0  0
  3  4  1  0  0  0
  3 83  1  0  0  0
  3 84  1  0  0  0
  4  5  1  0  0  0
  4 85  1  0  0  0
  4 86  1  0  0  0
  5  6  1  0  0  0
  5 26  1  0  0  0
  5 87  1  0  0  0
  6 25  1  0  0  0
  6 88  1  0  0  0
  6 89  1  0  0  0
  7  8  2  0  0  0
  7 26  1  0  0  0
  7 29  1  0  0  0
  8  9  1  0  0  0
  8 22  1  0  0  0
  9 10  1  0  0  0
  9 27  2  0  0  0
 10 11  2  0  0  0
 10 15  1  0  0  0
 11 12  1  0  0  0
 11 90  1  0  0  0
 12 13  2  0  0  0
 12 91  1  0  0  0
 13 14  1  0  0  0
 13 31  1  0  0  0
 14 15  2  0  0  0
 14 92  1  0  0  0
 15 93  1  0  0  0
 16 17  2  0  0  0
 16 21  1  0  0  0
 16 31  1  0  0  0
 17 18  1  0  0  0
 17 94  1  0  0  0
 18 19  2  0  0  0
 18 95  1  0  0  0
 19 20  1  0  0  0
 19 24  1  0  0  0
 20 21  2  0  0  0
 20 96  1  0  0  0
 21 23  1  0  0  0
 22 28  1  0  0  0
 22 32  2  0  0  0
 26 27  1  0  0  0
 28 97  1  0  0  0
 28 98  1  0  0  0
 29 99  1  0  0  0
 29100  1  0  0  0
 33 34  1  0  0  0
 33 66  1  0  0  0
 33 70  2  0  0  0
 34 36  1  0  0  0
 34 59  1  0  0  0
 34101  1  0  0  0
 35 44  2  0  0  0
 35 45  1  0  0  0
 35 68  1  0  0  0
 36 56  1  0  0  0
 36102  1  0  0  0
 37 39  1  0  0  0
 37 47  1  0  0  0
 37 66  1  0  0  0
 37103  1  0  0  0
 38 43  2  0  0  0
 38 46  1  0  0  0
 38 47  1  0  0  0
 39 64  1  0  0  0
 39 67  2  0  0  0
 40 52  1  0  0  0
 40 53  2  0  0  0
 40 58  1  0  0  0
 41104  1  0  0  0
 41105  1  0  0  0
 41106  1  0  0  0
 41 48  1  0  0  0
 42 43  1  0  0  0
 42 66  1  0  0  0
 42107  1  0  0  0
 42108  1  0  0  0
 43 44  1  0  0  0
 44109  1  0  0  0
 45 46  2  0  0  0
 45110  1  0  0  0
 46111  1  0  0  0
 47112  1  0  0  0
 47113  1  0  0  0
 48 56  1  0  0  0
 48 65  1  0  0  0
 48114  1  0  0  0
 49 50  1  0  0  0
 49 53  1  0  0  0
 49 64  1  0  0  0
 49115  1  0  0  0
 50 51  1  0  0  0
 50116  1  0  0  0
 50117  1  0  0  0
 51 52  1  0  0  0
 51118  1  0  0  0
 51119  1  0  0  0
 52120  1  0  0  0
 52121  1  0  0  0
 53 54  1  0  0  0
 54 55  2  0  0  0
 54122  1  0  0  0
 55 57  1  0  0  0
 55123  1  0  0  0
 56 69  2  0  0  0
 57 58  2  0  0  0
 57124  1  0  0  0
 58125  1  0  0  0
 59 60  1  0  0  0
 59 61  1  0  0  0
 59 62  1  0  0  0
 60126  1  0  0  0
 60127  1  0  0  0
 60128  1  0  0  0
 61129  1  0  0  0
 61130  1  0  0  0
 61131  1  0  0  0
 62132  1  0  0  0
 62133  1  0  0  0
 62134  1  0  0  0
 63 65  1  0  0  0
 63135  1  0  0  0
 63136  1  0  0  0
 63137  1  0  0  0
 64138  1  0  0  0
 65139  1  0  0  0
 68 74  1  0  0  0
 71 78  1  0  0  0
 71140  1  0  0  0
 71141  1  0  0  0
 71142  1  0  0  0
 72 73  1  0  0  0
 72 78  1  0  0  0
 72143  1  0  0  0
 72144  1  0  0  0
 73 79  1  0  0  0
 73145  1  0  0  0
 73146  1  0  0  0
 74 75  1  0  0  0
 74147  1  0  0  0
 74148  1  0  0  0
 75 80  1  0  0  0
 75149  1  0  0  0
 75150  1  0  0  0
 76 77  1  0  0  0
 76 79  1  0  0  0
 76151  1  0  0  0
 76152  1  0  0  0
 77 80  1  0  0  0
 77153  1  0  0  0
 77154  1  0  0  0
M  ISO  4   1 100  68 101  74 101  78 100
M  END
> <chiral flag>
0

> <version>
0

> <s_m_source_file>
/data/baiqing/PycharmProjects/Reinvent-master-3.2/result/LINK_invent/BTK/process_docking_weight1_custom_sum_contain_oxygen_bond_distance_aromatic_linkinvent_7_9_3/rearranged_h_0000.sdf

> <i_m_source_file_index>
18

> <r_mmod_Potential_Energy-OPLS-2005>
103.106986999512

> <r_mmod_Stretch_Energy-OPLS-2005>
48.869255065918

> <r_mmod_Bend_Energy-OPLS-2005>
112.421577453613

> <r_mmod_Torsional_Energy-OPLS-2005>
255.696838378906

> <r_mmod_Improper_Torsional_Energy-OPLS-2005>
7.51116228103638

> <r_mmod_Van_der_Waal_Energy-OPLS-2005>
147.69270324707

> <r_mmod_Electrostatic_Energy-OPLS-2005>
-286.7763671875

> <r_mmod_Solvation_Energy-OPLS-2005>
-201.092620849609

> <b_mmod_Minimization_Converged-OPLS-2005>
0

> <r_mmod_RMS_Derivative-OPLS-2005>
2.37774276733398

$$$$
18
                    3D
 Structure written by MMmdl.
158165  0  0  1  0            999 V2000
  -30.7658  -14.3889   20.6360 C   0  0  0  0  0  0
  -30.4074  -12.2785   19.4144 C   0  0  0  0  0  0
  -29.4903  -12.5247   18.1997 C   0  0  0  0  0  0
  -28.0096  -12.3990   18.6040 C   0  0  0  0  0  0
  -27.6673  -13.2142   19.8803 C   0  0  2  0  0  0
  -28.7046  -12.9686   21.0009 C   0  0  0  0  0  0
  -25.2610  -13.8184   20.5647 C   0  0  0  0  0  0
  -24.1858  -13.0456   20.9146 C   0  0  0  0  0  0
  -24.6424  -11.6929   20.8746 C   0  0  0  0  0  0
  -23.9089  -10.4310   21.0422 C   0  0  0  0  0  0
  -24.3632   -9.4216   21.9193 C   0  0  0  0  0  0
  -23.6297   -8.2260   22.0762 C   0  0  0  0  0  0
  -22.4270   -8.0312   21.3575 C   0  0  0  0  0  0
  -21.9914   -9.0289   20.4670 C   0  0  0  0  0  0
  -22.7263  -10.2147   20.3065 C   0  0  0  0  0  0
  -21.6865   -6.0758   22.5298 C   0  0  0  0  0  0
  -21.4021   -6.5664   23.8236 C   0  0  0  0  0  0
  -21.3647   -5.6804   24.9185 C   0  0  0  0  0  0
  -21.6029   -4.3063   24.7226 C   0  0  0  0  0  0
  -21.8820   -3.8171   23.4356 C   0  0  0  0  0  0
  -21.9192   -4.6994   22.3407 C   0  0  0  0  0  0
  -22.7896  -13.5264   21.1841 C   0  0  0  0  0  0
  -22.1674   -4.2188   21.0981 F   0  0  0  0  0  0
  -21.5602   -3.4532   25.7736 F   0  0  0  0  0  0
  -30.0476  -13.2474   20.4604 N   0  0  0  0  0  0
  -26.3053  -12.9366   20.3350 N   0  0  0  0  0  0
  -25.9345  -11.6514   20.5746 N   0  0  0  0  0  0
  -22.0528  -12.8243   22.0385 N   0  0  0  0  0  0
  -25.4334  -15.1903   20.4105 N   0  0  0  0  0  0
  -31.8181  -14.6281   20.0402 O   0  0  0  0  0  0
  -21.6647   -6.8898   21.4256 O   0  0  0  0  0  0
  -22.3575  -14.5598   20.6747 O   0  0  0  0  0  0
  -24.6101  -31.8715   23.2139 C   0  0  0  0  0  0
  -25.9010  -32.4844   23.8419 C   0  0  1  0  0  0
  -27.2304  -27.4522   20.0946 C   0  0  0  0  0  0
  -25.5879  -33.8642   24.2359 N   0  0  0  0  0  0
  -23.3960  -30.4948   21.5544 C   0  0  2  0  0  0
  -24.8404  -28.9644   20.1208 C   0  0  0  0  0  0
  -22.7356  -29.4691   22.5019 C   0  0  0  0  0  0
  -18.0253  -28.1394   22.8486 C   0  0  0  0  0  0
  -24.1489  -36.7329   23.2643 C   0  0  0  0  0  0
  -25.9212  -30.8438   21.3623 C   0  0  0  0  0  0
  -25.9996  -29.4780   20.7130 C   0  0  0  0  0  0
  -27.1971  -28.7292   20.6948 C   0  0  0  0  0  0
  -26.0461  -26.9464   19.5050 C   0  0  0  0  0  0
  -24.8574  -27.6953   19.5186 C   0  0  0  0  0  0
  -23.6038  -29.8301   20.1683 C   0  0  0  0  0  0
  -25.4106  -36.3135   24.0358 C   0  0  1  0  0  0
  -20.5828  -28.3668   23.1298 C   0  0  2  0  0  0
  -20.6728  -26.9382   22.5424 C   0  0  0  0  0  0
  -19.5700  -26.6354   21.5215 C   0  0  0  0  0  0
  -18.1898  -26.7920   22.1655 C   0  0  0  0  0  0
  -19.1504  -28.8837   23.2895 C   0  0  0  0  0  0
  -18.9473  -30.1463   23.8858 C   0  0  0  0  0  0
  -17.6481  -30.6617   24.0554 C   0  0  0  0  0  0
  -25.9029  -34.9498   23.5147 C   0  0  0  0  0  0
  -16.5367  -29.9126   23.6339 C   0  0  0  0  0  0
  -16.7258  -28.6546   23.0341 C   0  0  0  0  0  0
  -26.4436  -31.6599   25.0716 C   0  0  0  0  0  0
  -25.3739  -31.3674   26.1494 C   0  0  0  0  0  0
  -27.0236  -30.3066   24.5996 C   0  0  0  0  0  0
  -27.6022  -32.4286   25.7473 C   0  0  0  0  0  0
  -27.5581  -37.1820   24.8466 C   0  0  0  0  0  0
  -21.4087  -29.3057   22.3715 N   0  0  0  0  0  0
  -26.4307  -37.3794   23.9404 N   0  0  0  0  0  0
  -24.6609  -31.0829   22.1033 N   0  0  0  0  0  0
  -23.4132  -28.8227   23.3053 O   0  0  0  0  0  0
  -28.4214  -26.7587   20.0955 O   0  0  0  0  0  0
  -26.5578  -34.8930   22.4697 O   0  0  0  0  0  0
  -23.5302  -32.1467   23.7550 O   0  0  0  0  0  0
  -30.8032  -16.6265   21.6666 C   0  0  0  0  0  0
  -30.0066  -17.4124   22.7233 C   0  0  0  0  0  0
  -28.3843  -25.3277   20.1107 C   0  0  0  0  0  0
  -27.9345  -24.7756   21.4773 C   0  0  0  0  0  0
  -28.1748  -18.1294   21.3338 C   0  0  0  0  0  0
  -27.1010  -19.1651   21.7100 C   0  0  0  0  0  0
  -27.4055  -22.7646   22.6157 C   0  0  0  0  0  0
  -26.7461  -21.3890   22.4286 C   0  0  0  0  0  0
  -30.2482  -15.2873   21.4780 N   0  0  0  0  0  0
  -28.6015  -17.4062   22.4848 O   0  0  0  0  0  0
  -27.5942  -23.3981   21.3515 O   0  0  0  0  0  0
  -27.7040  -20.4209   22.0108 O   0  0  0  0  0  0
  -31.4545  -12.3509   19.1182 H   0  0  0  0  0  0
  -30.2767  -11.2628   19.7914 H   0  0  0  0  0  0
  -29.7224  -11.8254   17.3950 H   0  0  0  0  0  0
  -29.6777  -13.5220   17.7984 H   0  0  0  0  0  0
  -27.7996  -11.3426   18.7700 H   0  0  0  0  0  0
  -27.3646  -12.7129   17.7823 H   0  0  0  0  0  0
  -27.7166  -14.2687   19.6085 H   0  0  0  0  0  0
  -28.6574  -11.9347   21.3434 H   0  0  0  0  0  0
  -28.4595  -13.5680   21.8779 H   0  0  0  0  0  0
  -25.2789   -9.5683   22.4748 H   0  0  0  0  0  0
  -24.0037   -7.4633   22.7446 H   0  0  0  0  0  0
  -21.0869   -8.8814   19.8962 H   0  0  0  0  0  0
  -22.3768  -10.9680   19.6159 H   0  0  0  0  0  0
  -21.2035   -7.6184   23.9755 H   0  0  0  0  0  0
  -21.1443   -6.0531   25.9085 H   0  0  0  0  0  0
  -22.0608   -2.7644   23.2837 H   0  0  0  0  0  0
  -22.4168  -11.9919   22.4781 H   0  0  0  0  0  0
  -21.1157  -13.1310   22.2571 H   0  0  0  0  0  0
  -24.6752  -15.8507   20.5350 H   0  0  0  0  0  0
  -26.2984  -15.6303   20.1253 H   0  0  0  0  0  0
  -26.7092  -32.5561   23.1204 H   0  0  0  0  0  0
  -25.0030  -33.9781   25.0512 H   0  0  0  0  0  0
  -22.6840  -31.3118   21.4153 H   0  0  0  0  0  0
  -23.3746  -35.9659   23.3322 H   0  0  0  0  0  0
  -24.3596  -36.8909   22.2051 H   0  0  0  0  0  0
  -23.7252  -37.6548   23.6635 H   0  0  0  0  0  0
  -26.0240  -31.6055   20.5894 H   0  0  0  0  0  0
  -26.8156  -30.9024   21.9711 H   0  0  0  0  0  0
  -28.0959  -29.1251   21.1473 H   0  0  0  0  0  0
  -26.0144  -25.9838   19.0197 H   0  0  0  0  0  0
  -23.9650  -27.2922   19.0616 H   0  0  0  0  0  0
  -23.7141  -30.6060   19.4081 H   0  0  0  0  0  0
  -22.7275  -29.2498   19.8720 H   0  0  0  0  0  0
  -25.1284  -36.2002   25.0854 H   0  0  0  0  0  0
  -20.9891  -28.3229   24.1424 H   0  0  0  0  0  0
  -20.5602  -26.2251   23.3610 H   0  0  0  0  0  0
  -21.6611  -26.7407   22.1227 H   0  0  0  0  0  0
  -19.6846  -25.6250   21.1270 H   0  0  0  0  0  0
  -19.6652  -27.3143   20.6733 H   0  0  0  0  0  0
  -17.4137  -26.6615   21.4110 H   0  0  0  0  0  0
  -18.0347  -26.0112   22.9107 H   0  0  0  0  0  0
  -19.7981  -30.7257   24.2181 H   0  0  0  0  0  0
  -17.5108  -31.6305   24.5150 H   0  0  0  0  0  0
  -15.5386  -30.3040   23.7694 H   0  0  0  0  0  0
  -15.8663  -28.0877   22.7024 H   0  0  0  0  0  0
  -24.5943  -30.6961   25.7877 H   0  0  0  0  0  0
  -24.8897  -32.2806   26.4953 H   0  0  0  0  0  0
  -25.8157  -30.8882   27.0242 H   0  0  0  0  0  0
  -26.2729  -29.6882   24.1065 H   0  0  0  0  0  0
  -27.4075  -29.7227   25.4369 H   0  0  0  0  0  0
  -27.8537  -30.4433   23.9068 H   0  0  0  0  0  0
  -27.2658  -33.3587   26.2067 H   0  0  0  0  0  0
  -28.3831  -32.6835   25.0301 H   0  0  0  0  0  0
  -28.0682  -31.8392   26.5376 H   0  0  0  0  0  0
  -28.2621  -38.0097   24.7492 H   0  0  0  0  0  0
  -28.1059  -36.2630   24.6327 H   0  0  0  0  0  0
  -27.2290  -37.1508   25.8865 H   0  0  0  0  0  0
  -20.9228  -29.8741   21.6898 H   0  0  0  0  0  0
  -26.0211  -38.2877   24.1379 H   0  0  0  0  0  0
  -31.8503  -16.5537   21.9721 H   0  0  0  0  0  0
  -30.8015  -17.1641   20.7154 H   0  0  0  0  0  0
  -30.3767  -18.4353   22.8054 H   0  0  0  0  0  0
  -30.1733  -16.9517   23.6981 H   0  0  0  0  0  0
  -27.7738  -24.9237   19.3056 H   0  0  0  0  0  0
  -29.3912  -24.9687   19.9042 H   0  0  0  0  0  0
  -27.0649  -25.3227   21.8493 H   0  0  0  0  0  0
  -28.7350  -24.9156   22.2048 H   0  0  0  0  0  0
  -28.9949  -18.6094   20.7986 H   0  0  0  0  0  0
  -27.7358  -17.3974   20.6547 H   0  0  0  0  0  0
  -26.4948  -18.8077   22.5443 H   0  0  0  0  0  0
  -26.4299  -19.2956   20.8600 H   0  0  0  0  0  0
  -26.7483  -23.3755   23.2379 H   0  0  0  0  0  0
  -28.3573  -22.6684   23.1402 H   0  0  0  0  0  0
  -25.9108  -21.4697   21.7303 H   0  0  0  0  0  0
  -26.3306  -21.0636   23.3829 H   0  0  0  0  0  0
  -29.3893  -15.0652   21.9615 H   0  0  0  0  0  0
  1 25  1  0  0  0
  1 30  2  0  0  0
  1 79  1  0  0  0
  2  3  1  0  0  0
  2 25  1  0  0  0
  2 83  1  0  0  0
  2 84  1  0  0  0
  3  4  1  0  0  0
  3 85  1  0  0  0
  3 86  1  0  0  0
  4  5  1  0  0  0
  4 87  1  0  0  0
  4 88  1  0  0  0
  5  6  1  0  0  0
  5 26  1  0  0  0
  5 89  1  0  0  0
  6 25  1  0  0  0
  6 90  1  0  0  0
  6 91  1  0  0  0
  7  8  2  0  0  0
  7 26  1  0  0  0
  7 29  1  0  0  0
  8  9  1  0  0  0
  8 22  1  0  0  0
  9 10  1  0  0  0
  9 27  2  0  0  0
 10 11  2  0  0  0
 10 15  1  0  0  0
 11 12  1  0  0  0
 11 92  1  0  0  0
 12 13  2  0  0  0
 12 93  1  0  0  0
 13 14  1  0  0  0
 13 31  1  0  0  0
 14 15  2  0  0  0
 14 94  1  0  0  0
 15 95  1  0  0  0
 16 17  2  0  0  0
 16 21  1  0  0  0
 16 31  1  0  0  0
 17 18  1  0  0  0
 17 96  1  0  0  0
 18 19  2  0  0  0
 18 97  1  0  0  0
 19 20  1  0  0  0
 19 24  1  0  0  0
 20 21  2  0  0  0
 20 98  1  0  0  0
 21 23  1  0  0  0
 22 28  1  0  0  0
 22 32  2  0  0  0
 26 27  1  0  0  0
 28 99  1  0  0  0
 28100  1  0  0  0
 29101  1  0  0  0
 29102  1  0  0  0
 33 34  1  0  0  0
 33 66  1  0  0  0
 33 70  2  0  0  0
 34 36  1  0  0  0
 34 59  1  0  0  0
 34103  1  0  0  0
 35 44  2  0  0  0
 35 45  1  0  0  0
 35 68  1  0  0  0
 36 56  1  0  0  0
 36104  1  0  0  0
 37 39  1  0  0  0
 37 47  1  0  0  0
 37 66  1  0  0  0
 37105  1  0  0  0
 38 43  2  0  0  0
 38 46  1  0  0  0
 38 47  1  0  0  0
 39 64  1  0  0  0
 39 67  2  0  0  0
 40 52  1  0  0  0
 40 53  2  0  0  0
 40 58  1  0  0  0
 41106  1  0  0  0
 41107  1  0  0  0
 41108  1  0  0  0
 41 48  1  0  0  0
 42 43  1  0  0  0
 42 66  1  0  0  0
 42109  1  0  0  0
 42110  1  0  0  0
 43 44  1  0  0  0
 44111  1  0  0  0
 45 46  2  0  0  0
 45112  1  0  0  0
 46113  1  0  0  0
 47114  1  0  0  0
 47115  1  0  0  0
 48 56  1  0  0  0
 48 65  1  0  0  0
 48116  1  0  0  0
 49 50  1  0  0  0
 49 53  1  0  0  0
 49 64  1  0  0  0
 49117  1  0  0  0
 50 51  1  0  0  0
 50118  1  0  0  0
 50119  1  0  0  0
 51 52  1  0  0  0
 51120  1  0  0  0
 51121  1  0  0  0
 52122  1  0  0  0
 52123  1  0  0  0
 53 54  1  0  0  0
 54 55  2  0  0  0
 54124  1  0  0  0
 55 57  1  0  0  0
 55125  1  0  0  0
 56 69  2  0  0  0
 57 58  2  0  0  0
 57126  1  0  0  0
 58127  1  0  0  0
 59 60  1  0  0  0
 59 61  1  0  0  0
 59 62  1  0  0  0
 60128  1  0  0  0
 60129  1  0  0  0
 60130  1  0  0  0
 61131  1  0  0  0
 61132  1  0  0  0
 61133  1  0  0  0
 62134  1  0  0  0
 62135  1  0  0  0
 62136  1  0  0  0
 63 65  1  0  0  0
 63137  1  0  0  0
 63138  1  0  0  0
 63139  1  0  0  0
 64140  1  0  0  0
 65141  1  0  0  0
 68 73  1  0  0  0
 71 72  1  0  0  0
 71 79  1  0  0  0
 71142  1  0  0  0
 71143  1  0  0  0
 72 80  1  0  0  0
 72144  1  0  0  0
 72145  1  0  0  0
 73 74  1  0  0  0
 73146  1  0  0  0
 73147  1  0  0  0
 74 81  1  0  0  0
 74148  1  0  0  0
 74149  1  0  0  0
 75 76  1  0  0  0
 75 80  1  0  0  0
 75150  1  0  0  0
 75151  1  0  0  0
 76 82  1  0  0  0
 76152  1  0  0  0
 76153  1  0  0  0
 77 78  1  0  0  0
 77 81  1  0  0  0
 77154  1  0  0  0
 77155  1  0  0  0
 78 82  1  0  0  0
 78156  1  0  0  0
 78157  1  0  0  0
 79158  1  0  0  0
M  ISO  4   1 100  68 101  73 101  79 100
M  END
> <chiral flag>
0

> <version>
0

> <s_m_source_file>
/data/baiqing/PycharmProjects/Reinvent-master-3.2/result/LINK_invent/BTK/process_docking_weight1_custom_sum_contain_oxygen_bond_distance_aromatic_linkinvent_7_9_3/rearranged_h_0000.sdf

> <i_m_source_file_index>
19

> <r_mmod_Potential_Energy-OPLS-2005>
-132.649719238281

> <r_mmod_Stretch_Energy-OPLS-2005>
31.9378795623779

> <r_mmod_Bend_Energy-OPLS-2005>
94.8774032592773

> <r_mmod_Torsional_Energy-OPLS-2005>
201.347106933594

> <r_mmod_Improper_Torsional_Energy-OPLS-2005>
1.87841999530792

> <r_mmod_Van_der_Waal_Energy-OPLS-2005>
137.073379516602

> <r_mmod_Electrostatic_Energy-OPLS-2005>
-394.197540283203

> <r_mmod_Solvation_Energy-OPLS-2005>
-213.581817626953

> <b_mmod_Minimization_Converged-OPLS-2005>
0

> <r_mmod_RMS_Derivative-OPLS-2005>
4.17057800292969

$$$$
19
                    3D
 Structure written by MMmdl.
146153  0  0  1  0            999 V2000
  -30.4549  -15.1919   20.3849 C   0  0  0  0  0  0
  -30.4419  -12.7609   19.5051 C   0  0  0  0  0  0
  -29.5292  -12.5596   18.2708 C   0  0  0  0  0  0
  -28.0748  -12.2962   18.7021 C   0  0  0  0  0  0
  -27.6136  -13.2648   19.8202 C   0  0  2  0  0  0
  -28.6529  -13.4068   20.9504 C   0  0  0  0  0  0
  -25.2403  -13.8229   20.5729 C   0  0  0  0  0  0
  -24.1748  -13.0433   20.9253 C   0  0  0  0  0  0
  -24.6392  -11.6927   20.8763 C   0  0  0  0  0  0
  -23.9086  -10.4291   21.0410 C   0  0  0  0  0  0
  -24.3633   -9.4204   21.9187 C   0  0  0  0  0  0
  -23.6302   -8.2242   22.0756 C   0  0  0  0  0  0
  -22.4283   -8.0282   21.3546 C   0  0  0  0  0  0
  -21.9924   -9.0257   20.4647 C   0  0  0  0  0  0
  -22.7258  -10.2133   20.3057 C   0  0  0  0  0  0
  -21.6855   -6.0737   22.5280 C   0  0  0  0  0  0
  -21.4015   -6.5640   23.8213 C   0  0  0  0  0  0
  -21.3660   -5.6793   24.9176 C   0  0  0  0  0  0
  -21.6044   -4.3056   24.7226 C   0  0  0  0  0  0
  -21.8819   -3.8148   23.4347 C   0  0  0  0  0  0
  -21.9194   -4.6964   22.3403 C   0  0  0  0  0  0
  -22.7766  -13.5192   21.1903 C   0  0  0  0  0  0
  -22.1661   -4.2150   21.0980 F   0  0  0  0  0  0
  -21.5629   -3.4538   25.7738 F   0  0  0  0  0  0
  -29.8884  -13.8961   20.3201 N   0  0  0  0  0  0
  -26.2822  -12.9485   20.3201 N   0  0  0  0  0  0
  -25.9324  -11.6602   20.5719 N   0  0  0  0  0  0
  -22.0422  -12.8177   22.0456 N   0  0  0  0  0  0
  -25.4037  -15.1963   20.4153 N   0  0  0  0  0  0
  -31.6824  -15.2103   20.2234 O   0  0  0  0  0  0
  -21.6644   -6.8881   21.4242 O   0  0  0  0  0  0
  -22.3448  -14.5495   20.6742 O   0  0  0  0  0  0
  -24.6584  -31.8285   23.1736 C   0  0  0  0  0  0
  -25.9287  -32.4613   23.8185 C   0  0  1  0  0  0
  -27.2178  -26.9750   20.1869 C   0  0  0  0  0  0
  -25.5973  -33.8425   24.2096 N   0  0  0  0  0  0
  -23.4702  -30.4410   21.5230 C   0  0  2  0  0  0
  -24.9214  -28.8312   20.1193 C   0  0  0  0  0  0
  -22.7640  -29.4469   22.4810 C   0  0  0  0  0  0
  -18.0318  -28.1406   22.8470 C   0  0  0  0  0  0
  -24.1494  -36.7217   23.2647 C   0  0  0  0  0  0
  -26.0362  -30.6515   21.3950 C   0  0  0  0  0  0
  -26.1055  -29.2439   20.7437 C   0  0  0  0  0  0
  -27.2532  -28.3383   20.7472 C   0  0  0  0  0  0
  -26.0028  -26.6964   19.5254 C   0  0  0  0  0  0
  -24.8915  -27.5757   19.4909 C   0  0  0  0  0  0
  -23.7071  -29.7557   20.1497 C   0  0  0  0  0  0
  -25.4134  -36.2981   24.0302 C   0  0  1  0  0  0
  -20.5938  -28.3745   23.1202 C   0  0  2  0  0  0
  -20.6798  -26.9434   22.5403 C   0  0  0  0  0  0
  -19.5771  -26.6380   21.5215 C   0  0  0  0  0  0
  -18.1953  -26.7940   22.1623 C   0  0  0  0  0  0
  -19.1577  -28.8896   23.2823 C   0  0  0  0  0  0
  -18.9489  -30.1488   23.8856 C   0  0  0  0  0  0
  -17.6483  -30.6597   24.0557 C   0  0  0  0  0  0
  -25.9093  -34.9364   23.5017 C   0  0  0  0  0  0
  -16.5374  -29.9085   23.6344 C   0  0  0  0  0  0
  -16.7300  -28.6506   23.0362 C   0  0  0  0  0  0
  -26.4555  -31.6539   25.0694 C   0  0  0  0  0  0
  -25.3694  -31.3776   26.1358 C   0  0  0  0  0  0
  -27.0448  -30.2914   24.6390 C   0  0  0  0  0  0
  -27.6051  -32.4342   25.7497 C   0  0  0  0  0  0
  -27.5571  -37.1767   24.8468 C   0  0  0  0  0  0
  -21.4316  -29.3042   22.3557 N   0  0  0  0  0  0
  -26.4283  -37.3712   23.9406 N   0  0  0  0  0  0
  -24.7427  -30.9994   22.0847 N   0  0  0  0  0  0
  -23.4209  -28.8039   23.3035 O   0  0  0  0  0  0
  -28.2529  -25.9182   20.1845 O   0  0  0  0  0  0
  -26.5701  -34.8893   22.4610 O   0  0  0  0  0  0
  -23.5665  -32.1233   23.6860 O   0  0  0  0  0  0
  -28.9836  -21.1892   20.6760 C   0  0  0  0  0  0
  -29.1420  -19.5254   20.0456 C   0  0  0  0  0  0
  -28.7259  -22.7941   19.9369 C   0  0  0  0  0  0
  -29.9001  -18.0518   20.7008 C   0  0  0  0  0  0
  -28.0709  -24.3377   20.5448 C   0  0  0  0  0  0
  -29.6685  -16.4354   20.4314 N   0  0  0  0  0  0
  -31.4603  -12.9680   19.1731 H   0  0  0  0  0  0
  -30.5035  -11.8473   20.0986 H   0  0  0  0  0  0
  -29.8948  -11.7358   17.6561 H   0  0  0  0  0  0
  -29.5668  -13.4513   17.6432 H   0  0  0  0  0  0
  -28.0212  -11.2689   19.0646 H   0  0  0  0  0  0
  -27.4048  -12.3529   17.8434 H   0  0  0  0  0  0
  -27.5380  -14.2388   19.3356 H   0  0  0  0  0  0
  -28.8080  -12.4621   21.4735 H   0  0  0  0  0  0
  -28.3078  -14.1243   21.6968 H   0  0  0  0  0  0
  -25.2776   -9.5679   22.4767 H   0  0  0  0  0  0
  -24.0008   -7.4632   22.7476 H   0  0  0  0  0  0
  -21.0856   -8.8778   19.8951 H   0  0  0  0  0  0
  -22.3717  -10.9673   19.6167 H   0  0  0  0  0  0
  -21.2007   -7.6149   23.9716 H   0  0  0  0  0  0
  -21.1482   -6.0524   25.9078 H   0  0  0  0  0  0
  -22.0596   -2.7610   23.2848 H   0  0  0  0  0  0
  -22.4055  -11.9848   22.4850 H   0  0  0  0  0  0
  -21.1032  -13.1183   22.2657 H   0  0  0  0  0  0
  -24.6309  -15.8437   20.5272 H   0  0  0  0  0  0
  -26.2397  -15.6392   20.0580 H   0  0  0  0  0  0
  -26.7354  -32.5171   23.0902 H   0  0  0  0  0  0
  -25.0079  -33.9507   25.0219 H   0  0  0  0  0  0
  -22.7811  -31.2710   21.3541 H   0  0  0  0  0  0
  -23.3765  -35.9539   23.3288 H   0  0  0  0  0  0
  -24.3568  -36.8881   22.2064 H   0  0  0  0  0  0
  -23.7244  -37.6399   23.6712 H   0  0  0  0  0  0
  -26.2087  -31.3941   20.6146 H   0  0  0  0  0  0
  -26.8995  -30.7094   22.0463 H   0  0  0  0  0  0
  -28.1585  -28.6587   21.2434 H   0  0  0  0  0  0
  -25.8948  -25.7377   19.0384 H   0  0  0  0  0  0
  -23.9906  -27.2535   18.9867 H   0  0  0  0  0  0
  -23.8605  -30.5232   19.3902 H   0  0  0  0  0  0
  -22.8176  -29.2077   19.8341 H   0  0  0  0  0  0
  -25.1331  -36.1783   25.0794 H   0  0  0  0  0  0
  -21.0026  -28.3348   24.1325 H   0  0  0  0  0  0
  -20.5684  -26.2363   23.3637 H   0  0  0  0  0  0
  -21.6662  -26.7420   22.1206 H   0  0  0  0  0  0
  -19.6932  -25.6280   21.1271 H   0  0  0  0  0  0
  -19.6708  -27.3169   20.6728 H   0  0  0  0  0  0
  -17.4221  -26.6684   21.4027 H   0  0  0  0  0  0
  -18.0347  -26.0092   22.9029 H   0  0  0  0  0  0
  -19.7965  -30.7317   24.2205 H   0  0  0  0  0  0
  -17.5035  -31.6273   24.5167 H   0  0  0  0  0  0
  -15.5372  -30.2973   23.7691 H   0  0  0  0  0  0
  -15.8701  -28.0810   22.7100 H   0  0  0  0  0  0
  -24.5886  -30.7116   25.7667 H   0  0  0  0  0  0
  -24.8872  -32.2974   26.4676 H   0  0  0  0  0  0
  -25.7933  -30.9012   27.0206 H   0  0  0  0  0  0
  -26.3106  -29.6597   24.1379 H   0  0  0  0  0  0
  -27.3986  -29.7265   25.5025 H   0  0  0  0  0  0
  -27.9042  -30.4111   23.9791 H   0  0  0  0  0  0
  -27.2619  -33.3679   26.1966 H   0  0  0  0  0  0
  -28.3920  -32.6845   25.0370 H   0  0  0  0  0  0
  -28.0656  -31.8543   26.5505 H   0  0  0  0  0  0
  -28.2578  -38.0072   24.7505 H   0  0  0  0  0  0
  -28.1076  -36.2597   24.6309 H   0  0  0  0  0  0
  -27.2284  -37.1428   25.8870 H   0  0  0  0  0  0
  -20.9563  -29.8727   21.6687 H   0  0  0  0  0  0
  -26.0135  -38.2774   24.1406 H   0  0  0  0  0  0
  -28.1889  -21.1083   21.4182 H   0  0  0  0  0  0
  -29.8762  -21.3287   21.2864 H   0  0  0  0  0  0
  -29.6013  -19.6459   19.0639 H   0  0  0  0  0  0
  -28.1191  -19.2319   19.8080 H   0  0  0  0  0  0
  -28.1428  -22.5960   19.0374 H   0  0  0  0  0  0
  -29.7078  -23.0579   19.5436 H   0  0  0  0  0  0
  -30.9755  -18.1979   20.5921 H   0  0  0  0  0  0
  -29.7423  -18.1293   21.7770 H   0  0  0  0  0  0
  -28.3515  -24.3288   21.5981 H   0  0  0  0  0  0
  -26.9917  -24.1871   20.5767 H   0  0  0  0  0  0
  -28.6848  -16.2096   20.4174 H   0  0  0  0  0  0
  1 25  1  0  0  0
  1 30  2  0  0  0
  1 76  1  0  0  0
  2  3  1  0  0  0
  2 25  1  0  0  0
  2 77  1  0  0  0
  2 78  1  0  0  0
  3  4  1  0  0  0
  3 79  1  0  0  0
  3 80  1  0  0  0
  4  5  1  0  0  0
  4 81  1  0  0  0
  4 82  1  0  0  0
  5  6  1  0  0  0
  5 26  1  0  0  0
  5 83  1  0  0  0
  6 25  1  0  0  0
  6 84  1  0  0  0
  6 85  1  0  0  0
  7  8  2  0  0  0
  7 26  1  0  0  0
  7 29  1  0  0  0
  8  9  1  0  0  0
  8 22  1  0  0  0
  9 10  1  0  0  0
  9 27  2  0  0  0
 10 11  2  0  0  0
 10 15  1  0  0  0
 11 12  1  0  0  0
 11 86  1  0  0  0
 12 13  2  0  0  0
 12 87  1  0  0  0
 13 14  1  0  0  0
 13 31  1  0  0  0
 14 15  2  0  0  0
 14 88  1  0  0  0
 15 89  1  0  0  0
 16 17  2  0  0  0
 16 21  1  0  0  0
 16 31  1  0  0  0
 17 18  1  0  0  0
 17 90  1  0  0  0
 18 19  2  0  0  0
 18 91  1  0  0  0
 19 20  1  0  0  0
 19 24  1  0  0  0
 20 21  2  0  0  0
 20 92  1  0  0  0
 21 23  1  0  0  0
 22 28  1  0  0  0
 22 32  2  0  0  0
 26 27  1  0  0  0
 28 93  1  0  0  0
 28 94  1  0  0  0
 29 95  1  0  0  0
 29 96  1  0  0  0
 33 34  1  0  0  0
 33 66  1  0  0  0
 33 70  2  0  0  0
 34 36  1  0  0  0
 34 59  1  0  0  0
 34 97  1  0  0  0
 35 44  2  0  0  0
 35 45  1  0  0  0
 35 68  1  0  0  0
 36 56  1  0  0  0
 36 98  1  0  0  0
 37 39  1  0  0  0
 37 47  1  0  0  0
 37 66  1  0  0  0
 37 99  1  0  0  0
 38 43  2  0  0  0
 38 46  1  0  0  0
 38 47  1  0  0  0
 39 64  1  0  0  0
 39 67  2  0  0  0
 40 52  1  0  0  0
 40 53  2  0  0  0
 40 58  1  0  0  0
 41100  1  0  0  0
 41101  1  0  0  0
 41102  1  0  0  0
 41 48  1  0  0  0
 42 43  1  0  0  0
 42 66  1  0  0  0
 42103  1  0  0  0
 42104  1  0  0  0
 43 44  1  0  0  0
 44105  1  0  0  0
 45 46  2  0  0  0
 45106  1  0  0  0
 46107  1  0  0  0
 47108  1  0  0  0
 47109  1  0  0  0
 48 56  1  0  0  0
 48 65  1  0  0  0
 48110  1  0  0  0
 49 50  1  0  0  0
 49 53  1  0  0  0
 49 64  1  0  0  0
 49111  1  0  0  0
 50 51  1  0  0  0
 50112  1  0  0  0
 50113  1  0  0  0
 51 52  1  0  0  0
 51114  1  0  0  0
 51115  1  0  0  0
 52116  1  0  0  0
 52117  1  0  0  0
 53 54  1  0  0  0
 54 55  2  0  0  0
 54118  1  0  0  0
 55 57  1  0  0  0
 55119  1  0  0  0
 56 69  2  0  0  0
 57 58  2  0  0  0
 57120  1  0  0  0
 58121  1  0  0  0
 59 60  1  0  0  0
 59 61  1  0  0  0
 59 62  1  0  0  0
 60122  1  0  0  0
 60123  1  0  0  0
 60124  1  0  0  0
 61125  1  0  0  0
 61126  1  0  0  0
 61127  1  0  0  0
 62128  1  0  0  0
 62129  1  0  0  0
 62130  1  0  0  0
 63 65  1  0  0  0
 63131  1  0  0  0
 63132  1  0  0  0
 63133  1  0  0  0
 64134  1  0  0  0
 65135  1  0  0  0
 68 75  1  0  0  0
 71 72  1  0  0  0
 71 73  1  0  0  0
 71136  1  0  0  0
 71137  1  0  0  0
 72 74  1  0  0  0
 72138  1  0  0  0
 72139  1  0  0  0
 73 75  1  0  0  0
 73140  1  0  0  0
 73141  1  0  0  0
 74 76  1  0  0  0
 74142  1  0  0  0
 74143  1  0  0  0
 75144  1  0  0  0
 75145  1  0  0  0
 76146  1  0  0  0
M  ISO  4   1 100  68 101  75 101  76 100
M  END
> <chiral flag>
0

> <version>
0

> <s_m_source_file>
/data/baiqing/PycharmProjects/Reinvent-master-3.2/result/LINK_invent/BTK/process_docking_weight1_custom_sum_contain_oxygen_bond_distance_aromatic_linkinvent_7_9_3/rearranged_h_0000.sdf

> <i_m_source_file_index>
20

> <r_mmod_Potential_Energy-OPLS-2005>
1145.12805175781

> <r_mmod_Stretch_Energy-OPLS-2005>
551.795166015625

> <r_mmod_Bend_Energy-OPLS-2005>
420.130432128906

> <r_mmod_Torsional_Energy-OPLS-2005>
235.50422668457

> <r_mmod_Improper_Torsional_Energy-OPLS-2005>
4.20592355728149

> <r_mmod_Van_der_Waal_Energy-OPLS-2005>
108.776268005371

> <r_mmod_Electrostatic_Energy-OPLS-2005>
-349.052825927734

> <r_mmod_Solvation_Energy-OPLS-2005>
-209.454177856445

> <b_mmod_Minimization_Converged-OPLS-2005>
0

> <r_mmod_RMS_Derivative-OPLS-2005>
0.315360128879547

$$$$
20
                    3D
 Structure written by MMmdl.
151158  0  0  1  0            999 V2000
  -30.6553  -14.5615   20.5164 C   0  0  0  0  0  0
  -30.4343  -12.3448   19.4472 C   0  0  0  0  0  0
  -29.5058  -12.5000   18.2222 C   0  0  0  0  0  0
  -28.0269  -12.3522   18.6318 C   0  0  0  0  0  0
  -27.6599  -13.2100   19.8722 C   0  0  2  0  0  0
  -28.7030  -13.0341   21.0011 C   0  0  0  0  0  0
  -25.2584  -13.8162   20.5687 C   0  0  0  0  0  0
  -24.1839  -13.0436   20.9184 C   0  0  0  0  0  0
  -24.6399  -11.6904   20.8735 C   0  0  0  0  0  0
  -23.9065  -10.4291   21.0404 C   0  0  0  0  0  0
  -24.3613   -9.4209   21.9185 C   0  0  0  0  0  0
  -23.6290   -8.2244   22.0754 C   0  0  0  0  0  0
  -22.4274   -8.0280   21.3544 C   0  0  0  0  0  0
  -21.9908   -9.0255   20.4647 C   0  0  0  0  0  0
  -22.7234  -10.2136   20.3058 C   0  0  0  0  0  0
  -21.6852   -6.0737   22.5281 C   0  0  0  0  0  0
  -21.4013   -6.5642   23.8214 C   0  0  0  0  0  0
  -21.3659   -5.6793   24.9176 C   0  0  0  0  0  0
  -21.6042   -4.3056   24.7226 C   0  0  0  0  0  0
  -21.8819   -3.8149   23.4347 C   0  0  0  0  0  0
  -21.9193   -4.6966   22.3403 C   0  0  0  0  0  0
  -22.7864  -13.5235   21.1847 C   0  0  0  0  0  0
  -22.1662   -4.2151   21.0980 F   0  0  0  0  0  0
  -21.5628   -3.4539   25.7739 F   0  0  0  0  0  0
  -30.0293  -13.3503   20.4461 N   0  0  0  0  0  0
  -26.3021  -12.9338   20.3357 N   0  0  0  0  0  0
  -25.9330  -11.6495   20.5769 N   0  0  0  0  0  0
  -22.0500  -12.8230   22.0403 N   0  0  0  0  0  0
  -25.4306  -15.1882   20.4098 N   0  0  0  0  0  0
  -31.7943  -14.7459   20.0817 O   0  0  0  0  0  0
  -21.6637   -6.8878   21.4242 O   0  0  0  0  0  0
  -22.3554  -14.5544   20.6697 O   0  0  0  0  0  0
  -24.6214  -31.8639   23.2075 C   0  0  0  0  0  0
  -25.9085  -32.4801   23.8384 C   0  0  1  0  0  0
  -27.2255  -27.3712   20.1033 C   0  0  0  0  0  0
  -25.5919  -33.8602   24.2308 N   0  0  0  0  0  0
  -23.4114  -30.4896   21.5492 C   0  0  2  0  0  0
  -24.8565  -28.9542   20.1093 C   0  0  0  0  0  0
  -22.7445  -29.4644   22.4958 C   0  0  0  0  0  0
  -18.0278  -28.1380   22.8491 C   0  0  0  0  0  0
  -24.1487  -36.7311   23.2637 C   0  0  0  0  0  0
  -25.9475  -30.8102   21.3710 C   0  0  0  0  0  0
  -26.0215  -29.4415   20.7145 C   0  0  0  0  0  0
  -27.2071  -28.6586   20.7081 C   0  0  0  0  0  0
  -26.0402  -26.9304   19.4662 C   0  0  0  0  0  0
  -24.8648  -27.7015   19.4786 C   0  0  0  0  0  0
  -23.6224  -29.8285   20.1616 C   0  0  0  0  0  0
  -25.4106  -36.3097   24.0333 C   0  0  1  0  0  0
  -20.5876  -28.3678   23.1297 C   0  0  2  0  0  0
  -20.6771  -26.9407   22.5414 C   0  0  0  0  0  0
  -19.5748  -26.6385   21.5213 C   0  0  0  0  0  0
  -18.1926  -26.7925   22.1623 C   0  0  0  0  0  0
  -19.1531  -28.8844   23.2893 C   0  0  0  0  0  0
  -18.9454  -30.1447   23.8907 C   0  0  0  0  0  0
  -17.6457  -30.6586   24.0563 C   0  0  0  0  0  0
  -25.9042  -34.9465   23.5117 C   0  0  0  0  0  0
  -16.5347  -29.9089   23.6325 C   0  0  0  0  0  0
  -16.7266  -28.6504   23.0347 C   0  0  0  0  0  0
  -26.4492  -31.6591   25.0732 C   0  0  0  0  0  0
  -25.3750  -31.3715   26.1476 C   0  0  0  0  0  0
  -27.0327  -30.3021   24.6144 C   0  0  0  0  0  0
  -27.6054  -32.4318   25.7506 C   0  0  0  0  0  0
  -27.5575  -37.1810   24.8463 C   0  0  0  0  0  0
  -21.4166  -29.3041   22.3700 N   0  0  0  0  0  0
  -26.4286  -37.3783   23.9409 N   0  0  0  0  0  0
  -24.6785  -31.0701   22.1001 N   0  0  0  0  0  0
  -23.4196  -28.8175   23.3006 O   0  0  0  0  0  0
  -28.3648  -26.5671   20.1596 O   0  0  0  0  0  0
  -26.5600  -34.8920   22.4678 O   0  0  0  0  0  0
  -23.5393  -32.1416   23.7435 O   0  0  0  0  0  0
  -29.9427  -17.0084   20.3659 C   0  0  0  0  0  0
  -30.2398  -18.1042   21.4380 C   0  0  0  0  0  0
  -28.2075  -25.1343   19.9110 C   0  0  0  0  0  0
  -29.2662  -24.1793   20.5573 C   0  0  0  0  0  0
  -29.9175  -20.3642   20.4052 C   0  0  0  0  0  0
  -29.8174  -21.8260   20.9840 C   0  0  0  0  0  0
  -29.8654  -15.6054   20.8638 N   0  0  0  0  0  0
  -29.4912  -19.3441   21.3363 O   0  0  0  0  0  0
  -29.0968  -22.7873   20.1739 O   0  0  0  0  0  0
  -31.4781  -12.4560   19.1472 H   0  0  0  0  0  0
  -30.3514  -11.3425   19.8699 H   0  0  0  0  0  0
  -29.7587  -11.7587   17.4631 H   0  0  0  0  0  0
  -29.6633  -13.4758   17.7598 H   0  0  0  0  0  0
  -27.8494  -11.2980   18.8472 H   0  0  0  0  0  0
  -27.3765  -12.6041   17.7933 H   0  0  0  0  0  0
  -27.6900  -14.2503   19.5482 H   0  0  0  0  0  0
  -28.6939  -12.0094   21.3754 H   0  0  0  0  0  0
  -28.4608  -13.6637   21.8586 H   0  0  0  0  0  0
  -25.2760   -9.5685   22.4755 H   0  0  0  0  0  0
  -24.0002   -7.4637   22.7472 H   0  0  0  0  0  0
  -21.0840   -8.8774   19.8954 H   0  0  0  0  0  0
  -22.3696  -10.9673   19.6164 H   0  0  0  0  0  0
  -21.2005   -7.6149   23.9717 H   0  0  0  0  0  0
  -21.1480   -6.0523   25.9077 H   0  0  0  0  0  0
  -22.0598   -2.7611   23.2847 H   0  0  0  0  0  0
  -22.4113  -11.9886   22.4785 H   0  0  0  0  0  0
  -21.1121  -13.1263   22.2609 H   0  0  0  0  0  0
  -24.6640  -15.8434   20.5187 H   0  0  0  0  0  0
  -26.2817  -15.6270   20.0812 H   0  0  0  0  0  0
  -26.7157  -32.5488   23.1142 H   0  0  0  0  0  0
  -25.0089  -33.9756   25.0468 H   0  0  0  0  0  0
  -22.7027  -31.3087   21.4110 H   0  0  0  0  0  0
  -23.3738  -35.9655   23.3305 H   0  0  0  0  0  0
  -24.3581  -36.8924   22.2051 H   0  0  0  0  0  0
  -23.7254  -37.6523   23.6652 H   0  0  0  0  0  0
  -26.0704  -31.5737   20.6015 H   0  0  0  0  0  0
  -26.8328  -30.8610   21.9934 H   0  0  0  0  0  0
  -28.1002  -29.0266   21.1935 H   0  0  0  0  0  0
  -25.9945  -25.9816   18.9532 H   0  0  0  0  0  0
  -23.9737  -27.3260   18.9946 H   0  0  0  0  0  0
  -23.7382  -30.6078   19.4073 H   0  0  0  0  0  0
  -22.7435  -29.2556   19.8597 H   0  0  0  0  0  0
  -25.1283  -36.1955   25.0825 H   0  0  0  0  0  0
  -20.9968  -28.3250   24.1416 H   0  0  0  0  0  0
  -20.5675  -26.2286   23.3609 H   0  0  0  0  0  0
  -21.6641  -26.7445   22.1203 H   0  0  0  0  0  0
  -19.6911  -25.6300   21.1234 H   0  0  0  0  0  0
  -19.6685  -27.3205   20.6752 H   0  0  0  0  0  0
  -17.4196  -26.6671   21.4025 H   0  0  0  0  0  0
  -18.0322  -26.0066   22.9016 H   0  0  0  0  0  0
  -19.7933  -30.7257   24.2281 H   0  0  0  0  0  0
  -17.5015  -31.6265   24.5168 H   0  0  0  0  0  0
  -15.5351  -30.2995   23.7644 H   0  0  0  0  0  0
  -15.8663  -28.0830   22.7056 H   0  0  0  0  0  0
  -24.5923  -30.7058   25.7824 H   0  0  0  0  0  0
  -24.8950  -32.2878   26.4917 H   0  0  0  0  0  0
  -25.8105  -30.8896   27.0238 H   0  0  0  0  0  0
  -26.2885  -29.6782   24.1174 H   0  0  0  0  0  0
  -27.4053  -29.7258   25.4624 H   0  0  0  0  0  0
  -27.8744  -30.4323   23.9335 H   0  0  0  0  0  0
  -27.2656  -33.3602   26.2106 H   0  0  0  0  0  0
  -28.3859  -32.6902   25.0339 H   0  0  0  0  0  0
  -28.0726  -31.8432   26.5410 H   0  0  0  0  0  0
  -28.2595  -38.0105   24.7496 H   0  0  0  0  0  0
  -28.1067  -36.2633   24.6297 H   0  0  0  0  0  0
  -27.2294  -37.1473   25.8868 H   0  0  0  0  0  0
  -20.9327  -29.8783   21.6941 H   0  0  0  0  0  0
  -26.0170  -38.2861   24.1406 H   0  0  0  0  0  0
  -30.6541  -17.0949   19.5428 H   0  0  0  0  0  0
  -28.9678  -17.2228   19.9266 H   0  0  0  0  0  0
  -31.3103  -18.3080   21.4926 H   0  0  0  0  0  0
  -29.9771  -17.6939   22.4136 H   0  0  0  0  0  0
  -27.2444  -24.7911   20.2910 H   0  0  0  0  0  0
  -28.1973  -24.9789   18.8314 H   0  0  0  0  0  0
  -29.1932  -24.2677   21.6418 H   0  0  0  0  0  0
  -30.2711  -24.5014   20.2815 H   0  0  0  0  0  0
  -30.9434  -20.1789   20.0829 H   0  0  0  0  0  0
  -29.3018  -20.2769   19.5094 H   0  0  0  0  0  0
  -30.8295  -22.1951   21.1586 H   0  0  0  0  0  0
  -29.3415  -21.7928   21.9649 H   0  0  0  0  0  0
  -28.9732  -15.3399   21.2544 H   0  0  0  0  0  0
  1 25  1  0  0  0
  1 30  2  0  0  0
  1 77  1  0  0  0
  2  3  1  0  0  0
  2 25  1  0  0  0
  2 80  1  0  0  0
  2 81  1  0  0  0
  3  4  1  0  0  0
  3 82  1  0  0  0
  3 83  1  0  0  0
  4  5  1  0  0  0
  4 84  1  0  0  0
  4 85  1  0  0  0
  5  6  1  0  0  0
  5 26  1  0  0  0
  5 86  1  0  0  0
  6 25  1  0  0  0
  6 87  1  0  0  0
  6 88  1  0  0  0
  7  8  2  0  0  0
  7 26  1  0  0  0
  7 29  1  0  0  0
  8  9  1  0  0  0
  8 22  1  0  0  0
  9 10  1  0  0  0
  9 27  2  0  0  0
 10 11  2  0  0  0
 10 15  1  0  0  0
 11 12  1  0  0  0
 11 89  1  0  0  0
 12 13  2  0  0  0
 12 90  1  0  0  0
 13 14  1  0  0  0
 13 31  1  0  0  0
 14 15  2  0  0  0
 14 91  1  0  0  0
 15 92  1  0  0  0
 16 17  2  0  0  0
 16 21  1  0  0  0
 16 31  1  0  0  0
 17 18  1  0  0  0
 17 93  1  0  0  0
 18 19  2  0  0  0
 18 94  1  0  0  0
 19 20  1  0  0  0
 19 24  1  0  0  0
 20 21  2  0  0  0
 20 95  1  0  0  0
 21 23  1  0  0  0
 22 28  1  0  0  0
 22 32  2  0  0  0
 26 27  1  0  0  0
 28 96  1  0  0  0
 28 97  1  0  0  0
 29 98  1  0  0  0
 29 99  1  0  0  0
 33 34  1  0  0  0
 33 66  1  0  0  0
 33 70  2  0  0  0
 34 36  1  0  0  0
 34 59  1  0  0  0
 34100  1  0  0  0
 35 44  2  0  0  0
 35 45  1  0  0  0
 35 68  1  0  0  0
 36 56  1  0  0  0
 36101  1  0  0  0
 37 39  1  0  0  0
 37 47  1  0  0  0
 37 66  1  0  0  0
 37102  1  0  0  0
 38 43  2  0  0  0
 38 46  1  0  0  0
 38 47  1  0  0  0
 39 64  1  0  0  0
 39 67  2  0  0  0
 40 52  1  0  0  0
 40 53  2  0  0  0
 40 58  1  0  0  0
 41103  1  0  0  0
 41104  1  0  0  0
 41105  1  0  0  0
 41 48  1  0  0  0
 42 43  1  0  0  0
 42 66  1  0  0  0
 42106  1  0  0  0
 42107  1  0  0  0
 43 44  1  0  0  0
 44108  1  0  0  0
 45 46  2  0  0  0
 45109  1  0  0  0
 46110  1  0  0  0
 47111  1  0  0  0
 47112  1  0  0  0
 48 56  1  0  0  0
 48 65  1  0  0  0
 48113  1  0  0  0
 49 50  1  0  0  0
 49 53  1  0  0  0
 49 64  1  0  0  0
 49114  1  0  0  0
 50 51  1  0  0  0
 50115  1  0  0  0
 50116  1  0  0  0
 51 52  1  0  0  0
 51117  1  0  0  0
 51118  1  0  0  0
 52119  1  0  0  0
 52120  1  0  0  0
 53 54  1  0  0  0
 54 55  2  0  0  0
 54121  1  0  0  0
 55 57  1  0  0  0
 55122  1  0  0  0
 56 69  2  0  0  0
 57 58  2  0  0  0
 57123  1  0  0  0
 58124  1  0  0  0
 59 60  1  0  0  0
 59 61  1  0  0  0
 59 62  1  0  0  0
 60125  1  0  0  0
 60126  1  0  0  0
 60127  1  0  0  0
 61128  1  0  0  0
 61129  1  0  0  0
 61130  1  0  0  0
 62131  1  0  0  0
 62132  1  0  0  0
 62133  1  0  0  0
 63 65  1  0  0  0
 63134  1  0  0  0
 63135  1  0  0  0
 63136  1  0  0  0
 64137  1  0  0  0
 65138  1  0  0  0
 68 73  1  0  0  0
 71 72  1  0  0  0
 71 77  1  0  0  0
 71139  1  0  0  0
 71140  1  0  0  0
 72 78  1  0  0  0
 72141  1  0  0  0
 72142  1  0  0  0
 73 74  1  0  0  0
 73143  1  0  0  0
 73144  1  0  0  0
 74 79  1  0  0  0
 74145  1  0  0  0
 74146  1  0  0  0
 75 76  1  0  0  0
 75 78  1  0  0  0
 75147  1  0  0  0
 75148  1  0  0  0
 76 79  1  0  0  0
 76149  1  0  0  0
 76150  1  0  0  0
 77151  1  0  0  0
M  ISO  4   1 100  68 101  73 101  77 100
M  END
> <chiral flag>
0

> <version>
0

> <s_m_source_file>
/data/baiqing/PycharmProjects/Reinvent-master-3.2/result/LINK_invent/BTK/process_docking_weight1_custom_sum_contain_oxygen_bond_distance_aromatic_linkinvent_7_9_3/rearranged_h_0000.sdf

> <i_m_source_file_index>
21

> <r_mmod_Potential_Energy-OPLS-2005>
-33.6661491394043

> <r_mmod_Stretch_Energy-OPLS-2005>
54.1415176391602

> <r_mmod_Bend_Energy-OPLS-2005>
117.664672851562

> <r_mmod_Torsional_Energy-OPLS-2005>
224.785095214844

> <r_mmod_Improper_Torsional_Energy-OPLS-2005>
6.75608205795288

> <r_mmod_Van_der_Waal_Energy-OPLS-2005>
133.051956176758

> <r_mmod_Electrostatic_Energy-OPLS-2005>
-384.544891357422

> <r_mmod_Solvation_Energy-OPLS-2005>
-214.149185180664

> <b_mmod_Minimization_Converged-OPLS-2005>
0

> <r_mmod_RMS_Derivative-OPLS-2005>
0.78693014383316

$$$$
21
                    3D
 Structure written by MMmdl.
158165  0  0  1  0            999 V2000
  -30.7658  -14.3889   20.6360 C   0  0  0  0  0  0
  -30.4074  -12.2785   19.4144 C   0  0  0  0  0  0
  -29.4903  -12.5247   18.1997 C   0  0  0  0  0  0
  -28.0096  -12.3990   18.6040 C   0  0  0  0  0  0
  -27.6673  -13.2142   19.8803 C   0  0  2  0  0  0
  -28.7046  -12.9686   21.0009 C   0  0  0  0  0  0
  -25.2610  -13.8184   20.5647 C   0  0  0  0  0  0
  -24.1858  -13.0456   20.9146 C   0  0  0  0  0  0
  -24.6424  -11.6929   20.8746 C   0  0  0  0  0  0
  -23.9089  -10.4310   21.0422 C   0  0  0  0  0  0
  -24.3632   -9.4216   21.9193 C   0  0  0  0  0  0
  -23.6297   -8.2260   22.0762 C   0  0  0  0  0  0
  -22.4270   -8.0312   21.3575 C   0  0  0  0  0  0
  -21.9914   -9.0289   20.4670 C   0  0  0  0  0  0
  -22.7263  -10.2147   20.3065 C   0  0  0  0  0  0
  -21.6865   -6.0758   22.5298 C   0  0  0  0  0  0
  -21.4021   -6.5664   23.8236 C   0  0  0  0  0  0
  -21.3647   -5.6804   24.9185 C   0  0  0  0  0  0
  -21.6029   -4.3063   24.7226 C   0  0  0  0  0  0
  -21.8820   -3.8171   23.4356 C   0  0  0  0  0  0
  -21.9192   -4.6994   22.3407 C   0  0  0  0  0  0
  -22.7896  -13.5264   21.1841 C   0  0  0  0  0  0
  -22.1674   -4.2188   21.0981 F   0  0  0  0  0  0
  -21.5602   -3.4532   25.7736 F   0  0  0  0  0  0
  -30.0476  -13.2474   20.4604 N   0  0  0  0  0  0
  -26.3053  -12.9366   20.3350 N   0  0  0  0  0  0
  -25.9345  -11.6514   20.5746 N   0  0  0  0  0  0
  -22.0528  -12.8243   22.0385 N   0  0  0  0  0  0
  -25.4334  -15.1903   20.4105 N   0  0  0  0  0  0
  -31.8181  -14.6281   20.0402 O   0  0  0  0  0  0
  -21.6647   -6.8898   21.4256 O   0  0  0  0  0  0
  -22.3575  -14.5598   20.6747 O   0  0  0  0  0  0
  -24.6101  -31.8715   23.2139 C   0  0  0  0  0  0
  -25.9010  -32.4844   23.8419 C   0  0  1  0  0  0
  -27.2304  -27.4522   20.0946 C   0  0  0  0  0  0
  -25.5879  -33.8642   24.2359 N   0  0  0  0  0  0
  -23.3960  -30.4948   21.5544 C   0  0  2  0  0  0
  -24.8404  -28.9644   20.1208 C   0  0  0  0  0  0
  -22.7356  -29.4691   22.5019 C   0  0  0  0  0  0
  -18.0253  -28.1394   22.8486 C   0  0  0  0  0  0
  -24.1489  -36.7329   23.2643 C   0  0  0  0  0  0
  -25.9212  -30.8438   21.3623 C   0  0  0  0  0  0
  -25.9996  -29.4780   20.7130 C   0  0  0  0  0  0
  -27.1971  -28.7292   20.6948 C   0  0  0  0  0  0
  -26.0461  -26.9464   19.5050 C   0  0  0  0  0  0
  -24.8574  -27.6953   19.5186 C   0  0  0  0  0  0
  -23.6038  -29.8301   20.1683 C   0  0  0  0  0  0
  -25.4106  -36.3135   24.0358 C   0  0  1  0  0  0
  -20.5828  -28.3668   23.1298 C   0  0  2  0  0  0
  -20.6728  -26.9382   22.5424 C   0  0  0  0  0  0
  -19.5700  -26.6354   21.5215 C   0  0  0  0  0  0
  -18.1898  -26.7920   22.1655 C   0  0  0  0  0  0
  -19.1504  -28.8837   23.2895 C   0  0  0  0  0  0
  -18.9473  -30.1463   23.8858 C   0  0  0  0  0  0
  -17.6481  -30.6617   24.0554 C   0  0  0  0  0  0
  -25.9029  -34.9498   23.5147 C   0  0  0  0  0  0
  -16.5367  -29.9126   23.6339 C   0  0  0  0  0  0
  -16.7258  -28.6546   23.0341 C   0  0  0  0  0  0
  -26.4436  -31.6599   25.0716 C   0  0  0  0  0  0
  -25.3739  -31.3674   26.1494 C   0  0  0  0  0  0
  -27.0236  -30.3066   24.5996 C   0  0  0  0  0  0
  -27.6022  -32.4286   25.7473 C   0  0  0  0  0  0
  -27.5581  -37.1820   24.8466 C   0  0  0  0  0  0
  -21.4087  -29.3057   22.3715 N   0  0  0  0  0  0
  -26.4307  -37.3794   23.9404 N   0  0  0  0  0  0
  -24.6609  -31.0829   22.1033 N   0  0  0  0  0  0
  -23.4132  -28.8227   23.3053 O   0  0  0  0  0  0
  -28.4214  -26.7587   20.0955 O   0  0  0  0  0  0
  -26.5578  -34.8930   22.4697 O   0  0  0  0  0  0
  -23.5302  -32.1467   23.7550 O   0  0  0  0  0  0
  -30.8032  -16.6265   21.6666 C   0  0  0  0  0  0
  -30.0066  -17.4124   22.7233 C   0  0  0  0  0  0
  -28.3843  -25.3277   20.1107 C   0  0  0  0  0  0
  -27.9345  -24.7756   21.4773 C   0  0  0  0  0  0
  -28.1748  -18.1294   21.3338 C   0  0  0  0  0  0
  -27.1010  -19.1651   21.7100 C   0  0  0  0  0  0
  -27.4055  -22.7646   22.6157 C   0  0  0  0  0  0
  -26.7461  -21.3890   22.4286 C   0  0  0  0  0  0
  -30.2482  -15.2873   21.4780 N   0  0  0  0  0  0
  -28.6015  -17.4062   22.4848 O   0  0  0  0  0  0
  -27.5942  -23.3981   21.3515 O   0  0  0  0  0  0
  -27.7040  -20.4209   22.0108 O   0  0  0  0  0  0
  -31.4545  -12.3509   19.1182 H   0  0  0  0  0  0
  -30.2767  -11.2628   19.7914 H   0  0  0  0  0  0
  -29.7224  -11.8254   17.3950 H   0  0  0  0  0  0
  -29.6777  -13.5220   17.7984 H   0  0  0  0  0  0
  -27.7996  -11.3426   18.7700 H   0  0  0  0  0  0
  -27.3646  -12.7129   17.7823 H   0  0  0  0  0  0
  -27.7166  -14.2687   19.6085 H   0  0  0  0  0  0
  -28.6574  -11.9347   21.3434 H   0  0  0  0  0  0
  -28.4595  -13.5680   21.8779 H   0  0  0  0  0  0
  -25.2789   -9.5683   22.4748 H   0  0  0  0  0  0
  -24.0037   -7.4633   22.7446 H   0  0  0  0  0  0
  -21.0869   -8.8814   19.8962 H   0  0  0  0  0  0
  -22.3768  -10.9680   19.6159 H   0  0  0  0  0  0
  -21.2035   -7.6184   23.9755 H   0  0  0  0  0  0
  -21.1443   -6.0531   25.9085 H   0  0  0  0  0  0
  -22.0608   -2.7644   23.2837 H   0  0  0  0  0  0
  -22.4168  -11.9919   22.4781 H   0  0  0  0  0  0
  -21.1157  -13.1310   22.2571 H   0  0  0  0  0  0
  -24.6752  -15.8507   20.5350 H   0  0  0  0  0  0
  -26.2984  -15.6303   20.1253 H   0  0  0  0  0  0
  -26.7092  -32.5561   23.1204 H   0  0  0  0  0  0
  -25.0030  -33.9781   25.0512 H   0  0  0  0  0  0
  -22.6840  -31.3118   21.4153 H   0  0  0  0  0  0
  -23.3746  -35.9659   23.3322 H   0  0  0  0  0  0
  -24.3596  -36.8909   22.2051 H   0  0  0  0  0  0
  -23.7252  -37.6548   23.6635 H   0  0  0  0  0  0
  -26.0240  -31.6055   20.5894 H   0  0  0  0  0  0
  -26.8156  -30.9024   21.9711 H   0  0  0  0  0  0
  -28.0959  -29.1251   21.1473 H   0  0  0  0  0  0
  -26.0144  -25.9838   19.0197 H   0  0  0  0  0  0
  -23.9650  -27.2922   19.0616 H   0  0  0  0  0  0
  -23.7141  -30.6060   19.4081 H   0  0  0  0  0  0
  -22.7275  -29.2498   19.8720 H   0  0  0  0  0  0
  -25.1284  -36.2002   25.0854 H   0  0  0  0  0  0
  -20.9891  -28.3229   24.1424 H   0  0  0  0  0  0
  -20.5602  -26.2251   23.3610 H   0  0  0  0  0  0
  -21.6611  -26.7407   22.1227 H   0  0  0  0  0  0
  -19.6846  -25.6250   21.1270 H   0  0  0  0  0  0
  -19.6652  -27.3143   20.6733 H   0  0  0  0  0  0
  -17.4137  -26.6615   21.4110 H   0  0  0  0  0  0
  -18.0347  -26.0112   22.9107 H   0  0  0  0  0  0
  -19.7981  -30.7257   24.2181 H   0  0  0  0  0  0
  -17.5108  -31.6305   24.5150 H   0  0  0  0  0  0
  -15.5386  -30.3040   23.7694 H   0  0  0  0  0  0
  -15.8663  -28.0877   22.7024 H   0  0  0  0  0  0
  -24.5943  -30.6961   25.7877 H   0  0  0  0  0  0
  -24.8897  -32.2806   26.4953 H   0  0  0  0  0  0
  -25.8157  -30.8882   27.0242 H   0  0  0  0  0  0
  -26.2729  -29.6882   24.1065 H   0  0  0  0  0  0
  -27.4075  -29.7227   25.4369 H   0  0  0  0  0  0
  -27.8537  -30.4433   23.9068 H   0  0  0  0  0  0
  -27.2658  -33.3587   26.2067 H   0  0  0  0  0  0
  -28.3831  -32.6835   25.0301 H   0  0  0  0  0  0
  -28.0682  -31.8392   26.5376 H   0  0  0  0  0  0
  -28.2621  -38.0097   24.7492 H   0  0  0  0  0  0
  -28.1059  -36.2630   24.6327 H   0  0  0  0  0  0
  -27.2290  -37.1508   25.8865 H   0  0  0  0  0  0
  -20.9228  -29.8741   21.6898 H   0  0  0  0  0  0
  -26.0211  -38.2877   24.1379 H   0  0  0  0  0  0
  -31.8503  -16.5537   21.9721 H   0  0  0  0  0  0
  -30.8015  -17.1641   20.7154 H   0  0  0  0  0  0
  -30.3767  -18.4353   22.8054 H   0  0  0  0  0  0
  -30.1733  -16.9517   23.6981 H   0  0  0  0  0  0
  -27.7738  -24.9237   19.3056 H   0  0  0  0  0  0
  -29.3912  -24.9687   19.9042 H   0  0  0  0  0  0
  -27.0649  -25.3227   21.8493 H   0  0  0  0  0  0
  -28.7350  -24.9156   22.2048 H   0  0  0  0  0  0
  -28.9949  -18.6094   20.7986 H   0  0  0  0  0  0
  -27.7358  -17.3974   20.6547 H   0  0  0  0  0  0
  -26.4948  -18.8077   22.5443 H   0  0  0  0  0  0
  -26.4299  -19.2956   20.8600 H   0  0  0  0  0  0
  -26.7483  -23.3755   23.2379 H   0  0  0  0  0  0
  -28.3573  -22.6684   23.1402 H   0  0  0  0  0  0
  -25.9108  -21.4697   21.7303 H   0  0  0  0  0  0
  -26.3306  -21.0636   23.3829 H   0  0  0  0  0  0
  -29.3893  -15.0652   21.9615 H   0  0  0  0  0  0
  1 25  1  0  0  0
  1 30  2  0  0  0
  1 79  1  0  0  0
  2  3  1  0  0  0
  2 25  1  0  0  0
  2 83  1  0  0  0
  2 84  1  0  0  0
  3  4  1  0  0  0
  3 85  1  0  0  0
  3 86  1  0  0  0
  4  5  1  0  0  0
  4 87  1  0  0  0
  4 88  1  0  0  0
  5  6  1  0  0  0
  5 26  1  0  0  0
  5 89  1  0  0  0
  6 25  1  0  0  0
  6 90  1  0  0  0
  6 91  1  0  0  0
  7  8  2  0  0  0
  7 26  1  0  0  0
  7 29  1  0  0  0
  8  9  1  0  0  0
  8 22  1  0  0  0
  9 10  1  0  0  0
  9 27  2  0  0  0
 10 11  2  0  0  0
 10 15  1  0  0  0
 11 12  1  0  0  0
 11 92  1  0  0  0
 12 13  2  0  0  0
 12 93  1  0  0  0
 13 14  1  0  0  0
 13 31  1  0  0  0
 14 15  2  0  0  0
 14 94  1  0  0  0
 15 95  1  0  0  0
 16 17  2  0  0  0
 16 21  1  0  0  0
 16 31  1  0  0  0
 17 18  1  0  0  0
 17 96  1  0  0  0
 18 19  2  0  0  0
 18 97  1  0  0  0
 19 20  1  0  0  0
 19 24  1  0  0  0
 20 21  2  0  0  0
 20 98  1  0  0  0
 21 23  1  0  0  0
 22 28  1  0  0  0
 22 32  2  0  0  0
 26 27  1  0  0  0
 28 99  1  0  0  0
 28100  1  0  0  0
 29101  1  0  0  0
 29102  1  0  0  0
 33 34  1  0  0  0
 33 66  1  0  0  0
 33 70  2  0  0  0
 34 36  1  0  0  0
 34 59  1  0  0  0
 34103  1  0  0  0
 35 44  2  0  0  0
 35 45  1  0  0  0
 35 68  1  0  0  0
 36 56  1  0  0  0
 36104  1  0  0  0
 37 39  1  0  0  0
 37 47  1  0  0  0
 37 66  1  0  0  0
 37105  1  0  0  0
 38 43  2  0  0  0
 38 46  1  0  0  0
 38 47  1  0  0  0
 39 64  1  0  0  0
 39 67  2  0  0  0
 40 52  1  0  0  0
 40 53  2  0  0  0
 40 58  1  0  0  0
 41106  1  0  0  0
 41107  1  0  0  0
 41108  1  0  0  0
 41 48  1  0  0  0
 42 43  1  0  0  0
 42 66  1  0  0  0
 42109  1  0  0  0
 42110  1  0  0  0
 43 44  1  0  0  0
 44111  1  0  0  0
 45 46  2  0  0  0
 45112  1  0  0  0
 46113  1  0  0  0
 47114  1  0  0  0
 47115  1  0  0  0
 48 56  1  0  0  0
 48 65  1  0  0  0
 48116  1  0  0  0
 49 50  1  0  0  0
 49 53  1  0  0  0
 49 64  1  0  0  0
 49117  1  0  0  0
 50 51  1  0  0  0
 50118  1  0  0  0
 50119  1  0  0  0
 51 52  1  0  0  0
 51120  1  0  0  0
 51121  1  0  0  0
 52122  1  0  0  0
 52123  1  0  0  0
 53 54  1  0  0  0
 54 55  2  0  0  0
 54124  1  0  0  0
 55 57  1  0  0  0
 55125  1  0  0  0
 56 69  2  0  0  0
 57 58  2  0  0  0
 57126  1  0  0  0
 58127  1  0  0  0
 59 60  1  0  0  0
 59 61  1  0  0  0
 59 62  1  0  0  0
 60128  1  0  0  0
 60129  1  0  0  0
 60130  1  0  0  0
 61131  1  0  0  0
 61132  1  0  0  0
 61133  1  0  0  0
 62134  1  0  0  0
 62135  1  0  0  0
 62136  1  0  0  0
 63 65  1  0  0  0
 63137  1  0  0  0
 63138  1  0  0  0
 63139  1  0  0  0
 64140  1  0  0  0
 65141  1  0  0  0
 68 73  1  0  0  0
 71 72  1  0  0  0
 71 79  1  0  0  0
 71142  1  0  0  0
 71143  1  0  0  0
 72 80  1  0  0  0
 72144  1  0  0  0
 72145  1  0  0  0
 73 74  1  0  0  0
 73146  1  0  0  0
 73147  1  0  0  0
 74 81  1  0  0  0
 74148  1  0  0  0
 74149  1  0  0  0
 75 76  1  0  0  0
 75 80  1  0  0  0
 75150  1  0  0  0
 75151  1  0  0  0
 76 82  1  0  0  0
 76152  1  0  0  0
 76153  1  0  0  0
 77 78  1  0  0  0
 77 81  1  0  0  0
 77154  1  0  0  0
 77155  1  0  0  0
 78 82  1  0  0  0
 78156  1  0  0  0
 78157  1  0  0  0
 79158  1  0  0  0
M  ISO  4   1 100  68 101  73 101  79 100
M  END
> <chiral flag>
0

> <version>
0

> <s_m_source_file>
/data/baiqing/PycharmProjects/Reinvent-master-3.2/result/LINK_invent/BTK/process_docking_weight1_custom_sum_contain_oxygen_bond_distance_aromatic_linkinvent_7_9_3/rearranged_h_0000.sdf

> <i_m_source_file_index>
22

> <r_mmod_Potential_Energy-OPLS-2005>
-132.649719238281

> <r_mmod_Stretch_Energy-OPLS-2005>
31.9378795623779

> <r_mmod_Bend_Energy-OPLS-2005>
94.8774032592773

> <r_mmod_Torsional_Energy-OPLS-2005>
201.347106933594

> <r_mmod_Improper_Torsional_Energy-OPLS-2005>
1.87841999530792

> <r_mmod_Van_der_Waal_Energy-OPLS-2005>
137.073379516602

> <r_mmod_Electrostatic_Energy-OPLS-2005>
-394.197540283203

> <r_mmod_Solvation_Energy-OPLS-2005>
-213.581817626953

> <b_mmod_Minimization_Converged-OPLS-2005>
0

> <r_mmod_RMS_Derivative-OPLS-2005>
4.17057800292969

$$$$
22
                    3D
 Structure written by MMmdl.
165172  0  0  1  0            999 V2000
  -30.7299  -14.3479   20.7028 C   0  0  0  0  0  0
  -30.4295  -12.2794   19.3894 C   0  0  0  0  0  0
  -29.4879  -12.5170   18.1910 C   0  0  0  0  0  0
  -28.0100  -12.3728   18.6080 C   0  0  0  0  0  0
  -27.6692  -13.1920   19.8792 C   0  0  2  0  0  0
  -28.7005  -12.8911   20.9895 C   0  0  0  0  0  0
  -25.2627  -13.8152   20.5622 C   0  0  0  0  0  0
  -24.1869  -13.0449   20.9142 C   0  0  0  0  0  0
  -24.6394  -11.6913   20.8689 C   0  0  0  0  0  0
  -23.9042  -10.4311   21.0375 C   0  0  0  0  0  0
  -24.3598   -9.4240   21.9152 C   0  0  0  0  0  0
  -23.6296   -8.2263   22.0718 C   0  0  0  0  0  0
  -22.4264   -8.0294   21.3523 C   0  0  0  0  0  0
  -21.9896   -9.0256   20.4609 C   0  0  0  0  0  0
  -22.7212  -10.2145   20.3022 C   0  0  0  0  0  0
  -21.6855   -6.0769   22.5293 C   0  0  0  0  0  0
  -21.4017   -6.5648   23.8231 C   0  0  0  0  0  0
  -21.3661   -5.6779   24.9179 C   0  0  0  0  0  0
  -21.6032   -4.3046   24.7227 C   0  0  0  0  0  0
  -21.8825   -3.8168   23.4329 C   0  0  0  0  0  0
  -21.9189   -4.6996   22.3407 C   0  0  0  0  0  0
  -22.7904  -13.5243   21.1842 C   0  0  0  0  0  0
  -22.1645   -4.2192   21.0975 F   0  0  0  0  0  0
  -21.5630   -3.4515   25.7723 F   0  0  0  0  0  0
  -30.0515  -13.1958   20.4738 N   0  0  0  0  0  0
  -26.3056  -12.9298   20.3328 N   0  0  0  0  0  0
  -25.9314  -11.6475   20.5751 N   0  0  0  0  0  0
  -22.0528  -12.8245   22.0405 N   0  0  0  0  0  0
  -25.4375  -15.1869   20.3983 N   0  0  0  0  0  0
  -31.7234  -14.7055   20.0651 O   0  0  0  0  0  0
  -21.6623   -6.8899   21.4246 O   0  0  0  0  0  0
  -22.3596  -14.5568   20.6717 O   0  0  0  0  0  0
  -24.6135  -31.8698   23.2124 C   0  0  0  0  0  0
  -25.9036  -32.4823   23.8418 C   0  0  1  0  0  0
  -27.2335  -27.4498   20.0928 C   0  0  0  0  0  0
  -25.5897  -33.8623   24.2343 N   0  0  0  0  0  0
  -23.4007  -30.4940   21.5521 C   0  0  2  0  0  0
  -24.8437  -28.9601   20.1177 C   0  0  0  0  0  0
  -22.7407  -29.4664   22.4994 C   0  0  0  0  0  0
  -18.0280  -28.1366   22.8497 C   0  0  0  0  0  0
  -24.1489  -36.7317   23.2642 C   0  0  0  0  0  0
  -25.9284  -30.8376   21.3656 C   0  0  0  0  0  0
  -26.0037  -29.4745   20.7101 C   0  0  0  0  0  0
  -27.1999  -28.7280   20.6910 C   0  0  0  0  0  0
  -26.0522  -26.9415   19.5043 C   0  0  0  0  0  0
  -24.8614  -27.6916   19.5151 C   0  0  0  0  0  0
  -23.6082  -29.8266   20.1663 C   0  0  0  0  0  0
  -25.4106  -36.3119   24.0347 C   0  0  1  0  0  0
  -20.5875  -28.3653   23.1318 C   0  0  2  0  0  0
  -20.6769  -26.9390   22.5414 C   0  0  0  0  0  0
  -19.5738  -26.6383   21.5212 C   0  0  0  0  0  0
  -18.1923  -26.7920   22.1624 C   0  0  0  0  0  0
  -19.1530  -28.8827   23.2904 C   0  0  0  0  0  0
  -18.9457  -30.1443   23.8908 C   0  0  0  0  0  0
  -17.6455  -30.6574   24.0573 C   0  0  0  0  0  0
  -25.9033  -34.9479   23.5143 C   0  0  0  0  0  0
  -16.5350  -29.9077   23.6328 C   0  0  0  0  0  0
  -16.7268  -28.6495   23.0346 C   0  0  0  0  0  0
  -26.4469  -31.6612   25.0748 C   0  0  0  0  0  0
  -25.3742  -31.3714   26.1502 C   0  0  0  0  0  0
  -27.0314  -30.3058   24.6135 C   0  0  0  0  0  0
  -27.6057  -32.4335   25.7485 C   0  0  0  0  0  0
  -27.5582  -37.1813   24.8463 C   0  0  0  0  0  0
  -21.4144  -29.3032   22.3730 N   0  0  0  0  0  0
  -26.4295  -37.3797   23.9407 N   0  0  0  0  0  0
  -24.6656  -31.0811   22.1018 N   0  0  0  0  0  0
  -23.4193  -28.8201   23.3019 O   0  0  0  0  0  0
  -28.4309  -26.7688   20.0780 O   0  0  0  0  0  0
  -26.5582  -34.8923   22.4699 O   0  0  0  0  0  0
  -23.5331  -32.1445   23.7520 O   0  0  0  0  0  0
  -30.2804  -16.5388   21.8064 C   0  0  0  0  0  0
  -28.8853  -17.1149   21.5177 C   0  0  0  0  0  0
  -28.4233  -25.3391   20.1229 C   0  0  0  0  0  0
  -28.0994  -24.8309   21.5388 C   0  0  0  0  0  0
  -27.6376  -19.1061   21.1721 C   0  0  0  0  0  0
  -26.5880  -19.1081   22.3040 C   0  0  0  0  0  0
  -26.3204  -24.7739   23.1021 C   0  0  0  0  0  0
  -24.9186  -24.1606   23.2620 C   0  0  0  0  0  0
  -25.4972  -20.5381   23.8530 C   0  0  0  0  0  0
  -25.3863  -22.0205   24.2268 C   0  0  0  0  0  0
  -30.2068  -15.0894   21.6822 N   0  0  0  0  0  0
  -28.8879  -18.5361   21.5630 O   0  0  0  0  0  0
  -26.6930  -24.7460   21.7301 O   0  0  0  0  0  0
  -26.5917  -20.3704   22.9577 O   0  0  0  0  0  0
  -24.9529  -22.7472   23.0794 O   0  0  0  0  0  0
  -31.4677  -12.4045   19.0812 H   0  0  0  0  0  0
  -30.3526  -11.2467   19.7345 H   0  0  0  0  0  0
  -29.7200  -11.8154   17.3886 H   0  0  0  0  0  0
  -29.6550  -13.5141   17.7797 H   0  0  0  0  0  0
  -27.8151  -11.3152   18.7912 H   0  0  0  0  0  0
  -27.3552  -12.6580   17.7846 H   0  0  0  0  0  0
  -27.7387  -14.2504   19.6224 H   0  0  0  0  0  0
  -28.6619  -11.8329   21.2560 H   0  0  0  0  0  0
  -28.4336  -13.4202   21.9069 H   0  0  0  0  0  0
  -25.2733   -9.5761   22.4744 H   0  0  0  0  0  0
  -24.0055   -7.4669   22.7416 H   0  0  0  0  0  0
  -21.0840   -8.8750   19.8901 H   0  0  0  0  0  0
  -22.3636  -10.9680   19.6141 H   0  0  0  0  0  0
  -21.2001   -7.6154   23.9754 H   0  0  0  0  0  0
  -21.1458   -6.0493   25.9078 H   0  0  0  0  0  0
  -22.0600   -2.7639   23.2812 H   0  0  0  0  0  0
  -22.4085  -11.9892   22.4825 H   0  0  0  0  0  0
  -21.1137  -13.1277   22.2552 H   0  0  0  0  0  0
  -24.6578  -15.8310   20.4706 H   0  0  0  0  0  0
  -26.2702  -15.6097   20.0114 H   0  0  0  0  0  0
  -26.7106  -32.5537   23.1187 H   0  0  0  0  0  0
  -25.0090  -33.9801   25.0514 H   0  0  0  0  0  0
  -22.6897  -31.3108   21.4130 H   0  0  0  0  0  0
  -23.3752  -35.9650   23.3319 H   0  0  0  0  0  0
  -24.3585  -36.8913   22.2053 H   0  0  0  0  0  0
  -23.7236  -37.6529   23.6638 H   0  0  0  0  0  0
  -26.0476  -31.6066   20.6013 H   0  0  0  0  0  0
  -26.8150  -30.8832   21.9879 H   0  0  0  0  0  0
  -28.0992  -29.1266   21.1414 H   0  0  0  0  0  0
  -26.0298  -25.9758   19.0235 H   0  0  0  0  0  0
  -23.9705  -27.2907   19.0524 H   0  0  0  0  0  0
  -23.7169  -30.6014   19.4055 H   0  0  0  0  0  0
  -22.7324  -29.2461   19.8707 H   0  0  0  0  0  0
  -25.1281  -36.2000   25.0840 H   0  0  0  0  0  0
  -20.9970  -28.3210   24.1433 H   0  0  0  0  0  0
  -20.5667  -26.2262   23.3597 H   0  0  0  0  0  0
  -21.6639  -26.7424   22.1203 H   0  0  0  0  0  0
  -19.6897  -25.6301   21.1221 H   0  0  0  0  0  0
  -19.6677  -27.3212   20.6755 H   0  0  0  0  0  0
  -17.4197  -26.6693   21.4022 H   0  0  0  0  0  0
  -18.0313  -26.0052   22.9005 H   0  0  0  0  0  0
  -19.7937  -30.7264   24.2268 H   0  0  0  0  0  0
  -17.5011  -31.6253   24.5178 H   0  0  0  0  0  0
  -15.5351  -30.2974   23.7647 H   0  0  0  0  0  0
  -15.8674  -28.0819   22.7032 H   0  0  0  0  0  0
  -24.5879  -30.7105   25.7831 H   0  0  0  0  0  0
  -24.8979  -32.2877   26.5003 H   0  0  0  0  0  0
  -25.8095  -30.8829   27.0231 H   0  0  0  0  0  0
  -26.2868  -29.6789   24.1211 H   0  0  0  0  0  0
  -27.4117  -29.7317   25.4599 H   0  0  0  0  0  0
  -27.8688  -30.4388   23.9278 H   0  0  0  0  0  0
  -27.2684  -33.3614   26.2108 H   0  0  0  0  0  0
  -28.3820  -32.6929   25.0275 H   0  0  0  0  0  0
  -28.0781  -31.8443   26.5351 H   0  0  0  0  0  0
  -28.2613  -38.0100   24.7506 H   0  0  0  0  0  0
  -28.1070  -36.2636   24.6296 H   0  0  0  0  0  0
  -27.2306  -37.1472   25.8869 H   0  0  0  0  0  0
  -20.9295  -29.8776   21.6983 H   0  0  0  0  0  0
  -26.0199  -38.2888   24.1389 H   0  0  0  0  0  0
  -30.5970  -16.7970   22.8178 H   0  0  0  0  0  0
  -31.0162  -16.9644   21.1210 H   0  0  0  0  0  0
  -28.1696  -16.7179   22.2386 H   0  0  0  0  0  0
  -28.5609  -16.7743   20.5330 H   0  0  0  0  0  0
  -27.7986  -24.8703   19.3648 H   0  0  0  0  0  0
  -29.4403  -25.0300   19.8793 H   0  0  0  0  0  0
  -28.5849  -25.4711   22.2791 H   0  0  0  0  0  0
  -28.5102  -23.8286   21.6743 H   0  0  0  0  0  0
  -27.8079  -20.1312   20.8410 H   0  0  0  0  0  0
  -27.2452  -18.5850   20.2959 H   0  0  0  0  0  0
  -26.7408  -18.2991   23.0220 H   0  0  0  0  0  0
  -25.6062  -18.9474   21.8570 H   0  0  0  0  0  0
  -27.0491  -24.2537   23.7249 H   0  0  0  0  0  0
  -26.3099  -25.8138   23.4285 H   0  0  0  0  0  0
  -24.2466  -24.5980   22.5239 H   0  0  0  0  0  0
  -24.4947  -24.4050   24.2366 H   0  0  0  0  0  0
  -24.5562  -20.2186   23.4033 H   0  0  0  0  0  0
  -25.6589  -19.9313   24.7458 H   0  0  0  0  0  0
  -26.3451  -22.3744   24.6047 H   0  0  0  0  0  0
  -24.6570  -22.1469   25.0300 H   0  0  0  0  0  0
  -29.4792  -14.6360   22.2158 H   0  0  0  0  0  0
  1 25  1  0  0  0
  1 30  2  0  0  0
  1 81  1  0  0  0
  2  3  1  0  0  0
  2 25  1  0  0  0
  2 86  1  0  0  0
  2 87  1  0  0  0
  3  4  1  0  0  0
  3 88  1  0  0  0
  3 89  1  0  0  0
  4  5  1  0  0  0
  4 90  1  0  0  0
  4 91  1  0  0  0
  5  6  1  0  0  0
  5 26  1  0  0  0
  5 92  1  0  0  0
  6 25  1  0  0  0
  6 93  1  0  0  0
  6 94  1  0  0  0
  7  8  2  0  0  0
  7 26  1  0  0  0
  7 29  1  0  0  0
  8  9  1  0  0  0
  8 22  1  0  0  0
  9 10  1  0  0  0
  9 27  2  0  0  0
 10 11  2  0  0  0
 10 15  1  0  0  0
 11 12  1  0  0  0
 11 95  1  0  0  0
 12 13  2  0  0  0
 12 96  1  0  0  0
 13 14  1  0  0  0
 13 31  1  0  0  0
 14 15  2  0  0  0
 14 97  1  0  0  0
 15 98  1  0  0  0
 16 17  2  0  0  0
 16 21  1  0  0  0
 16 31  1  0  0  0
 17 18  1  0  0  0
 17 99  1  0  0  0
 18 19  2  0  0  0
 18100  1  0  0  0
 19 20  1  0  0  0
 19 24  1  0  0  0
 20 21  2  0  0  0
 20101  1  0  0  0
 21 23  1  0  0  0
 22 28  1  0  0  0
 22 32  2  0  0  0
 26 27  1  0  0  0
 28102  1  0  0  0
 28103  1  0  0  0
 29104  1  0  0  0
 29105  1  0  0  0
 33 34  1  0  0  0
 33 66  1  0  0  0
 33 70  2  0  0  0
 34 36  1  0  0  0
 34 59  1  0  0  0
 34106  1  0  0  0
 35 44  2  0  0  0
 35 45  1  0  0  0
 35 68  1  0  0  0
 36 56  1  0  0  0
 36107  1  0  0  0
 37 39  1  0  0  0
 37 47  1  0  0  0
 37 66  1  0  0  0
 37108  1  0  0  0
 38 43  2  0  0  0
 38 46  1  0  0  0
 38 47  1  0  0  0
 39 64  1  0  0  0
 39 67  2  0  0  0
 40 52  1  0  0  0
 40 53  2  0  0  0
 40 58  1  0  0  0
 41109  1  0  0  0
 41110  1  0  0  0
 41111  1  0  0  0
 41 48  1  0  0  0
 42 43  1  0  0  0
 42 66  1  0  0  0
 42112  1  0  0  0
 42113  1  0  0  0
 43 44  1  0  0  0
 44114  1  0  0  0
 45 46  2  0  0  0
 45115  1  0  0  0
 46116  1  0  0  0
 47117  1  0  0  0
 47118  1  0  0  0
 48 56  1  0  0  0
 48 65  1  0  0  0
 48119  1  0  0  0
 49 50  1  0  0  0
 49 53  1  0  0  0
 49 64  1  0  0  0
 49120  1  0  0  0
 50 51  1  0  0  0
 50121  1  0  0  0
 50122  1  0  0  0
 51 52  1  0  0  0
 51123  1  0  0  0
 51124  1  0  0  0
 52125  1  0  0  0
 52126  1  0  0  0
 53 54  1  0  0  0
 54 55  2  0  0  0
 54127  1  0  0  0
 55 57  1  0  0  0
 55128  1  0  0  0
 56 69  2  0  0  0
 57 58  2  0  0  0
 57129  1  0  0  0
 58130  1  0  0  0
 59 60  1  0  0  0
 59 61  1  0  0  0
 59 62  1  0  0  0
 60131  1  0  0  0
 60132  1  0  0  0
 60133  1  0  0  0
 61134  1  0  0  0
 61135  1  0  0  0
 61136  1  0  0  0
 62137  1  0  0  0
 62138  1  0  0  0
 62139  1  0  0  0
 63 65  1  0  0  0
 63140  1  0  0  0
 63141  1  0  0  0
 63142  1  0  0  0
 64143  1  0  0  0
 65144  1  0  0  0
 68 73  1  0  0  0
 71 72  1  0  0  0
 71 81  1  0  0  0
 71145  1  0  0  0
 71146  1  0  0  0
 72 82  1  0  0  0
 72147  1  0  0  0
 72148  1  0  0  0
 73 74  1  0  0  0
 73149  1  0  0  0
 73150  1  0  0  0
 74 83  1  0  0  0
 74151  1  0  0  0
 74152  1  0  0  0
 75 76  1  0  0  0
 75 82  1  0  0  0
 75153  1  0  0  0
 75154  1  0  0  0
 76 84  1  0  0  0
 76155  1  0  0  0
 76156  1  0  0  0
 77 78  1  0  0  0
 77 83  1  0  0  0
 77157  1  0  0  0
 77158  1  0  0  0
 78 85  1  0  0  0
 78159  1  0  0  0
 78160  1  0  0  0
 79 80  1  0  0  0
 79 84  1  0  0  0
 79161  1  0  0  0
 79162  1  0  0  0
 80 85  1  0  0  0
 80163  1  0  0  0
 80164  1  0  0  0
 81165  1  0  0  0
M  ISO  4   1 100  68 101  73 101  81 100
M  END
> <chiral flag>
0

> <version>
0

> <s_m_source_file>
/data/baiqing/PycharmProjects/Reinvent-master-3.2/result/LINK_invent/BTK/process_docking_weight1_custom_sum_contain_oxygen_bond_distance_aromatic_linkinvent_7_9_3/rearranged_h_0000.sdf

> <i_m_source_file_index>
23

> <r_mmod_Potential_Energy-OPLS-2005>
-122.28645324707

> <r_mmod_Stretch_Energy-OPLS-2005>
32.0088500976562

> <r_mmod_Bend_Energy-OPLS-2005>
97.7230072021484

> <r_mmod_Torsional_Energy-OPLS-2005>
201.062683105469

> <r_mmod_Improper_Torsional_Energy-OPLS-2005>
3.23831534385681

> <r_mmod_Van_der_Waal_Energy-OPLS-2005>
131.441696166992

> <r_mmod_Electrostatic_Energy-OPLS-2005>
-358.040924072266

> <r_mmod_Solvation_Energy-OPLS-2005>
-238.455581665039

> <b_mmod_Minimization_Converged-OPLS-2005>
0

> <r_mmod_RMS_Derivative-OPLS-2005>
2.76533460617065

$$$$
23
                    3D
 Structure written by MMmdl.
179186  0  0  1  0            999 V2000
  -30.7356  -14.4155   20.5516 C   0  0  0  0  0  0
  -30.4139  -12.2744   19.3830 C   0  0  0  0  0  0
  -29.4743  -12.4998   18.1809 C   0  0  0  0  0  0
  -27.9996  -12.3672   18.6042 C   0  0  0  0  0  0
  -27.6615  -13.2015   19.8666 C   0  0  2  0  0  0
  -28.7123  -12.9754   20.9775 C   0  0  0  0  0  0
  -25.2634  -13.8164   20.5684 C   0  0  0  0  0  0
  -24.1859  -13.0480   20.9166 C   0  0  0  0  0  0
  -24.6366  -11.6918   20.8707 C   0  0  0  0  0  0
  -23.9015  -10.4325   21.0370 C   0  0  0  0  0  0
  -24.3595   -9.4253   21.9148 C   0  0  0  0  0  0
  -23.6307   -8.2271   22.0714 C   0  0  0  0  0  0
  -22.4295   -8.0288   21.3502 C   0  0  0  0  0  0
  -21.9904   -9.0245   20.4601 C   0  0  0  0  0  0
  -22.7186  -10.2146   20.3026 C   0  0  0  0  0  0
  -21.6888   -6.0732   22.5253 C   0  0  0  0  0  0
  -21.4018   -6.5616   23.8179 C   0  0  0  0  0  0
  -21.3672   -5.6771   24.9142 C   0  0  0  0  0  0
  -21.6060   -4.3029   24.7188 C   0  0  0  0  0  0
  -21.8837   -3.8132   23.4298 C   0  0  0  0  0  0
  -21.9208   -4.6961   22.3359 C   0  0  0  0  0  0
  -22.7870  -13.5270   21.1833 C   0  0  0  0  0  0
  -22.1684   -4.2153   21.0938 F   0  0  0  0  0  0
  -21.5646   -3.4486   25.7675 F   0  0  0  0  0  0
  -30.0453  -13.2554   20.4127 N   0  0  0  0  0  0
  -26.3046  -12.9311   20.3378 N   0  0  0  0  0  0
  -25.9305  -11.6471   20.5771 N   0  0  0  0  0  0
  -22.0542  -12.8244   22.0386 N   0  0  0  0  0  0
  -25.4493  -15.1869   20.4075 N   0  0  0  0  0  0
  -31.8701  -14.5998   20.1097 O   0  0  0  0  0  0
  -21.6680   -6.8870   21.4212 O   0  0  0  0  0  0
  -22.3517  -14.5550   20.6659 O   0  0  0  0  0  0
  -24.6112  -31.8671   23.2105 C   0  0  0  0  0  0
  -25.9008  -32.4827   23.8377 C   0  0  1  0  0  0
  -27.2363  -27.4737   20.0817 C   0  0  0  0  0  0
  -25.5849  -33.8624   24.2284 N   0  0  0  0  0  0
  -23.3999  -30.4917   21.5495 C   0  0  2  0  0  0
  -24.8481  -28.9656   20.1018 C   0  0  0  0  0  0
  -22.7404  -29.4656   22.4991 C   0  0  0  0  0  0
  -18.0291  -28.1390   22.8505 C   0  0  0  0  0  0
  -24.1483  -36.7346   23.2642 C   0  0  0  0  0  0
  -25.9241  -30.8443   21.3588 C   0  0  0  0  0  0
  -26.0038  -29.4834   20.7027 C   0  0  0  0  0  0
  -27.2037  -28.7399   20.6999 C   0  0  0  0  0  0
  -26.0753  -26.9676   19.4625 C   0  0  0  0  0  0
  -24.8747  -27.7028   19.4835 C   0  0  0  0  0  0
  -23.6021  -29.8221   20.1639 C   0  0  0  0  0  0
  -25.4104  -36.3136   24.0337 C   0  0  1  0  0  0
  -20.5884  -28.3659   23.1340 C   0  0  2  0  0  0
  -20.6808  -26.9400   22.5425 C   0  0  0  0  0  0
  -19.5777  -26.6388   21.5235 C   0  0  0  0  0  0
  -18.1940  -26.7938   22.1631 C   0  0  0  0  0  0
  -19.1532  -28.8835   23.2916 C   0  0  0  0  0  0
  -18.9461  -30.1458   23.8916 C   0  0  0  0  0  0
  -17.6462  -30.6595   24.0566 C   0  0  0  0  0  0
  -25.9023  -34.9492   23.5121 C   0  0  0  0  0  0
  -16.5365  -29.9094   23.6343 C   0  0  0  0  0  0
  -16.7273  -28.6512   23.0355 C   0  0  0  0  0  0
  -26.4419  -31.6606   25.0723 C   0  0  0  0  0  0
  -25.3691  -31.3743   26.1491 C   0  0  0  0  0  0
  -27.0189  -30.3024   24.6092 C   0  0  0  0  0  0
  -27.5977  -32.4342   25.7495 C   0  0  0  0  0  0
  -27.5575  -37.1831   24.8464 C   0  0  0  0  0  0
  -21.4139  -29.3020   22.3744 N   0  0  0  0  0  0
  -26.4292  -37.3814   23.9395 N   0  0  0  0  0  0
  -24.6633  -31.0814   22.0990 N   0  0  0  0  0  0
  -23.4182  -28.8181   23.3014 O   0  0  0  0  0  0
  -28.3379  -26.6607   20.1587 O   0  0  0  0  0  0
  -26.5616  -34.8943   22.4710 O   0  0  0  0  0  0
  -23.5319  -32.1371   23.7537 O   0  0  0  0  0  0
  -30.5047  -16.7932   21.2533 C   0  0  0  0  0  0
  -29.3119  -17.7729   21.2984 C   0  0  0  0  0  0
  -28.5317  -26.0581   21.4546 C   0  0  0  0  0  0
  -27.2360  -25.4936   22.1034 C   0  0  0  0  0  0
  -30.0534  -19.5552   19.8960 C   0  0  0  0  0  0
  -29.4227  -20.7439   19.1497 C   0  0  0  0  0  0
  -26.1315  -24.7571   24.0510 C   0  0  0  0  0  0
  -26.0616  -25.1158   25.5475 C   0  0  0  0  0  0
  -27.3037  -21.5177   20.0240 C   0  0  0  0  0  0
  -26.8075  -20.7561   21.2618 C   0  0  0  0  0  0
  -27.7477  -23.7253   26.5232 C   0  0  0  0  0  0
  -27.8956  -22.1971   26.5894 C   0  0  0  0  0  0
  -28.2933  -20.9394   23.1057 C   0  0  0  0  0  0
  -28.6559  -21.7296   24.3670 C   0  0  0  0  0  0
  -30.0340  -15.4211   21.0768 N   0  0  0  0  0  0
  -29.1054  -18.5086   20.0968 O   0  0  0  0  0  0
  -27.3834  -25.1455   23.4772 O   0  0  0  0  0  0
  -28.7240  -21.6397   20.0135 O   0  0  0  0  0  0
  -26.3638  -23.9979   26.3686 O   0  0  0  0  0  0
  -27.1275  -21.4534   22.4665 O   0  0  0  0  0  0
  -27.6222  -21.5780   25.3346 O   0  0  0  0  0  0
  -30.3034  -11.2618   19.7689 H   0  0  0  0  0  0
  -31.4536  -12.3661   19.0664 H   0  0  0  0  0  0
  -29.6966  -11.7873   17.3849 H   0  0  0  0  0  0
  -29.6421  -13.4940   17.7632 H   0  0  0  0  0  0
  -27.7950  -11.3116   18.7858 H   0  0  0  0  0  0
  -27.3432  -12.6627   17.7830 H   0  0  0  0  0  0
  -27.7041  -14.2482   19.5626 H   0  0  0  0  0  0
  -28.4900  -13.5802   21.8571 H   0  0  0  0  0  0
  -28.6807  -11.9466   21.3287 H   0  0  0  0  0  0
  -25.2756   -9.5719   22.4697 H   0  0  0  0  0  0
  -24.0039   -7.4638   22.7402 H   0  0  0  0  0  0
  -21.0864   -8.8715   19.8879 H   0  0  0  0  0  0
  -22.3636  -10.9669   19.6123 H   0  0  0  0  0  0
  -21.2002   -7.6121   23.9642 H   0  0  0  0  0  0
  -21.1501   -6.0511   25.9033 H   0  0  0  0  0  0
  -22.0619   -2.7601   23.2773 H   0  0  0  0  0  0
  -22.4250  -11.9927   22.4769 H   0  0  0  0  0  0
  -21.1109  -13.1138   22.2549 H   0  0  0  0  0  0
  -24.7003  -15.8626   20.5077 H   0  0  0  0  0  0
  -26.3079  -15.6014   20.0664 H   0  0  0  0  0  0
  -26.7089  -32.5512   23.1156 H   0  0  0  0  0  0
  -24.9965  -33.9771   25.0396 H   0  0  0  0  0  0
  -22.6871  -31.3070   21.4124 H   0  0  0  0  0  0
  -23.3729  -35.9685   23.3347 H   0  0  0  0  0  0
  -24.3583  -36.8926   22.2049 H   0  0  0  0  0  0
  -23.7240  -37.6572   23.6629 H   0  0  0  0  0  0
  -26.0352  -31.6117   20.5919 H   0  0  0  0  0  0
  -26.8148  -30.8970   21.9723 H   0  0  0  0  0  0
  -28.0873  -29.1232   21.1892 H   0  0  0  0  0  0
  -26.0891  -25.9876   19.0086 H   0  0  0  0  0  0
  -23.9849  -27.2943   19.0281 H   0  0  0  0  0  0
  -23.6853  -30.5946   19.3963 H   0  0  0  0  0  0
  -22.7316  -29.2277   19.8837 H   0  0  0  0  0  0
  -25.1281  -36.2020   25.0827 H   0  0  0  0  0  0
  -20.9961  -28.3232   24.1474 H   0  0  0  0  0  0
  -20.5757  -26.2256   23.3601 H   0  0  0  0  0  0
  -21.6670  -26.7480   22.1184 H   0  0  0  0  0  0
  -19.6940  -25.6303   21.1244 H   0  0  0  0  0  0
  -19.6732  -27.3240   20.6808 H   0  0  0  0  0  0
  -17.4227  -26.6700   21.4028 H   0  0  0  0  0  0
  -18.0325  -26.0067   22.9021 H   0  0  0  0  0  0
  -19.7933  -30.7273   24.2267 H   0  0  0  0  0  0
  -17.5028  -31.6272   24.5170 H   0  0  0  0  0  0
  -15.5366  -30.3002   23.7672 H   0  0  0  0  0  0
  -15.8670  -28.0841   22.7060 H   0  0  0  0  0  0
  -24.5840  -30.7107   25.7885 H   0  0  0  0  0  0
  -24.8899  -32.2914   26.4939 H   0  0  0  0  0  0
  -25.8056  -30.8923   27.0245 H   0  0  0  0  0  0
  -26.2710  -29.6886   24.1062 H   0  0  0  0  0  0
  -27.3862  -29.7197   25.4548 H   0  0  0  0  0  0
  -27.8600  -30.4339   23.9273 H   0  0  0  0  0  0
  -27.2547  -33.3624   26.2082 H   0  0  0  0  0  0
  -28.3775  -32.6957   25.0330 H   0  0  0  0  0  0
  -28.0631  -31.8459   26.5406 H   0  0  0  0  0  0
  -28.2639  -38.0101   24.7499 H   0  0  0  0  0  0
  -28.1029  -36.2630   24.6298 H   0  0  0  0  0  0
  -27.2291  -37.1526   25.8876 H   0  0  0  0  0  0
  -20.9310  -29.8648   21.6884 H   0  0  0  0  0  0
  -26.0200  -38.2901   24.1375 H   0  0  0  0  0  0
  -31.2331  -17.0739   20.4912 H   0  0  0  0  0  0
  -31.0392  -16.8247   22.2036 H   0  0  0  0  0  0
  -29.4335  -18.4622   22.1321 H   0  0  0  0  0  0
  -28.3903  -17.2320   21.5125 H   0  0  0  0  0  0
  -29.2577  -25.2512   21.3440 H   0  0  0  0  0  0
  -28.9888  -26.7945   22.1154 H   0  0  0  0  0  0
  -26.8489  -24.6506   21.5303 H   0  0  0  0  0  0
  -26.4683  -26.2664   22.0908 H   0  0  0  0  0  0
  -30.5006  -19.9050   20.8264 H   0  0  0  0  0  0
  -30.8694  -19.1502   19.2959 H   0  0  0  0  0  0
  -28.8433  -20.4247   18.2816 H   0  0  0  0  0  0
  -30.2435  -21.3398   18.7508 H   0  0  0  0  0  0
  -25.3001  -25.2723   23.5661 H   0  0  0  0  0  0
  -25.9528  -23.6914   23.8908 H   0  0  0  0  0  0
  -25.0305  -25.3868   25.7819 H   0  0  0  0  0  0
  -26.6718  -25.9876   25.7902 H   0  0  0  0  0  0
  -26.8715  -22.5203   20.0204 H   0  0  0  0  0  0
  -26.9357  -21.0382   19.1159 H   0  0  0  0  0  0
  -27.1755  -19.7320   21.2589 H   0  0  0  0  0  0
  -25.7213  -20.6749   21.2068 H   0  0  0  0  0  0
  -28.3632  -24.1614   25.7371 H   0  0  0  0  0  0
  -28.0834  -24.1737   27.4589 H   0  0  0  0  0  0
  -27.1821  -21.8128   27.3176 H   0  0  0  0  0  0
  -28.8839  -21.9051   26.9454 H   0  0  0  0  0  0
  -28.1479  -19.8902   23.3677 H   0  0  0  0  0  0
  -29.1332  -20.9994   22.4157 H   0  0  0  0  0  0
  -28.8360  -22.7734   24.1150 H   0  0  0  0  0  0
  -29.5865  -21.3312   24.7746 H   0  0  0  0  0  0
  -29.0787  -15.2183   21.3219 H   0  0  0  0  0  0
  1 25  1  0  0  0
  1 30  2  0  0  0
  1 85  1  0  0  0
  2  3  1  0  0  0
  2 25  1  0  0  0
  2 92  1  0  0  0
  2 93  1  0  0  0
  3  4  1  0  0  0
  3 94  1  0  0  0
  3 95  1  0  0  0
  4  5  1  0  0  0
  4 96  1  0  0  0
  4 97  1  0  0  0
  5  6  1  0  0  0
  5 26  1  0  0  0
  5 98  1  0  0  0
  6 25  1  0  0  0
  6 99  1  0  0  0
  6100  1  0  0  0
  7  8  2  0  0  0
  7 26  1  0  0  0
  7 29  1  0  0  0
  8  9  1  0  0  0
  8 22  1  0  0  0
  9 10  1  0  0  0
  9 27  2  0  0  0
 10 11  2  0  0  0
 10 15  1  0  0  0
 11 12  1  0  0  0
 11101  1  0  0  0
 12 13  2  0  0  0
 12102  1  0  0  0
 13 14  1  0  0  0
 13 31  1  0  0  0
 14 15  2  0  0  0
 14103  1  0  0  0
 15104  1  0  0  0
 16 17  2  0  0  0
 16 21  1  0  0  0
 16 31  1  0  0  0
 17 18  1  0  0  0
 17105  1  0  0  0
 18 19  2  0  0  0
 18106  1  0  0  0
 19 20  1  0  0  0
 19 24  1  0  0  0
 20 21  2  0  0  0
 20107  1  0  0  0
 21 23  1  0  0  0
 22 28  1  0  0  0
 22 32  2  0  0  0
 26 27  1  0  0  0
 28108  1  0  0  0
 28109  1  0  0  0
 29110  1  0  0  0
 29111  1  0  0  0
 33 34  1  0  0  0
 33 66  1  0  0  0
 33 70  2  0  0  0
 34 36  1  0  0  0
 34 59  1  0  0  0
 34112  1  0  0  0
 35 44  2  0  0  0
 35 45  1  0  0  0
 35 68  1  0  0  0
 36 56  1  0  0  0
 36113  1  0  0  0
 37 39  1  0  0  0
 37 47  1  0  0  0
 37 66  1  0  0  0
 37114  1  0  0  0
 38 43  2  0  0  0
 38 46  1  0  0  0
 38 47  1  0  0  0
 39 64  1  0  0  0
 39 67  2  0  0  0
 40 52  1  0  0  0
 40 53  2  0  0  0
 40 58  1  0  0  0
 41115  1  0  0  0
 41116  1  0  0  0
 41117  1  0  0  0
 41 48  1  0  0  0
 42 43  1  0  0  0
 42 66  1  0  0  0
 42118  1  0  0  0
 42119  1  0  0  0
 43 44  1  0  0  0
 44120  1  0  0  0
 45 46  2  0  0  0
 45121  1  0  0  0
 46122  1  0  0  0
 47123  1  0  0  0
 47124  1  0  0  0
 48 56  1  0  0  0
 48 65  1  0  0  0
 48125  1  0  0  0
 49 50  1  0  0  0
 49 53  1  0  0  0
 49 64  1  0  0  0
 49126  1  0  0  0
 50 51  1  0  0  0
 50127  1  0  0  0
 50128  1  0  0  0
 51 52  1  0  0  0
 51129  1  0  0  0
 51130  1  0  0  0
 52131  1  0  0  0
 52132  1  0  0  0
 53 54  1  0  0  0
 54 55  2  0  0  0
 54133  1  0  0  0
 55 57  1  0  0  0
 55134  1  0  0  0
 56 69  2  0  0  0
 57 58  2  0  0  0
 57135  1  0  0  0
 58136  1  0  0  0
 59 60  1  0  0  0
 59 61  1  0  0  0
 59 62  1  0  0  0
 60137  1  0  0  0
 60138  1  0  0  0
 60139  1  0  0  0
 61140  1  0  0  0
 61141  1  0  0  0
 61142  1  0  0  0
 62143  1  0  0  0
 62144  1  0  0  0
 62145  1  0  0  0
 63 65  1  0  0  0
 63146  1  0  0  0
 63147  1  0  0  0
 63148  1  0  0  0
 64149  1  0  0  0
 65150  1  0  0  0
 68 73  1  0  0  0
 71 72  1  0  0  0
 71 85  1  0  0  0
 71151  1  0  0  0
 71152  1  0  0  0
 72 86  1  0  0  0
 72153  1  0  0  0
 72154  1  0  0  0
 73 74  1  0  0  0
 73155  1  0  0  0
 73156  1  0  0  0
 74 87  1  0  0  0
 74157  1  0  0  0
 74158  1  0  0  0
 75 76  1  0  0  0
 75 86  1  0  0  0
 75159  1  0  0  0
 75160  1  0  0  0
 76 88  1  0  0  0
 76161  1  0  0  0
 76162  1  0  0  0
 77 78  1  0  0  0
 77 87  1  0  0  0
 77163  1  0  0  0
 77164  1  0  0  0
 78 89  1  0  0  0
 78165  1  0  0  0
 78166  1  0  0  0
 79 80  1  0  0  0
 79 88  1  0  0  0
 79167  1  0  0  0
 79168  1  0  0  0
 80 90  1  0  0  0
 80169  1  0  0  0
 80170  1  0  0  0
 81 82  1  0  0  0
 81 89  1  0  0  0
 81171  1  0  0  0
 81172  1  0  0  0
 82 91  1  0  0  0
 82173  1  0  0  0
 82174  1  0  0  0
 83 84  1  0  0  0
 83 90  1  0  0  0
 83175  1  0  0  0
 83176  1  0  0  0
 84 91  1  0  0  0
 84177  1  0  0  0
 84178  1  0  0  0
 85179  1  0  0  0
M  ISO  4   1 100  68 101  73 101  85 100
M  END
> <chiral flag>
0

> <version>
0

> <s_m_source_file>
/data/baiqing/PycharmProjects/Reinvent-master-3.2/result/LINK_invent/BTK/process_docking_weight1_custom_sum_contain_oxygen_bond_distance_aromatic_linkinvent_7_9_3/rearranged_h_0000.sdf

> <i_m_source_file_index>
24

> <r_mmod_Potential_Energy-OPLS-2005>
-53.3113822937012

> <r_mmod_Stretch_Energy-OPLS-2005>
34.8806037902832

> <r_mmod_Bend_Energy-OPLS-2005>
109.206237792969

> <r_mmod_Torsional_Energy-OPLS-2005>
257.153198242188

> <r_mmod_Improper_Torsional_Energy-OPLS-2005>
3.65604162216187

> <r_mmod_Van_der_Waal_Energy-OPLS-2005>
129.354431152344

> <r_mmod_Electrostatic_Energy-OPLS-2005>
-357.823425292969

> <r_mmod_Solvation_Energy-OPLS-2005>
-243.431274414062

> <b_mmod_Minimization_Converged-OPLS-2005>
0

> <r_mmod_RMS_Derivative-OPLS-2005>
4.96294975280762

$$$$
24
                    3D
 Structure written by MMmdl.
161168  0  0  1  0            999 V2000
  -30.6968  -14.3851   20.6346 C   0  0  0  0  0  0
  -30.4356  -12.2723   19.3915 C   0  0  0  0  0  0
  -29.4955  -12.5215   18.1946 C   0  0  0  0  0  0
  -28.0162  -12.3842   18.6121 C   0  0  0  0  0  0
  -27.6773  -13.1893   19.8938 C   0  0  2  0  0  0
  -28.7144  -12.8762   20.9960 C   0  0  0  0  0  0
  -25.2662  -13.8124   20.5669 C   0  0  0  0  0  0
  -24.1876  -13.0425   20.9154 C   0  0  0  0  0  0
  -24.6400  -11.6883   20.8708 C   0  0  0  0  0  0
  -23.9051  -10.4279   21.0392 C   0  0  0  0  0  0
  -24.3613   -9.4205   21.9175 C   0  0  0  0  0  0
  -23.6300   -8.2237   22.0752 C   0  0  0  0  0  0
  -22.4274   -8.0272   21.3550 C   0  0  0  0  0  0
  -21.9903   -9.0237   20.4642 C   0  0  0  0  0  0
  -22.7223  -10.2119   20.3047 C   0  0  0  0  0  0
  -21.6849   -6.0727   22.5285 C   0  0  0  0  0  0
  -21.4007   -6.5630   23.8218 C   0  0  0  0  0  0
  -21.3669   -5.6785   24.9184 C   0  0  0  0  0  0
  -21.6047   -4.3046   24.7232 C   0  0  0  0  0  0
  -21.8823   -3.8139   23.4352 C   0  0  0  0  0  0
  -21.9198   -4.6957   22.3406 C   0  0  0  0  0  0
  -22.7906  -13.5243   21.1839 C   0  0  0  0  0  0
  -22.1665   -4.2141   21.0987 F   0  0  0  0  0  0
  -21.5647   -3.4526   25.7747 F   0  0  0  0  0  0
  -30.0593  -13.1976   20.4700 N   0  0  0  0  0  0
  -26.3105  -12.9257   20.3424 N   0  0  0  0  0  0
  -25.9323  -11.6425   20.5753 N   0  0  0  0  0  0
  -22.0546  -12.8219   22.0393 N   0  0  0  0  0  0
  -25.4415  -15.1839   20.4072 N   0  0  0  0  0  0
  -31.7259  -14.7019   20.0289 O   0  0  0  0  0  0
  -21.6644   -6.8863   21.4241 O   0  0  0  0  0  0
  -22.3579  -14.5553   20.6710 O   0  0  0  0  0  0
  -24.6095  -31.8716   23.2101 C   0  0  0  0  0  0
  -25.9004  -32.4836   23.8386 C   0  0  1  0  0  0
  -27.2346  -27.4666   20.0797 C   0  0  0  0  0  0
  -25.5886  -33.8640   24.2316 N   0  0  0  0  0  0
  -23.3964  -30.4937   21.5518 C   0  0  2  0  0  0
  -24.8410  -28.9672   20.1105 C   0  0  0  0  0  0
  -22.7388  -29.4654   22.4999 C   0  0  0  0  0  0
  -18.0275  -28.1353   22.8483 C   0  0  0  0  0  0
  -24.1498  -36.7322   23.2634 C   0  0  0  0  0  0
  -25.9228  -30.8450   21.3600 C   0  0  0  0  0  0
  -25.9996  -29.4833   20.7045 C   0  0  0  0  0  0
  -27.1993  -28.7406   20.6833 C   0  0  0  0  0  0
  -26.0560  -26.9611   19.4806 C   0  0  0  0  0  0
  -24.8638  -27.7049   19.4950 C   0  0  0  0  0  0
  -23.6017  -29.8294   20.1650 C   0  0  0  0  0  0
  -25.4128  -36.3125   24.0321 C   0  0  1  0  0  0
  -20.5859  -28.3643   23.1321 C   0  0  2  0  0  0
  -20.6778  -26.9379   22.5425 C   0  0  0  0  0  0
  -19.5763  -26.6370   21.5211 C   0  0  0  0  0  0
  -18.1933  -26.7897   22.1611 C   0  0  0  0  0  0
  -19.1525  -28.8817   23.2900 C   0  0  0  0  0  0
  -18.9450  -30.1427   23.8897 C   0  0  0  0  0  0
  -17.6451  -30.6558   24.0568 C   0  0  0  0  0  0
  -25.9048  -34.9484   23.5122 C   0  0  0  0  0  0
  -16.5341  -29.9065   23.6309 C   0  0  0  0  0  0
  -16.7266  -28.6485   23.0328 C   0  0  0  0  0  0
  -26.4439  -31.6594   25.0690 C   0  0  0  0  0  0
  -25.3710  -31.3682   26.1439 C   0  0  0  0  0  0
  -27.0250  -30.3040   24.6020 C   0  0  0  0  0  0
  -27.6030  -32.4302   25.7444 C   0  0  0  0  0  0
  -27.5590  -37.1815   24.8455 C   0  0  0  0  0  0
  -21.4123  -29.3012   22.3734 N   0  0  0  0  0  0
  -26.4318  -37.3798   23.9378 N   0  0  0  0  0  0
  -24.6608  -31.0844   22.0992 N   0  0  0  0  0  0
  -23.4178  -28.8207   23.3034 O   0  0  0  0  0  0
  -28.4178  -26.7627   20.0900 O   0  0  0  0  0  0
  -26.5612  -34.8924   22.4680 O   0  0  0  0  0  0
  -23.5291  -32.1466   23.7512 O   0  0  0  0  0  0
  -30.9726  -17.5734   20.9802 C   0  0  0  0  0  0
  -29.7736  -16.6448   21.2536 C   0  0  0  0  0  0
  -30.5143  -19.0411   21.0247 C   0  0  0  0  0  0
  -28.3253  -25.3390   20.1700 C   0  0  0  0  0  0
  -28.4967  -24.6699   18.7962 C   0  0  0  0  0  0
  -31.0391  -21.2739   20.5027 C   0  0  0  0  0  0
  -31.9250  -22.1661   19.6263 C   0  0  0  0  0  0
  -30.1064  -23.5939   17.4265 C   0  0  0  0  0  0
  -31.5444  -23.0435   17.4208 C   0  0  0  0  0  0
  -30.0534  -15.2229   21.4555 N   0  0  0  0  0  0
  -31.4659  -19.9148   20.4315 O   0  0  0  0  0  0
  -29.8639  -24.3225   18.6217 O   0  0  0  0  0  0
  -31.6448  -21.8931   18.2556 O   0  0  0  0  0  0
  -31.4774  -12.3904   19.0882 H   0  0  0  0  0  0
  -30.3472  -11.2401   19.7361 H   0  0  0  0  0  0
  -29.7233  -11.8254   17.3857 H   0  0  0  0  0  0
  -29.6736  -13.5191   17.7913 H   0  0  0  0  0  0
  -27.8163  -11.3254   18.7802 H   0  0  0  0  0  0
  -27.3660  -12.6935   17.7921 H   0  0  0  0  0  0
  -27.7521  -14.2494   19.6490 H   0  0  0  0  0  0
  -28.6762  -11.8150   21.2484 H   0  0  0  0  0  0
  -28.4659  -13.3872   21.9261 H   0  0  0  0  0  0
  -25.2765   -9.5683   22.4738 H   0  0  0  0  0  0
  -24.0021   -7.4620   22.7455 H   0  0  0  0  0  0
  -21.0847   -8.8741   19.8931 H   0  0  0  0  0  0
  -22.3691  -10.9655   19.6144 H   0  0  0  0  0  0
  -21.1976   -7.6133   23.9718 H   0  0  0  0  0  0
  -21.1500   -6.0514   25.9090 H   0  0  0  0  0  0
  -22.0595   -2.7601   23.2858 H   0  0  0  0  0  0
  -22.4160  -11.9878   22.4771 H   0  0  0  0  0  0
  -21.1160  -13.1229   22.2587 H   0  0  0  0  0  0
  -24.6809  -15.8450   20.5153 H   0  0  0  0  0  0
  -26.3045  -15.6192   20.1062 H   0  0  0  0  0  0
  -26.7074  -32.5546   23.1152 H   0  0  0  0  0  0
  -25.0046  -33.9830   25.0465 H   0  0  0  0  0  0
  -22.6816  -31.3085   21.4157 H   0  0  0  0  0  0
  -23.3756  -35.9656   23.3320 H   0  0  0  0  0  0
  -24.3588  -36.8932   22.2046 H   0  0  0  0  0  0
  -23.7271  -37.6542   23.6638 H   0  0  0  0  0  0
  -26.0339  -31.6158   20.5958 H   0  0  0  0  0  0
  -26.8090  -30.8965   21.9805 H   0  0  0  0  0  0
  -28.0965  -29.1360   21.1390 H   0  0  0  0  0  0
  -26.0438  -25.9999   18.9899 H   0  0  0  0  0  0
  -23.9743  -27.3039   19.0271 H   0  0  0  0  0  0
  -23.7049  -30.6056   19.4051 H   0  0  0  0  0  0
  -22.7265  -29.2478   19.8717 H   0  0  0  0  0  0
  -25.1316  -36.2004   25.0818 H   0  0  0  0  0  0
  -20.9956  -28.3216   24.1441 H   0  0  0  0  0  0
  -20.5718  -26.2231   23.3608 H   0  0  0  0  0  0
  -21.6642  -26.7459   22.1192 H   0  0  0  0  0  0
  -19.6939  -25.6295   21.1218 H   0  0  0  0  0  0
  -19.6698  -27.3202   20.6758 H   0  0  0  0  0  0
  -17.4210  -26.6640   21.4003 H   0  0  0  0  0  0
  -18.0326  -26.0028   22.8999 H   0  0  0  0  0  0
  -19.7933  -30.7246   24.2242 H   0  0  0  0  0  0
  -17.5009  -31.6238   24.5173 H   0  0  0  0  0  0
  -15.5342  -30.2975   23.7626 H   0  0  0  0  0  0
  -15.8666  -28.0833   22.7002 H   0  0  0  0  0  0
  -24.5867  -30.7054   25.7762 H   0  0  0  0  0  0
  -24.8899  -32.2825   26.4920 H   0  0  0  0  0  0
  -25.8056  -30.8815   27.0177 H   0  0  0  0  0  0
  -26.2759  -29.6824   24.1094 H   0  0  0  0  0  0
  -27.4078  -29.7252   25.4440 H   0  0  0  0  0  0
  -27.8565  -30.4376   23.9092 H   0  0  0  0  0  0
  -27.2652  -33.3587   26.2055 H   0  0  0  0  0  0
  -28.3793  -32.6900   25.0231 H   0  0  0  0  0  0
  -28.0722  -31.8401   26.5328 H   0  0  0  0  0  0
  -28.2616  -38.0111   24.7525 H   0  0  0  0  0  0
  -28.1089  -36.2645   24.6267 H   0  0  0  0  0  0
  -27.2293  -37.1456   25.8859 H   0  0  0  0  0  0
  -20.9280  -29.8715   21.6949 H   0  0  0  0  0  0
  -26.0217  -38.2877   24.1383 H   0  0  0  0  0  0
  -31.3886  -17.3538   19.9957 H   0  0  0  0  0  0
  -31.7685  -17.4066   21.7062 H   0  0  0  0  0  0
  -29.2438  -16.9890   22.1434 H   0  0  0  0  0  0
  -29.0601  -16.7272   20.4305 H   0  0  0  0  0  0
  -30.3352  -19.3330   22.0608 H   0  0  0  0  0  0
  -29.5665  -19.1357   20.4898 H   0  0  0  0  0  0
  -29.1020  -24.9850   20.8485 H   0  0  0  0  0  0
  -27.3851  -25.0293   20.6318 H   0  0  0  0  0  0
  -28.1442  -25.3147   17.9887 H   0  0  0  0  0  0
  -27.8979  -23.7571   18.7740 H   0  0  0  0  0  0
  -29.9983  -21.3821   20.1880 H   0  0  0  0  0  0
  -31.0956  -21.6089   21.5390 H   0  0  0  0  0  0
  -32.9833  -21.9957   19.8314 H   0  0  0  0  0  0
  -31.7248  -23.2079   19.8812 H   0  0  0  0  0  0
  -29.4005  -22.7693   17.3077 H   0  0  0  0  0  0
  -29.9629  -24.2673   16.5816 H   0  0  0  0  0  0
  -32.2833  -23.8091   17.6708 H   0  0  0  0  0  0
  -31.7772  -22.7143   16.4080 H   0  0  0  0  0  0
  -29.3600  -14.7527   22.0191 H   0  0  0  0  0  0
  1 25  1  0  0  0
  1 30  2  0  0  0
  1 80  1  0  0  0
  2  3  1  0  0  0
  2 25  1  0  0  0
  2 84  1  0  0  0
  2 85  1  0  0  0
  3  4  1  0  0  0
  3 86  1  0  0  0
  3 87  1  0  0  0
  4  5  1  0  0  0
  4 88  1  0  0  0
  4 89  1  0  0  0
  5  6  1  0  0  0
  5 26  1  0  0  0
  5 90  1  0  0  0
  6 25  1  0  0  0
  6 91  1  0  0  0
  6 92  1  0  0  0
  7  8  2  0  0  0
  7 26  1  0  0  0
  7 29  1  0  0  0
  8  9  1  0  0  0
  8 22  1  0  0  0
  9 10  1  0  0  0
  9 27  2  0  0  0
 10 11  2  0  0  0
 10 15  1  0  0  0
 11 12  1  0  0  0
 11 93  1  0  0  0
 12 13  2  0  0  0
 12 94  1  0  0  0
 13 14  1  0  0  0
 13 31  1  0  0  0
 14 15  2  0  0  0
 14 95  1  0  0  0
 15 96  1  0  0  0
 16 17  2  0  0  0
 16 21  1  0  0  0
 16 31  1  0  0  0
 17 18  1  0  0  0
 17 97  1  0  0  0
 18 19  2  0  0  0
 18 98  1  0  0  0
 19 20  1  0  0  0
 19 24  1  0  0  0
 20 21  2  0  0  0
 20 99  1  0  0  0
 21 23  1  0  0  0
 22 28  1  0  0  0
 22 32  2  0  0  0
 26 27  1  0  0  0
 28100  1  0  0  0
 28101  1  0  0  0
 29102  1  0  0  0
 29103  1  0  0  0
 33 34  1  0  0  0
 33 66  1  0  0  0
 33 70  2  0  0  0
 34 36  1  0  0  0
 34 59  1  0  0  0
 34104  1  0  0  0
 35 44  2  0  0  0
 35 45  1  0  0  0
 35 68  1  0  0  0
 36 56  1  0  0  0
 36105  1  0  0  0
 37 39  1  0  0  0
 37 47  1  0  0  0
 37 66  1  0  0  0
 37106  1  0  0  0
 38 43  2  0  0  0
 38 46  1  0  0  0
 38 47  1  0  0  0
 39 64  1  0  0  0
 39 67  2  0  0  0
 40 52  1  0  0  0
 40 53  2  0  0  0
 40 58  1  0  0  0
 41107  1  0  0  0
 41108  1  0  0  0
 41109  1  0  0  0
 41 48  1  0  0  0
 42 43  1  0  0  0
 42 66  1  0  0  0
 42110  1  0  0  0
 42111  1  0  0  0
 43 44  1  0  0  0
 44112  1  0  0  0
 45 46  2  0  0  0
 45113  1  0  0  0
 46114  1  0  0  0
 47115  1  0  0  0
 47116  1  0  0  0
 48 56  1  0  0  0
 48 65  1  0  0  0
 48117  1  0  0  0
 49 50  1  0  0  0
 49 53  1  0  0  0
 49 64  1  0  0  0
 49118  1  0  0  0
 50 51  1  0  0  0
 50119  1  0  0  0
 50120  1  0  0  0
 51 52  1  0  0  0
 51121  1  0  0  0
 51122  1  0  0  0
 52123  1  0  0  0
 52124  1  0  0  0
 53 54  1  0  0  0
 54 55  2  0  0  0
 54125  1  0  0  0
 55 57  1  0  0  0
 55126  1  0  0  0
 56 69  2  0  0  0
 57 58  2  0  0  0
 57127  1  0  0  0
 58128  1  0  0  0
 59 60  1  0  0  0
 59 61  1  0  0  0
 59 62  1  0  0  0
 60129  1  0  0  0
 60130  1  0  0  0
 60131  1  0  0  0
 61132  1  0  0  0
 61133  1  0  0  0
 61134  1  0  0  0
 62135  1  0  0  0
 62136  1  0  0  0
 62137  1  0  0  0
 63 65  1  0  0  0
 63138  1  0  0  0
 63139  1  0  0  0
 63140  1  0  0  0
 64141  1  0  0  0
 65142  1  0  0  0
 68 74  1  0  0  0
 71 72  1  0  0  0
 71 73  1  0  0  0
 71143  1  0  0  0
 71144  1  0  0  0
 72 80  1  0  0  0
 72145  1  0  0  0
 72146  1  0  0  0
 73 81  1  0  0  0
 73147  1  0  0  0
 73148  1  0  0  0
 74 75  1  0  0  0
 74149  1  0  0  0
 74150  1  0  0  0
 75 82  1  0  0  0
 75151  1  0  0  0
 75152  1  0  0  0
 76 77  1  0  0  0
 76 81  1  0  0  0
 76153  1  0  0  0
 76154  1  0  0  0
 77 83  1  0  0  0
 77155  1  0  0  0
 77156  1  0  0  0
 78 79  1  0  0  0
 78 82  1  0  0  0
 78157  1  0  0  0
 78158  1  0  0  0
 79 83  1  0  0  0
 79159  1  0  0  0
 79160  1  0  0  0
 80161  1  0  0  0
M  ISO  4   1 100  68 101  74 101  80 100
M  END
> <chiral flag>
0

> <version>
0

> <s_m_source_file>
/data/baiqing/PycharmProjects/Reinvent-master-3.2/result/LINK_invent/BTK/process_docking_weight1_custom_sum_contain_oxygen_bond_distance_aromatic_linkinvent_7_9_3/rearranged_h_0000.sdf

> <i_m_source_file_index>
25

> <r_mmod_Potential_Energy-OPLS-2005>
-50.7763595581055

> <r_mmod_Stretch_Energy-OPLS-2005>
31.954948425293

> <r_mmod_Bend_Energy-OPLS-2005>
99.2466812133789

> <r_mmod_Torsional_Energy-OPLS-2005>
218.608352661133

> <r_mmod_Improper_Torsional_Energy-OPLS-2005>
4.63508367538452

> <r_mmod_Van_der_Waal_Energy-OPLS-2005>
140.39567565918

> <r_mmod_Electrostatic_Energy-OPLS-2005>
-315.809326171875

> <r_mmod_Solvation_Energy-OPLS-2005>
-239.000701904297

> <b_mmod_Minimization_Converged-OPLS-2005>
0

> <r_mmod_RMS_Derivative-OPLS-2005>
2.56229686737061

$$$$
26
                    3D
 Structure written by MMmdl.
176184  0  0  1  0            999 V2000
  -30.8305  -14.3124   20.7125 C   0  0  0  0  0  0
  -30.4101  -12.2759   19.3483 C   0  0  0  0  0  0
  -29.4651  -12.5307   18.1658 C   0  0  0  0  0  0
  -27.9970  -12.3774   18.6049 C   0  0  0  0  0  0
  -27.6661  -13.1967   19.8817 C   0  0  2  0  0  0
  -28.7083  -12.9336   20.9921 C   0  0  0  0  0  0
  -25.2621  -13.8160   20.5683 C   0  0  0  0  0  0
  -24.1844  -13.0439   20.9170 C   0  0  0  0  0  0
  -24.6386  -11.6911   20.8734 C   0  0  0  0  0  0
  -23.9055  -10.4297   21.0413 C   0  0  0  0  0  0
  -24.3622   -9.4198   21.9164 C   0  0  0  0  0  0
  -23.6299   -8.2232   22.0733 C   0  0  0  0  0  0
  -22.4263   -8.0288   21.3550 C   0  0  0  0  0  0
  -21.9883   -9.0275   20.4671 C   0  0  0  0  0  0
  -22.7214  -10.2159   20.3086 C   0  0  0  0  0  0
  -21.6850   -6.0741   22.5280 C   0  0  0  0  0  0
  -21.4017   -6.5645   23.8219 C   0  0  0  0  0  0
  -21.3655   -5.6799   24.9176 C   0  0  0  0  0  0
  -21.6045   -4.3061   24.7229 C   0  0  0  0  0  0
  -21.8813   -3.8152   23.4350 C   0  0  0  0  0  0
  -21.9189   -4.6966   22.3406 C   0  0  0  0  0  0
  -22.7884  -13.5269   21.1845 C   0  0  0  0  0  0
  -22.1657   -4.2153   21.0982 F   0  0  0  0  0  0
  -21.5626   -3.4541   25.7738 F   0  0  0  0  0  0
  -30.0413  -13.1951   20.4251 N   0  0  0  0  0  0
  -26.3051  -12.9304   20.3422 N   0  0  0  0  0  0
  -25.9308  -11.6471   20.5773 N   0  0  0  0  0  0
  -22.0558  -12.8310   22.0485 N   0  0  0  0  0  0
  -25.4378  -15.1866   20.4090 N   0  0  0  0  0  0
  -31.8361  -14.6698   20.0961 O   0  0  0  0  0  0
  -21.6632   -6.8878   21.4244 O   0  0  0  0  0  0
  -22.3550  -14.5540   20.6657 O   0  0  0  0  0  0
  -24.6145  -31.8678   23.2052 C   0  0  0  0  0  0
  -25.9058  -32.4804   23.8335 C   0  0  1  0  0  0
  -27.2411  -27.4476   20.0806 C   0  0  0  0  0  0
  -25.5950  -33.8601   24.2264 N   0  0  0  0  0  0
  -23.3998  -30.4897   21.5456 C   0  0  2  0  0  0
  -24.8452  -28.9539   20.1156 C   0  0  0  0  0  0
  -22.7413  -29.4658   22.4973 C   0  0  0  0  0  0
  -18.0279  -28.1357   22.8498 C   0  0  0  0  0  0
  -24.1486  -36.7327   23.2631 C   0  0  0  0  0  0
  -25.9269  -30.8387   21.3523 C   0  0  0  0  0  0
  -26.0061  -29.4711   20.7034 C   0  0  0  0  0  0
  -27.2063  -28.7259   20.6797 C   0  0  0  0  0  0
  -26.0570  -26.9406   19.4955 C   0  0  0  0  0  0
  -24.8636  -27.6859   19.5114 C   0  0  0  0  0  0
  -23.6062  -29.8182   20.1610 C   0  0  0  0  0  0
  -25.4103  -36.3080   24.0295 C   0  0  1  0  0  0
  -20.5875  -28.3631   23.1342 C   0  0  2  0  0  0
  -20.6777  -26.9378   22.5411 C   0  0  0  0  0  0
  -19.5726  -26.6381   21.5227 C   0  0  0  0  0  0
  -18.1906  -26.7912   22.1631 C   0  0  0  0  0  0
  -19.1537  -28.8809   23.2918 C   0  0  0  0  0  0
  -18.9473  -30.1442   23.8872 C   0  0  0  0  0  0
  -17.6471  -30.6570   24.0543 C   0  0  0  0  0  0
  -25.9043  -34.9470   23.5063 C   0  0  0  0  0  0
  -16.5350  -29.9050   23.6336 C   0  0  0  0  0  0
  -16.7272  -28.6487   23.0319 C   0  0  0  0  0  0
  -26.4455  -31.6584   25.0690 C   0  0  0  0  0  0
  -25.3718  -31.3781   26.1454 C   0  0  0  0  0  0
  -27.0259  -30.3004   24.6075 C   0  0  0  0  0  0
  -27.5979  -32.4318   25.7504 C   0  0  0  0  0  0
  -27.5549  -37.1808   24.8456 C   0  0  0  0  0  0
  -21.4140  -29.2998   22.3730 N   0  0  0  0  0  0
  -26.4272  -37.3779   23.9402 N   0  0  0  0  0  0
  -24.6649  -31.0814   22.0925 N   0  0  0  0  0  0
  -23.4216  -28.8213   23.3000 O   0  0  0  0  0  0
  -28.4387  -26.7613   20.0580 O   0  0  0  0  0  0
  -26.5586  -34.8939   22.4612 O   0  0  0  0  0  0
  -23.5352  -32.1420   23.7503 O   0  0  0  0  0  0
  -29.5170  -12.5285   25.4346 C   0  0  0  0  0  0
  -28.8069  -13.4566   26.2231 C   0  0  0  0  0  0
  -30.3563  -12.9794   24.3949 C   0  0  0  0  0  0
  -29.8305  -15.2867   24.9756 C   0  0  0  0  0  0
  -28.9598  -14.8408   25.9923 C   0  0  0  0  0  0
  -30.5025  -14.3615   24.1572 C   0  0  0  0  0  0
  -28.1480  -15.8641   26.7640 C   0  0  0  0  0  0
  -31.2844  -14.8616   22.9615 C   0  0  0  0  0  0
  -26.9046  -17.9671   26.1699 C   0  0  0  0  0  0
  -26.6478  -18.7920   24.9025 C   0  0  0  0  0  0
  -28.4294  -25.3262   20.0606 C   0  0  0  0  0  0
  -28.1148  -24.7904   21.4727 C   0  0  0  0  0  0
  -25.7480  -18.4463   22.7191 C   0  0  0  0  0  0
  -25.2750  -19.8871   22.4602 C   0  0  0  0  0  0
  -26.9031  -23.2302   22.7691 C   0  0  0  0  0  0
  -25.8036  -22.1597   22.7218 C   0  0  0  0  0  0
  -27.3228  -16.6000   25.7913 N   0  3  0  0  0  0
  -30.4271  -14.9035   21.8309 O   0  0  0  0  0  0
  -25.7127  -18.0857   24.0974 O   0  0  0  0  0  0
  -27.3126  -23.6116   21.4540 O   0  0  0  0  0  0
  -26.3204  -20.8329   22.6787 O   0  0  0  0  0  0
  -31.4497  -12.3939   19.0360 H   0  0  0  0  0  0
  -30.3149  -11.2462   19.6969 H   0  0  0  0  0  0
  -29.6873  -11.8413   17.3505 H   0  0  0  0  0  0
  -29.6300  -13.5348   17.7714 H   0  0  0  0  0  0
  -27.8121  -11.3174   18.7848 H   0  0  0  0  0  0
  -27.3308  -12.6656   17.7908 H   0  0  0  0  0  0
  -27.7269  -14.2513   19.6121 H   0  0  0  0  0  0
  -28.6598  -11.8948   21.3222 H   0  0  0  0  0  0
  -28.4751  -13.5334   21.8719 H   0  0  0  0  0  0
  -25.2793   -9.5648   22.4704 H   0  0  0  0  0  0
  -24.0032   -7.4602   22.7417 H   0  0  0  0  0  0
  -21.0802   -8.8818   19.8993 H   0  0  0  0  0  0
  -22.3671  -10.9714   19.6218 H   0  0  0  0  0  0
  -21.2015   -7.6155   23.9721 H   0  0  0  0  0  0
  -21.1484   -6.0531   25.9082 H   0  0  0  0  0  0
  -22.0595   -2.7613   23.2855 H   0  0  0  0  0  0
  -22.4233  -12.0060   22.4978 H   0  0  0  0  0  0
  -21.1191  -13.1344   22.2721 H   0  0  0  0  0  0
  -24.6679  -15.8421   20.4829 H   0  0  0  0  0  0
  -26.2974  -15.6162   20.0902 H   0  0  0  0  0  0
  -26.7146  -32.5516   23.1101 H   0  0  0  0  0  0
  -25.0157  -33.9707   25.0457 H   0  0  0  0  0  0
  -22.6872  -31.3060   21.4029 H   0  0  0  0  0  0
  -23.3717  -35.9702   23.3313 H   0  0  0  0  0  0
  -24.3602  -36.8935   22.2053 H   0  0  0  0  0  0
  -23.7303  -37.6543   23.6675 H   0  0  0  0  0  0
  -26.0362  -31.6050   20.5842 H   0  0  0  0  0  0
  -26.8179  -30.8942   21.9660 H   0  0  0  0  0  0
  -28.1087  -29.1235   21.1229 H   0  0  0  0  0  0
  -26.0256  -25.9840   19.0007 H   0  0  0  0  0  0
  -23.9733  -27.2754   19.0568 H   0  0  0  0  0  0
  -23.7132  -30.5895   19.3968 H   0  0  0  0  0  0
  -22.7308  -29.2351   19.8672 H   0  0  0  0  0  0
  -25.1292  -36.1876   25.0784 H   0  0  0  0  0  0
  -20.9979  -28.3185   24.1467 H   0  0  0  0  0  0
  -20.5732  -26.2219   23.3579 H   0  0  0  0  0  0
  -21.6631  -26.7436   22.1141 H   0  0  0  0  0  0
  -19.6879  -25.6325   21.1194 H   0  0  0  0  0  0
  -19.6651  -27.3234   20.6801 H   0  0  0  0  0  0
  -17.4181  -26.6701   21.4015 H   0  0  0  0  0  0
  -18.0266  -26.0051   22.9012 H   0  0  0  0  0  0
  -19.7951  -30.7289   24.2193 H   0  0  0  0  0  0
  -17.5009  -31.6239   24.5165 H   0  0  0  0  0  0
  -15.5335  -30.2897   23.7726 H   0  0  0  0  0  0
  -15.8685  -28.0810   22.6961 H   0  0  0  0  0  0
  -24.5825  -30.7162   25.7863 H   0  0  0  0  0  0
  -24.8993  -32.2993   26.4865 H   0  0  0  0  0  0
  -25.8069  -30.9000   27.0236 H   0  0  0  0  0  0
  -26.2829  -29.6847   24.0985 H   0  0  0  0  0  0
  -27.3830  -29.7150   25.4554 H   0  0  0  0  0  0
  -27.8751  -30.4270   23.9363 H   0  0  0  0  0  0
  -27.2505  -33.3571   26.2115 H   0  0  0  0  0  0
  -28.3835  -32.6934   25.0412 H   0  0  0  0  0  0
  -28.0609  -31.8440   26.5430 H   0  0  0  0  0  0
  -28.2558  -38.0105   24.7486 H   0  0  0  0  0  0
  -28.1029  -36.2630   24.6280 H   0  0  0  0  0  0
  -27.2282  -37.1471   25.8863 H   0  0  0  0  0  0
  -20.9295  -29.8741   21.6973 H   0  0  0  0  0  0
  -26.0121  -38.2833   24.1425 H   0  0  0  0  0  0
  -29.3937  -11.4672   25.6073 H   0  0  0  0  0  0
  -28.1396  -13.0977   26.9959 H   0  0  0  0  0  0
  -30.8636  -12.2623   23.7642 H   0  0  0  0  0  0
  -29.9480  -16.3441   24.7808 H   0  0  0  0  0  0
  -28.8387  -16.5323   27.2781 H   0  0  0  0  0  0
  -27.5169  -15.3948   27.5216 H   0  0  0  0  0  0
  -32.1445  -14.2078   22.7993 H   0  0  0  0  0  0
  -31.6760  -15.8604   23.1560 H   0  0  0  0  0  0
  -26.0170  -17.9193   26.7997 H   0  0  0  0  0  0
  -27.6808  -18.4644   26.7554 H   0  0  0  0  0  0
  -27.5905  -18.9333   24.3679 H   0  0  0  0  0  0
  -26.2549  -19.7790   25.1495 H   0  0  0  0  0  0
  -27.7623  -24.9078   19.3100 H   0  0  0  0  0  0
  -29.4196  -24.9825   19.7624 H   0  0  0  0  0  0
  -27.5766  -25.5645   22.0205 H   0  0  0  0  0  0
  -29.0398  -24.6105   22.0206 H   0  0  0  0  0  0
  -26.7301  -18.2583   22.2838 H   0  0  0  0  0  0
  -25.0612  -17.7633   22.2171 H   0  0  0  0  0  0
  -24.3985  -20.1012   23.0753 H   0  0  0  0  0  0
  -24.9639  -19.9716   21.4185 H   0  0  0  0  0  0
  -27.7465  -22.9103   23.3827 H   0  0  0  0  0  0
  -26.4744  -24.1043   23.2619 H   0  0  0  0  0  0
  -25.1432  -22.3531   21.8771 H   0  0  0  0  0  0
  -25.1945  -22.2504   23.6232 H   0  0  0  0  0  0
  -26.5159  -16.0483   25.5465 H   0  0  0  0  0  0
  -27.8828  -16.6697   24.9570 H   0  0  0  0  0  0
  1 25  1  0  0  0
  1 30  2  0  0  0
  1 88  1  0  0  0
  2  3  1  0  0  0
  2 25  1  0  0  0
  2 92  1  0  0  0
  2 93  1  0  0  0
  3  4  1  0  0  0
  3 94  1  0  0  0
  3 95  1  0  0  0
  4  5  1  0  0  0
  4 96  1  0  0  0
  4 97  1  0  0  0
  5  6  1  0  0  0
  5 26  1  0  0  0
  5 98  1  0  0  0
  6 25  1  0  0  0
  6 99  1  0  0  0
  6100  1  0  0  0
  7  8  2  0  0  0
  7 26  1  0  0  0
  7 29  1  0  0  0
  8  9  1  0  0  0
  8 22  1  0  0  0
  9 10  1  0  0  0
  9 27  2  0  0  0
 10 11  2  0  0  0
 10 15  1  0  0  0
 11 12  1  0  0  0
 11101  1  0  0  0
 12 13  2  0  0  0
 12102  1  0  0  0
 13 14  1  0  0  0
 13 31  1  0  0  0
 14 15  2  0  0  0
 14103  1  0  0  0
 15104  1  0  0  0
 16 17  2  0  0  0
 16 21  1  0  0  0
 16 31  1  0  0  0
 17 18  1  0  0  0
 17105  1  0  0  0
 18 19  2  0  0  0
 18106  1  0  0  0
 19 20  1  0  0  0
 19 24  1  0  0  0
 20 21  2  0  0  0
 20107  1  0  0  0
 21 23  1  0  0  0
 22 28  1  0  0  0
 22 32  2  0  0  0
 26 27  1  0  0  0
 28108  1  0  0  0
 28109  1  0  0  0
 29110  1  0  0  0
 29111  1  0  0  0
 33 34  1  0  0  0
 33 66  1  0  0  0
 33 70  2  0  0  0
 34 36  1  0  0  0
 34 59  1  0  0  0
 34112  1  0  0  0
 35 44  2  0  0  0
 35 45  1  0  0  0
 35 68  1  0  0  0
 36 56  1  0  0  0
 36113  1  0  0  0
 37 39  1  0  0  0
 37 47  1  0  0  0
 37 66  1  0  0  0
 37114  1  0  0  0
 38 43  2  0  0  0
 38 46  1  0  0  0
 38 47  1  0  0  0
 39 64  1  0  0  0
 39 67  2  0  0  0
 40 52  1  0  0  0
 40 53  2  0  0  0
 40 58  1  0  0  0
 41115  1  0  0  0
 41116  1  0  0  0
 41117  1  0  0  0
 41 48  1  0  0  0
 42 43  1  0  0  0
 42 66  1  0  0  0
 42118  1  0  0  0
 42119  1  0  0  0
 43 44  1  0  0  0
 44120  1  0  0  0
 45 46  2  0  0  0
 45121  1  0  0  0
 46122  1  0  0  0
 47123  1  0  0  0
 47124  1  0  0  0
 48 56  1  0  0  0
 48 65  1  0  0  0
 48125  1  0  0  0
 49 50  1  0  0  0
 49 53  1  0  0  0
 49 64  1  0  0  0
 49126  1  0  0  0
 50 51  1  0  0  0
 50127  1  0  0  0
 50128  1  0  0  0
 51 52  1  0  0  0
 51129  1  0  0  0
 51130  1  0  0  0
 52131  1  0  0  0
 52132  1  0  0  0
 53 54  1  0  0  0
 54 55  2  0  0  0
 54133  1  0  0  0
 55 57  1  0  0  0
 55134  1  0  0  0
 56 69  2  0  0  0
 57 58  2  0  0  0
 57135  1  0  0  0
 58136  1  0  0  0
 59 60  1  0  0  0
 59 61  1  0  0  0
 59 62  1  0  0  0
 60137  1  0  0  0
 60138  1  0  0  0
 60139  1  0  0  0
 61140  1  0  0  0
 61141  1  0  0  0
 61142  1  0  0  0
 62143  1  0  0  0
 62144  1  0  0  0
 62145  1  0  0  0
 63 65  1  0  0  0
 63146  1  0  0  0
 63147  1  0  0  0
 63148  1  0  0  0
 64149  1  0  0  0
 65150  1  0  0  0
 68 81  1  0  0  0
 71 72  2  0  0  0
 71 73  1  0  0  0
 71151  1  0  0  0
 72 75  1  0  0  0
 72152  1  0  0  0
 73 76  2  0  0  0
 73153  1  0  0  0
 74 75  2  0  0  0
 74 76  1  0  0  0
 74154  1  0  0  0
 75 77  1  0  0  0
 76 78  1  0  0  0
 77 87  1  0  0  0
 77155  1  0  0  0
 77156  1  0  0  0
 78 88  1  0  0  0
 78157  1  0  0  0
 78158  1  0  0  0
 79 80  1  0  0  0
 79 87  1  0  0  0
 79159  1  0  0  0
 79160  1  0  0  0
 80 89  1  0  0  0
 80161  1  0  0  0
 80162  1  0  0  0
 81 82  1  0  0  0
 81163  1  0  0  0
 81164  1  0  0  0
 82 90  1  0  0  0
 82165  1  0  0  0
 82166  1  0  0  0
 83 84  1  0  0  0
 83 89  1  0  0  0
 83167  1  0  0  0
 83168  1  0  0  0
 84 91  1  0  0  0
 84169  1  0  0  0
 84170  1  0  0  0
 85 86  1  0  0  0
 85 90  1  0  0  0
 85171  1  0  0  0
 85172  1  0  0  0
 86 91  1  0  0  0
 86173  1  0  0  0
 86174  1  0  0  0
 87175  1  0  0  0
 87176  1  0  0  0
M  CHG  1  87   1
M  ISO  4   1 100  68 101  81 101  88 100
M  END
> <chiral flag>
0

> <version>
0

> <s_m_source_file>
/data/baiqing/PycharmProjects/Reinvent-master-3.2/result/LINK_invent/BTK/process_docking_weight1_custom_sum_contain_oxygen_bond_distance_aromatic_linkinvent_7_9_3/rearranged_h_0000.sdf

> <i_m_source_file_index>
26

> <r_mmod_Potential_Energy-OPLS-2005>
-207.588943481445

> <r_mmod_Stretch_Energy-OPLS-2005>
33.011287689209

> <r_mmod_Bend_Energy-OPLS-2005>
100.105827331543

> <r_mmod_Torsional_Energy-OPLS-2005>
209.58952331543

> <r_mmod_Improper_Torsional_Energy-OPLS-2005>
2.69143557548523

> <r_mmod_Van_der_Waal_Energy-OPLS-2005>
146.293807983398

> <r_mmod_Electrostatic_Energy-OPLS-2005>
-280.439666748047

> <r_mmod_Solvation_Energy-OPLS-2005>
-428.001068115234

> <b_mmod_Minimization_Converged-OPLS-2005>
0

> <r_mmod_RMS_Derivative-OPLS-2005>
3.23370981216431

$$$$
28
                    3D
 Structure written by MMmdl.
182190  0  0  1  0            999 V2000
  -30.8586  -14.2510   20.8446 C   0  0  0  0  0  0
  -30.4047  -12.2977   19.4056 C   0  0  0  0  0  0
  -29.4850  -12.5455   18.1962 C   0  0  0  0  0  0
  -28.0119  -12.3617   18.5901 C   0  0  0  0  0  0
  -27.6508  -13.2028   19.8321 C   0  0  2  0  0  0
  -28.6613  -12.9906   20.9672 C   0  0  0  0  0  0
  -25.2554  -13.8167   20.5568 C   0  0  0  0  0  0
  -24.1826  -13.0460   20.9136 C   0  0  0  0  0  0
  -24.6369  -11.6918   20.8678 C   0  0  0  0  0  0
  -23.9047  -10.4303   21.0396 C   0  0  0  0  0  0
  -24.3610   -9.4227   21.9173 C   0  0  0  0  0  0
  -23.6296   -8.2261   22.0758 C   0  0  0  0  0  0
  -22.4281   -8.0281   21.3548 C   0  0  0  0  0  0
  -21.9896   -9.0258   20.4651 C   0  0  0  0  0  0
  -22.7215  -10.2139   20.3057 C   0  0  0  0  0  0
  -21.6852   -6.0733   22.5274 C   0  0  0  0  0  0
  -21.4010   -6.5637   23.8210 C   0  0  0  0  0  0
  -21.3659   -5.6797   24.9173 C   0  0  0  0  0  0
  -21.6048   -4.3055   24.7227 C   0  0  0  0  0  0
  -21.8823   -3.8143   23.4352 C   0  0  0  0  0  0
  -21.9196   -4.6964   22.3403 C   0  0  0  0  0  0
  -22.7855  -13.5249   21.1861 C   0  0  0  0  0  0
  -22.1660   -4.2144   21.0984 F   0  0  0  0  0  0
  -21.5632   -3.4546   25.7744 F   0  0  0  0  0  0
  -30.0507  -13.2026   20.5170 N   0  0  0  0  0  0
  -26.2929  -12.9325   20.3032 N   0  0  0  0  0  0
  -25.9249  -11.6488   20.5554 N   0  0  0  0  0  0
  -22.0516  -12.8250   22.0429 N   0  0  0  0  0  0
  -25.4347  -15.1886   20.4050 N   0  0  0  0  0  0
  -31.6725  -14.6978   20.0246 O   0  0  0  0  0  0
  -21.6651   -6.8876   21.4239 O   0  0  0  0  0  0
  -22.3533  -14.5563   20.6731 O   0  0  0  0  0  0
  -24.6101  -31.8724   23.2118 C   0  0  0  0  0  0
  -25.8984  -32.4836   23.8403 C   0  0  1  0  0  0
  -27.2256  -27.4694   20.0786 C   0  0  0  0  0  0
  -25.5861  -33.8644   24.2338 N   0  0  0  0  0  0
  -23.3989  -30.4979   21.5529 C   0  0  2  0  0  0
  -24.8461  -28.9772   20.1033 C   0  0  0  0  0  0
  -22.7388  -29.4709   22.5002 C   0  0  0  0  0  0
  -18.0289  -28.1392   22.8480 C   0  0  0  0  0  0
  -24.1487  -36.7362   23.2642 C   0  0  0  0  0  0
  -25.9261  -30.8412   21.3713 C   0  0  0  0  0  0
  -26.0020  -29.4813   20.7144 C   0  0  0  0  0  0
  -27.1978  -28.7276   20.7110 C   0  0  0  0  0  0
  -26.0711  -26.9939   19.4232 C   0  0  0  0  0  0
  -24.8741  -27.7303   19.4544 C   0  0  0  0  0  0
  -23.6042  -29.8376   20.1653 C   0  0  0  0  0  0
  -25.4106  -36.3139   24.0338 C   0  0  1  0  0  0
  -20.5859  -28.3693   23.1317 C   0  0  2  0  0  0
  -20.6808  -26.9437   22.5411 C   0  0  0  0  0  0
  -19.5795  -26.6405   21.5213 C   0  0  0  0  0  0
  -18.1950  -26.7944   22.1606 C   0  0  0  0  0  0
  -19.1516  -28.8857   23.2895 C   0  0  0  0  0  0
  -18.9459  -30.1459   23.8935 C   0  0  0  0  0  0
  -17.6463  -30.6601   24.0564 C   0  0  0  0  0  0
  -25.9033  -34.9504   23.5165 C   0  0  0  0  0  0
  -16.5351  -29.9098   23.6319 C   0  0  0  0  0  0
  -16.7266  -28.6509   23.0349 C   0  0  0  0  0  0
  -26.4437  -31.6613   25.0718 C   0  0  0  0  0  0
  -25.3671  -31.3667   26.1443 C   0  0  0  0  0  0
  -27.0287  -30.3058   24.6079 C   0  0  0  0  0  0
  -27.6030  -32.4336   25.7445 C   0  0  0  0  0  0
  -27.5590  -37.1805   24.8457 C   0  0  0  0  0  0
  -21.4124  -29.3073   22.3721 N   0  0  0  0  0  0
  -26.4307  -37.3815   23.9400 N   0  0  0  0  0  0
  -24.6634  -31.0819   22.1034 N   0  0  0  0  0  0
  -23.4170  -28.8246   23.3038 O   0  0  0  0  0  0
  -28.3357  -26.6685   20.1230 O   0  0  0  0  0  0
  -26.5600  -34.8952   22.4729 O   0  0  0  0  0  0
  -23.5301  -32.1486   23.7494 O   0  0  0  0  0  0
  -26.3584  -19.3367   18.7407 C   0  0  0  0  0  0
  -31.0646  -16.9318   22.9725 C   0  0  0  0  0  0
  -29.1950  -15.3560   23.7114 C   0  0  0  0  0  0
  -31.8767  -15.6789   22.6045 C   0  0  0  0  0  0
  -30.1622  -14.2047   23.3406 C   0  0  0  0  0  0
  -29.9924  -16.6414   24.0459 C   0  0  0  0  0  0
  -27.8148  -18.8646   18.9124 C   0  0  0  0  0  0
  -29.1079  -17.8765   24.3236 C   0  0  0  0  0  0
  -24.8548  -21.3168   18.7892 C   0  0  0  0  0  0
  -24.4383  -21.5455   20.2490 C   0  0  0  0  0  0
  -28.3730  -25.7968   21.2674 C   0  0  0  0  0  0
  -27.8598  -19.5718   21.2409 C   0  0  0  0  0  0
  -28.6985  -19.3856   22.5108 C   0  0  0  0  0  0
  -27.0714  -24.9820   21.4833 C   0  0  0  0  0  0
  -25.4072  -22.3133   22.2853 C   0  0  0  0  0  0
  -25.8412  -23.6156   22.9793 C   0  0  0  0  0  0
  -30.9466  -14.6246   22.1626 N   0  0  0  0  0  0
  -26.1561  -20.6597   18.7392 N   0  0  0  0  0  0
  -25.4368  -18.5226   18.6536 O   0  0  0  0  0  0
  -28.1434  -18.5565   20.2769 O   0  0  0  0  0  0
  -28.2975  -18.2010   23.1944 O   0  0  0  0  0  0
  -25.3440  -22.4576   20.8685 O   0  0  0  0  0  0
  -27.1358  -24.0837   22.5865 O   0  0  0  0  0  0
  -31.4474  -12.4051   19.1009 H   0  0  0  0  0  0
  -30.3081  -11.2658   19.7474 H   0  0  0  0  0  0
  -29.7407  -11.8644   17.3840 H   0  0  0  0  0  0
  -29.6400  -13.5565   17.8126 H   0  0  0  0  0  0
  -27.8406  -11.3025   18.7887 H   0  0  0  0  0  0
  -27.3628  -12.6273   17.7551 H   0  0  0  0  0  0
  -27.7022  -14.2495   19.5308 H   0  0  0  0  0  0
  -28.5710  -11.9911   21.3955 H   0  0  0  0  0  0
  -28.3369  -13.6974   21.7218 H   0  0  0  0  0  0
  -25.2766   -9.5719   22.4730 H   0  0  0  0  0  0
  -24.0013   -7.4667   22.7483 H   0  0  0  0  0  0
  -21.0827   -8.8768   19.8974 H   0  0  0  0  0  0
  -22.3663  -10.9676   19.6165 H   0  0  0  0  0  0
  -21.1997   -7.6147   23.9707 H   0  0  0  0  0  0
  -21.1470   -6.0525   25.9071 H   0  0  0  0  0  0
  -22.0604   -2.7612   23.2856 H   0  0  0  0  0  0
  -22.4109  -11.9901   22.4798 H   0  0  0  0  0  0
  -21.1146  -13.1295   22.2672 H   0  0  0  0  0  0
  -24.6782  -15.8551   20.5076 H   0  0  0  0  0  0
  -26.2973  -15.6222   20.1024 H   0  0  0  0  0  0
  -26.7038  -32.5611   23.1181 H   0  0  0  0  0  0
  -24.9973  -33.9818   25.0426 H   0  0  0  0  0  0
  -22.6880  -31.3157   21.4178 H   0  0  0  0  0  0
  -23.3747  -35.9703   23.3318 H   0  0  0  0  0  0
  -24.3556  -36.8962   22.2056 H   0  0  0  0  0  0
  -23.7255  -37.6567   23.6651 H   0  0  0  0  0  0
  -26.0448  -31.6097   20.6032 H   0  0  0  0  0  0
  -26.8116  -30.8902   21.9928 H   0  0  0  0  0  0
  -28.0916  -29.0941   21.1971 H   0  0  0  0  0  0
  -26.0924  -26.0377   18.9172 H   0  0  0  0  0  0
  -23.9909  -27.3449   18.9643 H   0  0  0  0  0  0
  -23.6990  -30.6179   19.4080 H   0  0  0  0  0  0
  -22.7301  -29.2526   19.8744 H   0  0  0  0  0  0
  -25.1272  -36.2039   25.0825 H   0  0  0  0  0  0
  -20.9959  -28.3279   24.1431 H   0  0  0  0  0  0
  -20.5776  -26.2282   23.3584 H   0  0  0  0  0  0
  -21.6681  -26.7544   22.1167 H   0  0  0  0  0  0
  -19.6975  -25.6313   21.1259 H   0  0  0  0  0  0
  -19.6755  -27.3226   20.6758 H   0  0  0  0  0  0
  -17.4229  -26.6707   21.3987 H   0  0  0  0  0  0
  -18.0333  -26.0087   22.9018 H   0  0  0  0  0  0
  -19.7938  -30.7223   24.2358 H   0  0  0  0  0  0
  -17.5034  -31.6292   24.5154 H   0  0  0  0  0  0
  -15.5356  -30.3007   23.7672 H   0  0  0  0  0  0
  -15.8664  -28.0832   22.7073 H   0  0  0  0  0  0
  -24.5860  -30.7018   25.7723 H   0  0  0  0  0  0
  -24.8814  -32.2785   26.4930 H   0  0  0  0  0  0
  -25.7992  -30.8781   27.0185 H   0  0  0  0  0  0
  -26.2844  -29.6728   24.1227 H   0  0  0  0  0  0
  -27.4190  -29.7364   25.4520 H   0  0  0  0  0  0
  -27.8596  -30.4412   23.9157 H   0  0  0  0  0  0
  -27.2699  -33.3660   26.2030 H   0  0  0  0  0  0
  -28.3787  -32.6842   25.0194 H   0  0  0  0  0  0
  -28.0734  -31.8438   26.5317 H   0  0  0  0  0  0
  -28.2605  -38.0107   24.7520 H   0  0  0  0  0  0
  -28.1107  -36.2636   24.6292 H   0  0  0  0  0  0
  -27.2298  -37.1461   25.8858 H   0  0  0  0  0  0
  -20.9301  -29.8777   21.6903 H   0  0  0  0  0  0
  -26.0220  -38.2904   24.1382 H   0  0  0  0  0  0
  -30.5898  -17.3044   22.0664 H   0  0  0  0  0  0
  -31.7323  -17.7197   23.3250 H   0  0  0  0  0  0
  -28.5715  -15.0646   24.5585 H   0  0  0  0  0  0
  -28.5098  -15.5566   22.8881 H   0  0  0  0  0  0
  -32.4514  -15.3352   23.4658 H   0  0  0  0  0  0
  -32.6255  -15.9325   21.8551 H   0  0  0  0  0  0
  -29.6731  -13.2386   23.2434 H   0  0  0  0  0  0
  -30.8327  -14.0327   24.1836 H   0  0  0  0  0  0
  -30.5264  -16.4342   24.9746 H   0  0  0  0  0  0
  -28.5008  -19.6225   18.5328 H   0  0  0  0  0  0
  -27.9729  -17.9725   18.3060 H   0  0  0  0  0  0
  -29.7246  -18.7217   24.6385 H   0  0  0  0  0  0
  -28.4497  -17.6721   25.1664 H   0  0  0  0  0  0
  -24.9127  -22.2682   18.2636 H   0  0  0  0  0  0
  -24.0991  -20.7238   18.2700 H   0  0  0  0  0  0
  -24.4217  -20.5885   20.7728 H   0  0  0  0  0  0
  -23.4262  -21.9506   20.2961 H   0  0  0  0  0  0
  -29.2127  -25.1150   21.1357 H   0  0  0  0  0  0
  -28.5995  -26.3860   22.1563 H   0  0  0  0  0  0
  -28.0881  -20.5540   20.8249 H   0  0  0  0  0  0
  -26.7995  -19.5638   21.4968 H   0  0  0  0  0  0
  -28.5424  -20.2462   23.1631 H   0  0  0  0  0  0
  -29.7595  -19.3788   22.2610 H   0  0  0  0  0  0
  -26.8297  -24.4352   20.5725 H   0  0  0  0  0  0
  -26.2577  -25.6816   21.6829 H   0  0  0  0  0  0
  -24.4270  -22.0385   22.6797 H   0  0  0  0  0  0
  -26.0860  -21.5040   22.5439 H   0  0  0  0  0  0
  -25.8923  -23.4265   24.0525 H   0  0  0  0  0  0
  -25.0644  -24.3724   22.8589 H   0  0  0  0  0  0
  -26.9646  -21.2589   18.8311 H   0  0  0  0  0  0
  1 25  1  0  0  0
  1 30  2  0  0  0
  1 87  1  0  0  0
  2  3  1  0  0  0
  2 25  1  0  0  0
  2 94  1  0  0  0
  2 95  1  0  0  0
  3  4  1  0  0  0
  3 96  1  0  0  0
  3 97  1  0  0  0
  4  5  1  0  0  0
  4 98  1  0  0  0
  4 99  1  0  0  0
  5  6  1  0  0  0
  5 26  1  0  0  0
  5100  1  0  0  0
  6 25  1  0  0  0
  6101  1  0  0  0
  6102  1  0  0  0
  7  8  2  0  0  0
  7 26  1  0  0  0
  7 29  1  0  0  0
  8  9  1  0  0  0
  8 22  1  0  0  0
  9 10  1  0  0  0
  9 27  2  0  0  0
 10 11  2  0  0  0
 10 15  1  0  0  0
 11 12  1  0  0  0
 11103  1  0  0  0
 12 13  2  0  0  0
 12104  1  0  0  0
 13 14  1  0  0  0
 13 31  1  0  0  0
 14 15  2  0  0  0
 14105  1  0  0  0
 15106  1  0  0  0
 16 17  2  0  0  0
 16 21  1  0  0  0
 16 31  1  0  0  0
 17 18  1  0  0  0
 17107  1  0  0  0
 18 19  2  0  0  0
 18108  1  0  0  0
 19 20  1  0  0  0
 19 24  1  0  0  0
 20 21  2  0  0  0
 20109  1  0  0  0
 21 23  1  0  0  0
 22 28  1  0  0  0
 22 32  2  0  0  0
 26 27  1  0  0  0
 28110  1  0  0  0
 28111  1  0  0  0
 29112  1  0  0  0
 29113  1  0  0  0
 33 34  1  0  0  0
 33 66  1  0  0  0
 33 70  2  0  0  0
 34 36  1  0  0  0
 34 59  1  0  0  0
 34114  1  0  0  0
 35 44  2  0  0  0
 35 45  1  0  0  0
 35 68  1  0  0  0
 36 56  1  0  0  0
 36115  1  0  0  0
 37 39  1  0  0  0
 37 47  1  0  0  0
 37 66  1  0  0  0
 37116  1  0  0  0
 38 43  2  0  0  0
 38 46  1  0  0  0
 38 47  1  0  0  0
 39 64  1  0  0  0
 39 67  2  0  0  0
 40 52  1  0  0  0
 40 53  2  0  0  0
 40 58  1  0  0  0
 41117  1  0  0  0
 41118  1  0  0  0
 41119  1  0  0  0
 41 48  1  0  0  0
 42 43  1  0  0  0
 42 66  1  0  0  0
 42120  1  0  0  0
 42121  1  0  0  0
 43 44  1  0  0  0
 44122  1  0  0  0
 45 46  2  0  0  0
 45123  1  0  0  0
 46124  1  0  0  0
 47125  1  0  0  0
 47126  1  0  0  0
 48 56  1  0  0  0
 48 65  1  0  0  0
 48127  1  0  0  0
 49 50  1  0  0  0
 49 53  1  0  0  0
 49 64  1  0  0  0
 49128  1  0  0  0
 50 51  1  0  0  0
 50129  1  0  0  0
 50130  1  0  0  0
 51 52  1  0  0  0
 51131  1  0  0  0
 51132  1  0  0  0
 52133  1  0  0  0
 52134  1  0  0  0
 53 54  1  0  0  0
 54 55  2  0  0  0
 54135  1  0  0  0
 55 57  1  0  0  0
 55136  1  0  0  0
 56 69  2  0  0  0
 57 58  2  0  0  0
 57137  1  0  0  0
 58138  1  0  0  0
 59 60  1  0  0  0
 59 61  1  0  0  0
 59 62  1  0  0  0
 60139  1  0  0  0
 60140  1  0  0  0
 60141  1  0  0  0
 61142  1  0  0  0
 61143  1  0  0  0
 61144  1  0  0  0
 62145  1  0  0  0
 62146  1  0  0  0
 62147  1  0  0  0
 63 65  1  0  0  0
 63148  1  0  0  0
 63149  1  0  0  0
 63150  1  0  0  0
 64151  1  0  0  0
 65152  1  0  0  0
 68 81  1  0  0  0
 71 77  1  0  0  0
 71 88  1  0  0  0
 71 89  2  0  0  0
 72 74  1  0  0  0
 72 76  1  0  0  0
 72153  1  0  0  0
 72154  1  0  0  0
 73 75  1  0  0  0
 73 76  1  0  0  0
 73155  1  0  0  0
 73156  1  0  0  0
 74 87  1  0  0  0
 74157  1  0  0  0
 74158  1  0  0  0
 75 87  1  0  0  0
 75159  1  0  0  0
 75160  1  0  0  0
 76 78  1  0  0  0
 76161  1  0  0  0
 77 90  1  0  0  0
 77162  1  0  0  0
 77163  1  0  0  0
 78 91  1  0  0  0
 78164  1  0  0  0
 78165  1  0  0  0
 79 80  1  0  0  0
 79 88  1  0  0  0
 79166  1  0  0  0
 79167  1  0  0  0
 80 92  1  0  0  0
 80168  1  0  0  0
 80169  1  0  0  0
 81 84  1  0  0  0
 81170  1  0  0  0
 81171  1  0  0  0
 82 83  1  0  0  0
 82 90  1  0  0  0
 82172  1  0  0  0
 82173  1  0  0  0
 83 91  1  0  0  0
 83174  1  0  0  0
 83175  1  0  0  0
 84 93  1  0  0  0
 84176  1  0  0  0
 84177  1  0  0  0
 85 86  1  0  0  0
 85 92  1  0  0  0
 85178  1  0  0  0
 85179  1  0  0  0
 86 93  1  0  0  0
 86180  1  0  0  0
 86181  1  0  0  0
 88182  1  0  0  0
M  ISO  4   1 100  68 101  81 101  87 100
M  END
> <chiral flag>
0

> <version>
0

> <s_m_source_file>
/data/baiqing/PycharmProjects/Reinvent-master-3.2/result/LINK_invent/BTK/process_docking_weight1_custom_sum_contain_oxygen_bond_distance_aromatic_linkinvent_7_9_3/rearranged_h_0000.sdf

> <i_m_source_file_index>
27

> <r_mmod_Potential_Energy-OPLS-2005>
134.719299316406

> <r_mmod_Stretch_Energy-OPLS-2005>
40.7788848876953

> <r_mmod_Bend_Energy-OPLS-2005>
125.173217773438

> <r_mmod_Torsional_Energy-OPLS-2005>
333.015350341797

> <r_mmod_Improper_Torsional_Energy-OPLS-2005>
6.41225671768188

> <r_mmod_Van_der_Waal_Energy-OPLS-2005>
153.448532104492

> <r_mmod_Electrostatic_Energy-OPLS-2005>
-304.104278564453

> <r_mmod_Solvation_Energy-OPLS-2005>
-238.273910522461

> <b_mmod_Minimization_Converged-OPLS-2005>
0

> <r_mmod_RMS_Derivative-OPLS-2005>
4.26002550125122

$$$$
29
                    3D
 Structure written by MMmdl.
153161  0  0  1  0            999 V2000
  -30.6158  -14.6487   20.4806 C   0  0  0  0  0  0
  -30.4435  -12.3939   19.4478 C   0  0  0  0  0  0
  -29.5094  -12.5023   18.2216 C   0  0  0  0  0  0
  -28.0319  -12.3411   18.6357 C   0  0  0  0  0  0
  -27.6528  -13.2151   19.8609 C   0  0  2  0  0  0
  -28.7020  -13.0775   20.9873 C   0  0  0  0  0  0
  -25.2563  -13.8174   20.5701 C   0  0  0  0  0  0
  -24.1826  -13.0427   20.9164 C   0  0  0  0  0  0
  -24.6400  -11.6903   20.8722 C   0  0  0  0  0  0
  -23.9066  -10.4288   21.0394 C   0  0  0  0  0  0
  -24.3617   -9.4210   21.9179 C   0  0  0  0  0  0
  -23.6291   -8.2248   22.0756 C   0  0  0  0  0  0
  -22.4271   -8.0284   21.3543 C   0  0  0  0  0  0
  -21.9902   -9.0257   20.4646 C   0  0  0  0  0  0
  -22.7237  -10.2132   20.3049 C   0  0  0  0  0  0
  -21.6853   -6.0737   22.5277 C   0  0  0  0  0  0
  -21.4017   -6.5642   23.8212 C   0  0  0  0  0  0
  -21.3657   -5.6792   24.9174 C   0  0  0  0  0  0
  -21.6041   -4.3054   24.7224 C   0  0  0  0  0  0
  -21.8820   -3.8145   23.4346 C   0  0  0  0  0  0
  -21.9193   -4.6964   22.3402 C   0  0  0  0  0  0
  -22.7848  -13.5223   21.1835 C   0  0  0  0  0  0
  -22.1661   -4.2150   21.0978 F   0  0  0  0  0  0
  -21.5624   -3.4538   25.7737 F   0  0  0  0  0  0
  -30.0146  -13.4193   20.4164 N   0  0  0  0  0  0
  -26.2997  -12.9355   20.3325 N   0  0  0  0  0  0
  -25.9332  -11.6506   20.5753 N   0  0  0  0  0  0
  -22.0487  -12.8226   22.0400 N   0  0  0  0  0  0
  -25.4195  -15.1922   20.4239 N   0  0  0  0  0  0
  -31.7969  -14.8088   20.1587 O   0  0  0  0  0  0
  -21.6639   -6.8881   21.4242 O   0  0  0  0  0  0
  -22.3532  -14.5533   20.6694 O   0  0  0  0  0  0
  -24.6266  -31.8600   23.2035 C   0  0  0  0  0  0
  -25.9114  -32.4778   23.8361 C   0  0  1  0  0  0
  -27.2232  -27.3185   20.1092 C   0  0  0  0  0  0
  -25.5928  -33.8579   24.2287 N   0  0  0  0  0  0
  -23.4199  -30.4846   21.5468 C   0  0  2  0  0  0
  -24.8656  -28.9430   20.1099 C   0  0  0  0  0  0
  -22.7479  -29.4620   22.4938 C   0  0  0  0  0  0
  -18.0289  -28.1380   22.8484 C   0  0  0  0  0  0
  -24.1490  -36.7294   23.2640 C   0  0  0  0  0  0
  -25.9625  -30.7894   21.3764 C   0  0  0  0  0  0
  -26.0356  -29.4183   20.7151 C   0  0  0  0  0  0
  -27.2172  -28.6178   20.7062 C   0  0  0  0  0  0
  -26.0276  -26.9007   19.4778 C   0  0  0  0  0  0
  -24.8635  -27.6895   19.4826 C   0  0  0  0  0  0
  -23.6339  -29.8230   20.1610 C   0  0  0  0  0  0
  -25.4113  -36.3083   24.0332 C   0  0  1  0  0  0
  -20.5889  -28.3685   23.1281 C   0  0  2  0  0  0
  -20.6778  -26.9409   22.5406 C   0  0  0  0  0  0
  -19.5751  -26.6380   21.5210 C   0  0  0  0  0  0
  -18.1933  -26.7924   22.1624 C   0  0  0  0  0  0
  -19.1541  -28.8851   23.2877 C   0  0  0  0  0  0
  -18.9463  -30.1453   23.8895 C   0  0  0  0  0  0
  -17.6462  -30.6581   24.0564 C   0  0  0  0  0  0
  -25.9048  -34.9451   23.5108 C   0  0  0  0  0  0
  -16.5355  -29.9078   23.6329 C   0  0  0  0  0  0
  -16.7276  -28.6495   23.0351 C   0  0  0  0  0  0
  -26.4496  -31.6586   25.0731 C   0  0  0  0  0  0
  -25.3730  -31.3728   26.1460 C   0  0  0  0  0  0
  -27.0339  -30.3009   24.6189 C   0  0  0  0  0  0
  -27.6058  -32.4322   25.7495 C   0  0  0  0  0  0
  -27.5576  -37.1806   24.8466 C   0  0  0  0  0  0
  -21.4192  -29.3037   22.3677 N   0  0  0  0  0  0
  -26.4294  -37.3773   23.9401 N   0  0  0  0  0  0
  -24.6884  -31.0611   22.0989 N   0  0  0  0  0  0
  -23.4202  -28.8157   23.3016 O   0  0  0  0  0  0
  -28.3388  -26.4632   20.1608 O   0  0  0  0  0  0
  -26.5613  -34.8916   22.4672 O   0  0  0  0  0  0
  -23.5429  -32.1402   23.7361 O   0  0  0  0  0  0
  -31.0173  -17.8956   21.0170 C   0  0  0  0  0  0
  -31.0035  -19.3227   20.9961 C   0  0  0  0  0  0
  -28.7782  -19.3258   20.0851 C   0  0  0  0  0  0
  -29.9002  -17.1454   20.5758 C   0  0  0  0  0  0
  -28.7903  -17.8942   20.0936 C   0  0  0  0  0  0
  -29.8889  -20.0833   20.5466 C   0  0  0  0  0  0
  -29.2274  -23.9532   20.3712 C   0  0  0  0  0  0
  -28.1103  -25.0096   19.9667 C   0  0  0  0  0  0
  -28.8941  -22.3972   20.2027 C   0  0  0  0  0  0
  -27.6922  -17.1932   19.5918 N   0  0  0  0  0  0
  -29.7640  -15.6967   20.6926 N   0  0  0  0  0  0
  -29.9784  -21.4927   20.5909 O   0  0  0  0  0  0
  -31.4841  -12.5251   19.1447 H   0  0  0  0  0  0
  -30.3828  -11.4009   19.8962 H   0  0  0  0  0  0
  -29.7732  -11.7483   17.4793 H   0  0  0  0  0  0
  -29.6509  -13.4701   17.7374 H   0  0  0  0  0  0
  -27.8700  -11.2884   18.8711 H   0  0  0  0  0  0
  -27.3773  -12.5674   17.7932 H   0  0  0  0  0  0
  -27.6629  -14.2467   19.5124 H   0  0  0  0  0  0
  -28.7166  -12.0587   21.3772 H   0  0  0  0  0  0
  -28.4537  -13.7184   21.8349 H   0  0  0  0  0  0
  -25.2766   -9.5685   22.4749 H   0  0  0  0  0  0
  -23.9997   -7.4641   22.7478 H   0  0  0  0  0  0
  -21.0830   -8.8782   19.8955 H   0  0  0  0  0  0
  -22.3702  -10.9670   19.6154 H   0  0  0  0  0  0
  -21.2016   -7.6151   23.9718 H   0  0  0  0  0  0
  -21.1473   -6.0520   25.9073 H   0  0  0  0  0  0
  -22.0600   -2.7609   23.2848 H   0  0  0  0  0  0
  -22.4105  -11.9895   22.4800 H   0  0  0  0  0  0
  -21.1106  -13.1260   22.2598 H   0  0  0  0  0  0
  -24.6441  -15.8304   20.5618 H   0  0  0  0  0  0
  -26.2794  -15.6854   20.1906 H   0  0  0  0  0  0
  -26.7182  -32.5444   23.1110 H   0  0  0  0  0  0
  -25.0079  -33.9724   25.0434 H   0  0  0  0  0  0
  -22.7133  -31.3052   21.4060 H   0  0  0  0  0  0
  -23.3743  -35.9636   23.3320 H   0  0  0  0  0  0
  -24.3579  -36.8894   22.2050 H   0  0  0  0  0  0
  -23.7256  -37.6509   23.6647 H   0  0  0  0  0  0
  -26.0980  -31.5545   20.6110 H   0  0  0  0  0  0
  -26.8417  -30.8340   22.0077 H   0  0  0  0  0  0
  -28.1140  -28.9771   21.1915 H   0  0  0  0  0  0
  -25.9581  -25.9463   18.9786 H   0  0  0  0  0  0
  -23.9678  -27.3204   19.0019 H   0  0  0  0  0  0
  -23.7529  -30.6018   19.4069 H   0  0  0  0  0  0
  -22.7535  -29.2536   19.8575 H   0  0  0  0  0  0
  -25.1295  -36.1942   25.0826 H   0  0  0  0  0  0
  -20.9980  -28.3261   24.1404 H   0  0  0  0  0  0
  -20.5683  -26.2296   23.3605 H   0  0  0  0  0  0
  -21.6648  -26.7439   22.1198 H   0  0  0  0  0  0
  -19.6913  -25.6292   21.1238 H   0  0  0  0  0  0
  -19.6684  -27.3192   20.6742 H   0  0  0  0  0  0
  -17.4201  -26.6671   21.4029 H   0  0  0  0  0  0
  -18.0333  -26.0064   22.9019 H   0  0  0  0  0  0
  -19.7940  -30.7270   24.2263 H   0  0  0  0  0  0
  -17.5016  -31.6263   24.5163 H   0  0  0  0  0  0
  -15.5355  -30.2980   23.7648 H   0  0  0  0  0  0
  -15.8677  -28.0811   22.7068 H   0  0  0  0  0  0
  -24.5892  -30.7092   25.7788 H   0  0  0  0  0  0
  -24.8938  -32.2899   26.4898 H   0  0  0  0  0  0
  -25.8052  -30.8890   27.0227 H   0  0  0  0  0  0
  -26.2914  -29.6756   24.1214 H   0  0  0  0  0  0
  -27.4038  -29.7267   25.4694 H   0  0  0  0  0  0
  -27.8785  -30.4295   23.9416 H   0  0  0  0  0  0
  -27.2670  -33.3619   26.2079 H   0  0  0  0  0  0
  -28.3859  -32.6887   25.0315 H   0  0  0  0  0  0
  -28.0737  -31.8446   26.5404 H   0  0  0  0  0  0
  -28.2610  -38.0086   24.7490 H   0  0  0  0  0  0
  -28.1057  -36.2619   24.6322 H   0  0  0  0  0  0
  -27.2293  -37.1493   25.8870 H   0  0  0  0  0  0
  -20.9370  -29.8769   21.6893 H   0  0  0  0  0  0
  -26.0179  -38.2855   24.1380 H   0  0  0  0  0  0
  -31.8863  -17.3849   21.4064 H   0  0  0  0  0  0
  -31.8766  -19.8483   21.3556 H   0  0  0  0  0  0
  -27.9070  -19.8448   19.7135 H   0  0  0  0  0  0
  -29.4968  -24.1291   21.4125 H   0  0  0  0  0  0
  -30.1256  -24.1737   19.7949 H   0  0  0  0  0  0
  -27.2123  -24.7299   20.5197 H   0  0  0  0  0  0
  -27.8861  -24.8494   18.9113 H   0  0  0  0  0  0
  -28.6311  -22.1971   19.1632 H   0  0  0  0  0  0
  -28.0126  -22.1557   20.7980 H   0  0  0  0  0  0
  -27.0097  -17.7712   19.1126 H   0  0  0  0  0  0
  -27.9589  -16.4219   18.9912 H   0  0  0  0  0  0
  -28.8031  -15.4089   20.7959 H   0  0  0  0  0  0
  1 25  1  0  0  0
  1 30  2  0  0  0
  1 81  1  0  0  0
  2  3  1  0  0  0
  2 25  1  0  0  0
  2 83  1  0  0  0
  2 84  1  0  0  0
  3  4  1  0  0  0
  3 85  1  0  0  0
  3 86  1  0  0  0
  4  5  1  0  0  0
  4 87  1  0  0  0
  4 88  1  0  0  0
  5  6  1  0  0  0
  5 26  1  0  0  0
  5 89  1  0  0  0
  6 25  1  0  0  0
  6 90  1  0  0  0
  6 91  1  0  0  0
  7  8  2  0  0  0
  7 26  1  0  0  0
  7 29  1  0  0  0
  8  9  1  0  0  0
  8 22  1  0  0  0
  9 10  1  0  0  0
  9 27  2  0  0  0
 10 11  2  0  0  0
 10 15  1  0  0  0
 11 12  1  0  0  0
 11 92  1  0  0  0
 12 13  2  0  0  0
 12 93  1  0  0  0
 13 14  1  0  0  0
 13 31  1  0  0  0
 14 15  2  0  0  0
 14 94  1  0  0  0
 15 95  1  0  0  0
 16 17  2  0  0  0
 16 21  1  0  0  0
 16 31  1  0  0  0
 17 18  1  0  0  0
 17 96  1  0  0  0
 18 19  2  0  0  0
 18 97  1  0  0  0
 19 20  1  0  0  0
 19 24  1  0  0  0
 20 21  2  0  0  0
 20 98  1  0  0  0
 21 23  1  0  0  0
 22 28  1  0  0  0
 22 32  2  0  0  0
 26 27  1  0  0  0
 28 99  1  0  0  0
 28100  1  0  0  0
 29101  1  0  0  0
 29102  1  0  0  0
 33 34  1  0  0  0
 33 66  1  0  0  0
 33 70  2  0  0  0
 34 36  1  0  0  0
 34 59  1  0  0  0
 34103  1  0  0  0
 35 44  2  0  0  0
 35 45  1  0  0  0
 35 68  1  0  0  0
 36 56  1  0  0  0
 36104  1  0  0  0
 37 39  1  0  0  0
 37 47  1  0  0  0
 37 66  1  0  0  0
 37105  1  0  0  0
 38 43  2  0  0  0
 38 46  1  0  0  0
 38 47  1  0  0  0
 39 64  1  0  0  0
 39 67  2  0  0  0
 40 52  1  0  0  0
 40 53  2  0  0  0
 40 58  1  0  0  0
 41106  1  0  0  0
 41107  1  0  0  0
 41108  1  0  0  0
 41 48  1  0  0  0
 42 43  1  0  0  0
 42 66  1  0  0  0
 42109  1  0  0  0
 42110  1  0  0  0
 43 44  1  0  0  0
 44111  1  0  0  0
 45 46  2  0  0  0
 45112  1  0  0  0
 46113  1  0  0  0
 47114  1  0  0  0
 47115  1  0  0  0
 48 56  1  0  0  0
 48 65  1  0  0  0
 48116  1  0  0  0
 49 50  1  0  0  0
 49 53  1  0  0  0
 49 64  1  0  0  0
 49117  1  0  0  0
 50 51  1  0  0  0
 50118  1  0  0  0
 50119  1  0  0  0
 51 52  1  0  0  0
 51120  1  0  0  0
 51121  1  0  0  0
 52122  1  0  0  0
 52123  1  0  0  0
 53 54  1  0  0  0
 54 55  2  0  0  0
 54124  1  0  0  0
 55 57  1  0  0  0
 55125  1  0  0  0
 56 69  2  0  0  0
 57 58  2  0  0  0
 57126  1  0  0  0
 58127  1  0  0  0
 59 60  1  0  0  0
 59 61  1  0  0  0
 59 62  1  0  0  0
 60128  1  0  0  0
 60129  1  0  0  0
 60130  1  0  0  0
 61131  1  0  0  0
 61132  1  0  0  0
 61133  1  0  0  0
 62134  1  0  0  0
 62135  1  0  0  0
 62136  1  0  0  0
 63 65  1  0  0  0
 63137  1  0  0  0
 63138  1  0  0  0
 63139  1  0  0  0
 64140  1  0  0  0
 65141  1  0  0  0
 68 78  1  0  0  0
 71 72  2  0  0  0
 71 74  1  0  0  0
 71142  1  0  0  0
 72 76  1  0  0  0
 72143  1  0  0  0
 73 75  1  0  0  0
 73 76  2  0  0  0
 73144  1  0  0  0
 74 75  2  0  0  0
 74 81  1  0  0  0
 75 80  1  0  0  0
 76 82  1  0  0  0
 77 78  1  0  0  0
 77 79  1  0  0  0
 77145  1  0  0  0
 77146  1  0  0  0
 78147  1  0  0  0
 78148  1  0  0  0
 79 82  1  0  0  0
 79149  1  0  0  0
 79150  1  0  0  0
 80151  1  0  0  0
 80152  1  0  0  0
 81153  1  0  0  0
M  ISO  4   1 100  68 101  78 101  81 100
M  END
> <chiral flag>
0

> <version>
0

> <s_m_source_file>
/data/baiqing/PycharmProjects/Reinvent-master-3.2/result/LINK_invent/BTK/process_docking_weight1_custom_sum_contain_oxygen_bond_distance_aromatic_linkinvent_7_9_3/rearranged_h_0000.sdf

> <i_m_source_file_index>
28

> <r_mmod_Potential_Energy-OPLS-2005>
-45.419075012207

> <r_mmod_Stretch_Energy-OPLS-2005>
77.1667785644531

> <r_mmod_Bend_Energy-OPLS-2005>
143.598175048828

> <r_mmod_Torsional_Energy-OPLS-2005>
225.850723266602

> <r_mmod_Improper_Torsional_Energy-OPLS-2005>
11.3645906448364

> <r_mmod_Van_der_Waal_Energy-OPLS-2005>
146.308181762695

> <r_mmod_Electrostatic_Energy-OPLS-2005>
-488.858123779297

> <r_mmod_Solvation_Energy-OPLS-2005>
-212.818878173828

> <b_mmod_Minimization_Converged-OPLS-2005>
0

> <r_mmod_RMS_Derivative-OPLS-2005>
0.688582718372345

$$$$
30
                    3D
 Structure written by MMmdl.
169177  0  0  1  0            999 V2000
  -30.7213  -14.4223   20.5873 C   0  0  0  0  0  0
  -30.4162  -12.2805   19.4177 C   0  0  0  0  0  0
  -29.4958  -12.5039   18.1993 C   0  0  0  0  0  0
  -28.0123  -12.3712   18.6006 C   0  0  0  0  0  0
  -27.6580  -13.2014   19.8641 C   0  0  2  0  0  0
  -28.6933  -12.9617   20.9828 C   0  0  0  0  0  0
  -25.2623  -13.8153   20.5751 C   0  0  0  0  0  0
  -24.1849  -13.0446   20.9174 C   0  0  0  0  0  0
  -24.6361  -11.6898   20.8675 C   0  0  0  0  0  0
  -23.9028  -10.4289   21.0353 C   0  0  0  0  0  0
  -24.3599   -9.4220   21.9130 C   0  0  0  0  0  0
  -23.6285   -8.2253   22.0723 C   0  0  0  0  0  0
  -22.4267   -8.0263   21.3529 C   0  0  0  0  0  0
  -21.9883   -9.0229   20.4630 C   0  0  0  0  0  0
  -22.7196  -10.2113   20.3018 C   0  0  0  0  0  0
  -21.6854   -6.0726   22.5293 C   0  0  0  0  0  0
  -21.4022   -6.5624   23.8227 C   0  0  0  0  0  0
  -21.3663   -5.6766   24.9182 C   0  0  0  0  0  0
  -21.6041   -4.3029   24.7221 C   0  0  0  0  0  0
  -21.8819   -3.8131   23.4342 C   0  0  0  0  0  0
  -21.9204   -4.6952   22.3406 C   0  0  0  0  0  0
  -22.7873  -13.5250   21.1850 C   0  0  0  0  0  0
  -22.1662   -4.2145   21.0982 F   0  0  0  0  0  0
  -21.5628   -3.4515   25.7735 F   0  0  0  0  0  0
  -30.0301  -13.2602   20.4424 N   0  0  0  0  0  0
  -26.3006  -12.9301   20.3275 N   0  0  0  0  0  0
  -25.9275  -11.6460   20.5631 N   0  0  0  0  0  0
  -22.0502  -12.8256   22.0404 N   0  0  0  0  0  0
  -25.4438  -15.1892   20.4383 N   0  0  0  0  0  0
  -31.8614  -14.5791   20.1350 O   0  0  0  0  0  0
  -21.6625   -6.8866   21.4249 O   0  0  0  0  0  0
  -22.3570  -14.5548   20.6660 O   0  0  0  0  0  0
  -24.6080  -31.8719   23.2135 C   0  0  0  0  0  0
  -25.9006  -32.4845   23.8405 C   0  0  1  0  0  0
  -27.2376  -27.4779   20.1006 C   0  0  0  0  0  0
  -25.5896  -33.8659   24.2355 N   0  0  0  0  0  0
  -23.3943  -30.4952   21.5507 C   0  0  2  0  0  0
  -24.8453  -28.9631   20.1184 C   0  0  0  0  0  0
  -22.7364  -29.4686   22.4989 C   0  0  0  0  0  0
  -18.0264  -28.1334   22.8508 C   0  0  0  0  0  0
  -24.1477  -36.7322   23.2636 C   0  0  0  0  0  0
  -25.9194  -30.8505   21.3637 C   0  0  0  0  0  0
  -25.9991  -29.4851   20.7165 C   0  0  0  0  0  0
  -27.2005  -28.7459   20.7131 C   0  0  0  0  0  0
  -26.0783  -26.9657   19.4845 C   0  0  0  0  0  0
  -24.8767  -27.6978   19.5010 C   0  0  0  0  0  0
  -23.6044  -29.8252   20.1655 C   0  0  0  0  0  0
  -25.4100  -36.3135   24.0344 C   0  0  1  0  0  0
  -20.5854  -28.3650   23.1317 C   0  0  2  0  0  0
  -20.6763  -26.9368   22.5454 C   0  0  0  0  0  0
  -19.5724  -26.6282   21.5281 C   0  0  0  0  0  0
  -18.1911  -26.7859   22.1676 C   0  0  0  0  0  0
  -19.1505  -28.8811   23.2912 C   0  0  0  0  0  0
  -18.9419  -30.1440   23.8878 C   0  0  0  0  0  0
  -17.6401  -30.6557   24.0531 C   0  0  0  0  0  0
  -25.9023  -34.9504   23.5135 C   0  0  0  0  0  0
  -16.5311  -29.9046   23.6285 C   0  0  0  0  0  0
  -16.7248  -28.6454   23.0321 C   0  0  0  0  0  0
  -26.4453  -31.6605   25.0710 C   0  0  0  0  0  0
  -25.3749  -31.3735   26.1481 C   0  0  0  0  0  0
  -27.0243  -30.3039   24.6069 C   0  0  0  0  0  0
  -27.6018  -32.4342   25.7467 C   0  0  0  0  0  0
  -27.5580  -37.1814   24.8460 C   0  0  0  0  0  0
  -21.4102  -29.3029   22.3719 N   0  0  0  0  0  0
  -26.4289  -37.3816   23.9415 N   0  0  0  0  0  0
  -24.6576  -31.0860   22.1011 N   0  0  0  0  0  0
  -23.4154  -28.8258   23.3031 O   0  0  0  0  0  0
  -28.3988  -26.7520   20.0694 O   0  0  0  0  0  0
  -26.5572  -34.8937   22.4683 O   0  0  0  0  0  0
  -23.5285  -32.1432   23.7560 O   0  0  0  0  0  0
  -28.0217  -19.1562   21.6878 C   0  0  0  0  0  0
  -29.9542  -18.0019   20.6669 C   0  0  0  0  0  0
  -28.7472  -16.9446   22.5604 C   0  0  0  0  0  0
  -29.9293  -16.6301   19.9740 C   0  0  0  0  0  0
  -29.8357  -15.8689   22.3413 C   0  0  0  0  0  0
  -27.0165  -19.2715   22.8497 C   0  0  0  0  0  0
  -28.5681  -25.8699   21.1788 C   0  0  0  0  0  0
  -25.5148  -20.7836   23.9131 C   0  0  0  0  0  0
  -27.8151  -24.5415   20.9745 C   0  0  0  0  0  0
  -25.0791  -22.2544   23.8628 C   0  0  0  0  0  0
  -25.6186  -23.6346   21.1578 C   0  0  0  0  0  0
  -24.3643  -23.6615   22.0556 C   0  0  0  0  0  0
  -28.8634  -18.0938   21.6468 N   0  0  0  0  0  0
  -29.9759  -15.4988   20.9225 N   0  0  0  0  0  0
  -28.0531  -20.0562   20.8398 O   0  0  0  0  0  0
  -26.4093  -20.5615   22.8322 O   0  0  0  0  0  0
  -26.5428  -24.6152   21.6080 O   0  0  0  0  0  0
  -24.2027  -22.4294   22.7526 O   0  0  0  0  0  0
  -31.4633  -12.3660   19.1216 H   0  0  0  0  0  0
  -30.2970  -11.2672   19.8067 H   0  0  0  0  0  0
  -29.7349  -11.7891   17.4108 H   0  0  0  0  0  0
  -29.6766  -13.4932   17.7756 H   0  0  0  0  0  0
  -27.8137  -11.3153   18.7819 H   0  0  0  0  0  0
  -27.3691  -12.6533   17.7663 H   0  0  0  0  0  0
  -27.7073  -14.2512   19.5782 H   0  0  0  0  0  0
  -28.6594  -11.9223   21.3105 H   0  0  0  0  0  0
  -28.4417  -13.5536   21.8591 H   0  0  0  0  0  0
  -25.2766   -9.5703   22.4660 H   0  0  0  0  0  0
  -24.0013   -7.4654   22.7439 H   0  0  0  0  0  0
  -21.0808   -8.8723   19.8953 H   0  0  0  0  0  0
  -22.3641  -10.9621   19.6099 H   0  0  0  0  0  0
  -21.2001   -7.6128   23.9742 H   0  0  0  0  0  0
  -21.1493   -6.0481   25.9090 H   0  0  0  0  0  0
  -22.0598   -2.7592   23.2841 H   0  0  0  0  0  0
  -22.4122  -11.9942   22.4841 H   0  0  0  0  0  0
  -21.1102  -13.1263   22.2565 H   0  0  0  0  0  0
  -24.6939  -15.8513   20.6009 H   0  0  0  0  0  0
  -26.3194  -15.6290   20.1894 H   0  0  0  0  0  0
  -26.7095  -32.5580   23.1193 H   0  0  0  0  0  0
  -25.0097  -33.9828   25.0534 H   0  0  0  0  0  0
  -22.6801  -31.3091   21.4135 H   0  0  0  0  0  0
  -23.3747  -35.9645   23.3300 H   0  0  0  0  0  0
  -24.3569  -36.8915   22.2046 H   0  0  0  0  0  0
  -23.7222  -37.6531   23.6630 H   0  0  0  0  0  0
  -26.0263  -31.6176   20.5939 H   0  0  0  0  0  0
  -26.8085  -30.9039   21.9809 H   0  0  0  0  0  0
  -28.0913  -29.1506   21.1748 H   0  0  0  0  0  0
  -26.1101  -26.0037   18.9933 H   0  0  0  0  0  0
  -23.9937  -27.2869   19.0323 H   0  0  0  0  0  0
  -23.7099  -30.5970   19.4024 H   0  0  0  0  0  0
  -22.7287  -29.2411   19.8741 H   0  0  0  0  0  0
  -25.1281  -36.1996   25.0839 H   0  0  0  0  0  0
  -20.9941  -28.3250   24.1438 H   0  0  0  0  0  0
  -20.5678  -26.2283   23.3676 H   0  0  0  0  0  0
  -21.6628  -26.7371   22.1244 H   0  0  0  0  0  0
  -19.6860  -25.6162   21.1373 H   0  0  0  0  0  0
  -19.6645  -27.3030   20.6759 H   0  0  0  0  0  0
  -17.4206  -26.6595   21.4055 H   0  0  0  0  0  0
  -18.0237  -26.0011   22.9069 H   0  0  0  0  0  0
  -19.7885  -30.7298   24.2210 H   0  0  0  0  0  0
  -17.4941  -31.6224   24.5150 H   0  0  0  0  0  0
  -15.5309  -30.2939   23.7595 H   0  0  0  0  0  0
  -15.8649  -28.0770   22.7028 H   0  0  0  0  0  0
  -24.5872  -30.7127   25.7850 H   0  0  0  0  0  0
  -24.9005  -32.2909   26.4979 H   0  0  0  0  0  0
  -25.8113  -30.8868   27.0213 H   0  0  0  0  0  0
  -26.2763  -29.6852   24.1103 H   0  0  0  0  0  0
  -27.3969  -29.7232   25.4517 H   0  0  0  0  0  0
  -27.8623  -30.4335   23.9225 H   0  0  0  0  0  0
  -27.2601  -33.3630   26.2065 H   0  0  0  0  0  0
  -28.3798  -32.6943   25.0276 H   0  0  0  0  0  0
  -28.0717  -31.8476   26.5364 H   0  0  0  0  0  0
  -28.2613  -38.0102   24.7519 H   0  0  0  0  0  0
  -28.1064  -36.2638   24.6271 H   0  0  0  0  0  0
  -27.2304  -37.1453   25.8867 H   0  0  0  0  0  0
  -20.9226  -29.8760   21.6986 H   0  0  0  0  0  0
  -26.0174  -38.2890   24.1432 H   0  0  0  0  0  0
  -29.9148  -18.7824   19.9060 H   0  0  0  0  0  0
  -30.9065  -18.1535   21.1804 H   0  0  0  0  0  0
  -28.7905  -17.2800   23.5972 H   0  0  0  0  0  0
  -27.7668  -16.4863   22.4149 H   0  0  0  0  0  0
  -30.7416  -16.5960   19.2440 H   0  0  0  0  0  0
  -29.0125  -16.5338   19.3914 H   0  0  0  0  0  0
  -29.6076  -15.0017   22.9599 H   0  0  0  0  0  0
  -30.7958  -16.2387   22.7038 H   0  0  0  0  0  0
  -27.5452  -19.1447   23.7946 H   0  0  0  0  0  0
  -26.2624  -18.4874   22.7710 H   0  0  0  0  0  0
  -29.6345  -25.6613   21.2590 H   0  0  0  0  0  0
  -28.2840  -26.3469   22.1186 H   0  0  0  0  0  0
  -24.6564  -20.1113   23.8565 H   0  0  0  0  0  0
  -26.0221  -20.5872   24.8589 H   0  0  0  0  0  0
  -28.3797  -23.7238   21.4266 H   0  0  0  0  0  0
  -27.7319  -24.3196   19.9097 H   0  0  0  0  0  0
  -25.9659  -22.8901   23.8098 H   0  0  0  0  0  0
  -24.5459  -22.5280   24.7745 H   0  0  0  0  0  0
  -25.3438  -23.8450   20.1232 H   0  0  0  0  0  0
  -26.0699  -22.6409   21.1659 H   0  0  0  0  0  0
  -23.4808  -23.8070   21.4323 H   0  0  0  0  0  0
  -24.3836  -24.5021   22.7537 H   0  0  0  0  0  0
  1 25  1  0  0  0
  1 30  2  0  0  0
  1 84  1  0  0  0
  2  3  1  0  0  0
  2 25  1  0  0  0
  2 89  1  0  0  0
  2 90  1  0  0  0
  3  4  1  0  0  0
  3 91  1  0  0  0
  3 92  1  0  0  0
  4  5  1  0  0  0
  4 93  1  0  0  0
  4 94  1  0  0  0
  5  6  1  0  0  0
  5 26  1  0  0  0
  5 95  1  0  0  0
  6 25  1  0  0  0
  6 96  1  0  0  0
  6 97  1  0  0  0
  7  8  2  0  0  0
  7 26  1  0  0  0
  7 29  1  0  0  0
  8  9  1  0  0  0
  8 22  1  0  0  0
  9 10  1  0  0  0
  9 27  2  0  0  0
 10 11  2  0  0  0
 10 15  1  0  0  0
 11 12  1  0  0  0
 11 98  1  0  0  0
 12 13  2  0  0  0
 12 99  1  0  0  0
 13 14  1  0  0  0
 13 31  1  0  0  0
 14 15  2  0  0  0
 14100  1  0  0  0
 15101  1  0  0  0
 16 17  2  0  0  0
 16 21  1  0  0  0
 16 31  1  0  0  0
 17 18  1  0  0  0
 17102  1  0  0  0
 18 19  2  0  0  0
 18103  1  0  0  0
 19 20  1  0  0  0
 19 24  1  0  0  0
 20 21  2  0  0  0
 20104  1  0  0  0
 21 23  1  0  0  0
 22 28  1  0  0  0
 22 32  2  0  0  0
 26 27  1  0  0  0
 28105  1  0  0  0
 28106  1  0  0  0
 29107  1  0  0  0
 29108  1  0  0  0
 33 34  1  0  0  0
 33 66  1  0  0  0
 33 70  2  0  0  0
 34 36  1  0  0  0
 34 59  1  0  0  0
 34109  1  0  0  0
 35 44  2  0  0  0
 35 45  1  0  0  0
 35 68  1  0  0  0
 36 56  1  0  0  0
 36110  1  0  0  0
 37 39  1  0  0  0
 37 47  1  0  0  0
 37 66  1  0  0  0
 37111  1  0  0  0
 38 43  2  0  0  0
 38 46  1  0  0  0
 38 47  1  0  0  0
 39 64  1  0  0  0
 39 67  2  0  0  0
 40 52  1  0  0  0
 40 53  2  0  0  0
 40 58  1  0  0  0
 41112  1  0  0  0
 41113  1  0  0  0
 41114  1  0  0  0
 41 48  1  0  0  0
 42 43  1  0  0  0
 42 66  1  0  0  0
 42115  1  0  0  0
 42116  1  0  0  0
 43 44  1  0  0  0
 44117  1  0  0  0
 45 46  2  0  0  0
 45118  1  0  0  0
 46119  1  0  0  0
 47120  1  0  0  0
 47121  1  0  0  0
 48 56  1  0  0  0
 48 65  1  0  0  0
 48122  1  0  0  0
 49 50  1  0  0  0
 49 53  1  0  0  0
 49 64  1  0  0  0
 49123  1  0  0  0
 50 51  1  0  0  0
 50124  1  0  0  0
 50125  1  0  0  0
 51 52  1  0  0  0
 51126  1  0  0  0
 51127  1  0  0  0
 52128  1  0  0  0
 52129  1  0  0  0
 53 54  1  0  0  0
 54 55  2  0  0  0
 54130  1  0  0  0
 55 57  1  0  0  0
 55131  1  0  0  0
 56 69  2  0  0  0
 57 58  2  0  0  0
 57132  1  0  0  0
 58133  1  0  0  0
 59 60  1  0  0  0
 59 61  1  0  0  0
 59 62  1  0  0  0
 60134  1  0  0  0
 60135  1  0  0  0
 60136  1  0  0  0
 61137  1  0  0  0
 61138  1  0  0  0
 61139  1  0  0  0
 62140  1  0  0  0
 62141  1  0  0  0
 62142  1  0  0  0
 63 65  1  0  0  0
 63143  1  0  0  0
 63144  1  0  0  0
 63145  1  0  0  0
 64146  1  0  0  0
 65147  1  0  0  0
 68 77  1  0  0  0
 71 76  1  0  0  0
 71 83  1  0  0  0
 71 85  2  0  0  0
 72 74  1  0  0  0
 72 83  1  0  0  0
 72148  1  0  0  0
 72149  1  0  0  0
 73 75  1  0  0  0
 73 83  1  0  0  0
 73150  1  0  0  0
 73151  1  0  0  0
 74 84  1  0  0  0
 74152  1  0  0  0
 74153  1  0  0  0
 75 84  1  0  0  0
 75154  1  0  0  0
 75155  1  0  0  0
 76 86  1  0  0  0
 76156  1  0  0  0
 76157  1  0  0  0
 77 79  1  0  0  0
 77158  1  0  0  0
 77159  1  0  0  0
 78 80  1  0  0  0
 78 86  1  0  0  0
 78160  1  0  0  0
 78161  1  0  0  0
 79 87  1  0  0  0
 79162  1  0  0  0
 79163  1  0  0  0
 80 88  1  0  0  0
 80164  1  0  0  0
 80165  1  0  0  0
 81 82  1  0  0  0
 81 87  1  0  0  0
 81166  1  0  0  0
 81167  1  0  0  0
 82 88  1  0  0  0
 82168  1  0  0  0
 82169  1  0  0  0
M  ISO  4   1 100  68 101  77 101  84 100
M  END
> <chiral flag>
0

> <version>
0

> <s_m_source_file>
/data/baiqing/PycharmProjects/Reinvent-master-3.2/result/LINK_invent/BTK/process_docking_weight1_custom_sum_contain_oxygen_bond_distance_aromatic_linkinvent_7_9_3/rearranged_h_0000.sdf

> <i_m_source_file_index>
29

> <r_mmod_Potential_Energy-OPLS-2005>
256.907897949219

> <r_mmod_Stretch_Energy-OPLS-2005>
36.3697853088379

> <r_mmod_Bend_Energy-OPLS-2005>
95.3805389404297

> <r_mmod_Torsional_Energy-OPLS-2005>
414.692108154297

> <r_mmod_Improper_Torsional_Energy-OPLS-2005>
11.4516258239746

> <r_mmod_Van_der_Waal_Energy-OPLS-2005>
140.959197998047

> <r_mmod_Electrostatic_Energy-OPLS-2005>
-207.999176025391

> <r_mmod_Solvation_Energy-OPLS-2005>
-244.153198242188

> <b_mmod_Minimization_Converged-OPLS-2005>
0

> <r_mmod_RMS_Derivative-OPLS-2005>
3.16937136650085

$$$$
31
                    3D
 Structure written by MMmdl.
184192  0  0  1  0            999 V2000
  -30.8312  -14.2825   20.7463 C   0  0  0  0  0  0
  -30.4092  -12.2838   19.3720 C   0  0  0  0  0  0
  -29.4729  -12.5347   18.1804 C   0  0  0  0  0  0
  -28.0039  -12.3761   18.6074 C   0  0  0  0  0  0
  -27.6661  -13.2025   19.8751 C   0  0  2  0  0  0
  -28.7053  -12.9568   20.9913 C   0  0  0  0  0  0
  -25.2603  -13.8162   20.5661 C   0  0  0  0  0  0
  -24.1846  -13.0441   20.9160 C   0  0  0  0  0  0
  -24.6390  -11.6910   20.8725 C   0  0  0  0  0  0
  -23.9057  -10.4295   21.0397 C   0  0  0  0  0  0
  -24.3615   -9.4207   21.9171 C   0  0  0  0  0  0
  -23.6291   -8.2241   22.0751 C   0  0  0  0  0  0
  -22.4269   -8.0279   21.3548 C   0  0  0  0  0  0
  -21.9902   -9.0251   20.4650 C   0  0  0  0  0  0
  -22.7229  -10.2126   20.3051 C   0  0  0  0  0  0
  -21.6853   -6.0727   22.5280 C   0  0  0  0  0  0
  -21.4013   -6.5634   23.8213 C   0  0  0  0  0  0
  -21.3662   -5.6786   24.9170 C   0  0  0  0  0  0
  -21.6046   -4.3046   24.7219 C   0  0  0  0  0  0
  -21.8826   -3.8136   23.4342 C   0  0  0  0  0  0
  -21.9197   -4.6956   22.3398 C   0  0  0  0  0  0
  -22.7876  -13.5245   21.1832 C   0  0  0  0  0  0
  -22.1661   -4.2141   21.0975 F   0  0  0  0  0  0
  -21.5629   -3.4527   25.7731 F   0  0  0  0  0  0
  -30.0571  -13.2096   20.4570 N   0  0  0  0  0  0
  -26.3042  -12.9325   20.3355 N   0  0  0  0  0  0
  -25.9317  -11.6489   20.5752 N   0  0  0  0  0  0
  -22.0519  -12.8242   22.0393 N   0  0  0  0  0  0
  -25.4354  -15.1875   20.4106 N   0  0  0  0  0  0
  -31.7554  -14.6753   20.0270 O   0  0  0  0  0  0
  -21.6644   -6.8865   21.4236 O   0  0  0  0  0  0
  -22.3566  -14.5551   20.6682 O   0  0  0  0  0  0
  -24.6070  -31.8721   23.2131 C   0  0  0  0  0  0
  -25.8980  -32.4842   23.8422 C   0  0  1  0  0  0
  -27.2584  -27.4839   20.1033 C   0  0  0  0  0  0
  -25.5864  -33.8632   24.2359 N   0  0  0  0  0  0
  -23.3947  -30.4945   21.5519 C   0  0  2  0  0  0
  -24.8444  -28.9585   20.1218 C   0  0  0  0  0  0
  -22.7386  -29.4689   22.5017 C   0  0  0  0  0  0
  -18.0273  -28.1395   22.8506 C   0  0  0  0  0  0
  -24.1467  -36.7315   23.2637 C   0  0  0  0  0  0
  -25.9137  -30.8526   21.3566 C   0  0  0  0  0  0
  -25.9960  -29.4841   20.7195 C   0  0  0  0  0  0
  -27.1992  -28.7535   20.7228 C   0  0  0  0  0  0
  -26.0887  -26.9613   19.5103 C   0  0  0  0  0  0
  -24.8815  -27.6892   19.5171 C   0  0  0  0  0  0
  -23.6032  -29.8226   20.1665 C   0  0  0  0  0  0
  -25.4077  -36.3117   24.0368 C   0  0  1  0  0  0
  -20.5863  -28.3660   23.1352 C   0  0  2  0  0  0
  -20.6767  -26.9405   22.5430 C   0  0  0  0  0  0
  -19.5747  -26.6398   21.5229 C   0  0  0  0  0  0
  -18.1924  -26.7952   22.1631 C   0  0  0  0  0  0
  -19.1521  -28.8841   23.2927 C   0  0  0  0  0  0
  -18.9461  -30.1453   23.8926 C   0  0  0  0  0  0
  -17.6471  -30.6601   24.0602 C   0  0  0  0  0  0
  -25.9000  -34.9487   23.5159 C   0  0  0  0  0  0
  -16.5354  -29.9131   23.6326 C   0  0  0  0  0  0
  -16.7271  -28.6558   23.0327 C   0  0  0  0  0  0
  -26.4443  -31.6605   25.0720 C   0  0  0  0  0  0
  -25.3764  -31.3757   26.1534 C   0  0  0  0  0  0
  -27.0216  -30.3058   24.6010 C   0  0  0  0  0  0
  -27.6068  -32.4278   25.7446 C   0  0  0  0  0  0
  -27.5581  -37.1787   24.8472 C   0  0  0  0  0  0
  -21.4131  -29.3039   22.3766 N   0  0  0  0  0  0
  -26.4270  -37.3790   23.9447 N   0  0  0  0  0  0
  -24.6570  -31.0865   22.1005 N   0  0  0  0  0  0
  -23.4193  -28.8245   23.3048 O   0  0  0  0  0  0
  -28.3949  -26.7112   20.0327 O   0  0  0  0  0  0
  -26.5548  -34.8948   22.4710 O   0  0  0  0  0  0
  -23.5282  -32.1436   23.7566 O   0  0  0  0  0  0
  -29.7258  -17.2814   23.5894 C   0  0  0  0  0  0
  -31.3525  -18.1975   22.0205 C   0  0  0  0  0  0
  -29.1362  -18.5527   23.7219 C   0  0  0  0  0  0
  -30.7603  -19.4697   22.1500 C   0  0  0  0  0  0
  -30.8433  -17.1024   22.7492 C   0  0  0  0  0  0
  -29.6578  -19.6563   23.0121 C   0  0  0  0  0  0
  -31.5013  -15.7405   22.6456 C   0  0  0  0  0  0
  -29.0611  -21.0405   23.2072 C   0  0  0  0  0  0
  -27.2894  -22.6030   22.4647 C   0  0  0  0  0  0
  -26.1208  -22.7730   21.4907 C   0  0  0  0  0  0
  -29.6373  -27.2740   20.4525 C   0  0  0  0  0  0
  -30.7535  -26.3605   19.9369 C   0  0  0  0  0  0
  -25.6492  -22.6520   19.1729 C   0  0  0  0  0  0
  -26.2815  -22.2399   17.8398 C   0  0  0  0  0  0
  -31.6117  -25.5195   17.8721 C   0  0  0  0  0  0
  -30.9286  -25.0295   16.5899 C   0  0  0  0  0  0
  -28.0035  -22.7794   16.3235 C   0  0  0  0  0  0
  -28.9758  -23.8804   15.8860 C   0  0  0  0  0  0
  -30.6473  -14.7650   21.9793 N   0  0  0  0  0  0
  -27.8915  -21.2565   22.3377 N   0  3  0  0  0  0
  -26.6251  -22.4908   20.1931 O   0  0  0  0  0  0
  -30.7007  -26.3974   18.5176 O   0  0  0  0  0  0
  -27.2315  -23.2169   17.4356 O   0  0  0  0  0  0
  -29.8732  -24.1505   16.9549 O   0  0  0  0  0  0
  -31.4514  -12.3836   19.0625 H   0  0  0  0  0  0
  -30.3033  -11.2565   19.7255 H   0  0  0  0  0  0
  -29.7033  -11.8418   17.3695 H   0  0  0  0  0  0
  -29.6367  -13.5377   17.7843 H   0  0  0  0  0  0
  -27.8227  -11.3170   18.7946 H   0  0  0  0  0  0
  -27.3418  -12.6552   17.7872 H   0  0  0  0  0  0
  -27.7235  -14.2554   19.5963 H   0  0  0  0  0  0
  -28.6520  -11.9250   21.3438 H   0  0  0  0  0  0
  -28.4558  -13.5794   21.8513 H   0  0  0  0  0  0
  -25.2765   -9.5680   22.4727 H   0  0  0  0  0  0
  -24.0007   -7.4637   22.7461 H   0  0  0  0  0  0
  -21.0835   -8.8769   19.8957 H   0  0  0  0  0  0
  -22.3697  -10.9657   19.6156 H   0  0  0  0  0  0
  -21.2005   -7.6142   23.9710 H   0  0  0  0  0  0
  -21.1472   -6.0511   25.9076 H   0  0  0  0  0  0
  -22.0602   -2.7601   23.2835 H   0  0  0  0  0  0
  -22.4133  -11.9897   22.4782 H   0  0  0  0  0  0
  -21.1140  -13.1270   22.2595 H   0  0  0  0  0  0
  -24.6767  -15.8494   20.5311 H   0  0  0  0  0  0
  -26.3044  -15.6260   20.1304 H   0  0  0  0  0  0
  -26.7062  -32.5590   23.1210 H   0  0  0  0  0  0
  -25.0065  -33.9780   25.0554 H   0  0  0  0  0  0
  -22.6819  -31.3104   21.4147 H   0  0  0  0  0  0
  -23.3741  -35.9627   23.3253 H   0  0  0  0  0  0
  -24.3602  -36.8941   22.2057 H   0  0  0  0  0  0
  -23.7189  -37.6508   23.6658 H   0  0  0  0  0  0
  -26.0039  -31.6069   20.5738 H   0  0  0  0  0  0
  -26.8095  -30.9243   21.9595 H   0  0  0  0  0  0
  -28.0699  -29.1828   21.1980 H   0  0  0  0  0  0
  -26.1232  -25.9952   19.0281 H   0  0  0  0  0  0
  -23.9982  -27.2759   19.0481 H   0  0  0  0  0  0
  -23.7166  -30.5983   19.4081 H   0  0  0  0  0  0
  -22.7256  -29.2451   19.8678 H   0  0  0  0  0  0
  -25.1244  -36.1978   25.0861 H   0  0  0  0  0  0
  -20.9943  -28.3221   24.1486 H   0  0  0  0  0  0
  -20.5694  -26.2276   23.3621 H   0  0  0  0  0  0
  -21.6634  -26.7478   22.1201 H   0  0  0  0  0  0
  -19.6915  -25.6321   21.1228 H   0  0  0  0  0  0
  -19.6697  -27.3229   20.6779 H   0  0  0  0  0  0
  -17.4204  -26.6704   21.4024 H   0  0  0  0  0  0
  -18.0322  -26.0112   22.9041 H   0  0  0  0  0  0
  -19.7944  -30.7260   24.2283 H   0  0  0  0  0  0
  -17.5047  -31.6271   24.5223 H   0  0  0  0  0  0
  -15.5368  -30.3067   23.7615 H   0  0  0  0  0  0
  -15.8678  -28.0919   22.6974 H   0  0  0  0  0  0
  -24.5866  -30.7155   25.7943 H   0  0  0  0  0  0
  -24.9052  -32.2935   26.5052 H   0  0  0  0  0  0
  -25.8161  -30.8904   27.0251 H   0  0  0  0  0  0
  -26.2689  -29.6844   24.1135 H   0  0  0  0  0  0
  -27.4098  -29.7278   25.4403 H   0  0  0  0  0  0
  -27.8492  -30.4400   23.9040 H   0  0  0  0  0  0
  -27.2757  -33.3625   26.1976 H   0  0  0  0  0  0
  -28.3890  -32.6707   25.0248 H   0  0  0  0  0  0
  -28.0684  -31.8399   26.5380 H   0  0  0  0  0  0
  -28.2566  -38.0106   24.7528 H   0  0  0  0  0  0
  -28.1093  -36.2646   24.6240 H   0  0  0  0  0  0
  -27.2347  -37.1358   25.8883 H   0  0  0  0  0  0
  -20.9281  -29.8803   21.7024 H   0  0  0  0  0  0
  -26.0180  -38.2868   24.1472 H   0  0  0  0  0  0
  -29.3319  -16.4457   24.1525 H   0  0  0  0  0  0
  -32.2091  -18.0696   21.3721 H   0  0  0  0  0  0
  -28.2930  -18.6793   24.3876 H   0  0  0  0  0  0
  -31.1731  -20.3037   21.5985 H   0  0  0  0  0  0
  -31.7105  -15.3758   23.6523 H   0  0  0  0  0  0
  -32.4751  -15.8274   22.1614 H   0  0  0  0  0  0
  -29.8212  -21.7961   23.0052 H   0  0  0  0  0  0
  -28.7707  -21.1613   24.2516 H   0  0  0  0  0  0
  -26.9474  -22.7645   23.4878 H   0  0  0  0  0  0
  -28.0449  -23.3619   22.2562 H   0  0  0  0  0  0
  -25.7313  -23.7918   21.5413 H   0  0  0  0  0  0
  -25.3069  -22.0919   21.7447 H   0  0  0  0  0  0
  -29.7849  -28.2780   20.0501 H   0  0  0  0  0  0
  -29.6716  -27.3346   21.5411 H   0  0  0  0  0  0
  -30.6026  -25.3448   20.3075 H   0  0  0  0  0  0
  -31.7273  -26.7040   20.2885 H   0  0  0  0  0  0
  -24.7919  -22.0090   19.3787 H   0  0  0  0  0  0
  -25.2851  -23.6797   19.1315 H   0  0  0  0  0  0
  -25.5096  -22.1522   17.0739 H   0  0  0  0  0  0
  -26.7478  -21.2584   17.9468 H   0  0  0  0  0  0
  -32.5241  -26.0687   17.6353 H   0  0  0  0  0  0
  -31.8949  -24.6701   18.4974 H   0  0  0  0  0  0
  -31.6374  -24.4890   15.9602 H   0  0  0  0  0  0
  -30.5590  -25.8824   16.0169 H   0  0  0  0  0  0
  -28.5625  -21.8785   16.5828 H   0  0  0  0  0  0
  -27.3432  -22.5258   15.4924 H   0  0  0  0  0  0
  -28.4337  -24.7823   15.5969 H   0  0  0  0  0  0
  -29.5326  -23.5394   15.0107 H   0  0  0  0  0  0
  -29.9133  -14.3433   22.5272 H   0  0  0  0  0  0
  -27.2015  -20.5535   22.5461 H   0  0  0  0  0  0
  -28.1710  -21.1283   21.3774 H   0  0  0  0  0  0
  1 25  1  0  0  0
  1 30  2  0  0  0
  1 89  1  0  0  0
  2  3  1  0  0  0
  2 25  1  0  0  0
  2 95  1  0  0  0
  2 96  1  0  0  0
  3  4  1  0  0  0
  3 97  1  0  0  0
  3 98  1  0  0  0
  4  5  1  0  0  0
  4 99  1  0  0  0
  4100  1  0  0  0
  5  6  1  0  0  0
  5 26  1  0  0  0
  5101  1  0  0  0
  6 25  1  0  0  0
  6102  1  0  0  0
  6103  1  0  0  0
  7  8  2  0  0  0
  7 26  1  0  0  0
  7 29  1  0  0  0
  8  9  1  0  0  0
  8 22  1  0  0  0
  9 10  1  0  0  0
  9 27  2  0  0  0
 10 11  2  0  0  0
 10 15  1  0  0  0
 11 12  1  0  0  0
 11104  1  0  0  0
 12 13  2  0  0  0
 12105  1  0  0  0
 13 14  1  0  0  0
 13 31  1  0  0  0
 14 15  2  0  0  0
 14106  1  0  0  0
 15107  1  0  0  0
 16 17  2  0  0  0
 16 21  1  0  0  0
 16 31  1  0  0  0
 17 18  1  0  0  0
 17108  1  0  0  0
 18 19  2  0  0  0
 18109  1  0  0  0
 19 20  1  0  0  0
 19 24  1  0  0  0
 20 21  2  0  0  0
 20110  1  0  0  0
 21 23  1  0  0  0
 22 28  1  0  0  0
 22 32  2  0  0  0
 26 27  1  0  0  0
 28111  1  0  0  0
 28112  1  0  0  0
 29113  1  0  0  0
 29114  1  0  0  0
 33 34  1  0  0  0
 33 66  1  0  0  0
 33 70  2  0  0  0
 34 36  1  0  0  0
 34 59  1  0  0  0
 34115  1  0  0  0
 35 44  2  0  0  0
 35 45  1  0  0  0
 35 68  1  0  0  0
 36 56  1  0  0  0
 36116  1  0  0  0
 37 39  1  0  0  0
 37 47  1  0  0  0
 37 66  1  0  0  0
 37117  1  0  0  0
 38 43  2  0  0  0
 38 46  1  0  0  0
 38 47  1  0  0  0
 39 64  1  0  0  0
 39 67  2  0  0  0
 40 52  1  0  0  0
 40 53  2  0  0  0
 40 58  1  0  0  0
 41118  1  0  0  0
 41119  1  0  0  0
 41120  1  0  0  0
 41 48  1  0  0  0
 42 43  1  0  0  0
 42 66  1  0  0  0
 42121  1  0  0  0
 42122  1  0  0  0
 43 44  1  0  0  0
 44123  1  0  0  0
 45 46  2  0  0  0
 45124  1  0  0  0
 46125  1  0  0  0
 47126  1  0  0  0
 47127  1  0  0  0
 48 56  1  0  0  0
 48 65  1  0  0  0
 48128  1  0  0  0
 49 50  1  0  0  0
 49 53  1  0  0  0
 49 64  1  0  0  0
 49129  1  0  0  0
 50 51  1  0  0  0
 50130  1  0  0  0
 50131  1  0  0  0
 51 52  1  0  0  0
 51132  1  0  0  0
 51133  1  0  0  0
 52134  1  0  0  0
 52135  1  0  0  0
 53 54  1  0  0  0
 54 55  2  0  0  0
 54136  1  0  0  0
 55 57  1  0  0  0
 55137  1  0  0  0
 56 69  2  0  0  0
 57 58  2  0  0  0
 57138  1  0  0  0
 58139  1  0  0  0
 59 60  1  0  0  0
 59 61  1  0  0  0
 59 62  1  0  0  0
 60140  1  0  0  0
 60141  1  0  0  0
 60142  1  0  0  0
 61143  1  0  0  0
 61144  1  0  0  0
 61145  1  0  0  0
 62146  1  0  0  0
 62147  1  0  0  0
 62148  1  0  0  0
 63 65  1  0  0  0
 63149  1  0  0  0
 63150  1  0  0  0
 63151  1  0  0  0
 64152  1  0  0  0
 65153  1  0  0  0
 68 81  1  0  0  0
 71 73  2  0  0  0
 71 75  1  0  0  0
 71154  1  0  0  0
 72 74  1  0  0  0
 72 75  2  0  0  0
 72155  1  0  0  0
 73 76  1  0  0  0
 73156  1  0  0  0
 74 76  2  0  0  0
 74157  1  0  0  0
 75 77  1  0  0  0
 76 78  1  0  0  0
 77 89  1  0  0  0
 77158  1  0  0  0
 77159  1  0  0  0
 78 90  1  0  0  0
 78160  1  0  0  0
 78161  1  0  0  0
 79 80  1  0  0  0
 79 90  1  0  0  0
 79162  1  0  0  0
 79163  1  0  0  0
 80 91  1  0  0  0
 80164  1  0  0  0
 80165  1  0  0  0
 81 82  1  0  0  0
 81166  1  0  0  0
 81167  1  0  0  0
 82 92  1  0  0  0
 82168  1  0  0  0
 82169  1  0  0  0
 83 84  1  0  0  0
 83 91  1  0  0  0
 83170  1  0  0  0
 83171  1  0  0  0
 84 93  1  0  0  0
 84172  1  0  0  0
 84173  1  0  0  0
 85 86  1  0  0  0
 85 92  1  0  0  0
 85174  1  0  0  0
 85175  1  0  0  0
 86 94  1  0  0  0
 86176  1  0  0  0
 86177  1  0  0  0
 87 88  1  0  0  0
 87 93  1  0  0  0
 87178  1  0  0  0
 87179  1  0  0  0
 88 94  1  0  0  0
 88180  1  0  0  0
 88181  1  0  0  0
 89182  1  0  0  0
 90183  1  0  0  0
 90184  1  0  0  0
M  CHG  1  90   1
M  ISO  4   1 100  68 101  81 101  89 100
M  END
> <chiral flag>
0

> <version>
0

> <s_m_source_file>
/data/baiqing/PycharmProjects/Reinvent-master-3.2/result/LINK_invent/BTK/process_docking_weight1_custom_sum_contain_oxygen_bond_distance_aromatic_linkinvent_7_9_3/rearranged_h_0000.sdf

> <i_m_source_file_index>
30

> <r_mmod_Potential_Energy-OPLS-2005>
-328.065032958984

> <r_mmod_Stretch_Energy-OPLS-2005>
31.2406196594238

> <r_mmod_Bend_Energy-OPLS-2005>
93.2528915405273

> <r_mmod_Torsional_Energy-OPLS-2005>
191.842361450195

> <r_mmod_Improper_Torsional_Energy-OPLS-2005>
3.95331621170044

> <r_mmod_Van_der_Waal_Energy-OPLS-2005>
143.50080871582

> <r_mmod_Electrostatic_Energy-OPLS-2005>
-341.612152099609

> <r_mmod_Solvation_Energy-OPLS-2005>
-457.719421386719

> <b_mmod_Minimization_Converged-OPLS-2005>
0

> <r_mmod_RMS_Derivative-OPLS-2005>
2.56235718727112

$$$$
32
                    3D
 Structure written by MMmdl.
183192  0  0  1  0            999 V2000
  -30.7423  -14.3420   20.7138 C   0  0  0  0  0  0
  -30.4282  -12.2795   19.3868 C   0  0  0  0  0  0
  -29.4931  -12.5279   18.1859 C   0  0  0  0  0  0
  -28.0123  -12.3867   18.5918 C   0  0  0  0  0  0
  -27.6686  -13.1905   19.8723 C   0  0  2  0  0  0
  -28.7006  -12.8917   20.9803 C   0  0  0  0  0  0
  -25.2633  -13.8132   20.5670 C   0  0  0  0  0  0
  -24.1866  -13.0441   20.9140 C   0  0  0  0  0  0
  -24.6370  -11.6888   20.8681 C   0  0  0  0  0  0
  -23.9020  -10.4291   21.0376 C   0  0  0  0  0  0
  -24.3577   -9.4221   21.9168 C   0  0  0  0  0  0
  -23.6278   -8.2246   22.0750 C   0  0  0  0  0  0
  -22.4267   -8.0267   21.3526 C   0  0  0  0  0  0
  -21.9873   -9.0237   20.4631 C   0  0  0  0  0  0
  -22.7184  -10.2123   20.3028 C   0  0  0  0  0  0
  -21.6856   -6.0714   22.5276 C   0  0  0  0  0  0
  -21.4015   -6.5619   23.8210 C   0  0  0  0  0  0
  -21.3660   -5.6772   24.9167 C   0  0  0  0  0  0
  -21.6053   -4.3035   24.7224 C   0  0  0  0  0  0
  -21.8813   -3.8119   23.4342 C   0  0  0  0  0  0
  -21.9197   -4.6941   22.3392 C   0  0  0  0  0  0
  -22.7893  -13.5274   21.1841 C   0  0  0  0  0  0
  -22.1670   -4.2128   21.0979 F   0  0  0  0  0  0
  -21.5630   -3.4518   25.7731 F   0  0  0  0  0  0
  -30.0527  -13.1999   20.4653 N   0  0  0  0  0  0
  -26.3044  -12.9264   20.3284 N   0  0  0  0  0  0
  -25.9276  -11.6434   20.5641 N   0  0  0  0  0  0
  -22.0501  -12.8275   22.0360 N   0  0  0  0  0  0
  -25.4421  -15.1864   20.4190 N   0  0  0  0  0  0
  -31.7400  -14.7001   20.0759 O   0  0  0  0  0  0
  -21.6639   -6.8857   21.4235 O   0  0  0  0  0  0
  -22.3585  -14.5599   20.6711 O   0  0  0  0  0  0
  -24.6101  -31.8712   23.2127 C   0  0  0  0  0  0
  -25.9009  -32.4853   23.8443 C   0  0  1  0  0  0
  -27.2508  -27.4761   20.1021 C   0  0  0  0  0  0
  -25.5850  -33.8650   24.2375 N   0  0  0  0  0  0
  -23.3982  -30.4943   21.5492 C   0  0  2  0  0  0
  -24.8476  -28.9633   20.1148 C   0  0  0  0  0  0
  -22.7396  -29.4684   22.4991 C   0  0  0  0  0  0
  -18.0283  -28.1399   22.8466 C   0  0  0  0  0  0
  -24.1455  -36.7322   23.2654 C   0  0  0  0  0  0
  -25.9197  -30.8544   21.3591 C   0  0  0  0  0  0
  -26.0008  -29.4908   20.7077 C   0  0  0  0  0  0
  -27.2046  -28.7594   20.6935 C   0  0  0  0  0  0
  -26.0841  -26.9618   19.4995 C   0  0  0  0  0  0
  -24.8824  -27.6961   19.5048 C   0  0  0  0  0  0
  -23.6067  -29.8251   20.1631 C   0  0  0  0  0  0
  -25.4074  -36.3144   24.0367 C   0  0  1  0  0  0
  -20.5859  -28.3669   23.1307 C   0  0  2  0  0  0
  -20.6783  -26.9400   22.5436 C   0  0  0  0  0  0
  -19.5769  -26.6382   21.5223 C   0  0  0  0  0  0
  -18.1933  -26.7949   22.1596 C   0  0  0  0  0  0
  -19.1529  -28.8844   23.2893 C   0  0  0  0  0  0
  -18.9448  -30.1439   23.8922 C   0  0  0  0  0  0
  -17.6453  -30.6606   24.0546 C   0  0  0  0  0  0
  -25.8986  -34.9496   23.5166 C   0  0  0  0  0  0
  -16.5339  -29.9107   23.6319 C   0  0  0  0  0  0
  -16.7267  -28.6519   23.0345 C   0  0  0  0  0  0
  -26.4445  -31.6622   25.0767 C   0  0  0  0  0  0
  -25.3698  -31.3718   26.1498 C   0  0  0  0  0  0
  -27.0325  -30.3100   24.6125 C   0  0  0  0  0  0
  -27.5999  -32.4357   25.7577 C   0  0  0  0  0  0
  -27.5576  -37.1809   24.8477 C   0  0  0  0  0  0
  -21.4136  -29.3042   22.3723 N   0  0  0  0  0  0
  -26.4283  -37.3794   23.9417 N   0  0  0  0  0  0
  -24.6606  -31.0866   22.0992 N   0  0  0  0  0  0
  -23.4181  -28.8250   23.3044 O   0  0  0  0  0  0
  -28.3767  -26.6850   20.0689 O   0  0  0  0  0  0
  -26.5510  -34.8912   22.4703 O   0  0  0  0  0  0
  -23.5305  -32.1437   23.7535 O   0  0  0  0  0  0
  -28.6942  -18.3101   22.2233 C   0  0  0  0  0  0
  -32.5701  -23.0440   21.7316 C   0  0  0  0  0  0
  -28.8723  -16.9308   22.0149 C   0  0  0  0  0  0
  -29.8129  -19.1553   22.3539 C   0  0  0  0  0  0
  -32.4352  -21.8246   22.4309 C   0  0  0  0  0  0
  -32.3543  -21.8428   19.6197 C   0  0  0  0  0  0
  -31.2954  -17.2395   22.0463 C   0  0  0  0  0  0
  -32.5407  -23.0537   20.3187 C   0  0  0  0  0  0
  -30.1716  -16.3932   21.9202 C   0  0  0  0  0  0
  -31.1198  -18.6250   22.2607 C   0  0  0  0  0  0
  -32.2920  -20.6086   21.7266 C   0  0  0  0  0  0
  -32.2530  -20.6254   20.3137 C   0  0  0  0  0  0
  -32.7218  -24.3178   19.5408 C   0  0  0  0  0  0
  -34.3373  -26.1384   19.0579 C   0  0  0  0  0  0
  -33.6430  -27.4512   19.4401 C   0  0  0  0  0  0
  -29.4008  -26.9023   21.0418 C   0  0  0  0  0  0
  -28.9064  -26.6710   22.4893 C   0  0  0  0  0  0
  -33.2397  -28.9157   21.2445 C   0  0  0  0  0  0
  -33.3472  -29.0500   22.7709 C   0  0  0  0  0  0
  -30.2828  -27.5647   24.2600 C   0  0  0  0  0  0
  -31.1322  -28.6478   23.5779 C   0  0  0  0  0  0
  -30.2961  -14.9922   21.7939 N   0  0  0  0  0  0
  -33.8290  -25.0069   19.8279 N   0  0  0  0  0  0
  -31.9447  -24.6232   18.6351 O   0  0  0  0  0  0
  -32.2245  -19.4256   22.4241 O   0  0  0  0  0  0
  -33.7901  -27.6696   20.8372 O   0  0  0  0  0  0
  -29.9921  -26.4645   23.3937 O   0  0  0  0  0  0
  -32.4592  -28.1515   23.4284 O   0  0  0  0  0  0
  -32.1312  -19.4720   19.6143 F   0  0  0  0  0  0
  -31.4721  -12.3939   19.0901 H   0  0  0  0  0  0
  -30.3358  -11.2507   19.7390 H   0  0  0  0  0  0
  -29.7247  -11.8310   17.3792 H   0  0  0  0  0  0
  -29.6717  -13.5263   17.7851 H   0  0  0  0  0  0
  -27.8099  -11.3298   18.7580 H   0  0  0  0  0  0
  -27.3666  -12.6936   17.7672 H   0  0  0  0  0  0
  -27.7358  -14.2482   19.6201 H   0  0  0  0  0  0
  -28.6522  -11.8358   21.2561 H   0  0  0  0  0  0
  -28.4296  -13.4232   21.8919 H   0  0  0  0  0  0
  -25.2724   -9.5730   22.4734 H   0  0  0  0  0  0
  -23.9993   -7.4646   22.7475 H   0  0  0  0  0  0
  -21.0792   -8.8735   19.8955 H   0  0  0  0  0  0
  -22.3626  -10.9654   19.6123 H   0  0  0  0  0  0
  -21.1997   -7.6124   23.9714 H   0  0  0  0  0  0
  -21.1511   -6.0493   25.9081 H   0  0  0  0  0  0
  -22.0600   -2.7585   23.2842 H   0  0  0  0  0  0
  -22.4089  -11.9937   22.4788 H   0  0  0  0  0  0
  -21.1121  -13.1346   22.2544 H   0  0  0  0  0  0
  -24.6882  -15.8538   20.5476 H   0  0  0  0  0  0
  -26.2968  -15.6168   20.0904 H   0  0  0  0  0  0
  -26.7134  -32.5588   23.1279 H   0  0  0  0  0  0
  -25.0036  -33.9862   25.0535 H   0  0  0  0  0  0
  -22.6843  -31.3080   21.4043 H   0  0  0  0  0  0
  -23.3718  -35.9662   23.3348 H   0  0  0  0  0  0
  -24.3562  -36.8868   22.2062 H   0  0  0  0  0  0
  -23.7201  -37.6539   23.6625 H   0  0  0  0  0  0
  -26.0240  -31.6260   20.5949 H   0  0  0  0  0  0
  -26.8097  -30.9123   21.9745 H   0  0  0  0  0  0
  -28.0868  -29.1955   21.1358 H   0  0  0  0  0  0
  -26.1070  -25.9882   19.0308 H   0  0  0  0  0  0
  -23.9967  -27.2833   19.0411 H   0  0  0  0  0  0
  -23.7148  -30.5995   19.4017 H   0  0  0  0  0  0
  -22.7313  -29.2459   19.8646 H   0  0  0  0  0  0
  -25.1270  -36.2063   25.0866 H   0  0  0  0  0  0
  -20.9931  -28.3259   24.1424 H   0  0  0  0  0  0
  -20.5687  -26.2274   23.3632 H   0  0  0  0  0  0
  -21.6656  -26.7468   22.1224 H   0  0  0  0  0  0
  -19.6920  -25.6290   21.1260 H   0  0  0  0  0  0
  -19.6727  -27.3187   20.6748 H   0  0  0  0  0  0
  -17.4217  -26.6683   21.3996 H   0  0  0  0  0  0
  -18.0293  -26.0132   22.9006 H   0  0  0  0  0  0
  -19.7925  -30.7245   24.2315 H   0  0  0  0  0  0
  -17.5011  -31.6275   24.5164 H   0  0  0  0  0  0
  -15.5335  -30.3001   23.7666 H   0  0  0  0  0  0
  -15.8662  -28.0845   22.7056 H   0  0  0  0  0  0
  -24.5795  -30.7237   25.7735 H   0  0  0  0  0  0
  -24.9037  -32.2887   26.5106 H   0  0  0  0  0  0
  -25.8019  -30.8713   27.0173 H   0  0  0  0  0  0
  -26.2897  -29.6813   24.1209 H   0  0  0  0  0  0
  -27.4173  -29.7395   25.4588 H   0  0  0  0  0  0
  -27.8663  -30.4499   23.9234 H   0  0  0  0  0  0
  -27.2616  -33.3668   26.2095 H   0  0  0  0  0  0
  -28.3908  -32.6858   25.0491 H   0  0  0  0  0  0
  -28.0541  -31.8509   26.5575 H   0  0  0  0  0  0
  -28.2625  -38.0082   24.7511 H   0  0  0  0  0  0
  -28.1038  -36.2622   24.6317 H   0  0  0  0  0  0
  -27.2313  -37.1470   25.8887 H   0  0  0  0  0  0
  -20.9301  -29.8762   21.6938 H   0  0  0  0  0  0
  -26.0186  -38.2880   24.1403 H   0  0  0  0  0  0
  -27.6970  -18.7157   22.3004 H   0  0  0  0  0  0
  -32.6950  -23.9658   22.2872 H   0  0  0  0  0  0
  -28.0031  -16.2905   21.9389 H   0  0  0  0  0  0
  -29.6606  -20.2090   22.5387 H   0  0  0  0  0  0
  -32.4539  -21.8212   23.5125 H   0  0  0  0  0  0
  -32.3249  -21.8406   18.5397 H   0  0  0  0  0  0
  -32.2927  -16.8247   22.0040 H   0  0  0  0  0  0
  -35.4126  -26.2207   19.2221 H   0  0  0  0  0  0
  -34.2127  -25.9553   17.9888 H   0  0  0  0  0  0
  -32.5850  -27.4098   19.1725 H   0  0  0  0  0  0
  -34.0906  -28.2751   18.8783 H   0  0  0  0  0  0
  -30.1844  -26.1758   20.8273 H   0  0  0  0  0  0
  -29.8632  -27.8770   20.9043 H   0  0  0  0  0  0
  -28.3057  -25.7605   22.5056 H   0  0  0  0  0  0
  -28.2365  -27.4629   22.8269 H   0  0  0  0  0  0
  -33.8011  -29.7237   20.7756 H   0  0  0  0  0  0
  -32.2055  -29.0133   20.9134 H   0  0  0  0  0  0
  -33.1582  -30.0785   23.0850 H   0  0  0  0  0  0
  -34.3714  -28.8278   23.0744 H   0  0  0  0  0  0
  -29.3647  -27.9966   24.6608 H   0  0  0  0  0  0
  -30.8269  -27.1836   25.1257 H   0  0  0  0  0  0
  -31.1480  -29.5360   24.2111 H   0  0  0  0  0  0
  -30.6974  -28.9540   22.6280 H   0  0  0  0  0  0
  -29.5739  -14.4643   22.2599 H   0  0  0  0  0  0
  -34.4082  -24.6650   20.5824 H   0  0  0  0  0  0
  1 25  1  0  0  0
  1 30  2  0  0  0
  1 92  1  0  0  0
  2  3  1  0  0  0
  2 25  1  0  0  0
  2100  1  0  0  0
  2101  1  0  0  0
  3  4  1  0  0  0
  3102  1  0  0  0
  3103  1  0  0  0
  4  5  1  0  0  0
  4104  1  0  0  0
  4105  1  0  0  0
  5  6  1  0  0  0
  5 26  1  0  0  0
  5106  1  0  0  0
  6 25  1  0  0  0
  6107  1  0  0  0
  6108  1  0  0  0
  7  8  2  0  0  0
  7 26  1  0  0  0
  7 29  1  0  0  0
  8  9  1  0  0  0
  8 22  1  0  0  0
  9 10  1  0  0  0
  9 27  2  0  0  0
 10 11  2  0  0  0
 10 15  1  0  0  0
 11 12  1  0  0  0
 11109  1  0  0  0
 12 13  2  0  0  0
 12110  1  0  0  0
 13 14  1  0  0  0
 13 31  1  0  0  0
 14 15  2  0  0  0
 14111  1  0  0  0
 15112  1  0  0  0
 16 17  2  0  0  0
 16 21  1  0  0  0
 16 31  1  0  0  0
 17 18  1  0  0  0
 17113  1  0  0  0
 18 19  2  0  0  0
 18114  1  0  0  0
 19 20  1  0  0  0
 19 24  1  0  0  0
 20 21  2  0  0  0
 20115  1  0  0  0
 21 23  1  0  0  0
 22 28  1  0  0  0
 22 32  2  0  0  0
 26 27  1  0  0  0
 28116  1  0  0  0
 28117  1  0  0  0
 29118  1  0  0  0
 29119  1  0  0  0
 33 34  1  0  0  0
 33 66  1  0  0  0
 33 70  2  0  0  0
 34 36  1  0  0  0
 34 59  1  0  0  0
 34120  1  0  0  0
 35 44  2  0  0  0
 35 45  1  0  0  0
 35 68  1  0  0  0
 36 56  1  0  0  0
 36121  1  0  0  0
 37 39  1  0  0  0
 37 47  1  0  0  0
 37 66  1  0  0  0
 37122  1  0  0  0
 38 43  2  0  0  0
 38 46  1  0  0  0
 38 47  1  0  0  0
 39 64  1  0  0  0
 39 67  2  0  0  0
 40 52  1  0  0  0
 40 53  2  0  0  0
 40 58  1  0  0  0
 41123  1  0  0  0
 41124  1  0  0  0
 41125  1  0  0  0
 41 48  1  0  0  0
 42 43  1  0  0  0
 42 66  1  0  0  0
 42126  1  0  0  0
 42127  1  0  0  0
 43 44  1  0  0  0
 44128  1  0  0  0
 45 46  2  0  0  0
 45129  1  0  0  0
 46130  1  0  0  0
 47131  1  0  0  0
 47132  1  0  0  0
 48 56  1  0  0  0
 48 65  1  0  0  0
 48133  1  0  0  0
 49 50  1  0  0  0
 49 53  1  0  0  0
 49 64  1  0  0  0
 49134  1  0  0  0
 50 51  1  0  0  0
 50135  1  0  0  0
 50136  1  0  0  0
 51 52  1  0  0  0
 51137  1  0  0  0
 51138  1  0  0  0
 52139  1  0  0  0
 52140  1  0  0  0
 53 54  1  0  0  0
 54 55  2  0  0  0
 54141  1  0  0  0
 55 57  1  0  0  0
 55142  1  0  0  0
 56 69  2  0  0  0
 57 58  2  0  0  0
 57143  1  0  0  0
 58144  1  0  0  0
 59 60  1  0  0  0
 59 61  1  0  0  0
 59 62  1  0  0  0
 60145  1  0  0  0
 60146  1  0  0  0
 60147  1  0  0  0
 61148  1  0  0  0
 61149  1  0  0  0
 61150  1  0  0  0
 62151  1  0  0  0
 62152  1  0  0  0
 62153  1  0  0  0
 63 65  1  0  0  0
 63154  1  0  0  0
 63155  1  0  0  0
 63156  1  0  0  0
 64157  1  0  0  0
 65158  1  0  0  0
 68 86  1  0  0  0
 71 73  2  0  0  0
 71 74  1  0  0  0
 71159  1  0  0  0
 72 75  2  0  0  0
 72 78  1  0  0  0
 72160  1  0  0  0
 73 79  1  0  0  0
 73161  1  0  0  0
 74 80  2  0  0  0
 74162  1  0  0  0
 75 81  1  0  0  0
 75163  1  0  0  0
 76 78  2  0  0  0
 76 82  1  0  0  0
 76164  1  0  0  0
 77 79  2  0  0  0
 77 80  1  0  0  0
 77165  1  0  0  0
 78 83  1  0  0  0
 79 92  1  0  0  0
 80 95  1  0  0  0
 81 82  2  0  0  0
 81 95  1  0  0  0
 82 99  1  0  0  0
 83 93  1  0  0  0
 83 94  2  0  0  0
 84 85  1  0  0  0
 84 93  1  0  0  0
 84166  1  0  0  0
 84167  1  0  0  0
 85 96  1  0  0  0
 85168  1  0  0  0
 85169  1  0  0  0
 86 87  1  0  0  0
 86170  1  0  0  0
 86171  1  0  0  0
 87 97  1  0  0  0
 87172  1  0  0  0
 87173  1  0  0  0
 88 89  1  0  0  0
 88 96  1  0  0  0
 88174  1  0  0  0
 88175  1  0  0  0
 89 98  1  0  0  0
 89176  1  0  0  0
 89177  1  0  0  0
 90 91  1  0  0  0
 90 97  1  0  0  0
 90178  1  0  0  0
 90179  1  0  0  0
 91 98  1  0  0  0
 91180  1  0  0  0
 91181  1  0  0  0
 92182  1  0  0  0
 93183  1  0  0  0
M  ISO  4   1 100  68 101  86 101  92 100
M  END
> <chiral flag>
0

> <version>
0

> <s_m_source_file>
/data/baiqing/PycharmProjects/Reinvent-master-3.2/result/LINK_invent/BTK/process_docking_weight1_custom_sum_contain_oxygen_bond_distance_aromatic_linkinvent_7_9_3/rearranged_h_0000.sdf

> <i_m_source_file_index>
31

> <r_mmod_Potential_Energy-OPLS-2005>
-113.160301208496

> <r_mmod_Stretch_Energy-OPLS-2005>
35.6638336181641

> <r_mmod_Bend_Energy-OPLS-2005>
105.064498901367

> <r_mmod_Torsional_Energy-OPLS-2005>
259.497619628906

> <r_mmod_Improper_Torsional_Energy-OPLS-2005>
6.31474161148071

> <r_mmod_Van_der_Waal_Energy-OPLS-2005>
158.373336791992

> <r_mmod_Electrostatic_Energy-OPLS-2005>
-418.072113037109

> <r_mmod_Solvation_Energy-OPLS-2005>
-267.680084228516

> <b_mmod_Minimization_Converged-OPLS-2005>
0

> <r_mmod_RMS_Derivative-OPLS-2005>
3.88359498977661

$$$$
33
                    3D
 Structure written by MMmdl.
177185  0  0  1  0            999 V2000
  -30.6852  -14.4466   20.5047 C   0  0  0  0  0  0
  -30.4176  -12.2742   19.4144 C   0  0  0  0  0  0
  -29.4929  -12.4989   18.2003 C   0  0  0  0  0  0
  -28.0130  -12.3664   18.6137 C   0  0  0  0  0  0
  -27.6616  -13.2002   19.8761 C   0  0  2  0  0  0
  -28.7073  -12.9782   20.9942 C   0  0  0  0  0  0
  -25.2640  -13.8128   20.5847 C   0  0  0  0  0  0
  -24.1855  -13.0420   20.9190 C   0  0  0  0  0  0
  -24.6376  -11.6875   20.8692 C   0  0  0  0  0  0
  -23.9031  -10.4282   21.0363 C   0  0  0  0  0  0
  -24.3593   -9.4218   21.9155 C   0  0  0  0  0  0
  -23.6287   -8.2251   22.0740 C   0  0  0  0  0  0
  -22.4269   -8.0275   21.3536 C   0  0  0  0  0  0
  -21.9879   -9.0232   20.4633 C   0  0  0  0  0  0
  -22.7193  -10.2114   20.3037 C   0  0  0  0  0  0
  -21.6863   -6.0723   22.5274 C   0  0  0  0  0  0
  -21.4003   -6.5631   23.8202 C   0  0  0  0  0  0
  -21.3663   -5.6794   24.9169 C   0  0  0  0  0  0
  -21.6056   -4.3055   24.7231 C   0  0  0  0  0  0
  -21.8827   -3.8138   23.4358 C   0  0  0  0  0  0
  -21.9194   -4.6947   22.3407 C   0  0  0  0  0  0
  -22.7894  -13.5235   21.1859 C   0  0  0  0  0  0
  -22.1676   -4.2136   21.0984 F   0  0  0  0  0  0
  -21.5631   -3.4541   25.7744 F   0  0  0  0  0  0
  -30.0381  -13.2586   20.4340 N   0  0  0  0  0  0
  -26.3034  -12.9293   20.3384 N   0  0  0  0  0  0
  -25.9291  -11.6450   20.5680 N   0  0  0  0  0  0
  -22.0520  -12.8223   22.0380 N   0  0  0  0  0  0
  -25.4420  -15.1864   20.4610 N   0  0  0  0  0  0
  -31.8511  -14.6110   20.1379 O   0  0  0  0  0  0
  -21.6658   -6.8856   21.4232 O   0  0  0  0  0  0
  -22.3587  -14.5552   20.6694 O   0  0  0  0  0  0
  -24.6120  -31.8702   23.2132 C   0  0  0  0  0  0
  -25.9028  -32.4824   23.8423 C   0  0  1  0  0  0
  -27.2405  -27.4705   20.0821 C   0  0  0  0  0  0
  -25.5908  -33.8629   24.2350 N   0  0  0  0  0  0
  -23.3959  -30.4952   21.5533 C   0  0  2  0  0  0
  -24.8410  -28.9611   20.1165 C   0  0  0  0  0  0
  -22.7370  -29.4672   22.5013 C   0  0  0  0  0  0
  -18.0276  -28.1329   22.8506 C   0  0  0  0  0  0
  -24.1474  -36.7326   23.2635 C   0  0  0  0  0  0
  -25.9205  -30.8461   21.3603 C   0  0  0  0  0  0
  -25.9969  -29.4821   20.7090 C   0  0  0  0  0  0
  -27.1970  -28.7423   20.6878 C   0  0  0  0  0  0
  -26.0645  -26.9537   19.4891 C   0  0  0  0  0  0
  -24.8667  -27.6935   19.5074 C   0  0  0  0  0  0
  -23.6018  -29.8245   20.1670 C   0  0  0  0  0  0
  -25.4084  -36.3119   24.0349 C   0  0  1  0  0  0
  -20.5853  -28.3625   23.1335 C   0  0  2  0  0  0
  -20.6745  -26.9360   22.5435 C   0  0  0  0  0  0
  -19.5724  -26.6354   21.5217 C   0  0  0  0  0  0
  -18.1903  -26.7894   22.1615 C   0  0  0  0  0  0
  -19.1516  -28.8796   23.2934 C   0  0  0  0  0  0
  -18.9439  -30.1418   23.8926 C   0  0  0  0  0  0
  -17.6434  -30.6550   24.0558 C   0  0  0  0  0  0
  -25.9008  -34.9479   23.5145 C   0  0  0  0  0  0
  -16.5334  -29.9045   23.6302 C   0  0  0  0  0  0
  -16.7267  -28.6457   23.0344 C   0  0  0  0  0  0
  -26.4470  -31.6600   25.0750 C   0  0  0  0  0  0
  -25.3765  -31.3726   26.1526 C   0  0  0  0  0  0
  -27.0297  -30.3048   24.6113 C   0  0  0  0  0  0
  -27.6042  -32.4329   25.7504 C   0  0  0  0  0  0
  -27.5578  -37.1816   24.8465 C   0  0  0  0  0  0
  -21.4104  -29.3020   22.3753 N   0  0  0  0  0  0
  -26.4275  -37.3805   23.9426 N   0  0  0  0  0  0
  -24.6611  -31.0835   22.1015 N   0  0  0  0  0  0
  -23.4150  -28.8190   23.3029 O   0  0  0  0  0  0
  -28.4520  -26.8185   20.0733 O   0  0  0  0  0  0
  -26.5554  -34.8926   22.4694 O   0  0  0  0  0  0
  -23.5328  -32.1434   23.7551 O   0  0  0  0  0  0
  -31.7786  -17.3953   16.8979 C   0  0  0  0  0  0
  -30.6966  -17.2206   16.0189 C   0  0  0  0  0  0
  -31.5702  -17.3086   18.2850 C   0  0  0  0  0  0
  -29.4093  -16.9690   16.5283 C   0  0  0  0  0  0
  -30.2893  -17.0300   18.8077 C   0  0  0  0  0  0
  -29.1875  -16.8739   17.9272 C   0  0  0  0  0  0
  -30.1389  -16.8684   20.3228 C   0  0  0  0  0  0
  -25.1744  -21.7576   19.2775 C   0  0  0  0  0  0
  -23.7767  -21.3146   18.8230 C   0  0  0  0  0  0
  -28.1595  -24.7381   21.3441 C   0  0  0  0  0  0
  -26.3988  -18.2575   17.5521 C   0  0  0  0  0  0
  -25.1559  -22.9641   20.2182 C   0  0  0  0  0  0
  -23.7791  -19.8767   18.2976 C   0  0  0  0  0  0
  -28.5009  -25.3977   19.9897 C   0  0  0  0  0  0
  -26.7766  -16.7728   17.6823 C   0  0  0  0  0  0
  -26.7075  -24.2588   21.4676 C   0  0  0  0  0  0
  -25.0326  -18.4623   16.8726 C   0  0  0  0  0  0
  -29.8781  -15.4899   20.7385 N   0  0  0  0  0  0
  -27.9514  -16.6069   18.4795 O   0  0  0  0  0  0
  -26.5120  -23.2844   20.4592 O   0  0  0  0  0  0
  -24.5672  -19.7846   17.1155 O   0  0  0  0  0  0
  -31.4637  -12.3601   19.1160 H   0  0  0  0  0  0
  -30.2976  -11.2651   19.8086 H   0  0  0  0  0  0
  -29.7267  -11.7826   17.4131 H   0  0  0  0  0  0
  -29.6721  -13.4863   17.7713 H   0  0  0  0  0  0
  -27.8167  -11.3095   18.7994 H   0  0  0  0  0  0
  -27.3666  -12.6558   17.7841 H   0  0  0  0  0  0
  -27.6976  -14.2468   19.5790 H   0  0  0  0  0  0
  -28.6776  -11.9479   21.3522 H   0  0  0  0  0  0
  -28.4905  -13.6042   21.8616 H   0  0  0  0  0  0
  -25.2733   -9.5732   22.4715 H   0  0  0  0  0  0
  -24.0021   -7.4658   22.7463 H   0  0  0  0  0  0
  -21.0815   -8.8732   19.8943 H   0  0  0  0  0  0
  -22.3631  -10.9649   19.6160 H   0  0  0  0  0  0
  -21.1984   -7.6136   23.9690 H   0  0  0  0  0  0
  -21.1485   -6.0526   25.9065 H   0  0  0  0  0  0
  -22.0598   -2.7593   23.2864 H   0  0  0  0  0  0
  -22.4137  -11.9885   22.4776 H   0  0  0  0  0  0
  -21.1121  -13.1223   22.2568 H   0  0  0  0  0  0
  -24.6818  -15.8421   20.5983 H   0  0  0  0  0  0
  -26.3057  -15.6261   20.1700 H   0  0  0  0  0  0
  -26.7094  -32.5520   23.1196 H   0  0  0  0  0  0
  -25.0128  -33.9799   25.0544 H   0  0  0  0  0  0
  -22.6847  -31.3121   21.4144 H   0  0  0  0  0  0
  -23.3727  -35.9665   23.3295 H   0  0  0  0  0  0
  -24.3574  -36.8933   22.2047 H   0  0  0  0  0  0
  -23.7223  -37.6542   23.6627 H   0  0  0  0  0  0
  -26.0304  -31.6136   20.5915 H   0  0  0  0  0  0
  -26.8075  -30.8973   21.9795 H   0  0  0  0  0  0
  -28.0926  -29.1479   21.1368 H   0  0  0  0  0  0
  -26.0497  -25.9896   19.0038 H   0  0  0  0  0  0
  -23.9744  -27.2890   19.0475 H   0  0  0  0  0  0
  -23.7077  -30.5976   19.4055 H   0  0  0  0  0  0
  -22.7234  -29.2479   19.8729 H   0  0  0  0  0  0
  -25.1257  -36.1994   25.0841 H   0  0  0  0  0  0
  -20.9979  -28.3186   24.1439 H   0  0  0  0  0  0
  -20.5610  -26.2224   23.3613 H   0  0  0  0  0  0
  -21.6619  -26.7374   22.1253 H   0  0  0  0  0  0
  -19.6876  -25.6270   21.1223 H   0  0  0  0  0  0
  -19.6645  -27.3170   20.6751 H   0  0  0  0  0  0
  -17.4186  -26.6706   21.3995 H   0  0  0  0  0  0
  -18.0259  -26.0009   22.8970 H   0  0  0  0  0  0
  -19.7907  -30.7248   24.2299 H   0  0  0  0  0  0
  -17.4973  -31.6224   24.5157 H   0  0  0  0  0  0
  -15.5325  -30.2940   23.7586 H   0  0  0  0  0  0
  -15.8689  -28.0761   22.7028 H   0  0  0  0  0  0
  -24.5912  -30.7078   25.7922 H   0  0  0  0  0  0
  -24.8983  -32.2888   26.5000 H   0  0  0  0  0  0
  -25.8153  -30.8909   27.0275 H   0  0  0  0  0  0
  -26.2849  -29.6824   24.1138 H   0  0  0  0  0  0
  -27.4049  -29.7272   25.4579 H   0  0  0  0  0  0
  -27.8688  -30.4385   23.9280 H   0  0  0  0  0  0
  -27.2646  -33.3605   26.2133 H   0  0  0  0  0  0
  -28.3824  -32.6941   25.0318 H   0  0  0  0  0  0
  -28.0746  -31.8435   26.5394 H   0  0  0  0  0  0
  -28.2601  -38.0117   24.7521 H   0  0  0  0  0  0
  -28.1075  -36.2653   24.6258 H   0  0  0  0  0  0
  -27.2312  -37.1434   25.8876 H   0  0  0  0  0  0
  -20.9232  -29.8795   21.7044 H   0  0  0  0  0  0
  -26.0172  -38.2886   24.1433 H   0  0  0  0  0  0
  -32.7700  -17.5823   16.5089 H   0  0  0  0  0  0
  -30.8572  -17.2754   14.9500 H   0  0  0  0  0  0
  -32.4098  -17.4229   18.9553 H   0  0  0  0  0  0
  -28.6138  -16.8423   15.8101 H   0  0  0  0  0  0
  -29.3200  -17.5026   20.6652 H   0  0  0  0  0  0
  -31.0350  -17.2315   20.8294 H   0  0  0  0  0  0
  -25.7788  -21.9814   18.3967 H   0  0  0  0  0  0
  -25.6763  -20.9359   19.7897 H   0  0  0  0  0  0
  -23.3894  -21.9969   18.0649 H   0  0  0  0  0  0
  -23.0857  -21.3688   19.6650 H   0  0  0  0  0  0
  -28.3963  -25.4228   22.1591 H   0  0  0  0  0  0
  -28.8127  -23.8769   21.4876 H   0  0  0  0  0  0
  -27.1632  -18.7981   16.9934 H   0  0  0  0  0  0
  -26.3895  -18.6947   18.5507 H   0  0  0  0  0  0
  -24.6410  -22.7166   21.1483 H   0  0  0  0  0  0
  -24.6387  -23.8118   19.7647 H   0  0  0  0  0  0
  -22.7631  -19.5534   18.0761 H   0  0  0  0  0  0
  -24.1573  -19.2129   19.0780 H   0  0  0  0  0  0
  -27.9296  -24.9907   19.1567 H   0  0  0  0  0  0
  -29.5357  -25.1565   19.7474 H   0  0  0  0  0  0
  -26.8344  -16.2721   16.7161 H   0  0  0  0  0  0
  -25.9657  -16.2650   18.1975 H   0  0  0  0  0  0
  -26.0071  -25.0883   21.3733 H   0  0  0  0  0  0
  -26.5391  -23.8054   22.4462 H   0  0  0  0  0  0
  -24.3003  -17.7227   17.2050 H   0  0  0  0  0  0
  -25.1392  -18.3188   15.7977 H   0  0  0  0  0  0
  -28.9366  -15.2815   21.0309 H   0  0  0  0  0  0
  1 25  1  0  0  0
  1 30  2  0  0  0
  1 88  1  0  0  0
  2  3  1  0  0  0
  2 25  1  0  0  0
  2 92  1  0  0  0
  2 93  1  0  0  0
  3  4  1  0  0  0
  3 94  1  0  0  0
  3 95  1  0  0  0
  4  5  1  0  0  0
  4 96  1  0  0  0
  4 97  1  0  0  0
  5  6  1  0  0  0
  5 26  1  0  0  0
  5 98  1  0  0  0
  6 25  1  0  0  0
  6 99  1  0  0  0
  6100  1  0  0  0
  7  8  2  0  0  0
  7 26  1  0  0  0
  7 29  1  0  0  0
  8  9  1  0  0  0
  8 22  1  0  0  0
  9 10  1  0  0  0
  9 27  2  0  0  0
 10 11  2  0  0  0
 10 15  1  0  0  0
 11 12  1  0  0  0
 11101  1  0  0  0
 12 13  2  0  0  0
 12102  1  0  0  0
 13 14  1  0  0  0
 13 31  1  0  0  0
 14 15  2  0  0  0
 14103  1  0  0  0
 15104  1  0  0  0
 16 17  2  0  0  0
 16 21  1  0  0  0
 16 31  1  0  0  0
 17 18  1  0  0  0
 17105  1  0  0  0
 18 19  2  0  0  0
 18106  1  0  0  0
 19 20  1  0  0  0
 19 24  1  0  0  0
 20 21  2  0  0  0
 20107  1  0  0  0
 21 23  1  0  0  0
 22 28  1  0  0  0
 22 32  2  0  0  0
 26 27  1  0  0  0
 28108  1  0  0  0
 28109  1  0  0  0
 29110  1  0  0  0
 29111  1  0  0  0
 33 34  1  0  0  0
 33 66  1  0  0  0
 33 70  2  0  0  0
 34 36  1  0  0  0
 34 59  1  0  0  0
 34112  1  0  0  0
 35 44  2  0  0  0
 35 45  1  0  0  0
 35 68  1  0  0  0
 36 56  1  0  0  0
 36113  1  0  0  0
 37 39  1  0  0  0
 37 47  1  0  0  0
 37 66  1  0  0  0
 37114  1  0  0  0
 38 43  2  0  0  0
 38 46  1  0  0  0
 38 47  1  0  0  0
 39 64  1  0  0  0
 39 67  2  0  0  0
 40 52  1  0  0  0
 40 53  2  0  0  0
 40 58  1  0  0  0
 41115  1  0  0  0
 41116  1  0  0  0
 41117  1  0  0  0
 41 48  1  0  0  0
 42 43  1  0  0  0
 42 66  1  0  0  0
 42118  1  0  0  0
 42119  1  0  0  0
 43 44  1  0  0  0
 44120  1  0  0  0
 45 46  2  0  0  0
 45121  1  0  0  0
 46122  1  0  0  0
 47123  1  0  0  0
 47124  1  0  0  0
 48 56  1  0  0  0
 48 65  1  0  0  0
 48125  1  0  0  0
 49 50  1  0  0  0
 49 53  1  0  0  0
 49 64  1  0  0  0
 49126  1  0  0  0
 50 51  1  0  0  0
 50127  1  0  0  0
 50128  1  0  0  0
 51 52  1  0  0  0
 51129  1  0  0  0
 51130  1  0  0  0
 52131  1  0  0  0
 52132  1  0  0  0
 53 54  1  0  0  0
 54 55  2  0  0  0
 54133  1  0  0  0
 55 57  1  0  0  0
 55134  1  0  0  0
 56 69  2  0  0  0
 57 58  2  0  0  0
 57135  1  0  0  0
 58136  1  0  0  0
 59 60  1  0  0  0
 59 61  1  0  0  0
 59 62  1  0  0  0
 60137  1  0  0  0
 60138  1  0  0  0
 60139  1  0  0  0
 61140  1  0  0  0
 61141  1  0  0  0
 61142  1  0  0  0
 62143  1  0  0  0
 62144  1  0  0  0
 62145  1  0  0  0
 63 65  1  0  0  0
 63146  1  0  0  0
 63147  1  0  0  0
 63148  1  0  0  0
 64149  1  0  0  0
 65150  1  0  0  0
 68 84  1  0  0  0
 71 72  2  0  0  0
 71 73  1  0  0  0
 71151  1  0  0  0
 72 74  1  0  0  0
 72152  1  0  0  0
 73 75  2  0  0  0
 73153  1  0  0  0
 74 76  2  0  0  0
 74154  1  0  0  0
 75 76  1  0  0  0
 75 77  1  0  0  0
 76 89  1  0  0  0
 77 88  1  0  0  0
 77155  1  0  0  0
 77156  1  0  0  0
 78 79  1  0  0  0
 78 82  1  0  0  0
 78157  1  0  0  0
 78158  1  0  0  0
 79 83  1  0  0  0
 79159  1  0  0  0
 79160  1  0  0  0
 80 84  1  0  0  0
 80 86  1  0  0  0
 80161  1  0  0  0
 80162  1  0  0  0
 81 85  1  0  0  0
 81 87  1  0  0  0
 81163  1  0  0  0
 81164  1  0  0  0
 82 90  1  0  0  0
 82165  1  0  0  0
 82166  1  0  0  0
 83 91  1  0  0  0
 83167  1  0  0  0
 83168  1  0  0  0
 84169  1  0  0  0
 84170  1  0  0  0
 85 89  1  0  0  0
 85171  1  0  0  0
 85172  1  0  0  0
 86 90  1  0  0  0
 86173  1  0  0  0
 86174  1  0  0  0
 87 91  1  0  0  0
 87175  1  0  0  0
 87176  1  0  0  0
 88177  1  0  0  0
M  ISO  4   1 100  68 101  84 101  88 100
M  END
> <chiral flag>
0

> <version>
0

> <s_m_source_file>
/data/baiqing/PycharmProjects/Reinvent-master-3.2/result/LINK_invent/BTK/process_docking_weight1_custom_sum_contain_oxygen_bond_distance_aromatic_linkinvent_7_9_3/rearranged_h_0000.sdf

> <i_m_source_file_index>
32

> <r_mmod_Potential_Energy-OPLS-2005>
-106.01823425293

> <r_mmod_Stretch_Energy-OPLS-2005>
33.1944389343262

> <r_mmod_Bend_Energy-OPLS-2005>
109.107612609863

> <r_mmod_Torsional_Energy-OPLS-2005>
222.568893432617

> <r_mmod_Improper_Torsional_Energy-OPLS-2005>
7.16597414016724

> <r_mmod_Van_der_Waal_Energy-OPLS-2005>
143.653991699219

> <r_mmod_Electrostatic_Energy-OPLS-2005>
-420.193939208984

> <r_mmod_Solvation_Energy-OPLS-2005>
-215.525299072266

> <b_mmod_Minimization_Converged-OPLS-2005>
0

> <r_mmod_RMS_Derivative-OPLS-2005>
3.06411552429199

$$$$
34
                    3D
 Structure written by MMmdl.
144152  0  0  1  0            999 V2000
  -30.2527  -15.7856   20.3198 C   0  0  0  0  0  0
  -30.4129  -13.1956   19.5441 C   0  0  0  0  0  0
  -29.5557  -12.6952   18.3416 C   0  0  0  0  0  0
  -28.1429  -12.3029   18.7935 C   0  0  0  0  0  0
  -27.5911  -13.3230   19.8121 C   0  0  2  0  0  0
  -28.5962  -13.7228   20.9225 C   0  0  0  0  0  0
  -25.2298  -13.8303   20.5814 C   0  0  0  0  0  0
  -24.1703  -13.0433   20.9298 C   0  0  0  0  0  0
  -24.6427  -11.6953   20.8766 C   0  0  0  0  0  0
  -23.9132  -10.4295   21.0396 C   0  0  0  0  0  0
  -24.3665   -9.4205   21.9177 C   0  0  0  0  0  0
  -23.6321   -8.2248   22.0752 C   0  0  0  0  0  0
  -22.4300   -8.0290   21.3544 C   0  0  0  0  0  0
  -21.9950   -9.0267   20.4641 C   0  0  0  0  0  0
  -22.7298  -10.2135   20.3047 C   0  0  0  0  0  0
  -21.6861   -6.0744   22.5279 C   0  0  0  0  0  0
  -21.4020   -6.5645   23.8212 C   0  0  0  0  0  0
  -21.3662   -5.6796   24.9173 C   0  0  0  0  0  0
  -21.6043   -4.3058   24.7222 C   0  0  0  0  0  0
  -21.8819   -3.8153   23.4343 C   0  0  0  0  0  0
  -21.9195   -4.6971   22.3400 C   0  0  0  0  0  0
  -22.7713  -13.5153   21.1924 C   0  0  0  0  0  0
  -22.1662   -4.2156   21.0978 F   0  0  0  0  0  0
  -21.5628   -3.4540   25.7734 F   0  0  0  0  0  0
  -29.7463  -14.3930   20.2576 N   0  0  0  0  0  0
  -26.2765  -12.9664   20.3261 N   0  0  0  0  0  0
  -25.9380  -11.6718   20.5700 N   0  0  0  0  0  0
  -22.0382  -12.8128   22.0477 N   0  0  0  0  0  0
  -25.3869  -15.2046   20.4250 N   0  0  0  0  0  0
  -31.4904  -15.6923   20.1741 O   0  0  0  0  0  0
  -21.6652   -6.8893   21.4243 O   0  0  0  0  0  0
  -22.3383  -14.5448   20.6756 O   0  0  0  0  0  0
  -24.6937  -31.7875   23.1430 C   0  0  0  0  0  0
  -25.9469  -32.4403   23.8012 C   0  0  1  0  0  0
  -27.2288  -26.5847   20.2333 C   0  0  0  0  0  0
  -25.6006  -33.8236   24.1886 N   0  0  0  0  0  0
  -23.5253  -30.3838   21.4993 C   0  0  2  0  0  0
  -24.9848  -28.6999   20.1247 C   0  0  0  0  0  0
  -22.7811  -29.4246   22.4685 C   0  0  0  0  0  0
  -18.0345  -28.1429   22.8447 C   0  0  0  0  0  0
  -24.1498  -36.7127   23.2655 C   0  0  0  0  0  0
  -26.1101  -30.4789   21.4290 C   0  0  0  0  0  0
  -26.1729  -29.0293   20.7871 C   0  0  0  0  0  0
  -27.2721  -28.0017   20.8104 C   0  0  0  0  0  0
  -26.0126  -26.5021   19.4993 C   0  0  0  0  0  0
  -24.9500  -27.4625   19.4574 C   0  0  0  0  0  0
  -23.7872  -29.6700   20.1399 C   0  0  0  0  0  0
  -25.4153  -36.2859   24.0272 C   0  0  1  0  0  0
  -20.5983  -28.3794   23.1121 C   0  0  2  0  0  0
  -20.6808  -26.9443   22.5404 C   0  0  0  0  0  0
  -19.5785  -26.6368   21.5216 C   0  0  0  0  0  0
  -18.1967  -26.7953   22.1616 C   0  0  0  0  0  0
  -19.1613  -28.8938   23.2761 C   0  0  0  0  0  0
  -18.9517  -30.1518   23.8810 C   0  0  0  0  0  0
  -17.6506  -30.6607   24.0548 C   0  0  0  0  0  0
  -25.9140  -34.9252   23.4925 C   0  0  0  0  0  0
  -16.5395  -29.9087   23.6353 C   0  0  0  0  0  0
  -16.7323  -28.6512   23.0366 C   0  0  0  0  0  0
  -26.4613  -31.6485   25.0681 C   0  0  0  0  0  0
  -25.3644  -31.3836   26.1269 C   0  0  0  0  0  0
  -27.0565  -30.2808   24.6673 C   0  0  0  0  0  0
  -27.6042  -32.4373   25.7504 C   0  0  0  0  0  0
  -27.5560  -37.1725   24.8468 C   0  0  0  0  0  0
  -21.4449  -29.3019   22.3430 N   0  0  0  0  0  0
  -26.4271  -37.3630   23.9401 N   0  0  0  0  0  0
  -24.8008  -30.9200   22.0755 N   0  0  0  0  0  0
  -23.4201  -28.7862   23.3081 O   0  0  0  0  0  0
  -28.1916  -25.3215   20.2556 O   0  0  0  0  0  0
  -26.5793  -34.8849   22.4552 O   0  0  0  0  0  0
  -23.5933  -32.1009   23.6307 O   0  0  0  0  0  0
  -26.4561  -21.7447   20.6829 C   0  0  0  0  0  0
  -27.3400  -20.6155   20.5832 C   0  0  0  0  0  0
  -26.7780  -23.1412   20.5651 C   0  0  0  0  0  0
  -28.9950  -22.3129   20.2297 C   0  0  0  0  0  0
  -28.7344  -20.6932   20.3466 C   0  0  0  0  0  0
  -28.0707  -23.6695   20.3192 C   0  0  0  0  0  0
  -29.6842  -19.0215   20.2779 C   0  0  0  0  0  0
  -29.5054  -17.1968   20.3618 N   0  0  0  0  0  0
  -31.3932  -13.4800   19.1606 H   0  0  0  0  0  0
  -30.6132  -12.3812   20.2421 H   0  0  0  0  0  0
  -30.0429  -11.8536   17.8471 H   0  0  0  0  0  0
  -29.4885  -13.4916   17.5989 H   0  0  0  0  0  0
  -28.2013  -11.3192   19.2612 H   0  0  0  0  0  0
  -27.4750  -12.2013   17.9371 H   0  0  0  0  0  0
  -27.4325  -14.2228   19.2159 H   0  0  0  0  0  0
  -28.8920  -12.8680   21.5326 H   0  0  0  0  0  0
  -28.1320  -14.4366   21.6047 H   0  0  0  0  0  0
  -25.2802   -9.5679   22.4763 H   0  0  0  0  0  0
  -24.0018   -7.4643   22.7481 H   0  0  0  0  0  0
  -21.0878   -8.8799   19.8950 H   0  0  0  0  0  0
  -22.3757  -10.9678   19.6161 H   0  0  0  0  0  0
  -21.2014   -7.6153   23.9717 H   0  0  0  0  0  0
  -21.1483   -6.0525   25.9075 H   0  0  0  0  0  0
  -22.0595   -2.7615   23.2840 H   0  0  0  0  0  0
  -22.4033  -11.9812   22.4881 H   0  0  0  0  0  0
  -21.0983  -13.1114   22.2662 H   0  0  0  0  0  0
  -24.6129  -15.8508   20.5348 H   0  0  0  0  0  0
  -26.2258  -15.6471   20.0742 H   0  0  0  0  0  0
  -26.7558  -32.4845   23.0725 H   0  0  0  0  0  0
  -25.0049  -33.9257   24.9970 H   0  0  0  0  0  0
  -22.8571  -31.2239   21.2993 H   0  0  0  0  0  0
  -23.3777  -35.9439   23.3267 H   0  0  0  0  0  0
  -24.3556  -36.8846   22.2078 H   0  0  0  0  0  0
  -23.7246  -37.6284   23.6774 H   0  0  0  0  0  0
  -26.3247  -31.1924   20.6324 H   0  0  0  0  0  0
  -26.9572  -30.5543   22.0977 H   0  0  0  0  0  0
  -28.1651  -28.2655   21.3591 H   0  0  0  0  0  0
  -25.8391  -25.5791   18.9642 H   0  0  0  0  0  0
  -24.0607  -27.2021   18.8996 H   0  0  0  0  0  0
  -23.9731  -30.4249   19.3752 H   0  0  0  0  0  0
  -22.8900  -29.1425   19.8116 H   0  0  0  0  0  0
  -25.1371  -36.1606   25.0762 H   0  0  0  0  0  0
  -21.0059  -28.3426   24.1251 H   0  0  0  0  0  0
  -20.5662  -26.2421   23.3674 H   0  0  0  0  0  0
  -21.6670  -26.7371   22.1228 H   0  0  0  0  0  0
  -19.6942  -25.6256   21.1302 H   0  0  0  0  0  0
  -19.6733  -27.3132   20.6708 H   0  0  0  0  0  0
  -17.4238  -26.6690   21.4019 H   0  0  0  0  0  0
  -18.0355  -26.0117   22.9033 H   0  0  0  0  0  0
  -19.7994  -30.7356   24.2142 H   0  0  0  0  0  0
  -17.5058  -31.6278   24.5170 H   0  0  0  0  0  0
  -15.5392  -30.2964   23.7728 H   0  0  0  0  0  0
  -15.8723  -28.0804   22.7129 H   0  0  0  0  0  0
  -24.5865  -30.7154   25.7556 H   0  0  0  0  0  0
  -24.8796  -32.3068   26.4452 H   0  0  0  0  0  0
  -25.7787  -30.9150   27.0206 H   0  0  0  0  0  0
  -26.3306  -29.6384   24.1679 H   0  0  0  0  0  0
  -27.3954  -29.7305   25.5461 H   0  0  0  0  0  0
  -27.9304  -30.3902   24.0248 H   0  0  0  0  0  0
  -27.2570  -33.3759   26.1836 H   0  0  0  0  0  0
  -28.3975  -32.6799   25.0420 H   0  0  0  0  0  0
  -28.0577  -31.8668   26.5619 H   0  0  0  0  0  0
  -28.2551  -38.0042   24.7496 H   0  0  0  0  0  0
  -28.1081  -36.2562   24.6327 H   0  0  0  0  0  0
  -27.2268  -37.1395   25.8869 H   0  0  0  0  0  0
  -20.9779  -29.8656   21.6462 H   0  0  0  0  0  0
  -26.0090  -38.2677   24.1399 H   0  0  0  0  0  0
  -25.4173  -21.5156   20.8775 H   0  0  0  0  0  0
  -26.9082  -19.6312   20.7051 H   0  0  0  0  0  0
  -25.9665  -23.8445   20.6853 H   0  0  0  0  0  0
  -30.0360  -22.5452   20.0533 H   0  0  0  0  0  0
  -30.4530  -19.1893   21.0326 H   0  0  0  0  0  0
  -30.2297  -19.1328   19.3405 H   0  0  0  0  0  0
  -28.5205  -16.9901   20.4480 H   0  0  0  0  0  0
  1 25  1  0  0  0
  1 30  2  0  0  0
  1 78  1  0  0  0
  2  3  1  0  0  0
  2 25  1  0  0  0
  2 79  1  0  0  0
  2 80  1  0  0  0
  3  4  1  0  0  0
  3 81  1  0  0  0
  3 82  1  0  0  0
  4  5  1  0  0  0
  4 83  1  0  0  0
  4 84  1  0  0  0
  5  6  1  0  0  0
  5 26  1  0  0  0
  5 85  1  0  0  0
  6 25  1  0  0  0
  6 86  1  0  0  0
  6 87  1  0  0  0
  7  8  2  0  0  0
  7 26  1  0  0  0
  7 29  1  0  0  0
  8  9  1  0  0  0
  8 22  1  0  0  0
  9 10  1  0  0  0
  9 27  2  0  0  0
 10 11  2  0  0  0
 10 15  1  0  0  0
 11 12  1  0  0  0
 11 88  1  0  0  0
 12 13  2  0  0  0
 12 89  1  0  0  0
 13 14  1  0  0  0
 13 31  1  0  0  0
 14 15  2  0  0  0
 14 90  1  0  0  0
 15 91  1  0  0  0
 16 17  2  0  0  0
 16 21  1  0  0  0
 16 31  1  0  0  0
 17 18  1  0  0  0
 17 92  1  0  0  0
 18 19  2  0  0  0
 18 93  1  0  0  0
 19 20  1  0  0  0
 19 24  1  0  0  0
 20 21  2  0  0  0
 20 94  1  0  0  0
 21 23  1  0  0  0
 22 28  1  0  0  0
 22 32  2  0  0  0
 26 27  1  0  0  0
 28 95  1  0  0  0
 28 96  1  0  0  0
 29 97  1  0  0  0
 29 98  1  0  0  0
 33 34  1  0  0  0
 33 66  1  0  0  0
 33 70  2  0  0  0
 34 36  1  0  0  0
 34 59  1  0  0  0
 34 99  1  0  0  0
 35 44  2  0  0  0
 35 45  1  0  0  0
 35 68  1  0  0  0
 36 56  1  0  0  0
 36100  1  0  0  0
 37 39  1  0  0  0
 37 47  1  0  0  0
 37 66  1  0  0  0
 37101  1  0  0  0
 38 43  2  0  0  0
 38 46  1  0  0  0
 38 47  1  0  0  0
 39 64  1  0  0  0
 39 67  2  0  0  0
 40 52  1  0  0  0
 40 53  2  0  0  0
 40 58  1  0  0  0
 41102  1  0  0  0
 41103  1  0  0  0
 41104  1  0  0  0
 41 48  1  0  0  0
 42 43  1  0  0  0
 42 66  1  0  0  0
 42105  1  0  0  0
 42106  1  0  0  0
 43 44  1  0  0  0
 44107  1  0  0  0
 45 46  2  0  0  0
 45108  1  0  0  0
 46109  1  0  0  0
 47110  1  0  0  0
 47111  1  0  0  0
 48 56  1  0  0  0
 48 65  1  0  0  0
 48112  1  0  0  0
 49 50  1  0  0  0
 49 53  1  0  0  0
 49 64  1  0  0  0
 49113  1  0  0  0
 50 51  1  0  0  0
 50114  1  0  0  0
 50115  1  0  0  0
 51 52  1  0  0  0
 51116  1  0  0  0
 51117  1  0  0  0
 52118  1  0  0  0
 52119  1  0  0  0
 53 54  1  0  0  0
 54 55  2  0  0  0
 54120  1  0  0  0
 55 57  1  0  0  0
 55121  1  0  0  0
 56 69  2  0  0  0
 57 58  2  0  0  0
 57122  1  0  0  0
 58123  1  0  0  0
 59 60  1  0  0  0
 59 61  1  0  0  0
 59 62  1  0  0  0
 60124  1  0  0  0
 60125  1  0  0  0
 60126  1  0  0  0
 61127  1  0  0  0
 61128  1  0  0  0
 61129  1  0  0  0
 62130  1  0  0  0
 62131  1  0  0  0
 62132  1  0  0  0
 63 65  1  0  0  0
 63133  1  0  0  0
 63134  1  0  0  0
 63135  1  0  0  0
 64136  1  0  0  0
 65137  1  0  0  0
 68 76  1  0  0  0
 71 72  2  0  0  0
 71 73  1  0  0  0
 71138  1  0  0  0
 72 75  1  0  0  0
 72139  1  0  0  0
 73 76  2  0  0  0
 73140  1  0  0  0
 74 75  2  0  0  0
 74 76  1  0  0  0
 74141  1  0  0  0
 75 77  1  0  0  0
 77 78  1  0  0  0
 77142  1  0  0  0
 77143  1  0  0  0
 78144  1  0  0  0
M  ISO  4   1 100  68 101  76 101  78 100
M  END
> <chiral flag>
0

> <version>
0

> <s_m_source_file>
/data/baiqing/PycharmProjects/Reinvent-master-3.2/result/LINK_invent/BTK/process_docking_weight1_custom_sum_contain_oxygen_bond_distance_aromatic_linkinvent_7_9_3/rearranged_h_0000.sdf

> <i_m_source_file_index>
33

> <r_mmod_Potential_Energy-OPLS-2005>
2769.08959960938

> <r_mmod_Stretch_Energy-OPLS-2005>
1243.04919433594

> <r_mmod_Bend_Energy-OPLS-2005>
646.241638183594

> <r_mmod_Torsional_Energy-OPLS-2005>
201.411758422852

> <r_mmod_Improper_Torsional_Energy-OPLS-2005>
3.7339494228363

> <r_mmod_Van_der_Waal_Energy-OPLS-2005>
127.41130065918

> <r_mmod_Electrostatic_Energy-OPLS-2005>
-376.12548828125

> <r_mmod_Solvation_Energy-OPLS-2005>
-220.923278808594

> <b_mmod_Minimization_Converged-OPLS-2005>
0

> <r_mmod_RMS_Derivative-OPLS-2005>
0.552049160003662

$$$$
35
                    3D
 Structure written by MMmdl.
184192  0  0  1  0            999 V2000
  -31.0387  -13.6173   20.9383 C   0  0  0  0  0  0
  -30.3796  -12.5587   19.0045 C   0  0  0  0  0  0
  -29.4056  -12.9112   17.9470 C   0  0  0  0  0  0
  -27.9912  -12.7597   18.4461 C   0  0  0  0  0  0
  -27.6022  -13.3788   19.8070 C   0  0  2  0  0  0
  -28.6644  -13.2471   20.8627 C   0  0  0  0  0  0
  -25.2280  -13.8386   20.6134 C   0  0  0  0  0  0
  -24.1510  -13.0483   20.9264 C   0  0  0  0  0  0
  -24.6338  -11.7170   20.9127 C   0  0  0  0  0  0
  -23.9153  -10.4369   21.0494 C   0  0  0  0  0  0
  -24.3706   -9.4264   21.9244 C   0  0  0  0  0  0
  -23.6389   -8.2319   22.0804 C   0  0  0  0  0  0
  -22.4419   -8.0383   21.3486 C   0  0  0  0  0  0
  -22.0073   -9.0296   20.4553 C   0  0  0  0  0  0
  -22.7489  -10.2168   20.2879 C   0  0  0  0  0  0
  -21.7063   -6.0788   22.5180 C   0  0  0  0  0  0
  -21.4207   -6.5671   23.8098 C   0  0  0  0  0  0
  -21.3693   -5.6767   24.8986 C   0  0  0  0  0  0
  -21.6054   -4.3021   24.7015 C   0  0  0  0  0  0
  -21.8992   -3.8085   23.4160 C   0  0  0  0  0  0
  -21.9276   -4.6951   22.3263 C   0  0  0  0  0  0
  -22.7562  -13.5196   21.1687 C   0  0  0  0  0  0
  -22.1764   -4.2184   21.0829 F   0  0  0  0  0  0
  -21.5400   -3.4495   25.7506 F   0  0  0  0  0  0
  -30.0071  -13.2142   20.2592 N   0  0  0  0  0  0
  -26.2766  -13.0029   20.3449 N   0  0  0  0  0  0
  -25.9429  -11.7427   20.7280 N   0  0  0  0  0  0
  -22.0261  -12.7797   22.0009 N   0  0  0  0  0  0
  -25.4147  -15.1951   20.5476 N   0  0  0  0  0  0
  -31.7948  -14.5183   20.5300 O   0  0  0  0  0  0
  -21.6757   -6.9008   21.4231 O   0  0  0  0  0  0
  -22.3308  -14.5606   20.6750 O   0  0  0  0  0  0
  -24.6312  -31.8613   23.2026 C   0  0  0  0  0  0
  -25.9130  -32.4778   23.8354 C   0  0  1  0  0  0
  -27.1400  -27.2831   20.0440 C   0  0  0  0  0  0
  -25.5995  -33.8583   24.2280 N   0  0  0  0  0  0
  -23.4172  -30.4950   21.5526 C   0  0  2  0  0  0
  -24.8376  -28.9534   20.1063 C   0  0  0  0  0  0
  -22.7466  -29.4642   22.4934 C   0  0  0  0  0  0
  -18.0275  -28.1384   22.8463 C   0  0  0  0  0  0
  -24.1501  -36.7284   23.2625 C   0  0  0  0  0  0
  -25.9699  -30.7680   21.3802 C   0  0  0  0  0  0
  -26.0257  -29.4018   20.7023 C   0  0  0  0  0  0
  -27.1932  -28.5761   20.6636 C   0  0  0  0  0  0
  -25.9249  -26.8931   19.4584 C   0  0  0  0  0  0
  -24.7877  -27.7039   19.4803 C   0  0  0  0  0  0
  -23.6245  -29.8516   20.1643 C   0  0  0  0  0  0
  -25.4114  -36.3062   24.0316 C   0  0  1  0  0  0
  -20.5883  -28.3690   23.1280 C   0  0  2  0  0  0
  -20.6767  -26.9428   22.5394 C   0  0  0  0  0  0
  -19.5754  -26.6375   21.5180 C   0  0  0  0  0  0
  -18.1931  -26.7910   22.1598 C   0  0  0  0  0  0
  -19.1539  -28.8842   23.2861 C   0  0  0  0  0  0
  -18.9455  -30.1427   23.8902 C   0  0  0  0  0  0
  -17.6468  -30.6591   24.0542 C   0  0  0  0  0  0
  -25.9082  -34.9443   23.5092 C   0  0  0  0  0  0
  -16.5351  -29.9096   23.6323 C   0  0  0  0  0  0
  -16.7258  -28.6511   23.0336 C   0  0  0  0  0  0
  -26.4514  -31.6594   25.0751 C   0  0  0  0  0  0
  -25.3737  -31.3799   26.1491 C   0  0  0  0  0  0
  -27.0333  -30.2992   24.6249 C   0  0  0  0  0  0
  -27.6066  -32.4329   25.7553 C   0  0  0  0  0  0
  -27.5596  -37.1778   24.8452 C   0  0  0  0  0  0
  -21.4177  -29.3042   22.3667 N   0  0  0  0  0  0
  -26.4276  -37.3766   23.9416 N   0  0  0  0  0  0
  -24.6942  -31.0564   22.1031 N   0  0  0  0  0  0
  -23.4206  -28.8125   23.2966 O   0  0  0  0  0  0
  -28.1986  -26.3706   19.9752 O   0  0  0  0  0  0
  -26.5597  -34.8906   22.4637 O   0  0  0  0  0  0
  -23.5464  -32.1459   23.7338 O   0  0  0  0  0  0
  -24.8550  -17.7527   19.2062 C   0  0  0  0  0  0
  -26.3871  -18.9356   17.7587 C   0  0  0  0  0  0
  -25.7067  -19.9430   19.8644 C   0  0  0  0  0  0
  -25.6530  -17.7166   18.0490 C   0  0  0  0  0  0
  -24.9398  -18.7920   20.1570 C   0  0  0  0  0  0
  -26.4086  -20.0887   18.6423 C   0  0  0  0  0  0
  -25.5974  -16.4550   17.1409 C   0  0  0  0  0  0
  -23.9372  -18.8900   23.7245 C   0  0  0  0  0  0
  -24.6200  -19.4235   22.4585 C   0  0  0  0  0  0
  -27.6479  -23.8882   18.8894 C   0  0  0  0  0  0
  -24.5448  -14.0442   17.0722 C   0  0  0  0  0  0
  -27.8724  -24.9164   20.1065 C   0  0  0  0  0  0
  -27.1204  -22.4283   19.3023 C   0  0  0  0  0  0
  -25.0907  -12.5202   16.9610 C   0  0  0  0  0  0
  -26.1429  -10.3567   17.8053 C   0  0  0  0  0  0
  -26.9100   -9.5320   19.0004 C   0  0  0  0  0  0
  -29.1716   -9.7343   20.3069 C   0  0  0  0  0  0
  -29.9956  -10.4339   21.5368 C   0  0  0  0  0  0
  -24.4395  -19.2547   24.9011 N   0  0  0  0  0  0
  -25.2971  -15.2215   17.6791 N   0  0  0  0  0  0
  -31.3386  -12.5912   21.7939 N   0  0  0  0  0  0
  -25.8130  -16.5792   15.9360 O   0  0  0  0  0  0
  -22.9596  -18.1484   23.6525 O   0  0  0  0  0  0
  -24.2489  -18.6156   21.3384 O   0  0  0  0  0  0
  -27.0605  -21.3117   18.3241 O   0  0  0  0  0  0
  -25.4193  -11.6228   18.0701 O   0  0  0  0  0  0
  -27.8325  -10.1887   19.9673 O   0  0  0  0  0  0
  -31.2245  -11.2174   21.2685 O   0  0  0  0  0  0
  -31.3486  -12.8983   18.6277 H   0  0  0  0  0  0
  -30.5348  -11.4985   19.0618 H   0  0  0  0  0  0
  -29.5587  -12.2786   17.0766 H   0  0  0  0  0  0
  -29.6097  -13.9245   17.6027 H   0  0  0  0  0  0
  -27.9404  -11.7091   18.4818 H   0  0  0  0  0  0
  -27.3617  -13.1921   17.6752 H   0  0  0  0  0  0
  -27.5770  -14.4468   19.5874 H   0  0  0  0  0  0
  -28.4295  -12.4655   21.5661 H   0  0  0  0  0  0
  -28.5897  -14.1553   21.4625 H   0  0  0  0  0  0
  -25.2951   -9.5755   22.4638 H   0  0  0  0  0  0
  -23.9963   -7.4777   22.7693 H   0  0  0  0  0  0
  -21.1029   -8.8590   19.8962 H   0  0  0  0  0  0
  -22.4173  -10.9522   19.5686 H   0  0  0  0  0  0
  -21.2481   -7.6233   23.9534 H   0  0  0  0  0  0
  -21.1267   -6.0487   25.8865 H   0  0  0  0  0  0
  -22.0746   -2.7541   23.2576 H   0  0  0  0  0  0
  -21.0721  -13.0453   22.1919 H   0  0  0  0  0  0
  -22.3716  -11.9084   22.3802 H   0  0  0  0  0  0
  -24.7929  -15.7393   21.1374 H   0  0  0  0  0  0
  -26.3523  -15.5840   20.5404 H   0  0  0  0  0  0
  -26.7179  -32.5383   23.1053 H   0  0  0  0  0  0
  -25.0189  -33.9755   25.0474 H   0  0  0  0  0  0
  -22.7124  -31.3184   21.4192 H   0  0  0  0  0  0
  -23.3771  -35.9624   23.3252 H   0  0  0  0  0  0
  -24.3605  -36.8928   22.2056 H   0  0  0  0  0  0
  -23.7242  -37.6469   23.6666 H   0  0  0  0  0  0
  -26.1150  -31.5357   20.6213 H   0  0  0  0  0  0
  -26.8500  -30.8065   22.0123 H   0  0  0  0  0  0
  -28.1073  -28.9022   21.1399 H   0  0  0  0  0  0
  -25.8189  -25.9448   18.9615 H   0  0  0  0  0  0
  -23.8757  -27.3529   19.0135 H   0  0  0  0  0  0
  -23.7598  -30.6396   19.4239 H   0  0  0  0  0  0
  -22.7360  -29.3022   19.8458 H   0  0  0  0  0  0
  -25.1268  -36.1916   25.0807 H   0  0  0  0  0  0
  -20.9930  -28.3239   24.1398 H   0  0  0  0  0  0
  -20.5641  -26.2298   23.3574 H   0  0  0  0  0  0
  -21.6642  -26.7430   22.1198 H   0  0  0  0  0  0
  -19.6939  -25.6273   21.1221 H   0  0  0  0  0  0
  -19.6702  -27.3175   20.6702 H   0  0  0  0  0  0
  -17.4173  -26.6597   21.4014 H   0  0  0  0  0  0
  -18.0380  -26.0073   22.9039 H   0  0  0  0  0  0
  -19.7943  -30.7211   24.2296 H   0  0  0  0  0  0
  -17.5040  -31.6274   24.5144 H   0  0  0  0  0  0
  -15.5364  -30.3004   23.7652 H   0  0  0  0  0  0
  -15.8636  -28.0823   22.7070 H   0  0  0  0  0  0
  -24.5926  -30.7104   25.7858 H   0  0  0  0  0  0
  -24.8935  -32.3006   26.4816 H   0  0  0  0  0  0
  -25.8093  -30.9082   27.0305 H   0  0  0  0  0  0
  -26.2927  -29.6765   24.1209 H   0  0  0  0  0  0
  -27.3911  -29.7234   25.4783 H   0  0  0  0  0  0
  -27.8856  -30.4213   23.9565 H   0  0  0  0  0  0
  -27.2648  -33.3599   26.2155 H   0  0  0  0  0  0
  -28.3911  -32.6904   25.0432 H   0  0  0  0  0  0
  -28.0690  -31.8429   26.5466 H   0  0  0  0  0  0
  -28.2534  -38.0145   24.7533 H   0  0  0  0  0  0
  -28.1159  -36.2656   24.6207 H   0  0  0  0  0  0
  -27.2323  -37.1338   25.8856 H   0  0  0  0  0  0
  -20.9343  -29.8885   21.6994 H   0  0  0  0  0  0
  -26.0157  -38.2836   24.1449 H   0  0  0  0  0  0
  -24.1843  -16.9305   19.4053 H   0  0  0  0  0  0
  -26.9297  -18.9847   16.8280 H   0  0  0  0  0  0
  -25.7115  -20.7400   20.5893 H   0  0  0  0  0  0
  -25.7044  -19.4085   22.5906 H   0  0  0  0  0  0
  -24.3080  -20.4581   22.3122 H   0  0  0  0  0  0
  -28.5867  -23.7818   18.3459 H   0  0  0  0  0  0
  -26.9481  -24.3058   18.1620 H   0  0  0  0  0  0
  -23.5643  -14.0091   17.5451 H   0  0  0  0  0  0
  -24.2830  -14.3452   16.0564 H   0  0  0  0  0  0
  -28.7056  -24.5066   20.6789 H   0  0  0  0  0  0
  -27.0193  -24.8201   20.7811 H   0  0  0  0  0  0
  -26.1241  -22.5895   19.7115 H   0  0  0  0  0  0
  -27.7398  -22.0887   20.1353 H   0  0  0  0  0  0
  -25.8920  -12.4965   16.2288 H   0  0  0  0  0  0
  -24.2623  -11.9781   16.5000 H   0  0  0  0  0  0
  -25.4482   -9.6972   17.2667 H   0  0  0  0  0  0
  -26.8939  -10.5512   17.0378 H   0  0  0  0  0  0
  -27.4348   -8.6976   18.5344 H   0  0  0  0  0  0
  -26.1748   -9.0226   19.6262 H   0  0  0  0  0  0
  -29.0888   -8.6645   20.4868 H   0  0  0  0  0  0
  -29.7212   -9.7291   19.3729 H   0  0  0  0  0  0
  -30.3946   -9.5737   22.0771 H   0  0  0  0  0  0
  -29.3798  -10.8665   22.3307 H   0  0  0  0  0  0
  -25.2196  -19.8956   24.9729 H   0  0  0  0  0  0
  -24.0282  -18.8915   25.7459 H   0  0  0  0  0  0
  -25.2930  -15.2316   18.7005 H   0  0  0  0  0  0
  -32.1901  -12.6420   22.3344 H   0  0  0  0  0  0
  1 25  1  0  0  0
  1 30  2  0  0  0
  1 91  1  0  0  0
  2  3  1  0  0  0
  2 25  1  0  0  0
  2 99  1  0  0  0
  2100  1  0  0  0
  3  4  1  0  0  0
  3101  1  0  0  0
  3102  1  0  0  0
  4  5  1  0  0  0
  4103  1  0  0  0
  4104  1  0  0  0
  5  6  1  0  0  0
  5 26  1  0  0  0
  5105  1  0  0  0
  6 25  1  0  0  0
  6106  1  0  0  0
  6107  1  0  0  0
  7  8  2  0  0  0
  7 26  1  0  0  0
  7 29  1  0  0  0
  8  9  1  0  0  0
  8 22  1  0  0  0
  9 10  1  0  0  0
  9 27  2  0  0  0
 10 11  2  0  0  0
 10 15  1  0  0  0
 11 12  1  0  0  0
 11108  1  0  0  0
 12 13  2  0  0  0
 12109  1  0  0  0
 13 14  1  0  0  0
 13 31  1  0  0  0
 14 15  2  0  0  0
 14110  1  0  0  0
 15111  1  0  0  0
 16 17  2  0  0  0
 16 21  1  0  0  0
 16 31  1  0  0  0
 17 18  1  0  0  0
 17112  1  0  0  0
 18 19  2  0  0  0
 18113  1  0  0  0
 19 20  1  0  0  0
 19 24  1  0  0  0
 20 21  2  0  0  0
 20114  1  0  0  0
 21 23  1  0  0  0
 22 28  1  0  0  0
 22 32  2  0  0  0
 26 27  1  0  0  0
 28115  1  0  0  0
 28116  1  0  0  0
 29117  1  0  0  0
 29118  1  0  0  0
 33 34  1  0  0  0
 33 66  1  0  0  0
 33 70  2  0  0  0
 34 36  1  0  0  0
 34 59  1  0  0  0
 34119  1  0  0  0
 35 44  2  0  0  0
 35 45  1  0  0  0
 35 68  1  0  0  0
 36 56  1  0  0  0
 36120  1  0  0  0
 37 39  1  0  0  0
 37 47  1  0  0  0
 37 66  1  0  0  0
 37121  1  0  0  0
 38 43  2  0  0  0
 38 46  1  0  0  0
 38 47  1  0  0  0
 39 64  1  0  0  0
 39 67  2  0  0  0
 40 52  1  0  0  0
 40 53  2  0  0  0
 40 58  1  0  0  0
 41122  1  0  0  0
 41123  1  0  0  0
 41124  1  0  0  0
 41 48  1  0  0  0
 42 43  1  0  0  0
 42 66  1  0  0  0
 42125  1  0  0  0
 42126  1  0  0  0
 43 44  1  0  0  0
 44127  1  0  0  0
 45 46  2  0  0  0
 45128  1  0  0  0
 46129  1  0  0  0
 47130  1  0  0  0
 47131  1  0  0  0
 48 56  1  0  0  0
 48 65  1  0  0  0
 48132  1  0  0  0
 49 50  1  0  0  0
 49 53  1  0  0  0
 49 64  1  0  0  0
 49133  1  0  0  0
 50 51  1  0  0  0
 50134  1  0  0  0
 50135  1  0  0  0
 51 52  1  0  0  0
 51136  1  0  0  0
 51137  1  0  0  0
 52138  1  0  0  0
 52139  1  0  0  0
 53 54  1  0  0  0
 54 55  2  0  0  0
 54140  1  0  0  0
 55 57  1  0  0  0
 55141  1  0  0  0
 56 69  2  0  0  0
 57 58  2  0  0  0
 57142  1  0  0  0
 58143  1  0  0  0
 59 60  1  0  0  0
 59 61  1  0  0  0
 59 62  1  0  0  0
 60144  1  0  0  0
 60145  1  0  0  0
 60146  1  0  0  0
 61147  1  0  0  0
 61148  1  0  0  0
 61149  1  0  0  0
 62150  1  0  0  0
 62151  1  0  0  0
 62152  1  0  0  0
 63 65  1  0  0  0
 63153  1  0  0  0
 63154  1  0  0  0
 63155  1  0  0  0
 64156  1  0  0  0
 65157  1  0  0  0
 68 82  1  0  0  0
 71 74  2  0  0  0
 71 75  1  0  0  0
 71158  1  0  0  0
 72 74  1  0  0  0
 72 76  2  0  0  0
 72159  1  0  0  0
 73 75  2  0  0  0
 73 76  1  0  0  0
 73160  1  0  0  0
 74 77  1  0  0  0
 75 94  1  0  0  0
 76 95  1  0  0  0
 77 90  1  0  0  0
 77 92  2  0  0  0
 78 79  1  0  0  0
 78 89  1  0  0  0
 78 93  2  0  0  0
 79 94  1  0  0  0
 79161  1  0  0  0
 79162  1  0  0  0
 80 82  1  0  0  0
 80 83  1  0  0  0
 80163  1  0  0  0
 80164  1  0  0  0
 81 84  1  0  0  0
 81 90  1  0  0  0
 81165  1  0  0  0
 81166  1  0  0  0
 82167  1  0  0  0
 82168  1  0  0  0
 83 95  1  0  0  0
 83169  1  0  0  0
 83170  1  0  0  0
 84 96  1  0  0  0
 84171  1  0  0  0
 84172  1  0  0  0
 85 86  1  0  0  0
 85 96  1  0  0  0
 85173  1  0  0  0
 85174  1  0  0  0
 86 97  1  0  0  0
 86175  1  0  0  0
 86176  1  0  0  0
 87 88  1  0  0  0
 87 97  1  0  0  0
 87177  1  0  0  0
 87178  1  0  0  0
 88 98  1  0  0  0
 88179  1  0  0  0
 88180  1  0  0  0
 89181  1  0  0  0
 89182  1  0  0  0
 90183  1  0  0  0
 91 98  1  0  0  0
 91184  1  0  0  0
M  ISO  4   1 100  68 101  82 101  91 100
M  END
> <chiral flag>
0

> <version>
0

> <s_m_source_file>
/data/baiqing/PycharmProjects/Reinvent-master-3.2/result/LINK_invent/BTK/process_docking_weight1_custom_sum_contain_oxygen_bond_distance_aromatic_linkinvent_7_9_3/rearranged_h_0000.sdf

> <i_m_source_file_index>
34

> <r_mmod_Potential_Energy-OPLS-2005>
627.229125976562

> <r_mmod_Stretch_Energy-OPLS-2005>
194.288482666016

> <r_mmod_Bend_Energy-OPLS-2005>
351.593475341797

> <r_mmod_Torsional_Energy-OPLS-2005>
358.576965332031

> <r_mmod_Improper_Torsional_Energy-OPLS-2005>
24.8526458740234

> <r_mmod_Van_der_Waal_Energy-OPLS-2005>
235.099426269531

> <r_mmod_Electrostatic_Energy-OPLS-2005>
-468.424011230469

> <r_mmod_Solvation_Energy-OPLS-2005>
-291.270935058594

> <b_mmod_Minimization_Converged-OPLS-2005>
0

> <r_mmod_RMS_Derivative-OPLS-2005>
13.5973320007324

$$$$
36
                    3D
 Structure written by MMmdl.
162170  0  0  1  0            999 V2000
  -30.7775  -14.3863   20.6738 C   0  0  0  0  0  0
  -30.4124  -12.2951   19.4070 C   0  0  0  0  0  0
  -29.4851  -12.5190   18.1985 C   0  0  0  0  0  0
  -28.0121  -12.3655   18.6175 C   0  0  0  0  0  0
  -27.6646  -13.2057   19.8748 C   0  0  2  0  0  0
  -28.7046  -12.9855   20.9972 C   0  0  0  0  0  0
  -25.2600  -13.8160   20.5681 C   0  0  0  0  0  0
  -24.1841  -13.0440   20.9167 C   0  0  0  0  0  0
  -24.6392  -11.6909   20.8724 C   0  0  0  0  0  0
  -23.9053  -10.4294   21.0395 C   0  0  0  0  0  0
  -24.3602   -9.4209   21.9177 C   0  0  0  0  0  0
  -23.6278   -8.2245   22.0751 C   0  0  0  0  0  0
  -22.4263   -8.0278   21.3541 C   0  0  0  0  0  0
  -21.9895   -9.0253   20.4647 C   0  0  0  0  0  0
  -22.7223  -10.2133   20.3051 C   0  0  0  0  0  0
  -21.6852   -6.0726   22.5275 C   0  0  0  0  0  0
  -21.4014   -6.5632   23.8207 C   0  0  0  0  0  0
  -21.3662   -5.6787   24.9172 C   0  0  0  0  0  0
  -21.6046   -4.3051   24.7227 C   0  0  0  0  0  0
  -21.8819   -3.8140   23.4348 C   0  0  0  0  0  0
  -21.9193   -4.6952   22.3402 C   0  0  0  0  0  0
  -22.7867  -13.5241   21.1839 C   0  0  0  0  0  0
  -22.1660   -4.2135   21.0979 F   0  0  0  0  0  0
  -21.5631   -3.4539   25.7742 F   0  0  0  0  0  0
  -30.0449  -13.2613   20.4545 N   0  0  0  0  0  0
  -26.3040  -12.9332   20.3367 N   0  0  0  0  0  0
  -25.9320  -11.6490   20.5755 N   0  0  0  0  0  0
  -22.0503  -12.8239   22.0395 N   0  0  0  0  0  0
  -25.4326  -15.1880   20.4110 N   0  0  0  0  0  0
  -31.8148  -14.6107   20.0421 O   0  0  0  0  0  0
  -21.6640   -6.8870   21.4236 O   0  0  0  0  0  0
  -22.3556  -14.5544   20.6685 O   0  0  0  0  0  0
  -24.6112  -31.8714   23.2118 C   0  0  0  0  0  0
  -25.9016  -32.4845   23.8415 C   0  0  1  0  0  0
  -27.2408  -27.4738   20.0880 C   0  0  0  0  0  0
  -25.5882  -33.8640   24.2358 N   0  0  0  0  0  0
  -23.3991  -30.4915   21.5517 C   0  0  2  0  0  0
  -24.8482  -28.9605   20.1151 C   0  0  0  0  0  0
  -22.7394  -29.4654   22.5008 C   0  0  0  0  0  0
  -18.0259  -28.1363   22.8483 C   0  0  0  0  0  0
  -24.1489  -36.7323   23.2639 C   0  0  0  0  0  0
  -25.9222  -30.8463   21.3586 C   0  0  0  0  0  0
  -26.0028  -29.4790   20.7160 C   0  0  0  0  0  0
  -27.2032  -28.7391   20.7095 C   0  0  0  0  0  0
  -26.0794  -26.9637   19.4734 C   0  0  0  0  0  0
  -24.8777  -27.6973   19.4957 C   0  0  0  0  0  0
  -23.6075  -29.8230   20.1654 C   0  0  0  0  0  0
  -25.4104  -36.3125   24.0352 C   0  0  1  0  0  0
  -20.5849  -28.3645   23.1329 C   0  0  2  0  0  0
  -20.6757  -26.9388   22.5419 C   0  0  0  0  0  0
  -19.5742  -26.6381   21.5208 C   0  0  0  0  0  0
  -18.1915  -26.7906   22.1618 C   0  0  0  0  0  0
  -19.1506  -28.8816   23.2901 C   0  0  0  0  0  0
  -18.9449  -30.1420   23.8919 C   0  0  0  0  0  0
  -17.6458  -30.6573   24.0559 C   0  0  0  0  0  0
  -25.9023  -34.9485   23.5152 C   0  0  0  0  0  0
  -16.5344  -29.9084   23.6314 C   0  0  0  0  0  0
  -16.7251  -28.6496   23.0333 C   0  0  0  0  0  0
  -26.4457  -31.6598   25.0720 C   0  0  0  0  0  0
  -25.3744  -31.3686   26.1491 C   0  0  0  0  0  0
  -27.0274  -30.3054   24.6031 C   0  0  0  0  0  0
  -27.6070  -32.4279   25.7472 C   0  0  0  0  0  0
  -27.5592  -37.1812   24.8470 C   0  0  0  0  0  0
  -21.4126  -29.3026   22.3751 N   0  0  0  0  0  0
  -26.4303  -37.3801   23.9409 N   0  0  0  0  0  0
  -24.6625  -31.0837   22.0993 N   0  0  0  0  0  0
  -23.4179  -28.8196   23.3046 O   0  0  0  0  0  0
  -28.3995  -26.7417   20.0453 O   0  0  0  0  0  0
  -26.5590  -34.8928   22.4712 O   0  0  0  0  0  0
  -23.5309  -32.1453   23.7519 O   0  0  0  0  0  0
  -33.1077  -21.7927   24.3706 C   0  0  0  0  0  0
  -31.9325  -22.5500   24.2142 C   0  0  0  0  0  0
  -33.1192  -20.4329   24.0086 C   0  0  0  0  0  0
  -30.7789  -20.5778   23.3537 C   0  0  0  0  0  0
  -30.7635  -21.9481   23.7029 C   0  0  0  0  0  0
  -31.9633  -19.8102   23.4945 C   0  0  0  0  0  0
  -29.5334  -22.7502   23.5624 C   0  0  0  0  0  0
  -28.7038  -22.8806   24.8290 C   0  0  0  0  0  0
  -30.3195  -15.4423   21.7038 C   0  0  0  0  0  0
  -31.4428  -16.4202   22.1439 C   0  0  0  0  0  0
  -30.9436  -17.7769   22.6627 C   0  0  0  0  0  0
  -28.6838  -26.0170   21.2400 C   0  0  0  0  0  0
  -27.7999  -24.7542   21.3470 C   0  0  0  0  0  0
  -29.2144  -23.3076   22.4616 N   0  0  0  0  0  0
  -32.0813  -18.4791   23.1555 O   0  0  0  0  0  0
  -28.0185  -24.0408   22.5589 O   0  0  0  0  0  0
  -31.4568  -12.3768   19.1012 H   0  0  0  0  0  0
  -30.2989  -11.2798   19.7902 H   0  0  0  0  0  0
  -29.7242  -11.8107   17.4046 H   0  0  0  0  0  0
  -29.6502  -13.5146   17.7836 H   0  0  0  0  0  0
  -27.8340  -11.3083   18.8185 H   0  0  0  0  0  0
  -27.3534  -12.6312   17.7902 H   0  0  0  0  0  0
  -27.7129  -14.2543   19.5798 H   0  0  0  0  0  0
  -28.6665  -11.9552   21.3534 H   0  0  0  0  0  0
  -28.4481  -13.6011   21.8570 H   0  0  0  0  0  0
  -25.2746   -9.5692   22.4755 H   0  0  0  0  0  0
  -23.9990   -7.4640   22.7470 H   0  0  0  0  0  0
  -21.0827   -8.8770   19.8957 H   0  0  0  0  0  0
  -22.3673  -10.9670   19.6163 H   0  0  0  0  0  0
  -21.2006   -7.6144   23.9704 H   0  0  0  0  0  0
  -21.1486   -6.0523   25.9074 H   0  0  0  0  0  0
  -22.0597   -2.7603   23.2856 H   0  0  0  0  0  0
  -22.4112  -11.9907   22.4799 H   0  0  0  0  0  0
  -21.1119  -13.1271   22.2588 H   0  0  0  0  0  0
  -24.6691  -15.8463   20.5225 H   0  0  0  0  0  0
  -26.2954  -15.6285   20.1164 H   0  0  0  0  0  0
  -26.7092  -32.5569   23.1189 H   0  0  0  0  0  0
  -25.0055  -33.9806   25.0521 H   0  0  0  0  0  0
  -22.6868  -31.3066   21.4127 H   0  0  0  0  0  0
  -23.3749  -35.9659   23.3303 H   0  0  0  0  0  0
  -24.3600  -36.8927   22.2056 H   0  0  0  0  0  0
  -23.7237  -37.6528   23.6643 H   0  0  0  0  0  0
  -26.0260  -31.6071   20.5829 H   0  0  0  0  0  0
  -26.8132  -30.9075   21.9713 H   0  0  0  0  0  0
  -28.0975  -29.1360   21.1692 H   0  0  0  0  0  0
  -26.1070  -26.0024   18.9806 H   0  0  0  0  0  0
  -23.9924  -27.2931   19.0240 H   0  0  0  0  0  0
  -23.7140  -30.5986   19.4058 H   0  0  0  0  0  0
  -22.7322  -29.2411   19.8707 H   0  0  0  0  0  0
  -25.1273  -36.2017   25.0851 H   0  0  0  0  0  0
  -20.9930  -28.3202   24.1450 H   0  0  0  0  0  0
  -20.5667  -26.2249   23.3599 H   0  0  0  0  0  0
  -21.6633  -26.7447   22.1215 H   0  0  0  0  0  0
  -19.6917  -25.6304   21.1215 H   0  0  0  0  0  0
  -19.6682  -27.3210   20.6753 H   0  0  0  0  0  0
  -17.4194  -26.6637   21.4012 H   0  0  0  0  0  0
  -18.0308  -26.0050   22.9013 H   0  0  0  0  0  0
  -19.7933  -30.7198   24.2324 H   0  0  0  0  0  0
  -17.5024  -31.6259   24.5153 H   0  0  0  0  0  0
  -15.5346  -30.3001   23.7623 H   0  0  0  0  0  0
  -15.8644  -28.0829   22.7042 H   0  0  0  0  0  0
  -24.5945  -30.6987   25.7852 H   0  0  0  0  0  0
  -24.8897  -32.2826   26.4936 H   0  0  0  0  0  0
  -25.8135  -30.8898   27.0256 H   0  0  0  0  0  0
  -26.2790  -29.6813   24.1135 H   0  0  0  0  0  0
  -27.4131  -29.7290   25.4448 H   0  0  0  0  0  0
  -27.8584  -30.4397   23.9101 H   0  0  0  0  0  0
  -27.2754  -33.3610   26.2034 H   0  0  0  0  0  0
  -28.3893  -32.6761   25.0286 H   0  0  0  0  0  0
  -28.0697  -31.8381   26.5394 H   0  0  0  0  0  0
  -28.2620  -38.0100   24.7523 H   0  0  0  0  0  0
  -28.1081  -36.2641   24.6291 H   0  0  0  0  0  0
  -27.2320  -37.1449   25.8875 H   0  0  0  0  0  0
  -20.9279  -29.8781   21.7006 H   0  0  0  0  0  0
  -26.0209  -38.2896   24.1379 H   0  0  0  0  0  0
  -34.0018  -22.2555   24.7658 H   0  0  0  0  0  0
  -31.9293  -23.5970   24.4882 H   0  0  0  0  0  0
  -34.0298  -19.8627   24.1274 H   0  0  0  0  0  0
  -29.8667  -20.1385   22.9765 H   0  0  0  0  0  0
  -29.0170  -22.1549   25.5796 H   0  0  0  0  0  0
  -27.6473  -22.7123   24.6225 H   0  0  0  0  0  0
  -28.8233  -23.8809   25.2452 H   0  0  0  0  0  0
  -29.4982  -15.9989   21.2516 H   0  0  0  0  0  0
  -29.9265  -14.9613   22.5986 H   0  0  0  0  0  0
  -32.1326  -16.6353   21.3278 H   0  0  0  0  0  0
  -32.0401  -15.9360   22.9174 H   0  0  0  0  0  0
  -30.2096  -17.6493   23.4590 H   0  0  0  0  0  0
  -30.4732  -18.3181   21.8403 H   0  0  0  0  0  0
  -29.7367  -25.7355   21.2168 H   0  0  0  0  0  0
  -28.5572  -26.6506   22.1205 H   0  0  0  0  0  0
  -27.9215  -24.1097   20.4736 H   0  0  0  0  0  0
  -26.7517  -25.0524   21.3538 H   0  0  0  0  0  0
  1 25  1  0  0  0
  1 30  2  0  0  0
  1 79  1  0  0  0
  2  3  1  0  0  0
  2 25  1  0  0  0
  2 87  1  0  0  0
  2 88  1  0  0  0
  3  4  1  0  0  0
  3 89  1  0  0  0
  3 90  1  0  0  0
  4  5  1  0  0  0
  4 91  1  0  0  0
  4 92  1  0  0  0
  5  6  1  0  0  0
  5 26  1  0  0  0
  5 93  1  0  0  0
  6 25  1  0  0  0
  6 94  1  0  0  0
  6 95  1  0  0  0
  7  8  2  0  0  0
  7 26  1  0  0  0
  7 29  1  0  0  0
  8  9  1  0  0  0
  8 22  1  0  0  0
  9 10  1  0  0  0
  9 27  2  0  0  0
 10 11  2  0  0  0
 10 15  1  0  0  0
 11 12  1  0  0  0
 11 96  1  0  0  0
 12 13  2  0  0  0
 12 97  1  0  0  0
 13 14  1  0  0  0
 13 31  1  0  0  0
 14 15  2  0  0  0
 14 98  1  0  0  0
 15 99  1  0  0  0
 16 17  2  0  0  0
 16 21  1  0  0  0
 16 31  1  0  0  0
 17 18  1  0  0  0
 17100  1  0  0  0
 18 19  2  0  0  0
 18101  1  0  0  0
 19 20  1  0  0  0
 19 24  1  0  0  0
 20 21  2  0  0  0
 20102  1  0  0  0
 21 23  1  0  0  0
 22 28  1  0  0  0
 22 32  2  0  0  0
 26 27  1  0  0  0
 28103  1  0  0  0
 28104  1  0  0  0
 29105  1  0  0  0
 29106  1  0  0  0
 33 34  1  0  0  0
 33 66  1  0  0  0
 33 70  2  0  0  0
 34 36  1  0  0  0
 34 59  1  0  0  0
 34107  1  0  0  0
 35 44  2  0  0  0
 35 45  1  0  0  0
 35 68  1  0  0  0
 36 56  1  0  0  0
 36108  1  0  0  0
 37 39  1  0  0  0
 37 47  1  0  0  0
 37 66  1  0  0  0
 37109  1  0  0  0
 38 43  2  0  0  0
 38 46  1  0  0  0
 38 47  1  0  0  0
 39 64  1  0  0  0
 39 67  2  0  0  0
 40 52  1  0  0  0
 40 53  2  0  0  0
 40 58  1  0  0  0
 41110  1  0  0  0
 41111  1  0  0  0
 41112  1  0  0  0
 41 48  1  0  0  0
 42 43  1  0  0  0
 42 66  1  0  0  0
 42113  1  0  0  0
 42114  1  0  0  0
 43 44  1  0  0  0
 44115  1  0  0  0
 45 46  2  0  0  0
 45116  1  0  0  0
 46117  1  0  0  0
 47118  1  0  0  0
 47119  1  0  0  0
 48 56  1  0  0  0
 48 65  1  0  0  0
 48120  1  0  0  0
 49 50  1  0  0  0
 49 53  1  0  0  0
 49 64  1  0  0  0
 49121  1  0  0  0
 50 51  1  0  0  0
 50122  1  0  0  0
 50123  1  0  0  0
 51 52  1  0  0  0
 51124  1  0  0  0
 51125  1  0  0  0
 52126  1  0  0  0
 52127  1  0  0  0
 53 54  1  0  0  0
 54 55  2  0  0  0
 54128  1  0  0  0
 55 57  1  0  0  0
 55129  1  0  0  0
 56 69  2  0  0  0
 57 58  2  0  0  0
 57130  1  0  0  0
 58131  1  0  0  0
 59 60  1  0  0  0
 59 61  1  0  0  0
 59 62  1  0  0  0
 60132  1  0  0  0
 60133  1  0  0  0
 60134  1  0  0  0
 61135  1  0  0  0
 61136  1  0  0  0
 61137  1  0  0  0
 62138  1  0  0  0
 62139  1  0  0  0
 62140  1  0  0  0
 63 65  1  0  0  0
 63141  1  0  0  0
 63142  1  0  0  0
 63143  1  0  0  0
 64144  1  0  0  0
 65145  1  0  0  0
 68 82  1  0  0  0
 71 72  2  0  0  0
 71 73  1  0  0  0
 71146  1  0  0  0
 72 75  1  0  0  0
 72147  1  0  0  0
 73 76  2  0  0  0
 73148  1  0  0  0
 74 75  2  0  0  0
 74 76  1  0  0  0
 74149  1  0  0  0
 75 77  1  0  0  0
 76 85  1  0  0  0
 77 78  1  0  0  0
 77 84  2  0  0  0
 78150  1  0  0  0
 78151  1  0  0  0
 78152  1  0  0  0
 79 80  1  0  0  0
 79153  1  0  0  0
 79154  1  0  0  0
 80 81  1  0  0  0
 80155  1  0  0  0
 80156  1  0  0  0
 81 85  1  0  0  0
 81157  1  0  0  0
 81158  1  0  0  0
 82 83  1  0  0  0
 82159  1  0  0  0
 82160  1  0  0  0
 83 86  1  0  0  0
 83161  1  0  0  0
 83162  1  0  0  0
 84 86  1  0  0  0
M  ISO  4   1 100  68 101  79 100  82 101
M  END
> <chiral flag>
0

> <version>
0

> <s_m_source_file>
/data/baiqing/PycharmProjects/Reinvent-master-3.2/result/LINK_invent/BTK/process_docking_weight1_custom_sum_contain_oxygen_bond_distance_aromatic_linkinvent_7_9_3/rearranged_h_0000.sdf

> <i_m_source_file_index>
35

> <r_mmod_Potential_Energy-OPLS-2005>
-37.1105308532715

> <r_mmod_Stretch_Energy-OPLS-2005>
34.0999641418457

> <r_mmod_Bend_Energy-OPLS-2005>
97.5814819335938

> <r_mmod_Torsional_Energy-OPLS-2005>
211.654586791992

> <r_mmod_Improper_Torsional_Energy-OPLS-2005>
1.63856172561646

> <r_mmod_Van_der_Waal_Energy-OPLS-2005>
159.539154052734

> <r_mmod_Electrostatic_Energy-OPLS-2005>
-339.846801757812

> <r_mmod_Solvation_Energy-OPLS-2005>
-209.065292358398

> <b_mmod_Minimization_Converged-OPLS-2005>
0

> <r_mmod_RMS_Derivative-OPLS-2005>
1.58073365688324

$$$$
37
                    3D
 Structure written by MMmdl.
158165  0  0  1  0            999 V2000
  -30.7658  -14.3889   20.6360 C   0  0  0  0  0  0
  -30.4074  -12.2785   19.4144 C   0  0  0  0  0  0
  -29.4903  -12.5247   18.1997 C   0  0  0  0  0  0
  -28.0096  -12.3990   18.6040 C   0  0  0  0  0  0
  -27.6673  -13.2142   19.8803 C   0  0  2  0  0  0
  -28.7046  -12.9686   21.0009 C   0  0  0  0  0  0
  -25.2610  -13.8184   20.5647 C   0  0  0  0  0  0
  -24.1858  -13.0456   20.9146 C   0  0  0  0  0  0
  -24.6424  -11.6929   20.8746 C   0  0  0  0  0  0
  -23.9089  -10.4310   21.0422 C   0  0  0  0  0  0
  -24.3632   -9.4216   21.9193 C   0  0  0  0  0  0
  -23.6297   -8.2260   22.0762 C   0  0  0  0  0  0
  -22.4270   -8.0312   21.3575 C   0  0  0  0  0  0
  -21.9914   -9.0289   20.4670 C   0  0  0  0  0  0
  -22.7263  -10.2147   20.3065 C   0  0  0  0  0  0
  -21.6865   -6.0758   22.5298 C   0  0  0  0  0  0
  -21.4021   -6.5664   23.8236 C   0  0  0  0  0  0
  -21.3647   -5.6804   24.9185 C   0  0  0  0  0  0
  -21.6029   -4.3063   24.7226 C   0  0  0  0  0  0
  -21.8820   -3.8171   23.4356 C   0  0  0  0  0  0
  -21.9192   -4.6994   22.3407 C   0  0  0  0  0  0
  -22.7896  -13.5264   21.1841 C   0  0  0  0  0  0
  -22.1674   -4.2188   21.0981 F   0  0  0  0  0  0
  -21.5602   -3.4532   25.7736 F   0  0  0  0  0  0
  -30.0476  -13.2474   20.4604 N   0  0  0  0  0  0
  -26.3053  -12.9366   20.3350 N   0  0  0  0  0  0
  -25.9345  -11.6514   20.5746 N   0  0  0  0  0  0
  -22.0528  -12.8243   22.0385 N   0  0  0  0  0  0
  -25.4334  -15.1903   20.4105 N   0  0  0  0  0  0
  -31.8181  -14.6281   20.0402 O   0  0  0  0  0  0
  -21.6647   -6.8898   21.4256 O   0  0  0  0  0  0
  -22.3575  -14.5598   20.6747 O   0  0  0  0  0  0
  -24.6101  -31.8715   23.2139 C   0  0  0  0  0  0
  -25.9010  -32.4844   23.8419 C   0  0  1  0  0  0
  -27.2304  -27.4522   20.0946 C   0  0  0  0  0  0
  -25.5879  -33.8642   24.2359 N   0  0  0  0  0  0
  -23.3960  -30.4948   21.5544 C   0  0  2  0  0  0
  -24.8404  -28.9644   20.1208 C   0  0  0  0  0  0
  -22.7356  -29.4691   22.5019 C   0  0  0  0  0  0
  -18.0253  -28.1394   22.8486 C   0  0  0  0  0  0
  -24.1489  -36.7329   23.2643 C   0  0  0  0  0  0
  -25.9212  -30.8438   21.3623 C   0  0  0  0  0  0
  -25.9996  -29.4780   20.7130 C   0  0  0  0  0  0
  -27.1971  -28.7292   20.6948 C   0  0  0  0  0  0
  -26.0461  -26.9464   19.5050 C   0  0  0  0  0  0
  -24.8574  -27.6953   19.5186 C   0  0  0  0  0  0
  -23.6038  -29.8301   20.1683 C   0  0  0  0  0  0
  -25.4106  -36.3135   24.0358 C   0  0  1  0  0  0
  -20.5828  -28.3668   23.1298 C   0  0  2  0  0  0
  -20.6728  -26.9382   22.5424 C   0  0  0  0  0  0
  -19.5700  -26.6354   21.5215 C   0  0  0  0  0  0
  -18.1898  -26.7920   22.1655 C   0  0  0  0  0  0
  -19.1504  -28.8837   23.2895 C   0  0  0  0  0  0
  -18.9473  -30.1463   23.8858 C   0  0  0  0  0  0
  -17.6481  -30.6617   24.0554 C   0  0  0  0  0  0
  -25.9029  -34.9498   23.5147 C   0  0  0  0  0  0
  -16.5367  -29.9126   23.6339 C   0  0  0  0  0  0
  -16.7258  -28.6546   23.0341 C   0  0  0  0  0  0
  -26.4436  -31.6599   25.0716 C   0  0  0  0  0  0
  -25.3739  -31.3674   26.1494 C   0  0  0  0  0  0
  -27.0236  -30.3066   24.5996 C   0  0  0  0  0  0
  -27.6022  -32.4286   25.7473 C   0  0  0  0  0  0
  -27.5581  -37.1820   24.8466 C   0  0  0  0  0  0
  -21.4087  -29.3057   22.3715 N   0  0  0  0  0  0
  -26.4307  -37.3794   23.9404 N   0  0  0  0  0  0
  -24.6609  -31.0829   22.1033 N   0  0  0  0  0  0
  -23.4132  -28.8227   23.3053 O   0  0  0  0  0  0
  -28.4214  -26.7587   20.0955 O   0  0  0  0  0  0
  -26.5578  -34.8930   22.4697 O   0  0  0  0  0  0
  -23.5302  -32.1467   23.7550 O   0  0  0  0  0  0
  -30.8032  -16.6265   21.6666 C   0  0  0  0  0  0
  -30.0066  -17.4124   22.7233 C   0  0  0  0  0  0
  -28.3843  -25.3277   20.1107 C   0  0  0  0  0  0
  -27.9345  -24.7756   21.4773 C   0  0  0  0  0  0
  -28.1748  -18.1294   21.3338 C   0  0  0  0  0  0
  -27.1010  -19.1651   21.7100 C   0  0  0  0  0  0
  -27.4055  -22.7646   22.6157 C   0  0  0  0  0  0
  -26.7461  -21.3890   22.4286 C   0  0  0  0  0  0
  -30.2482  -15.2873   21.4780 N   0  0  0  0  0  0
  -28.6015  -17.4062   22.4848 O   0  0  0  0  0  0
  -27.5942  -23.3981   21.3515 O   0  0  0  0  0  0
  -27.7040  -20.4209   22.0108 O   0  0  0  0  0  0
  -31.4545  -12.3509   19.1182 H   0  0  0  0  0  0
  -30.2767  -11.2628   19.7914 H   0  0  0  0  0  0
  -29.7224  -11.8254   17.3950 H   0  0  0  0  0  0
  -29.6777  -13.5220   17.7984 H   0  0  0  0  0  0
  -27.7996  -11.3426   18.7700 H   0  0  0  0  0  0
  -27.3646  -12.7129   17.7823 H   0  0  0  0  0  0
  -27.7166  -14.2687   19.6085 H   0  0  0  0  0  0
  -28.6574  -11.9347   21.3434 H   0  0  0  0  0  0
  -28.4595  -13.5680   21.8779 H   0  0  0  0  0  0
  -25.2789   -9.5683   22.4748 H   0  0  0  0  0  0
  -24.0037   -7.4633   22.7446 H   0  0  0  0  0  0
  -21.0869   -8.8814   19.8962 H   0  0  0  0  0  0
  -22.3768  -10.9680   19.6159 H   0  0  0  0  0  0
  -21.2035   -7.6184   23.9755 H   0  0  0  0  0  0
  -21.1443   -6.0531   25.9085 H   0  0  0  0  0  0
  -22.0608   -2.7644   23.2837 H   0  0  0  0  0  0
  -22.4168  -11.9919   22.4781 H   0  0  0  0  0  0
  -21.1157  -13.1310   22.2571 H   0  0  0  0  0  0
  -24.6752  -15.8507   20.5350 H   0  0  0  0  0  0
  -26.2984  -15.6303   20.1253 H   0  0  0  0  0  0
  -26.7092  -32.5561   23.1204 H   0  0  0  0  0  0
  -25.0030  -33.9781   25.0512 H   0  0  0  0  0  0
  -22.6840  -31.3118   21.4153 H   0  0  0  0  0  0
  -23.3746  -35.9659   23.3322 H   0  0  0  0  0  0
  -24.3596  -36.8909   22.2051 H   0  0  0  0  0  0
  -23.7252  -37.6548   23.6635 H   0  0  0  0  0  0
  -26.0240  -31.6055   20.5894 H   0  0  0  0  0  0
  -26.8156  -30.9024   21.9711 H   0  0  0  0  0  0
  -28.0959  -29.1251   21.1473 H   0  0  0  0  0  0
  -26.0144  -25.9838   19.0197 H   0  0  0  0  0  0
  -23.9650  -27.2922   19.0616 H   0  0  0  0  0  0
  -23.7141  -30.6060   19.4081 H   0  0  0  0  0  0
  -22.7275  -29.2498   19.8720 H   0  0  0  0  0  0
  -25.1284  -36.2002   25.0854 H   0  0  0  0  0  0
  -20.9891  -28.3229   24.1424 H   0  0  0  0  0  0
  -20.5602  -26.2251   23.3610 H   0  0  0  0  0  0
  -21.6611  -26.7407   22.1227 H   0  0  0  0  0  0
  -19.6846  -25.6250   21.1270 H   0  0  0  0  0  0
  -19.6652  -27.3143   20.6733 H   0  0  0  0  0  0
  -17.4137  -26.6615   21.4110 H   0  0  0  0  0  0
  -18.0347  -26.0112   22.9107 H   0  0  0  0  0  0
  -19.7981  -30.7257   24.2181 H   0  0  0  0  0  0
  -17.5108  -31.6305   24.5150 H   0  0  0  0  0  0
  -15.5386  -30.3040   23.7694 H   0  0  0  0  0  0
  -15.8663  -28.0877   22.7024 H   0  0  0  0  0  0
  -24.5943  -30.6961   25.7877 H   0  0  0  0  0  0
  -24.8897  -32.2806   26.4953 H   0  0  0  0  0  0
  -25.8157  -30.8882   27.0242 H   0  0  0  0  0  0
  -26.2729  -29.6882   24.1065 H   0  0  0  0  0  0
  -27.4075  -29.7227   25.4369 H   0  0  0  0  0  0
  -27.8537  -30.4433   23.9068 H   0  0  0  0  0  0
  -27.2658  -33.3587   26.2067 H   0  0  0  0  0  0
  -28.3831  -32.6835   25.0301 H   0  0  0  0  0  0
  -28.0682  -31.8392   26.5376 H   0  0  0  0  0  0
  -28.2621  -38.0097   24.7492 H   0  0  0  0  0  0
  -28.1059  -36.2630   24.6327 H   0  0  0  0  0  0
  -27.2290  -37.1508   25.8865 H   0  0  0  0  0  0
  -20.9228  -29.8741   21.6898 H   0  0  0  0  0  0
  -26.0211  -38.2877   24.1379 H   0  0  0  0  0  0
  -31.8503  -16.5537   21.9721 H   0  0  0  0  0  0
  -30.8015  -17.1641   20.7154 H   0  0  0  0  0  0
  -30.3767  -18.4353   22.8054 H   0  0  0  0  0  0
  -30.1733  -16.9517   23.6981 H   0  0  0  0  0  0
  -27.7738  -24.9237   19.3056 H   0  0  0  0  0  0
  -29.3912  -24.9687   19.9042 H   0  0  0  0  0  0
  -27.0649  -25.3227   21.8493 H   0  0  0  0  0  0
  -28.7350  -24.9156   22.2048 H   0  0  0  0  0  0
  -28.9949  -18.6094   20.7986 H   0  0  0  0  0  0
  -27.7358  -17.3974   20.6547 H   0  0  0  0  0  0
  -26.4948  -18.8077   22.5443 H   0  0  0  0  0  0
  -26.4299  -19.2956   20.8600 H   0  0  0  0  0  0
  -26.7483  -23.3755   23.2379 H   0  0  0  0  0  0
  -28.3573  -22.6684   23.1402 H   0  0  0  0  0  0
  -25.9108  -21.4697   21.7303 H   0  0  0  0  0  0
  -26.3306  -21.0636   23.3829 H   0  0  0  0  0  0
  -29.3893  -15.0652   21.9615 H   0  0  0  0  0  0
  1 25  1  0  0  0
  1 30  2  0  0  0
  1 79  1  0  0  0
  2  3  1  0  0  0
  2 25  1  0  0  0
  2 83  1  0  0  0
  2 84  1  0  0  0
  3  4  1  0  0  0
  3 85  1  0  0  0
  3 86  1  0  0  0
  4  5  1  0  0  0
  4 87  1  0  0  0
  4 88  1  0  0  0
  5  6  1  0  0  0
  5 26  1  0  0  0
  5 89  1  0  0  0
  6 25  1  0  0  0
  6 90  1  0  0  0
  6 91  1  0  0  0
  7  8  2  0  0  0
  7 26  1  0  0  0
  7 29  1  0  0  0
  8  9  1  0  0  0
  8 22  1  0  0  0
  9 10  1  0  0  0
  9 27  2  0  0  0
 10 11  2  0  0  0
 10 15  1  0  0  0
 11 12  1  0  0  0
 11 92  1  0  0  0
 12 13  2  0  0  0
 12 93  1  0  0  0
 13 14  1  0  0  0
 13 31  1  0  0  0
 14 15  2  0  0  0
 14 94  1  0  0  0
 15 95  1  0  0  0
 16 17  2  0  0  0
 16 21  1  0  0  0
 16 31  1  0  0  0
 17 18  1  0  0  0
 17 96  1  0  0  0
 18 19  2  0  0  0
 18 97  1  0  0  0
 19 20  1  0  0  0
 19 24  1  0  0  0
 20 21  2  0  0  0
 20 98  1  0  0  0
 21 23  1  0  0  0
 22 28  1  0  0  0
 22 32  2  0  0  0
 26 27  1  0  0  0
 28 99  1  0  0  0
 28100  1  0  0  0
 29101  1  0  0  0
 29102  1  0  0  0
 33 34  1  0  0  0
 33 66  1  0  0  0
 33 70  2  0  0  0
 34 36  1  0  0  0
 34 59  1  0  0  0
 34103  1  0  0  0
 35 44  2  0  0  0
 35 45  1  0  0  0
 35 68  1  0  0  0
 36 56  1  0  0  0
 36104  1  0  0  0
 37 39  1  0  0  0
 37 47  1  0  0  0
 37 66  1  0  0  0
 37105  1  0  0  0
 38 43  2  0  0  0
 38 46  1  0  0  0
 38 47  1  0  0  0
 39 64  1  0  0  0
 39 67  2  0  0  0
 40 52  1  0  0  0
 40 53  2  0  0  0
 40 58  1  0  0  0
 41106  1  0  0  0
 41107  1  0  0  0
 41108  1  0  0  0
 41 48  1  0  0  0
 42 43  1  0  0  0
 42 66  1  0  0  0
 42109  1  0  0  0
 42110  1  0  0  0
 43 44  1  0  0  0
 44111  1  0  0  0
 45 46  2  0  0  0
 45112  1  0  0  0
 46113  1  0  0  0
 47114  1  0  0  0
 47115  1  0  0  0
 48 56  1  0  0  0
 48 65  1  0  0  0
 48116  1  0  0  0
 49 50  1  0  0  0
 49 53  1  0  0  0
 49 64  1  0  0  0
 49117  1  0  0  0
 50 51  1  0  0  0
 50118  1  0  0  0
 50119  1  0  0  0
 51 52  1  0  0  0
 51120  1  0  0  0
 51121  1  0  0  0
 52122  1  0  0  0
 52123  1  0  0  0
 53 54  1  0  0  0
 54 55  2  0  0  0
 54124  1  0  0  0
 55 57  1  0  0  0
 55125  1  0  0  0
 56 69  2  0  0  0
 57 58  2  0  0  0
 57126  1  0  0  0
 58127  1  0  0  0
 59 60  1  0  0  0
 59 61  1  0  0  0
 59 62  1  0  0  0
 60128  1  0  0  0
 60129  1  0  0  0
 60130  1  0  0  0
 61131  1  0  0  0
 61132  1  0  0  0
 61133  1  0  0  0
 62134  1  0  0  0
 62135  1  0  0  0
 62136  1  0  0  0
 63 65  1  0  0  0
 63137  1  0  0  0
 63138  1  0  0  0
 63139  1  0  0  0
 64140  1  0  0  0
 65141  1  0  0  0
 68 73  1  0  0  0
 71 72  1  0  0  0
 71 79  1  0  0  0
 71142  1  0  0  0
 71143  1  0  0  0
 72 80  1  0  0  0
 72144  1  0  0  0
 72145  1  0  0  0
 73 74  1  0  0  0
 73146  1  0  0  0
 73147  1  0  0  0
 74 81  1  0  0  0
 74148  1  0  0  0
 74149  1  0  0  0
 75 76  1  0  0  0
 75 80  1  0  0  0
 75150  1  0  0  0
 75151  1  0  0  0
 76 82  1  0  0  0
 76152  1  0  0  0
 76153  1  0  0  0
 77 78  1  0  0  0
 77 81  1  0  0  0
 77154  1  0  0  0
 77155  1  0  0  0
 78 82  1  0  0  0
 78156  1  0  0  0
 78157  1  0  0  0
 79158  1  0  0  0
M  ISO  4   1 100  68 101  73 101  79 100
M  END
> <chiral flag>
0

> <version>
0

> <s_m_source_file>
/data/baiqing/PycharmProjects/Reinvent-master-3.2/result/LINK_invent/BTK/process_docking_weight1_custom_sum_contain_oxygen_bond_distance_aromatic_linkinvent_7_9_3/rearranged_h_0000.sdf

> <i_m_source_file_index>
36

> <r_mmod_Potential_Energy-OPLS-2005>
-132.649719238281

> <r_mmod_Stretch_Energy-OPLS-2005>
31.9378795623779

> <r_mmod_Bend_Energy-OPLS-2005>
94.8774032592773

> <r_mmod_Torsional_Energy-OPLS-2005>
201.347106933594

> <r_mmod_Improper_Torsional_Energy-OPLS-2005>
1.87841999530792

> <r_mmod_Van_der_Waal_Energy-OPLS-2005>
137.073379516602

> <r_mmod_Electrostatic_Energy-OPLS-2005>
-394.197540283203

> <r_mmod_Solvation_Energy-OPLS-2005>
-213.581817626953

> <b_mmod_Minimization_Converged-OPLS-2005>
0

> <r_mmod_RMS_Derivative-OPLS-2005>
4.17057800292969

$$$$
38
                    3D
 Structure written by MMmdl.
171178  0  0  1  0            999 V2000
  -30.7646  -14.3467   20.7054 C   0  0  0  0  0  0
  -30.4187  -12.2873   19.3881 C   0  0  0  0  0  0
  -29.4832  -12.5348   18.1897 C   0  0  0  0  0  0
  -28.0073  -12.3882   18.6055 C   0  0  0  0  0  0
  -27.6683  -13.2001   19.8829 C   0  0  2  0  0  0
  -28.7046  -12.9219   20.9937 C   0  0  0  0  0  0
  -25.2609  -13.8147   20.5671 C   0  0  0  0  0  0
  -24.1854  -13.0442   20.9164 C   0  0  0  0  0  0
  -24.6394  -11.6897   20.8718 C   0  0  0  0  0  0
  -23.9057  -10.4294   21.0394 C   0  0  0  0  0  0
  -24.3606   -9.4210   21.9177 C   0  0  0  0  0  0
  -23.6285   -8.2244   22.0750 C   0  0  0  0  0  0
  -22.4269   -8.0278   21.3539 C   0  0  0  0  0  0
  -21.9904   -9.0250   20.4640 C   0  0  0  0  0  0
  -22.7227  -10.2134   20.3048 C   0  0  0  0  0  0
  -21.6857   -6.0733   22.5282 C   0  0  0  0  0  0
  -21.4013   -6.5640   23.8211 C   0  0  0  0  0  0
  -21.3660   -5.6792   24.9175 C   0  0  0  0  0  0
  -21.6045   -4.3053   24.7224 C   0  0  0  0  0  0
  -21.8820   -3.8146   23.4344 C   0  0  0  0  0  0
  -21.9190   -4.6963   22.3399 C   0  0  0  0  0  0
  -22.7876  -13.5237   21.1833 C   0  0  0  0  0  0
  -22.1662   -4.2146   21.0977 F   0  0  0  0  0  0
  -21.5629   -3.4537   25.7737 F   0  0  0  0  0  0
  -30.0511  -13.2165   20.4657 N   0  0  0  0  0  0
  -26.3055  -12.9314   20.3384 N   0  0  0  0  0  0
  -25.9317  -11.6478   20.5737 N   0  0  0  0  0  0
  -22.0517  -12.8232   22.0392 N   0  0  0  0  0  0
  -25.4353  -15.1862   20.4077 N   0  0  0  0  0  0
  -31.7653  -14.6724   20.0581 O   0  0  0  0  0  0
  -21.6637   -6.8875   21.4238 O   0  0  0  0  0  0
  -22.3566  -14.5552   20.6694 O   0  0  0  0  0  0
  -24.6137  -31.8676   23.2088 C   0  0  0  0  0  0
  -25.9055  -32.4785   23.8369 C   0  0  1  0  0  0
  -27.2431  -27.4712   20.1051 C   0  0  0  0  0  0
  -25.5931  -33.8588   24.2318 N   0  0  0  0  0  0
  -23.3997  -30.4901   21.5473 C   0  0  2  0  0  0
  -24.8469  -28.9537   20.1155 C   0  0  0  0  0  0
  -22.7390  -29.4690   22.5003 C   0  0  0  0  0  0
  -18.0273  -28.1410   22.8514 C   0  0  0  0  0  0
  -24.1516  -36.7262   23.2630 C   0  0  0  0  0  0
  -25.9260  -30.8428   21.3627 C   0  0  0  0  0  0
  -26.0037  -29.4860   20.6991 C   0  0  0  0  0  0
  -27.2077  -28.7559   20.6817 C   0  0  0  0  0  0
  -26.0764  -26.9383   19.5223 C   0  0  0  0  0  0
  -24.8755  -27.6744   19.5249 C   0  0  0  0  0  0
  -23.6063  -29.8146   20.1639 C   0  0  0  0  0  0
  -25.4125  -36.3092   24.0352 C   0  0  1  0  0  0
  -20.5862  -28.3696   23.1335 C   0  0  2  0  0  0
  -20.6779  -26.9432   22.5438 C   0  0  0  0  0  0
  -19.5749  -26.6407   21.5242 C   0  0  0  0  0  0
  -18.1922  -26.7961   22.1647 C   0  0  0  0  0  0
  -19.1522  -28.8867   23.2929 C   0  0  0  0  0  0
  -18.9461  -30.1482   23.8923 C   0  0  0  0  0  0
  -17.6464  -30.6623   24.0591 C   0  0  0  0  0  0
  -25.9050  -34.9459   23.5131 C   0  0  0  0  0  0
  -16.5359  -29.9142   23.6308 C   0  0  0  0  0  0
  -16.7269  -28.6564   23.0321 C   0  0  0  0  0  0
  -26.4507  -31.6518   25.0670 C   0  0  0  0  0  0
  -25.3793  -31.3616   26.1425 C   0  0  0  0  0  0
  -27.0315  -30.2933   24.6056 C   0  0  0  0  0  0
  -27.6074  -32.4234   25.7469 C   0  0  0  0  0  0
  -27.5602  -37.1801   24.8476 C   0  0  0  0  0  0
  -21.4128  -29.3052   22.3723 N   0  0  0  0  0  0
  -26.4314  -37.3769   23.9407 N   0  0  0  0  0  0
  -24.6630  -31.0811   22.0967 N   0  0  0  0  0  0
  -23.4170  -28.8246   23.3053 O   0  0  0  0  0  0
  -28.4023  -26.7395   20.1120 O   0  0  0  0  0  0
  -26.5622  -34.8948   22.4700 O   0  0  0  0  0  0
  -23.5348  -32.1440   23.7499 O   0  0  0  0  0  0
  -28.4610  -19.5333   23.1790 C   0  0  0  0  0  0
  -27.8682  -19.8525   24.5591 C   0  0  0  0  0  0
  -30.3263  -17.5412   21.3384 C   0  0  0  0  0  0
  -27.1656  -23.1653   26.0657 C   0  0  0  0  0  0
  -28.8051  -17.7833   21.4435 C   0  0  0  0  0  0
  -30.8626  -16.3644   22.1788 C   0  0  0  0  0  0
  -27.0984  -21.6370   25.9253 C   0  0  0  0  0  0
  -28.6066  -23.6927   26.0354 C   0  0  0  0  0  0
  -28.5571  -25.9088   21.2664 C   0  0  0  0  0  0
  -28.7709  -26.7226   22.5595 C   0  0  0  0  0  0
  -29.8202  -25.7370   25.9630 C   0  0  0  0  0  0
  -29.5628  -26.6762   24.7775 C   0  0  0  0  0  0
  -28.3912  -18.2615   22.7632 N   0  0  0  0  0  0
  -30.3238  -15.0794   21.7357 N   0  0  0  0  0  0
  -28.9640  -20.4268   22.4913 O   0  0  0  0  0  0
  -27.6484  -21.2568   24.6727 O   0  0  0  0  0  0
  -28.5971  -25.0887   26.2971 O   0  0  0  0  0  0
  -29.2941  -25.9138   23.6050 O   0  0  0  0  0  0
  -31.4613  -12.3954   19.0824 H   0  0  0  0  0  0
  -30.3209  -11.2591   19.7397 H   0  0  0  0  0  0
  -29.7139  -11.8409   17.3805 H   0  0  0  0  0  0
  -29.6543  -13.5365   17.7919 H   0  0  0  0  0  0
  -27.8099  -11.3292   18.7745 H   0  0  0  0  0  0
  -27.3554  -12.6911   17.7851 H   0  0  0  0  0  0
  -27.7331  -14.2564   19.6229 H   0  0  0  0  0  0
  -28.6631  -11.8726   21.2890 H   0  0  0  0  0  0
  -28.4477  -13.4799   21.8939 H   0  0  0  0  0  0
  -25.2755   -9.5692   22.4746 H   0  0  0  0  0  0
  -24.0000   -7.4638   22.7470 H   0  0  0  0  0  0
  -21.0837   -8.8761   19.8942 H   0  0  0  0  0  0
  -22.3680  -10.9668   19.6151 H   0  0  0  0  0  0
  -21.2009   -7.6149   23.9714 H   0  0  0  0  0  0
  -21.1483   -6.0523   25.9078 H   0  0  0  0  0  0
  -22.0597   -2.7608   23.2845 H   0  0  0  0  0  0
  -22.4129  -11.9881   22.4766 H   0  0  0  0  0  0
  -21.1135  -13.1254   22.2596 H   0  0  0  0  0  0
  -24.6704  -15.8436   20.5127 H   0  0  0  0  0  0
  -26.2881  -15.6191   20.0775 H   0  0  0  0  0  0
  -26.7107  -32.5494   23.1111 H   0  0  0  0  0  0
  -25.0132  -33.9723   25.0502 H   0  0  0  0  0  0
  -22.6876  -31.3047   21.4011 H   0  0  0  0  0  0
  -23.3821  -35.9558   23.3309 H   0  0  0  0  0  0
  -24.3643  -36.8833   22.2043 H   0  0  0  0  0  0
  -23.7240  -37.6459   23.6633 H   0  0  0  0  0  0
  -26.0582  -31.6275   20.6167 H   0  0  0  0  0  0
  -26.8031  -30.8681   21.9977 H   0  0  0  0  0  0
  -28.1044  -29.1676   21.1228 H   0  0  0  0  0  0
  -26.0966  -25.9482   19.0880 H   0  0  0  0  0  0
  -23.9822  -27.2456   19.0873 H   0  0  0  0  0  0
  -23.7126  -30.5873   19.4012 H   0  0  0  0  0  0
  -22.7325  -29.2305   19.8684 H   0  0  0  0  0  0
  -25.1297  -36.1966   25.0845 H   0  0  0  0  0  0
  -20.9956  -28.3289   24.1454 H   0  0  0  0  0  0
  -20.5734  -26.2302   23.3640 H   0  0  0  0  0  0
  -21.6647  -26.7529   22.1185 H   0  0  0  0  0  0
  -19.6929  -25.6316   21.1287 H   0  0  0  0  0  0
  -19.6696  -27.3205   20.6766 H   0  0  0  0  0  0
  -17.4191  -26.6730   21.4043 H   0  0  0  0  0  0
  -18.0321  -26.0106   22.9043 H   0  0  0  0  0  0
  -19.7938  -30.7297   24.2304 H   0  0  0  0  0  0
  -17.5025  -31.6298   24.5209 H   0  0  0  0  0  0
  -15.5364  -30.3063   23.7620 H   0  0  0  0  0  0
  -15.8676  -28.0928   22.6965 H   0  0  0  0  0  0
  -24.5928  -30.7011   25.7755 H   0  0  0  0  0  0
  -24.9061  -32.2785   26.4939 H   0  0  0  0  0  0
  -25.8173  -30.8672   27.0102 H   0  0  0  0  0  0
  -26.2790  -29.6685   24.1228 H   0  0  0  0  0  0
  -27.4147  -29.7185   25.4493 H   0  0  0  0  0  0
  -27.8635  -30.4175   23.9126 H   0  0  0  0  0  0
  -27.2616  -33.3481   26.2103 H   0  0  0  0  0  0
  -28.3896  -32.6880   25.0336 H   0  0  0  0  0  0
  -28.0766  -31.8306   26.5337 H   0  0  0  0  0  0
  -28.2629  -38.0089   24.7504 H   0  0  0  0  0  0
  -28.1099  -36.2623   24.6330 H   0  0  0  0  0  0
  -27.2344  -37.1454   25.8889 H   0  0  0  0  0  0
  -20.9294  -29.8746   21.6914 H   0  0  0  0  0  0
  -26.0222  -38.2853   24.1406 H   0  0  0  0  0  0
  -28.5644  -19.5145   25.3284 H   0  0  0  0  0  0
  -26.9309  -19.3109   24.6961 H   0  0  0  0  0  0
  -30.8583  -18.4518   21.6169 H   0  0  0  0  0  0
  -30.5804  -17.3722   20.2911 H   0  0  0  0  0  0
  -26.6953  -23.4574   27.0058 H   0  0  0  0  0  0
  -26.5856  -23.6363   25.2712 H   0  0  0  0  0  0
  -28.2587  -16.8683   21.2145 H   0  0  0  0  0  0
  -28.5002  -18.5075   20.6847 H   0  0  0  0  0  0
  -30.6132  -16.5080   23.2309 H   0  0  0  0  0  0
  -31.9532  -16.3432   22.1290 H   0  0  0  0  0  0
  -26.0621  -21.3010   25.9923 H   0  0  0  0  0  0
  -27.6454  -21.1699   26.7460 H   0  0  0  0  0  0
  -29.0517  -23.4797   25.0611 H   0  0  0  0  0  0
  -29.2146  -23.1903   26.7906 H   0  0  0  0  0  0
  -27.7047  -25.2347   21.3798 H   0  0  0  0  0  0
  -29.4303  -25.2774   21.0924 H   0  0  0  0  0  0
  -27.8228  -27.1562   22.8825 H   0  0  0  0  0  0
  -29.4629  -27.5431   22.3656 H   0  0  0  0  0  0
  -30.1336  -26.3243   26.8267 H   0  0  0  0  0  0
  -30.6358  -25.0430   25.7513 H   0  0  0  0  0  0
  -30.4340  -27.3106   24.6076 H   0  0  0  0  0  0
  -28.7294  -27.3393   25.0205 H   0  0  0  0  0  0
  -27.9500  -17.5932   23.3829 H   0  0  0  0  0  0
  -29.5419  -14.7017   22.2509 H   0  0  0  0  0  0
  1 25  1  0  0  0
  1 30  2  0  0  0
  1 84  1  0  0  0
  2  3  1  0  0  0
  2 25  1  0  0  0
  2 89  1  0  0  0
  2 90  1  0  0  0
  3  4  1  0  0  0
  3 91  1  0  0  0
  3 92  1  0  0  0
  4  5  1  0  0  0
  4 93  1  0  0  0
  4 94  1  0  0  0
  5  6  1  0  0  0
  5 26  1  0  0  0
  5 95  1  0  0  0
  6 25  1  0  0  0
  6 96  1  0  0  0
  6 97  1  0  0  0
  7  8  2  0  0  0
  7 26  1  0  0  0
  7 29  1  0  0  0
  8  9  1  0  0  0
  8 22  1  0  0  0
  9 10  1  0  0  0
  9 27  2  0  0  0
 10 11  2  0  0  0
 10 15  1  0  0  0
 11 12  1  0  0  0
 11 98  1  0  0  0
 12 13  2  0  0  0
 12 99  1  0  0  0
 13 14  1  0  0  0
 13 31  1  0  0  0
 14 15  2  0  0  0
 14100  1  0  0  0
 15101  1  0  0  0
 16 17  2  0  0  0
 16 21  1  0  0  0
 16 31  1  0  0  0
 17 18  1  0  0  0
 17102  1  0  0  0
 18 19  2  0  0  0
 18103  1  0  0  0
 19 20  1  0  0  0
 19 24  1  0  0  0
 20 21  2  0  0  0
 20104  1  0  0  0
 21 23  1  0  0  0
 22 28  1  0  0  0
 22 32  2  0  0  0
 26 27  1  0  0  0
 28105  1  0  0  0
 28106  1  0  0  0
 29107  1  0  0  0
 29108  1  0  0  0
 33 34  1  0  0  0
 33 66  1  0  0  0
 33 70  2  0  0  0
 34 36  1  0  0  0
 34 59  1  0  0  0
 34109  1  0  0  0
 35 44  2  0  0  0
 35 45  1  0  0  0
 35 68  1  0  0  0
 36 56  1  0  0  0
 36110  1  0  0  0
 37 39  1  0  0  0
 37 47  1  0  0  0
 37 66  1  0  0  0
 37111  1  0  0  0
 38 43  2  0  0  0
 38 46  1  0  0  0
 38 47  1  0  0  0
 39 64  1  0  0  0
 39 67  2  0  0  0
 40 52  1  0  0  0
 40 53  2  0  0  0
 40 58  1  0  0  0
 41112  1  0  0  0
 41113  1  0  0  0
 41114  1  0  0  0
 41 48  1  0  0  0
 42 43  1  0  0  0
 42 66  1  0  0  0
 42115  1  0  0  0
 42116  1  0  0  0
 43 44  1  0  0  0
 44117  1  0  0  0
 45 46  2  0  0  0
 45118  1  0  0  0
 46119  1  0  0  0
 47120  1  0  0  0
 47121  1  0  0  0
 48 56  1  0  0  0
 48 65  1  0  0  0
 48122  1  0  0  0
 49 50  1  0  0  0
 49 53  1  0  0  0
 49 64  1  0  0  0
 49123  1  0  0  0
 50 51  1  0  0  0
 50124  1  0  0  0
 50125  1  0  0  0
 51 52  1  0  0  0
 51126  1  0  0  0
 51127  1  0  0  0
 52128  1  0  0  0
 52129  1  0  0  0
 53 54  1  0  0  0
 54 55  2  0  0  0
 54130  1  0  0  0
 55 57  1  0  0  0
 55131  1  0  0  0
 56 69  2  0  0  0
 57 58  2  0  0  0
 57132  1  0  0  0
 58133  1  0  0  0
 59 60  1  0  0  0
 59 61  1  0  0  0
 59 62  1  0  0  0
 60134  1  0  0  0
 60135  1  0  0  0
 60136  1  0  0  0
 61137  1  0  0  0
 61138  1  0  0  0
 61139  1  0  0  0
 62140  1  0  0  0
 62141  1  0  0  0
 62142  1  0  0  0
 63 65  1  0  0  0
 63143  1  0  0  0
 63144  1  0  0  0
 63145  1  0  0  0
 64146  1  0  0  0
 65147  1  0  0  0
 68 79  1  0  0  0
 71 72  1  0  0  0
 71 83  1  0  0  0
 71 85  2  0  0  0
 72 86  1  0  0  0
 72148  1  0  0  0
 72149  1  0  0  0
 73 75  1  0  0  0
 73 76  1  0  0  0
 73150  1  0  0  0
 73151  1  0  0  0
 74 77  1  0  0  0
 74 78  1  0  0  0
 74152  1  0  0  0
 74153  1  0  0  0
 75 83  1  0  0  0
 75154  1  0  0  0
 75155  1  0  0  0
 76 84  1  0  0  0
 76156  1  0  0  0
 76157  1  0  0  0
 77 86  1  0  0  0
 77158  1  0  0  0
 77159  1  0  0  0
 78 87  1  0  0  0
 78160  1  0  0  0
 78161  1  0  0  0
 79 80  1  0  0  0
 79162  1  0  0  0
 79163  1  0  0  0
 80 88  1  0  0  0
 80164  1  0  0  0
 80165  1  0  0  0
 81 82  1  0  0  0
 81 87  1  0  0  0
 81166  1  0  0  0
 81167  1  0  0  0
 82 88  1  0  0  0
 82168  1  0  0  0
 82169  1  0  0  0
 83170  1  0  0  0
 84171  1  0  0  0
M  ISO  4   1 100  68 101  79 101  84 100
M  END
> <chiral flag>
0

> <version>
0

> <s_m_source_file>
/data/baiqing/PycharmProjects/Reinvent-master-3.2/result/LINK_invent/BTK/process_docking_weight1_custom_sum_contain_oxygen_bond_distance_aromatic_linkinvent_7_9_3/rearranged_h_0000.sdf

> <i_m_source_file_index>
37

> <r_mmod_Potential_Energy-OPLS-2005>
-120.537590026855

> <r_mmod_Stretch_Energy-OPLS-2005>
31.9890670776367

> <r_mmod_Bend_Energy-OPLS-2005>
87.4581146240234

> <r_mmod_Torsional_Energy-OPLS-2005>
230.1123046875

> <r_mmod_Improper_Torsional_Energy-OPLS-2005>
1.97278678417206

> <r_mmod_Van_der_Waal_Energy-OPLS-2005>
127.03311920166

> <r_mmod_Electrostatic_Energy-OPLS-2005>
-333.621520996094

> <r_mmod_Solvation_Energy-OPLS-2005>
-272.851104736328

> <b_mmod_Minimization_Converged-OPLS-2005>
0

> <r_mmod_RMS_Derivative-OPLS-2005>
2.49787855148315

$$$$
39
                    3D
 Structure written by MMmdl.
153160  0  0  1  0            999 V2000
  -30.6448  -14.6685   20.4764 C   0  0  0  0  0  0
  -30.4251  -12.4061   19.4711 C   0  0  0  0  0  0
  -29.5084  -12.4998   18.2325 C   0  0  0  0  0  0
  -28.0313  -12.3416   18.6401 C   0  0  0  0  0  0
  -27.6463  -13.2283   19.8563 C   0  0  2  0  0  0
  -28.6895  -13.1320   20.9924 C   0  0  0  0  0  0
  -25.2526  -13.8200   20.5697 C   0  0  0  0  0  0
  -24.1810  -13.0447   20.9202 C   0  0  0  0  0  0
  -24.6391  -11.6920   20.8739 C   0  0  0  0  0  0
  -23.9065  -10.4298   21.0396 C   0  0  0  0  0  0
  -24.3621   -9.4221   21.9179 C   0  0  0  0  0  0
  -23.6301   -8.2256   22.0754 C   0  0  0  0  0  0
  -22.4285   -8.0286   21.3545 C   0  0  0  0  0  0
  -21.9916   -9.0255   20.4644 C   0  0  0  0  0  0
  -22.7235  -10.2136   20.3049 C   0  0  0  0  0  0
  -21.6855   -6.0736   22.5280 C   0  0  0  0  0  0
  -21.4013   -6.5638   23.8211 C   0  0  0  0  0  0
  -21.3665   -5.6791   24.9173 C   0  0  0  0  0  0
  -21.6045   -4.3055   24.7221 C   0  0  0  0  0  0
  -21.8819   -3.8146   23.4344 C   0  0  0  0  0  0
  -21.9196   -4.6963   22.3397 C   0  0  0  0  0  0
  -22.7829  -13.5237   21.1849 C   0  0  0  0  0  0
  -22.1662   -4.2140   21.0975 F   0  0  0  0  0  0
  -21.5631   -3.4538   25.7737 F   0  0  0  0  0  0
  -30.0011  -13.4583   20.4203 N   0  0  0  0  0  0
  -26.2955  -12.9396   20.3298 N   0  0  0  0  0  0
  -25.9323  -11.6538   20.5757 N   0  0  0  0  0  0
  -22.0467  -12.8243   22.0410 N   0  0  0  0  0  0
  -25.4218  -15.1926   20.4105 N   0  0  0  0  0  0
  -31.8208  -14.7704   20.1159 O   0  0  0  0  0  0
  -21.6648   -6.8887   21.4245 O   0  0  0  0  0  0
  -22.3517  -14.5531   20.6675 O   0  0  0  0  0  0
  -24.6287  -31.8575   23.2021 C   0  0  0  0  0  0
  -25.9129  -32.4763   23.8349 C   0  0  1  0  0  0
  -27.2143  -27.2884   20.1215 C   0  0  0  0  0  0
  -25.5937  -33.8567   24.2270 N   0  0  0  0  0  0
  -23.4225  -30.4829   21.5436 C   0  0  2  0  0  0
  -24.8682  -28.9395   20.1058 C   0  0  0  0  0  0
  -22.7491  -29.4611   22.4911 C   0  0  0  0  0  0
  -18.0292  -28.1386   22.8488 C   0  0  0  0  0  0
  -24.1492  -36.7291   23.2642 C   0  0  0  0  0  0
  -25.9670  -30.7784   21.3789 C   0  0  0  0  0  0
  -26.0366  -29.4038   20.7211 C   0  0  0  0  0  0
  -27.2095  -28.5876   20.7248 C   0  0  0  0  0  0
  -26.0297  -26.9014   19.4505 C   0  0  0  0  0  0
  -24.8694  -27.6963   19.4592 C   0  0  0  0  0  0
  -23.6374  -29.8220   20.1572 C   0  0  0  0  0  0
  -25.4113  -36.3068   24.0329 C   0  0  1  0  0  0
  -20.5894  -28.3688   23.1275 C   0  0  2  0  0  0
  -20.6778  -26.9405   22.5409 C   0  0  0  0  0  0
  -19.5750  -26.6382   21.5216 C   0  0  0  0  0  0
  -18.1930  -26.7933   22.1629 C   0  0  0  0  0  0
  -19.1542  -28.8854   23.2877 C   0  0  0  0  0  0
  -18.9468  -30.1462   23.8882 C   0  0  0  0  0  0
  -17.6468  -30.6583   24.0567 C   0  0  0  0  0  0
  -25.9053  -34.9440   23.5095 C   0  0  0  0  0  0
  -16.5358  -29.9081   23.6334 C   0  0  0  0  0  0
  -16.7280  -28.6502   23.0344 C   0  0  0  0  0  0
  -26.4501  -31.6585   25.0728 C   0  0  0  0  0  0
  -25.3730  -31.3736   26.1454 C   0  0  0  0  0  0
  -27.0353  -30.3004   24.6212 C   0  0  0  0  0  0
  -27.6051  -32.4328   25.7502 C   0  0  0  0  0  0
  -27.5573  -37.1802   24.8465 C   0  0  0  0  0  0
  -21.4199  -29.3042   22.3666 N   0  0  0  0  0  0
  -26.4286  -37.3765   23.9405 N   0  0  0  0  0  0
  -24.6913  -31.0576   22.0977 N   0  0  0  0  0  0
  -23.4211  -28.8136   23.2979 O   0  0  0  0  0  0
  -28.3165  -26.4122   20.2125 O   0  0  0  0  0  0
  -26.5624  -34.8913   22.4663 O   0  0  0  0  0  0
  -23.5442  -32.1385   23.7335 O   0  0  0  0  0  0
  -29.0345  -22.3499   20.0605 C   0  0  0  0  0  0
  -29.6524  -21.3714   22.2412 C   0  0  0  0  0  0
  -28.9649  -23.8250   20.6706 C   0  0  0  0  0  0
  -29.4681  -18.4886   20.8427 C   0  0  0  0  0  0
  -30.3033  -17.2158   20.3319 C   0  0  0  0  0  0
  -29.8931  -19.9113   20.2175 C   0  0  0  0  0  0
  -28.1663  -24.9629   19.8710 C   0  0  0  0  0  0
  -29.8974  -15.8025   20.7052 N   0  0  0  0  0  0
  -29.4105  -21.2359   20.8032 N   0  0  0  0  0  0
  -28.7952  -22.2321   18.8556 O   0  0  0  0  0  0
  -31.4696  -12.5131   19.1723 H   0  0  0  0  0  0
  -30.3509  -11.4225   19.9365 H   0  0  0  0  0  0
  -29.7792  -11.7346   17.5035 H   0  0  0  0  0  0
  -29.6526  -13.4607   17.7363 H   0  0  0  0  0  0
  -27.8715  -11.2906   18.8836 H   0  0  0  0  0  0
  -27.3805  -12.5603   17.7922 H   0  0  0  0  0  0
  -27.6515  -14.2559   19.4921 H   0  0  0  0  0  0
  -28.7047  -12.1279   21.4194 H   0  0  0  0  0  0
  -28.4357  -13.8077   21.8105 H   0  0  0  0  0  0
  -25.2765   -9.5694   22.4754 H   0  0  0  0  0  0
  -24.0000   -7.4650   22.7478 H   0  0  0  0  0  0
  -21.0847   -8.8768   19.8953 H   0  0  0  0  0  0
  -22.3691  -10.9671   19.6154 H   0  0  0  0  0  0
  -21.2000   -7.6142   23.9711 H   0  0  0  0  0  0
  -21.1491   -6.0520   25.9077 H   0  0  0  0  0  0
  -22.0593   -2.7603   23.2844 H   0  0  0  0  0  0
  -22.4086  -11.9917   22.4818 H   0  0  0  0  0  0
  -21.1068  -13.1244   22.2563 H   0  0  0  0  0  0
  -24.6530  -15.8449   20.5239 H   0  0  0  0  0  0
  -26.2654  -15.6340   20.0673 H   0  0  0  0  0  0
  -26.7195  -32.5412   23.1088 H   0  0  0  0  0  0
  -25.0080  -33.9713   25.0412 H   0  0  0  0  0  0
  -22.7180  -31.3047   21.4008 H   0  0  0  0  0  0
  -23.3742  -35.9637   23.3306 H   0  0  0  0  0  0
  -24.3582  -36.8908   22.2055 H   0  0  0  0  0  0
  -23.7265  -37.6503   23.6664 H   0  0  0  0  0  0
  -26.1075  -31.5408   20.6108 H   0  0  0  0  0  0
  -26.8470  -30.8233   22.0096 H   0  0  0  0  0  0
  -28.0999  -28.9356   21.2293 H   0  0  0  0  0  0
  -25.9583  -25.9696   18.9116 H   0  0  0  0  0  0
  -23.9803  -27.3431   18.9559 H   0  0  0  0  0  0
  -23.7580  -30.6011   19.4037 H   0  0  0  0  0  0
  -22.7571  -29.2533   19.8519 H   0  0  0  0  0  0
  -25.1292  -36.1910   25.0821 H   0  0  0  0  0  0
  -20.9996  -28.3263   24.1392 H   0  0  0  0  0  0
  -20.5676  -26.2293   23.3609 H   0  0  0  0  0  0
  -21.6643  -26.7425   22.1191 H   0  0  0  0  0  0
  -19.6908  -25.6292   21.1241 H   0  0  0  0  0  0
  -19.6691  -27.3199   20.6751 H   0  0  0  0  0  0
  -17.4200  -26.6684   21.4032 H   0  0  0  0  0  0
  -18.0322  -26.0076   22.9023 H   0  0  0  0  0  0
  -19.7941  -30.7292   24.2231 H   0  0  0  0  0  0
  -17.5016  -31.6262   24.5177 H   0  0  0  0  0  0
  -15.5355  -30.2980   23.7668 H   0  0  0  0  0  0
  -15.8682  -28.0833   22.7047 H   0  0  0  0  0  0
  -24.5905  -30.7075   25.7795 H   0  0  0  0  0  0
  -24.8918  -32.2906   26.4867 H   0  0  0  0  0  0
  -25.8052  -30.8929   27.0241 H   0  0  0  0  0  0
  -26.2938  -29.6746   24.1231 H   0  0  0  0  0  0
  -27.4032  -29.7270   25.4734 H   0  0  0  0  0  0
  -27.8815  -30.4277   23.9455 H   0  0  0  0  0  0
  -27.2651  -33.3631   26.2067 H   0  0  0  0  0  0
  -28.3871  -32.6891   25.0339 H   0  0  0  0  0  0
  -28.0713  -31.8466   26.5434 H   0  0  0  0  0  0
  -28.2592  -38.0098   24.7491 H   0  0  0  0  0  0
  -28.1064  -36.2625   24.6304 H   0  0  0  0  0  0
  -27.2289  -37.1463   25.8870 H   0  0  0  0  0  0
  -20.9371  -29.8777   21.6890 H   0  0  0  0  0  0
  -26.0160  -38.2837   24.1400 H   0  0  0  0  0  0
  -28.7045  -21.4106   22.7806 H   0  0  0  0  0  0
  -30.2201  -22.2725   22.4765 H   0  0  0  0  0  0
  -30.2291  -20.5393   22.6438 H   0  0  0  0  0  0
  -29.9950  -24.1568   20.7951 H   0  0  0  0  0  0
  -28.5440  -23.7666   21.6739 H   0  0  0  0  0  0
  -29.5536  -18.5248   21.9288 H   0  0  0  0  0  0
  -28.4096  -18.3264   20.6380 H   0  0  0  0  0  0
  -31.3399  -17.3533   20.6440 H   0  0  0  0  0  0
  -30.3303  -17.2505   19.2414 H   0  0  0  0  0  0
  -29.6442  -19.8796   19.1559 H   0  0  0  0  0  0
  -30.9828  -19.9666   20.2372 H   0  0  0  0  0  0
  -28.3998  -24.8762   18.8094 H   0  0  0  0  0  0
  -27.1290  -24.6519   19.9792 H   0  0  0  0  0  0
  -28.9357  -15.6528   20.9717 H   0  0  0  0  0  0
  1 25  1  0  0  0
  1 30  2  0  0  0
  1 78  1  0  0  0
  2  3  1  0  0  0
  2 25  1  0  0  0
  2 81  1  0  0  0
  2 82  1  0  0  0
  3  4  1  0  0  0
  3 83  1  0  0  0
  3 84  1  0  0  0
  4  5  1  0  0  0
  4 85  1  0  0  0
  4 86  1  0  0  0
  5  6  1  0  0  0
  5 26  1  0  0  0
  5 87  1  0  0  0
  6 25  1  0  0  0
  6 88  1  0  0  0
  6 89  1  0  0  0
  7  8  2  0  0  0
  7 26  1  0  0  0
  7 29  1  0  0  0
  8  9  1  0  0  0
  8 22  1  0  0  0
  9 10  1  0  0  0
  9 27  2  0  0  0
 10 11  2  0  0  0
 10 15  1  0  0  0
 11 12  1  0  0  0
 11 90  1  0  0  0
 12 13  2  0  0  0
 12 91  1  0  0  0
 13 14  1  0  0  0
 13 31  1  0  0  0
 14 15  2  0  0  0
 14 92  1  0  0  0
 15 93  1  0  0  0
 16 17  2  0  0  0
 16 21  1  0  0  0
 16 31  1  0  0  0
 17 18  1  0  0  0
 17 94  1  0  0  0
 18 19  2  0  0  0
 18 95  1  0  0  0
 19 20  1  0  0  0
 19 24  1  0  0  0
 20 21  2  0  0  0
 20 96  1  0  0  0
 21 23  1  0  0  0
 22 28  1  0  0  0
 22 32  2  0  0  0
 26 27  1  0  0  0
 28 97  1  0  0  0
 28 98  1  0  0  0
 29 99  1  0  0  0
 29100  1  0  0  0
 33 34  1  0  0  0
 33 66  1  0  0  0
 33 70  2  0  0  0
 34 36  1  0  0  0
 34 59  1  0  0  0
 34101  1  0  0  0
 35 44  2  0  0  0
 35 45  1  0  0  0
 35 68  1  0  0  0
 36 56  1  0  0  0
 36102  1  0  0  0
 37 39  1  0  0  0
 37 47  1  0  0  0
 37 66  1  0  0  0
 37103  1  0  0  0
 38 43  2  0  0  0
 38 46  1  0  0  0
 38 47  1  0  0  0
 39 64  1  0  0  0
 39 67  2  0  0  0
 40 52  1  0  0  0
 40 53  2  0  0  0
 40 58  1  0  0  0
 41104  1  0  0  0
 41105  1  0  0  0
 41106  1  0  0  0
 41 48  1  0  0  0
 42 43  1  0  0  0
 42 66  1  0  0  0
 42107  1  0  0  0
 42108  1  0  0  0
 43 44  1  0  0  0
 44109  1  0  0  0
 45 46  2  0  0  0
 45110  1  0  0  0
 46111  1  0  0  0
 47112  1  0  0  0
 47113  1  0  0  0
 48 56  1  0  0  0
 48 65  1  0  0  0
 48114  1  0  0  0
 49 50  1  0  0  0
 49 53  1  0  0  0
 49 64  1  0  0  0
 49115  1  0  0  0
 50 51  1  0  0  0
 50116  1  0  0  0
 50117  1  0  0  0
 51 52  1  0  0  0
 51118  1  0  0  0
 51119  1  0  0  0
 52120  1  0  0  0
 52121  1  0  0  0
 53 54  1  0  0  0
 54 55  2  0  0  0
 54122  1  0  0  0
 55 57  1  0  0  0
 55123  1  0  0  0
 56 69  2  0  0  0
 57 58  2  0  0  0
 57124  1  0  0  0
 58125  1  0  0  0
 59 60  1  0  0  0
 59 61  1  0  0  0
 59 62  1  0  0  0
 60126  1  0  0  0
 60127  1  0  0  0
 60128  1  0  0  0
 61129  1  0  0  0
 61130  1  0  0  0
 61131  1  0  0  0
 62132  1  0  0  0
 62133  1  0  0  0
 62134  1  0  0  0
 63 65  1  0  0  0
 63135  1  0  0  0
 63136  1  0  0  0
 63137  1  0  0  0
 64138  1  0  0  0
 65139  1  0  0  0
 68 77  1  0  0  0
 71 73  1  0  0  0
 71 79  1  0  0  0
 71 80  2  0  0  0
 72 79  1  0  0  0
 72140  1  0  0  0
 72141  1  0  0  0
 72142  1  0  0  0
 73 77  1  0  0  0
 73143  1  0  0  0
 73144  1  0  0  0
 74 75  1  0  0  0
 74 76  1  0  0  0
 74145  1  0  0  0
 74146  1  0  0  0
 75 78  1  0  0  0
 75147  1  0  0  0
 75148  1  0  0  0
 76 79  1  0  0  0
 76149  1  0  0  0
 76150  1  0  0  0
 77151  1  0  0  0
 77152  1  0  0  0
 78153  1  0  0  0
M  ISO  4   1 100  68 101  77 101  78 100
M  END
> <chiral flag>
0

> <version>
0

> <s_m_source_file>
/data/baiqing/PycharmProjects/Reinvent-master-3.2/result/LINK_invent/BTK/process_docking_weight1_custom_sum_contain_oxygen_bond_distance_aromatic_linkinvent_7_9_3/rearranged_h_0000.sdf

> <i_m_source_file_index>
38

> <r_mmod_Potential_Energy-OPLS-2005>
76.7338027954102

> <r_mmod_Stretch_Energy-OPLS-2005>
103.122001647949

> <r_mmod_Bend_Energy-OPLS-2005>
152.508102416992

> <r_mmod_Torsional_Energy-OPLS-2005>
233.218399047852

> <r_mmod_Improper_Torsional_Energy-OPLS-2005>
6.6432671546936

> <r_mmod_Van_der_Waal_Energy-OPLS-2005>
134.853607177734

> <r_mmod_Electrostatic_Energy-OPLS-2005>
-380.271209716797

> <r_mmod_Solvation_Energy-OPLS-2005>
-237.269393920898

> <b_mmod_Minimization_Converged-OPLS-2005>
0

> <r_mmod_RMS_Derivative-OPLS-2005>
1.53417325019836

$$$$
40
                    3D
 Structure written by MMmdl.
155163  0  0  1  0            999 V2000
  -30.7006  -14.4996   20.5443 C   0  0  0  0  0  0
  -30.4173  -12.3175   19.4413 C   0  0  0  0  0  0
  -29.4976  -12.4987   18.2181 C   0  0  0  0  0  0
  -28.0229  -12.3434   18.6346 C   0  0  0  0  0  0
  -27.6565  -13.2075   19.8714 C   0  0  2  0  0  0
  -28.6950  -13.0293   21.0018 C   0  0  0  0  0  0
  -25.2569  -13.8168   20.5689 C   0  0  0  0  0  0
  -24.1827  -13.0439   20.9193 C   0  0  0  0  0  0
  -24.6370  -11.6906   20.8736 C   0  0  0  0  0  0
  -23.9046  -10.4292   21.0398 C   0  0  0  0  0  0
  -24.3600   -9.4220   21.9190 C   0  0  0  0  0  0
  -23.6283   -8.2254   22.0770 C   0  0  0  0  0  0
  -22.4277   -8.0282   21.3549 C   0  0  0  0  0  0
  -21.9901   -9.0250   20.4655 C   0  0  0  0  0  0
  -22.7215  -10.2136   20.3055 C   0  0  0  0  0  0
  -21.6848   -6.0734   22.5275 C   0  0  0  0  0  0
  -21.4009   -6.5637   23.8209 C   0  0  0  0  0  0
  -21.3662   -5.6790   24.9171 C   0  0  0  0  0  0
  -21.6046   -4.3053   24.7220 C   0  0  0  0  0  0
  -21.8817   -3.8145   23.4340 C   0  0  0  0  0  0
  -21.9194   -4.6962   22.3398 C   0  0  0  0  0  0
  -22.7848  -13.5249   21.1828 C   0  0  0  0  0  0
  -22.1659   -4.2151   21.0973 F   0  0  0  0  0  0
  -21.5637   -3.4538   25.7734 F   0  0  0  0  0  0
  -30.0236  -13.3231   20.4427 N   0  0  0  0  0  0
  -26.2988  -12.9329   20.3332 N   0  0  0  0  0  0
  -25.9288  -11.6491   20.5744 N   0  0  0  0  0  0
  -22.0449  -12.8249   22.0362 N   0  0  0  0  0  0
  -25.4278  -15.1893   20.4132 N   0  0  0  0  0  0
  -31.8429  -14.6417   20.1050 O   0  0  0  0  0  0
  -21.6643   -6.8876   21.4240 O   0  0  0  0  0  0
  -22.3544  -14.5548   20.6659 O   0  0  0  0  0  0
  -24.6154  -31.8689   23.2078 C   0  0  0  0  0  0
  -25.9047  -32.4820   23.8371 C   0  0  1  0  0  0
  -27.2308  -27.4179   20.1120 C   0  0  0  0  0  0
  -25.5909  -33.8618   24.2315 N   0  0  0  0  0  0
  -23.4029  -30.4922   21.5471 C   0  0  2  0  0  0
  -24.8517  -28.9544   20.1174 C   0  0  0  0  0  0
  -22.7390  -29.4676   22.4963 C   0  0  0  0  0  0
  -18.0285  -28.1372   22.8490 C   0  0  0  0  0  0
  -24.1488  -36.7317   23.2640 C   0  0  0  0  0  0
  -25.9329  -30.8296   21.3632 C   0  0  0  0  0  0
  -26.0123  -29.4609   20.7172 C   0  0  0  0  0  0
  -27.2072  -28.7005   20.7116 C   0  0  0  0  0  0
  -26.0578  -26.9352   19.4976 C   0  0  0  0  0  0
  -24.8702  -27.6901   19.5049 C   0  0  0  0  0  0
  -23.6156  -29.8253   20.1627 C   0  0  0  0  0  0
  -25.4112  -36.3104   24.0329 C   0  0  1  0  0  0
  -20.5873  -28.3671   23.1315 C   0  0  2  0  0  0
  -20.6751  -26.9390   22.5436 C   0  0  0  0  0  0
  -19.5739  -26.6422   21.5203 C   0  0  0  0  0  0
  -18.1929  -26.7913   22.1620 C   0  0  0  0  0  0
  -19.1531  -28.8839   23.2900 C   0  0  0  0  0  0
  -18.9442  -30.1434   23.8927 C   0  0  0  0  0  0
  -17.6447  -30.6578   24.0567 C   0  0  0  0  0  0
  -25.9045  -34.9470   23.5122 C   0  0  0  0  0  0
  -16.5343  -29.9076   23.6315 C   0  0  0  0  0  0
  -16.7284  -28.6503   23.0326 C   0  0  0  0  0  0
  -26.4472  -31.6584   25.0688 C   0  0  0  0  0  0
  -25.3739  -31.3671   26.1432 C   0  0  0  0  0  0
  -27.0313  -30.3030   24.6041 C   0  0  0  0  0  0
  -27.6041  -32.4303   25.7466 C   0  0  0  0  0  0
  -27.5581  -37.1814   24.8471 C   0  0  0  0  0  0
  -21.4129  -29.3024   22.3690 N   0  0  0  0  0  0
  -26.4301  -37.3790   23.9397 N   0  0  0  0  0  0
  -24.6683  -31.0781   22.0980 N   0  0  0  0  0  0
  -23.4169  -28.8258   23.3036 O   0  0  0  0  0  0
  -28.3783  -26.6512   20.0907 O   0  0  0  0  0  0
  -26.5607  -34.8927   22.4681 O   0  0  0  0  0  0
  -23.5352  -32.1453   23.7474 O   0  0  0  0  0  0
  -27.2921  -18.9954   21.6028 C   0  0  0  0  0  0
  -28.1803  -17.9058   21.4941 C   0  0  0  0  0  0
  -27.7019  -20.2984   21.2560 C   0  0  0  0  0  0
  -29.8879  -19.4281   20.6575 C   0  0  0  0  0  0
  -29.4912  -18.1094   21.0126 C   0  0  0  0  0  0
  -29.0144  -20.5403   20.7902 C   0  0  0  0  0  0
  -30.5021  -16.9591   20.8825 C   0  0  0  0  0  0
  -28.3859  -25.5010   20.9652 C   0  0  0  0  0  0
  -29.0220  -22.9637   21.1487 C   0  0  0  0  0  0
  -28.4699  -24.1135   20.2447 C   0  0  1  0  0  0
  -30.0031  -15.5689   20.9846 N   0  0  0  0  0  0
  -27.1528  -23.7438   19.8706 O   0  0  0  0  0  0
  -29.4660  -21.7994   20.4180 O   0  0  0  0  0  0
  -31.4639  -12.4036   19.1452 H   0  0  0  0  0  0
  -30.3071  -11.3155   19.8582 H   0  0  0  0  0  0
  -29.7465  -11.7678   17.4488 H   0  0  0  0  0  0
  -29.6575  -13.4828   17.7740 H   0  0  0  0  0  0
  -27.8612  -11.2894   18.8643 H   0  0  0  0  0  0
  -27.3636  -12.5771   17.7979 H   0  0  0  0  0  0
  -27.6905  -14.2486   19.5504 H   0  0  0  0  0  0
  -28.6699  -12.0080   21.3845 H   0  0  0  0  0  0
  -28.4545  -13.6696   21.8523 H   0  0  0  0  0  0
  -25.2744   -9.5702   22.4765 H   0  0  0  0  0  0
  -23.9999   -7.4643   22.7484 H   0  0  0  0  0  0
  -21.0843   -8.8753   19.8936 H   0  0  0  0  0  0
  -22.3676  -10.9674   19.6162 H   0  0  0  0  0  0
  -21.1990   -7.6144   23.9709 H   0  0  0  0  0  0
  -21.1491   -6.0524   25.9077 H   0  0  0  0  0  0
  -22.0594   -2.7607   23.2836 H   0  0  0  0  0  0
  -22.4065  -11.9953   22.4827 H   0  0  0  0  0  0
  -21.1044  -13.1261   22.2490 H   0  0  0  0  0  0
  -24.6572  -15.8393   20.5235 H   0  0  0  0  0  0
  -26.2723  -15.6308   20.0737 H   0  0  0  0  0  0
  -26.7128  -32.5541   23.1150 H   0  0  0  0  0  0
  -25.0042  -33.9776   25.0453 H   0  0  0  0  0  0
  -22.6936  -31.3111   21.4066 H   0  0  0  0  0  0
  -23.3738  -35.9668   23.3319 H   0  0  0  0  0  0
  -24.3586  -36.8910   22.2050 H   0  0  0  0  0  0
  -23.7263  -37.6536   23.6648 H   0  0  0  0  0  0
  -26.0443  -31.5891   20.5896 H   0  0  0  0  0  0
  -26.8212  -30.8880   21.9802 H   0  0  0  0  0  0
  -28.1028  -29.0890   21.1764 H   0  0  0  0  0  0
  -26.0525  -25.9810   18.9977 H   0  0  0  0  0  0
  -23.9802  -27.2959   19.0330 H   0  0  0  0  0  0
  -23.7345  -30.6009   19.4048 H   0  0  0  0  0  0
  -22.7377  -29.2518   19.8596 H   0  0  0  0  0  0
  -25.1296  -36.1967   25.0827 H   0  0  0  0  0  0
  -20.9970  -28.3256   24.1422 H   0  0  0  0  0  0
  -20.5560  -26.2304   23.3651 H   0  0  0  0  0  0
  -21.6633  -26.7295   22.1279 H   0  0  0  0  0  0
  -19.6951  -25.6359   21.1173 H   0  0  0  0  0  0
  -19.6677  -27.3259   20.6771 H   0  0  0  0  0  0
  -17.4176  -26.6609   21.4044 H   0  0  0  0  0  0
  -18.0373  -26.0038   22.9017 H   0  0  0  0  0  0
  -19.7925  -30.7232   24.2315 H   0  0  0  0  0  0
  -17.4971  -31.6246   24.5189 H   0  0  0  0  0  0
  -15.5335  -30.2954   23.7601 H   0  0  0  0  0  0
  -15.8692  -28.0828   22.7014 H   0  0  0  0  0  0
  -24.5906  -30.7039   25.7743 H   0  0  0  0  0  0
  -24.8950  -32.2823   26.4906 H   0  0  0  0  0  0
  -25.8094  -30.8798   27.0161 H   0  0  0  0  0  0
  -26.2851  -29.6768   24.1128 H   0  0  0  0  0  0
  -27.4141  -29.7274   25.4478 H   0  0  0  0  0  0
  -27.8656  -30.4350   23.9151 H   0  0  0  0  0  0
  -27.2640  -33.3580   26.2071 H   0  0  0  0  0  0
  -28.3836  -32.6886   25.0294 H   0  0  0  0  0  0
  -28.0714  -31.8404   26.5354 H   0  0  0  0  0  0
  -28.2614  -38.0095   24.7496 H   0  0  0  0  0  0
  -28.1057  -36.2625   24.6329 H   0  0  0  0  0  0
  -27.2293  -37.1504   25.8875 H   0  0  0  0  0  0
  -20.9303  -29.8634   21.6795 H   0  0  0  0  0  0
  -26.0182  -38.2869   24.1402 H   0  0  0  0  0  0
  -26.2810  -18.8332   21.9549 H   0  0  0  0  0  0
  -27.8421  -16.9227   21.7830 H   0  0  0  0  0  0
  -26.9843  -21.1018   21.3378 H   0  0  0  0  0  0
  -30.8909  -19.5954   20.2876 H   0  0  0  0  0  0
  -31.2776  -17.1055   21.6342 H   0  0  0  0  0  0
  -30.9969  -17.0846   19.9171 H   0  0  0  0  0  0
  -29.2805  -25.6260   21.5756 H   0  0  0  0  0  0
  -27.5594  -25.5256   21.6793 H   0  0  0  0  0  0
  -28.3409  -22.7370   21.9688 H   0  0  0  0  0  0
  -29.9235  -23.3305   21.6404 H   0  0  0  0  0  0
  -29.1032  -24.2091   19.3628 H   0  0  0  0  0  0
  -29.0706  -15.4172   21.3336 H   0  0  0  0  0  0
  -26.7736  -24.4907   19.4207 H   0  0  0  0  0  0
  1 25  1  0  0  0
  1 30  2  0  0  0
  1 81  1  0  0  0
  2  3  1  0  0  0
  2 25  1  0  0  0
  2 84  1  0  0  0
  2 85  1  0  0  0
  3  4  1  0  0  0
  3 86  1  0  0  0
  3 87  1  0  0  0
  4  5  1  0  0  0
  4 88  1  0  0  0
  4 89  1  0  0  0
  5  6  1  0  0  0
  5 26  1  0  0  0
  5 90  1  0  0  0
  6 25  1  0  0  0
  6 91  1  0  0  0
  6 92  1  0  0  0
  7  8  2  0  0  0
  7 26  1  0  0  0
  7 29  1  0  0  0
  8  9  1  0  0  0
  8 22  1  0  0  0
  9 10  1  0  0  0
  9 27  2  0  0  0
 10 11  2  0  0  0
 10 15  1  0  0  0
 11 12  1  0  0  0
 11 93  1  0  0  0
 12 13  2  0  0  0
 12 94  1  0  0  0
 13 14  1  0  0  0
 13 31  1  0  0  0
 14 15  2  0  0  0
 14 95  1  0  0  0
 15 96  1  0  0  0
 16 17  2  0  0  0
 16 21  1  0  0  0
 16 31  1  0  0  0
 17 18  1  0  0  0
 17 97  1  0  0  0
 18 19  2  0  0  0
 18 98  1  0  0  0
 19 20  1  0  0  0
 19 24  1  0  0  0
 20 21  2  0  0  0
 20 99  1  0  0  0
 21 23  1  0  0  0
 22 28  1  0  0  0
 22 32  2  0  0  0
 26 27  1  0  0  0
 28100  1  0  0  0
 28101  1  0  0  0
 29102  1  0  0  0
 29103  1  0  0  0
 33 34  1  0  0  0
 33 66  1  0  0  0
 33 70  2  0  0  0
 34 36  1  0  0  0
 34 59  1  0  0  0
 34104  1  0  0  0
 35 44  2  0  0  0
 35 45  1  0  0  0
 35 68  1  0  0  0
 36 56  1  0  0  0
 36105  1  0  0  0
 37 39  1  0  0  0
 37 47  1  0  0  0
 37 66  1  0  0  0
 37106  1  0  0  0
 38 43  2  0  0  0
 38 46  1  0  0  0
 38 47  1  0  0  0
 39 64  1  0  0  0
 39 67  2  0  0  0
 40 52  1  0  0  0
 40 53  2  0  0  0
 40 58  1  0  0  0
 41107  1  0  0  0
 41108  1  0  0  0
 41109  1  0  0  0
 41 48  1  0  0  0
 42 43  1  0  0  0
 42 66  1  0  0  0
 42110  1  0  0  0
 42111  1  0  0  0
 43 44  1  0  0  0
 44112  1  0  0  0
 45 46  2  0  0  0
 45113  1  0  0  0
 46114  1  0  0  0
 47115  1  0  0  0
 47116  1  0  0  0
 48 56  1  0  0  0
 48 65  1  0  0  0
 48117  1  0  0  0
 49 50  1  0  0  0
 49 53  1  0  0  0
 49 64  1  0  0  0
 49118  1  0  0  0
 50 51  1  0  0  0
 50119  1  0  0  0
 50120  1  0  0  0
 51 52  1  0  0  0
 51121  1  0  0  0
 51122  1  0  0  0
 52123  1  0  0  0
 52124  1  0  0  0
 53 54  1  0  0  0
 54 55  2  0  0  0
 54125  1  0  0  0
 55 57  1  0  0  0
 55126  1  0  0  0
 56 69  2  0  0  0
 57 58  2  0  0  0
 57127  1  0  0  0
 58128  1  0  0  0
 59 60  1  0  0  0
 59 61  1  0  0  0
 59 62  1  0  0  0
 60129  1  0  0  0
 60130  1  0  0  0
 60131  1  0  0  0
 61132  1  0  0  0
 61133  1  0  0  0
 61134  1  0  0  0
 62135  1  0  0  0
 62136  1  0  0  0
 62137  1  0  0  0
 63 65  1  0  0  0
 63138  1  0  0  0
 63139  1  0  0  0
 63140  1  0  0  0
 64141  1  0  0  0
 65142  1  0  0  0
 68 78  1  0  0  0
 71 72  2  0  0  0
 71 73  1  0  0  0
 71143  1  0  0  0
 72 75  1  0  0  0
 72144  1  0  0  0
 73 76  2  0  0  0
 73145  1  0  0  0
 74 75  2  0  0  0
 74 76  1  0  0  0
 74146  1  0  0  0
 75 77  1  0  0  0
 76 83  1  0  0  0
 77 81  1  0  0  0
 77147  1  0  0  0
 77148  1  0  0  0
 78 80  1  0  0  0
 78149  1  0  0  0
 78150  1  0  0  0
 79 80  1  0  0  0
 79 83  1  0  0  0
 79151  1  0  0  0
 79152  1  0  0  0
 80 82  1  0  0  0
 80153  1  0  0  0
 81154  1  0  0  0
 82155  1  0  0  0
M  ISO  4   1 100  68 101  78 101  81 100
M  END
> <chiral flag>
0

> <version>
0

> <s_m_source_file>
/data/baiqing/PycharmProjects/Reinvent-master-3.2/result/LINK_invent/BTK/process_docking_weight1_custom_sum_contain_oxygen_bond_distance_aromatic_linkinvent_7_9_3/rearranged_h_0000.sdf

> <i_m_source_file_index>
39

> <r_mmod_Potential_Energy-OPLS-2005>
-70.0833129882812

> <r_mmod_Stretch_Energy-OPLS-2005>
42.6928939819336

> <r_mmod_Bend_Energy-OPLS-2005>
105.728958129883

> <r_mmod_Torsional_Energy-OPLS-2005>
238.290603637695

> <r_mmod_Improper_Torsional_Energy-OPLS-2005>
4.05736684799194

> <r_mmod_Van_der_Waal_Energy-OPLS-2005>
145.908172607422

> <r_mmod_Electrostatic_Energy-OPLS-2005>
-399.283050537109

> <r_mmod_Solvation_Energy-OPLS-2005>
-224.013534545898

> <b_mmod_Minimization_Converged-OPLS-2005>
0

> <r_mmod_RMS_Derivative-OPLS-2005>
3.05505895614624

$$$$
41
                    3D
 Structure written by MMmdl.
166173  0  0  1  0            999 V2000
  -30.5749  -14.9405   20.4208 C   0  0  0  0  0  0
  -30.4346  -12.5521   19.5284 C   0  0  0  0  0  0
  -29.5286  -12.5229   18.2747 C   0  0  0  0  0  0
  -28.0582  -12.3130   18.6791 C   0  0  0  0  0  0
  -27.6257  -13.2507   19.8362 C   0  0  2  0  0  0
  -28.6485  -13.2920   20.9885 C   0  0  0  0  0  0
  -25.2424  -13.8180   20.5617 C   0  0  0  0  0  0
  -24.1762  -13.0429   20.9228 C   0  0  0  0  0  0
  -24.6382  -11.6916   20.8765 C   0  0  0  0  0  0
  -23.9066  -10.4288   21.0421 C   0  0  0  0  0  0
  -24.3620   -9.4199   21.9194 C   0  0  0  0  0  0
  -23.6294   -8.2236   22.0757 C   0  0  0  0  0  0
  -22.4276   -8.0278   21.3545 C   0  0  0  0  0  0
  -21.9912   -9.0252   20.4646 C   0  0  0  0  0  0
  -22.7240  -10.2130   20.3064 C   0  0  0  0  0  0
  -21.6854   -6.0736   22.5279 C   0  0  0  0  0  0
  -21.4013   -6.5639   23.8213 C   0  0  0  0  0  0
  -21.3659   -5.6792   24.9176 C   0  0  0  0  0  0
  -21.6045   -4.3055   24.7224 C   0  0  0  0  0  0
  -21.8817   -3.8146   23.4346 C   0  0  0  0  0  0
  -21.9189   -4.6963   22.3403 C   0  0  0  0  0  0
  -22.7791  -13.5218   21.1890 C   0  0  0  0  0  0
  -22.1662   -4.2150   21.0981 F   0  0  0  0  0  0
  -21.5626   -3.4540   25.7738 F   0  0  0  0  0  0
  -29.9493  -13.6421   20.4183 N   0  0  0  0  0  0
  -26.2842  -12.9432   20.3171 N   0  0  0  0  0  0
  -25.9310  -11.6564   20.5727 N   0  0  0  0  0  0
  -22.0442  -12.8207   22.0447 N   0  0  0  0  0  0
  -25.4104  -15.1859   20.3850 N   0  0  0  0  0  0
  -31.7543  -15.0411   20.0756 O   0  0  0  0  0  0
  -21.6639   -6.8877   21.4239 O   0  0  0  0  0  0
  -22.3477  -14.5519   20.6728 O   0  0  0  0  0  0
  -24.6434  -31.8436   23.1880 C   0  0  0  0  0  0
  -25.9208  -32.4686   23.8272 C   0  0  1  0  0  0
  -27.2145  -27.1325   20.1574 C   0  0  0  0  0  0
  -25.5949  -33.8494   24.2182 N   0  0  0  0  0  0
  -23.4467  -30.4641   21.5341 C   0  0  2  0  0  0
  -24.8959  -28.8915   20.1126 C   0  0  0  0  0  0
  -22.7563  -29.4545   22.4851 C   0  0  0  0  0  0
  -18.0300  -28.1398   22.8457 C   0  0  0  0  0  0
  -24.1491  -36.7264   23.2640 C   0  0  0  0  0  0
  -26.0035  -30.7167   21.3881 C   0  0  0  0  0  0
  -26.0742  -29.3277   20.7312 C   0  0  0  0  0  0
  -27.2348  -28.4656   20.7349 C   0  0  0  0  0  0
  -26.0105  -26.8021   19.4951 C   0  0  0  0  0  0
  -24.8775  -27.6420   19.4782 C   0  0  0  0  0  0
  -23.6734  -29.7944   20.1537 C   0  0  0  0  0  0
  -25.4122  -36.3027   24.0308 C   0  0  1  0  0  0
  -20.5913  -28.3723   23.1222 C   0  0  2  0  0  0
  -20.6789  -26.9422   22.5395 C   0  0  0  0  0  0
  -19.5764  -26.6377   21.5200 C   0  0  0  0  0  0
  -18.1941  -26.7932   22.1611 C   0  0  0  0  0  0
  -19.1559  -28.8878   23.2831 C   0  0  0  0  0  0
  -18.9478  -30.1472   23.8863 C   0  0  0  0  0  0
  -17.6478  -30.6588   24.0558 C   0  0  0  0  0  0
  -25.9070  -34.9401   23.5056 C   0  0  0  0  0  0
  -16.5365  -29.9081   23.6337 C   0  0  0  0  0  0
  -16.7290  -28.6503   23.0344 C   0  0  0  0  0  0
  -26.4530  -31.6563   25.0717 C   0  0  0  0  0  0
  -25.3712  -31.3760   26.1407 C   0  0  0  0  0  0
  -27.0399  -30.2957   24.6315 C   0  0  0  0  0  0
  -27.6048  -32.4342   25.7506 C   0  0  0  0  0  0
  -27.5575  -37.1782   24.8458 C   0  0  0  0  0  0
  -21.4254  -29.3052   22.3599 N   0  0  0  0  0  0
  -26.4287  -37.3736   23.9397 N   0  0  0  0  0  0
  -24.7180  -31.0288   22.0921 N   0  0  0  0  0  0
  -23.4201  -28.8082   23.2997 O   0  0  0  0  0  0
  -28.2726  -26.1512   20.2104 O   0  0  0  0  0  0
  -26.5654  -34.8897   22.4631 O   0  0  0  0  0  0
  -23.5556  -32.1313   23.7101 O   0  0  0  0  0  0
  -27.2351  -17.5777   22.8182 C   0  0  0  0  0  0
  -24.6885  -18.3715   21.2252 C   0  0  0  0  0  0
  -25.5196  -20.7524   21.1898 C   0  0  0  0  0  0
  -27.9772  -24.6210   20.3230 C   0  0  0  0  0  0
  -29.0373  -23.3099   20.2282 C   0  0  0  0  0  0
  -30.0177  -17.6290   20.2774 C   0  0  0  0  0  0
  -29.5461  -20.6012   20.2307 C   0  0  0  0  0  0
  -27.0773  -18.9198   22.0727 C   0  0  2  0  0  0
  -29.2398  -19.0436   20.8001 C   0  0  1  0  0  0
  -25.5983  -19.3976   21.9134 C   0  0  0  0  0  0
  -25.0308  -19.6320   23.2255 N   0  0  0  0  0  0
  -27.7627  -18.8692   20.7584 N   0  3  0  0  0  0
  -29.6975  -16.1671   20.6810 O   0  0  0  0  0  0
  -28.6847  -21.8398   20.5698 O   0  0  0  0  0  0
  -31.4758  -12.6981   19.2366 H   0  0  0  0  0  0
  -30.4013  -11.5952   20.0523 H   0  0  0  0  0  0
  -29.8474  -11.7320   17.5946 H   0  0  0  0  0  0
  -29.6286  -13.4600   17.7255 H   0  0  0  0  0  0
  -27.9490  -11.2727   18.9878 H   0  0  0  0  0  0
  -27.4030  -12.4439   17.8175 H   0  0  0  0  0  0
  -27.5928  -14.2511   19.4049 H   0  0  0  0  0  0
  -28.7007  -12.3304   21.5016 H   0  0  0  0  0  0
  -28.3510  -14.0305   21.7350 H   0  0  0  0  0  0
  -25.2764   -9.5680   22.4768 H   0  0  0  0  0  0
  -24.0004   -7.4627   22.7477 H   0  0  0  0  0  0
  -21.0844   -8.8768   19.8954 H   0  0  0  0  0  0
  -22.3696  -10.9672   19.6177 H   0  0  0  0  0  0
  -21.2007   -7.6148   23.9716 H   0  0  0  0  0  0
  -21.1485   -6.0525   25.9080 H   0  0  0  0  0  0
  -22.0595   -2.7609   23.2846 H   0  0  0  0  0  0
  -22.4067  -11.9873   22.4834 H   0  0  0  0  0  0
  -21.1060  -13.1227   22.2662 H   0  0  0  0  0  0
  -24.6273  -15.8268   20.4463 H   0  0  0  0  0  0
  -26.2258  -15.5791   19.9380 H   0  0  0  0  0  0
  -26.7267  -32.5306   23.0998 H   0  0  0  0  0  0
  -25.0075  -33.9605   25.0316 H   0  0  0  0  0  0
  -22.7501  -31.2906   21.3796 H   0  0  0  0  0  0
  -23.3752  -35.9598   23.3287 H   0  0  0  0  0  0
  -24.3583  -36.8922   22.2060 H   0  0  0  0  0  0
  -23.7256  -37.6456   23.6698 H   0  0  0  0  0  0
  -26.1568  -31.4696   20.6139 H   0  0  0  0  0  0
  -26.8744  -30.7677   22.0304 H   0  0  0  0  0  0
  -28.1337  -28.7941   21.2370 H   0  0  0  0  0  0
  -25.9060  -25.8588   18.9831 H   0  0  0  0  0  0
  -23.9802  -27.3048   18.9767 H   0  0  0  0  0  0
  -23.8106  -30.5684   19.3979 H   0  0  0  0  0  0
  -22.7883  -29.2369   19.8421 H   0  0  0  0  0  0
  -25.1312  -36.1853   25.0802 H   0  0  0  0  0  0
  -21.0002  -28.3319   24.1345 H   0  0  0  0  0  0
  -20.5676  -26.2332   23.3616 H   0  0  0  0  0  0
  -21.6656  -26.7421   22.1197 H   0  0  0  0  0  0
  -19.6927  -25.6277   21.1254 H   0  0  0  0  0  0
  -19.6714  -27.3170   20.6715 H   0  0  0  0  0  0
  -17.4207  -26.6662   21.4018 H   0  0  0  0  0  0
  -18.0353  -26.0083   22.9023 H   0  0  0  0  0  0
  -19.7957  -30.7288   24.2220 H   0  0  0  0  0  0
  -17.5033  -31.6267   24.5165 H   0  0  0  0  0  0
  -15.5365  -30.2975   23.7684 H   0  0  0  0  0  0
  -15.8686  -28.0822   22.7072 H   0  0  0  0  0  0
  -24.5884  -30.7117   25.7728 H   0  0  0  0  0  0
  -24.8910  -32.2946   26.4784 H   0  0  0  0  0  0
  -25.7982  -30.8959   27.0220 H   0  0  0  0  0  0
  -26.3025  -29.6671   24.1315 H   0  0  0  0  0  0
  -27.3992  -29.7263   25.4898 H   0  0  0  0  0  0
  -27.8936  -30.4178   23.9648 H   0  0  0  0  0  0
  -27.2626  -33.3658   26.2023 H   0  0  0  0  0  0
  -28.3891  -32.6886   25.0366 H   0  0  0  0  0  0
  -28.0684  -31.8520   26.5479 H   0  0  0  0  0  0
  -28.2566  -38.0099   24.7505 H   0  0  0  0  0  0
  -28.1096  -36.2627   24.6289 H   0  0  0  0  0  0
  -27.2291  -37.1434   25.8859 H   0  0  0  0  0  0
  -20.9462  -29.8787   21.6797 H   0  0  0  0  0  0
  -26.0156  -38.2797   24.1418 H   0  0  0  0  0  0
  -26.7347  -17.6027   23.7863 H   0  0  0  0  0  0
  -28.2834  -17.3489   23.0069 H   0  0  0  0  0  0
  -26.8157  -16.7461   22.2540 H   0  0  0  0  0  0
  -25.0577  -18.1108   20.2336 H   0  0  0  0  0  0
  -23.6776  -18.7589   21.0940 H   0  0  0  0  0  0
  -24.6046  -17.4520   21.8050 H   0  0  0  0  0  0
  -25.8436  -20.6783   20.1512 H   0  0  0  0  0  0
  -26.1418  -21.5092   21.6711 H   0  0  0  0  0  0
  -24.4991  -21.1378   21.1659 H   0  0  0  0  0  0
  -27.4690  -24.5202   21.2825 H   0  0  0  0  0  0
  -27.2182  -24.3781   19.5841 H   0  0  0  0  0  0
  -29.9014  -23.5535   20.8463 H   0  0  0  0  0  0
  -29.4216  -23.2978   19.2079 H   0  0  0  0  0  0
  -31.0781  -17.7629   20.4935 H   0  0  0  0  0  0
  -29.9648  -17.6310   19.1884 H   0  0  0  0  0  0
  -29.5657  -20.5511   19.1416 H   0  0  0  0  0  0
  -30.5692  -20.8506   20.5144 H   0  0  0  0  0  0
  -27.5766  -19.6867   22.6688 H   0  0  0  0  0  0
  -29.5306  -19.0969   21.8496 H   0  0  0  0  0  0
  -24.1269  -20.0692   23.0975 H   0  0  0  0  0  0
  -25.5894  -20.3365   23.6927 H   0  0  0  0  0  0
  -27.3791  -19.6461   20.2362 H   0  0  0  0  0  0
  -27.5009  -18.0251   20.2740 H   0  0  0  0  0  0
  1 25  1  0  0  0
  1 30  2  0  0  0
  1 83  1  0  0  0
  2  3  1  0  0  0
  2 25  1  0  0  0
  2 85  1  0  0  0
  2 86  1  0  0  0
  3  4  1  0  0  0
  3 87  1  0  0  0
  3 88  1  0  0  0
  4  5  1  0  0  0
  4 89  1  0  0  0
  4 90  1  0  0  0
  5  6  1  0  0  0
  5 26  1  0  0  0
  5 91  1  0  0  0
  6 25  1  0  0  0
  6 92  1  0  0  0
  6 93  1  0  0  0
  7  8  2  0  0  0
  7 26  1  0  0  0
  7 29  1  0  0  0
  8  9  1  0  0  0
  8 22  1  0  0  0
  9 10  1  0  0  0
  9 27  2  0  0  0
 10 11  2  0  0  0
 10 15  1  0  0  0
 11 12  1  0  0  0
 11 94  1  0  0  0
 12 13  2  0  0  0
 12 95  1  0  0  0
 13 14  1  0  0  0
 13 31  1  0  0  0
 14 15  2  0  0  0
 14 96  1  0  0  0
 15 97  1  0  0  0
 16 17  2  0  0  0
 16 21  1  0  0  0
 16 31  1  0  0  0
 17 18  1  0  0  0
 17 98  1  0  0  0
 18 19  2  0  0  0
 18 99  1  0  0  0
 19 20  1  0  0  0
 19 24  1  0  0  0
 20 21  2  0  0  0
 20100  1  0  0  0
 21 23  1  0  0  0
 22 28  1  0  0  0
 22 32  2  0  0  0
 26 27  1  0  0  0
 28101  1  0  0  0
 28102  1  0  0  0
 29103  1  0  0  0
 29104  1  0  0  0
 33 34  1  0  0  0
 33 66  1  0  0  0
 33 70  2  0  0  0
 34 36  1  0  0  0
 34 59  1  0  0  0
 34105  1  0  0  0
 35 44  2  0  0  0
 35 45  1  0  0  0
 35 68  1  0  0  0
 36 56  1  0  0  0
 36106  1  0  0  0
 37 39  1  0  0  0
 37 47  1  0  0  0
 37 66  1  0  0  0
 37107  1  0  0  0
 38 43  2  0  0  0
 38 46  1  0  0  0
 38 47  1  0  0  0
 39 64  1  0  0  0
 39 67  2  0  0  0
 40 52  1  0  0  0
 40 53  2  0  0  0
 40 58  1  0  0  0
 41108  1  0  0  0
 41109  1  0  0  0
 41110  1  0  0  0
 41 48  1  0  0  0
 42 43  1  0  0  0
 42 66  1  0  0  0
 42111  1  0  0  0
 42112  1  0  0  0
 43 44  1  0  0  0
 44113  1  0  0  0
 45 46  2  0  0  0
 45114  1  0  0  0
 46115  1  0  0  0
 47116  1  0  0  0
 47117  1  0  0  0
 48 56  1  0  0  0
 48 65  1  0  0  0
 48118  1  0  0  0
 49 50  1  0  0  0
 49 53  1  0  0  0
 49 64  1  0  0  0
 49119  1  0  0  0
 50 51  1  0  0  0
 50120  1  0  0  0
 50121  1  0  0  0
 51 52  1  0  0  0
 51122  1  0  0  0
 51123  1  0  0  0
 52124  1  0  0  0
 52125  1  0  0  0
 53 54  1  0  0  0
 54 55  2  0  0  0
 54126  1  0  0  0
 55 57  1  0  0  0
 55127  1  0  0  0
 56 69  2  0  0  0
 57 58  2  0  0  0
 57128  1  0  0  0
 58129  1  0  0  0
 59 60  1  0  0  0
 59 61  1  0  0  0
 59 62  1  0  0  0
 60130  1  0  0  0
 60131  1  0  0  0
 60132  1  0  0  0
 61133  1  0  0  0
 61134  1  0  0  0
 61135  1  0  0  0
 62136  1  0  0  0
 62137  1  0  0  0
 62138  1  0  0  0
 63 65  1  0  0  0
 63139  1  0  0  0
 63140  1  0  0  0
 63141  1  0  0  0
 64142  1  0  0  0
 65143  1  0  0  0
 68 74  1  0  0  0
 71144  1  0  0  0
 71145  1  0  0  0
 71146  1  0  0  0
 71 78  1  0  0  0
 72147  1  0  0  0
 72148  1  0  0  0
 72149  1  0  0  0
 72 80  1  0  0  0
 73 80  1  0  0  0
 73150  1  0  0  0
 73151  1  0  0  0
 73152  1  0  0  0
 74 75  1  0  0  0
 74153  1  0  0  0
 74154  1  0  0  0
 75 84  1  0  0  0
 75155  1  0  0  0
 75156  1  0  0  0
 76 83  1  0  0  0
 76157  1  0  0  0
 76158  1  0  0  0
 76 79  1  0  0  0
 77 79  1  0  0  0
 77 84  1  0  0  0
 77159  1  0  0  0
 77160  1  0  0  0
 78 80  1  0  0  0
 78 82  1  0  0  0
 78161  1  0  0  0
 79 82  1  0  0  0
 79162  1  0  0  0
 80 81  1  0  0  0
 81163  1  0  0  0
 81164  1  0  0  0
 82165  1  0  0  0
 82166  1  0  0  0
M  CHG  1  82   1
M  ISO  4   1 100  68 101  74 101  83 100
M  END
> <chiral flag>
0

> <version>
0

> <s_m_source_file>
/data/baiqing/PycharmProjects/Reinvent-master-3.2/result/LINK_invent/BTK/process_docking_weight1_custom_sum_contain_oxygen_bond_distance_aromatic_linkinvent_7_9_3/rearranged_h_0000.sdf

> <i_m_source_file_index>
40

> <r_mmod_Potential_Energy-OPLS-2005>
279.404266357422

> <r_mmod_Stretch_Energy-OPLS-2005>
296.298309326172

> <r_mmod_Bend_Energy-OPLS-2005>
269.133148193359

> <r_mmod_Torsional_Energy-OPLS-2005>
242.539749145508

> <r_mmod_Improper_Torsional_Energy-OPLS-2005>
4.22143077850342

> <r_mmod_Van_der_Waal_Energy-OPLS-2005>
107.05899810791

> <r_mmod_Electrostatic_Energy-OPLS-2005>
-385.382232666016

> <r_mmod_Solvation_Energy-OPLS-2005>
-441.200775146484

> <b_mmod_Minimization_Converged-OPLS-2005>
0

> <r_mmod_RMS_Derivative-OPLS-2005>
0.94397908449173

$$$$
42
                    3D
 Structure written by MMmdl.
179187  0  0  1  0            999 V2000
  -30.7960  -14.3137   20.7138 C   0  0  0  0  0  0
  -30.4162  -12.2781   19.3793 C   0  0  0  0  0  0
  -29.4794  -12.5319   18.1855 C   0  0  0  0  0  0
  -28.0077  -12.3816   18.6093 C   0  0  0  0  0  0
  -27.6718  -13.1986   19.8834 C   0  0  2  0  0  0
  -28.7104  -12.9299   20.9957 C   0  0  0  0  0  0
  -25.2636  -13.8150   20.5668 C   0  0  0  0  0  0
  -24.1868  -13.0439   20.9149 C   0  0  0  0  0  0
  -24.6409  -11.6900   20.8728 C   0  0  0  0  0  0
  -23.9072  -10.4289   21.0403 C   0  0  0  0  0  0
  -24.3628   -9.4202   21.9180 C   0  0  0  0  0  0
  -23.6295   -8.2245   22.0756 C   0  0  0  0  0  0
  -22.4274   -8.0285   21.3548 C   0  0  0  0  0  0
  -21.9912   -9.0261   20.4648 C   0  0  0  0  0  0
  -22.7245  -10.2134   20.3052 C   0  0  0  0  0  0
  -21.6851   -6.0738   22.5279 C   0  0  0  0  0  0
  -21.4013   -6.5642   23.8214 C   0  0  0  0  0  0
  -21.3659   -5.6794   24.9176 C   0  0  0  0  0  0
  -21.6046   -4.3057   24.7224 C   0  0  0  0  0  0
  -21.8822   -3.8147   23.4346 C   0  0  0  0  0  0
  -21.9192   -4.6965   22.3399 C   0  0  0  0  0  0
  -22.7894  -13.5240   21.1824 C   0  0  0  0  0  0
  -22.1663   -4.2153   21.0979 F   0  0  0  0  0  0
  -21.5628   -3.4540   25.7735 F   0  0  0  0  0  0
  -30.0609  -13.2027   20.4638 N   0  0  0  0  0  0
  -26.3084  -12.9311   20.3402 N   0  0  0  0  0  0
  -25.9337  -11.6474   20.5775 N   0  0  0  0  0  0
  -22.0541  -12.8234   22.0388 N   0  0  0  0  0  0
  -25.4372  -15.1865   20.4080 N   0  0  0  0  0  0
  -31.7396  -14.6836   20.0089 O   0  0  0  0  0  0
  -21.6639   -6.8880   21.4242 O   0  0  0  0  0  0
  -22.3580  -14.5554   20.6682 O   0  0  0  0  0  0
  -24.6086  -31.8717   23.2132 C   0  0  0  0  0  0
  -25.9012  -32.4833   23.8423 C   0  0  1  0  0  0
  -27.2466  -27.4845   20.0778 C   0  0  0  0  0  0
  -25.5931  -33.8634   24.2379 N   0  0  0  0  0  0
  -23.3978  -30.4914   21.5507 C   0  0  2  0  0  0
  -24.8472  -28.9639   20.1125 C   0  0  0  0  0  0
  -22.7410  -29.4647   22.4998 C   0  0  0  0  0  0
  -18.0276  -28.1388   22.8475 C   0  0  0  0  0  0
  -24.1500  -36.7294   23.2649 C   0  0  0  0  0  0
  -25.9190  -30.8510   21.3600 C   0  0  0  0  0  0
  -26.0008  -29.4884   20.7079 C   0  0  0  0  0  0
  -27.2035  -28.7540   20.6963 C   0  0  0  0  0  0
  -26.0844  -26.9714   19.4701 C   0  0  0  0  0  0
  -24.8800  -27.7003   19.4945 C   0  0  0  0  0  0
  -23.6058  -29.8221   20.1646 C   0  0  0  0  0  0
  -25.4133  -36.3124   24.0351 C   0  0  1  0  0  0
  -20.5868  -28.3653   23.1326 C   0  0  2  0  0  0
  -20.6763  -26.9394   22.5411 C   0  0  0  0  0  0
  -19.5753  -26.6386   21.5197 C   0  0  0  0  0  0
  -18.1926  -26.7935   22.1601 C   0  0  0  0  0  0
  -19.1528  -28.8834   23.2898 C   0  0  0  0  0  0
  -18.9462  -30.1438   23.8906 C   0  0  0  0  0  0
  -17.6465  -30.6576   24.0566 C   0  0  0  0  0  0
  -25.9050  -34.9480   23.5152 C   0  0  0  0  0  0
  -16.5353  -29.9086   23.6329 C   0  0  0  0  0  0
  -16.7266  -28.6514   23.0330 C   0  0  0  0  0  0
  -26.4465  -31.6559   25.0712 C   0  0  0  0  0  0
  -25.3746  -31.3636   26.1465 C   0  0  0  0  0  0
  -27.0270  -30.3011   24.6002 C   0  0  0  0  0  0
  -27.6057  -32.4229   25.7503 C   0  0  0  0  0  0
  -27.5599  -37.1818   24.8467 C   0  0  0  0  0  0
  -21.4147  -29.3017   22.3742 N   0  0  0  0  0  0
  -26.4317  -37.3811   23.9412 N   0  0  0  0  0  0
  -24.6594  -31.0860   22.1004 N   0  0  0  0  0  0
  -23.4201  -28.8189   23.3026 O   0  0  0  0  0  0
  -28.3758  -26.7014   20.0751 O   0  0  0  0  0  0
  -26.5576  -34.8914   22.4686 O   0  0  0  0  0  0
  -23.5296  -32.1435   23.7562 O   0  0  0  0  0  0
  -33.5761  -19.9667   26.5815 C   0  0  0  0  0  0
  -32.4457  -20.7195   26.9525 C   0  0  0  0  0  0
  -33.4341  -18.6380   26.1379 C   0  0  0  0  0  0
  -31.0252  -18.8222   26.4208 C   0  0  0  0  0  0
  -31.1579  -20.1437   26.8922 C   0  0  0  0  0  0
  -32.1466  -18.0565   26.0468 C   0  0  0  0  0  0
  -29.9431  -20.8766   27.2813 C   0  0  0  0  0  0
  -29.8226  -22.2081   27.4254 C   0  0  0  0  0  0
  -28.5500  -22.8856   27.8947 C   0  0  0  0  0  0
  -31.0892  -16.1565   22.3772 C   0  0  0  0  0  0
  -27.8987  -23.7706   26.8268 C   0  0  0  0  0  0
  -32.6011  -16.0171   22.6483 C   0  0  0  0  0  0
  -32.9077  -15.7983   25.6034 C   0  0  0  0  0  0
  -28.9851  -26.4968   21.3516 C   0  0  0  0  0  0
  -32.4598  -14.6617   24.6680 C   0  0  0  0  0  0
  -28.0280  -25.7953   22.3418 C   0  0  0  0  0  0
  -28.0318  -26.0293   26.0536 C   0  0  0  0  0  0
  -27.4653  -25.8250   24.6369 C   0  0  0  0  0  0
  -30.4816  -14.9372   21.8508 N   0  0  0  0  0  0
  -31.8854  -16.7902   25.5787 O   0  0  0  0  0  0
  -28.7314  -24.8952   26.5653 O   0  0  0  0  0  0
  -32.9454  -14.8116   23.3331 O   0  0  0  0  0  0
  -28.5072  -25.9390   23.6735 O   0  0  0  0  0  0
  -31.4581  -12.3817   19.0705 H   0  0  0  0  0  0
  -30.3155  -11.2496   19.7294 H   0  0  0  0  0  0
  -29.7060  -11.8388   17.3739 H   0  0  0  0  0  0
  -29.6483  -13.5348   17.7902 H   0  0  0  0  0  0
  -27.8179  -11.3221   18.7876 H   0  0  0  0  0  0
  -27.3480  -12.6741   17.7922 H   0  0  0  0  0  0
  -27.7351  -14.2542   19.6178 H   0  0  0  0  0  0
  -28.6617  -11.8877   21.3155 H   0  0  0  0  0  0
  -28.4582  -13.5147   21.8802 H   0  0  0  0  0  0
  -25.2778   -9.5673   22.4748 H   0  0  0  0  0  0
  -24.0002   -7.4635   22.7480 H   0  0  0  0  0  0
  -21.0840   -8.8786   19.8955 H   0  0  0  0  0  0
  -22.3712  -10.9679   19.6162 H   0  0  0  0  0  0
  -21.2009   -7.6148   23.9719 H   0  0  0  0  0  0
  -21.1479   -6.0522   25.9079 H   0  0  0  0  0  0
  -22.0601   -2.7611   23.2843 H   0  0  0  0  0  0
  -22.4156  -11.9881   22.4747 H   0  0  0  0  0  0
  -21.1172  -13.1277   22.2626 H   0  0  0  0  0  0
  -24.6754  -15.8469   20.5176 H   0  0  0  0  0  0
  -26.3033  -15.6252   20.1187 H   0  0  0  0  0  0
  -26.7108  -32.5572   23.1222 H   0  0  0  0  0  0
  -25.0162  -33.9813   25.0577 H   0  0  0  0  0  0
  -22.6828  -31.3059   21.4115 H   0  0  0  0  0  0
  -23.3780  -35.9607   23.3336 H   0  0  0  0  0  0
  -24.3579  -36.8881   22.2058 H   0  0  0  0  0  0
  -23.7226  -37.6491   23.6645 H   0  0  0  0  0  0
  -26.0248  -31.6176   20.5909 H   0  0  0  0  0  0
  -26.8093  -30.9063   21.9743 H   0  0  0  0  0  0
  -28.0863  -29.1693   21.1601 H   0  0  0  0  0  0
  -26.1072  -25.9986   18.9994 H   0  0  0  0  0  0
  -23.9895  -27.2890   19.0383 H   0  0  0  0  0  0
  -23.7100  -30.5947   19.4015 H   0  0  0  0  0  0
  -22.7331  -29.2361   19.8695 H   0  0  0  0  0  0
  -25.1304  -36.2013   25.0849 H   0  0  0  0  0  0
  -20.9962  -28.3216   24.1450 H   0  0  0  0  0  0
  -20.5677  -26.2257   23.3585 H   0  0  0  0  0  0
  -21.6633  -26.7433   22.1206 H   0  0  0  0  0  0
  -19.6920  -25.6308   21.1208 H   0  0  0  0  0  0
  -19.6729  -27.3203   20.6733 H   0  0  0  0  0  0
  -17.4211  -26.6686   21.3994 H   0  0  0  0  0  0
  -18.0322  -26.0085   22.9008 H   0  0  0  0  0  0
  -19.7933  -30.7247   24.2297 H   0  0  0  0  0  0
  -17.5015  -31.6263   24.5159 H   0  0  0  0  0  0
  -15.5353  -30.2991   23.7647 H   0  0  0  0  0  0
  -15.8666  -28.0836   22.7036 H   0  0  0  0  0  0
  -24.5893  -30.7020   25.7787 H   0  0  0  0  0  0
  -24.8953  -32.2781   26.4965 H   0  0  0  0  0  0
  -25.8108  -30.8745   27.0188 H   0  0  0  0  0  0
  -26.2768  -29.6810   24.1075 H   0  0  0  0  0  0
  -27.4104  -29.7204   25.4402 H   0  0  0  0  0  0
  -27.8597  -30.4332   23.9085 H   0  0  0  0  0  0
  -27.2672  -33.3483   26.2175 H   0  0  0  0  0  0
  -28.3870  -32.6857   25.0353 H   0  0  0  0  0  0
  -28.0735  -31.8277   26.5353 H   0  0  0  0  0  0
  -28.2630  -38.0107   24.7527 H   0  0  0  0  0  0
  -28.1090  -36.2643   24.6296 H   0  0  0  0  0  0
  -27.2304  -37.1463   25.8864 H   0  0  0  0  0  0
  -20.9329  -29.8731   21.6949 H   0  0  0  0  0  0
  -26.0226  -38.2892   24.1435 H   0  0  0  0  0  0
  -34.5618  -20.4076   26.6379 H   0  0  0  0  0  0
  -32.5853  -21.7328   27.3008 H   0  0  0  0  0  0
  -34.3307  -18.1086   25.8547 H   0  0  0  0  0  0
  -30.0433  -18.3763   26.3482 H   0  0  0  0  0  0
  -29.0758  -20.2656   27.4929 H   0  0  0  0  0  0
  -30.6546  -22.8640   27.2129 H   0  0  0  0  0  0
  -28.7772  -23.4782   28.7802 H   0  0  0  0  0  0
  -27.8336  -22.1252   28.2113 H   0  0  0  0  0  0
  -30.9117  -16.9821   21.6865 H   0  0  0  0  0  0
  -30.5702  -16.4181   23.2987 H   0  0  0  0  0  0
  -26.9220  -24.0900   27.1951 H   0  0  0  0  0  0
  -27.7189  -23.2020   25.9138 H   0  0  0  0  0  0
  -32.9701  -16.8960   23.1766 H   0  0  0  0  0  0
  -33.1467  -16.0169   21.7048 H   0  0  0  0  0  0
  -33.8927  -16.1428   25.2937 H   0  0  0  0  0  0
  -32.9978  -15.4288   26.6262 H   0  0  0  0  0  0
  -29.8789  -25.8871   21.2148 H   0  0  0  0  0  0
  -29.3373  -27.4448   21.7590 H   0  0  0  0  0  0
  -31.3756  -14.5379   24.6817 H   0  0  0  0  0  0
  -32.8695  -13.7219   25.0396 H   0  0  0  0  0  0
  -27.9082  -24.7400   22.0893 H   0  0  0  0  0  0
  -27.0345  -26.2415   22.2756 H   0  0  0  0  0  0
  -27.2264  -26.2953   26.7396 H   0  0  0  0  0  0
  -28.7075  -26.8854   26.0518 H   0  0  0  0  0  0
  -26.7332  -26.6140   24.4524 H   0  0  0  0  0  0
  -26.9333  -24.8777   24.5354 H   0  0  0  0  0  0
  -29.7385  -14.5234   22.3940 H   0  0  0  0  0  0
  1 25  1  0  0  0
  1 30  2  0  0  0
  1 89  1  0  0  0
  2  3  1  0  0  0
  2 25  1  0  0  0
  2 94  1  0  0  0
  2 95  1  0  0  0
  3  4  1  0  0  0
  3 96  1  0  0  0
  3 97  1  0  0  0
  4  5  1  0  0  0
  4 98  1  0  0  0
  4 99  1  0  0  0
  5  6  1  0  0  0
  5 26  1  0  0  0
  5100  1  0  0  0
  6 25  1  0  0  0
  6101  1  0  0  0
  6102  1  0  0  0
  7  8  2  0  0  0
  7 26  1  0  0  0
  7 29  1  0  0  0
  8  9  1  0  0  0
  8 22  1  0  0  0
  9 10  1  0  0  0
  9 27  2  0  0  0
 10 11  2  0  0  0
 10 15  1  0  0  0
 11 12  1  0  0  0
 11103  1  0  0  0
 12 13  2  0  0  0
 12104  1  0  0  0
 13 14  1  0  0  0
 13 31  1  0  0  0
 14 15  2  0  0  0
 14105  1  0  0  0
 15106  1  0  0  0
 16 17  2  0  0  0
 16 21  1  0  0  0
 16 31  1  0  0  0
 17 18  1  0  0  0
 17107  1  0  0  0
 18 19  2  0  0  0
 18108  1  0  0  0
 19 20  1  0  0  0
 19 24  1  0  0  0
 20 21  2  0  0  0
 20109  1  0  0  0
 21 23  1  0  0  0
 22 28  1  0  0  0
 22 32  2  0  0  0
 26 27  1  0  0  0
 28110  1  0  0  0
 28111  1  0  0  0
 29112  1  0  0  0
 29113  1  0  0  0
 33 34  1  0  0  0
 33 66  1  0  0  0
 33 70  2  0  0  0
 34 36  1  0  0  0
 34 59  1  0  0  0
 34114  1  0  0  0
 35 44  2  0  0  0
 35 45  1  0  0  0
 35 68  1  0  0  0
 36 56  1  0  0  0
 36115  1  0  0  0
 37 39  1  0  0  0
 37 47  1  0  0  0
 37 66  1  0  0  0
 37116  1  0  0  0
 38 43  2  0  0  0
 38 46  1  0  0  0
 38 47  1  0  0  0
 39 64  1  0  0  0
 39 67  2  0  0  0
 40 52  1  0  0  0
 40 53  2  0  0  0
 40 58  1  0  0  0
 41117  1  0  0  0
 41118  1  0  0  0
 41119  1  0  0  0
 41 48  1  0  0  0
 42 43  1  0  0  0
 42 66  1  0  0  0
 42120  1  0  0  0
 42121  1  0  0  0
 43 44  1  0  0  0
 44122  1  0  0  0
 45 46  2  0  0  0
 45123  1  0  0  0
 46124  1  0  0  0
 47125  1  0  0  0
 47126  1  0  0  0
 48 56  1  0  0  0
 48 65  1  0  0  0
 48127  1  0  0  0
 49 50  1  0  0  0
 49 53  1  0  0  0
 49 64  1  0  0  0
 49128  1  0  0  0
 50 51  1  0  0  0
 50129  1  0  0  0
 50130  1  0  0  0
 51 52  1  0  0  0
 51131  1  0  0  0
 51132  1  0  0  0
 52133  1  0  0  0
 52134  1  0  0  0
 53 54  1  0  0  0
 54 55  2  0  0  0
 54135  1  0  0  0
 55 57  1  0  0  0
 55136  1  0  0  0
 56 69  2  0  0  0
 57 58  2  0  0  0
 57137  1  0  0  0
 58138  1  0  0  0
 59 60  1  0  0  0
 59 61  1  0  0  0
 59 62  1  0  0  0
 60139  1  0  0  0
 60140  1  0  0  0
 60141  1  0  0  0
 61142  1  0  0  0
 61143  1  0  0  0
 61144  1  0  0  0
 62145  1  0  0  0
 62146  1  0  0  0
 62147  1  0  0  0
 63 65  1  0  0  0
 63148  1  0  0  0
 63149  1  0  0  0
 63150  1  0  0  0
 64151  1  0  0  0
 65152  1  0  0  0
 68 84  1  0  0  0
 71 72  2  0  0  0
 71 73  1  0  0  0
 71153  1  0  0  0
 72 75  1  0  0  0
 72154  1  0  0  0
 73 76  2  0  0  0
 73155  1  0  0  0
 74 75  2  0  0  0
 74 76  1  0  0  0
 74156  1  0  0  0
 75 77  1  0  0  0
 76 90  1  0  0  0
 77 78  2  0  0  0
 77157  1  0  0  0
 78 79  1  0  0  0
 78158  1  0  0  0
 79 81  1  0  0  0
 79159  1  0  0  0
 79160  1  0  0  0
 80 82  1  0  0  0
 80 89  1  0  0  0
 80161  1  0  0  0
 80162  1  0  0  0
 81 91  1  0  0  0
 81163  1  0  0  0
 81164  1  0  0  0
 82 92  1  0  0  0
 82165  1  0  0  0
 82166  1  0  0  0
 83 85  1  0  0  0
 83 90  1  0  0  0
 83167  1  0  0  0
 83168  1  0  0  0
 84 86  1  0  0  0
 84169  1  0  0  0
 84170  1  0  0  0
 85 92  1  0  0  0
 85171  1  0  0  0
 85172  1  0  0  0
 86 93  1  0  0  0
 86173  1  0  0  0
 86174  1  0  0  0
 87 88  1  0  0  0
 87 91  1  0  0  0
 87175  1  0  0  0
 87176  1  0  0  0
 88 93  1  0  0  0
 88177  1  0  0  0
 88178  1  0  0  0
 89179  1  0  0  0
M  ISO  4   1 100  68 101  84 101  89 100
M  END
> <chiral flag>
0

> <version>
0

> <s_m_source_file>
/data/baiqing/PycharmProjects/Reinvent-master-3.2/result/LINK_invent/BTK/process_docking_weight1_custom_sum_contain_oxygen_bond_distance_aromatic_linkinvent_7_9_3/rearranged_h_0000.sdf

> <i_m_source_file_index>
41

> <r_mmod_Potential_Energy-OPLS-2005>
-100.098220825195

> <r_mmod_Stretch_Energy-OPLS-2005>
33.8576812744141

> <r_mmod_Bend_Energy-OPLS-2005>
110.822471618652

> <r_mmod_Torsional_Energy-OPLS-2005>
219.274795532227

> <r_mmod_Improper_Torsional_Energy-OPLS-2005>
2.33182692527771

> <r_mmod_Van_der_Waal_Energy-OPLS-2005>
163.138092041016

> <r_mmod_Electrostatic_Energy-OPLS-2005>
-406.728973388672

> <r_mmod_Solvation_Energy-OPLS-2005>
-230.238800048828

> <b_mmod_Minimization_Converged-OPLS-2005>
0

> <r_mmod_RMS_Derivative-OPLS-2005>
1.81210398674011

$$$$
43
                    3D
 Structure written by MMmdl.
151159  0  0  1  0            999 V2000
  -30.6183  -14.6884   20.5139 C   0  0  0  0  0  0
  -30.4359  -12.4337   19.4638 C   0  0  0  0  0  0
  -29.5135  -12.5566   18.2311 C   0  0  0  0  0  0
  -28.0372  -12.3840   18.6297 C   0  0  0  0  0  0
  -27.6555  -13.2329   19.8715 C   0  0  2  0  0  0
  -28.6981  -13.0967   21.0054 C   0  0  0  0  0  0
  -25.2556  -13.8210   20.5713 C   0  0  0  0  0  0
  -24.1819  -13.0449   20.9188 C   0  0  0  0  0  0
  -24.6435  -11.6934   20.8744 C   0  0  0  0  0  0
  -23.9092  -10.4291   21.0363 C   0  0  0  0  0  0
  -24.3651   -9.4206   21.9131 C   0  0  0  0  0  0
  -23.6309   -8.2257   22.0720 C   0  0  0  0  0  0
  -22.4288   -8.0293   21.3541 C   0  0  0  0  0  0
  -21.9934   -9.0258   20.4628 C   0  0  0  0  0  0
  -22.7273  -10.2129   20.3016 C   0  0  0  0  0  0
  -21.6874   -6.0737   22.5277 C   0  0  0  0  0  0
  -21.4030   -6.5634   23.8203 C   0  0  0  0  0  0
  -21.3679   -5.6772   24.9165 C   0  0  0  0  0  0
  -21.6040   -4.3054   24.7207 C   0  0  0  0  0  0
  -21.8837   -3.8139   23.4323 C   0  0  0  0  0  0
  -21.9204   -4.6962   22.3389 C   0  0  0  0  0  0
  -22.7831  -13.5241   21.1808 C   0  0  0  0  0  0
  -22.1651   -4.2152   21.0969 F   0  0  0  0  0  0
  -21.5636   -3.4527   25.7714 F   0  0  0  0  0  0
  -30.0159  -13.4528   20.4529 N   0  0  0  0  0  0
  -26.3007  -12.9411   20.3353 N   0  0  0  0  0  0
  -25.9377  -11.6563   20.5761 N   0  0  0  0  0  0
  -22.0454  -12.8264   22.0419 N   0  0  0  0  0  0
  -25.4261  -15.1926   20.4188 N   0  0  0  0  0  0
  -31.7466  -14.8581   20.0396 O   0  0  0  0  0  0
  -21.6664   -6.8882   21.4224 O   0  0  0  0  0  0
  -22.3495  -14.5516   20.6631 O   0  0  0  0  0  0
  -24.6263  -31.8598   23.1996 C   0  0  0  0  0  0
  -25.9118  -32.4779   23.8327 C   0  0  1  0  0  0
  -27.2440  -27.3066   20.1323 C   0  0  0  0  0  0
  -25.5949  -33.8587   24.2276 N   0  0  0  0  0  0
  -23.4204  -30.4782   21.5458 C   0  0  2  0  0  0
  -24.8716  -28.9196   20.1219 C   0  0  0  0  0  0
  -22.7472  -29.4642   22.4998 C   0  0  0  0  0  0
  -18.0303  -28.1373   22.8479 C   0  0  0  0  0  0
  -24.1504  -36.7279   23.2632 C   0  0  0  0  0  0
  -25.9629  -30.7810   21.3774 C   0  0  0  0  0  0
  -26.0393  -29.4068   20.7226 C   0  0  0  0  0  0
  -27.2260  -28.6130   20.7158 C   0  0  0  0  0  0
  -26.0486  -26.8692   19.5151 C   0  0  0  0  0  0
  -24.8787  -27.6550   19.5111 C   0  0  0  0  0  0
  -23.6351  -29.7970   20.1681 C   0  0  0  0  0  0
  -25.4137  -36.3092   24.0332 C   0  0  1  0  0  0
  -20.5892  -28.3685   23.1288 C   0  0  2  0  0  0
  -20.6825  -26.9422   22.5401 C   0  0  0  0  0  0
  -19.5800  -26.6366   21.5226 C   0  0  0  0  0  0
  -18.1971  -26.7919   22.1604 C   0  0  0  0  0  0
  -19.1543  -28.8850   23.2867 C   0  0  0  0  0  0
  -18.9471  -30.1464   23.8859 C   0  0  0  0  0  0
  -17.6464  -30.6574   24.0553 C   0  0  0  0  0  0
  -25.9078  -34.9468   23.5103 C   0  0  0  0  0  0
  -16.5364  -29.9063   23.6332 C   0  0  0  0  0  0
  -16.7285  -28.6480   23.0351 C   0  0  0  0  0  0
  -26.4481  -31.6589   25.0709 C   0  0  0  0  0  0
  -25.3699  -31.3732   26.1424 C   0  0  0  0  0  0
  -27.0354  -30.3025   24.6179 C   0  0  0  0  0  0
  -27.6045  -32.4320   25.7470 C   0  0  0  0  0  0
  -27.5609  -37.1794   24.8455 C   0  0  0  0  0  0
  -21.4202  -29.3019   22.3689 N   0  0  0  0  0  0
  -26.4304  -37.3797   23.9413 N   0  0  0  0  0  0
  -24.6886  -31.0584   22.0967 N   0  0  0  0  0  0
  -23.4166  -28.8224   23.3136 O   0  0  0  0  0  0
  -28.3839  -26.4785   20.1614 O   0  0  0  0  0  0
  -26.5641  -34.8918   22.4668 O   0  0  0  0  0  0
  -23.5438  -32.1430   23.7307 O   0  0  0  0  0  0
  -30.3063  -17.7857   19.5591 C   0  0  0  0  0  0
  -29.3834  -18.0960   21.7608 C   0  0  0  0  0  0
  -30.1503  -19.1846   19.3131 C   0  0  0  0  0  0
  -29.2632  -19.5058   21.5264 C   0  0  0  0  0  0
  -29.9033  -17.1873   20.7885 C   0  0  0  0  0  0
  -29.6223  -20.0930   20.2781 C   0  0  0  0  0  0
  -29.4960  -24.0739   20.3620 C   0  0  0  0  0  0
  -29.4037  -22.5508   20.8796 C   0  0  0  0  0  0
  -28.2090  -25.0020   20.2058 C   0  0  0  0  0  0
  -29.8978  -15.7332   21.0433 N   0  0  0  0  0  0
  -29.4531  -21.4503   19.9079 O   0  0  0  0  0  0
  -31.4753  -12.5568   19.1615 H   0  0  0  0  0  0
  -30.3658  -11.4324   19.8887 H   0  0  0  0  0  0
  -29.7913  -11.8247   17.4695 H   0  0  0  0  0  0
  -29.6525  -13.5380   17.7753 H   0  0  0  0  0  0
  -27.8735  -11.3263   18.8296 H   0  0  0  0  0  0
  -27.3910  -12.6356   17.7882 H   0  0  0  0  0  0
  -27.6693  -14.2727   19.5484 H   0  0  0  0  0  0
  -28.7155  -12.0734   21.3863 H   0  0  0  0  0  0
  -28.4291  -13.7289   21.8511 H   0  0  0  0  0  0
  -25.2775   -9.5720   22.4711 H   0  0  0  0  0  0
  -24.0047   -7.4666   22.7467 H   0  0  0  0  0  0
  -21.0850   -8.8770   19.8950 H   0  0  0  0  0  0
  -22.3685  -10.9673   19.6153 H   0  0  0  0  0  0
  -21.2008   -7.6126   23.9721 H   0  0  0  0  0  0
  -21.1483   -6.0488   25.9079 H   0  0  0  0  0  0
  -22.0594   -2.7597   23.2816 H   0  0  0  0  0  0
  -22.4062  -11.9965   22.4895 H   0  0  0  0  0  0
  -21.1051  -13.1241   22.2523 H   0  0  0  0  0  0
  -24.6665  -15.8532   20.5436 H   0  0  0  0  0  0
  -26.2856  -15.6363   20.1247 H   0  0  0  0  0  0
  -26.7180  -32.5417   23.1067 H   0  0  0  0  0  0
  -25.0177  -33.9724   25.0473 H   0  0  0  0  0  0
  -22.7144  -31.2989   21.3978 H   0  0  0  0  0  0
  -23.3803  -35.9568   23.3274 H   0  0  0  0  0  0
  -24.3602  -36.8921   22.2046 H   0  0  0  0  0  0
  -23.7201  -37.6453   23.6661 H   0  0  0  0  0  0
  -26.1067  -31.5404   20.6075 H   0  0  0  0  0  0
  -26.8363  -30.8237   22.0166 H   0  0  0  0  0  0
  -28.1177  -28.9868   21.2001 H   0  0  0  0  0  0
  -25.9934  -25.9038   19.0360 H   0  0  0  0  0  0
  -23.9843  -27.2690   19.0415 H   0  0  0  0  0  0
  -23.7403  -30.5632   19.4004 H   0  0  0  0  0  0
  -22.7556  -29.2188   19.8770 H   0  0  0  0  0  0
  -25.1316  -36.1953   25.0827 H   0  0  0  0  0  0
  -20.9965  -28.3272   24.1415 H   0  0  0  0  0  0
  -20.5799  -26.2308   23.3595 H   0  0  0  0  0  0
  -21.6692  -26.7520   22.1159 H   0  0  0  0  0  0
  -19.6998  -25.6281   21.1261 H   0  0  0  0  0  0
  -19.6737  -27.3157   20.6745 H   0  0  0  0  0  0
  -17.4273  -26.6667   21.3983 H   0  0  0  0  0  0
  -18.0346  -26.0029   22.8950 H   0  0  0  0  0  0
  -19.7957  -30.7303   24.2150 H   0  0  0  0  0  0
  -17.5032  -31.6249   24.5162 H   0  0  0  0  0  0
  -15.5365  -30.2946   23.7697 H   0  0  0  0  0  0
  -15.8687  -28.0785   22.7088 H   0  0  0  0  0  0
  -24.5841  -30.7139   25.7725 H   0  0  0  0  0  0
  -24.8923  -32.2906   26.4872 H   0  0  0  0  0  0
  -25.7975  -30.8855   27.0188 H   0  0  0  0  0  0
  -26.2957  -29.6747   24.1210 H   0  0  0  0  0  0
  -27.4094  -29.7292   25.4666 H   0  0  0  0  0  0
  -27.8785  -30.4337   23.9399 H   0  0  0  0  0  0
  -27.2672  -33.3616   26.2050 H   0  0  0  0  0  0
  -28.3834  -32.6889   25.0286 H   0  0  0  0  0  0
  -28.0734  -31.8453   26.5370 H   0  0  0  0  0  0
  -28.2593  -38.0129   24.7612 H   0  0  0  0  0  0
  -28.1151  -36.2687   24.6170 H   0  0  0  0  0  0
  -27.2338  -37.1292   25.8850 H   0  0  0  0  0  0
  -20.9436  -29.8639   21.6781 H   0  0  0  0  0  0
  -26.0207  -38.2871   24.1430 H   0  0  0  0  0  0
  -30.7036  -17.1789   18.7545 H   0  0  0  0  0  0
  -29.0400  -17.7192   22.7203 H   0  0  0  0  0  0
  -30.4406  -19.5683   18.3432 H   0  0  0  0  0  0
  -28.8440  -20.1135   22.3196 H   0  0  0  0  0  0
  -30.0759  -24.0950   19.4386 H   0  0  0  0  0  0
  -30.1279  -24.5954   21.0820 H   0  0  0  0  0  0
  -28.5720  -22.4378   21.5775 H   0  0  0  0  0  0
  -30.3014  -22.3971   21.4825 H   0  0  0  0  0  0
  -27.5390  -24.7864   21.0384 H   0  0  0  0  0  0
  -27.7049  -24.6696   19.3012 H   0  0  0  0  0  0
  -29.1493  -15.4223   21.6469 H   0  0  0  0  0  0
  1 25  1  0  0  0
  1 30  2  0  0  0
  1 80  1  0  0  0
  2  3  1  0  0  0
  2 25  1  0  0  0
  2 82  1  0  0  0
  2 83  1  0  0  0
  3  4  1  0  0  0
  3 84  1  0  0  0
  3 85  1  0  0  0
  4  5  1  0  0  0
  4 86  1  0  0  0
  4 87  1  0  0  0
  5  6  1  0  0  0
  5 26  1  0  0  0
  5 88  1  0  0  0
  6 25  1  0  0  0
  6 89  1  0  0  0
  6 90  1  0  0  0
  7  8  2  0  0  0
  7 26  1  0  0  0
  7 29  1  0  0  0
  8  9  1  0  0  0
  8 22  1  0  0  0
  9 10  1  0  0  0
  9 27  2  0  0  0
 10 11  2  0  0  0
 10 15  1  0  0  0
 11 12  1  0  0  0
 11 91  1  0  0  0
 12 13  2  0  0  0
 12 92  1  0  0  0
 13 14  1  0  0  0
 13 31  1  0  0  0
 14 15  2  0  0  0
 14 93  1  0  0  0
 15 94  1  0  0  0
 16 17  2  0  0  0
 16 21  1  0  0  0
 16 31  1  0  0  0
 17 18  1  0  0  0
 17 95  1  0  0  0
 18 19  2  0  0  0
 18 96  1  0  0  0
 19 20  1  0  0  0
 19 24  1  0  0  0
 20 21  2  0  0  0
 20 97  1  0  0  0
 21 23  1  0  0  0
 22 28  1  0  0  0
 22 32  2  0  0  0
 26 27  1  0  0  0
 28 98  1  0  0  0
 28 99  1  0  0  0
 29100  1  0  0  0
 29101  1  0  0  0
 33 34  1  0  0  0
 33 66  1  0  0  0
 33 70  2  0  0  0
 34 36  1  0  0  0
 34 59  1  0  0  0
 34102  1  0  0  0
 35 44  2  0  0  0
 35 45  1  0  0  0
 35 68  1  0  0  0
 36 56  1  0  0  0
 36103  1  0  0  0
 37 39  1  0  0  0
 37 47  1  0  0  0
 37 66  1  0  0  0
 37104  1  0  0  0
 38 43  2  0  0  0
 38 46  1  0  0  0
 38 47  1  0  0  0
 39 64  1  0  0  0
 39 67  2  0  0  0
 40 52  1  0  0  0
 40 53  2  0  0  0
 40 58  1  0  0  0
 41105  1  0  0  0
 41106  1  0  0  0
 41107  1  0  0  0
 41 48  1  0  0  0
 42 43  1  0  0  0
 42 66  1  0  0  0
 42108  1  0  0  0
 42109  1  0  0  0
 43 44  1  0  0  0
 44110  1  0  0  0
 45 46  2  0  0  0
 45111  1  0  0  0
 46112  1  0  0  0
 47113  1  0  0  0
 47114  1  0  0  0
 48 56  1  0  0  0
 48 65  1  0  0  0
 48115  1  0  0  0
 49 50  1  0  0  0
 49 53  1  0  0  0
 49 64  1  0  0  0
 49116  1  0  0  0
 50 51  1  0  0  0
 50117  1  0  0  0
 50118  1  0  0  0
 51 52  1  0  0  0
 51119  1  0  0  0
 51120  1  0  0  0
 52121  1  0  0  0
 52122  1  0  0  0
 53 54  1  0  0  0
 54 55  2  0  0  0
 54123  1  0  0  0
 55 57  1  0  0  0
 55124  1  0  0  0
 56 69  2  0  0  0
 57 58  2  0  0  0
 57125  1  0  0  0
 58126  1  0  0  0
 59 60  1  0  0  0
 59 61  1  0  0  0
 59 62  1  0  0  0
 60127  1  0  0  0
 60128  1  0  0  0
 60129  1  0  0  0
 61130  1  0  0  0
 61131  1  0  0  0
 61132  1  0  0  0
 62133  1  0  0  0
 62134  1  0  0  0
 62135  1  0  0  0
 63 65  1  0  0  0
 63136  1  0  0  0
 63137  1  0  0  0
 63138  1  0  0  0
 64139  1  0  0  0
 65140  1  0  0  0
 68 79  1  0  0  0
 71 73  2  0  0  0
 71 75  1  0  0  0
 71141  1  0  0  0
 72 74  1  0  0  0
 72 75  2  0  0  0
 72142  1  0  0  0
 73 76  1  0  0  0
 73143  1  0  0  0
 74 76  2  0  0  0
 74144  1  0  0  0
 75 80  1  0  0  0
 76 81  1  0  0  0
 77 78  1  0  0  0
 77 79  1  0  0  0
 77145  1  0  0  0
 77146  1  0  0  0
 78 81  1  0  0  0
 78147  1  0  0  0
 78148  1  0  0  0
 79149  1  0  0  0
 79150  1  0  0  0
 80151  1  0  0  0
M  ISO  4   1 100  68 101  79 101  80 100
M  END
> <chiral flag>
0

> <version>
0

> <s_m_source_file>
/data/baiqing/PycharmProjects/Reinvent-master-3.2/result/LINK_invent/BTK/process_docking_weight1_custom_sum_contain_oxygen_bond_distance_aromatic_linkinvent_7_9_3/rearranged_h_0000.sdf

> <i_m_source_file_index>
42

> <r_mmod_Potential_Energy-OPLS-2005>
87.3086853027344

> <r_mmod_Stretch_Energy-OPLS-2005>
91.08984375

> <r_mmod_Bend_Energy-OPLS-2005>
159.319290161133

> <r_mmod_Torsional_Energy-OPLS-2005>
236.013916015625

> <r_mmod_Improper_Torsional_Energy-OPLS-2005>
3.05807876586914

> <r_mmod_Van_der_Waal_Energy-OPLS-2005>
138.714782714844

> <r_mmod_Electrostatic_Energy-OPLS-2005>
-383.976654052734

> <r_mmod_Solvation_Energy-OPLS-2005>
-214.270523071289

> <b_mmod_Minimization_Converged-OPLS-2005>
0

> <r_mmod_RMS_Derivative-OPLS-2005>
5.72391843795776

$$$$
44
                    3D
 Structure written by MMmdl.
172179  0  0  1  0            999 V2000
  -30.7075  -14.4201   20.6075 C   0  0  0  0  0  0
  -30.4264  -12.2844   19.4180 C   0  0  0  0  0  0
  -29.5037  -12.5189   18.2033 C   0  0  0  0  0  0
  -28.0186  -12.3910   18.6036 C   0  0  0  0  0  0
  -27.6675  -13.2032   19.8793 C   0  0  2  0  0  0
  -28.7031  -12.9413   20.9976 C   0  0  0  0  0  0
  -25.2600  -13.8151   20.5629 C   0  0  0  0  0  0
  -24.1844  -13.0433   20.9119 C   0  0  0  0  0  0
  -24.6389  -11.6908   20.8694 C   0  0  0  0  0  0
  -23.9064  -10.4286   21.0378 C   0  0  0  0  0  0
  -24.3607   -9.4212   21.9166 C   0  0  0  0  0  0
  -23.6287   -8.2258   22.0751 C   0  0  0  0  0  0
  -22.4268   -8.0283   21.3542 C   0  0  0  0  0  0
  -21.9899   -9.0261   20.4649 C   0  0  0  0  0  0
  -22.7232  -10.2131   20.3043 C   0  0  0  0  0  0
  -21.6864   -6.0740   22.5281 C   0  0  0  0  0  0
  -21.4028   -6.5634   23.8210 C   0  0  0  0  0  0
  -21.3649   -5.6787   24.9177 C   0  0  0  0  0  0
  -21.6045   -4.3057   24.7219 C   0  0  0  0  0  0
  -21.8822   -3.8134   23.4352 C   0  0  0  0  0  0
  -21.9193   -4.6966   22.3399 C   0  0  0  0  0  0
  -22.7865  -13.5257   21.1810 C   0  0  0  0  0  0
  -22.1662   -4.2140   21.0990 F   0  0  0  0  0  0
  -21.5618   -3.4535   25.7747 F   0  0  0  0  0  0
  -30.0463  -13.2406   20.4656 N   0  0  0  0  0  0
  -26.3038  -12.9315   20.3324 N   0  0  0  0  0  0
  -25.9307  -11.6471   20.5693 N   0  0  0  0  0  0
  -22.0506  -12.8256   22.0376 N   0  0  0  0  0  0
  -25.4329  -15.1890   20.4059 N   0  0  0  0  0  0
  -31.7895  -14.6684   20.0723 O   0  0  0  0  0  0
  -21.6643   -6.8882   21.4239 O   0  0  0  0  0  0
  -22.3550  -14.5550   20.6668 O   0  0  0  0  0  0
  -24.6092  -31.8693   23.2142 C   0  0  0  0  0  0
  -25.9017  -32.4814   23.8416 C   0  0  1  0  0  0
  -27.2440  -27.4779   20.0806 C   0  0  0  0  0  0
  -25.5939  -33.8622   24.2360 N   0  0  0  0  0  0
  -23.3995  -30.4868   21.5542 C   0  0  2  0  0  0
  -24.8493  -28.9583   20.1185 C   0  0  0  0  0  0
  -22.7383  -29.4619   22.5029 C   0  0  0  0  0  0
  -18.0266  -28.1342   22.8501 C   0  0  0  0  0  0
  -24.1492  -36.7299   23.2631 C   0  0  0  0  0  0
  -25.9215  -30.8455   21.3618 C   0  0  0  0  0  0
  -26.0036  -29.4784   20.7165 C   0  0  0  0  0  0
  -27.2054  -28.7408   20.7066 C   0  0  0  0  0  0
  -26.0811  -26.9611   19.4772 C   0  0  0  0  0  0
  -24.8790  -27.6952   19.5003 C   0  0  0  0  0  0
  -23.6089  -29.8213   20.1674 C   0  0  0  0  0  0
  -25.4106  -36.3113   24.0342 C   0  0  1  0  0  0
  -20.5861  -28.3645   23.1373 C   0  0  2  0  0  0
  -20.6809  -26.9368   22.5513 C   0  0  0  0  0  0
  -19.5778  -26.6219   21.5352 C   0  0  0  0  0  0
  -18.1935  -26.7850   22.1729 C   0  0  0  0  0  0
  -19.1504  -28.8817   23.2893 C   0  0  0  0  0  0
  -18.9442  -30.1458   23.8852 C   0  0  0  0  0  0
  -17.6429  -30.6572   24.0523 C   0  0  0  0  0  0
  -25.9036  -34.9483   23.5129 C   0  0  0  0  0  0
  -16.5327  -29.9074   23.6286 C   0  0  0  0  0  0
  -16.7261  -28.6500   23.0312 C   0  0  0  0  0  0
  -26.4484  -31.6580   25.0710 C   0  0  0  0  0  0
  -25.3771  -31.3688   26.1469 C   0  0  0  0  0  0
  -27.0282  -30.3036   24.6022 C   0  0  0  0  0  0
  -27.6076  -32.4269   25.7467 C   0  0  0  0  0  0
  -27.5574  -37.1801   24.8463 C   0  0  0  0  0  0
  -21.4119  -29.2995   22.3761 N   0  0  0  0  0  0
  -26.4298  -37.3783   23.9425 N   0  0  0  0  0  0
  -24.6612  -31.0823   22.1022 N   0  0  0  0  0  0
  -23.4187  -28.8140   23.3016 O   0  0  0  0  0  0
  -28.3955  -26.7408   20.0193 O   0  0  0  0  0  0
  -26.5574  -34.8936   22.4670 O   0  0  0  0  0  0
  -23.5304  -32.1441   23.7560 O   0  0  0  0  0  0
  -30.0902  -16.7995   20.9320 C   0  0  0  0  0  0
  -30.7378  -17.6444   22.0371 C   0  0  0  0  0  0
  -28.8595  -26.2437   21.2718 C   0  0  0  0  0  0
  -27.9962  -25.0556   21.7292 C   0  0  0  0  0  0
  -31.0454  -19.9436   22.6039 C   0  0  0  0  0  0
  -30.0824  -21.1279   22.7408 C   0  0  0  0  0  0
  -25.7318  -24.6120   22.2669 C   0  0  0  0  0  0
  -24.7110  -24.9202   23.3704 C   0  0  0  0  0  0
  -27.9187  -21.6892   23.4960 C   0  0  0  0  0  0
  -26.5869  -21.1179   24.0073 C   0  0  0  0  0  0
  -23.4210  -23.0843   24.2454 C   0  0  0  0  0  0
  -24.3242  -21.8633   23.9886 C   0  0  0  0  0  0
  -30.0100  -15.3719   21.2400 N   0  0  0  0  0  0
  -30.4601  -18.9994   21.7165 O   0  0  0  0  0  0
  -26.8204  -25.5147   22.3840 O   0  0  0  0  0  0
  -28.8962  -20.6679   23.3825 O   0  0  0  0  0  0
  -23.5552  -24.0957   23.2439 O   0  0  0  0  0  0
  -25.6859  -22.1993   24.2016 O   0  0  0  0  0  0
  -31.4734  -12.3821   19.1272 H   0  0  0  0  0  0
  -30.3144  -11.2654   19.7890 H   0  0  0  0  0  0
  -29.7427  -11.8095   17.4087 H   0  0  0  0  0  0
  -29.6886  -13.5118   17.7874 H   0  0  0  0  0  0
  -27.8092  -11.3337   18.7639 H   0  0  0  0  0  0
  -27.3828  -12.7021   17.7732 H   0  0  0  0  0  0
  -27.7255  -14.2585   19.6098 H   0  0  0  0  0  0
  -28.6617  -11.8959   21.3074 H   0  0  0  0  0  0
  -28.4571  -13.5126   21.8940 H   0  0  0  0  0  0
  -25.2766   -9.5702   22.4714 H   0  0  0  0  0  0
  -24.0008   -7.4657   22.7470 H   0  0  0  0  0  0
  -21.0824   -8.8776   19.8962 H   0  0  0  0  0  0
  -22.3696  -10.9656   19.6130 H   0  0  0  0  0  0
  -21.2039   -7.6150   23.9723 H   0  0  0  0  0  0
  -21.1460   -6.0517   25.9083 H   0  0  0  0  0  0
  -22.0607   -2.7599   23.2857 H   0  0  0  0  0  0
  -22.4112  -11.9944   22.4795 H   0  0  0  0  0  0
  -21.1120  -13.1278   22.2562 H   0  0  0  0  0  0
  -24.6656  -15.8447   20.5158 H   0  0  0  0  0  0
  -26.2936  -15.6288   20.1035 H   0  0  0  0  0  0
  -26.7083  -32.5552   23.1185 H   0  0  0  0  0  0
  -25.0169  -33.9791   25.0570 H   0  0  0  0  0  0
  -22.6869  -31.3009   21.4149 H   0  0  0  0  0  0
  -23.3756  -35.9617   23.3310 H   0  0  0  0  0  0
  -24.3566  -36.8888   22.2030 H   0  0  0  0  0  0
  -23.7254  -37.6522   23.6617 H   0  0  0  0  0  0
  -26.0179  -31.6132   20.5906 H   0  0  0  0  0  0
  -26.8144  -30.9086   21.9726 H   0  0  0  0  0  0
  -28.0986  -29.1463   21.1616 H   0  0  0  0  0  0
  -26.1114  -25.9921   18.9977 H   0  0  0  0  0  0
  -23.9910  -27.2878   19.0365 H   0  0  0  0  0  0
  -23.7176  -30.5993   19.4100 H   0  0  0  0  0  0
  -22.7377  -29.2349   19.8672 H   0  0  0  0  0  0
  -25.1277  -36.1959   25.0827 H   0  0  0  0  0  0
  -20.9893  -28.3233   24.1513 H   0  0  0  0  0  0
  -20.5753  -26.2269   23.3727 H   0  0  0  0  0  0
  -21.6697  -26.7418   22.1321 H   0  0  0  0  0  0
  -19.6920  -25.6036   21.1617 H   0  0  0  0  0  0
  -19.6761  -27.2833   20.6742 H   0  0  0  0  0  0
  -17.4187  -26.6492   21.4157 H   0  0  0  0  0  0
  -18.0382  -26.0083   22.9237 H   0  0  0  0  0  0
  -19.7905  -30.7305   24.2206 H   0  0  0  0  0  0
  -17.4967  -31.6254   24.5120 H   0  0  0  0  0  0
  -15.5313  -30.2972   23.7576 H   0  0  0  0  0  0
  -15.8678  -28.0792   22.7029 H   0  0  0  0  0  0
  -24.5941  -30.7024   25.7846 H   0  0  0  0  0  0
  -24.8946  -32.2826   26.4933 H   0  0  0  0  0  0
  -25.8136  -30.8867   27.0224 H   0  0  0  0  0  0
  -26.2799  -29.6813   24.1095 H   0  0  0  0  0  0
  -27.4126  -29.7240   25.4433 H   0  0  0  0  0  0
  -27.8603  -30.4393   23.9106 H   0  0  0  0  0  0
  -27.2731  -33.3565   26.2086 H   0  0  0  0  0  0
  -28.3867  -32.6829   25.0273 H   0  0  0  0  0  0
  -28.0758  -31.8351   26.5336 H   0  0  0  0  0  0
  -28.2608  -38.0096   24.7512 H   0  0  0  0  0  0
  -28.1083  -36.2625   24.6296 H   0  0  0  0  0  0
  -27.2295  -37.1452   25.8876 H   0  0  0  0  0  0
  -20.9249  -29.8767   21.7044 H   0  0  0  0  0  0
  -26.0187  -38.2855   24.1460 H   0  0  0  0  0  0
  -30.5994  -16.9803   19.9827 H   0  0  0  0  0  0
  -29.0656  -17.1428   20.7851 H   0  0  0  0  0  0
  -31.8133  -17.4684   22.0890 H   0  0  0  0  0  0
  -30.3065  -17.4046   23.0116 H   0  0  0  0  0  0
  -28.9196  -27.0165   22.0362 H   0  0  0  0  0  0
  -29.8749  -25.8849   21.1087 H   0  0  0  0  0  0
  -28.5553  -24.4550   22.4471 H   0  0  0  0  0  0
  -27.7778  -24.4153   20.8733 H   0  0  0  0  0  0
  -31.2477  -19.5226   23.5904 H   0  0  0  0  0  0
  -31.9984  -20.2734   22.1866 H   0  0  0  0  0  0
  -29.8598  -21.5490   21.7573 H   0  0  0  0  0  0
  -30.5392  -21.9193   23.3377 H   0  0  0  0  0  0
  -25.2804  -24.6993   21.2791 H   0  0  0  0  0  0
  -26.0769  -23.5865   22.3405 H   0  0  0  0  0  0
  -24.3944  -25.9598   23.2777 H   0  0  0  0  0  0
  -25.1764  -24.8362   24.3527 H   0  0  0  0  0  0
  -28.2771  -22.4738   24.1646 H   0  0  0  0  0  0
  -27.7567  -22.1351   22.5148 H   0  0  0  0  0  0
  -26.7205  -20.5968   24.9561 H   0  0  0  0  0  0
  -26.2086  -20.3947   23.2832 H   0  0  0  0  0  0
  -23.5620  -23.4968   25.2468 H   0  0  0  0  0  0
  -22.3842  -22.7448   24.2052 H   0  0  0  0  0  0
  -24.1678  -21.4936   22.9734 H   0  0  0  0  0  0
  -24.0577  -21.0609   24.6753 H   0  0  0  0  0  0
  -29.1710  -15.0633   21.7073 H   0  0  0  0  0  0
  1 25  1  0  0  0
  1 30  2  0  0  0
  1 83  1  0  0  0
  2  3  1  0  0  0
  2 25  1  0  0  0
  2 89  1  0  0  0
  2 90  1  0  0  0
  3  4  1  0  0  0
  3 91  1  0  0  0
  3 92  1  0  0  0
  4  5  1  0  0  0
  4 93  1  0  0  0
  4 94  1  0  0  0
  5  6  1  0  0  0
  5 26  1  0  0  0
  5 95  1  0  0  0
  6 25  1  0  0  0
  6 96  1  0  0  0
  6 97  1  0  0  0
  7  8  2  0  0  0
  7 26  1  0  0  0
  7 29  1  0  0  0
  8  9  1  0  0  0
  8 22  1  0  0  0
  9 10  1  0  0  0
  9 27  2  0  0  0
 10 11  2  0  0  0
 10 15  1  0  0  0
 11 12  1  0  0  0
 11 98  1  0  0  0
 12 13  2  0  0  0
 12 99  1  0  0  0
 13 14  1  0  0  0
 13 31  1  0  0  0
 14 15  2  0  0  0
 14100  1  0  0  0
 15101  1  0  0  0
 16 17  2  0  0  0
 16 21  1  0  0  0
 16 31  1  0  0  0
 17 18  1  0  0  0
 17102  1  0  0  0
 18 19  2  0  0  0
 18103  1  0  0  0
 19 20  1  0  0  0
 19 24  1  0  0  0
 20 21  2  0  0  0
 20104  1  0  0  0
 21 23  1  0  0  0
 22 28  1  0  0  0
 22 32  2  0  0  0
 26 27  1  0  0  0
 28105  1  0  0  0
 28106  1  0  0  0
 29107  1  0  0  0
 29108  1  0  0  0
 33 34  1  0  0  0
 33 66  1  0  0  0
 33 70  2  0  0  0
 34 36  1  0  0  0
 34 59  1  0  0  0
 34109  1  0  0  0
 35 44  2  0  0  0
 35 45  1  0  0  0
 35 68  1  0  0  0
 36 56  1  0  0  0
 36110  1  0  0  0
 37 39  1  0  0  0
 37 47  1  0  0  0
 37 66  1  0  0  0
 37111  1  0  0  0
 38 43  2  0  0  0
 38 46  1  0  0  0
 38 47  1  0  0  0
 39 64  1  0  0  0
 39 67  2  0  0  0
 40 52  1  0  0  0
 40 53  2  0  0  0
 40 58  1  0  0  0
 41112  1  0  0  0
 41113  1  0  0  0
 41114  1  0  0  0
 41 48  1  0  0  0
 42 43  1  0  0  0
 42 66  1  0  0  0
 42115  1  0  0  0
 42116  1  0  0  0
 43 44  1  0  0  0
 44117  1  0  0  0
 45 46  2  0  0  0
 45118  1  0  0  0
 46119  1  0  0  0
 47120  1  0  0  0
 47121  1  0  0  0
 48 56  1  0  0  0
 48 65  1  0  0  0
 48122  1  0  0  0
 49 50  1  0  0  0
 49 53  1  0  0  0
 49 64  1  0  0  0
 49123  1  0  0  0
 50 51  1  0  0  0
 50124  1  0  0  0
 50125  1  0  0  0
 51 52  1  0  0  0
 51126  1  0  0  0
 51127  1  0  0  0
 52128  1  0  0  0
 52129  1  0  0  0
 53 54  1  0  0  0
 54 55  2  0  0  0
 54130  1  0  0  0
 55 57  1  0  0  0
 55131  1  0  0  0
 56 69  2  0  0  0
 57 58  2  0  0  0
 57132  1  0  0  0
 58133  1  0  0  0
 59 60  1  0  0  0
 59 61  1  0  0  0
 59 62  1  0  0  0
 60134  1  0  0  0
 60135  1  0  0  0
 60136  1  0  0  0
 61137  1  0  0  0
 61138  1  0  0  0
 61139  1  0  0  0
 62140  1  0  0  0
 62141  1  0  0  0
 62142  1  0  0  0
 63 65  1  0  0  0
 63143  1  0  0  0
 63144  1  0  0  0
 63145  1  0  0  0
 64146  1  0  0  0
 65147  1  0  0  0
 68 73  1  0  0  0
 71 72  1  0  0  0
 71 83  1  0  0  0
 71148  1  0  0  0
 71149  1  0  0  0
 72 84  1  0  0  0
 72150  1  0  0  0
 72151  1  0  0  0
 73 74  1  0  0  0
 73152  1  0  0  0
 73153  1  0  0  0
 74 85  1  0  0  0
 74154  1  0  0  0
 74155  1  0  0  0
 75 76  1  0  0  0
 75 84  1  0  0  0
 75156  1  0  0  0
 75157  1  0  0  0
 76 86  1  0  0  0
 76158  1  0  0  0
 76159  1  0  0  0
 77 78  1  0  0  0
 77 85  1  0  0  0
 77160  1  0  0  0
 77161  1  0  0  0
 78 87  1  0  0  0
 78162  1  0  0  0
 78163  1  0  0  0
 79 80  1  0  0  0
 79 86  1  0  0  0
 79164  1  0  0  0
 79165  1  0  0  0
 80 88  1  0  0  0
 80166  1  0  0  0
 80167  1  0  0  0
 81 82  1  0  0  0
 81 87  1  0  0  0
 81168  1  0  0  0
 81169  1  0  0  0
 82 88  1  0  0  0
 82170  1  0  0  0
 82171  1  0  0  0
 83172  1  0  0  0
M  ISO  4   1 100  68 101  73 101  83 100
M  END
> <chiral flag>
0

> <version>
0

> <s_m_source_file>
/data/baiqing/PycharmProjects/Reinvent-master-3.2/result/LINK_invent/BTK/process_docking_weight1_custom_sum_contain_oxygen_bond_distance_aromatic_linkinvent_7_9_3/rearranged_h_0000.sdf

> <i_m_source_file_index>
43

> <r_mmod_Potential_Energy-OPLS-2005>
-91.5160980224609

> <r_mmod_Stretch_Energy-OPLS-2005>
31.528736114502

> <r_mmod_Bend_Energy-OPLS-2005>
96.138313293457

> <r_mmod_Torsional_Energy-OPLS-2005>
236.498550415039

> <r_mmod_Improper_Torsional_Energy-OPLS-2005>
4.97384929656982

> <r_mmod_Van_der_Waal_Energy-OPLS-2005>
121.936805725098

> <r_mmod_Electrostatic_Energy-OPLS-2005>
-356.765014648438

> <r_mmod_Solvation_Energy-OPLS-2005>
-233.270050048828

> <b_mmod_Minimization_Converged-OPLS-2005>
0

> <r_mmod_RMS_Derivative-OPLS-2005>
4.21422338485718

$$$$
45
                    3D
 Structure written by MMmdl.
173182  0  0  1  0            999 V2000
  -30.7101  -14.4282   20.6015 C   0  0  0  0  0  0
  -30.4298  -12.2915   19.4079 C   0  0  0  0  0  0
  -29.4935  -12.5005   18.2001 C   0  0  0  0  0  0
  -28.0142  -12.3744   18.6140 C   0  0  0  0  0  0
  -27.6674  -13.2003   19.8812 C   0  0  2  0  0  0
  -28.7086  -12.9455   20.9945 C   0  0  0  0  0  0
  -25.2630  -13.8147   20.5684 C   0  0  0  0  0  0
  -24.1875  -13.0442   20.9193 C   0  0  0  0  0  0
  -24.6425  -11.6904   20.8747 C   0  0  0  0  0  0
  -23.9080  -10.4308   21.0423 C   0  0  0  0  0  0
  -24.3627   -9.4221   21.9204 C   0  0  0  0  0  0
  -23.6306   -8.2240   22.0765 C   0  0  0  0  0  0
  -22.4287   -8.0289   21.3545 C   0  0  0  0  0  0
  -21.9925   -9.0263   20.4643 C   0  0  0  0  0  0
  -22.7251  -10.2149   20.3074 C   0  0  0  0  0  0
  -21.6854   -6.0741   22.5271 C   0  0  0  0  0  0
  -21.4005   -6.5643   23.8204 C   0  0  0  0  0  0
  -21.3662   -5.6794   24.9166 C   0  0  0  0  0  0
  -21.6061   -4.3056   24.7218 C   0  0  0  0  0  0
  -21.8827   -3.8153   23.4334 C   0  0  0  0  0  0
  -21.9202   -4.6970   22.3394 C   0  0  0  0  0  0
  -22.7890  -13.5237   21.1850 C   0  0  0  0  0  0
  -22.1669   -4.2155   21.0969 F   0  0  0  0  0  0
  -21.5636   -3.4540   25.7731 F   0  0  0  0  0  0
  -30.0460  -13.2516   20.4512 N   0  0  0  0  0  0
  -26.3065  -12.9297   20.3390 N   0  0  0  0  0  0
  -25.9344  -11.6459   20.5770 N   0  0  0  0  0  0
  -22.0524  -12.8211   22.0387 N   0  0  0  0  0  0
  -25.4372  -15.1853   20.4043 N   0  0  0  0  0  0
  -31.8182  -14.6524   20.1056 O   0  0  0  0  0  0
  -21.6648   -6.8889   21.4236 O   0  0  0  0  0  0
  -22.3574  -14.5547   20.6707 O   0  0  0  0  0  0
  -24.6097  -31.8710   23.2158 C   0  0  0  0  0  0
  -25.9033  -32.4850   23.8425 C   0  0  1  0  0  0
  -27.2632  -27.4887   20.0941 C   0  0  0  0  0  0
  -25.5940  -33.8644   24.2376 N   0  0  0  0  0  0
  -23.3957  -30.4939   21.5519 C   0  0  2  0  0  0
  -24.8480  -28.9618   20.1213 C   0  0  0  0  0  0
  -22.7370  -29.4682   22.5027 C   0  0  0  0  0  0
  -18.0258  -28.1379   22.8509 C   0  0  0  0  0  0
  -24.1481  -36.7292   23.2636 C   0  0  0  0  0  0
  -25.9158  -30.8565   21.3575 C   0  0  0  0  0  0
  -26.0004  -29.4934   20.7083 C   0  0  0  0  0  0
  -27.2064  -28.7662   20.6988 C   0  0  0  0  0  0
  -26.0849  -26.9497   19.5358 C   0  0  0  0  0  0
  -24.8795  -27.6821   19.5408 C   0  0  0  0  0  0
  -23.6064  -29.8225   20.1671 C   0  0  0  0  0  0
  -25.4101  -36.3116   24.0346 C   0  0  1  0  0  0
  -20.5836  -28.3662   23.1357 C   0  0  2  0  0  0
  -20.6760  -26.9405   22.5438 C   0  0  0  0  0  0
  -19.5745  -26.6404   21.5224 C   0  0  0  0  0  0
  -18.1913  -26.7934   22.1625 C   0  0  0  0  0  0
  -19.1499  -28.8841   23.2928 C   0  0  0  0  0  0
  -18.9431  -30.1445   23.8934 C   0  0  0  0  0  0
  -17.6439  -30.6597   24.0558 C   0  0  0  0  0  0
  -25.9029  -34.9494   23.5150 C   0  0  0  0  0  0
  -16.5337  -29.9086   23.6338 C   0  0  0  0  0  0
  -16.7248  -28.6502   23.0368 C   0  0  0  0  0  0
  -26.4493  -31.6607   25.0728 C   0  0  0  0  0  0
  -25.3783  -31.3678   26.1490 C   0  0  0  0  0  0
  -27.0343  -30.3074   24.6071 C   0  0  0  0  0  0
  -27.6082  -32.4307   25.7497 C   0  0  0  0  0  0
  -27.5572  -37.1797   24.8476 C   0  0  0  0  0  0
  -21.4102  -29.3034   22.3767 N   0  0  0  0  0  0
  -26.4284  -37.3804   23.9422 N   0  0  0  0  0  0
  -24.6572  -31.0861   22.1019 N   0  0  0  0  0  0
  -23.4162  -28.8244   23.3069 O   0  0  0  0  0  0
  -28.4042  -26.7186   20.0369 O   0  0  0  0  0  0
  -26.5559  -34.8932   22.4687 O   0  0  0  0  0  0
  -23.5312  -32.1432   23.7609 O   0  0  0  0  0  0
  -28.9077  -17.3047   20.3106 C   0  0  0  0  0  0
  -31.1427  -17.5680   21.2577 C   0  0  0  0  0  0
  -28.8812  -18.6700   19.9762 C   0  0  0  0  0  0
  -31.1094  -18.9390   20.9322 C   0  0  0  0  0  0
  -31.2486  -20.7816   17.8991 C   0  0  0  0  0  0
  -29.1335  -21.9482   18.0026 C   0  0  0  0  0  0
  -31.3599  -21.2136   16.5677 C   0  0  0  0  0  0
  -30.0427  -16.7441   20.9323 C   0  0  0  0  0  0
  -29.9873  -19.4890   20.2756 C   0  0  0  0  0  0
  -30.1116  -21.1590   18.6353 C   0  0  0  0  0  0
  -29.3429  -22.3462   16.6739 C   0  0  0  0  0  0
  -29.0222  -24.4384   15.5579 C   0  0  0  0  0  0
  -28.0999  -25.6268   15.8410 C   0  0  0  0  0  0
  -29.6731  -27.3723   19.9327 C   0  0  0  0  0  0
  -29.9590  -27.7356   18.4666 C   0  0  0  0  0  0
  -28.0770  -27.9877   16.0005 C   0  0  0  0  0  0
  -29.0038  -29.0234   16.6629 C   0  0  0  0  0  0
  -30.4323  -21.9881   15.9644 N   0  0  0  0  0  0
  -30.0170  -15.3694   21.2578 N   0  0  0  0  0  0
  -28.4338  -23.1957   16.0452 N   0  0  0  0  0  0
  -29.9636  -20.8203   19.9569 O   0  0  0  0  0  0
  -28.8273  -26.8299   15.6569 O   0  0  0  0  0  0
  -29.1107  -28.8099   18.0684 O   0  0  0  0  0  0
  -31.4677  -12.4095   19.0956 H   0  0  0  0  0  0
  -30.3463  -11.2732   19.7892 H   0  0  0  0  0  0
  -29.7212  -11.7720   17.4202 H   0  0  0  0  0  0
  -29.6726  -13.4822   17.7613 H   0  0  0  0  0  0
  -27.8089  -11.3195   18.7909 H   0  0  0  0  0  0
  -27.3698  -12.6715   17.7857 H   0  0  0  0  0  0
  -27.7233  -14.2526   19.6044 H   0  0  0  0  0  0
  -28.6776  -11.8996   21.3024 H   0  0  0  0  0  0
  -28.4657  -13.5116   21.8944 H   0  0  0  0  0  0
  -25.2772   -9.5673   22.4780 H   0  0  0  0  0  0
  -24.0014   -7.4628   22.7475 H   0  0  0  0  0  0
  -21.0864   -8.8792   19.8925 H   0  0  0  0  0  0
  -22.3732  -10.9700   19.6184 H   0  0  0  0  0  0
  -21.1972   -7.6145   23.9698 H   0  0  0  0  0  0
  -21.1482   -6.0525   25.9068 H   0  0  0  0  0  0
  -22.0607   -2.7615   23.2834 H   0  0  0  0  0  0
  -22.4116  -11.9854   22.4754 H   0  0  0  0  0  0
  -21.1133  -13.1229   22.2572 H   0  0  0  0  0  0
  -24.6729  -15.8449   20.5084 H   0  0  0  0  0  0
  -26.2806  -15.6097   20.0426 H   0  0  0  0  0  0
  -26.7118  -32.5623   23.1210 H   0  0  0  0  0  0
  -25.0162  -33.9804   25.0580 H   0  0  0  0  0  0
  -22.6798  -31.3054   21.4102 H   0  0  0  0  0  0
  -23.3765  -35.9607   23.3324 H   0  0  0  0  0  0
  -24.3560  -36.8880   22.2047 H   0  0  0  0  0  0
  -23.7205  -37.6497   23.6616 H   0  0  0  0  0  0
  -26.0122  -31.6253   20.5902 H   0  0  0  0  0  0
  -26.8060  -30.9210   21.9705 H   0  0  0  0  0  0
  -28.0729  -29.2041   21.1701 H   0  0  0  0  0  0
  -26.1068  -25.9653   19.0895 H   0  0  0  0  0  0
  -23.9860  -27.2542   19.1070 H   0  0  0  0  0  0
  -23.7113  -30.5934   19.4025 H   0  0  0  0  0  0
  -22.7331  -29.2381   19.8763 H   0  0  0  0  0  0
  -25.1266  -36.1974   25.0837 H   0  0  0  0  0  0
  -20.9917  -28.3223   24.1485 H   0  0  0  0  0  0
  -20.5709  -26.2250   23.3611 H   0  0  0  0  0  0
  -21.6630  -26.7493   22.1209 H   0  0  0  0  0  0
  -19.6918  -25.6320   21.1256 H   0  0  0  0  0  0
  -19.6708  -27.3226   20.6767 H   0  0  0  0  0  0
  -17.4194  -26.6713   21.4018 H   0  0  0  0  0  0
  -18.0297  -26.0049   22.8997 H   0  0  0  0  0  0
  -19.7900  -30.7249   24.2346 H   0  0  0  0  0  0
  -17.4980  -31.6277   24.5150 H   0  0  0  0  0  0
  -15.5334  -30.3002   23.7623 H   0  0  0  0  0  0
  -15.8645  -28.0811   22.7106 H   0  0  0  0  0  0
  -24.5963  -30.7027   25.7812 H   0  0  0  0  0  0
  -24.8975  -32.2836   26.4953 H   0  0  0  0  0  0
  -25.8162  -30.8827   27.0233 H   0  0  0  0  0  0
  -26.2890  -29.6803   24.1181 H   0  0  0  0  0  0
  -27.4213  -29.7329   25.4498 H   0  0  0  0  0  0
  -27.8666  -30.4415   23.9151 H   0  0  0  0  0  0
  -27.2726  -33.3596   26.2117 H   0  0  0  0  0  0
  -28.3895  -32.6894   25.0336 H   0  0  0  0  0  0
  -28.0759  -31.8409   26.5391 H   0  0  0  0  0  0
  -28.2604  -38.0076   24.7517 H   0  0  0  0  0  0
  -28.1048  -36.2621   24.6310 H   0  0  0  0  0  0
  -27.2288  -37.1457   25.8875 H   0  0  0  0  0  0
  -20.9255  -29.8737   21.6978 H   0  0  0  0  0  0
  -26.0186  -38.2884   24.1448 H   0  0  0  0  0  0
  -28.0541  -16.6890   20.0764 H   0  0  0  0  0  0
  -32.0084  -17.1601   21.7627 H   0  0  0  0  0  0
  -28.0103  -19.0860   19.4884 H   0  0  0  0  0  0
  -31.9480  -19.5736   21.1823 H   0  0  0  0  0  0
  -32.0284  -20.1804   18.3446 H   0  0  0  0  0  0
  -28.2587  -22.2611   18.5556 H   0  0  0  0  0  0
  -32.2218  -20.9501   15.9748 H   0  0  0  0  0  0
  -29.9827  -24.6141   16.0482 H   0  0  0  0  0  0
  -29.2228  -24.3692   14.4880 H   0  0  0  0  0  0
  -27.7577  -25.5801   16.8764 H   0  0  0  0  0  0
  -27.2222  -25.5962   15.1929 H   0  0  0  0  0  0
  -29.7988  -28.2309   20.5880 H   0  0  0  0  0  0
  -30.4206  -26.6505   20.2666 H   0  0  0  0  0  0
  -29.8280  -26.8407   17.8633 H   0  0  0  0  0  0
  -30.9999  -28.0418   18.3499 H   0  0  0  0  0  0
  -27.6495  -28.3922   15.0823 H   0  0  0  0  0  0
  -27.2379  -27.7733   16.6664 H   0  0  0  0  0  0
  -28.5507  -30.0078   16.5375 H   0  0  0  0  0  0
  -29.9771  -29.0726   16.1730 H   0  0  0  0  0  0
  -29.1316  -15.0251   21.5953 H   0  0  0  0  0  0
  -27.5833  -23.3477   16.5762 H   0  0  0  0  0  0
  1 25  1  0  0  0
  1 30  2  0  0  0
  1 89  1  0  0  0
  2  3  1  0  0  0
  2 25  1  0  0  0
  2 94  1  0  0  0
  2 95  1  0  0  0
  3  4  1  0  0  0
  3 96  1  0  0  0
  3 97  1  0  0  0
  4  5  1  0  0  0
  4 98  1  0  0  0
  4 99  1  0  0  0
  5  6  1  0  0  0
  5 26  1  0  0  0
  5100  1  0  0  0
  6 25  1  0  0  0
  6101  1  0  0  0
  6102  1  0  0  0
  7  8  2  0  0  0
  7 26  1  0  0  0
  7 29  1  0  0  0
  8  9  1  0  0  0
  8 22  1  0  0  0
  9 10  1  0  0  0
  9 27  2  0  0  0
 10 11  2  0  0  0
 10 15  1  0  0  0
 11 12  1  0  0  0
 11103  1  0  0  0
 12 13  2  0  0  0
 12104  1  0  0  0
 13 14  1  0  0  0
 13 31  1  0  0  0
 14 15  2  0  0  0
 14105  1  0  0  0
 15106  1  0  0  0
 16 17  2  0  0  0
 16 21  1  0  0  0
 16 31  1  0  0  0
 17 18  1  0  0  0
 17107  1  0  0  0
 18 19  2  0  0  0
 18108  1  0  0  0
 19 20  1  0  0  0
 19 24  1  0  0  0
 20 21  2  0  0  0
 20109  1  0  0  0
 21 23  1  0  0  0
 22 28  1  0  0  0
 22 32  2  0  0  0
 26 27  1  0  0  0
 28110  1  0  0  0
 28111  1  0  0  0
 29112  1  0  0  0
 29113  1  0  0  0
 33 34  1  0  0  0
 33 66  1  0  0  0
 33 70  2  0  0  0
 34 36  1  0  0  0
 34 59  1  0  0  0
 34114  1  0  0  0
 35 44  2  0  0  0
 35 45  1  0  0  0
 35 68  1  0  0  0
 36 56  1  0  0  0
 36115  1  0  0  0
 37 39  1  0  0  0
 37 47  1  0  0  0
 37 66  1  0  0  0
 37116  1  0  0  0
 38 43  2  0  0  0
 38 46  1  0  0  0
 38 47  1  0  0  0
 39 64  1  0  0  0
 39 67  2  0  0  0
 40 52  1  0  0  0
 40 53  2  0  0  0
 40 58  1  0  0  0
 41117  1  0  0  0
 41118  1  0  0  0
 41119  1  0  0  0
 41 48  1  0  0  0
 42 43  1  0  0  0
 42 66  1  0  0  0
 42120  1  0  0  0
 42121  1  0  0  0
 43 44  1  0  0  0
 44122  1  0  0  0
 45 46  2  0  0  0
 45123  1  0  0  0
 46124  1  0  0  0
 47125  1  0  0  0
 47126  1  0  0  0
 48 56  1  0  0  0
 48 65  1  0  0  0
 48127  1  0  0  0
 49 50  1  0  0  0
 49 53  1  0  0  0
 49 64  1  0  0  0
 49128  1  0  0  0
 50 51  1  0  0  0
 50129  1  0  0  0
 50130  1  0  0  0
 51 52  1  0  0  0
 51131  1  0  0  0
 51132  1  0  0  0
 52133  1  0  0  0
 52134  1  0  0  0
 53 54  1  0  0  0
 54 55  2  0  0  0
 54135  1  0  0  0
 55 57  1  0  0  0
 55136  1  0  0  0
 56 69  2  0  0  0
 57 58  2  0  0  0
 57137  1  0  0  0
 58138  1  0  0  0
 59 60  1  0  0  0
 59 61  1  0  0  0
 59 62  1  0  0  0
 60139  1  0  0  0
 60140  1  0  0  0
 60141  1  0  0  0
 61142  1  0  0  0
 61143  1  0  0  0
 61144  1  0  0  0
 62145  1  0  0  0
 62146  1  0  0  0
 62147  1  0  0  0
 63 65  1  0  0  0
 63148  1  0  0  0
 63149  1  0  0  0
 63150  1  0  0  0
 64151  1  0  0  0
 65152  1  0  0  0
 68 84  1  0  0  0
 71 73  2  0  0  0
 71 78  1  0  0  0
 71153  1  0  0  0
 72 74  1  0  0  0
 72 78  2  0  0  0
 72154  1  0  0  0
 73 79  1  0  0  0
 73155  1  0  0  0
 74 79  2  0  0  0
 74156  1  0  0  0
 75 77  2  0  0  0
 75 80  1  0  0  0
 75157  1  0  0  0
 76 80  2  0  0  0
 76 81  1  0  0  0
 76158  1  0  0  0
 77 88  1  0  0  0
 77159  1  0  0  0
 78 89  1  0  0  0
 79 91  1  0  0  0
 80 91  1  0  0  0
 81 88  2  0  0  0
 81 90  1  0  0  0
 82 83  1  0  0  0
 82 90  1  0  0  0
 82160  1  0  0  0
 82161  1  0  0  0
 83 92  1  0  0  0
 83162  1  0  0  0
 83163  1  0  0  0
 84 85  1  0  0  0
 84164  1  0  0  0
 84165  1  0  0  0
 85 93  1  0  0  0
 85166  1  0  0  0
 85167  1  0  0  0
 86 87  1  0  0  0
 86 92  1  0  0  0
 86168  1  0  0  0
 86169  1  0  0  0
 87 93  1  0  0  0
 87170  1  0  0  0
 87171  1  0  0  0
 89172  1  0  0  0
 90173  1  0  0  0
M  ISO  4   1 100  68 101  84 101  89 100
M  END
> <chiral flag>
0

> <version>
0

> <s_m_source_file>
/data/baiqing/PycharmProjects/Reinvent-master-3.2/result/LINK_invent/BTK/process_docking_weight1_custom_sum_contain_oxygen_bond_distance_aromatic_linkinvent_7_9_3/rearranged_h_0000.sdf

> <i_m_source_file_index>
44

> <r_mmod_Potential_Energy-OPLS-2005>
-285.331329345703

> <r_mmod_Stretch_Energy-OPLS-2005>
33.2544059753418

> <r_mmod_Bend_Energy-OPLS-2005>
100.084785461426

> <r_mmod_Torsional_Energy-OPLS-2005>
250.366104125977

> <r_mmod_Improper_Torsional_Energy-OPLS-2005>
10.2401256561279

> <r_mmod_Van_der_Waal_Energy-OPLS-2005>
169.338241577148

> <r_mmod_Electrostatic_Energy-OPLS-2005>
-596.617248535156

> <r_mmod_Solvation_Energy-OPLS-2005>
-259.587432861328

> <b_mmod_Minimization_Converged-OPLS-2005>
0

> <r_mmod_RMS_Derivative-OPLS-2005>
3.14190363883972

$$$$
46
                    3D
 Structure written by MMmdl.
190197  0  0  1  0            999 V2000
  -30.7349  -14.4001   20.6251 C   0  0  0  0  0  0
  -30.4088  -12.2801   19.4130 C   0  0  0  0  0  0
  -29.4852  -12.4993   18.1991 C   0  0  0  0  0  0
  -28.0085  -12.3599   18.6167 C   0  0  0  0  0  0
  -27.6589  -13.1979   19.8747 C   0  0  2  0  0  0
  -28.6942  -12.9638   20.9973 C   0  0  0  0  0  0
  -25.2550  -13.8105   20.5546 C   0  0  0  0  0  0
  -24.1801  -13.0429   20.9107 C   0  0  0  0  0  0
  -24.6335  -11.6882   20.8713 C   0  0  0  0  0  0
  -23.8997  -10.4270   21.0397 C   0  0  0  0  0  0
  -24.3544   -9.4180   21.9182 C   0  0  0  0  0  0
  -23.6221   -8.2215   22.0748 C   0  0  0  0  0  0
  -22.4220   -8.0233   21.3532 C   0  0  0  0  0  0
  -21.9857   -9.0206   20.4632 C   0  0  0  0  0  0
  -22.7170  -10.2092   20.3035 C   0  0  0  0  0  0
  -21.6820   -6.0678   22.5266 C   0  0  0  0  0  0
  -21.4016   -6.5600   23.8203 C   0  0  0  0  0  0
  -21.3661   -5.6761   24.9171 C   0  0  0  0  0  0
  -21.6029   -4.3020   24.7229 C   0  0  0  0  0  0
  -21.8811   -3.8096   23.4356 C   0  0  0  0  0  0
  -21.9183   -4.6908   22.3412 C   0  0  0  0  0  0
  -22.7845  -13.5249   21.1808 C   0  0  0  0  0  0
  -22.1639   -4.2075   21.0993 F   0  0  0  0  0  0
  -21.5626   -3.4518   25.7766 F   0  0  0  0  0  0
  -30.0308  -13.2528   20.4512 N   0  0  0  0  0  0
  -26.2993  -12.9264   20.3327 N   0  0  0  0  0  0
  -25.9267  -11.6445   20.5783 N   0  0  0  0  0  0
  -22.0511  -12.8269   22.0387 N   0  0  0  0  0  0
  -25.4353  -15.1794   20.3807 N   0  0  0  0  0  0
  -31.8155  -14.6153   20.0721 O   0  0  0  0  0  0
  -21.6590   -6.8824   21.4231 O   0  0  0  0  0  0
  -22.3584  -14.5583   20.6657 O   0  0  0  0  0  0
  -24.6104  -31.8673   23.2121 C   0  0  0  0  0  0
  -25.9000  -32.4810   23.8428 C   0  0  1  0  0  0
  -27.2527  -27.4534   20.0926 C   0  0  0  0  0  0
  -25.5857  -33.8610   24.2333 N   0  0  0  0  0  0
  -23.3969  -30.4900   21.5485 C   0  0  2  0  0  0
  -24.8448  -28.9467   20.1242 C   0  0  0  0  0  0
  -22.7381  -29.4651   22.4989 C   0  0  0  0  0  0
  -18.0260  -28.1372   22.8489 C   0  0  0  0  0  0
  -24.1482  -36.7341   23.2647 C   0  0  0  0  0  0
  -25.9237  -30.8317   21.3680 C   0  0  0  0  0  0
  -25.9963  -29.4630   20.7264 C   0  0  0  0  0  0
  -27.1915  -28.7167   20.7213 C   0  0  0  0  0  0
  -26.0806  -26.9499   19.4745 C   0  0  0  0  0  0
  -24.8784  -27.6840   19.5055 C   0  0  0  0  0  0
  -23.6085  -29.8150   20.1644 C   0  0  0  0  0  0
  -25.4098  -36.3109   24.0347 C   0  0  1  0  0  0
  -20.5853  -28.3646   23.1320 C   0  0  2  0  0  0
  -20.6737  -26.9380   22.5415 C   0  0  0  0  0  0
  -19.5725  -26.6373   21.5201 C   0  0  0  0  0  0
  -18.1908  -26.7908   22.1618 C   0  0  0  0  0  0
  -19.1512  -28.8829   23.2901 C   0  0  0  0  0  0
  -18.9445  -30.1432   23.8916 C   0  0  0  0  0  0
  -17.6451  -30.6579   24.0563 C   0  0  0  0  0  0
  -25.9025  -34.9462   23.5144 C   0  0  0  0  0  0
  -16.5344  -29.9078   23.6320 C   0  0  0  0  0  0
  -16.7249  -28.6495   23.0340 C   0  0  0  0  0  0
  -26.4458  -31.6597   25.0753 C   0  0  0  0  0  0
  -25.3781  -31.3670   26.1543 C   0  0  0  0  0  0
  -27.0277  -30.3038   24.6124 C   0  0  0  0  0  0
  -27.6020  -32.4337   25.7510 C   0  0  0  0  0  0
  -27.5577  -37.1817   24.8466 C   0  0  0  0  0  0
  -21.4119  -29.3015   22.3739 N   0  0  0  0  0  0
  -26.4281  -37.3795   23.9431 N   0  0  0  0  0  0
  -24.6611  -31.0799   22.1007 N   0  0  0  0  0  0
  -23.4174  -28.8186   23.3013 O   0  0  0  0  0  0
  -28.4955  -26.8453   20.0518 O   0  0  0  0  0  0
  -26.5592  -34.8887   22.4707 O   0  0  0  0  0  0
  -23.5299  -32.1400   23.7532 O   0  0  0  0  0  0
  -26.6528  -20.8286   18.0809 C   0  0  0  0  0  0
  -28.8325  -25.5194   20.0748 C   0  0  0  0  0  0
  -26.7252  -19.4321   17.4520 C   0  0  0  0  0  0
  -27.9331  -22.9038   18.5226 C   0  0  0  0  0  0
  -27.8689  -23.2189   20.0294 C   0  0  0  0  0  0
  -30.7122  -16.6661   21.6426 C   0  0  0  0  0  0
  -29.7153  -17.7861   21.3089 C   0  0  0  0  0  0
  -25.3664  -17.6029   16.8259 C   0  0  0  0  0  0
  -24.1098  -16.7911   17.1800 C   0  0  0  0  0  0
  -27.8159  -18.9822   22.0571 C   0  0  0  0  0  0
  -27.1480  -19.4288   23.3734 C   0  0  0  0  0  0
  -22.3317  -18.4131   17.3963 C   0  0  0  0  0  0
  -21.5874  -17.8728   18.6453 C   0  0  0  0  0  0
  -25.1847  -18.0726   23.7211 C   0  0  0  0  0  0
  -24.2850  -17.4863   22.6168 C   0  0  0  0  0  0
  -22.9302  -19.0480   20.2439 C   0  0  0  0  0  0
  -22.9314  -19.3104   21.7605 C   0  0  0  0  0  0
  -27.8121  -21.4822   18.2333 N   0  0  0  0  0  0
  -30.1570  -15.3319   21.3961 N   0  0  0  0  0  0
  -27.7614  -24.6604   20.2328 N   0  0  0  0  0  0
  -25.5659  -21.3320   18.3708 O   0  0  0  0  0  0
  -30.0032  -25.1571   19.9531 O   0  0  0  0  0  0
  -25.5062  -18.7290   17.6810 O   0  0  0  0  0  0
  -28.6729  -17.8602   22.2762 O   0  0  0  0  0  0
  -22.9118  -17.3531   16.6384 O   0  0  0  0  0  0
  -25.7270  -19.3265   23.3155 O   0  0  0  0  0  0
  -21.6208  -18.7315   19.7836 O   0  0  0  0  0  0
  -23.0011  -18.1107   22.5295 O   0  0  0  0  0  0
  -31.4576  -12.3612   19.1184 H   0  0  0  0  0  0
  -30.2841  -11.2658   19.7948 H   0  0  0  0  0  0
  -29.7177  -11.7780   17.4128 H   0  0  0  0  0  0
  -29.6606  -13.4875   17.7698 H   0  0  0  0  0  0
  -27.8225  -11.3027   18.8137 H   0  0  0  0  0  0
  -27.3517  -12.6262   17.7871 H   0  0  0  0  0  0
  -27.7128  -14.2467   19.5838 H   0  0  0  0  0  0
  -28.6616  -11.9263   21.3310 H   0  0  0  0  0  0
  -28.4478  -13.5543   21.8812 H   0  0  0  0  0  0
  -25.2692   -9.5612   22.4767 H   0  0  0  0  0  0
  -23.9882   -7.4599   22.7493 H   0  0  0  0  0  0
  -21.0780   -8.8704   19.8961 H   0  0  0  0  0  0
  -22.3629  -10.9599   19.6121 H   0  0  0  0  0  0
  -21.2017   -7.6108   23.9689 H   0  0  0  0  0  0
  -21.1499   -6.0504   25.9082 H   0  0  0  0  0  0
  -22.0596   -2.7551   23.2901 H   0  0  0  0  0  0
  -22.4160  -11.9951   22.4796 H   0  0  0  0  0  0
  -21.1125  -13.1294   22.2599 H   0  0  0  0  0  0
  -24.6643  -15.8304   20.4350 H   0  0  0  0  0  0
  -26.3030  -15.6049   20.0795 H   0  0  0  0  0  0
  -26.7066  -32.5511   23.1190 H   0  0  0  0  0  0
  -24.9965  -33.9800   25.0446 H   0  0  0  0  0  0
  -22.6835  -31.3059   21.4066 H   0  0  0  0  0  0
  -23.3708  -35.9717   23.3321 H   0  0  0  0  0  0
  -24.3583  -36.8950   22.2064 H   0  0  0  0  0  0
  -23.7275  -37.6565   23.6654 H   0  0  0  0  0  0
  -26.0354  -31.5884   20.5904 H   0  0  0  0  0  0
  -26.8119  -30.8906   21.9852 H   0  0  0  0  0  0
  -28.0811  -29.1204   21.1848 H   0  0  0  0  0  0
  -26.0850  -26.0139   18.9346 H   0  0  0  0  0  0
  -23.9942  -27.2846   19.0270 H   0  0  0  0  0  0
  -23.7244  -30.5857   19.4017 H   0  0  0  0  0  0
  -22.7322  -29.2356   19.8669 H   0  0  0  0  0  0
  -25.1269  -36.1987   25.0845 H   0  0  0  0  0  0
  -20.9943  -28.3194   24.1440 H   0  0  0  0  0  0
  -20.5605  -26.2257   23.3609 H   0  0  0  0  0  0
  -21.6618  -26.7393   22.1242 H   0  0  0  0  0  0
  -19.6881  -25.6285   21.1223 H   0  0  0  0  0  0
  -19.6664  -27.3189   20.6740 H   0  0  0  0  0  0
  -17.4174  -26.6647   21.4029 H   0  0  0  0  0  0
  -18.0320  -26.0059   22.9028 H   0  0  0  0  0  0
  -19.7936  -30.7237   24.2297 H   0  0  0  0  0  0
  -17.5014  -31.6268   24.5160 H   0  0  0  0  0  0
  -15.5344  -30.2993   23.7642 H   0  0  0  0  0  0
  -15.8642  -28.0826   22.7036 H   0  0  0  0  0  0
  -24.5926  -30.7031   25.7917 H   0  0  0  0  0  0
  -24.9010  -32.2804   26.5093 H   0  0  0  0  0  0
  -25.8206  -30.8790   27.0240 H   0  0  0  0  0  0
  -26.2794  -29.6796   24.1218 H   0  0  0  0  0  0
  -27.4069  -29.7279   25.4579 H   0  0  0  0  0  0
  -27.8634  -30.4343   23.9247 H   0  0  0  0  0  0
  -27.2600  -33.3592   26.2152 H   0  0  0  0  0  0
  -28.3789  -32.6981   25.0330 H   0  0  0  0  0  0
  -28.0736  -31.8450   26.5383 H   0  0  0  0  0  0
  -28.2586  -38.0105   24.7471 H   0  0  0  0  0  0
  -28.1057  -36.2631   24.6321 H   0  0  0  0  0  0
  -27.2300  -37.1531   25.8863 H   0  0  0  0  0  0
  -20.9272  -29.8770   21.7005 H   0  0  0  0  0  0
  -26.0161  -38.2883   24.1387 H   0  0  0  0  0  0
  -27.5690  -18.8727   17.8616 H   0  0  0  0  0  0
  -26.8978  -19.5706   16.3837 H   0  0  0  0  0  0
  -28.8745  -23.2610   18.1001 H   0  0  0  0  0  0
  -27.1415  -23.4439   17.9964 H   0  0  0  0  0  0
  -28.7475  -22.8253   20.5429 H   0  0  0  0  0  0
  -26.9998  -22.7418   20.4806 H   0  0  0  0  0  0
  -31.6018  -16.8367   21.0327 H   0  0  0  0  0  0
  -31.0457  -16.7357   22.6790 H   0  0  0  0  0  0
  -29.3049  -17.6712   20.3045 H   0  0  0  0  0  0
  -30.2712  -18.7258   21.3105 H   0  0  0  0  0  0
  -25.3258  -17.9129   15.7809 H   0  0  0  0  0  0
  -26.2435  -16.9621   16.9358 H   0  0  0  0  0  0
  -24.0471  -16.6112   18.2524 H   0  0  0  0  0  0
  -24.2104  -15.8077   16.7205 H   0  0  0  0  0  0
  -28.3732  -19.8334   21.6584 H   0  0  0  0  0  0
  -27.0707  -18.7305   21.2988 H   0  0  0  0  0  0
  -27.3867  -20.4796   23.5434 H   0  0  0  0  0  0
  -27.5631  -18.9070   24.2374 H   0  0  0  0  0  0
  -23.0995  -19.1451   17.6386 H   0  0  0  0  0  0
  -21.6195  -18.9489   16.7676 H   0  0  0  0  0  0
  -21.9874  -16.9085   18.9501 H   0  0  0  0  0  0
  -20.5446  -17.6788   18.3941 H   0  0  0  0  0  0
  -25.9716  -17.3533   23.9565 H   0  0  0  0  0  0
  -24.6202  -18.2036   24.6438 H   0  0  0  0  0  0
  -24.0924  -16.4403   22.8613 H   0  0  0  0  0  0
  -24.8143  -17.4809   21.6662 H   0  0  0  0  0  0
  -23.6524  -18.2787   19.9740 H   0  0  0  0  0  0
  -23.2297  -19.9587   19.7253 H   0  0  0  0  0  0
  -22.0151  -19.8370   22.0317 H   0  0  0  0  0  0
  -23.7462  -19.9831   22.0241 H   0  0  0  0  0  0
  -28.6630  -20.9931   17.9862 H   0  0  0  0  0  0
  -29.2641  -15.1147   21.8118 H   0  0  0  0  0  0
  -26.8520  -25.0880   20.3369 H   0  0  0  0  0  0
  1 25  1  0  0  0
  1 30  2  0  0  0
  1 89  1  0  0  0
  2  3  1  0  0  0
  2 25  1  0  0  0
  2 99  1  0  0  0
  2100  1  0  0  0
  3  4  1  0  0  0
  3101  1  0  0  0
  3102  1  0  0  0
  4  5  1  0  0  0
  4103  1  0  0  0
  4104  1  0  0  0
  5  6  1  0  0  0
  5 26  1  0  0  0
  5105  1  0  0  0
  6 25  1  0  0  0
  6106  1  0  0  0
  6107  1  0  0  0
  7  8  2  0  0  0
  7 26  1  0  0  0
  7 29  1  0  0  0
  8  9  1  0  0  0
  8 22  1  0  0  0
  9 10  1  0  0  0
  9 27  2  0  0  0
 10 11  2  0  0  0
 10 15  1  0  0  0
 11 12  1  0  0  0
 11108  1  0  0  0
 12 13  2  0  0  0
 12109  1  0  0  0
 13 14  1  0  0  0
 13 31  1  0  0  0
 14 15  2  0  0  0
 14110  1  0  0  0
 15111  1  0  0  0
 16 17  2  0  0  0
 16 21  1  0  0  0
 16 31  1  0  0  0
 17 18  1  0  0  0
 17112  1  0  0  0
 18 19  2  0  0  0
 18113  1  0  0  0
 19 20  1  0  0  0
 19 24  1  0  0  0
 20 21  2  0  0  0
 20114  1  0  0  0
 21 23  1  0  0  0
 22 28  1  0  0  0
 22 32  2  0  0  0
 26 27  1  0  0  0
 28115  1  0  0  0
 28116  1  0  0  0
 29117  1  0  0  0
 29118  1  0  0  0
 33 34  1  0  0  0
 33 66  1  0  0  0
 33 70  2  0  0  0
 34 36  1  0  0  0
 34 59  1  0  0  0
 34119  1  0  0  0
 35 44  2  0  0  0
 35 45  1  0  0  0
 35 68  1  0  0  0
 36 56  1  0  0  0
 36120  1  0  0  0
 37 39  1  0  0  0
 37 47  1  0  0  0
 37 66  1  0  0  0
 37121  1  0  0  0
 38 43  2  0  0  0
 38 46  1  0  0  0
 38 47  1  0  0  0
 39 64  1  0  0  0
 39 67  2  0  0  0
 40 52  1  0  0  0
 40 53  2  0  0  0
 40 58  1  0  0  0
 41122  1  0  0  0
 41123  1  0  0  0
 41124  1  0  0  0
 41 48  1  0  0  0
 42 43  1  0  0  0
 42 66  1  0  0  0
 42125  1  0  0  0
 42126  1  0  0  0
 43 44  1  0  0  0
 44127  1  0  0  0
 45 46  2  0  0  0
 45128  1  0  0  0
 46129  1  0  0  0
 47130  1  0  0  0
 47131  1  0  0  0
 48 56  1  0  0  0
 48 65  1  0  0  0
 48132  1  0  0  0
 49 50  1  0  0  0
 49 53  1  0  0  0
 49 64  1  0  0  0
 49133  1  0  0  0
 50 51  1  0  0  0
 50134  1  0  0  0
 50135  1  0  0  0
 51 52  1  0  0  0
 51136  1  0  0  0
 51137  1  0  0  0
 52138  1  0  0  0
 52139  1  0  0  0
 53 54  1  0  0  0
 54 55  2  0  0  0
 54140  1  0  0  0
 55 57  1  0  0  0
 55141  1  0  0  0
 56 69  2  0  0  0
 57 58  2  0  0  0
 57142  1  0  0  0
 58143  1  0  0  0
 59 60  1  0  0  0
 59 61  1  0  0  0
 59 62  1  0  0  0
 60144  1  0  0  0
 60145  1  0  0  0
 60146  1  0  0  0
 61147  1  0  0  0
 61148  1  0  0  0
 61149  1  0  0  0
 62150  1  0  0  0
 62151  1  0  0  0
 62152  1  0  0  0
 63 65  1  0  0  0
 63153  1  0  0  0
 63154  1  0  0  0
 63155  1  0  0  0
 64156  1  0  0  0
 65157  1  0  0  0
 68 72  1  0  0  0
 71 73  1  0  0  0
 71 88  1  0  0  0
 71 91  2  0  0  0
 72 90  1  0  0  0
 72 92  2  0  0  0
 73 93  1  0  0  0
 73158  1  0  0  0
 73159  1  0  0  0
 74 75  1  0  0  0
 74 88  1  0  0  0
 74160  1  0  0  0
 74161  1  0  0  0
 75 90  1  0  0  0
 75162  1  0  0  0
 75163  1  0  0  0
 76 77  1  0  0  0
 76 89  1  0  0  0
 76164  1  0  0  0
 76165  1  0  0  0
 77 94  1  0  0  0
 77166  1  0  0  0
 77167  1  0  0  0
 78 79  1  0  0  0
 78 93  1  0  0  0
 78168  1  0  0  0
 78169  1  0  0  0
 79 95  1  0  0  0
 79170  1  0  0  0
 79171  1  0  0  0
 80 81  1  0  0  0
 80 94  1  0  0  0
 80172  1  0  0  0
 80173  1  0  0  0
 81 96  1  0  0  0
 81174  1  0  0  0
 81175  1  0  0  0
 82 83  1  0  0  0
 82 95  1  0  0  0
 82176  1  0  0  0
 82177  1  0  0  0
 83 97  1  0  0  0
 83178  1  0  0  0
 83179  1  0  0  0
 84 85  1  0  0  0
 84 96  1  0  0  0
 84180  1  0  0  0
 84181  1  0  0  0
 85 98  1  0  0  0
 85182  1  0  0  0
 85183  1  0  0  0
 86 87  1  0  0  0
 86 97  1  0  0  0
 86184  1  0  0  0
 86185  1  0  0  0
 87 98  1  0  0  0
 87186  1  0  0  0
 87187  1  0  0  0
 88188  1  0  0  0
 89189  1  0  0  0
 90190  1  0  0  0
M  ISO  4   1 100  68 101  72 101  89 100
M  END
> <chiral flag>
0

> <version>
0

> <s_m_source_file>
/data/baiqing/PycharmProjects/Reinvent-master-3.2/result/LINK_invent/BTK/process_docking_weight1_custom_sum_contain_oxygen_bond_distance_aromatic_linkinvent_7_9_3/rearranged_h_0000.sdf

> <i_m_source_file_index>
45

> <r_mmod_Potential_Energy-OPLS-2005>
-209.915069580078

> <r_mmod_Stretch_Energy-OPLS-2005>
37.6911430358887

> <r_mmod_Bend_Energy-OPLS-2005>
140.407806396484

> <r_mmod_Torsional_Energy-OPLS-2005>
219.605346679688

> <r_mmod_Improper_Torsional_Energy-OPLS-2005>
3.10630655288696

> <r_mmod_Van_der_Waal_Energy-OPLS-2005>
125.124504089355

> <r_mmod_Electrostatic_Energy-OPLS-2005>
-454.735595703125

> <r_mmod_Solvation_Energy-OPLS-2005>
-291.554718017578

> <b_mmod_Minimization_Converged-OPLS-2005>
0

> <r_mmod_RMS_Derivative-OPLS-2005>
4.18688917160034

$$$$
47
                    3D
 Structure written by MMmdl.
214222  0  0  1  0            999 V2000
  -30.7520  -14.3693   20.6686 C   0  0  0  0  0  0
  -30.4213  -12.2786   19.4092 C   0  0  0  0  0  0
  -29.4977  -12.5257   18.2009 C   0  0  0  0  0  0
  -28.0213  -12.3613   18.6066 C   0  0  0  0  0  0
  -27.6672  -13.1932   19.8677 C   0  0  2  0  0  0
  -28.6962  -12.9449   20.9923 C   0  0  0  0  0  0
  -25.2637  -13.8160   20.5586 C   0  0  0  0  0  0
  -24.1842  -13.0436   20.9064 C   0  0  0  0  0  0
  -24.6371  -11.6903   20.8647 C   0  0  0  0  0  0
  -23.9042  -10.4280   21.0355 C   0  0  0  0  0  0
  -24.3592   -9.4219   21.9155 C   0  0  0  0  0  0
  -23.6262   -8.2273   22.0797 C   0  0  0  0  0  0
  -22.4254   -8.0273   21.3577 C   0  0  0  0  0  0
  -21.9866   -9.0236   20.4680 C   0  0  0  0  0  0
  -22.7200  -10.2108   20.3031 C   0  0  0  0  0  0
  -21.6871   -6.0710   22.5261 C   0  0  0  0  0  0
  -21.4033   -6.5633   23.8195 C   0  0  0  0  0  0
  -21.3645   -5.6784   24.9153 C   0  0  0  0  0  0
  -21.6023   -4.3047   24.7216 C   0  0  0  0  0  0
  -21.8814   -3.8131   23.4339 C   0  0  0  0  0  0
  -21.9208   -4.6947   22.3398 C   0  0  0  0  0  0
  -22.7869  -13.5268   21.1719 C   0  0  0  0  0  0
  -22.1660   -4.2126   21.0979 F   0  0  0  0  0  0
  -21.5620   -3.4528   25.7736 F   0  0  0  0  0  0
  -30.0492  -13.2260   20.4669 N   0  0  0  0  0  0
  -26.3031  -12.9282   20.3247 N   0  0  0  0  0  0
  -25.9287  -11.6458   20.5652 N   0  0  0  0  0  0
  -22.0496  -12.8292   22.0307 N   0  0  0  0  0  0
  -25.4399  -15.1859   20.4004 N   0  0  0  0  0  0
  -31.7741  -14.6695   20.0412 O   0  0  0  0  0  0
  -21.6651   -6.8847   21.4234 O   0  0  0  0  0  0
  -22.3557  -14.5569   20.6586 O   0  0  0  0  0  0
  -24.6090  -31.8685   23.2118 C   0  0  0  0  0  0
  -25.8980  -32.4843   23.8397 C   0  0  1  0  0  0
  -27.2375  -27.4621   20.1165 C   0  0  0  0  0  0
  -25.5859  -33.8645   24.2332 N   0  0  0  0  0  0
  -23.4000  -30.4902   21.5496 C   0  0  2  0  0  0
  -24.8515  -28.9636   20.1128 C   0  0  0  0  0  0
  -22.7409  -29.4646   22.4991 C   0  0  0  0  0  0
  -18.0276  -28.1356   22.8482 C   0  0  0  0  0  0
  -24.1485  -36.7354   23.2641 C   0  0  0  0  0  0
  -25.9234  -30.8511   21.3566 C   0  0  0  0  0  0
  -26.0083  -29.4882   20.7037 C   0  0  0  0  0  0
  -27.2091  -28.7472   20.6959 C   0  0  0  0  0  0
  -26.0692  -26.9487   19.5121 C   0  0  0  0  0  0
  -24.8775  -27.6954   19.5081 C   0  0  0  0  0  0
  -23.6105  -29.8211   20.1647 C   0  0  0  0  0  0
  -25.4110  -36.3147   24.0341 C   0  0  1  0  0  0
  -20.5859  -28.3636   23.1322 C   0  0  2  0  0  0
  -20.6757  -26.9370   22.5424 C   0  0  0  0  0  0
  -19.5753  -26.6375   21.5198 C   0  0  0  0  0  0
  -18.1925  -26.7912   22.1596 C   0  0  0  0  0  0
  -19.1519  -28.8809   23.2902 C   0  0  0  0  0  0
  -18.9445  -30.1424   23.8904 C   0  0  0  0  0  0
  -17.6440  -30.6556   24.0552 C   0  0  0  0  0  0
  -25.9024  -34.9501   23.5139 C   0  0  0  0  0  0
  -16.5336  -29.9059   23.6303 C   0  0  0  0  0  0
  -16.7259  -28.6482   23.0312 C   0  0  0  0  0  0
  -26.4437  -31.6583   25.0682 C   0  0  0  0  0  0
  -25.3755  -31.3668   26.1474 C   0  0  0  0  0  0
  -27.0259  -30.3021   24.6008 C   0  0  0  0  0  0
  -27.6011  -32.4294   25.7428 C   0  0  0  0  0  0
  -27.5598  -37.1829   24.8450 C   0  0  0  0  0  0
  -21.4133  -29.3015   22.3739 N   0  0  0  0  0  0
  -26.4295  -37.3832   23.9423 N   0  0  0  0  0  0
  -24.6617  -31.0835   22.0988 N   0  0  0  0  0  0
  -23.4204  -28.8170   23.2997 O   0  0  0  0  0  0
  -28.3788  -26.6998   20.1895 O   0  0  0  0  0  0
  -26.5580  -34.8948   22.4696 O   0  0  0  0  0  0
  -23.5291  -32.1396   23.7541 O   0  0  0  0  0  0
  -25.8332  -22.6193   18.7094 C   0  0  0  0  0  0
  -26.0788  -23.5848   17.7140 C   0  0  0  0  0  0
  -26.8863  -21.8094   19.1795 C   0  0  0  0  0  0
  -27.3780  -23.7553   17.1998 C   0  0  0  0  0  0
  -28.1822  -21.9654   18.6537 C   0  0  0  0  0  0
  -28.4345  -22.9495   17.6729 C   0  0  0  0  0  0
  -32.8234  -25.1032   18.4893 C   0  0  0  0  0  0
  -32.7149  -21.7625   18.9129 C   0  0  0  0  0  0
  -29.8324  -23.1144   17.1166 C   0  0  0  0  0  0
  -33.7330  -19.7887   21.2190 C   0  0  0  0  0  0
  -34.3056  -18.5477   21.9255 C   0  0  0  0  0  0
  -29.7789  -17.1517   22.9890 C   0  0  0  0  0  0
  -31.6476  -18.4920   25.8480 C   0  0  0  0  0  0
  -33.1713  -19.4593   19.8210 C   0  0  0  0  0  0
  -30.6504  -16.5509   21.8713 C   0  0  0  0  0  0
  -33.3780  -26.0819   20.7057 C   0  0  0  0  0  0
  -34.4508  -18.7261   23.4453 C   0  0  0  0  0  0
  -29.9910  -18.6553   23.2010 C   0  0  0  0  0  0
  -33.0857  -18.7977   25.4026 C   0  0  0  0  0  0
  -30.5975  -19.5196   25.3700 C   0  0  0  0  0  0
  -32.5487  -27.3812   20.7837 C   0  0  0  0  0  0
  -28.1478  -25.3974   20.7437 C   0  0  0  0  0  0
  -29.3149  -24.8865   21.6076 C   0  0  0  0  0  0
  -31.1431  -27.0552   22.7002 C   0  0  0  0  0  0
  -29.6821  -26.7727   23.0942 C   0  0  0  0  0  0
  -32.1112  -24.0028   17.6680 C   0  0  1  0  0  0
  -32.9065  -22.6505   17.6621 C   0  0  2  0  0  0
  -32.7603  -25.0782   19.8320 N   0  0  0  0  0  0
  -33.2964  -20.5576   18.8638 N   0  0  0  0  0  0
  -30.2407  -15.1778   21.6015 N   0  0  0  0  0  0
  -30.6841  -23.8726   18.0555 N   0  3  0  0  0  0
  -33.4122  -26.0092   17.8971 O   0  0  0  0  0  0
  -32.0164  -22.1392   19.8581 O   0  0  0  0  0  0
  -32.6462  -21.8735   16.4890 O   0  0  0  0  0  0
  -33.1512  -18.6307   23.9959 O   0  0  0  0  0  0
  -29.5842  -18.9662   24.5271 O   0  0  0  0  0  0
  -31.2371  -27.1559   21.2821 O   0  0  0  0  0  0
  -29.3157  -25.4031   22.9381 O   0  0  0  0  0  0
  -31.4679  -12.3736   19.1157 H   0  0  0  0  0  0
  -30.3174  -11.2548   19.7753 H   0  0  0  0  0  0
  -29.7482  -11.8462   17.3836 H   0  0  0  0  0  0
  -29.6584  -13.5362   17.8222 H   0  0  0  0  0  0
  -27.8353  -11.3027   18.7921 H   0  0  0  0  0  0
  -27.3737  -12.6443   17.7754 H   0  0  0  0  0  0
  -27.7256  -14.2440   19.5813 H   0  0  0  0  0  0
  -28.6455  -11.9066   21.3265 H   0  0  0  0  0  0
  -28.4278  -13.5374   21.8679 H   0  0  0  0  0  0
  -25.2732   -9.5719   22.4714 H   0  0  0  0  0  0
  -23.9961   -7.4698   22.7555 H   0  0  0  0  0  0
  -21.0790   -8.8737   19.8985 H   0  0  0  0  0  0
  -22.3651  -10.9630   19.6115 H   0  0  0  0  0  0
  -21.2038   -7.6145   23.9681 H   0  0  0  0  0  0
  -21.1461   -6.0531   25.9058 H   0  0  0  0  0  0
  -22.0616   -2.7604   23.2857 H   0  0  0  0  0  0
  -22.4084  -11.9919   22.4643 H   0  0  0  0  0  0
  -21.1112  -13.1357   22.2484 H   0  0  0  0  0  0
  -24.6815  -15.8491   20.5139 H   0  0  0  0  0  0
  -26.3060  -15.6224   20.1102 H   0  0  0  0  0  0
  -26.7040  -32.5591   23.1159 H   0  0  0  0  0  0
  -24.9988  -33.9818   25.0462 H   0  0  0  0  0  0
  -22.6868  -31.3049   21.4100 H   0  0  0  0  0  0
  -23.3765  -35.9664   23.3273 H   0  0  0  0  0  0
  -24.3568  -36.9017   22.2060 H   0  0  0  0  0  0
  -23.7216  -37.6541   23.6680 H   0  0  0  0  0  0
  -26.0202  -31.6203   20.5887 H   0  0  0  0  0  0
  -26.8152  -30.9112   21.9697 H   0  0  0  0  0  0
  -28.1002  -29.1480   21.1610 H   0  0  0  0  0  0
  -26.0724  -25.9662   19.0656 H   0  0  0  0  0  0
  -23.9884  -27.2853   19.0521 H   0  0  0  0  0  0
  -23.7180  -30.5937   19.4034 H   0  0  0  0  0  0
  -22.7408  -29.2341   19.8678 H   0  0  0  0  0  0
  -25.1285  -36.2008   25.0832 H   0  0  0  0  0  0
  -20.9937  -28.3176   24.1444 H   0  0  0  0  0  0
  -20.5608  -26.2232   23.3599 H   0  0  0  0  0  0
  -21.6630  -26.7385   22.1237 H   0  0  0  0  0  0
  -19.6902  -25.6290   21.1209 H   0  0  0  0  0  0
  -19.6711  -27.3198   20.6738 H   0  0  0  0  0  0
  -17.4208  -26.6673   21.3987 H   0  0  0  0  0  0
  -18.0315  -26.0039   22.8971 H   0  0  0  0  0  0
  -19.7917  -30.7248   24.2274 H   0  0  0  0  0  0
  -17.4985  -31.6236   24.5145 H   0  0  0  0  0  0
  -15.5330  -30.2951   23.7613 H   0  0  0  0  0  0
  -15.8673  -28.0813   22.6978 H   0  0  0  0  0  0
  -24.5968  -30.6931   25.7874 H   0  0  0  0  0  0
  -24.8898  -32.2802   26.4923 H   0  0  0  0  0  0
  -25.8202  -30.8913   27.0228 H   0  0  0  0  0  0
  -26.2792  -29.6784   24.1066 H   0  0  0  0  0  0
  -27.4064  -29.7203   25.4419 H   0  0  0  0  0  0
  -27.8608  -30.4366   23.9122 H   0  0  0  0  0  0
  -27.2620  -33.3598   26.1992 H   0  0  0  0  0  0
  -28.3809  -32.6838   25.0234 H   0  0  0  0  0  0
  -28.0662  -31.8423   26.5358 H   0  0  0  0  0  0
  -28.2581  -38.0165   24.7570 H   0  0  0  0  0  0
  -28.1145  -36.2711   24.6192 H   0  0  0  0  0  0
  -27.2315  -37.1356   25.8846 H   0  0  0  0  0  0
  -20.9277  -29.8776   21.7008 H   0  0  0  0  0  0
  -26.0199  -38.2903   24.1479 H   0  0  0  0  0  0
  -24.8358  -22.4956   19.1067 H   0  0  0  0  0  0
  -25.2713  -24.2010   17.3464 H   0  0  0  0  0  0
  -26.7049  -21.0606   19.9386 H   0  0  0  0  0  0
  -27.5591  -24.5049   16.4421 H   0  0  0  0  0  0
  -28.9795  -21.3249   19.0115 H   0  0  0  0  0  0
  -29.7956  -23.6146   16.1473 H   0  0  0  0  0  0
  -30.2119  -22.1068   16.9470 H   0  0  0  0  0  0
  -32.9296  -20.2180   21.8195 H   0  0  0  0  0  0
  -34.5121  -20.5497   21.1653 H   0  0  0  0  0  0
  -35.2738  -18.3035   21.4845 H   0  0  0  0  0  0
  -33.6809  -17.6756   21.7337 H   0  0  0  0  0  0
  -29.9928  -16.6355   23.9230 H   0  0  0  0  0  0
  -28.7232  -16.9637   22.7985 H   0  0  0  0  0  0
  -31.3807  -17.4849   25.5419 H   0  0  0  0  0  0
  -31.6384  -18.4804   26.9387 H   0  0  0  0  0  0
  -32.1237  -19.1524   19.9052 H   0  0  0  0  0  0
  -33.7011  -18.6089   19.3915 H   0  0  0  0  0  0
  -31.6995  -16.5703   22.1718 H   0  0  0  0  0  0
  -30.5690  -17.1361   20.9529 H   0  0  0  0  0  0
  -33.5195  -25.6532   21.6990 H   0  0  0  0  0  0
  -34.3840  -26.3251   20.3528 H   0  0  0  0  0  0
  -34.9105  -19.6850   23.6841 H   0  0  0  0  0  0
  -35.0739  -17.9312   23.8582 H   0  0  0  0  0  0
  -29.3884  -19.2185   22.4844 H   0  0  0  0  0  0
  -31.0185  -18.9518   22.9987 H   0  0  0  0  0  0
  -33.7764  -18.1160   25.9087 H   0  0  0  0  0  0
  -33.3804  -19.8090   25.6826 H   0  0  0  0  0  0
  -31.0617  -20.3780   24.8848 H   0  0  0  0  0  0
  -30.0847  -19.9065   26.2516 H   0  0  0  0  0  0
  -32.4470  -27.8085   19.7844 H   0  0  0  0  0  0
  -33.0642  -28.1342   21.3816 H   0  0  0  0  0  0
  -27.2382  -25.3547   21.3456 H   0  0  0  0  0  0
  -28.0054  -24.7088   19.9123 H   0  0  0  0  0  0
  -30.2727  -24.9953   21.1056 H   0  0  0  0  0  0
  -29.1899  -23.8109   21.7295 H   0  0  0  0  0  0
  -31.7915  -26.2767   23.1035 H   0  0  0  0  0  0
  -31.4593  -28.0033   23.1419 H   0  0  0  0  0  0
  -28.9947  -27.4381   22.5751 H   0  0  0  0  0  0
  -29.5567  -26.9978   24.1547 H   0  0  0  0  0  0
  -32.1123  -24.3879   16.6474 H   0  0  0  0  0  0
  -33.9701  -22.8892   17.6151 H   0  0  0  0  0  0
  -32.3516  -24.2772   20.2984 H   0  0  0  0  0  0
  -33.7869  -20.3600   18.0012 H   0  0  0  0  0  0
  -29.4297  -14.8323   22.0909 H   0  0  0  0  0  0
  -30.6625  -23.4130   18.9538 H   0  0  0  0  0  0
  -30.2976  -24.7994   18.1484 H   0  0  0  0  0  0
  -32.9307  -22.3624   15.7211 H   0  0  0  0  0  0
  1 25  1  0  0  0
  1 30  2  0  0  0
  1100  1  0  0  0
  2  3  1  0  0  0
  2 25  1  0  0  0
  2109  1  0  0  0
  2110  1  0  0  0
  3  4  1  0  0  0
  3111  1  0  0  0
  3112  1  0  0  0
  4  5  1  0  0  0
  4113  1  0  0  0
  4114  1  0  0  0
  5  6  1  0  0  0
  5 26  1  0  0  0
  5115  1  0  0  0
  6 25  1  0  0  0
  6116  1  0  0  0
  6117  1  0  0  0
  7  8  2  0  0  0
  7 26  1  0  0  0
  7 29  1  0  0  0
  8  9  1  0  0  0
  8 22  1  0  0  0
  9 10  1  0  0  0
  9 27  2  0  0  0
 10 11  2  0  0  0
 10 15  1  0  0  0
 11 12  1  0  0  0
 11118  1  0  0  0
 12 13  2  0  0  0
 12119  1  0  0  0
 13 14  1  0  0  0
 13 31  1  0  0  0
 14 15  2  0  0  0
 14120  1  0  0  0
 15121  1  0  0  0
 16 17  2  0  0  0
 16 21  1  0  0  0
 16 31  1  0  0  0
 17 18  1  0  0  0
 17122  1  0  0  0
 18 19  2  0  0  0
 18123  1  0  0  0
 19 20  1  0  0  0
 19 24  1  0  0  0
 20 21  2  0  0  0
 20124  1  0  0  0
 21 23  1  0  0  0
 22 28  1  0  0  0
 22 32  2  0  0  0
 26 27  1  0  0  0
 28125  1  0  0  0
 28126  1  0  0  0
 29127  1  0  0  0
 29128  1  0  0  0
 33 34  1  0  0  0
 33 66  1  0  0  0
 33 70  2  0  0  0
 34 36  1  0  0  0
 34 59  1  0  0  0
 34129  1  0  0  0
 35 44  2  0  0  0
 35 45  1  0  0  0
 35 68  1  0  0  0
 36 56  1  0  0  0
 36130  1  0  0  0
 37 39  1  0  0  0
 37 47  1  0  0  0
 37 66  1  0  0  0
 37131  1  0  0  0
 38 43  2  0  0  0
 38 46  1  0  0  0
 38 47  1  0  0  0
 39 64  1  0  0  0
 39 67  2  0  0  0
 40 52  1  0  0  0
 40 53  2  0  0  0
 40 58  1  0  0  0
 41132  1  0  0  0
 41133  1  0  0  0
 41134  1  0  0  0
 41 48  1  0  0  0
 42 43  1  0  0  0
 42 66  1  0  0  0
 42135  1  0  0  0
 42136  1  0  0  0
 43 44  1  0  0  0
 44137  1  0  0  0
 45 46  2  0  0  0
 45138  1  0  0  0
 46139  1  0  0  0
 47140  1  0  0  0
 47141  1  0  0  0
 48 56  1  0  0  0
 48 65  1  0  0  0
 48142  1  0  0  0
 49 50  1  0  0  0
 49 53  1  0  0  0
 49 64  1  0  0  0
 49143  1  0  0  0
 50 51  1  0  0  0
 50144  1  0  0  0
 50145  1  0  0  0
 51 52  1  0  0  0
 51146  1  0  0  0
 51147  1  0  0  0
 52148  1  0  0  0
 52149  1  0  0  0
 53 54  1  0  0  0
 54 55  2  0  0  0
 54150  1  0  0  0
 55 57  1  0  0  0
 55151  1  0  0  0
 56 69  2  0  0  0
 57 58  2  0  0  0
 57152  1  0  0  0
 58153  1  0  0  0
 59 60  1  0  0  0
 59 61  1  0  0  0
 59 62  1  0  0  0
 60154  1  0  0  0
 60155  1  0  0  0
 60156  1  0  0  0
 61157  1  0  0  0
 61158  1  0  0  0
 61159  1  0  0  0
 62160  1  0  0  0
 62161  1  0  0  0
 62162  1  0  0  0
 63 65  1  0  0  0
 63163  1  0  0  0
 63164  1  0  0  0
 63165  1  0  0  0
 64166  1  0  0  0
 65167  1  0  0  0
 68 92  1  0  0  0
 71 72  2  0  0  0
 71 73  1  0  0  0
 71168  1  0  0  0
 72 74  1  0  0  0
 72169  1  0  0  0
 73 75  2  0  0  0
 73170  1  0  0  0
 74 76  2  0  0  0
 74171  1  0  0  0
 75 76  1  0  0  0
 75172  1  0  0  0
 76 79  1  0  0  0
 77 96  1  0  0  0
 77 98  1  0  0  0
 77102  2  0  0  0
 78 97  1  0  0  0
 78 99  1  0  0  0
 78103  2  0  0  0
 79101  1  0  0  0
 79173  1  0  0  0
 79174  1  0  0  0
 80 81  1  0  0  0
 80 84  1  0  0  0
 80175  1  0  0  0
 80176  1  0  0  0
 81 87  1  0  0  0
 81177  1  0  0  0
 81178  1  0  0  0
 82 85  1  0  0  0
 82 88  1  0  0  0
 82179  1  0  0  0
 82180  1  0  0  0
 83 89  1  0  0  0
 83 90  1  0  0  0
 83181  1  0  0  0
 83182  1  0  0  0
 84 99  1  0  0  0
 84183  1  0  0  0
 84184  1  0  0  0
 85100  1  0  0  0
 85185  1  0  0  0
 85186  1  0  0  0
 86 91  1  0  0  0
 86 98  1  0  0  0
 86187  1  0  0  0
 86188  1  0  0  0
 87105  1  0  0  0
 87189  1  0  0  0
 87190  1  0  0  0
 88106  1  0  0  0
 88191  1  0  0  0
 88192  1  0  0  0
 89105  1  0  0  0
 89193  1  0  0  0
 89194  1  0  0  0
 90106  1  0  0  0
 90195  1  0  0  0
 90196  1  0  0  0
 91107  1  0  0  0
 91197  1  0  0  0
 91198  1  0  0  0
 92 93  1  0  0  0
 92199  1  0  0  0
 92200  1  0  0  0
 93108  1  0  0  0
 93201  1  0  0  0
 93202  1  0  0  0
 94 95  1  0  0  0
 94107  1  0  0  0
 94203  1  0  0  0
 94204  1  0  0  0
 95108  1  0  0  0
 95205  1  0  0  0
 95206  1  0  0  0
 96 97  1  0  0  0
 96101  1  0  0  0
 96207  1  0  0  0
 97104  1  0  0  0
 97208  1  0  0  0
 98209  1  0  0  0
 99210  1  0  0  0
100211  1  0  0  0
101212  1  0  0  0
101213  1  0  0  0
104214  1  0  0  0
M  CHG  1 101   1
M  ISO  4   1 100  68 101  92 101 100 100
M  END
> <chiral flag>
0

> <version>
0

> <s_m_source_file>
/data/baiqing/PycharmProjects/Reinvent-master-3.2/result/LINK_invent/BTK/process_docking_weight1_custom_sum_contain_oxygen_bond_distance_aromatic_linkinvent_7_9_3/rearranged_h_0000.sdf

> <i_m_source_file_index>
46

> <r_mmod_Potential_Energy-OPLS-2005>
-498.151031494141

> <r_mmod_Stretch_Energy-OPLS-2005>
39.430908203125

> <r_mmod_Bend_Energy-OPLS-2005>
123.738548278809

> <r_mmod_Torsional_Energy-OPLS-2005>
258.550415039062

> <r_mmod_Improper_Torsional_Energy-OPLS-2005>
2.71288776397705

> <r_mmod_Van_der_Waal_Energy-OPLS-2005>
129.729507446289

> <r_mmod_Electrostatic_Energy-OPLS-2005>
-575.84033203125

> <r_mmod_Solvation_Energy-OPLS-2005>
-486.172454833984

> <b_mmod_Minimization_Converged-OPLS-2005>
0

> <r_mmod_RMS_Derivative-OPLS-2005>
5.29562664031982

$$$$
48
                    3D
 Structure written by MMmdl.
153160  0  0  1  0            999 V2000
  -30.6759  -14.4951   20.5693 C   0  0  0  0  0  0
  -30.4277  -12.3221   19.4195 C   0  0  0  0  0  0
  -29.4921  -12.5025   18.2059 C   0  0  0  0  0  0
  -28.0152  -12.3551   18.6229 C   0  0  0  0  0  0
  -27.6590  -13.2017   19.8735 C   0  0  2  0  0  0
  -28.7011  -12.9872   20.9938 C   0  0  0  0  0  0
  -25.2584  -13.8145   20.5688 C   0  0  0  0  0  0
  -24.1831  -13.0436   20.9181 C   0  0  0  0  0  0
  -24.6373  -11.6898   20.8733 C   0  0  0  0  0  0
  -23.9036  -10.4292   21.0407 C   0  0  0  0  0  0
  -24.3596   -9.4213   21.9188 C   0  0  0  0  0  0
  -23.6283   -8.2244   22.0759 C   0  0  0  0  0  0
  -22.4267   -8.0279   21.3549 C   0  0  0  0  0  0
  -21.9894   -9.0245   20.4649 C   0  0  0  0  0  0
  -22.7209  -10.2131   20.3061 C   0  0  0  0  0  0
  -21.6852   -6.0730   22.5282 C   0  0  0  0  0  0
  -21.4010   -6.5641   23.8212 C   0  0  0  0  0  0
  -21.3660   -5.6794   24.9177 C   0  0  0  0  0  0
  -21.6042   -4.3059   24.7228 C   0  0  0  0  0  0
  -21.8819   -3.8147   23.4352 C   0  0  0  0  0  0
  -21.9193   -4.6958   22.3407 C   0  0  0  0  0  0
  -22.7857  -13.5240   21.1844 C   0  0  0  0  0  0
  -22.1663   -4.2141   21.0986 F   0  0  0  0  0  0
  -21.5629   -3.4547   25.7745 F   0  0  0  0  0  0
  -30.0263  -13.3061   20.4367 N   0  0  0  0  0  0
  -26.3007  -12.9300   20.3356 N   0  0  0  0  0  0
  -25.9296  -11.6464   20.5772 N   0  0  0  0  0  0
  -22.0500  -12.8241   22.0398 N   0  0  0  0  0  0
  -25.4332  -15.1866   20.4099 N   0  0  0  0  0  0
  -31.8110  -14.6909   20.1257 O   0  0  0  0  0  0
  -21.6643   -6.8867   21.4242 O   0  0  0  0  0  0
  -22.3552  -14.5554   20.6694 O   0  0  0  0  0  0
  -24.6163  -31.8677   23.2117 C   0  0  0  0  0  0
  -25.9048  -32.4821   23.8405 C   0  0  1  0  0  0
  -27.2312  -27.4166   20.0829 C   0  0  0  0  0  0
  -25.5892  -33.8615   24.2332 N   0  0  0  0  0  0
  -23.4025  -30.4939   21.5550 C   0  0  2  0  0  0
  -24.8440  -28.9571   20.1193 C   0  0  0  0  0  0
  -22.7409  -29.4661   22.5006 C   0  0  0  0  0  0
  -18.0267  -28.1376   22.8500 C   0  0  0  0  0  0
  -24.1484  -36.7317   23.2637 C   0  0  0  0  0  0
  -25.9339  -30.8273   21.3664 C   0  0  0  0  0  0
  -26.0082  -29.4611   20.7103 C   0  0  0  0  0  0
  -27.1999  -28.6978   20.6899 C   0  0  0  0  0  0
  -26.0334  -26.9226   19.5124 C   0  0  0  0  0  0
  -24.8514  -27.6862   19.5234 C   0  0  0  0  0  0
  -23.6102  -29.8294   20.1694 C   0  0  0  0  0  0
  -25.4109  -36.3108   24.0334 C   0  0  1  0  0  0
  -20.5857  -28.3667   23.1330 C   0  0  2  0  0  0
  -20.6763  -26.9404   22.5429 C   0  0  0  0  0  0
  -19.5741  -26.6389   21.5225 C   0  0  0  0  0  0
  -18.1919  -26.7926   22.1629 C   0  0  0  0  0  0
  -19.1516  -28.8838   23.2912 C   0  0  0  0  0  0
  -18.9446  -30.1447   23.8917 C   0  0  0  0  0  0
  -17.6448  -30.6589   24.0569 C   0  0  0  0  0  0
  -25.9032  -34.9472   23.5132 C   0  0  0  0  0  0
  -16.5340  -29.9089   23.6327 C   0  0  0  0  0  0
  -16.7254  -28.6505   23.0352 C   0  0  0  0  0  0
  -26.4482  -31.6602   25.0733 C   0  0  0  0  0  0
  -25.3740  -31.3693   26.1468 C   0  0  0  0  0  0
  -27.0323  -30.3037   24.6129 C   0  0  0  0  0  0
  -27.6059  -32.4314   25.7486 C   0  0  0  0  0  0
  -27.5582  -37.1812   24.8460 C   0  0  0  0  0  0
  -21.4133  -29.3027   22.3730 N   0  0  0  0  0  0
  -26.4297  -37.3796   23.9404 N   0  0  0  0  0  0
  -24.6698  -31.0767   22.1025 N   0  0  0  0  0  0
  -23.4180  -28.8196   23.3038 O   0  0  0  0  0  0
  -28.4313  -26.7202   20.0798 O   0  0  0  0  0  0
  -26.5604  -34.8923   22.4698 O   0  0  0  0  0  0
  -23.5354  -32.1436   23.7502 O   0  0  0  0  0  0
  -28.6866  -24.2750   20.4935 C   0  0  0  0  0  0
  -28.7569  -22.8469   19.8773 C   0  0  0  0  0  0
  -29.4946  -17.9668   20.6219 C   0  0  0  0  0  0
  -30.3553  -16.8915   21.3512 C   0  0  0  0  0  0
  -28.5622  -25.4235   19.4590 C   0  0  0  0  0  0
  -29.2341  -21.7463   20.8618 C   0  0  0  0  0  0
  -29.8091  -19.4200   21.0795 C   0  0  0  0  0  0
  -29.9411  -15.4963   21.0987 N   0  0  0  0  0  0
  -29.1332  -20.4247   20.3044 O   0  0  0  0  0  0
  -31.4688  -12.4411   19.1128 H   0  0  0  0  0  0
  -30.3484  -11.3118   19.8228 H   0  0  0  0  0  0
  -29.7356  -11.7747   17.4312 H   0  0  0  0  0  0
  -29.6490  -13.4864   17.7620 H   0  0  0  0  0  0
  -27.8336  -11.3000   18.8283 H   0  0  0  0  0  0
  -27.3599  -12.6178   17.7918 H   0  0  0  0  0  0
  -27.7020  -14.2476   19.5699 H   0  0  0  0  0  0
  -28.6861  -11.9509   21.3351 H   0  0  0  0  0  0
  -28.4590  -13.5855   21.8737 H   0  0  0  0  0  0
  -25.2736   -9.5703   22.4766 H   0  0  0  0  0  0
  -23.9995   -7.4643   22.7486 H   0  0  0  0  0  0
  -21.0822   -8.8752   19.8961 H   0  0  0  0  0  0
  -22.3653  -10.9667   19.6178 H   0  0  0  0  0  0
  -21.2007   -7.6150   23.9707 H   0  0  0  0  0  0
  -21.1483   -6.0534   25.9075 H   0  0  0  0  0  0
  -22.0600   -2.7610   23.2860 H   0  0  0  0  0  0
  -22.4110  -11.9891   22.4766 H   0  0  0  0  0  0
  -21.1128  -13.1281   22.2623 H   0  0  0  0  0  0
  -24.6684  -15.8440   20.5194 H   0  0  0  0  0  0
  -26.2862  -15.6231   20.0836 H   0  0  0  0  0  0
  -26.7113  -32.5525   23.1165 H   0  0  0  0  0  0
  -24.9992  -33.9762   25.0446 H   0  0  0  0  0  0
  -22.6911  -31.3117   21.4213 H   0  0  0  0  0  0
  -23.3742  -35.9652   23.3302 H   0  0  0  0  0  0
  -24.3568  -36.8944   22.2048 H   0  0  0  0  0  0
  -23.7244  -37.6523   23.6661 H   0  0  0  0  0  0
  -26.0487  -31.5956   20.6015 H   0  0  0  0  0  0
  -26.8203  -30.8770   21.9868 H   0  0  0  0  0  0
  -28.1003  -29.0888   21.1449 H   0  0  0  0  0  0
  -25.9613  -25.9483   19.0581 H   0  0  0  0  0  0
  -23.9504  -27.2853   19.0786 H   0  0  0  0  0  0
  -23.7245  -30.6070   19.4136 H   0  0  0  0  0  0
  -22.7310  -29.2557   19.8711 H   0  0  0  0  0  0
  -25.1302  -36.1970   25.0832 H   0  0  0  0  0  0
  -20.9957  -28.3249   24.1444 H   0  0  0  0  0  0
  -20.5703  -26.2269   23.3613 H   0  0  0  0  0  0
  -21.6636  -26.7470   22.1210 H   0  0  0  0  0  0
  -19.6897  -25.6312   21.1233 H   0  0  0  0  0  0
  -19.6680  -27.3223   20.6780 H   0  0  0  0  0  0
  -17.4199  -26.6687   21.4016 H   0  0  0  0  0  0
  -18.0291  -26.0073   22.9026 H   0  0  0  0  0  0
  -19.7927  -30.7255   24.2297 H   0  0  0  0  0  0
  -17.5007  -31.6270   24.5176 H   0  0  0  0  0  0
  -15.5341  -30.2998   23.7641 H   0  0  0  0  0  0
  -15.8654  -28.0836   22.7048 H   0  0  0  0  0  0
  -24.5916  -30.7060   25.7779 H   0  0  0  0  0  0
  -24.8931  -32.2837   26.4933 H   0  0  0  0  0  0
  -25.8078  -30.8830   27.0213 H   0  0  0  0  0  0
  -26.2883  -29.6758   24.1211 H   0  0  0  0  0  0
  -27.4121  -29.7306   25.4604 H   0  0  0  0  0  0
  -27.8706  -30.4359   23.9283 H   0  0  0  0  0  0
  -27.2709  -33.3614   26.2081 H   0  0  0  0  0  0
  -28.3844  -32.6861   25.0288 H   0  0  0  0  0  0
  -28.0751  -31.8427   26.5377 H   0  0  0  0  0  0
  -28.2607  -38.0107   24.7518 H   0  0  0  0  0  0
  -28.1077  -36.2637   24.6291 H   0  0  0  0  0  0
  -27.2283  -37.1462   25.8859 H   0  0  0  0  0  0
  -20.9281  -29.8736   21.6949 H   0  0  0  0  0  0
  -26.0183  -38.2871   24.1427 H   0  0  0  0  0  0
  -29.5852  -24.4551   21.0846 H   0  0  0  0  0  0
  -27.8500  -24.3213   21.1914 H   0  0  0  0  0  0
  -29.4282  -22.8561   19.0182 H   0  0  0  0  0  0
  -27.7726  -22.5850   19.4863 H   0  0  0  0  0  0
  -28.4353  -17.7693   20.7906 H   0  0  0  0  0  0
  -29.6532  -17.8842   19.5460 H   0  0  0  0  0  0
  -30.2877  -17.0504   22.4285 H   0  0  0  0  0  0
  -31.4069  -17.0346   21.0962 H   0  0  0  0  0  0
  -27.8063  -25.1974   18.7117 H   0  0  0  0  0  0
  -29.4890  -25.4557   18.8852 H   0  0  0  0  0  0
  -28.6437  -21.7878   21.7784 H   0  0  0  0  0  0
  -30.2685  -21.9524   21.1426 H   0  0  0  0  0  0
  -30.8827  -19.5999   21.0154 H   0  0  0  0  0  0
  -29.5351  -19.5221   22.1305 H   0  0  0  0  0  0
  -29.0107  -15.2393   21.3952 H   0  0  0  0  0  0
  1 25  1  0  0  0
  1 30  2  0  0  0
  1 78  1  0  0  0
  2  3  1  0  0  0
  2 25  1  0  0  0
  2 80  1  0  0  0
  2 81  1  0  0  0
  3  4  1  0  0  0
  3 82  1  0  0  0
  3 83  1  0  0  0
  4  5  1  0  0  0
  4 84  1  0  0  0
  4 85  1  0  0  0
  5  6  1  0  0  0
  5 26  1  0  0  0
  5 86  1  0  0  0
  6 25  1  0  0  0
  6 87  1  0  0  0
  6 88  1  0  0  0
  7  8  2  0  0  0
  7 26  1  0  0  0
  7 29  1  0  0  0
  8  9  1  0  0  0
  8 22  1  0  0  0
  9 10  1  0  0  0
  9 27  2  0  0  0
 10 11  2  0  0  0
 10 15  1  0  0  0
 11 12  1  0  0  0
 11 89  1  0  0  0
 12 13  2  0  0  0
 12 90  1  0  0  0
 13 14  1  0  0  0
 13 31  1  0  0  0
 14 15  2  0  0  0
 14 91  1  0  0  0
 15 92  1  0  0  0
 16 17  2  0  0  0
 16 21  1  0  0  0
 16 31  1  0  0  0
 17 18  1  0  0  0
 17 93  1  0  0  0
 18 19  2  0  0  0
 18 94  1  0  0  0
 19 20  1  0  0  0
 19 24  1  0  0  0
 20 21  2  0  0  0
 20 95  1  0  0  0
 21 23  1  0  0  0
 22 28  1  0  0  0
 22 32  2  0  0  0
 26 27  1  0  0  0
 28 96  1  0  0  0
 28 97  1  0  0  0
 29 98  1  0  0  0
 29 99  1  0  0  0
 33 34  1  0  0  0
 33 66  1  0  0  0
 33 70  2  0  0  0
 34 36  1  0  0  0
 34 59  1  0  0  0
 34100  1  0  0  0
 35 44  2  0  0  0
 35 45  1  0  0  0
 35 68  1  0  0  0
 36 56  1  0  0  0
 36101  1  0  0  0
 37 39  1  0  0  0
 37 47  1  0  0  0
 37 66  1  0  0  0
 37102  1  0  0  0
 38 43  2  0  0  0
 38 46  1  0  0  0
 38 47  1  0  0  0
 39 64  1  0  0  0
 39 67  2  0  0  0
 40 52  1  0  0  0
 40 53  2  0  0  0
 40 58  1  0  0  0
 41103  1  0  0  0
 41104  1  0  0  0
 41105  1  0  0  0
 41 48  1  0  0  0
 42 43  1  0  0  0
 42 66  1  0  0  0
 42106  1  0  0  0
 42107  1  0  0  0
 43 44  1  0  0  0
 44108  1  0  0  0
 45 46  2  0  0  0
 45109  1  0  0  0
 46110  1  0  0  0
 47111  1  0  0  0
 47112  1  0  0  0
 48 56  1  0  0  0
 48 65  1  0  0  0
 48113  1  0  0  0
 49 50  1  0  0  0
 49 53  1  0  0  0
 49 64  1  0  0  0
 49114  1  0  0  0
 50 51  1  0  0  0
 50115  1  0  0  0
 50116  1  0  0  0
 51 52  1  0  0  0
 51117  1  0  0  0
 51118  1  0  0  0
 52119  1  0  0  0
 52120  1  0  0  0
 53 54  1  0  0  0
 54 55  2  0  0  0
 54121  1  0  0  0
 55 57  1  0  0  0
 55122  1  0  0  0
 56 69  2  0  0  0
 57 58  2  0  0  0
 57123  1  0  0  0
 58124  1  0  0  0
 59 60  1  0  0  0
 59 61  1  0  0  0
 59 62  1  0  0  0
 60125  1  0  0  0
 60126  1  0  0  0
 60127  1  0  0  0
 61128  1  0  0  0
 61129  1  0  0  0
 61130  1  0  0  0
 62131  1  0  0  0
 62132  1  0  0  0
 62133  1  0  0  0
 63 65  1  0  0  0
 63134  1  0  0  0
 63135  1  0  0  0
 63136  1  0  0  0
 64137  1  0  0  0
 65138  1  0  0  0
 68 75  1  0  0  0
 71 72  1  0  0  0
 71 75  1  0  0  0
 71139  1  0  0  0
 71140  1  0  0  0
 72 76  1  0  0  0
 72141  1  0  0  0
 72142  1  0  0  0
 73 74  1  0  0  0
 73 77  1  0  0  0
 73143  1  0  0  0
 73144  1  0  0  0
 74 78  1  0  0  0
 74145  1  0  0  0
 74146  1  0  0  0
 75147  1  0  0  0
 75148  1  0  0  0
 76 79  1  0  0  0
 76149  1  0  0  0
 76150  1  0  0  0
 77 79  1  0  0  0
 77151  1  0  0  0
 77152  1  0  0  0
 78153  1  0  0  0
M  ISO  4   1 100  68 101  75 101  78 100
M  END
> <chiral flag>
0

> <version>
0

> <s_m_source_file>
/data/baiqing/PycharmProjects/Reinvent-master-3.2/result/LINK_invent/BTK/process_docking_weight1_custom_sum_contain_oxygen_bond_distance_aromatic_linkinvent_7_9_3/rearranged_h_0000.sdf

> <i_m_source_file_index>
47

> <r_mmod_Potential_Energy-OPLS-2005>
-88.0411529541016

> <r_mmod_Stretch_Energy-OPLS-2005>
39.4170570373535

> <r_mmod_Bend_Energy-OPLS-2005>
105.309432983398

> <r_mmod_Torsional_Energy-OPLS-2005>
188.782104492188

> <r_mmod_Improper_Torsional_Energy-OPLS-2005>
3.04530811309814

> <r_mmod_Van_der_Waal_Energy-OPLS-2005>
133.747848510742

> <r_mmod_Electrostatic_Energy-OPLS-2005>
-362.766906738281

> <r_mmod_Solvation_Energy-OPLS-2005>
-210.674331665039

> <b_mmod_Minimization_Converged-OPLS-2005>
0

> <r_mmod_RMS_Derivative-OPLS-2005>
1.50153458118439

$$$$
49
                    3D
 Structure written by MMmdl.
187196  0  0  1  0            999 V2000
  -30.7830  -14.2679   20.7558 C   0  0  0  0  0  0
  -30.4195  -12.2759   19.3450 C   0  0  0  0  0  0
  -29.4715  -12.5487   18.1647 C   0  0  0  0  0  0
  -27.9994  -12.3917   18.5895 C   0  0  0  0  0  0
  -27.6697  -13.1918   19.8745 C   0  0  2  0  0  0
  -28.7050  -12.8821   20.9745 C   0  0  0  0  0  0
  -25.2640  -13.8142   20.5656 C   0  0  0  0  0  0
  -24.1859  -13.0432   20.9145 C   0  0  0  0  0  0
  -24.6391  -11.6898   20.8699 C   0  0  0  0  0  0
  -23.9048  -10.4292   21.0394 C   0  0  0  0  0  0
  -24.3607   -9.4210   21.9172 C   0  0  0  0  0  0
  -23.6284   -8.2247   22.0755 C   0  0  0  0  0  0
  -22.4262   -8.0284   21.3551 C   0  0  0  0  0  0
  -21.9893   -9.0256   20.4647 C   0  0  0  0  0  0
  -22.7223  -10.2133   20.3048 C   0  0  0  0  0  0
  -21.6849   -6.0731   22.5279 C   0  0  0  0  0  0
  -21.4017   -6.5639   23.8210 C   0  0  0  0  0  0
  -21.3660   -5.6794   24.9178 C   0  0  0  0  0  0
  -21.6042   -4.3054   24.7231 C   0  0  0  0  0  0
  -21.8817   -3.8144   23.4351 C   0  0  0  0  0  0
  -21.9197   -4.6961   22.3404 C   0  0  0  0  0  0
  -22.7890  -13.5250   21.1822 C   0  0  0  0  0  0
  -22.1660   -4.2146   21.0979 F   0  0  0  0  0  0
  -21.5629   -3.4536   25.7743 F   0  0  0  0  0  0
  -30.0608  -13.1655   20.4536 N   0  0  0  0  0  0
  -26.3059  -12.9277   20.3334 N   0  0  0  0  0  0
  -25.9307  -11.6449   20.5704 N   0  0  0  0  0  0
  -22.0526  -12.8257   22.0389 N   0  0  0  0  0  0
  -25.4397  -15.1854   20.4081 N   0  0  0  0  0  0
  -31.7101  -14.7088   20.0648 O   0  0  0  0  0  0
  -21.6637   -6.8877   21.4241 O   0  0  0  0  0  0
  -22.3586  -14.5566   20.6685 O   0  0  0  0  0  0
  -24.6044  -31.8699   23.2135 C   0  0  0  0  0  0
  -25.8983  -32.4840   23.8415 C   0  0  1  0  0  0
  -27.2808  -27.5049   20.1252 C   0  0  0  0  0  0
  -25.5886  -33.8641   24.2372 N   0  0  0  0  0  0
  -23.3844  -30.4882   21.5512 C   0  0  2  0  0  0
  -24.8352  -28.9455   20.1246 C   0  0  0  0  0  0
  -22.7316  -29.4651   22.5042 C   0  0  0  0  0  0
  -18.0239  -28.1375   22.8503 C   0  0  0  0  0  0
  -24.1458  -36.7351   23.2648 C   0  0  0  0  0  0
  -25.8945  -30.8660   21.3415 C   0  0  0  0  0  0
  -25.9794  -29.4999   20.7009 C   0  0  0  0  0  0
  -27.1928  -28.8013   20.6772 C   0  0  0  0  0  0
  -26.1189  -26.9557   19.5369 C   0  0  0  0  0  0
  -24.8957  -27.6668   19.5355 C   0  0  0  0  0  0
  -23.5879  -29.8015   20.1706 C   0  0  0  0  0  0
  -25.4075  -36.3154   24.0349 C   0  0  1  0  0  0
  -20.5815  -28.3607   23.1391 C   0  0  2  0  0  0
  -20.6729  -26.9362   22.5448 C   0  0  0  0  0  0
  -19.5731  -26.6388   21.5223 C   0  0  0  0  0  0
  -18.1894  -26.7934   22.1620 C   0  0  0  0  0  0
  -19.1488  -28.8813   23.2961 C   0  0  0  0  0  0
  -18.9425  -30.1448   23.8938 C   0  0  0  0  0  0
  -17.6426  -30.6590   24.0568 C   0  0  0  0  0  0
  -25.9001  -34.9509   23.5162 C   0  0  0  0  0  0
  -16.5320  -29.9091   23.6352 C   0  0  0  0  0  0
  -16.7228  -28.6529   23.0333 C   0  0  0  0  0  0
  -26.4487  -31.6582   25.0712 C   0  0  0  0  0  0
  -25.3836  -31.3640   26.1528 C   0  0  0  0  0  0
  -27.0240  -30.3022   24.5997 C   0  0  0  0  0  0
  -27.6124  -32.4222   25.7445 C   0  0  0  0  0  0
  -27.5561  -37.1801   24.8438 C   0  0  0  0  0  0
  -21.4059  -29.2977   22.3794 N   0  0  0  0  0  0
  -26.4275  -37.3824   23.9404 N   0  0  0  0  0  0
  -24.6451  -31.0888   22.0955 N   0  0  0  0  0  0
  -23.4144  -28.8234   23.3065 O   0  0  0  0  0  0
  -28.4614  -26.7902   20.0679 O   0  0  0  0  0  0
  -26.5529  -34.8957   22.4701 O   0  0  0  0  0  0
  -23.5276  -32.1403   23.7621 O   0  0  0  0  0  0
  -29.1515  -16.3350   23.0754 C   0  0  0  0  0  0
  -31.3139  -17.0255   22.1669 C   0  0  0  0  0  0
  -28.9354  -17.6348   23.5578 C   0  0  0  0  0  0
  -31.1008  -18.3226   22.6690 C   0  0  0  0  0  0
  -30.3416  -16.0277   22.3871 C   0  0  0  0  0  0
  -29.9206  -18.6227   23.3899 C   0  0  0  0  0  0
  -31.5013  -27.9687   25.7695 C   0  0  0  0  0  0
  -28.4580  -24.7929   25.4685 C   0  0  0  0  0  0
  -30.4980  -24.1125   26.9334 C   0  0  0  0  0  0
  -28.4812  -26.1391   26.2130 C   0  0  0  0  0  0
  -30.3594  -25.4774   27.6172 C   0  0  0  0  0  0
  -29.2124  -23.6407   26.1950 C   0  0  2  0  0  0
  -30.3081  -27.8267   26.7144 C   0  0  0  0  0  0
  -29.5544  -22.5500   25.1559 C   0  0  0  0  0  0
  -30.3483  -21.3515   25.6994 C   0  0  0  0  0  0
  -32.5813  -29.2410   23.9491 C   0  0  0  0  0  0
  -30.8313  -20.4345   24.5783 C   0  0  0  0  0  0
  -31.8794  -29.1473   22.5848 C   0  0  0  0  0  0
  -29.3028  -26.7245   21.2392 C   0  0  0  0  0  0
  -30.0246  -28.0328   21.6578 C   0  0  0  0  0  0
  -30.5300  -14.6918   21.9957 N   0  0  0  0  0  0
  -31.6197  -29.0812   25.0412 N   0  0  0  0  0  0
  -29.8797  -26.4205   26.5924 N   0  3  2  0  0  0
  -32.2834  -27.0236   25.6503 O   0  0  0  0  0  0
  -29.6949  -19.8404   23.9722 O   0  0  0  0  0  0
  -31.2396  -27.8773   22.3873 O   0  0  0  0  0  0
  -31.4582  -12.4041   19.0346 H   0  0  0  0  0  0
  -30.3305  -11.2372   19.6671 H   0  0  0  0  0  0
  -29.6942  -11.8732   17.3369 H   0  0  0  0  0  0
  -29.6380  -13.5596   17.7884 H   0  0  0  0  0  0
  -27.8045  -11.3308   18.7512 H   0  0  0  0  0  0
  -27.3409  -12.7016   17.7771 H   0  0  0  0  0  0
  -27.7434  -14.2517   19.6312 H   0  0  0  0  0  0
  -28.6500  -11.8289   21.2548 H   0  0  0  0  0  0
  -28.4381  -13.4327   21.8765 H   0  0  0  0  0  0
  -25.2753   -9.5693   22.4739 H   0  0  0  0  0  0
  -23.9995   -7.4646   22.7474 H   0  0  0  0  0  0
  -21.0821   -8.8769   19.8960 H   0  0  0  0  0  0
  -22.3671  -10.9671   19.6156 H   0  0  0  0  0  0
  -21.2003   -7.6146   23.9719 H   0  0  0  0  0  0
  -21.1483   -6.0519   25.9080 H   0  0  0  0  0  0
  -22.0594   -2.7607   23.2852 H   0  0  0  0  0  0
  -22.4128  -11.9907   22.4770 H   0  0  0  0  0  0
  -21.1158  -13.1310   22.2605 H   0  0  0  0  0  0
  -24.6801  -15.8473   20.5221 H   0  0  0  0  0  0
  -26.3053  -15.6223   20.1151 H   0  0  0  0  0  0
  -26.7044  -32.5614   23.1175 H   0  0  0  0  0  0
  -25.0048  -33.9771   25.0533 H   0  0  0  0  0  0
  -22.6692  -31.3002   21.4152 H   0  0  0  0  0  0
  -23.3725  -35.9684   23.3303 H   0  0  0  0  0  0
  -24.3573  -36.8959   22.2069 H   0  0  0  0  0  0
  -23.7205  -37.6566   23.6627 H   0  0  0  0  0  0
  -25.9880  -31.6320   20.5701 H   0  0  0  0  0  0
  -26.7857  -30.9288   21.9530 H   0  0  0  0  0  0
  -28.0452  -29.3429   21.0369 H   0  0  0  0  0  0
  -26.1647  -25.9791   19.0748 H   0  0  0  0  0  0
  -24.0175  -27.2267   19.0855 H   0  0  0  0  0  0
  -23.6851  -30.5680   19.4019 H   0  0  0  0  0  0
  -22.7136  -29.2115   19.8889 H   0  0  0  0  0  0
  -25.1268  -36.2007   25.0852 H   0  0  0  0  0  0
  -20.9949  -28.3176   24.1496 H   0  0  0  0  0  0
  -20.5653  -26.2188   23.3599 H   0  0  0  0  0  0
  -21.6597  -26.7431   22.1222 H   0  0  0  0  0  0
  -19.6890  -25.6309   21.1239 H   0  0  0  0  0  0
  -19.6692  -27.3205   20.6761 H   0  0  0  0  0  0
  -17.4160  -26.6658   21.4015 H   0  0  0  0  0  0
  -18.0294  -26.0073   22.9016 H   0  0  0  0  0  0
  -19.7894  -30.7283   24.2277 H   0  0  0  0  0  0
  -17.4972  -31.6281   24.5158 H   0  0  0  0  0  0
  -15.5319  -30.2993   23.7694 H   0  0  0  0  0  0
  -15.8618  -28.0898   22.6977 H   0  0  0  0  0  0
  -24.5881  -30.7158   25.7839 H   0  0  0  0  0  0
  -24.9210  -32.2796   26.5207 H   0  0  0  0  0  0
  -25.8241  -30.8593   27.0140 H   0  0  0  0  0  0
  -26.2686  -29.6880   24.1061 H   0  0  0  0  0  0
  -27.4008  -29.7183   25.4414 H   0  0  0  0  0  0
  -27.8557  -30.4333   23.9062 H   0  0  0  0  0  0
  -27.2782  -33.3457   26.2169 H   0  0  0  0  0  0
  -28.3845  -32.6858   25.0211 H   0  0  0  0  0  0
  -28.0903  -31.8271   26.5239 H   0  0  0  0  0  0
  -28.2626  -38.0048   24.7476 H   0  0  0  0  0  0
  -28.0990  -36.2614   24.6211 H   0  0  0  0  0  0
  -27.2288  -37.1413   25.8839 H   0  0  0  0  0  0
  -20.9200  -29.8655   21.7002 H   0  0  0  0  0  0
  -26.0192  -38.2931   24.1352 H   0  0  0  0  0  0
  -28.3979  -15.5786   23.2490 H   0  0  0  0  0  0
  -32.2333  -16.7996   21.6436 H   0  0  0  0  0  0
  -28.0279  -17.8621   24.0984 H   0  0  0  0  0  0
  -31.8592  -19.0746   22.5069 H   0  0  0  0  0  0
  -28.8953  -24.9556   24.4815 H   0  0  0  0  0  0
  -27.4246  -24.4952   25.2799 H   0  0  0  0  0  0
  -30.7915  -23.3750   27.6816 H   0  0  0  0  0  0
  -31.3305  -24.1661   26.2284 H   0  0  0  0  0  0
  -27.8435  -26.1162   27.0973 H   0  0  0  0  0  0
  -28.0855  -26.9162   25.5596 H   0  0  0  0  0  0
  -31.3292  -25.7860   28.0094 H   0  0  0  0  0  0
  -29.6730  -25.4375   28.4636 H   0  0  0  0  0  0
  -28.5377  -23.2228   26.9454 H   0  0  0  0  0  0
  -29.5117  -28.5115   26.4215 H   0  0  0  0  0  0
  -30.5973  -28.0720   27.7368 H   0  0  0  0  0  0
  -30.1348  -23.0005   24.3482 H   0  0  0  0  0  0
  -28.6346  -22.1896   24.6913 H   0  0  0  0  0  0
  -29.7461  -20.7921   26.4151 H   0  0  0  0  0  0
  -31.2351  -21.6850   26.2348 H   0  0  0  0  0  0
  -33.0455  -30.2236   24.0461 H   0  0  0  0  0  0
  -33.3948  -28.5135   23.9930 H   0  0  0  0  0  0
  -31.4913  -19.6781   25.0081 H   0  0  0  0  0  0
  -31.4081  -20.9918   23.8391 H   0  0  0  0  0  0
  -32.6009  -29.3057   21.7810 H   0  0  0  0  0  0
  -31.1653  -29.9718   22.5243 H   0  0  0  0  0  0
  -30.0724  -25.9918   20.9969 H   0  0  0  0  0  0
  -28.7443  -26.3025   22.0756 H   0  0  0  0  0  0
  -29.3750  -28.5964   22.3274 H   0  0  0  0  0  0
  -30.2242  -28.6318   20.7666 H   0  0  0  0  0  0
  -29.9415  -14.0339   22.4852 H   0  0  0  0  0  0
  -30.9538  -29.8285   25.1914 H   0  0  0  0  0  0
  -30.4380  -26.1686   25.7860 H   0  0  0  0  0  0
  1 25  1  0  0  0
  1 30  2  0  0  0
  1 91  1  0  0  0
  2  3  1  0  0  0
  2 25  1  0  0  0
  2 97  1  0  0  0
  2 98  1  0  0  0
  3  4  1  0  0  0
  3 99  1  0  0  0
  3100  1  0  0  0
  4  5  1  0  0  0
  4101  1  0  0  0
  4102  1  0  0  0
  5  6  1  0  0  0
  5 26  1  0  0  0
  5103  1  0  0  0
  6 25  1  0  0  0
  6104  1  0  0  0
  6105  1  0  0  0
  7  8  2  0  0  0
  7 26  1  0  0  0
  7 29  1  0  0  0
  8  9  1  0  0  0
  8 22  1  0  0  0
  9 10  1  0  0  0
  9 27  2  0  0  0
 10 11  2  0  0  0
 10 15  1  0  0  0
 11 12  1  0  0  0
 11106  1  0  0  0
 12 13  2  0  0  0
 12107  1  0  0  0
 13 14  1  0  0  0
 13 31  1  0  0  0
 14 15  2  0  0  0
 14108  1  0  0  0
 15109  1  0  0  0
 16 17  2  0  0  0
 16 21  1  0  0  0
 16 31  1  0  0  0
 17 18  1  0  0  0
 17110  1  0  0  0
 18 19  2  0  0  0
 18111  1  0  0  0
 19 20  1  0  0  0
 19 24  1  0  0  0
 20 21  2  0  0  0
 20112  1  0  0  0
 21 23  1  0  0  0
 22 28  1  0  0  0
 22 32  2  0  0  0
 26 27  1  0  0  0
 28113  1  0  0  0
 28114  1  0  0  0
 29115  1  0  0  0
 29116  1  0  0  0
 33 34  1  0  0  0
 33 66  1  0  0  0
 33 70  2  0  0  0
 34 36  1  0  0  0
 34 59  1  0  0  0
 34117  1  0  0  0
 35 44  2  0  0  0
 35 45  1  0  0  0
 35 68  1  0  0  0
 36 56  1  0  0  0
 36118  1  0  0  0
 37 39  1  0  0  0
 37 47  1  0  0  0
 37 66  1  0  0  0
 37119  1  0  0  0
 38 43  2  0  0  0
 38 46  1  0  0  0
 38 47  1  0  0  0
 39 64  1  0  0  0
 39 67  2  0  0  0
 40 52  1  0  0  0
 40 53  2  0  0  0
 40 58  1  0  0  0
 41120  1  0  0  0
 41121  1  0  0  0
 41122  1  0  0  0
 41 48  1  0  0  0
 42 43  1  0  0  0
 42 66  1  0  0  0
 42123  1  0  0  0
 42124  1  0  0  0
 43 44  1  0  0  0
 44125  1  0  0  0
 45 46  2  0  0  0
 45126  1  0  0  0
 46127  1  0  0  0
 47128  1  0  0  0
 47129  1  0  0  0
 48 56  1  0  0  0
 48 65  1  0  0  0
 48130  1  0  0  0
 49 50  1  0  0  0
 49 53  1  0  0  0
 49 64  1  0  0  0
 49131  1  0  0  0
 50 51  1  0  0  0
 50132  1  0  0  0
 50133  1  0  0  0
 51 52  1  0  0  0
 51134  1  0  0  0
 51135  1  0  0  0
 52136  1  0  0  0
 52137  1  0  0  0
 53 54  1  0  0  0
 54 55  2  0  0  0
 54138  1  0  0  0
 55 57  1  0  0  0
 55139  1  0  0  0
 56 69  2  0  0  0
 57 58  2  0  0  0
 57140  1  0  0  0
 58141  1  0  0  0
 59 60  1  0  0  0
 59 61  1  0  0  0
 59 62  1  0  0  0
 60142  1  0  0  0
 60143  1  0  0  0
 60144  1  0  0  0
 61145  1  0  0  0
 61146  1  0  0  0
 61147  1  0  0  0
 62148  1  0  0  0
 62149  1  0  0  0
 62150  1  0  0  0
 63 65  1  0  0  0
 63151  1  0  0  0
 63152  1  0  0  0
 63153  1  0  0  0
 64154  1  0  0  0
 65155  1  0  0  0
 68 89  1  0  0  0
 71 73  2  0  0  0
 71 75  1  0  0  0
 71156  1  0  0  0
 72 74  1  0  0  0
 72 75  2  0  0  0
 72157  1  0  0  0
 73 76  1  0  0  0
 73158  1  0  0  0
 74 76  2  0  0  0
 74159  1  0  0  0
 75 91  1  0  0  0
 76 95  1  0  0  0
 77 83  1  0  0  0
 77 92  1  0  0  0
 77 94  2  0  0  0
 78 80  1  0  0  0
 78 82  1  0  0  0
 78160  1  0  0  0
 78161  1  0  0  0
 79 81  1  0  0  0
 79 82  1  0  0  0
 79162  1  0  0  0
 79163  1  0  0  0
 80 93  1  0  0  0
 80164  1  0  0  0
 80165  1  0  0  0
 81 93  1  0  0  0
 81166  1  0  0  0
 81167  1  0  0  0
 82 84  1  0  0  0
 82168  1  0  0  0
 83169  1  0  0  0
 83170  1  0  0  0
 83 93  1  0  0  0
 84 85  1  0  0  0
 84171  1  0  0  0
 84172  1  0  0  0
 85 87  1  0  0  0
 85173  1  0  0  0
 85174  1  0  0  0
 86 88  1  0  0  0
 86 92  1  0  0  0
 86175  1  0  0  0
 86176  1  0  0  0
 87 95  1  0  0  0
 87177  1  0  0  0
 87178  1  0  0  0
 88 96  1  0  0  0
 88179  1  0  0  0
 88180  1  0  0  0
 89 90  1  0  0  0
 89181  1  0  0  0
 89182  1  0  0  0
 90 96  1  0  0  0
 90183  1  0  0  0
 90184  1  0  0  0
 91185  1  0  0  0
 92186  1  0  0  0
 93187  1  0  0  0
M  CHG  1  93   1
M  ISO  4   1 100  68 101  89 101  91 100
M  END
> <chiral flag>
0

> <version>
0

> <s_m_source_file>
/data/baiqing/PycharmProjects/Reinvent-master-3.2/result/LINK_invent/BTK/process_docking_weight1_custom_sum_contain_oxygen_bond_distance_aromatic_linkinvent_7_9_3/rearranged_h_0000.sdf

> <i_m_source_file_index>
48

> <r_mmod_Potential_Energy-OPLS-2005>
-226.3544921875

> <r_mmod_Stretch_Energy-OPLS-2005>
36.334300994873

> <r_mmod_Bend_Energy-OPLS-2005>
135.732955932617

> <r_mmod_Torsional_Energy-OPLS-2005>
318.458923339844

> <r_mmod_Improper_Torsional_Energy-OPLS-2005>
8.27420520782471

> <r_mmod_Van_der_Waal_Energy-OPLS-2005>
169.361328125

> <r_mmod_Electrostatic_Energy-OPLS-2005>
-453.642211914062

> <r_mmod_Solvation_Energy-OPLS-2005>
-451.214263916016

> <b_mmod_Minimization_Converged-OPLS-2005>
0

> <r_mmod_RMS_Derivative-OPLS-2005>
3.12305068969727

$$$$
50
                    3D
 Structure written by MMmdl.
166175  0  0  1  0            999 V2000
  -30.7135  -14.4991   20.4508 C   0  0  0  0  0  0
  -30.3936  -12.2794   19.4738 C   0  0  0  0  0  0
  -29.5030  -12.4640   18.2284 C   0  0  0  0  0  0
  -28.0183  -12.3410   18.6195 C   0  0  0  0  0  0
  -27.6460  -13.2184   19.8468 C   0  0  2  0  0  0
  -28.6809  -13.1103   20.9903 C   0  0  0  0  0  0
  -25.2525  -13.8180   20.5621 C   0  0  0  0  0  0
  -24.1818  -13.0425   20.9166 C   0  0  0  0  0  0
  -24.6405  -11.6915   20.8702 C   0  0  0  0  0  0
  -23.9087  -10.4295   21.0386 C   0  0  0  0  0  0
  -24.3642   -9.4220   21.9164 C   0  0  0  0  0  0
  -23.6315   -8.2253   22.0760 C   0  0  0  0  0  0
  -22.4299   -8.0281   21.3552 C   0  0  0  0  0  0
  -21.9936   -9.0238   20.4629 C   0  0  0  0  0  0
  -22.7268  -10.2114   20.3027 C   0  0  0  0  0  0
  -21.6850   -6.0755   22.5286 C   0  0  0  0  0  0
  -21.4017   -6.5656   23.8226 C   0  0  0  0  0  0
  -21.3678   -5.6804   24.9176 C   0  0  0  0  0  0
  -21.6039   -4.3063   24.7222 C   0  0  0  0  0  0
  -21.8808   -3.8164   23.4339 C   0  0  0  0  0  0
  -21.9200   -4.6990   22.3401 C   0  0  0  0  0  0
  -22.7832  -13.5199   21.1821 C   0  0  0  0  0  0
  -22.1655   -4.2171   21.0973 F   0  0  0  0  0  0
  -21.5644   -3.4552   25.7742 F   0  0  0  0  0  0
  -30.0162  -13.3360   20.4251 N   0  0  0  0  0  0
  -26.2946  -12.9366   20.3209 N   0  0  0  0  0  0
  -25.9322  -11.6520   20.5696 N   0  0  0  0  0  0
  -22.0526  -12.8139   22.0384 N   0  0  0  0  0  0
  -25.4185  -15.1900   20.4052 N   0  0  0  0  0  0
  -31.9128  -14.5502   20.1710 O   0  0  0  0  0  0
  -21.6650   -6.8892   21.4243 O   0  0  0  0  0  0
  -22.3507  -14.5522   20.6722 O   0  0  0  0  0  0
  -24.6152  -31.8664   23.2094 C   0  0  0  0  0  0
  -25.9024  -32.4846   23.8391 C   0  0  1  0  0  0
  -27.2106  -27.4329   20.0858 C   0  0  0  0  0  0
  -25.5873  -33.8639   24.2320 N   0  0  0  0  0  0
  -23.4033  -30.4918   21.5501 C   0  0  2  0  0  0
  -24.8460  -28.9712   20.0943 C   0  0  0  0  0  0
  -22.7462  -29.4643   22.4987 C   0  0  0  0  0  0
  -18.0263  -28.1400   22.8476 C   0  0  0  0  0  0
  -24.1491  -36.7354   23.2641 C   0  0  0  0  0  0
  -25.9290  -30.8364   21.3584 C   0  0  0  0  0  0
  -26.0037  -29.4712   20.7049 C   0  0  0  0  0  0
  -27.1918  -28.7058   20.7007 C   0  0  0  0  0  0
  -26.0496  -26.9691   19.4292 C   0  0  0  0  0  0
  -24.8662  -27.7241   19.4478 C   0  0  0  0  0  0
  -23.6058  -29.8309   20.1613 C   0  0  0  0  0  0
  -25.4106  -36.3143   24.0342 C   0  0  1  0  0  0
  -20.5885  -28.3649   23.1325 C   0  0  2  0  0  0
  -20.6769  -26.9383   22.5425 C   0  0  0  0  0  0
  -19.5747  -26.6404   21.5228 C   0  0  0  0  0  0
  -18.1915  -26.7947   22.1619 C   0  0  0  0  0  0
  -19.1529  -28.8839   23.2883 C   0  0  0  0  0  0
  -18.9450  -30.1455   23.8860 C   0  0  0  0  0  0
  -17.6448  -30.6571   24.0563 C   0  0  0  0  0  0
  -25.9026  -34.9496   23.5144 C   0  0  0  0  0  0
  -16.5335  -29.9067   23.6357 C   0  0  0  0  0  0
  -16.7261  -28.6527   23.0318 C   0  0  0  0  0  0
  -26.4410  -31.6619   25.0708 C   0  0  0  0  0  0
  -25.3657  -31.3698   26.1442 C   0  0  0  0  0  0
  -27.0253  -30.3085   24.6045 C   0  0  0  0  0  0
  -27.6004  -32.4307   25.7452 C   0  0  0  0  0  0
  -27.5593  -37.1811   24.8453 C   0  0  0  0  0  0
  -21.4176  -29.3014   22.3733 N   0  0  0  0  0  0
  -26.4304  -37.3822   23.9409 N   0  0  0  0  0  0
  -24.6680  -31.0781   22.1000 N   0  0  0  0  0  0
  -23.4227  -28.8184   23.3017 O   0  0  0  0  0  0
  -28.3296  -26.6349   20.1305 O   0  0  0  0  0  0
  -26.5631  -34.8945   22.4724 O   0  0  0  0  0  0
  -23.5344  -32.1382   23.7502 O   0  0  0  0  0  0
  -28.6681  -18.5395   20.3946 C   0  0  0  0  0  0
  -30.9205  -19.2357   19.7999 C   0  0  0  0  0  0
  -28.3078  -19.9012   20.5646 C   0  0  0  0  0  0
  -30.5703  -20.5813   19.9946 C   0  0  0  0  0  0
  -29.9801  -18.1988   19.9862 C   0  0  0  0  0  0
  -29.2486  -20.9361   20.3446 C   0  0  0  0  0  0
  -29.5163  -23.3893   20.0837 C   0  0  0  0  0  0
  -28.2617  -25.4513   20.8433 C   0  0  0  0  0  0
  -30.8003  -25.5747   20.5560 C   0  0  0  0  0  0
  -29.8153  -24.2944   22.4740 C   0  0  0  0  0  0
  -32.1731  -24.9385   20.8548 C   0  0  0  0  0  0
  -31.2220  -23.7316   22.7863 C   0  0  0  0  0  0
  -29.5957  -24.6707   20.9716 C   0  0  0  0  0  0
  -30.4128  -16.7816   19.6096 C   0  0  0  0  0  0
  -28.8839  -22.2992   20.5710 N   0  0  0  0  0  0
  -29.9752  -15.6321   20.4255 N   0  0  0  0  0  0
  -32.2959  -24.6205   22.2947 N   0  3  0  0  0  0
  -30.0426  -23.3862   18.9668 O   0  0  0  0  0  0
  -27.2470  -25.0317   21.4108 O   0  0  0  0  0  0
  -31.4504  -12.3102   19.2028 H   0  0  0  0  0  0
  -30.2287  -11.2987   19.9247 H   0  0  0  0  0  0
  -29.7554  -11.7199   17.4721 H   0  0  0  0  0  0
  -29.6835  -13.4400   17.7734 H   0  0  0  0  0  0
  -27.8166  -11.2895   18.8301 H   0  0  0  0  0  0
  -27.3880  -12.6031   17.7684 H   0  0  0  0  0  0
  -27.6528  -14.2463   19.4839 H   0  0  0  0  0  0
  -28.6358  -12.1347   21.4736 H   0  0  0  0  0  0
  -28.4548  -13.8460   21.7648 H   0  0  0  0  0  0
  -25.2795   -9.5691   22.4723 H   0  0  0  0  0  0
  -24.0040   -7.4641   22.7485 H   0  0  0  0  0  0
  -21.0894   -8.8728   19.8906 H   0  0  0  0  0  0
  -22.3743  -10.9632   19.6114 H   0  0  0  0  0  0
  -21.1995   -7.6158   23.9717 H   0  0  0  0  0  0
  -21.1518   -6.0542   25.9074 H   0  0  0  0  0  0
  -22.0577   -2.7626   23.2829 H   0  0  0  0  0  0
  -22.4214  -11.9795   22.4692 H   0  0  0  0  0  0
  -21.1117  -13.1075   22.2605 H   0  0  0  0  0  0
  -24.6355  -15.8290   20.4962 H   0  0  0  0  0  0
  -26.2590  -15.6382   20.0648 H   0  0  0  0  0  0
  -26.7094  -32.5560   23.1168 H   0  0  0  0  0  0
  -24.9934  -33.9766   25.0411 H   0  0  0  0  0  0
  -22.6930  -31.3080   21.4139 H   0  0  0  0  0  0
  -23.3753  -35.9692   23.3317 H   0  0  0  0  0  0
  -24.3583  -36.9004   22.2057 H   0  0  0  0  0  0
  -23.7254  -37.6557   23.6660 H   0  0  0  0  0  0
  -26.0343  -31.6009   20.5837 H   0  0  0  0  0  0
  -26.8209  -30.8989   21.9697 H   0  0  0  0  0  0
  -28.0877  -29.0728   21.1823 H   0  0  0  0  0  0
  -26.0622  -26.0153   18.9233 H   0  0  0  0  0  0
  -23.9860  -27.3540   18.9430 H   0  0  0  0  0  0
  -23.6978  -30.6024   19.3970 H   0  0  0  0  0  0
  -22.7307  -29.2420   19.8785 H   0  0  0  0  0  0
  -25.1276  -36.2010   25.0835 H   0  0  0  0  0  0
  -20.9928  -28.3217   24.1458 H   0  0  0  0  0  0
  -20.5740  -26.2220   23.3588 H   0  0  0  0  0  0
  -21.6610  -26.7480   22.1129 H   0  0  0  0  0  0
  -19.6926  -25.6340   21.1201 H   0  0  0  0  0  0
  -19.6711  -27.3239   20.6780 H   0  0  0  0  0  0
  -17.4188  -26.6717   21.3999 H   0  0  0  0  0  0
  -18.0242  -26.0093   22.9007 H   0  0  0  0  0  0
  -19.7935  -30.7291   24.2186 H   0  0  0  0  0  0
  -17.5001  -31.6238   24.5176 H   0  0  0  0  0  0
  -15.5338  -30.2921   23.7734 H   0  0  0  0  0  0
  -15.8687  -28.0860   22.6988 H   0  0  0  0  0  0
  -24.5870  -30.7012   25.7770 H   0  0  0  0  0  0
  -24.8750  -32.2823   26.4833 H   0  0  0  0  0  0
  -25.7949  -30.8918   27.0260 H   0  0  0  0  0  0
  -26.2789  -29.6841   24.1111 H   0  0  0  0  0  0
  -27.4113  -29.7306   25.4457 H   0  0  0  0  0  0
  -27.8576  -30.4476   23.9136 H   0  0  0  0  0  0
  -27.2682  -33.3648   26.1986 H   0  0  0  0  0  0
  -28.3789  -32.6817   25.0242 H   0  0  0  0  0  0
  -28.0669  -31.8450   26.5386 H   0  0  0  0  0  0
  -28.2554  -38.0152   24.7524 H   0  0  0  0  0  0
  -28.1131  -36.2682   24.6213 H   0  0  0  0  0  0
  -27.2299  -37.1378   25.8849 H   0  0  0  0  0  0
  -20.9345  -29.8710   21.6960 H   0  0  0  0  0  0
  -26.0223  -38.2920   24.1411 H   0  0  0  0  0  0
  -27.9243  -17.7730   20.5496 H   0  0  0  0  0  0
  -31.9329  -19.0120   19.4938 H   0  0  0  0  0  0
  -27.2962  -20.1463   20.8539 H   0  0  0  0  0  0
  -31.3362  -21.3367   19.8735 H   0  0  0  0  0  0
  -30.7481  -25.8107   19.4902 H   0  0  0  0  0  0
  -30.7409  -26.5365   21.0680 H   0  0  0  0  0  0
  -29.6311  -25.1705   23.0955 H   0  0  0  0  0  0
  -29.0777  -23.5662   22.8103 H   0  0  0  0  0  0
  -32.9812  -25.6061   20.5523 H   0  0  0  0  0  0
  -32.2964  -24.0265   20.2665 H   0  0  0  0  0  0
  -31.3443  -22.7391   22.3522 H   0  0  0  0  0  0
  -31.3447  -23.6029   23.8625 H   0  0  0  0  0  0
  -31.5014  -16.8078   19.5289 H   0  0  0  0  0  0
  -30.0660  -16.6111   18.5897 H   0  0  0  0  0  0
  -28.1809  -22.4617   21.2799 H   0  0  0  0  0  0
  -28.9918  -15.5544   20.6339 H   0  0  0  0  0  0
  -32.2992  -25.4743   22.8315 H   0  0  0  0  0  0
  -33.1886  -24.1763   22.4633 H   0  0  0  0  0  0
  1 25  1  0  0  0
  1 30  2  0  0  0
  1 86  1  0  0  0
  2  3  1  0  0  0
  2 25  1  0  0  0
  2 90  1  0  0  0
  2 91  1  0  0  0
  3  4  1  0  0  0
  3 92  1  0  0  0
  3 93  1  0  0  0
  4  5  1  0  0  0
  4 94  1  0  0  0
  4 95  1  0  0  0
  5  6  1  0  0  0
  5 26  1  0  0  0
  5 96  1  0  0  0
  6 25  1  0  0  0
  6 97  1  0  0  0
  6 98  1  0  0  0
  7  8  2  0  0  0
  7 26  1  0  0  0
  7 29  1  0  0  0
  8  9  1  0  0  0
  8 22  1  0  0  0
  9 10  1  0  0  0
  9 27  2  0  0  0
 10 11  2  0  0  0
 10 15  1  0  0  0
 11 12  1  0  0  0
 11 99  1  0  0  0
 12 13  2  0  0  0
 12100  1  0  0  0
 13 14  1  0  0  0
 13 31  1  0  0  0
 14 15  2  0  0  0
 14101  1  0  0  0
 15102  1  0  0  0
 16 17  2  0  0  0
 16 21  1  0  0  0
 16 31  1  0  0  0
 17 18  1  0  0  0
 17103  1  0  0  0
 18 19  2  0  0  0
 18104  1  0  0  0
 19 20  1  0  0  0
 19 24  1  0  0  0
 20 21  2  0  0  0
 20105  1  0  0  0
 21 23  1  0  0  0
 22 28  1  0  0  0
 22 32  2  0  0  0
 26 27  1  0  0  0
 28106  1  0  0  0
 28107  1  0  0  0
 29108  1  0  0  0
 29109  1  0  0  0
 33 34  1  0  0  0
 33 66  1  0  0  0
 33 70  2  0  0  0
 34 36  1  0  0  0
 34 59  1  0  0  0
 34110  1  0  0  0
 35 44  2  0  0  0
 35 45  1  0  0  0
 35 68  1  0  0  0
 36 56  1  0  0  0
 36111  1  0  0  0
 37 39  1  0  0  0
 37 47  1  0  0  0
 37 66  1  0  0  0
 37112  1  0  0  0
 38 43  2  0  0  0
 38 46  1  0  0  0
 38 47  1  0  0  0
 39 64  1  0  0  0
 39 67  2  0  0  0
 40 52  1  0  0  0
 40 53  2  0  0  0
 40 58  1  0  0  0
 41113  1  0  0  0
 41114  1  0  0  0
 41115  1  0  0  0
 41 48  1  0  0  0
 42 43  1  0  0  0
 42 66  1  0  0  0
 42116  1  0  0  0
 42117  1  0  0  0
 43 44  1  0  0  0
 44118  1  0  0  0
 45 46  2  0  0  0
 45119  1  0  0  0
 46120  1  0  0  0
 47121  1  0  0  0
 47122  1  0  0  0
 48 56  1  0  0  0
 48 65  1  0  0  0
 48123  1  0  0  0
 49 50  1  0  0  0
 49 53  1  0  0  0
 49 64  1  0  0  0
 49124  1  0  0  0
 50 51  1  0  0  0
 50125  1  0  0  0
 50126  1  0  0  0
 51 52  1  0  0  0
 51127  1  0  0  0
 51128  1  0  0  0
 52129  1  0  0  0
 52130  1  0  0  0
 53 54  1  0  0  0
 54 55  2  0  0  0
 54131  1  0  0  0
 55 57  1  0  0  0
 55132  1  0  0  0
 56 69  2  0  0  0
 57 58  2  0  0  0
 57133  1  0  0  0
 58134  1  0  0  0
 59 60  1  0  0  0
 59 61  1  0  0  0
 59 62  1  0  0  0
 60135  1  0  0  0
 60136  1  0  0  0
 60137  1  0  0  0
 61138  1  0  0  0
 61139  1  0  0  0
 61140  1  0  0  0
 62141  1  0  0  0
 62142  1  0  0  0
 62143  1  0  0  0
 63 65  1  0  0  0
 63144  1  0  0  0
 63145  1  0  0  0
 63146  1  0  0  0
 64147  1  0  0  0
 65148  1  0  0  0
 68 78  1  0  0  0
 71 73  2  0  0  0
 71 75  1  0  0  0
 71149  1  0  0  0
 72 74  1  0  0  0
 72 75  2  0  0  0
 72150  1  0  0  0
 73 76  1  0  0  0
 73151  1  0  0  0
 74 76  2  0  0  0
 74152  1  0  0  0
 75 84  1  0  0  0
 76 85  1  0  0  0
 77 85  1  0  0  0
 77 88  2  0  0  0
 77 83  1  0  0  0
 78 83  1  0  0  0
 78 89  2  0  0  0
 79 81  1  0  0  0
 79 83  1  0  0  0
 79153  1  0  0  0
 79154  1  0  0  0
 80 82  1  0  0  0
 80 83  1  0  0  0
 80155  1  0  0  0
 80156  1  0  0  0
 81 87  1  0  0  0
 81157  1  0  0  0
 81158  1  0  0  0
 82 87  1  0  0  0
 82159  1  0  0  0
 82160  1  0  0  0
 84 86  1  0  0  0
 84161  1  0  0  0
 84162  1  0  0  0
 85163  1  0  0  0
 86164  1  0  0  0
 87165  1  0  0  0
 87166  1  0  0  0
M  CHG  1  87   1
M  ISO  4   1 100  68 101  78 101  86 100
M  END
> <chiral flag>
0

> <version>
0

> <s_m_source_file>
/data/baiqing/PycharmProjects/Reinvent-master-3.2/result/LINK_invent/BTK/process_docking_weight1_custom_sum_contain_oxygen_bond_distance_aromatic_linkinvent_7_9_3/rearranged_h_0000.sdf

> <i_m_source_file_index>
49

> <r_mmod_Potential_Energy-OPLS-2005>
-215.879806518555

> <r_mmod_Stretch_Energy-OPLS-2005>
43.3692283630371

> <r_mmod_Bend_Energy-OPLS-2005>
100.671325683594

> <r_mmod_Torsional_Energy-OPLS-2005>
298.075439453125

> <r_mmod_Improper_Torsional_Energy-OPLS-2005>
12.7350921630859

> <r_mmod_Van_der_Waal_Energy-OPLS-2005>
175.729721069336

> <r_mmod_Electrostatic_Energy-OPLS-2005>
-380.4736328125

> <r_mmod_Solvation_Energy-OPLS-2005>
-495.168823242188

> <b_mmod_Minimization_Converged-OPLS-2005>
0

> <r_mmod_RMS_Derivative-OPLS-2005>
5.81450271606445

$$$$
51
                    3D
 Structure written by MMmdl.
181189  0  0  1  0            999 V2000
  -30.7954  -14.3108   20.7206 C   0  0  0  0  0  0
  -30.4123  -12.2839   19.3705 C   0  0  0  0  0  0
  -29.4656  -12.5254   18.1825 C   0  0  0  0  0  0
  -27.9906  -12.3962   18.6055 C   0  0  0  0  0  0
  -27.6634  -13.2049   19.8853 C   0  0  2  0  0  0
  -28.7042  -12.9222   20.9898 C   0  0  0  0  0  0
  -25.2542  -13.8145   20.5701 C   0  0  0  0  0  0
  -24.1780  -13.0433   20.9185 C   0  0  0  0  0  0
  -24.6350  -11.6905   20.8807 C   0  0  0  0  0  0
  -23.9038  -10.4271   21.0466 C   0  0  0  0  0  0
  -24.3558   -9.4189   21.9272 C   0  0  0  0  0  0
  -23.6260   -8.2203   22.0744 C   0  0  0  0  0  0
  -22.4237   -8.0255   21.3553 C   0  0  0  0  0  0
  -21.9905   -9.0232   20.4641 C   0  0  0  0  0  0
  -22.7246  -10.2108   20.3085 C   0  0  0  0  0  0
  -21.6846   -6.0710   22.5316 C   0  0  0  0  0  0
  -21.3992   -6.5605   23.8250 C   0  0  0  0  0  0
  -21.3643   -5.6751   24.9203 C   0  0  0  0  0  0
  -21.6016   -4.3031   24.7239 C   0  0  0  0  0  0
  -21.8800   -3.8130   23.4369 C   0  0  0  0  0  0
  -21.9191   -4.6939   22.3427 C   0  0  0  0  0  0
  -22.7785  -13.5222   21.1832 C   0  0  0  0  0  0
  -22.1660   -4.2144   21.1006 F   0  0  0  0  0  0
  -21.5625   -3.4502   25.7742 F   0  0  0  0  0  0
  -30.0570  -13.2029   20.4587 N   0  0  0  0  0  0
  -26.2994  -12.9339   20.3429 N   0  0  0  0  0  0
  -25.9271  -11.6504   20.5816 N   0  0  0  0  0  0
  -22.0375  -12.8214   22.0348 N   0  0  0  0  0  0
  -25.4281  -15.1850   20.4120 N   0  0  0  0  0  0
  -31.7495  -14.6846   20.0323 O   0  0  0  0  0  0
  -21.6605   -6.8859   21.4289 O   0  0  0  0  0  0
  -22.3473  -14.5549   20.6687 O   0  0  0  0  0  0
  -24.6149  -31.8708   23.2107 C   0  0  0  0  0  0
  -25.9056  -32.4820   23.8406 C   0  0  1  0  0  0
  -27.2366  -27.4585   20.0617 C   0  0  0  0  0  0
  -25.5914  -33.8615   24.2335 N   0  0  0  0  0  0
  -23.3992  -30.4953   21.5550 C   0  0  2  0  0  0
  -24.8393  -28.9628   20.1209 C   0  0  0  0  0  0
  -22.7403  -29.4671   22.5025 C   0  0  0  0  0  0
  -18.0282  -28.1341   22.8481 C   0  0  0  0  0  0
  -24.1489  -36.7309   23.2636 C   0  0  0  0  0  0
  -25.9277  -30.8371   21.3643 C   0  0  0  0  0  0
  -26.0007  -29.4751   20.7083 C   0  0  0  0  0  0
  -27.1979  -28.7266   20.6824 C   0  0  0  0  0  0
  -26.0439  -26.9474   19.4925 C   0  0  0  0  0  0
  -24.8533  -27.6926   19.5212 C   0  0  0  0  0  0
  -23.6032  -29.8298   20.1704 C   0  0  0  0  0  0
  -25.4107  -36.3110   24.0343 C   0  0  1  0  0  0
  -20.5869  -28.3638   23.1311 C   0  0  2  0  0  0
  -20.6794  -26.9390   22.5373 C   0  0  0  0  0  0
  -19.5753  -26.6370   21.5190 C   0  0  0  0  0  0
  -18.1946  -26.7878   22.1639 C   0  0  0  0  0  0
  -19.1526  -28.8806   23.2895 C   0  0  0  0  0  0
  -18.9439  -30.1409   23.8905 C   0  0  0  0  0  0
  -17.6434  -30.6544   24.0550 C   0  0  0  0  0  0
  -25.9038  -34.9477   23.5133 C   0  0  0  0  0  0
  -16.5334  -29.9034   23.6301 C   0  0  0  0  0  0
  -16.7265  -28.6458   23.0321 C   0  0  0  0  0  0
  -26.4479  -31.6590   25.0734 C   0  0  0  0  0  0
  -25.3750  -31.3724   26.1497 C   0  0  0  0  0  0
  -27.0281  -30.3019   24.6107 C   0  0  0  0  0  0
  -27.6084  -32.4301   25.7457 C   0  0  0  0  0  0
  -27.5590  -37.1800   24.8462 C   0  0  0  0  0  0
  -21.4148  -29.3030   22.3745 N   0  0  0  0  0  0
  -26.4293  -37.3797   23.9421 N   0  0  0  0  0  0
  -24.6651  -31.0833   22.1003 N   0  0  0  0  0  0
  -23.4188  -28.8222   23.3065 O   0  0  0  0  0  0
  -28.4456  -26.7924   20.0439 O   0  0  0  0  0  0
  -26.5598  -34.8934   22.4695 O   0  0  0  0  0  0
  -23.5353  -32.1449   23.7524 O   0  0  0  0  0  0
  -26.4953  -20.9778   20.6753 C   0  0  0  0  0  0
  -24.1886  -20.2300   20.9130 C   0  0  0  0  0  0
  -24.9321  -22.2645   22.0285 C   0  0  0  0  0  0
  -25.4881  -20.0352   20.3919 C   0  0  0  0  0  0
  -26.2200  -22.0828   21.4925 C   0  0  0  0  0  0
  -23.8960  -21.3422   21.7363 C   0  0  0  0  0  0
  -25.7893  -18.8772   19.4854 C   0  0  0  0  0  0
  -18.2807  -22.4860   20.2139 C   0  0  0  0  0  0
  -28.9054  -17.3748   20.9394 C   0  0  0  0  0  0
  -29.5973  -17.1930   22.3053 C   0  0  0  0  0  0
  -28.5241  -24.3479   20.2389 C   0  0  0  0  0  0
  -27.4939  -17.9494   21.0799 C   0  0  0  0  0  0
  -30.8395  -16.2823   22.2578 C   0  0  0  0  0  0
  -18.7185  -22.7486   21.6540 C   0  0  0  0  0  0
  -28.6011  -25.5737   19.3130 C   0  0  0  0  0  0
  -27.1425  -24.1173   20.8584 C   0  0  0  0  0  0
  -22.2260  -22.7088   22.8056 C   0  0  0  0  0  0
  -20.7013  -22.7306   22.9628 C   0  0  0  0  0  0
  -26.8460  -18.1026   19.7748 N   0  0  0  0  0  0
  -30.4437  -14.9418   21.8452 N   0  0  0  0  0  0
  -25.1021  -18.6782   18.4845 O   0  0  0  0  0  0
  -27.2074  -22.9962   21.7292 O   0  0  0  0  0  0
  -22.6058  -21.4692   22.2059 O   0  0  0  0  0  0
  -20.1349  -22.8085   21.6617 O   0  0  0  0  0  0
  -31.4482  -12.4058   19.0482 H   0  0  0  0  0  0
  -30.3307  -11.2531   19.7210 H   0  0  0  0  0  0
  -29.6733  -11.8076   17.3898 H   0  0  0  0  0  0
  -29.6427  -13.5156   17.7614 H   0  0  0  0  0  0
  -27.7735  -11.3391   18.7729 H   0  0  0  0  0  0
  -27.3406  -12.7098   17.7881 H   0  0  0  0  0  0
  -27.7275  -14.2633   19.6314 H   0  0  0  0  0  0
  -28.6478  -11.8741   21.2900 H   0  0  0  0  0  0
  -28.4477  -13.4920   21.8838 H   0  0  0  0  0  0
  -25.2614   -9.5666   22.4973 H   0  0  0  0  0  0
  -23.9968   -7.4562   22.7442 H   0  0  0  0  0  0
  -21.0834   -8.8764   19.8947 H   0  0  0  0  0  0
  -22.3722  -10.9675   19.6224 H   0  0  0  0  0  0
  -21.1962   -7.6100   23.9775 H   0  0  0  0  0  0
  -21.1490   -6.0455   25.9116 H   0  0  0  0  0  0
  -22.0590   -2.7596   23.2876 H   0  0  0  0  0  0
  -22.4033  -11.9929   22.4818 H   0  0  0  0  0  0
  -21.0970  -13.1215   22.2527 H   0  0  0  0  0  0
  -24.6801  -15.8520   20.5603 H   0  0  0  0  0  0
  -26.2931  -15.6108   20.1067 H   0  0  0  0  0  0
  -26.7125  -32.5535   23.1172 H   0  0  0  0  0  0
  -25.0082  -33.9781   25.0490 H   0  0  0  0  0  0
  -22.6872  -31.3116   21.4193 H   0  0  0  0  0  0
  -23.3754  -35.9639   23.3301 H   0  0  0  0  0  0
  -24.3588  -36.8915   22.2051 H   0  0  0  0  0  0
  -23.7237  -37.6516   23.6641 H   0  0  0  0  0  0
  -26.0535  -31.6056   20.6010 H   0  0  0  0  0  0
  -26.8113  -30.8784   21.9881 H   0  0  0  0  0  0
  -28.0995  -29.1261   21.1264 H   0  0  0  0  0  0
  -25.9958  -25.9788   19.0208 H   0  0  0  0  0  0
  -23.9537  -27.2833   19.0829 H   0  0  0  0  0  0
  -23.7159  -30.6048   19.4115 H   0  0  0  0  0  0
  -22.7251  -29.2543   19.8729 H   0  0  0  0  0  0
  -25.1278  -36.1976   25.0833 H   0  0  0  0  0  0
  -20.9956  -28.3172   24.1428 H   0  0  0  0  0  0
  -20.5767  -26.2220   23.3533 H   0  0  0  0  0  0
  -21.6648  -26.7484   22.1097 H   0  0  0  0  0  0
  -19.6945  -25.6300   21.1164 H   0  0  0  0  0  0
  -19.6659  -27.3213   20.6739 H   0  0  0  0  0  0
  -17.4200  -26.6566   21.4067 H   0  0  0  0  0  0
  -18.0406  -26.0052   22.9080 H   0  0  0  0  0  0
  -19.7904  -30.7223   24.2294 H   0  0  0  0  0  0
  -17.4973  -31.6220   24.5160 H   0  0  0  0  0  0
  -15.5323  -30.2923   23.7610 H   0  0  0  0  0  0
  -15.8677  -28.0765   22.7017 H   0  0  0  0  0  0
  -24.5899  -30.7086   25.7846 H   0  0  0  0  0  0
  -24.8975  -32.2895   26.4963 H   0  0  0  0  0  0
  -25.8121  -30.8882   27.0237 H   0  0  0  0  0  0
  -26.2798  -29.6788   24.1183 H   0  0  0  0  0  0
  -27.4050  -29.7265   25.4573 H   0  0  0  0  0  0
  -27.8655  -30.4314   23.9243 H   0  0  0  0  0  0
  -27.2721  -33.3584   26.2090 H   0  0  0  0  0  0
  -28.3841  -32.6879   25.0232 H   0  0  0  0  0  0
  -28.0803  -31.8385   26.5313 H   0  0  0  0  0  0
  -28.2613  -38.0091   24.7515 H   0  0  0  0  0  0
  -28.1081  -36.2630   24.6264 H   0  0  0  0  0  0
  -27.2327  -37.1431   25.8869 H   0  0  0  0  0  0
  -20.9304  -29.8735   21.6953 H   0  0  0  0  0  0
  -26.0189  -38.2880   24.1416 H   0  0  0  0  0  0
  -27.4849  -20.8561   20.2552 H   0  0  0  0  0  0
  -23.4072  -19.5213   20.6746 H   0  0  0  0  0  0
  -24.7623  -23.1261   22.6549 H   0  0  0  0  0  0
  -17.2059  -22.3196   20.1535 H   0  0  0  0  0  0
  -18.7752  -21.5984   19.8192 H   0  0  0  0  0  0
  -18.5282  -23.3242   19.5635 H   0  0  0  0  0  0
  -28.8336  -16.4227   20.4178 H   0  0  0  0  0  0
  -29.5140  -18.0233   20.3088 H   0  0  0  0  0  0
  -28.8856  -16.7812   23.0207 H   0  0  0  0  0  0
  -29.8794  -18.1706   22.6990 H   0  0  0  0  0  0
  -29.2665  -24.4457   21.0315 H   0  0  0  0  0  0
  -28.8049  -23.4602   19.6700 H   0  0  0  0  0  0
  -27.5555  -18.8828   21.6347 H   0  0  0  0  0  0
  -26.8744  -17.2829   21.6841 H   0  0  0  0  0  0
  -31.2955  -16.2150   23.2471 H   0  0  0  0  0  0
  -31.6044  -16.7076   21.6036 H   0  0  0  0  0  0
  -18.3612  -21.9418   22.2959 H   0  0  0  0  0  0
  -18.2900  -23.6797   22.0272 H   0  0  0  0  0  0
  -27.9396  -25.4782   18.4540 H   0  0  0  0  0  0
  -29.6006  -25.6040   18.8783 H   0  0  0  0  0  0
  -26.4066  -23.9784   20.0626 H   0  0  0  0  0  0
  -26.8279  -24.9839   21.4379 H   0  0  0  0  0  0
  -22.6971  -22.8086   23.7851 H   0  0  0  0  0  0
  -22.5324  -23.5612   22.1967 H   0  0  0  0  0  0
  -20.3907  -23.5905   23.5592 H   0  0  0  0  0  0
  -20.3653  -21.8336   23.4867 H   0  0  0  0  0  0
  -27.1001  -17.4378   19.0589 H   0  0  0  0  0  0
  -29.7364  -14.4815   22.4010 H   0  0  0  0  0  0
  1 25  1  0  0  0
  1 30  2  0  0  0
  1 90  1  0  0  0
  2  3  1  0  0  0
  2 25  1  0  0  0
  2 95  1  0  0  0
  2 96  1  0  0  0
  3  4  1  0  0  0
  3 97  1  0  0  0
  3 98  1  0  0  0
  4  5  1  0  0  0
  4 99  1  0  0  0
  4100  1  0  0  0
  5  6  1  0  0  0
  5 26  1  0  0  0
  5101  1  0  0  0
  6 25  1  0  0  0
  6102  1  0  0  0
  6103  1  0  0  0
  7  8  2  0  0  0
  7 26  1  0  0  0
  7 29  1  0  0  0
  8  9  1  0  0  0
  8 22  1  0  0  0
  9 10  1  0  0  0
  9 27  2  0  0  0
 10 11  2  0  0  0
 10 15  1  0  0  0
 11 12  1  0  0  0
 11104  1  0  0  0
 12 13  2  0  0  0
 12105  1  0  0  0
 13 14  1  0  0  0
 13 31  1  0  0  0
 14 15  2  0  0  0
 14106  1  0  0  0
 15107  1  0  0  0
 16 17  2  0  0  0
 16 21  1  0  0  0
 16 31  1  0  0  0
 17 18  1  0  0  0
 17108  1  0  0  0
 18 19  2  0  0  0
 18109  1  0  0  0
 19 20  1  0  0  0
 19 24  1  0  0  0
 20 21  2  0  0  0
 20110  1  0  0  0
 21 23  1  0  0  0
 22 28  1  0  0  0
 22 32  2  0  0  0
 26 27  1  0  0  0
 28111  1  0  0  0
 28112  1  0  0  0
 29113  1  0  0  0
 29114  1  0  0  0
 33 34  1  0  0  0
 33 66  1  0  0  0
 33 70  2  0  0  0
 34 36  1  0  0  0
 34 59  1  0  0  0
 34115  1  0  0  0
 35 44  2  0  0  0
 35 45  1  0  0  0
 35 68  1  0  0  0
 36 56  1  0  0  0
 36116  1  0  0  0
 37 39  1  0  0  0
 37 47  1  0  0  0
 37 66  1  0  0  0
 37117  1  0  0  0
 38 43  2  0  0  0
 38 46  1  0  0  0
 38 47  1  0  0  0
 39 64  1  0  0  0
 39 67  2  0  0  0
 40 52  1  0  0  0
 40 53  2  0  0  0
 40 58  1  0  0  0
 41118  1  0  0  0
 41119  1  0  0  0
 41120  1  0  0  0
 41 48  1  0  0  0
 42 43  1  0  0  0
 42 66  1  0  0  0
 42121  1  0  0  0
 42122  1  0  0  0
 43 44  1  0  0  0
 44123  1  0  0  0
 45 46  2  0  0  0
 45124  1  0  0  0
 46125  1  0  0  0
 47126  1  0  0  0
 47127  1  0  0  0
 48 56  1  0  0  0
 48 65  1  0  0  0
 48128  1  0  0  0
 49 50  1  0  0  0
 49 53  1  0  0  0
 49 64  1  0  0  0
 49129  1  0  0  0
 50 51  1  0  0  0
 50130  1  0  0  0
 50131  1  0  0  0
 51 52  1  0  0  0
 51132  1  0  0  0
 51133  1  0  0  0
 52134  1  0  0  0
 52135  1  0  0  0
 53 54  1  0  0  0
 54 55  2  0  0  0
 54136  1  0  0  0
 55 57  1  0  0  0
 55137  1  0  0  0
 56 69  2  0  0  0
 57 58  2  0  0  0
 57138  1  0  0  0
 58139  1  0  0  0
 59 60  1  0  0  0
 59 61  1  0  0  0
 59 62  1  0  0  0
 60140  1  0  0  0
 60141  1  0  0  0
 60142  1  0  0  0
 61143  1  0  0  0
 61144  1  0  0  0
 61145  1  0  0  0
 62146  1  0  0  0
 62147  1  0  0  0
 62148  1  0  0  0
 63 65  1  0  0  0
 63149  1  0  0  0
 63150  1  0  0  0
 63151  1  0  0  0
 64152  1  0  0  0
 65153  1  0  0  0
 68 85  1  0  0  0
 71 74  2  0  0  0
 71 75  1  0  0  0
 71154  1  0  0  0
 72 74  1  0  0  0
 72 76  2  0  0  0
 72155  1  0  0  0
 73 75  2  0  0  0
 73 76  1  0  0  0
 73156  1  0  0  0
 74 77  1  0  0  0
 75 92  1  0  0  0
 76 93  1  0  0  0
 77 89  1  0  0  0
 77 91  2  0  0  0
 78 84  1  0  0  0
 78157  1  0  0  0
 78158  1  0  0  0
 78159  1  0  0  0
 79 80  1  0  0  0
 79 82  1  0  0  0
 79160  1  0  0  0
 79161  1  0  0  0
 80 83  1  0  0  0
 80162  1  0  0  0
 80163  1  0  0  0
 81 85  1  0  0  0
 81 86  1  0  0  0
 81164  1  0  0  0
 81165  1  0  0  0
 82 89  1  0  0  0
 82166  1  0  0  0
 82167  1  0  0  0
 83 90  1  0  0  0
 83168  1  0  0  0
 83169  1  0  0  0
 84 94  1  0  0  0
 84170  1  0  0  0
 84171  1  0  0  0
 85172  1  0  0  0
 85173  1  0  0  0
 86 92  1  0  0  0
 86174  1  0  0  0
 86175  1  0  0  0
 87 88  1  0  0  0
 87 93  1  0  0  0
 87176  1  0  0  0
 87177  1  0  0  0
 88 94  1  0  0  0
 88178  1  0  0  0
 88179  1  0  0  0
 89180  1  0  0  0
 90181  1  0  0  0
M  ISO  4   1 100  68 101  85 101  90 100
M  END
> <chiral flag>
0

> <version>
0

> <s_m_source_file>
/data/baiqing/PycharmProjects/Reinvent-master-3.2/result/LINK_invent/BTK/process_docking_weight1_custom_sum_contain_oxygen_bond_distance_aromatic_linkinvent_7_9_3/rearranged_h_0000.sdf

> <i_m_source_file_index>
50

> <r_mmod_Potential_Energy-OPLS-2005>
-150.837219238281

> <r_mmod_Stretch_Energy-OPLS-2005>
33.5477676391602

> <r_mmod_Bend_Energy-OPLS-2005>
110.615562438965

> <r_mmod_Torsional_Energy-OPLS-2005>
267.265838623047

> <r_mmod_Improper_Torsional_Energy-OPLS-2005>
2.63426494598389

> <r_mmod_Van_der_Waal_Energy-OPLS-2005>
144.670501708984

> <r_mmod_Electrostatic_Energy-OPLS-2005>
-467.546661376953

> <r_mmod_Solvation_Energy-OPLS-2005>
-250.928955078125

> <b_mmod_Minimization_Converged-OPLS-2005>
0

> <r_mmod_RMS_Derivative-OPLS-2005>
4.25337600708008

$$$$
52
                    3D
 Structure written by MMmdl.
158165  0  0  1  0            999 V2000
  -30.7658  -14.3889   20.6360 C   0  0  0  0  0  0
  -30.4074  -12.2785   19.4144 C   0  0  0  0  0  0
  -29.4903  -12.5247   18.1997 C   0  0  0  0  0  0
  -28.0096  -12.3990   18.6040 C   0  0  0  0  0  0
  -27.6673  -13.2142   19.8803 C   0  0  2  0  0  0
  -28.7046  -12.9686   21.0009 C   0  0  0  0  0  0
  -25.2610  -13.8184   20.5647 C   0  0  0  0  0  0
  -24.1858  -13.0456   20.9146 C   0  0  0  0  0  0
  -24.6424  -11.6929   20.8746 C   0  0  0  0  0  0
  -23.9089  -10.4310   21.0422 C   0  0  0  0  0  0
  -24.3632   -9.4216   21.9193 C   0  0  0  0  0  0
  -23.6297   -8.2260   22.0762 C   0  0  0  0  0  0
  -22.4270   -8.0312   21.3575 C   0  0  0  0  0  0
  -21.9914   -9.0289   20.4670 C   0  0  0  0  0  0
  -22.7263  -10.2147   20.3065 C   0  0  0  0  0  0
  -21.6865   -6.0758   22.5298 C   0  0  0  0  0  0
  -21.4021   -6.5664   23.8236 C   0  0  0  0  0  0
  -21.3647   -5.6804   24.9185 C   0  0  0  0  0  0
  -21.6029   -4.3063   24.7226 C   0  0  0  0  0  0
  -21.8820   -3.8171   23.4356 C   0  0  0  0  0  0
  -21.9192   -4.6994   22.3407 C   0  0  0  0  0  0
  -22.7896  -13.5264   21.1841 C   0  0  0  0  0  0
  -22.1674   -4.2188   21.0981 F   0  0  0  0  0  0
  -21.5602   -3.4532   25.7736 F   0  0  0  0  0  0
  -30.0476  -13.2474   20.4604 N   0  0  0  0  0  0
  -26.3053  -12.9366   20.3350 N   0  0  0  0  0  0
  -25.9345  -11.6514   20.5746 N   0  0  0  0  0  0
  -22.0528  -12.8243   22.0385 N   0  0  0  0  0  0
  -25.4334  -15.1903   20.4105 N   0  0  0  0  0  0
  -31.8181  -14.6281   20.0402 O   0  0  0  0  0  0
  -21.6647   -6.8898   21.4256 O   0  0  0  0  0  0
  -22.3575  -14.5598   20.6747 O   0  0  0  0  0  0
  -24.6101  -31.8715   23.2139 C   0  0  0  0  0  0
  -25.9010  -32.4844   23.8419 C   0  0  1  0  0  0
  -27.2304  -27.4522   20.0946 C   0  0  0  0  0  0
  -25.5879  -33.8642   24.2359 N   0  0  0  0  0  0
  -23.3960  -30.4948   21.5544 C   0  0  2  0  0  0
  -24.8404  -28.9644   20.1208 C   0  0  0  0  0  0
  -22.7356  -29.4691   22.5019 C   0  0  0  0  0  0
  -18.0253  -28.1394   22.8486 C   0  0  0  0  0  0
  -24.1489  -36.7329   23.2643 C   0  0  0  0  0  0
  -25.9212  -30.8438   21.3623 C   0  0  0  0  0  0
  -25.9996  -29.4780   20.7130 C   0  0  0  0  0  0
  -27.1971  -28.7292   20.6948 C   0  0  0  0  0  0
  -26.0461  -26.9464   19.5050 C   0  0  0  0  0  0
  -24.8574  -27.6953   19.5186 C   0  0  0  0  0  0
  -23.6038  -29.8301   20.1683 C   0  0  0  0  0  0
  -25.4106  -36.3135   24.0358 C   0  0  1  0  0  0
  -20.5828  -28.3668   23.1298 C   0  0  2  0  0  0
  -20.6728  -26.9382   22.5424 C   0  0  0  0  0  0
  -19.5700  -26.6354   21.5215 C   0  0  0  0  0  0
  -18.1898  -26.7920   22.1655 C   0  0  0  0  0  0
  -19.1504  -28.8837   23.2895 C   0  0  0  0  0  0
  -18.9473  -30.1463   23.8858 C   0  0  0  0  0  0
  -17.6481  -30.6617   24.0554 C   0  0  0  0  0  0
  -25.9029  -34.9498   23.5147 C   0  0  0  0  0  0
  -16.5367  -29.9126   23.6339 C   0  0  0  0  0  0
  -16.7258  -28.6546   23.0341 C   0  0  0  0  0  0
  -26.4436  -31.6599   25.0716 C   0  0  0  0  0  0
  -25.3739  -31.3674   26.1494 C   0  0  0  0  0  0
  -27.0236  -30.3066   24.5996 C   0  0  0  0  0  0
  -27.6022  -32.4286   25.7473 C   0  0  0  0  0  0
  -27.5581  -37.1820   24.8466 C   0  0  0  0  0  0
  -21.4087  -29.3057   22.3715 N   0  0  0  0  0  0
  -26.4307  -37.3794   23.9404 N   0  0  0  0  0  0
  -24.6609  -31.0829   22.1033 N   0  0  0  0  0  0
  -23.4132  -28.8227   23.3053 O   0  0  0  0  0  0
  -28.4214  -26.7587   20.0955 O   0  0  0  0  0  0
  -26.5578  -34.8930   22.4697 O   0  0  0  0  0  0
  -23.5302  -32.1467   23.7550 O   0  0  0  0  0  0
  -30.8032  -16.6265   21.6666 C   0  0  0  0  0  0
  -30.0066  -17.4124   22.7233 C   0  0  0  0  0  0
  -28.3843  -25.3277   20.1107 C   0  0  0  0  0  0
  -27.9345  -24.7756   21.4773 C   0  0  0  0  0  0
  -28.1748  -18.1294   21.3338 C   0  0  0  0  0  0
  -27.1010  -19.1651   21.7100 C   0  0  0  0  0  0
  -27.4055  -22.7646   22.6157 C   0  0  0  0  0  0
  -26.7461  -21.3890   22.4286 C   0  0  0  0  0  0
  -30.2482  -15.2873   21.4780 N   0  0  0  0  0  0
  -28.6015  -17.4062   22.4848 O   0  0  0  0  0  0
  -27.5942  -23.3981   21.3515 O   0  0  0  0  0  0
  -27.7040  -20.4209   22.0108 O   0  0  0  0  0  0
  -31.4545  -12.3509   19.1182 H   0  0  0  0  0  0
  -30.2767  -11.2628   19.7914 H   0  0  0  0  0  0
  -29.7224  -11.8254   17.3950 H   0  0  0  0  0  0
  -29.6777  -13.5220   17.7984 H   0  0  0  0  0  0
  -27.7996  -11.3426   18.7700 H   0  0  0  0  0  0
  -27.3646  -12.7129   17.7823 H   0  0  0  0  0  0
  -27.7166  -14.2687   19.6085 H   0  0  0  0  0  0
  -28.6574  -11.9347   21.3434 H   0  0  0  0  0  0
  -28.4595  -13.5680   21.8779 H   0  0  0  0  0  0
  -25.2789   -9.5683   22.4748 H   0  0  0  0  0  0
  -24.0037   -7.4633   22.7446 H   0  0  0  0  0  0
  -21.0869   -8.8814   19.8962 H   0  0  0  0  0  0
  -22.3768  -10.9680   19.6159 H   0  0  0  0  0  0
  -21.2035   -7.6184   23.9755 H   0  0  0  0  0  0
  -21.1443   -6.0531   25.9085 H   0  0  0  0  0  0
  -22.0608   -2.7644   23.2837 H   0  0  0  0  0  0
  -22.4168  -11.9919   22.4781 H   0  0  0  0  0  0
  -21.1157  -13.1310   22.2571 H   0  0  0  0  0  0
  -24.6752  -15.8507   20.5350 H   0  0  0  0  0  0
  -26.2984  -15.6303   20.1253 H   0  0  0  0  0  0
  -26.7092  -32.5561   23.1204 H   0  0  0  0  0  0
  -25.0030  -33.9781   25.0512 H   0  0  0  0  0  0
  -22.6840  -31.3118   21.4153 H   0  0  0  0  0  0
  -23.3746  -35.9659   23.3322 H   0  0  0  0  0  0
  -24.3596  -36.8909   22.2051 H   0  0  0  0  0  0
  -23.7252  -37.6548   23.6635 H   0  0  0  0  0  0
  -26.0240  -31.6055   20.5894 H   0  0  0  0  0  0
  -26.8156  -30.9024   21.9711 H   0  0  0  0  0  0
  -28.0959  -29.1251   21.1473 H   0  0  0  0  0  0
  -26.0144  -25.9838   19.0197 H   0  0  0  0  0  0
  -23.9650  -27.2922   19.0616 H   0  0  0  0  0  0
  -23.7141  -30.6060   19.4081 H   0  0  0  0  0  0
  -22.7275  -29.2498   19.8720 H   0  0  0  0  0  0
  -25.1284  -36.2002   25.0854 H   0  0  0  0  0  0
  -20.9891  -28.3229   24.1424 H   0  0  0  0  0  0
  -20.5602  -26.2251   23.3610 H   0  0  0  0  0  0
  -21.6611  -26.7407   22.1227 H   0  0  0  0  0  0
  -19.6846  -25.6250   21.1270 H   0  0  0  0  0  0
  -19.6652  -27.3143   20.6733 H   0  0  0  0  0  0
  -17.4137  -26.6615   21.4110 H   0  0  0  0  0  0
  -18.0347  -26.0112   22.9107 H   0  0  0  0  0  0
  -19.7981  -30.7257   24.2181 H   0  0  0  0  0  0
  -17.5108  -31.6305   24.5150 H   0  0  0  0  0  0
  -15.5386  -30.3040   23.7694 H   0  0  0  0  0  0
  -15.8663  -28.0877   22.7024 H   0  0  0  0  0  0
  -24.5943  -30.6961   25.7877 H   0  0  0  0  0  0
  -24.8897  -32.2806   26.4953 H   0  0  0  0  0  0
  -25.8157  -30.8882   27.0242 H   0  0  0  0  0  0
  -26.2729  -29.6882   24.1065 H   0  0  0  0  0  0
  -27.4075  -29.7227   25.4369 H   0  0  0  0  0  0
  -27.8537  -30.4433   23.9068 H   0  0  0  0  0  0
  -27.2658  -33.3587   26.2067 H   0  0  0  0  0  0
  -28.3831  -32.6835   25.0301 H   0  0  0  0  0  0
  -28.0682  -31.8392   26.5376 H   0  0  0  0  0  0
  -28.2621  -38.0097   24.7492 H   0  0  0  0  0  0
  -28.1059  -36.2630   24.6327 H   0  0  0  0  0  0
  -27.2290  -37.1508   25.8865 H   0  0  0  0  0  0
  -20.9228  -29.8741   21.6898 H   0  0  0  0  0  0
  -26.0211  -38.2877   24.1379 H   0  0  0  0  0  0
  -31.8503  -16.5537   21.9721 H   0  0  0  0  0  0
  -30.8015  -17.1641   20.7154 H   0  0  0  0  0  0
  -30.3767  -18.4353   22.8054 H   0  0  0  0  0  0
  -30.1733  -16.9517   23.6981 H   0  0  0  0  0  0
  -27.7738  -24.9237   19.3056 H   0  0  0  0  0  0
  -29.3912  -24.9687   19.9042 H   0  0  0  0  0  0
  -27.0649  -25.3227   21.8493 H   0  0  0  0  0  0
  -28.7350  -24.9156   22.2048 H   0  0  0  0  0  0
  -28.9949  -18.6094   20.7986 H   0  0  0  0  0  0
  -27.7358  -17.3974   20.6547 H   0  0  0  0  0  0
  -26.4948  -18.8077   22.5443 H   0  0  0  0  0  0
  -26.4299  -19.2956   20.8600 H   0  0  0  0  0  0
  -26.7483  -23.3755   23.2379 H   0  0  0  0  0  0
  -28.3573  -22.6684   23.1402 H   0  0  0  0  0  0
  -25.9108  -21.4697   21.7303 H   0  0  0  0  0  0
  -26.3306  -21.0636   23.3829 H   0  0  0  0  0  0
  -29.3893  -15.0652   21.9615 H   0  0  0  0  0  0
  1 25  1  0  0  0
  1 30  2  0  0  0
  1 79  1  0  0  0
  2  3  1  0  0  0
  2 25  1  0  0  0
  2 83  1  0  0  0
  2 84  1  0  0  0
  3  4  1  0  0  0
  3 85  1  0  0  0
  3 86  1  0  0  0
  4  5  1  0  0  0
  4 87  1  0  0  0
  4 88  1  0  0  0
  5  6  1  0  0  0
  5 26  1  0  0  0
  5 89  1  0  0  0
  6 25  1  0  0  0
  6 90  1  0  0  0
  6 91  1  0  0  0
  7  8  2  0  0  0
  7 26  1  0  0  0
  7 29  1  0  0  0
  8  9  1  0  0  0
  8 22  1  0  0  0
  9 10  1  0  0  0
  9 27  2  0  0  0
 10 11  2  0  0  0
 10 15  1  0  0  0
 11 12  1  0  0  0
 11 92  1  0  0  0
 12 13  2  0  0  0
 12 93  1  0  0  0
 13 14  1  0  0  0
 13 31  1  0  0  0
 14 15  2  0  0  0
 14 94  1  0  0  0
 15 95  1  0  0  0
 16 17  2  0  0  0
 16 21  1  0  0  0
 16 31  1  0  0  0
 17 18  1  0  0  0
 17 96  1  0  0  0
 18 19  2  0  0  0
 18 97  1  0  0  0
 19 20  1  0  0  0
 19 24  1  0  0  0
 20 21  2  0  0  0
 20 98  1  0  0  0
 21 23  1  0  0  0
 22 28  1  0  0  0
 22 32  2  0  0  0
 26 27  1  0  0  0
 28 99  1  0  0  0
 28100  1  0  0  0
 29101  1  0  0  0
 29102  1  0  0  0
 33 34  1  0  0  0
 33 66  1  0  0  0
 33 70  2  0  0  0
 34 36  1  0  0  0
 34 59  1  0  0  0
 34103  1  0  0  0
 35 44  2  0  0  0
 35 45  1  0  0  0
 35 68  1  0  0  0
 36 56  1  0  0  0
 36104  1  0  0  0
 37 39  1  0  0  0
 37 47  1  0  0  0
 37 66  1  0  0  0
 37105  1  0  0  0
 38 43  2  0  0  0
 38 46  1  0  0  0
 38 47  1  0  0  0
 39 64  1  0  0  0
 39 67  2  0  0  0
 40 52  1  0  0  0
 40 53  2  0  0  0
 40 58  1  0  0  0
 41106  1  0  0  0
 41107  1  0  0  0
 41108  1  0  0  0
 41 48  1  0  0  0
 42 43  1  0  0  0
 42 66  1  0  0  0
 42109  1  0  0  0
 42110  1  0  0  0
 43 44  1  0  0  0
 44111  1  0  0  0
 45 46  2  0  0  0
 45112  1  0  0  0
 46113  1  0  0  0
 47114  1  0  0  0
 47115  1  0  0  0
 48 56  1  0  0  0
 48 65  1  0  0  0
 48116  1  0  0  0
 49 50  1  0  0  0
 49 53  1  0  0  0
 49 64  1  0  0  0
 49117  1  0  0  0
 50 51  1  0  0  0
 50118  1  0  0  0
 50119  1  0  0  0
 51 52  1  0  0  0
 51120  1  0  0  0
 51121  1  0  0  0
 52122  1  0  0  0
 52123  1  0  0  0
 53 54  1  0  0  0
 54 55  2  0  0  0
 54124  1  0  0  0
 55 57  1  0  0  0
 55125  1  0  0  0
 56 69  2  0  0  0
 57 58  2  0  0  0
 57126  1  0  0  0
 58127  1  0  0  0
 59 60  1  0  0  0
 59 61  1  0  0  0
 59 62  1  0  0  0
 60128  1  0  0  0
 60129  1  0  0  0
 60130  1  0  0  0
 61131  1  0  0  0
 61132  1  0  0  0
 61133  1  0  0  0
 62134  1  0  0  0
 62135  1  0  0  0
 62136  1  0  0  0
 63 65  1  0  0  0
 63137  1  0  0  0
 63138  1  0  0  0
 63139  1  0  0  0
 64140  1  0  0  0
 65141  1  0  0  0
 68 73  1  0  0  0
 71 72  1  0  0  0
 71 79  1  0  0  0
 71142  1  0  0  0
 71143  1  0  0  0
 72 80  1  0  0  0
 72144  1  0  0  0
 72145  1  0  0  0
 73 74  1  0  0  0
 73146  1  0  0  0
 73147  1  0  0  0
 74 81  1  0  0  0
 74148  1  0  0  0
 74149  1  0  0  0
 75 76  1  0  0  0
 75 80  1  0  0  0
 75150  1  0  0  0
 75151  1  0  0  0
 76 82  1  0  0  0
 76152  1  0  0  0
 76153  1  0  0  0
 77 78  1  0  0  0
 77 81  1  0  0  0
 77154  1  0  0  0
 77155  1  0  0  0
 78 82  1  0  0  0
 78156  1  0  0  0
 78157  1  0  0  0
 79158  1  0  0  0
M  ISO  4   1 100  68 101  73 101  79 100
M  END
> <chiral flag>
0

> <version>
0

> <s_m_source_file>
/data/baiqing/PycharmProjects/Reinvent-master-3.2/result/LINK_invent/BTK/process_docking_weight1_custom_sum_contain_oxygen_bond_distance_aromatic_linkinvent_7_9_3/rearranged_h_0000.sdf

> <i_m_source_file_index>
51

> <r_mmod_Potential_Energy-OPLS-2005>
-132.649719238281

> <r_mmod_Stretch_Energy-OPLS-2005>
31.9378795623779

> <r_mmod_Bend_Energy-OPLS-2005>
94.8774032592773

> <r_mmod_Torsional_Energy-OPLS-2005>
201.347106933594

> <r_mmod_Improper_Torsional_Energy-OPLS-2005>
1.87841999530792

> <r_mmod_Van_der_Waal_Energy-OPLS-2005>
137.073379516602

> <r_mmod_Electrostatic_Energy-OPLS-2005>
-394.197540283203

> <r_mmod_Solvation_Energy-OPLS-2005>
-213.581817626953

> <b_mmod_Minimization_Converged-OPLS-2005>
0

> <r_mmod_RMS_Derivative-OPLS-2005>
4.17057800292969

$$$$
53
                    3D
 Structure written by MMmdl.
151158  0  0  1  0            999 V2000
  -30.6553  -14.5615   20.5164 C   0  0  0  0  0  0
  -30.4343  -12.3448   19.4472 C   0  0  0  0  0  0
  -29.5058  -12.5000   18.2222 C   0  0  0  0  0  0
  -28.0269  -12.3522   18.6318 C   0  0  0  0  0  0
  -27.6599  -13.2100   19.8722 C   0  0  2  0  0  0
  -28.7030  -13.0341   21.0011 C   0  0  0  0  0  0
  -25.2584  -13.8162   20.5687 C   0  0  0  0  0  0
  -24.1839  -13.0436   20.9184 C   0  0  0  0  0  0
  -24.6399  -11.6904   20.8735 C   0  0  0  0  0  0
  -23.9065  -10.4291   21.0404 C   0  0  0  0  0  0
  -24.3613   -9.4209   21.9185 C   0  0  0  0  0  0
  -23.6290   -8.2244   22.0754 C   0  0  0  0  0  0
  -22.4274   -8.0280   21.3544 C   0  0  0  0  0  0
  -21.9908   -9.0255   20.4647 C   0  0  0  0  0  0
  -22.7234  -10.2136   20.3058 C   0  0  0  0  0  0
  -21.6852   -6.0737   22.5281 C   0  0  0  0  0  0
  -21.4013   -6.5642   23.8214 C   0  0  0  0  0  0
  -21.3659   -5.6793   24.9176 C   0  0  0  0  0  0
  -21.6042   -4.3056   24.7226 C   0  0  0  0  0  0
  -21.8819   -3.8149   23.4347 C   0  0  0  0  0  0
  -21.9193   -4.6966   22.3403 C   0  0  0  0  0  0
  -22.7864  -13.5235   21.1847 C   0  0  0  0  0  0
  -22.1662   -4.2151   21.0980 F   0  0  0  0  0  0
  -21.5628   -3.4539   25.7739 F   0  0  0  0  0  0
  -30.0293  -13.3503   20.4461 N   0  0  0  0  0  0
  -26.3021  -12.9338   20.3357 N   0  0  0  0  0  0
  -25.9330  -11.6495   20.5769 N   0  0  0  0  0  0
  -22.0500  -12.8230   22.0403 N   0  0  0  0  0  0
  -25.4306  -15.1882   20.4098 N   0  0  0  0  0  0
  -31.7943  -14.7459   20.0817 O   0  0  0  0  0  0
  -21.6637   -6.8878   21.4242 O   0  0  0  0  0  0
  -22.3554  -14.5544   20.6697 O   0  0  0  0  0  0
  -24.6214  -31.8639   23.2075 C   0  0  0  0  0  0
  -25.9085  -32.4801   23.8384 C   0  0  1  0  0  0
  -27.2255  -27.3712   20.1033 C   0  0  0  0  0  0
  -25.5919  -33.8602   24.2308 N   0  0  0  0  0  0
  -23.4114  -30.4896   21.5492 C   0  0  2  0  0  0
  -24.8565  -28.9542   20.1093 C   0  0  0  0  0  0
  -22.7445  -29.4644   22.4958 C   0  0  0  0  0  0
  -18.0278  -28.1380   22.8491 C   0  0  0  0  0  0
  -24.1487  -36.7311   23.2637 C   0  0  0  0  0  0
  -25.9475  -30.8102   21.3710 C   0  0  0  0  0  0
  -26.0215  -29.4415   20.7145 C   0  0  0  0  0  0
  -27.2071  -28.6586   20.7081 C   0  0  0  0  0  0
  -26.0402  -26.9304   19.4662 C   0  0  0  0  0  0
  -24.8648  -27.7015   19.4786 C   0  0  0  0  0  0
  -23.6224  -29.8285   20.1616 C   0  0  0  0  0  0
  -25.4106  -36.3097   24.0333 C   0  0  1  0  0  0
  -20.5876  -28.3678   23.1297 C   0  0  2  0  0  0
  -20.6771  -26.9407   22.5414 C   0  0  0  0  0  0
  -19.5748  -26.6385   21.5213 C   0  0  0  0  0  0
  -18.1926  -26.7925   22.1623 C   0  0  0  0  0  0
  -19.1531  -28.8844   23.2893 C   0  0  0  0  0  0
  -18.9454  -30.1447   23.8907 C   0  0  0  0  0  0
  -17.6457  -30.6586   24.0563 C   0  0  0  0  0  0
  -25.9042  -34.9465   23.5117 C   0  0  0  0  0  0
  -16.5347  -29.9089   23.6325 C   0  0  0  0  0  0
  -16.7266  -28.6504   23.0347 C   0  0  0  0  0  0
  -26.4492  -31.6591   25.0732 C   0  0  0  0  0  0
  -25.3750  -31.3715   26.1476 C   0  0  0  0  0  0
  -27.0327  -30.3021   24.6144 C   0  0  0  0  0  0
  -27.6054  -32.4318   25.7506 C   0  0  0  0  0  0
  -27.5575  -37.1810   24.8463 C   0  0  0  0  0  0
  -21.4166  -29.3041   22.3700 N   0  0  0  0  0  0
  -26.4286  -37.3783   23.9409 N   0  0  0  0  0  0
  -24.6785  -31.0701   22.1001 N   0  0  0  0  0  0
  -23.4196  -28.8175   23.3006 O   0  0  0  0  0  0
  -28.3648  -26.5671   20.1596 O   0  0  0  0  0  0
  -26.5600  -34.8920   22.4678 O   0  0  0  0  0  0
  -23.5393  -32.1416   23.7435 O   0  0  0  0  0  0
  -29.9427  -17.0084   20.3659 C   0  0  0  0  0  0
  -30.2398  -18.1042   21.4380 C   0  0  0  0  0  0
  -28.2075  -25.1343   19.9110 C   0  0  0  0  0  0
  -29.2662  -24.1793   20.5573 C   0  0  0  0  0  0
  -29.9175  -20.3642   20.4052 C   0  0  0  0  0  0
  -29.8174  -21.8260   20.9840 C   0  0  0  0  0  0
  -29.8654  -15.6054   20.8638 N   0  0  0  0  0  0
  -29.4912  -19.3441   21.3363 O   0  0  0  0  0  0
  -29.0968  -22.7873   20.1739 O   0  0  0  0  0  0
  -31.4781  -12.4560   19.1472 H   0  0  0  0  0  0
  -30.3514  -11.3425   19.8699 H   0  0  0  0  0  0
  -29.7587  -11.7587   17.4631 H   0  0  0  0  0  0
  -29.6633  -13.4758   17.7598 H   0  0  0  0  0  0
  -27.8494  -11.2980   18.8472 H   0  0  0  0  0  0
  -27.3765  -12.6041   17.7933 H   0  0  0  0  0  0
  -27.6900  -14.2503   19.5482 H   0  0  0  0  0  0
  -28.6939  -12.0094   21.3754 H   0  0  0  0  0  0
  -28.4608  -13.6637   21.8586 H   0  0  0  0  0  0
  -25.2760   -9.5685   22.4755 H   0  0  0  0  0  0
  -24.0002   -7.4637   22.7472 H   0  0  0  0  0  0
  -21.0840   -8.8774   19.8954 H   0  0  0  0  0  0
  -22.3696  -10.9673   19.6164 H   0  0  0  0  0  0
  -21.2005   -7.6149   23.9717 H   0  0  0  0  0  0
  -21.1480   -6.0523   25.9077 H   0  0  0  0  0  0
  -22.0598   -2.7611   23.2847 H   0  0  0  0  0  0
  -22.4113  -11.9886   22.4785 H   0  0  0  0  0  0
  -21.1121  -13.1263   22.2609 H   0  0  0  0  0  0
  -24.6640  -15.8434   20.5187 H   0  0  0  0  0  0
  -26.2817  -15.6270   20.0812 H   0  0  0  0  0  0
  -26.7157  -32.5488   23.1142 H   0  0  0  0  0  0
  -25.0089  -33.9756   25.0468 H   0  0  0  0  0  0
  -22.7027  -31.3087   21.4110 H   0  0  0  0  0  0
  -23.3738  -35.9655   23.3305 H   0  0  0  0  0  0
  -24.3581  -36.8924   22.2051 H   0  0  0  0  0  0
  -23.7254  -37.6523   23.6652 H   0  0  0  0  0  0
  -26.0704  -31.5737   20.6015 H   0  0  0  0  0  0
  -26.8328  -30.8610   21.9934 H   0  0  0  0  0  0
  -28.1002  -29.0266   21.1935 H   0  0  0  0  0  0
  -25.9945  -25.9816   18.9532 H   0  0  0  0  0  0
  -23.9737  -27.3260   18.9946 H   0  0  0  0  0  0
  -23.7382  -30.6078   19.4073 H   0  0  0  0  0  0
  -22.7435  -29.2556   19.8597 H   0  0  0  0  0  0
  -25.1283  -36.1955   25.0825 H   0  0  0  0  0  0
  -20.9968  -28.3250   24.1416 H   0  0  0  0  0  0
  -20.5675  -26.2286   23.3609 H   0  0  0  0  0  0
  -21.6641  -26.7445   22.1203 H   0  0  0  0  0  0
  -19.6911  -25.6300   21.1234 H   0  0  0  0  0  0
  -19.6685  -27.3205   20.6752 H   0  0  0  0  0  0
  -17.4196  -26.6671   21.4025 H   0  0  0  0  0  0
  -18.0322  -26.0066   22.9016 H   0  0  0  0  0  0
  -19.7933  -30.7257   24.2281 H   0  0  0  0  0  0
  -17.5015  -31.6265   24.5168 H   0  0  0  0  0  0
  -15.5351  -30.2995   23.7644 H   0  0  0  0  0  0
  -15.8663  -28.0830   22.7056 H   0  0  0  0  0  0
  -24.5923  -30.7058   25.7824 H   0  0  0  0  0  0
  -24.8950  -32.2878   26.4917 H   0  0  0  0  0  0
  -25.8105  -30.8896   27.0238 H   0  0  0  0  0  0
  -26.2885  -29.6782   24.1174 H   0  0  0  0  0  0
  -27.4053  -29.7258   25.4624 H   0  0  0  0  0  0
  -27.8744  -30.4323   23.9335 H   0  0  0  0  0  0
  -27.2656  -33.3602   26.2106 H   0  0  0  0  0  0
  -28.3859  -32.6902   25.0339 H   0  0  0  0  0  0
  -28.0726  -31.8432   26.5410 H   0  0  0  0  0  0
  -28.2595  -38.0105   24.7496 H   0  0  0  0  0  0
  -28.1067  -36.2633   24.6297 H   0  0  0  0  0  0
  -27.2294  -37.1473   25.8868 H   0  0  0  0  0  0
  -20.9327  -29.8783   21.6941 H   0  0  0  0  0  0
  -26.0170  -38.2861   24.1406 H   0  0  0  0  0  0
  -30.6541  -17.0949   19.5428 H   0  0  0  0  0  0
  -28.9678  -17.2228   19.9266 H   0  0  0  0  0  0
  -31.3103  -18.3080   21.4926 H   0  0  0  0  0  0
  -29.9771  -17.6939   22.4136 H   0  0  0  0  0  0
  -27.2444  -24.7911   20.2910 H   0  0  0  0  0  0
  -28.1973  -24.9789   18.8314 H   0  0  0  0  0  0
  -29.1932  -24.2677   21.6418 H   0  0  0  0  0  0
  -30.2711  -24.5014   20.2815 H   0  0  0  0  0  0
  -30.9434  -20.1789   20.0829 H   0  0  0  0  0  0
  -29.3018  -20.2769   19.5094 H   0  0  0  0  0  0
  -30.8295  -22.1951   21.1586 H   0  0  0  0  0  0
  -29.3415  -21.7928   21.9649 H   0  0  0  0  0  0
  -28.9732  -15.3399   21.2544 H   0  0  0  0  0  0
  1 25  1  0  0  0
  1 30  2  0  0  0
  1 77  1  0  0  0
  2  3  1  0  0  0
  2 25  1  0  0  0
  2 80  1  0  0  0
  2 81  1  0  0  0
  3  4  1  0  0  0
  3 82  1  0  0  0
  3 83  1  0  0  0
  4  5  1  0  0  0
  4 84  1  0  0  0
  4 85  1  0  0  0
  5  6  1  0  0  0
  5 26  1  0  0  0
  5 86  1  0  0  0
  6 25  1  0  0  0
  6 87  1  0  0  0
  6 88  1  0  0  0
  7  8  2  0  0  0
  7 26  1  0  0  0
  7 29  1  0  0  0
  8  9  1  0  0  0
  8 22  1  0  0  0
  9 10  1  0  0  0
  9 27  2  0  0  0
 10 11  2  0  0  0
 10 15  1  0  0  0
 11 12  1  0  0  0
 11 89  1  0  0  0
 12 13  2  0  0  0
 12 90  1  0  0  0
 13 14  1  0  0  0
 13 31  1  0  0  0
 14 15  2  0  0  0
 14 91  1  0  0  0
 15 92  1  0  0  0
 16 17  2  0  0  0
 16 21  1  0  0  0
 16 31  1  0  0  0
 17 18  1  0  0  0
 17 93  1  0  0  0
 18 19  2  0  0  0
 18 94  1  0  0  0
 19 20  1  0  0  0
 19 24  1  0  0  0
 20 21  2  0  0  0
 20 95  1  0  0  0
 21 23  1  0  0  0
 22 28  1  0  0  0
 22 32  2  0  0  0
 26 27  1  0  0  0
 28 96  1  0  0  0
 28 97  1  0  0  0
 29 98  1  0  0  0
 29 99  1  0  0  0
 33 34  1  0  0  0
 33 66  1  0  0  0
 33 70  2  0  0  0
 34 36  1  0  0  0
 34 59  1  0  0  0
 34100  1  0  0  0
 35 44  2  0  0  0
 35 45  1  0  0  0
 35 68  1  0  0  0
 36 56  1  0  0  0
 36101  1  0  0  0
 37 39  1  0  0  0
 37 47  1  0  0  0
 37 66  1  0  0  0
 37102  1  0  0  0
 38 43  2  0  0  0
 38 46  1  0  0  0
 38 47  1  0  0  0
 39 64  1  0  0  0
 39 67  2  0  0  0
 40 52  1  0  0  0
 40 53  2  0  0  0
 40 58  1  0  0  0
 41103  1  0  0  0
 41104  1  0  0  0
 41105  1  0  0  0
 41 48  1  0  0  0
 42 43  1  0  0  0
 42 66  1  0  0  0
 42106  1  0  0  0
 42107  1  0  0  0
 43 44  1  0  0  0
 44108  1  0  0  0
 45 46  2  0  0  0
 45109  1  0  0  0
 46110  1  0  0  0
 47111  1  0  0  0
 47112  1  0  0  0
 48 56  1  0  0  0
 48 65  1  0  0  0
 48113  1  0  0  0
 49 50  1  0  0  0
 49 53  1  0  0  0
 49 64  1  0  0  0
 49114  1  0  0  0
 50 51  1  0  0  0
 50115  1  0  0  0
 50116  1  0  0  0
 51 52  1  0  0  0
 51117  1  0  0  0
 51118  1  0  0  0
 52119  1  0  0  0
 52120  1  0  0  0
 53 54  1  0  0  0
 54 55  2  0  0  0
 54121  1  0  0  0
 55 57  1  0  0  0
 55122  1  0  0  0
 56 69  2  0  0  0
 57 58  2  0  0  0
 57123  1  0  0  0
 58124  1  0  0  0
 59 60  1  0  0  0
 59 61  1  0  0  0
 59 62  1  0  0  0
 60125  1  0  0  0
 60126  1  0  0  0
 60127  1  0  0  0
 61128  1  0  0  0
 61129  1  0  0  0
 61130  1  0  0  0
 62131  1  0  0  0
 62132  1  0  0  0
 62133  1  0  0  0
 63 65  1  0  0  0
 63134  1  0  0  0
 63135  1  0  0  0
 63136  1  0  0  0
 64137  1  0  0  0
 65138  1  0  0  0
 68 73  1  0  0  0
 71 72  1  0  0  0
 71 77  1  0  0  0
 71139  1  0  0  0
 71140  1  0  0  0
 72 78  1  0  0  0
 72141  1  0  0  0
 72142  1  0  0  0
 73 74  1  0  0  0
 73143  1  0  0  0
 73144  1  0  0  0
 74 79  1  0  0  0
 74145  1  0  0  0
 74146  1  0  0  0
 75 76  1  0  0  0
 75 78  1  0  0  0
 75147  1  0  0  0
 75148  1  0  0  0
 76 79  1  0  0  0
 76149  1  0  0  0
 76150  1  0  0  0
 77151  1  0  0  0
M  ISO  4   1 100  68 101  73 101  77 100
M  END
> <chiral flag>
0

> <version>
0

> <s_m_source_file>
/data/baiqing/PycharmProjects/Reinvent-master-3.2/result/LINK_invent/BTK/process_docking_weight1_custom_sum_contain_oxygen_bond_distance_aromatic_linkinvent_7_9_3/rearranged_h_0000.sdf

> <i_m_source_file_index>
52

> <r_mmod_Potential_Energy-OPLS-2005>
-33.6661491394043

> <r_mmod_Stretch_Energy-OPLS-2005>
54.1415176391602

> <r_mmod_Bend_Energy-OPLS-2005>
117.664672851562

> <r_mmod_Torsional_Energy-OPLS-2005>
224.785095214844

> <r_mmod_Improper_Torsional_Energy-OPLS-2005>
6.75608205795288

> <r_mmod_Van_der_Waal_Energy-OPLS-2005>
133.051956176758

> <r_mmod_Electrostatic_Energy-OPLS-2005>
-384.544891357422

> <r_mmod_Solvation_Energy-OPLS-2005>
-214.149185180664

> <b_mmod_Minimization_Converged-OPLS-2005>
0

> <r_mmod_RMS_Derivative-OPLS-2005>
0.78693014383316

$$$$
54
                    3D
 Structure written by MMmdl.
157165  0  0  1  0            999 V2000
  -30.7712  -14.3538   20.7139 C   0  0  0  0  0  0
  -30.4136  -12.2989   19.3876 C   0  0  0  0  0  0
  -29.4769  -12.5330   18.1889 C   0  0  0  0  0  0
  -28.0035  -12.3851   18.6092 C   0  0  0  0  0  0
  -27.6649  -13.2015   19.8833 C   0  0  2  0  0  0
  -28.7022  -12.9380   20.9954 C   0  0  0  0  0  0
  -25.2601  -13.8155   20.5672 C   0  0  0  0  0  0
  -24.1834  -13.0443   20.9170 C   0  0  0  0  0  0
  -24.6373  -11.6904   20.8733 C   0  0  0  0  0  0
  -23.9040  -10.4293   21.0405 C   0  0  0  0  0  0
  -24.3592   -9.4213   21.9189 C   0  0  0  0  0  0
  -23.6272   -8.2245   22.0760 C   0  0  0  0  0  0
  -22.4265   -8.0272   21.3539 C   0  0  0  0  0  0
  -21.9893   -9.0247   20.4647 C   0  0  0  0  0  0
  -22.7208  -10.2134   20.3059 C   0  0  0  0  0  0
  -21.6859   -6.0727   22.5266 C   0  0  0  0  0  0
  -21.4007   -6.5636   23.8196 C   0  0  0  0  0  0
  -21.3654   -5.6796   24.9165 C   0  0  0  0  0  0
  -21.6055   -4.3061   24.7226 C   0  0  0  0  0  0
  -21.8817   -3.8140   23.4347 C   0  0  0  0  0  0
  -21.9186   -4.6954   22.3396 C   0  0  0  0  0  0
  -22.7866  -13.5254   21.1827 C   0  0  0  0  0  0
  -22.1664   -4.2135   21.0979 F   0  0  0  0  0  0
  -21.5633   -3.4544   25.7742 F   0  0  0  0  0  0
  -30.0441  -13.2357   20.4593 N   0  0  0  0  0  0
  -26.3033  -12.9308   20.3401 N   0  0  0  0  0  0
  -25.9298  -11.6473   20.5768 N   0  0  0  0  0  0
  -22.0499  -12.8248   22.0382 N   0  0  0  0  0  0
  -25.4373  -15.1862   20.4079 N   0  0  0  0  0  0
  -31.7843  -14.6617   20.0774 O   0  0  0  0  0  0
  -21.6639   -6.8867   21.4228 O   0  0  0  0  0  0
  -22.3559  -14.5567   20.6688 O   0  0  0  0  0  0
  -24.6138  -31.8702   23.2141 C   0  0  0  0  0  0
  -25.9043  -32.4828   23.8442 C   0  0  1  0  0  0
  -27.2396  -27.4663   20.0921 C   0  0  0  0  0  0
  -25.5921  -33.8628   24.2376 N   0  0  0  0  0  0
  -23.4023  -30.4928   21.5521 C   0  0  2  0  0  0
  -24.8506  -28.9578   20.1194 C   0  0  0  0  0  0
  -22.7418  -29.4686   22.5012 C   0  0  0  0  0  0
  -18.0283  -28.1402   22.8502 C   0  0  0  0  0  0
  -24.1487  -36.7318   23.2639 C   0  0  0  0  0  0
  -25.9277  -30.8436   21.3649 C   0  0  0  0  0  0
  -26.0063  -29.4784   20.7172 C   0  0  0  0  0  0
  -27.2062  -28.7362   20.7081 C   0  0  0  0  0  0
  -26.0752  -26.9503   19.4932 C   0  0  0  0  0  0
  -24.8762  -27.6899   19.5086 C   0  0  0  0  0  0
  -23.6116  -29.8224   20.1676 C   0  0  0  0  0  0
  -25.4096  -36.3120   24.0350 C   0  0  1  0  0  0
  -20.5873  -28.3692   23.1338 C   0  0  2  0  0  0
  -20.6767  -26.9429   22.5439 C   0  0  0  0  0  0
  -19.5744  -26.6403   21.5236 C   0  0  0  0  0  0
  -18.1915  -26.7956   22.1622 C   0  0  0  0  0  0
  -19.1531  -28.8866   23.2916 C   0  0  0  0  0  0
  -18.9446  -30.1473   23.8925 C   0  0  0  0  0  0
  -17.6439  -30.6596   24.0595 C   0  0  0  0  0  0
  -25.9031  -34.9478   23.5154 C   0  0  0  0  0  0
  -16.5338  -29.9103   23.6324 C   0  0  0  0  0  0
  -16.7270  -28.6530   23.0335 C   0  0  0  0  0  0
  -26.4475  -31.6598   25.0763 C   0  0  0  0  0  0
  -25.3743  -31.3655   26.1513 C   0  0  0  0  0  0
  -27.0306  -30.3045   24.6127 C   0  0  0  0  0  0
  -27.6100  -32.4281   25.7483 C   0  0  0  0  0  0
  -27.5584  -37.1800   24.8459 C   0  0  0  0  0  0
  -21.4152  -29.3050   22.3734 N   0  0  0  0  0  0
  -26.4281  -37.3807   23.9434 N   0  0  0  0  0  0
  -24.6659  -31.0827   22.1025 N   0  0  0  0  0  0
  -23.4195  -28.8235   23.3058 O   0  0  0  0  0  0
  -28.3920  -26.7270   20.0397 O   0  0  0  0  0  0
  -26.5563  -34.8917   22.4696 O   0  0  0  0  0  0
  -23.5334  -32.1443   23.7542 O   0  0  0  0  0  0
  -29.6197  -23.8494   20.5642 C   0  0  0  0  0  0
  -27.6153  -23.9495   21.9373 C   0  0  0  0  0  0
  -29.5889  -22.4409   20.6180 C   0  0  0  0  0  0
  -27.5812  -22.5391   21.9842 C   0  0  0  0  0  0
  -28.6522  -24.6120   21.2487 C   0  0  0  0  0  0
  -28.5860  -21.7684   21.3609 C   0  0  0  0  0  0
  -28.7652  -26.1301   21.2782 C   0  0  0  0  0  0
  -31.0119  -17.5061   21.6958 C   0  0  0  0  0  0
  -29.6570  -18.2319   21.8179 C   0  0  0  0  0  0
  -31.1159  -16.1462   22.4160 C   0  0  0  0  0  0
  -29.7386  -19.6652   21.2587 C   0  0  0  0  0  0
  -30.3620  -15.0723   21.7698 N   0  0  0  0  0  0
  -28.5417  -20.3962   21.5247 O   0  0  0  0  0  0
  -31.4543  -12.4072   19.0770 H   0  0  0  0  0  0
  -30.3186  -11.2729   19.7477 H   0  0  0  0  0  0
  -29.7047  -11.8307   17.3866 H   0  0  0  0  0  0
  -29.6427  -13.5303   17.7787 H   0  0  0  0  0  0
  -27.8117  -11.3257   18.7853 H   0  0  0  0  0  0
  -27.3468  -12.6807   17.7908 H   0  0  0  0  0  0
  -27.7262  -14.2569   19.6167 H   0  0  0  0  0  0
  -28.6660  -11.8920   21.3037 H   0  0  0  0  0  0
  -28.4454  -13.5071   21.8887 H   0  0  0  0  0  0
  -25.2732   -9.5702   22.4769 H   0  0  0  0  0  0
  -23.9979   -7.4650   22.7489 H   0  0  0  0  0  0
  -21.0827   -8.8763   19.8957 H   0  0  0  0  0  0
  -22.3653  -10.9680   19.6181 H   0  0  0  0  0  0
  -21.2000   -7.6143   23.9690 H   0  0  0  0  0  0
  -21.1488   -6.0537   25.9070 H   0  0  0  0  0  0
  -22.0604   -2.7599   23.2858 H   0  0  0  0  0  0
  -22.4107  -11.9901   22.4759 H   0  0  0  0  0  0
  -21.1122  -13.1286   22.2591 H   0  0  0  0  0  0
  -24.6822  -15.8538   20.5194 H   0  0  0  0  0  0
  -26.3017  -15.6136   20.0988 H   0  0  0  0  0  0
  -26.7140  -32.5563   23.1246 H   0  0  0  0  0  0
  -25.0146  -33.9809   25.0568 H   0  0  0  0  0  0
  -22.6924  -31.3100   21.4118 H   0  0  0  0  0  0
  -23.3775  -35.9623   23.3251 H   0  0  0  0  0  0
  -24.3598  -36.8987   22.2070 H   0  0  0  0  0  0
  -23.7197  -37.6485   23.6680 H   0  0  0  0  0  0
  -26.0328  -31.6094   20.5948 H   0  0  0  0  0  0
  -26.8183  -30.9005   21.9801 H   0  0  0  0  0  0
  -28.1030  -29.1350   21.1611 H   0  0  0  0  0  0
  -26.1010  -25.9762   19.0243 H   0  0  0  0  0  0
  -23.9878  -27.2832   19.0457 H   0  0  0  0  0  0
  -23.7209  -30.5982   19.4086 H   0  0  0  0  0  0
  -22.7365  -29.2408   19.8715 H   0  0  0  0  0  0
  -25.1254  -36.1980   25.0837 H   0  0  0  0  0  0
  -20.9965  -28.3276   24.1461 H   0  0  0  0  0  0
  -20.5696  -26.2308   23.3633 H   0  0  0  0  0  0
  -21.6633  -26.7483   22.1224 H   0  0  0  0  0  0
  -19.6899  -25.6319   21.1256 H   0  0  0  0  0  0
  -19.6674  -27.3235   20.6785 H   0  0  0  0  0  0
  -17.4197  -26.6783   21.4001 H   0  0  0  0  0  0
  -18.0241  -26.0085   22.8987 H   0  0  0  0  0  0
  -19.7919  -30.7300   24.2302 H   0  0  0  0  0  0
  -17.4983  -31.6262   24.5220 H   0  0  0  0  0  0
  -15.5332  -30.3010   23.7621 H   0  0  0  0  0  0
  -15.8683  -28.0872   22.6986 H   0  0  0  0  0  0
  -24.6037  -30.6848   25.7888 H   0  0  0  0  0  0
  -24.8770  -32.2752   26.4880 H   0  0  0  0  0  0
  -25.8131  -30.8959   27.0331 H   0  0  0  0  0  0
  -26.2853  -29.6776   24.1230 H   0  0  0  0  0  0
  -27.4144  -29.7299   25.4572 H   0  0  0  0  0  0
  -27.8651  -30.4387   23.9241 H   0  0  0  0  0  0
  -27.2823  -33.3629   26.2041 H   0  0  0  0  0  0
  -28.3900  -32.6744   25.0264 H   0  0  0  0  0  0
  -28.0775  -31.8389   26.5385 H   0  0  0  0  0  0
  -28.2582  -38.0125   24.7564 H   0  0  0  0  0  0
  -28.1109  -36.2661   24.6204 H   0  0  0  0  0  0
  -27.2323  -37.1365   25.8868 H   0  0  0  0  0  0
  -20.9319  -29.8764   21.6947 H   0  0  0  0  0  0
  -26.0173  -38.2878   24.1474 H   0  0  0  0  0  0
  -30.4083  -24.3469   20.0174 H   0  0  0  0  0  0
  -26.8589  -24.5234   22.4547 H   0  0  0  0  0  0
  -30.3633  -21.8972   20.0957 H   0  0  0  0  0  0
  -26.7950  -22.0466   22.5394 H   0  0  0  0  0  0
  -29.8051  -26.3917   21.4755 H   0  0  0  0  0  0
  -28.1938  -26.5222   22.1237 H   0  0  0  0  0  0
  -31.7808  -18.1548   22.1180 H   0  0  0  0  0  0
  -31.2740  -17.3903   20.6438 H   0  0  0  0  0  0
  -29.3651  -18.2777   22.8681 H   0  0  0  0  0  0
  -28.8772  -17.6694   21.3019 H   0  0  0  0  0  0
  -30.7884  -16.2368   23.4530 H   0  0  0  0  0  0
  -32.1672  -15.8539   22.4672 H   0  0  0  0  0  0
  -29.9238  -19.6310   20.1842 H   0  0  0  0  0  0
  -30.5859  -20.1712   21.7266 H   0  0  0  0  0  0
  -29.5380  -14.7369   22.2485 H   0  0  0  0  0  0
  1 25  1  0  0  0
  1 30  2  0  0  0
  1 82  1  0  0  0
  2  3  1  0  0  0
  2 25  1  0  0  0
  2 84  1  0  0  0
  2 85  1  0  0  0
  3  4  1  0  0  0
  3 86  1  0  0  0
  3 87  1  0  0  0
  4  5  1  0  0  0
  4 88  1  0  0  0
  4 89  1  0  0  0
  5  6  1  0  0  0
  5 26  1  0  0  0
  5 90  1  0  0  0
  6 25  1  0  0  0
  6 91  1  0  0  0
  6 92  1  0  0  0
  7  8  2  0  0  0
  7 26  1  0  0  0
  7 29  1  0  0  0
  8  9  1  0  0  0
  8 22  1  0  0  0
  9 10  1  0  0  0
  9 27  2  0  0  0
 10 11  2  0  0  0
 10 15  1  0  0  0
 11 12  1  0  0  0
 11 93  1  0  0  0
 12 13  2  0  0  0
 12 94  1  0  0  0
 13 14  1  0  0  0
 13 31  1  0  0  0
 14 15  2  0  0  0
 14 95  1  0  0  0
 15 96  1  0  0  0
 16 17  2  0  0  0
 16 21  1  0  0  0
 16 31  1  0  0  0
 17 18  1  0  0  0
 17 97  1  0  0  0
 18 19  2  0  0  0
 18 98  1  0  0  0
 19 20  1  0  0  0
 19 24  1  0  0  0
 20 21  2  0  0  0
 20 99  1  0  0  0
 21 23  1  0  0  0
 22 28  1  0  0  0
 22 32  2  0  0  0
 26 27  1  0  0  0
 28100  1  0  0  0
 28101  1  0  0  0
 29102  1  0  0  0
 29103  1  0  0  0
 33 34  1  0  0  0
 33 66  1  0  0  0
 33 70  2  0  0  0
 34 36  1  0  0  0
 34 59  1  0  0  0
 34104  1  0  0  0
 35 44  2  0  0  0
 35 45  1  0  0  0
 35 68  1  0  0  0
 36 56  1  0  0  0
 36105  1  0  0  0
 37 39  1  0  0  0
 37 47  1  0  0  0
 37 66  1  0  0  0
 37106  1  0  0  0
 38 43  2  0  0  0
 38 46  1  0  0  0
 38 47  1  0  0  0
 39 64  1  0  0  0
 39 67  2  0  0  0
 40 52  1  0  0  0
 40 53  2  0  0  0
 40 58  1  0  0  0
 41107  1  0  0  0
 41108  1  0  0  0
 41109  1  0  0  0
 41 48  1  0  0  0
 42 43  1  0  0  0
 42 66  1  0  0  0
 42110  1  0  0  0
 42111  1  0  0  0
 43 44  1  0  0  0
 44112  1  0  0  0
 45 46  2  0  0  0
 45113  1  0  0  0
 46114  1  0  0  0
 47115  1  0  0  0
 47116  1  0  0  0
 48 56  1  0  0  0
 48 65  1  0  0  0
 48117  1  0  0  0
 49 50  1  0  0  0
 49 53  1  0  0  0
 49 64  1  0  0  0
 49118  1  0  0  0
 50 51  1  0  0  0
 50119  1  0  0  0
 50120  1  0  0  0
 51 52  1  0  0  0
 51121  1  0  0  0
 51122  1  0  0  0
 52123  1  0  0  0
 52124  1  0  0  0
 53 54  1  0  0  0
 54 55  2  0  0  0
 54125  1  0  0  0
 55 57  1  0  0  0
 55126  1  0  0  0
 56 69  2  0  0  0
 57 58  2  0  0  0
 57127  1  0  0  0
 58128  1  0  0  0
 59 60  1  0  0  0
 59 61  1  0  0  0
 59 62  1  0  0  0
 60129  1  0  0  0
 60130  1  0  0  0
 60131  1  0  0  0
 61132  1  0  0  0
 61133  1  0  0  0
 61134  1  0  0  0
 62135  1  0  0  0
 62136  1  0  0  0
 62137  1  0  0  0
 63 65  1  0  0  0
 63138  1  0  0  0
 63139  1  0  0  0
 63140  1  0  0  0
 64141  1  0  0  0
 65142  1  0  0  0
 68 77  1  0  0  0
 71 73  2  0  0  0
 71 75  1  0  0  0
 71143  1  0  0  0
 72 74  1  0  0  0
 72 75  2  0  0  0
 72144  1  0  0  0
 73 76  1  0  0  0
 73145  1  0  0  0
 74 76  2  0  0  0
 74146  1  0  0  0
 75 77  1  0  0  0
 76 83  1  0  0  0
 77147  1  0  0  0
 77148  1  0  0  0
 78 79  1  0  0  0
 78 80  1  0  0  0
 78149  1  0  0  0
 78150  1  0  0  0
 79 81  1  0  0  0
 79151  1  0  0  0
 79152  1  0  0  0
 80 82  1  0  0  0
 80153  1  0  0  0
 80154  1  0  0  0
 81 83  1  0  0  0
 81155  1  0  0  0
 81156  1  0  0  0
 82157  1  0  0  0
M  ISO  4   1 100  68 101  77 101  82 100
M  END
> <chiral flag>
0

> <version>
0

> <s_m_source_file>
/data/baiqing/PycharmProjects/Reinvent-master-3.2/result/LINK_invent/BTK/process_docking_weight1_custom_sum_contain_oxygen_bond_distance_aromatic_linkinvent_7_9_3/rearranged_h_0000.sdf

> <i_m_source_file_index>
53

> <r_mmod_Potential_Energy-OPLS-2005>
-66.0535278320312

> <r_mmod_Stretch_Energy-OPLS-2005>
32.3803215026855

> <r_mmod_Bend_Energy-OPLS-2005>
89.7456970214844

> <r_mmod_Torsional_Energy-OPLS-2005>
236.177993774414

> <r_mmod_Improper_Torsional_Energy-OPLS-2005>
2.36417651176453

> <r_mmod_Van_der_Waal_Energy-OPLS-2005>
151.871948242188

> <r_mmod_Electrostatic_Energy-OPLS-2005>
-377.402130126953

> <r_mmod_Solvation_Energy-OPLS-2005>
-207.916885375977

> <b_mmod_Minimization_Converged-OPLS-2005>
0

> <r_mmod_RMS_Derivative-OPLS-2005>
2.30187773704529

$$$$
55
                    3D
 Structure written by MMmdl.
151159  0  0  1  0            999 V2000
  -30.6744  -14.6399   20.4690 C   0  0  0  0  0  0
  -30.4163  -12.3859   19.4690 C   0  0  0  0  0  0
  -29.5021  -12.4816   18.2300 C   0  0  0  0  0  0
  -28.0250  -12.3324   18.6410 C   0  0  0  0  0  0
  -27.6430  -13.2284   19.8511 C   0  0  2  0  0  0
  -28.6870  -13.1434   20.9864 C   0  0  0  0  0  0
  -25.2510  -13.8209   20.5702 C   0  0  0  0  0  0
  -24.1793  -13.0455   20.9221 C   0  0  0  0  0  0
  -24.6377  -11.6933   20.8753 C   0  0  0  0  0  0
  -23.9058  -10.4305   21.0409 C   0  0  0  0  0  0
  -24.3614   -9.4222   21.9186 C   0  0  0  0  0  0
  -23.6294   -8.2250   22.0747 C   0  0  0  0  0  0
  -22.4274   -8.0288   21.3540 C   0  0  0  0  0  0
  -21.9909   -9.0264   20.4645 C   0  0  0  0  0  0
  -22.7232  -10.2146   20.3058 C   0  0  0  0  0  0
  -21.6851   -6.0743   22.5280 C   0  0  0  0  0  0
  -21.4018   -6.5645   23.8218 C   0  0  0  0  0  0
  -21.3658   -5.6793   24.9178 C   0  0  0  0  0  0
  -21.6039   -4.3056   24.7225 C   0  0  0  0  0  0
  -21.8818   -3.8152   23.4346 C   0  0  0  0  0  0
  -21.9193   -4.6970   22.3404 C   0  0  0  0  0  0
  -22.7812  -13.5237   21.1884 C   0  0  0  0  0  0
  -22.1659   -4.2160   21.0980 F   0  0  0  0  0  0
  -21.5626   -3.4537   25.7736 F   0  0  0  0  0  0
  -29.9978  -13.4506   20.4051 N   0  0  0  0  0  0
  -26.2935  -12.9411   20.3286 N   0  0  0  0  0  0
  -25.9305  -11.6556   20.5757 N   0  0  0  0  0  0
  -22.0453  -12.8226   22.0441 N   0  0  0  0  0  0
  -25.4195  -15.1933   20.4116 N   0  0  0  0  0  0
  -31.8630  -14.6982   20.1460 O   0  0  0  0  0  0
  -21.6637   -6.8886   21.4240 O   0  0  0  0  0  0
  -22.3495  -14.5541   20.6732 O   0  0  0  0  0  0
  -24.6250  -31.8605   23.2020 C   0  0  0  0  0  0
  -25.9102  -32.4787   23.8348 C   0  0  1  0  0  0
  -27.2236  -27.3269   20.1256 C   0  0  0  0  0  0
  -25.5919  -33.8582   24.2287 N   0  0  0  0  0  0
  -23.4193  -30.4825   21.5441 C   0  0  2  0  0  0
  -24.8671  -28.9358   20.1125 C   0  0  0  0  0  0
  -22.7472  -29.4622   22.4936 C   0  0  0  0  0  0
  -18.0286  -28.1394   22.8491 C   0  0  0  0  0  0
  -24.1481  -36.7293   23.2640 C   0  0  0  0  0  0
  -25.9581  -30.7954   21.3689 C   0  0  0  0  0  0
  -26.0349  -29.4210   20.7161 C   0  0  0  0  0  0
  -27.2205  -28.6286   20.7106 C   0  0  0  0  0  0
  -26.0395  -26.8925   19.4940 C   0  0  0  0  0  0
  -24.8701  -27.6762   19.4918 C   0  0  0  0  0  0
  -23.6343  -29.8149   20.1600 C   0  0  0  0  0  0
  -25.4107  -36.3092   24.0337 C   0  0  1  0  0  0
  -20.5886  -28.3695   23.1287 C   0  0  2  0  0  0
  -20.6776  -26.9419   22.5415 C   0  0  0  0  0  0
  -19.5752  -26.6393   21.5217 C   0  0  0  0  0  0
  -18.1932  -26.7938   22.1628 C   0  0  0  0  0  0
  -19.1539  -28.8861   23.2886 C   0  0  0  0  0  0
  -18.9461  -30.1464   23.8903 C   0  0  0  0  0  0
  -17.6463  -30.6597   24.0568 C   0  0  0  0  0  0
  -25.9043  -34.9458   23.5115 C   0  0  0  0  0  0
  -16.5353  -29.9099   23.6329 C   0  0  0  0  0  0
  -16.7274  -28.6515   23.0351 C   0  0  0  0  0  0
  -26.4494  -31.6589   25.0707 C   0  0  0  0  0  0
  -25.3737  -31.3724   26.1442 C   0  0  0  0  0  0
  -27.0333  -30.3019   24.6139 C   0  0  0  0  0  0
  -27.6058  -32.4312   25.7483 C   0  0  0  0  0  0
  -27.5576  -37.1806   24.8474 C   0  0  0  0  0  0
  -21.4185  -29.3047   22.3681 N   0  0  0  0  0  0
  -26.4288  -37.3783   23.9413 N   0  0  0  0  0  0
  -24.6865  -31.0622   22.0963 N   0  0  0  0  0  0
  -23.4192  -28.8160   23.3018 O   0  0  0  0  0  0
  -28.3273  -26.4669   20.1494 O   0  0  0  0  0  0
  -26.5613  -34.8926   22.4680 O   0  0  0  0  0  0
  -23.5412  -32.1393   23.7355 O   0  0  0  0  0  0
  -30.2531  -19.5837   19.5517 C   0  0  0  0  0  0
  -28.9576  -18.9195   21.4634 C   0  0  0  0  0  0
  -29.7890  -20.9289   19.6702 C   0  0  0  0  0  0
  -28.4924  -20.2662   21.5799 C   0  0  0  0  0  0
  -29.8692  -18.5439   20.4472 C   0  0  0  0  0  0
  -28.9031  -21.3133   20.7071 C   0  0  0  0  0  0
  -30.5970  -17.1497   20.3608 C   0  0  0  0  0  0
  -28.7904  -23.8070   20.1704 C   0  0  0  0  0  0
  -28.1065  -25.1286   20.7483 C   0  0  0  0  0  0
  -29.9752  -15.8087   20.6519 N   0  0  0  0  0  0
  -28.4178  -22.6165   20.9435 O   0  0  0  0  0  0
  -31.4631  -12.4723   19.1729 H   0  0  0  0  0  0
  -30.3237  -11.4080   19.9445 H   0  0  0  0  0  0
  -29.7676  -11.7109   17.5050 H   0  0  0  0  0  0
  -29.6533  -13.4389   17.7294 H   0  0  0  0  0  0
  -27.8592  -11.2836   18.8911 H   0  0  0  0  0  0
  -27.3741  -12.5462   17.7929 H   0  0  0  0  0  0
  -27.6469  -14.2531   19.4790 H   0  0  0  0  0  0
  -28.6952  -12.1478   21.4330 H   0  0  0  0  0  0
  -28.4413  -13.8387   21.7905 H   0  0  0  0  0  0
  -25.2758   -9.5702   22.4762 H   0  0  0  0  0  0
  -24.0013   -7.4634   22.7451 H   0  0  0  0  0  0
  -21.0847   -8.8781   19.8940 H   0  0  0  0  0  0
  -22.3691  -10.9688   19.6168 H   0  0  0  0  0  0
  -21.2012   -7.6153   23.9732 H   0  0  0  0  0  0
  -21.1475   -6.0517   25.9083 H   0  0  0  0  0  0
  -22.0595   -2.7616   23.2841 H   0  0  0  0  0  0
  -22.4067  -11.9903   22.4859 H   0  0  0  0  0  0
  -21.1059  -13.1239   22.2617 H   0  0  0  0  0  0
  -24.6509  -15.8457   20.5245 H   0  0  0  0  0  0
  -26.2650  -15.6354   20.0742 H   0  0  0  0  0  0
  -26.7167  -32.5474   23.1095 H   0  0  0  0  0  0
  -25.0082  -33.9724   25.0444 H   0  0  0  0  0  0
  -22.7126  -31.3024   21.3998 H   0  0  0  0  0  0
  -23.3742  -35.9627   23.3315 H   0  0  0  0  0  0
  -24.3570  -36.8893   22.2050 H   0  0  0  0  0  0
  -23.7229  -37.6501   23.6641 H   0  0  0  0  0  0
  -26.0798  -31.5546   20.5949 H   0  0  0  0  0  0
  -26.8420  -30.8530   21.9920 H   0  0  0  0  0  0
  -28.1184  -28.9947   21.1880 H   0  0  0  0  0  0
  -26.0123  -25.9257   19.0111 H   0  0  0  0  0  0
  -23.9758  -27.2988   19.0146 H   0  0  0  0  0  0
  -23.7544  -30.5901   19.4023 H   0  0  0  0  0  0
  -22.7551  -29.2436   19.8579 H   0  0  0  0  0  0
  -25.1280  -36.1954   25.0829 H   0  0  0  0  0  0
  -20.9980  -28.3277   24.1407 H   0  0  0  0  0  0
  -20.5682  -26.2309   23.3616 H   0  0  0  0  0  0
  -21.6645  -26.7460   22.1204 H   0  0  0  0  0  0
  -19.6912  -25.6302   21.1249 H   0  0  0  0  0  0
  -19.6686  -27.3203   20.6744 H   0  0  0  0  0  0
  -17.4200  -26.6684   21.4032 H   0  0  0  0  0  0
  -18.0332  -26.0084   22.9027 H   0  0  0  0  0  0
  -19.7937  -30.7281   24.2270 H   0  0  0  0  0  0
  -17.5019  -31.6276   24.5176 H   0  0  0  0  0  0
  -15.5355  -30.3006   23.7654 H   0  0  0  0  0  0
  -15.8670  -28.0842   22.7059 H   0  0  0  0  0  0
  -24.5915  -30.7065   25.7775 H   0  0  0  0  0  0
  -24.8924  -32.2891   26.4860 H   0  0  0  0  0  0
  -25.8075  -30.8912   27.0217 H   0  0  0  0  0  0
  -26.2900  -29.6774   24.1170 H   0  0  0  0  0  0
  -27.4050  -29.7265   25.4626 H   0  0  0  0  0  0
  -27.8754  -30.4308   23.9337 H   0  0  0  0  0  0
  -27.2675  -33.3605   26.2073 H   0  0  0  0  0  0
  -28.3872  -32.6881   25.0320 H   0  0  0  0  0  0
  -28.0722  -31.8428   26.5393 H   0  0  0  0  0  0
  -28.2615  -38.0083   24.7502 H   0  0  0  0  0  0
  -28.1049  -36.2617   24.6321 H   0  0  0  0  0  0
  -27.2297  -37.1489   25.8879 H   0  0  0  0  0  0
  -20.9362  -29.8772   21.6893 H   0  0  0  0  0  0
  -26.0177  -38.2860   24.1408 H   0  0  0  0  0  0
  -30.9592  -19.3597   18.7640 H   0  0  0  0  0  0
  -28.6430  -18.1886   22.1952 H   0  0  0  0  0  0
  -30.1424  -21.6650   18.9623 H   0  0  0  0  0  0
  -27.8175  -20.5077   22.3889 H   0  0  0  0  0  0
  -31.4700  -17.2366   21.0102 H   0  0  0  0  0  0
  -31.0071  -17.0843   19.3509 H   0  0  0  0  0  0
  -29.8755  -23.9180   20.1773 H   0  0  0  0  0  0
  -28.4907  -23.6629   19.1322 H   0  0  0  0  0  0
  -28.4322  -25.2246   21.7846 H   0  0  0  0  0  0
  -27.0405  -24.9172   20.8294 H   0  0  0  0  0  0
  -28.9880  -15.7630   20.8520 H   0  0  0  0  0  0
  1 25  1  0  0  0
  1 30  2  0  0  0
  1 80  1  0  0  0
  2  3  1  0  0  0
  2 25  1  0  0  0
  2 82  1  0  0  0
  2 83  1  0  0  0
  3  4  1  0  0  0
  3 84  1  0  0  0
  3 85  1  0  0  0
  4  5  1  0  0  0
  4 86  1  0  0  0
  4 87  1  0  0  0
  5  6  1  0  0  0
  5 26  1  0  0  0
  5 88  1  0  0  0
  6 25  1  0  0  0
  6 89  1  0  0  0
  6 90  1  0  0  0
  7  8  2  0  0  0
  7 26  1  0  0  0
  7 29  1  0  0  0
  8  9  1  0  0  0
  8 22  1  0  0  0
  9 10  1  0  0  0
  9 27  2  0  0  0
 10 11  2  0  0  0
 10 15  1  0  0  0
 11 12  1  0  0  0
 11 91  1  0  0  0
 12 13  2  0  0  0
 12 92  1  0  0  0
 13 14  1  0  0  0
 13 31  1  0  0  0
 14 15  2  0  0  0
 14 93  1  0  0  0
 15 94  1  0  0  0
 16 17  2  0  0  0
 16 21  1  0  0  0
 16 31  1  0  0  0
 17 18  1  0  0  0
 17 95  1  0  0  0
 18 19  2  0  0  0
 18 96  1  0  0  0
 19 20  1  0  0  0
 19 24  1  0  0  0
 20 21  2  0  0  0
 20 97  1  0  0  0
 21 23  1  0  0  0
 22 28  1  0  0  0
 22 32  2  0  0  0
 26 27  1  0  0  0
 28 98  1  0  0  0
 28 99  1  0  0  0
 29100  1  0  0  0
 29101  1  0  0  0
 33 34  1  0  0  0
 33 66  1  0  0  0
 33 70  2  0  0  0
 34 36  1  0  0  0
 34 59  1  0  0  0
 34102  1  0  0  0
 35 44  2  0  0  0
 35 45  1  0  0  0
 35 68  1  0  0  0
 36 56  1  0  0  0
 36103  1  0  0  0
 37 39  1  0  0  0
 37 47  1  0  0  0
 37 66  1  0  0  0
 37104  1  0  0  0
 38 43  2  0  0  0
 38 46  1  0  0  0
 38 47  1  0  0  0
 39 64  1  0  0  0
 39 67  2  0  0  0
 40 52  1  0  0  0
 40 53  2  0  0  0
 40 58  1  0  0  0
 41105  1  0  0  0
 41106  1  0  0  0
 41107  1  0  0  0
 41 48  1  0  0  0
 42 43  1  0  0  0
 42 66  1  0  0  0
 42108  1  0  0  0
 42109  1  0  0  0
 43 44  1  0  0  0
 44110  1  0  0  0
 45 46  2  0  0  0
 45111  1  0  0  0
 46112  1  0  0  0
 47113  1  0  0  0
 47114  1  0  0  0
 48 56  1  0  0  0
 48 65  1  0  0  0
 48115  1  0  0  0
 49 50  1  0  0  0
 49 53  1  0  0  0
 49 64  1  0  0  0
 49116  1  0  0  0
 50 51  1  0  0  0
 50117  1  0  0  0
 50118  1  0  0  0
 51 52  1  0  0  0
 51119  1  0  0  0
 51120  1  0  0  0
 52121  1  0  0  0
 52122  1  0  0  0
 53 54  1  0  0  0
 54 55  2  0  0  0
 54123  1  0  0  0
 55 57  1  0  0  0
 55124  1  0  0  0
 56 69  2  0  0  0
 57 58  2  0  0  0
 57125  1  0  0  0
 58126  1  0  0  0
 59 60  1  0  0  0
 59 61  1  0  0  0
 59 62  1  0  0  0
 60127  1  0  0  0
 60128  1  0  0  0
 60129  1  0  0  0
 61130  1  0  0  0
 61131  1  0  0  0
 61132  1  0  0  0
 62133  1  0  0  0
 62134  1  0  0  0
 62135  1  0  0  0
 63 65  1  0  0  0
 63136  1  0  0  0
 63137  1  0  0  0
 63138  1  0  0  0
 64139  1  0  0  0
 65140  1  0  0  0
 68 79  1  0  0  0
 71 73  2  0  0  0
 71 75  1  0  0  0
 71141  1  0  0  0
 72 74  1  0  0  0
 72 75  2  0  0  0
 72142  1  0  0  0
 73 76  1  0  0  0
 73143  1  0  0  0
 74 76  2  0  0  0
 74144  1  0  0  0
 75 77  1  0  0  0
 76 81  1  0  0  0
 77 80  1  0  0  0
 77145  1  0  0  0
 77146  1  0  0  0
 78 79  1  0  0  0
 78 81  1  0  0  0
 78147  1  0  0  0
 78148  1  0  0  0
 79149  1  0  0  0
 79150  1  0  0  0
 80151  1  0  0  0
M  ISO  4   1 100  68 101  79 101  80 100
M  END
> <chiral flag>
0

> <version>
0

> <s_m_source_file>
/data/baiqing/PycharmProjects/Reinvent-master-3.2/result/LINK_invent/BTK/process_docking_weight1_custom_sum_contain_oxygen_bond_distance_aromatic_linkinvent_7_9_3/rearranged_h_0000.sdf

> <i_m_source_file_index>
54

> <r_mmod_Potential_Energy-OPLS-2005>
36.7274284362793

> <r_mmod_Stretch_Energy-OPLS-2005>
76.701904296875

> <r_mmod_Bend_Energy-OPLS-2005>
155.474868774414

> <r_mmod_Torsional_Energy-OPLS-2005>
221.02214050293

> <r_mmod_Improper_Torsional_Energy-OPLS-2005>
6.35961389541626

> <r_mmod_Van_der_Waal_Energy-OPLS-2005>
143.365112304688

> <r_mmod_Electrostatic_Energy-OPLS-2005>
-407.782104492188

> <r_mmod_Solvation_Energy-OPLS-2005>
-210.192901611328

> <b_mmod_Minimization_Converged-OPLS-2005>
0

> <r_mmod_RMS_Derivative-OPLS-2005>
0.90838497877121

$$$$
56
                    3D
 Structure written by MMmdl.
154162  0  0  1  0            999 V2000
  -30.7024  -14.4852   20.5506 C   0  0  0  0  0  0
  -30.4161  -12.3049   19.4431 C   0  0  0  0  0  0
  -29.4999  -12.5023   18.2180 C   0  0  0  0  0  0
  -28.0197  -12.3645   18.6235 C   0  0  0  0  0  0
  -27.6583  -13.2131   19.8726 C   0  0  2  0  0  0
  -28.6966  -13.0200   21.0019 C   0  0  0  0  0  0
  -25.2550  -13.8176   20.5674 C   0  0  0  0  0  0
  -24.1812  -13.0444   20.9174 C   0  0  0  0  0  0
  -24.6376  -11.6912   20.8722 C   0  0  0  0  0  0
  -23.9051  -10.4294   21.0392 C   0  0  0  0  0  0
  -24.3606   -9.4214   21.9174 C   0  0  0  0  0  0
  -23.6285   -8.2247   22.0750 C   0  0  0  0  0  0
  -22.4264   -8.0281   21.3544 C   0  0  0  0  0  0
  -21.9897   -9.0252   20.4644 C   0  0  0  0  0  0
  -22.7222  -10.2131   20.3047 C   0  0  0  0  0  0
  -21.6853   -6.0724   22.5278 C   0  0  0  0  0  0
  -21.4019   -6.5632   23.8209 C   0  0  0  0  0  0
  -21.3666   -5.6787   24.9175 C   0  0  0  0  0  0
  -21.6046   -4.3051   24.7227 C   0  0  0  0  0  0
  -21.8818   -3.8137   23.4350 C   0  0  0  0  0  0
  -21.9188   -4.6952   22.3400 C   0  0  0  0  0  0
  -22.7834  -13.5240   21.1846 C   0  0  0  0  0  0
  -22.1658   -4.2137   21.0978 F   0  0  0  0  0  0
  -21.5633   -3.4535   25.7742 F   0  0  0  0  0  0
  -30.0285  -13.3076   20.4480 N   0  0  0  0  0  0
  -26.2993  -12.9359   20.3338 N   0  0  0  0  0  0
  -25.9306  -11.6512   20.5743 N   0  0  0  0  0  0
  -22.0472  -12.8235   22.0403 N   0  0  0  0  0  0
  -25.4258  -15.1898   20.4102 N   0  0  0  0  0  0
  -31.8398  -14.6458   20.1038 O   0  0  0  0  0  0
  -21.6638   -6.8871   21.4239 O   0  0  0  0  0  0
  -22.3517  -14.5544   20.6696 O   0  0  0  0  0  0
  -24.6160  -31.8672   23.2092 C   0  0  0  0  0  0
  -25.9059  -32.4818   23.8388 C   0  0  1  0  0  0
  -27.2294  -27.4271   20.1076 C   0  0  0  0  0  0
  -25.5923  -33.8614   24.2335 N   0  0  0  0  0  0
  -23.4037  -30.4911   21.5495 C   0  0  2  0  0  0
  -24.8509  -28.9547   20.1144 C   0  0  0  0  0  0
  -22.7409  -29.4664   22.4992 C   0  0  0  0  0  0
  -18.0276  -28.1378   22.8499 C   0  0  0  0  0  0
  -24.1489  -36.7306   23.2637 C   0  0  0  0  0  0
  -25.9319  -30.8345   21.3589 C   0  0  0  0  0  0
  -26.0118  -29.4661   20.7099 C   0  0  0  0  0  0
  -27.2084  -28.7108   20.7008 C   0  0  0  0  0  0
  -26.0560  -26.9332   19.5006 C   0  0  0  0  0  0
  -24.8678  -27.6878   19.5046 C   0  0  0  0  0  0
  -23.6124  -29.8217   20.1644 C   0  0  0  0  0  0
  -25.4108  -36.3108   24.0340 C   0  0  1  0  0  0
  -20.5865  -28.3668   23.1325 C   0  0  2  0  0  0
  -20.6768  -26.9409   22.5418 C   0  0  0  0  0  0
  -19.5746  -26.6394   21.5212 C   0  0  0  0  0  0
  -18.1925  -26.7929   22.1625 C   0  0  0  0  0  0
  -19.1523  -28.8837   23.2913 C   0  0  0  0  0  0
  -18.9452  -30.1447   23.8920 C   0  0  0  0  0  0
  -17.6453  -30.6586   24.0566 C   0  0  0  0  0  0
  -25.9034  -34.9475   23.5128 C   0  0  0  0  0  0
  -16.5344  -29.9086   23.6329 C   0  0  0  0  0  0
  -16.7266  -28.6500   23.0352 C   0  0  0  0  0  0
  -26.4484  -31.6584   25.0706 C   0  0  0  0  0  0
  -25.3757  -31.3684   26.1456 C   0  0  0  0  0  0
  -27.0303  -30.3034   24.6057 C   0  0  0  0  0  0
  -27.6070  -32.4278   25.7473 C   0  0  0  0  0  0
  -27.5577  -37.1814   24.8473 C   0  0  0  0  0  0
  -21.4138  -29.3034   22.3726 N   0  0  0  0  0  0
  -26.4298  -37.3788   23.9405 N   0  0  0  0  0  0
  -24.6692  -31.0786   22.0983 N   0  0  0  0  0  0
  -23.4177  -28.8212   23.3040 O   0  0  0  0  0  0
  -28.3661  -26.6473   20.1154 O   0  0  0  0  0  0
  -26.5581  -34.8927   22.4683 O   0  0  0  0  0  0
  -23.5357  -32.1420   23.7494 O   0  0  0  0  0  0
  -29.9421  -22.9937   18.4478 C   0  0  0  0  0  0
  -29.4641  -24.1898   19.0216 C   0  0  0  0  0  0
  -29.7559  -21.7580   19.1022 C   0  0  0  0  0  0
  -28.6092  -22.9113   20.9105 C   0  0  0  0  0  0
  -28.7872  -24.1605   20.2589 C   0  0  0  0  0  0
  -29.0915  -21.7017   20.3458 C   0  0  0  0  0  0
  -28.2469  -25.4428   20.9035 C   0  0  0  0  0  0
  -28.8333  -20.3563   21.0397 C   0  0  0  0  0  0
  -30.4217  -16.9439   20.7880 C   0  0  0  0  0  0
  -29.3499  -18.0053   21.1456 C   0  0  0  0  0  0
  -29.9909  -15.5446   20.9825 N   0  0  0  0  0  0
  -29.7258  -19.3003   20.6512 O   0  0  0  0  0  0
  -31.4653  -12.3841   19.1534 H   0  0  0  0  0  0
  -30.2989  -11.3003   19.8529 H   0  0  0  0  0  0
  -29.7466  -11.7766   17.4420 H   0  0  0  0  0  0
  -29.6729  -13.4872   17.7811 H   0  0  0  0  0  0
  -27.8297  -11.3100   18.8265 H   0  0  0  0  0  0
  -27.3746  -12.6333   17.7861 H   0  0  0  0  0  0
  -27.6957  -14.2573   19.5607 H   0  0  0  0  0  0
  -28.6665  -11.9967   21.3783 H   0  0  0  0  0  0
  -28.4604  -13.6541   21.8577 H   0  0  0  0  0  0
  -25.2753   -9.5691   22.4748 H   0  0  0  0  0  0
  -23.9994   -7.4638   22.7475 H   0  0  0  0  0  0
  -21.0827   -8.8767   19.8950 H   0  0  0  0  0  0
  -22.3681  -10.9665   19.6154 H   0  0  0  0  0  0
  -21.2018   -7.6141   23.9714 H   0  0  0  0  0  0
  -21.1495   -6.0516   25.9078 H   0  0  0  0  0  0
  -22.0588   -2.7598   23.2848 H   0  0  0  0  0  0
  -22.4082  -11.9902   22.4809 H   0  0  0  0  0  0
  -21.1090  -13.1260   22.2613 H   0  0  0  0  0  0
  -24.6561  -15.8425   20.5147 H   0  0  0  0  0  0
  -26.2774  -15.6298   20.0854 H   0  0  0  0  0  0
  -26.7129  -32.5540   23.1150 H   0  0  0  0  0  0
  -25.0120  -33.9768   25.0516 H   0  0  0  0  0  0
  -22.6930  -31.3087   21.4100 H   0  0  0  0  0  0
  -23.3743  -35.9649   23.3319 H   0  0  0  0  0  0
  -24.3586  -36.8892   22.2048 H   0  0  0  0  0  0
  -23.7250  -37.6526   23.6623 H   0  0  0  0  0  0
  -26.0393  -31.5989   20.5876 H   0  0  0  0  0  0
  -26.8217  -30.8932   21.9737 H   0  0  0  0  0  0
  -28.1041  -29.0992   21.1655 H   0  0  0  0  0  0
  -26.0616  -25.9588   19.0317 H   0  0  0  0  0  0
  -23.9756  -27.2878   19.0422 H   0  0  0  0  0  0
  -23.7175  -30.5946   19.4020 H   0  0  0  0  0  0
  -22.7366  -29.2403   19.8719 H   0  0  0  0  0  0
  -25.1290  -36.1971   25.0833 H   0  0  0  0  0  0
  -20.9969  -28.3227   24.1441 H   0  0  0  0  0  0
  -20.5676  -26.2275   23.3602 H   0  0  0  0  0  0
  -21.6642  -26.7454   22.1211 H   0  0  0  0  0  0
  -19.6906  -25.6309   21.1231 H   0  0  0  0  0  0
  -19.6683  -27.3212   20.6748 H   0  0  0  0  0  0
  -17.4201  -26.6686   21.4021 H   0  0  0  0  0  0
  -18.0320  -26.0063   22.9015 H   0  0  0  0  0  0
  -19.7926  -30.7259   24.2296 H   0  0  0  0  0  0
  -17.5006  -31.6270   24.5164 H   0  0  0  0  0  0
  -15.5345  -30.2992   23.7642 H   0  0  0  0  0  0
  -15.8669  -28.0823   22.7060 H   0  0  0  0  0  0
  -24.5961  -30.6985   25.7806 H   0  0  0  0  0  0
  -24.8909  -32.2833   26.4875 H   0  0  0  0  0  0
  -25.8133  -30.8896   27.0226 H   0  0  0  0  0  0
  -26.2837  -29.6804   24.1116 H   0  0  0  0  0  0
  -27.4097  -29.7253   25.4493 H   0  0  0  0  0  0
  -27.8661  -30.4361   23.9181 H   0  0  0  0  0  0
  -27.2717  -33.3583   26.2063 H   0  0  0  0  0  0
  -28.3889  -32.6812   25.0302 H   0  0  0  0  0  0
  -28.0719  -31.8376   26.5383 H   0  0  0  0  0  0
  -28.2624  -38.0081   24.7496 H   0  0  0  0  0  0
  -28.1044  -36.2619   24.6331 H   0  0  0  0  0  0
  -27.2298  -37.1512   25.8877 H   0  0  0  0  0  0
  -20.9293  -29.8763   21.6958 H   0  0  0  0  0  0
  -26.0188  -38.2874   24.1378 H   0  0  0  0  0  0
  -30.4520  -23.0249   17.4943 H   0  0  0  0  0  0
  -29.6149  -25.1279   18.5056 H   0  0  0  0  0  0
  -30.1180  -20.8502   18.6392 H   0  0  0  0  0  0
  -28.0824  -22.8812   21.8543 H   0  0  0  0  0  0
  -28.7976  -25.6058   21.8305 H   0  0  0  0  0  0
  -27.2162  -25.2480   21.2077 H   0  0  0  0  0  0
  -27.8052  -20.0668   20.8178 H   0  0  0  0  0  0
  -28.8987  -20.4951   22.1200 H   0  0  0  0  0  0
  -31.3308  -17.1288   21.3634 H   0  0  0  0  0  0
  -30.6938  -17.0722   19.7388 H   0  0  0  0  0  0
  -29.2171  -18.0404   22.2284 H   0  0  0  0  0  0
  -28.3895  -17.7261   20.7100 H   0  0  0  0  0  0
  -29.0553  -15.3733   21.3192 H   0  0  0  0  0  0
  1 25  1  0  0  0
  1 30  2  0  0  0
  1 81  1  0  0  0
  2  3  1  0  0  0
  2 25  1  0  0  0
  2 83  1  0  0  0
  2 84  1  0  0  0
  3  4  1  0  0  0
  3 85  1  0  0  0
  3 86  1  0  0  0
  4  5  1  0  0  0
  4 87  1  0  0  0
  4 88  1  0  0  0
  5  6  1  0  0  0
  5 26  1  0  0  0
  5 89  1  0  0  0
  6 25  1  0  0  0
  6 90  1  0  0  0
  6 91  1  0  0  0
  7  8  2  0  0  0
  7 26  1  0  0  0
  7 29  1  0  0  0
  8  9  1  0  0  0
  8 22  1  0  0  0
  9 10  1  0  0  0
  9 27  2  0  0  0
 10 11  2  0  0  0
 10 15  1  0  0  0
 11 12  1  0  0  0
 11 92  1  0  0  0
 12 13  2  0  0  0
 12 93  1  0  0  0
 13 14  1  0  0  0
 13 31  1  0  0  0
 14 15  2  0  0  0
 14 94  1  0  0  0
 15 95  1  0  0  0
 16 17  2  0  0  0
 16 21  1  0  0  0
 16 31  1  0  0  0
 17 18  1  0  0  0
 17 96  1  0  0  0
 18 19  2  0  0  0
 18 97  1  0  0  0
 19 20  1  0  0  0
 19 24  1  0  0  0
 20 21  2  0  0  0
 20 98  1  0  0  0
 21 23  1  0  0  0
 22 28  1  0  0  0
 22 32  2  0  0  0
 26 27  1  0  0  0
 28 99  1  0  0  0
 28100  1  0  0  0
 29101  1  0  0  0
 29102  1  0  0  0
 33 34  1  0  0  0
 33 66  1  0  0  0
 33 70  2  0  0  0
 34 36  1  0  0  0
 34 59  1  0  0  0
 34103  1  0  0  0
 35 44  2  0  0  0
 35 45  1  0  0  0
 35 68  1  0  0  0
 36 56  1  0  0  0
 36104  1  0  0  0
 37 39  1  0  0  0
 37 47  1  0  0  0
 37 66  1  0  0  0
 37105  1  0  0  0
 38 43  2  0  0  0
 38 46  1  0  0  0
 38 47  1  0  0  0
 39 64  1  0  0  0
 39 67  2  0  0  0
 40 52  1  0  0  0
 40 53  2  0  0  0
 40 58  1  0  0  0
 41106  1  0  0  0
 41107  1  0  0  0
 41108  1  0  0  0
 41 48  1  0  0  0
 42 43  1  0  0  0
 42 66  1  0  0  0
 42109  1  0  0  0
 42110  1  0  0  0
 43 44  1  0  0  0
 44111  1  0  0  0
 45 46  2  0  0  0
 45112  1  0  0  0
 46113  1  0  0  0
 47114  1  0  0  0
 47115  1  0  0  0
 48 56  1  0  0  0
 48 65  1  0  0  0
 48116  1  0  0  0
 49 50  1  0  0  0
 49 53  1  0  0  0
 49 64  1  0  0  0
 49117  1  0  0  0
 50 51  1  0  0  0
 50118  1  0  0  0
 50119  1  0  0  0
 51 52  1  0  0  0
 51120  1  0  0  0
 51121  1  0  0  0
 52122  1  0  0  0
 52123  1  0  0  0
 53 54  1  0  0  0
 54 55  2  0  0  0
 54124  1  0  0  0
 55 57  1  0  0  0
 55125  1  0  0  0
 56 69  2  0  0  0
 57 58  2  0  0  0
 57126  1  0  0  0
 58127  1  0  0  0
 59 60  1  0  0  0
 59 61  1  0  0  0
 59 62  1  0  0  0
 60128  1  0  0  0
 60129  1  0  0  0
 60130  1  0  0  0
 61131  1  0  0  0
 61132  1  0  0  0
 61133  1  0  0  0
 62134  1  0  0  0
 62135  1  0  0  0
 62136  1  0  0  0
 63 65  1  0  0  0
 63137  1  0  0  0
 63138  1  0  0  0
 63139  1  0  0  0
 64140  1  0  0  0
 65141  1  0  0  0
 68 77  1  0  0  0
 71 72  2  0  0  0
 71 73  1  0  0  0
 71142  1  0  0  0
 72 75  1  0  0  0
 72143  1  0  0  0
 73 76  2  0  0  0
 73144  1  0  0  0
 74 75  2  0  0  0
 74 76  1  0  0  0
 74145  1  0  0  0
 75 77  1  0  0  0
 76 78  1  0  0  0
 77146  1  0  0  0
 77147  1  0  0  0
 78 82  1  0  0  0
 78148  1  0  0  0
 78149  1  0  0  0
 79 80  1  0  0  0
 79 81  1  0  0  0
 79150  1  0  0  0
 79151  1  0  0  0
 80 82  1  0  0  0
 80152  1  0  0  0
 80153  1  0  0  0
 81154  1  0  0  0
M  ISO  4   1 100  68 101  77 101  81 100
M  END
> <chiral flag>
0

> <version>
0

> <s_m_source_file>
/data/baiqing/PycharmProjects/Reinvent-master-3.2/result/LINK_invent/BTK/process_docking_weight1_custom_sum_contain_oxygen_bond_distance_aromatic_linkinvent_7_9_3/rearranged_h_0000.sdf

> <i_m_source_file_index>
55

> <r_mmod_Potential_Energy-OPLS-2005>
-77.9909820556641

> <r_mmod_Stretch_Energy-OPLS-2005>
39.0112113952637

> <r_mmod_Bend_Energy-OPLS-2005>
87.4208221435547

> <r_mmod_Torsional_Energy-OPLS-2005>
236.18017578125

> <r_mmod_Improper_Torsional_Energy-OPLS-2005>
4.8205828666687

> <r_mmod_Van_der_Waal_Energy-OPLS-2005>
148.603088378906

> <r_mmod_Electrostatic_Energy-OPLS-2005>
-400.709930419922

> <r_mmod_Solvation_Energy-OPLS-2005>
-208.717346191406

> <b_mmod_Minimization_Converged-OPLS-2005>
0

> <r_mmod_RMS_Derivative-OPLS-2005>
1.30166816711426

$$$$
57
                    3D
 Structure written by MMmdl.
162170  0  0  1  0            999 V2000
  -30.7742  -14.3806   20.6557 C   0  0  0  0  0  0
  -30.4044  -12.2956   19.3850 C   0  0  0  0  0  0
  -29.4715  -12.5160   18.1817 C   0  0  0  0  0  0
  -28.0009  -12.3628   18.6122 C   0  0  0  0  0  0
  -27.6600  -13.1951   19.8760 C   0  0  2  0  0  0
  -28.7054  -12.9631   20.9883 C   0  0  0  0  0  0
  -25.2598  -13.8061   20.5738 C   0  0  0  0  0  0
  -24.1827  -13.0385   20.9153 C   0  0  0  0  0  0
  -24.6361  -11.6844   20.8714 C   0  0  0  0  0  0
  -23.9019  -10.4259   21.0398 C   0  0  0  0  0  0
  -24.3572   -9.4183   21.9186 C   0  0  0  0  0  0
  -23.6257   -8.2218   22.0758 C   0  0  0  0  0  0
  -22.4244   -8.0247   21.3541 C   0  0  0  0  0  0
  -21.9863   -9.0224   20.4647 C   0  0  0  0  0  0
  -22.7180  -10.2110   20.3065 C   0  0  0  0  0  0
  -21.6843   -6.0697   22.5275 C   0  0  0  0  0  0
  -21.4004   -6.5611   23.8201 C   0  0  0  0  0  0
  -21.3667   -5.6776   24.9174 C   0  0  0  0  0  0
  -21.6057   -4.3040   24.7235 C   0  0  0  0  0  0
  -21.8813   -3.8115   23.4359 C   0  0  0  0  0  0
  -21.9189   -4.6926   22.3407 C   0  0  0  0  0  0
  -22.7867  -13.5232   21.1813 C   0  0  0  0  0  0
  -22.1662   -4.2102   21.0991 F   0  0  0  0  0  0
  -21.5647   -3.4537   25.7757 F   0  0  0  0  0  0
  -30.0338  -13.2624   20.4287 N   0  0  0  0  0  0
  -26.3028  -12.9243   20.3409 N   0  0  0  0  0  0
  -25.9290  -11.6406   20.5759 N   0  0  0  0  0  0
  -22.0494  -12.8275   22.0372 N   0  0  0  0  0  0
  -25.4373  -15.1765   20.4292 N   0  0  0  0  0  0
  -31.8483  -14.6071   20.0950 O   0  0  0  0  0  0
  -21.6623   -6.8835   21.4233 O   0  0  0  0  0  0
  -22.3594  -14.5563   20.6664 O   0  0  0  0  0  0
  -24.6123  -31.8670   23.2195 C   0  0  0  0  0  0
  -25.9026  -32.4814   23.8457 C   0  0  1  0  0  0
  -27.2369  -27.4468   20.0984 C   0  0  0  0  0  0
  -25.5901  -33.8608   24.2365 N   0  0  0  0  0  0
  -23.4031  -30.4993   21.5504 C   0  0  2  0  0  0
  -24.8537  -28.9691   20.1170 C   0  0  0  0  0  0
  -22.7436  -29.4700   22.4960 C   0  0  0  0  0  0
  -18.0339  -28.1308   22.8532 C   0  0  0  0  0  0
  -24.1498  -36.7302   23.2641 C   0  0  0  0  0  0
  -25.9342  -30.8408   21.3752 C   0  0  0  0  0  0
  -26.0125  -29.4795   20.7147 C   0  0  0  0  0  0
  -27.2066  -28.7228   20.7045 C   0  0  0  0  0  0
  -26.0569  -26.9530   19.4945 C   0  0  0  0  0  0
  -24.8704  -27.7050   19.5066 C   0  0  0  0  0  0
  -23.6131  -29.8289   20.1654 C   0  0  0  0  0  0
  -25.4106  -36.3085   24.0345 C   0  0  1  0  0  0
  -20.5917  -28.3676   23.1298 C   0  0  2  0  0  0
  -20.6837  -26.9395   22.5437 C   0  0  0  0  0  0
  -19.5814  -26.6291   21.5257 C   0  0  0  0  0  0
  -18.2032  -26.7806   22.1769 C   0  0  0  0  0  0
  -19.1574  -28.8825   23.2895 C   0  0  0  0  0  0
  -18.9476  -30.1461   23.8848 C   0  0  0  0  0  0
  -17.6464  -30.6575   24.0481 C   0  0  0  0  0  0
  -25.9012  -34.9454   23.5141 C   0  0  0  0  0  0
  -16.5376  -29.9017   23.6292 C   0  0  0  0  0  0
  -16.7324  -28.6399   23.0394 C   0  0  0  0  0  0
  -26.4462  -31.6612   25.0781 C   0  0  0  0  0  0
  -25.3766  -31.3696   26.1563 C   0  0  0  0  0  0
  -27.0275  -30.3046   24.6176 C   0  0  0  0  0  0
  -27.6057  -32.4329   25.7504 C   0  0  0  0  0  0
  -27.5579  -37.1799   24.8452 C   0  0  0  0  0  0
  -21.4167  -29.3102   22.3750 N   0  0  0  0  0  0
  -26.4294  -37.3770   23.9394 N   0  0  0  0  0  0
  -24.6671  -31.0816   22.1060 N   0  0  0  0  0  0
  -23.4237  -28.8143   23.2904 O   0  0  0  0  0  0
  -28.4217  -26.7386   20.1205 O   0  0  0  0  0  0
  -26.5566  -34.8907   22.4689 O   0  0  0  0  0  0
  -23.5325  -32.1400   23.7617 O   0  0  0  0  0  0
  -28.3356  -16.4581   22.3683 C   0  0  0  0  0  0
  -28.9647  -16.7227   20.0301 C   0  0  0  0  0  0
  -27.2705  -17.3607   22.1840 C   0  0  0  0  0  0
  -27.9057  -17.6333   19.8524 C   0  0  0  0  0  0
  -29.1851  -16.1284   21.2936 C   0  0  0  0  0  0
  -27.0477  -17.9637   20.9200 C   0  0  0  0  0  0
  -25.0262  -19.0455   21.6368 C   0  0  0  0  0  0
  -28.3932  -25.3185   19.9187 C   0  0  0  0  0  0
  -24.0251  -20.1068   21.1595 C   0  0  0  0  0  0
  -27.7324  -24.5460   21.0890 C   0  0  0  0  0  0
  -25.0067  -22.1072   20.2868 C   0  0  0  0  0  0
  -25.6394  -23.4372   20.7321 C   0  0  0  0  0  0
  -30.2887  -15.2701   21.5339 N   0  0  0  0  0  0
  -26.0325  -18.8551   20.6488 O   0  0  0  0  0  0
  -24.5434  -21.4053   21.4330 O   0  0  0  0  0  0
  -27.0615  -23.3705   20.6332 O   0  0  0  0  0  0
  -31.4486  -12.3804   19.0791 H   0  0  0  0  0  0
  -30.2894  -11.2798   19.7662 H   0  0  0  0  0  0
  -29.7022  -11.8014   17.3895 H   0  0  0  0  0  0
  -29.6361  -13.5081   17.7571 H   0  0  0  0  0  0
  -27.8240  -11.3052   18.8112 H   0  0  0  0  0  0
  -27.3359  -12.6342   17.7907 H   0  0  0  0  0  0
  -27.7067  -14.2426   19.5819 H   0  0  0  0  0  0
  -28.6809  -11.9269   21.3286 H   0  0  0  0  0  0
  -28.4681  -13.5590   21.8691 H   0  0  0  0  0  0
  -25.2709   -9.5671   22.4765 H   0  0  0  0  0  0
  -23.9956   -7.4616   22.7495 H   0  0  0  0  0  0
  -21.0780   -8.8745   19.8967 H   0  0  0  0  0  0
  -22.3617  -10.9662   19.6196 H   0  0  0  0  0  0
  -21.1981   -7.6117   23.9688 H   0  0  0  0  0  0
  -21.1514   -6.0517   25.9079 H   0  0  0  0  0  0
  -22.0584   -2.7573   23.2885 H   0  0  0  0  0  0
  -22.4070  -11.9910   22.4738 H   0  0  0  0  0  0
  -21.1152  -13.1384   22.2616 H   0  0  0  0  0  0
  -24.6996  -15.8397   20.6325 H   0  0  0  0  0  0
  -26.3401  -15.6148   20.2950 H   0  0  0  0  0  0
  -26.7104  -32.5545   23.1231 H   0  0  0  0  0  0
  -25.0094  -33.9747   25.0541 H   0  0  0  0  0  0
  -22.6931  -31.3170   21.4072 H   0  0  0  0  0  0
  -23.3747  -35.9649   23.3307 H   0  0  0  0  0  0
  -24.3604  -36.8903   22.2053 H   0  0  0  0  0  0
  -23.7267  -37.6519   23.6654 H   0  0  0  0  0  0
  -26.0598  -31.6217   20.6234 H   0  0  0  0  0  0
  -26.8136  -30.8810   22.0073 H   0  0  0  0  0  0
  -28.1063  -29.1013   21.1727 H   0  0  0  0  0  0
  -26.0252  -25.9951   19.0006 H   0  0  0  0  0  0
  -23.9791  -27.3078   19.0421 H   0  0  0  0  0  0
  -23.7138  -30.5947   19.3958 H   0  0  0  0  0  0
  -22.7417  -29.2375   19.8758 H   0  0  0  0  0  0
  -25.1282  -36.1965   25.0843 H   0  0  0  0  0  0
  -21.0031  -28.3241   24.1409 H   0  0  0  0  0  0
  -20.5694  -26.2314   23.3670 H   0  0  0  0  0  0
  -21.6715  -26.7362   22.1278 H   0  0  0  0  0  0
  -19.6996  -25.6155   21.1393 H   0  0  0  0  0  0
  -19.6701  -27.3010   20.6707 H   0  0  0  0  0  0
  -17.4225  -26.6360   21.4299 H   0  0  0  0  0  0
  -18.0635  -26.0029   22.9296 H   0  0  0  0  0  0
  -19.7920  -30.7329   24.2215 H   0  0  0  0  0  0
  -17.4991  -31.6287   24.5000 H   0  0  0  0  0  0
  -15.5366  -30.2871   23.7618 H   0  0  0  0  0  0
  -15.8752  -28.0613   22.7203 H   0  0  0  0  0  0
  -24.5953  -30.7003   25.7941 H   0  0  0  0  0  0
  -24.8938  -32.2826   26.5061 H   0  0  0  0  0  0
  -25.8170  -30.8869   27.0302 H   0  0  0  0  0  0
  -26.2816  -29.6845   24.1190 H   0  0  0  0  0  0
  -27.3957  -29.7256   25.4660 H   0  0  0  0  0  0
  -27.8716  -30.4318   23.9392 H   0  0  0  0  0  0
  -27.2692  -33.3611   26.2135 H   0  0  0  0  0  0
  -28.3832  -32.6918   25.0306 H   0  0  0  0  0  0
  -28.0789  -31.8439   26.5376 H   0  0  0  0  0  0
  -28.2587  -38.0103   24.7481 H   0  0  0  0  0  0
  -28.1078  -36.2622   24.6293 H   0  0  0  0  0  0
  -27.2287  -37.1473   25.8854 H   0  0  0  0  0  0
  -20.9321  -29.8967   21.7098 H   0  0  0  0  0  0
  -26.0186  -38.2854   24.1387 H   0  0  0  0  0  0
  -28.4919  -16.0173   23.3434 H   0  0  0  0  0  0
  -29.6097  -16.5034   19.1904 H   0  0  0  0  0  0
  -26.6412  -17.5704   23.0355 H   0  0  0  0  0  0
  -27.7490  -18.0827   18.8815 H   0  0  0  0  0  0
  -24.5040  -18.1005   21.7966 H   0  0  0  0  0  0
  -25.4557  -19.3583   22.5889 H   0  0  0  0  0  0
  -29.4245  -24.9747   19.8348 H   0  0  0  0  0  0
  -27.9471  -25.0751   18.9539 H   0  0  0  0  0  0
  -23.1092  -20.0051   21.7427 H   0  0  0  0  0  0
  -23.7402  -19.9504   20.1165 H   0  0  0  0  0  0
  -27.0632  -25.1834   21.6662 H   0  0  0  0  0  0
  -28.5033  -24.2400   21.7985 H   0  0  0  0  0  0
  -25.7171  -21.5108   19.7133 H   0  0  0  0  0  0
  -24.1588  -22.3075   19.6318 H   0  0  0  0  0  0
  -25.3335  -23.6612   21.7564 H   0  0  0  0  0  0
  -25.2558  -24.2461   20.1128 H   0  0  0  0  0  0
  -31.0366  -15.7501   22.0128 H   0  0  0  0  0  0
  1 25  1  0  0  0
  1 30  2  0  0  0
  1 83  1  0  0  0
  2  3  1  0  0  0
  2 25  1  0  0  0
  2 87  1  0  0  0
  2 88  1  0  0  0
  3  4  1  0  0  0
  3 89  1  0  0  0
  3 90  1  0  0  0
  4  5  1  0  0  0
  4 91  1  0  0  0
  4 92  1  0  0  0
  5  6  1  0  0  0
  5 26  1  0  0  0
  5 93  1  0  0  0
  6 25  1  0  0  0
  6 94  1  0  0  0
  6 95  1  0  0  0
  7  8  2  0  0  0
  7 26  1  0  0  0
  7 29  1  0  0  0
  8  9  1  0  0  0
  8 22  1  0  0  0
  9 10  1  0  0  0
  9 27  2  0  0  0
 10 11  2  0  0  0
 10 15  1  0  0  0
 11 12  1  0  0  0
 11 96  1  0  0  0
 12 13  2  0  0  0
 12 97  1  0  0  0
 13 14  1  0  0  0
 13 31  1  0  0  0
 14 15  2  0  0  0
 14 98  1  0  0  0
 15 99  1  0  0  0
 16 17  2  0  0  0
 16 21  1  0  0  0
 16 31  1  0  0  0
 17 18  1  0  0  0
 17100  1  0  0  0
 18 19  2  0  0  0
 18101  1  0  0  0
 19 20  1  0  0  0
 19 24  1  0  0  0
 20 21  2  0  0  0
 20102  1  0  0  0
 21 23  1  0  0  0
 22 28  1  0  0  0
 22 32  2  0  0  0
 26 27  1  0  0  0
 28103  1  0  0  0
 28104  1  0  0  0
 29105  1  0  0  0
 29106  1  0  0  0
 33 34  1  0  0  0
 33 66  1  0  0  0
 33 70  2  0  0  0
 34 36  1  0  0  0
 34 59  1  0  0  0
 34107  1  0  0  0
 35 44  2  0  0  0
 35 45  1  0  0  0
 35 68  1  0  0  0
 36 56  1  0  0  0
 36108  1  0  0  0
 37 39  1  0  0  0
 37 47  1  0  0  0
 37 66  1  0  0  0
 37109  1  0  0  0
 38 43  2  0  0  0
 38 46  1  0  0  0
 38 47  1  0  0  0
 39 64  1  0  0  0
 39 67  2  0  0  0
 40 52  1  0  0  0
 40 53  2  0  0  0
 40 58  1  0  0  0
 41110  1  0  0  0
 41111  1  0  0  0
 41112  1  0  0  0
 41 48  1  0  0  0
 42 43  1  0  0  0
 42 66  1  0  0  0
 42113  1  0  0  0
 42114  1  0  0  0
 43 44  1  0  0  0
 44115  1  0  0  0
 45 46  2  0  0  0
 45116  1  0  0  0
 46117  1  0  0  0
 47118  1  0  0  0
 47119  1  0  0  0
 48 56  1  0  0  0
 48 65  1  0  0  0
 48120  1  0  0  0
 49 50  1  0  0  0
 49 53  1  0  0  0
 49 64  1  0  0  0
 49121  1  0  0  0
 50 51  1  0  0  0
 50122  1  0  0  0
 50123  1  0  0  0
 51 52  1  0  0  0
 51124  1  0  0  0
 51125  1  0  0  0
 52126  1  0  0  0
 52127  1  0  0  0
 53 54  1  0  0  0
 54 55  2  0  0  0
 54128  1  0  0  0
 55 57  1  0  0  0
 55129  1  0  0  0
 56 69  2  0  0  0
 57 58  2  0  0  0
 57130  1  0  0  0
 58131  1  0  0  0
 59 60  1  0  0  0
 59 61  1  0  0  0
 59 62  1  0  0  0
 60132  1  0  0  0
 60133  1  0  0  0
 60134  1  0  0  0
 61135  1  0  0  0
 61136  1  0  0  0
 61137  1  0  0  0
 62138  1  0  0  0
 62139  1  0  0  0
 62140  1  0  0  0
 63 65  1  0  0  0
 63141  1  0  0  0
 63142  1  0  0  0
 63143  1  0  0  0
 64144  1  0  0  0
 65145  1  0  0  0
 68 78  1  0  0  0
 71 73  2  0  0  0
 71 75  1  0  0  0
 71146  1  0  0  0
 72 74  1  0  0  0
 72 75  2  0  0  0
 72147  1  0  0  0
 73 76  1  0  0  0
 73148  1  0  0  0
 74 76  2  0  0  0
 74149  1  0  0  0
 75 83  1  0  0  0
 76 84  1  0  0  0
 77 79  1  0  0  0
 77 84  1  0  0  0
 77150  1  0  0  0
 77151  1  0  0  0
 78 80  1  0  0  0
 78152  1  0  0  0
 78153  1  0  0  0
 79 85  1  0  0  0
 79154  1  0  0  0
 79155  1  0  0  0
 80 86  1  0  0  0
 80156  1  0  0  0
 80157  1  0  0  0
 81 82  1  0  0  0
 81 85  1  0  0  0
 81158  1  0  0  0
 81159  1  0  0  0
 82 86  1  0  0  0
 82160  1  0  0  0
 82161  1  0  0  0
 83162  1  0  0  0
M  ISO  4   1 100  68 101  78 101  83 100
M  END
> <chiral flag>
0

> <version>
0

> <s_m_source_file>
/data/baiqing/PycharmProjects/Reinvent-master-3.2/result/LINK_invent/BTK/process_docking_weight1_custom_sum_contain_oxygen_bond_distance_aromatic_linkinvent_7_9_3/rearranged_h_0000.sdf

> <i_m_source_file_index>
56

> <r_mmod_Potential_Energy-OPLS-2005>
-0.0545871406793594

> <r_mmod_Stretch_Energy-OPLS-2005>
33.9532661437988

> <r_mmod_Bend_Energy-OPLS-2005>
111.98168182373

> <r_mmod_Torsional_Energy-OPLS-2005>
260.162902832031

> <r_mmod_Improper_Torsional_Energy-OPLS-2005>
5.5890736579895

> <r_mmod_Van_der_Waal_Energy-OPLS-2005>
151.979965209961

> <r_mmod_Electrostatic_Energy-OPLS-2005>
-368.872436523438

> <r_mmod_Solvation_Energy-OPLS-2005>
-204.786804199219

> <b_mmod_Minimization_Converged-OPLS-2005>
0

> <r_mmod_RMS_Derivative-OPLS-2005>
3.30119204521179

$$$$
58
                    3D
 Structure written by MMmdl.
151159  0  0  1  0            999 V2000
  -30.6183  -14.6884   20.5139 C   0  0  0  0  0  0
  -30.4359  -12.4337   19.4638 C   0  0  0  0  0  0
  -29.5135  -12.5566   18.2311 C   0  0  0  0  0  0
  -28.0372  -12.3840   18.6297 C   0  0  0  0  0  0
  -27.6555  -13.2329   19.8715 C   0  0  2  0  0  0
  -28.6981  -13.0967   21.0054 C   0  0  0  0  0  0
  -25.2556  -13.8210   20.5713 C   0  0  0  0  0  0
  -24.1819  -13.0449   20.9188 C   0  0  0  0  0  0
  -24.6435  -11.6934   20.8744 C   0  0  0  0  0  0
  -23.9092  -10.4291   21.0363 C   0  0  0  0  0  0
  -24.3651   -9.4206   21.9131 C   0  0  0  0  0  0
  -23.6309   -8.2257   22.0720 C   0  0  0  0  0  0
  -22.4288   -8.0293   21.3541 C   0  0  0  0  0  0
  -21.9934   -9.0258   20.4628 C   0  0  0  0  0  0
  -22.7273  -10.2129   20.3016 C   0  0  0  0  0  0
  -21.6874   -6.0737   22.5277 C   0  0  0  0  0  0
  -21.4030   -6.5634   23.8203 C   0  0  0  0  0  0
  -21.3679   -5.6772   24.9165 C   0  0  0  0  0  0
  -21.6040   -4.3054   24.7207 C   0  0  0  0  0  0
  -21.8837   -3.8139   23.4323 C   0  0  0  0  0  0
  -21.9204   -4.6962   22.3389 C   0  0  0  0  0  0
  -22.7831  -13.5241   21.1808 C   0  0  0  0  0  0
  -22.1651   -4.2152   21.0969 F   0  0  0  0  0  0
  -21.5636   -3.4527   25.7714 F   0  0  0  0  0  0
  -30.0159  -13.4528   20.4529 N   0  0  0  0  0  0
  -26.3007  -12.9411   20.3353 N   0  0  0  0  0  0
  -25.9377  -11.6563   20.5761 N   0  0  0  0  0  0
  -22.0454  -12.8264   22.0419 N   0  0  0  0  0  0
  -25.4261  -15.1926   20.4188 N   0  0  0  0  0  0
  -31.7466  -14.8581   20.0396 O   0  0  0  0  0  0
  -21.6664   -6.8882   21.4224 O   0  0  0  0  0  0
  -22.3495  -14.5516   20.6631 O   0  0  0  0  0  0
  -24.6263  -31.8598   23.1996 C   0  0  0  0  0  0
  -25.9118  -32.4779   23.8327 C   0  0  1  0  0  0
  -27.2440  -27.3066   20.1323 C   0  0  0  0  0  0
  -25.5949  -33.8587   24.2276 N   0  0  0  0  0  0
  -23.4204  -30.4782   21.5458 C   0  0  2  0  0  0
  -24.8716  -28.9196   20.1219 C   0  0  0  0  0  0
  -22.7472  -29.4642   22.4998 C   0  0  0  0  0  0
  -18.0303  -28.1373   22.8479 C   0  0  0  0  0  0
  -24.1504  -36.7279   23.2632 C   0  0  0  0  0  0
  -25.9629  -30.7810   21.3774 C   0  0  0  0  0  0
  -26.0393  -29.4068   20.7226 C   0  0  0  0  0  0
  -27.2260  -28.6130   20.7158 C   0  0  0  0  0  0
  -26.0486  -26.8692   19.5151 C   0  0  0  0  0  0
  -24.8787  -27.6550   19.5111 C   0  0  0  0  0  0
  -23.6351  -29.7970   20.1681 C   0  0  0  0  0  0
  -25.4137  -36.3092   24.0332 C   0  0  1  0  0  0
  -20.5892  -28.3685   23.1288 C   0  0  2  0  0  0
  -20.6825  -26.9422   22.5401 C   0  0  0  0  0  0
  -19.5800  -26.6366   21.5226 C   0  0  0  0  0  0
  -18.1971  -26.7919   22.1604 C   0  0  0  0  0  0
  -19.1543  -28.8850   23.2867 C   0  0  0  0  0  0
  -18.9471  -30.1464   23.8859 C   0  0  0  0  0  0
  -17.6464  -30.6574   24.0553 C   0  0  0  0  0  0
  -25.9078  -34.9468   23.5103 C   0  0  0  0  0  0
  -16.5364  -29.9063   23.6332 C   0  0  0  0  0  0
  -16.7285  -28.6480   23.0351 C   0  0  0  0  0  0
  -26.4481  -31.6589   25.0709 C   0  0  0  0  0  0
  -25.3699  -31.3732   26.1424 C   0  0  0  0  0  0
  -27.0354  -30.3025   24.6179 C   0  0  0  0  0  0
  -27.6045  -32.4320   25.7470 C   0  0  0  0  0  0
  -27.5609  -37.1794   24.8455 C   0  0  0  0  0  0
  -21.4202  -29.3019   22.3689 N   0  0  0  0  0  0
  -26.4304  -37.3797   23.9413 N   0  0  0  0  0  0
  -24.6886  -31.0584   22.0967 N   0  0  0  0  0  0
  -23.4166  -28.8224   23.3136 O   0  0  0  0  0  0
  -28.3839  -26.4785   20.1614 O   0  0  0  0  0  0
  -26.5641  -34.8918   22.4668 O   0  0  0  0  0  0
  -23.5438  -32.1430   23.7307 O   0  0  0  0  0  0
  -30.3063  -17.7857   19.5591 C   0  0  0  0  0  0
  -29.3834  -18.0960   21.7608 C   0  0  0  0  0  0
  -30.1503  -19.1846   19.3131 C   0  0  0  0  0  0
  -29.2632  -19.5058   21.5264 C   0  0  0  0  0  0
  -29.9033  -17.1873   20.7885 C   0  0  0  0  0  0
  -29.6223  -20.0930   20.2781 C   0  0  0  0  0  0
  -29.4960  -24.0739   20.3620 C   0  0  0  0  0  0
  -29.4037  -22.5508   20.8796 C   0  0  0  0  0  0
  -28.2090  -25.0020   20.2058 C   0  0  0  0  0  0
  -29.8978  -15.7332   21.0433 N   0  0  0  0  0  0
  -29.4531  -21.4503   19.9079 O   0  0  0  0  0  0
  -31.4753  -12.5568   19.1615 H   0  0  0  0  0  0
  -30.3658  -11.4324   19.8887 H   0  0  0  0  0  0
  -29.7913  -11.8247   17.4695 H   0  0  0  0  0  0
  -29.6525  -13.5380   17.7753 H   0  0  0  0  0  0
  -27.8735  -11.3263   18.8296 H   0  0  0  0  0  0
  -27.3910  -12.6356   17.7882 H   0  0  0  0  0  0
  -27.6693  -14.2727   19.5484 H   0  0  0  0  0  0
  -28.7155  -12.0734   21.3863 H   0  0  0  0  0  0
  -28.4291  -13.7289   21.8511 H   0  0  0  0  0  0
  -25.2775   -9.5720   22.4711 H   0  0  0  0  0  0
  -24.0047   -7.4666   22.7467 H   0  0  0  0  0  0
  -21.0850   -8.8770   19.8950 H   0  0  0  0  0  0
  -22.3685  -10.9673   19.6153 H   0  0  0  0  0  0
  -21.2008   -7.6126   23.9721 H   0  0  0  0  0  0
  -21.1483   -6.0488   25.9079 H   0  0  0  0  0  0
  -22.0594   -2.7597   23.2816 H   0  0  0  0  0  0
  -22.4062  -11.9965   22.4895 H   0  0  0  0  0  0
  -21.1051  -13.1241   22.2523 H   0  0  0  0  0  0
  -24.6665  -15.8532   20.5436 H   0  0  0  0  0  0
  -26.2856  -15.6363   20.1247 H   0  0  0  0  0  0
  -26.7180  -32.5417   23.1067 H   0  0  0  0  0  0
  -25.0177  -33.9724   25.0473 H   0  0  0  0  0  0
  -22.7144  -31.2989   21.3978 H   0  0  0  0  0  0
  -23.3803  -35.9568   23.3274 H   0  0  0  0  0  0
  -24.3602  -36.8921   22.2046 H   0  0  0  0  0  0
  -23.7201  -37.6453   23.6661 H   0  0  0  0  0  0
  -26.1067  -31.5404   20.6075 H   0  0  0  0  0  0
  -26.8363  -30.8237   22.0166 H   0  0  0  0  0  0
  -28.1177  -28.9868   21.2001 H   0  0  0  0  0  0
  -25.9934  -25.9038   19.0360 H   0  0  0  0  0  0
  -23.9843  -27.2690   19.0415 H   0  0  0  0  0  0
  -23.7403  -30.5632   19.4004 H   0  0  0  0  0  0
  -22.7556  -29.2188   19.8770 H   0  0  0  0  0  0
  -25.1316  -36.1953   25.0827 H   0  0  0  0  0  0
  -20.9965  -28.3272   24.1415 H   0  0  0  0  0  0
  -20.5799  -26.2308   23.3595 H   0  0  0  0  0  0
  -21.6692  -26.7520   22.1159 H   0  0  0  0  0  0
  -19.6998  -25.6281   21.1261 H   0  0  0  0  0  0
  -19.6737  -27.3157   20.6745 H   0  0  0  0  0  0
  -17.4273  -26.6667   21.3983 H   0  0  0  0  0  0
  -18.0346  -26.0029   22.8950 H   0  0  0  0  0  0
  -19.7957  -30.7303   24.2150 H   0  0  0  0  0  0
  -17.5032  -31.6249   24.5162 H   0  0  0  0  0  0
  -15.5365  -30.2946   23.7697 H   0  0  0  0  0  0
  -15.8687  -28.0785   22.7088 H   0  0  0  0  0  0
  -24.5841  -30.7139   25.7725 H   0  0  0  0  0  0
  -24.8923  -32.2906   26.4872 H   0  0  0  0  0  0
  -25.7975  -30.8855   27.0188 H   0  0  0  0  0  0
  -26.2957  -29.6747   24.1210 H   0  0  0  0  0  0
  -27.4094  -29.7292   25.4666 H   0  0  0  0  0  0
  -27.8785  -30.4337   23.9399 H   0  0  0  0  0  0
  -27.2672  -33.3616   26.2050 H   0  0  0  0  0  0
  -28.3834  -32.6889   25.0286 H   0  0  0  0  0  0
  -28.0734  -31.8453   26.5370 H   0  0  0  0  0  0
  -28.2593  -38.0129   24.7612 H   0  0  0  0  0  0
  -28.1151  -36.2687   24.6170 H   0  0  0  0  0  0
  -27.2338  -37.1292   25.8850 H   0  0  0  0  0  0
  -20.9436  -29.8639   21.6781 H   0  0  0  0  0  0
  -26.0207  -38.2871   24.1430 H   0  0  0  0  0  0
  -30.7036  -17.1789   18.7545 H   0  0  0  0  0  0
  -29.0400  -17.7192   22.7203 H   0  0  0  0  0  0
  -30.4406  -19.5683   18.3432 H   0  0  0  0  0  0
  -28.8440  -20.1135   22.3196 H   0  0  0  0  0  0
  -30.0759  -24.0950   19.4386 H   0  0  0  0  0  0
  -30.1279  -24.5954   21.0820 H   0  0  0  0  0  0
  -28.5720  -22.4378   21.5775 H   0  0  0  0  0  0
  -30.3014  -22.3971   21.4825 H   0  0  0  0  0  0
  -27.5390  -24.7864   21.0384 H   0  0  0  0  0  0
  -27.7049  -24.6696   19.3012 H   0  0  0  0  0  0
  -29.1493  -15.4223   21.6469 H   0  0  0  0  0  0
  1 25  1  0  0  0
  1 30  2  0  0  0
  1 80  1  0  0  0
  2  3  1  0  0  0
  2 25  1  0  0  0
  2 82  1  0  0  0
  2 83  1  0  0  0
  3  4  1  0  0  0
  3 84  1  0  0  0
  3 85  1  0  0  0
  4  5  1  0  0  0
  4 86  1  0  0  0
  4 87  1  0  0  0
  5  6  1  0  0  0
  5 26  1  0  0  0
  5 88  1  0  0  0
  6 25  1  0  0  0
  6 89  1  0  0  0
  6 90  1  0  0  0
  7  8  2  0  0  0
  7 26  1  0  0  0
  7 29  1  0  0  0
  8  9  1  0  0  0
  8 22  1  0  0  0
  9 10  1  0  0  0
  9 27  2  0  0  0
 10 11  2  0  0  0
 10 15  1  0  0  0
 11 12  1  0  0  0
 11 91  1  0  0  0
 12 13  2  0  0  0
 12 92  1  0  0  0
 13 14  1  0  0  0
 13 31  1  0  0  0
 14 15  2  0  0  0
 14 93  1  0  0  0
 15 94  1  0  0  0
 16 17  2  0  0  0
 16 21  1  0  0  0
 16 31  1  0  0  0
 17 18  1  0  0  0
 17 95  1  0  0  0
 18 19  2  0  0  0
 18 96  1  0  0  0
 19 20  1  0  0  0
 19 24  1  0  0  0
 20 21  2  0  0  0
 20 97  1  0  0  0
 21 23  1  0  0  0
 22 28  1  0  0  0
 22 32  2  0  0  0
 26 27  1  0  0  0
 28 98  1  0  0  0
 28 99  1  0  0  0
 29100  1  0  0  0
 29101  1  0  0  0
 33 34  1  0  0  0
 33 66  1  0  0  0
 33 70  2  0  0  0
 34 36  1  0  0  0
 34 59  1  0  0  0
 34102  1  0  0  0
 35 44  2  0  0  0
 35 45  1  0  0  0
 35 68  1  0  0  0
 36 56  1  0  0  0
 36103  1  0  0  0
 37 39  1  0  0  0
 37 47  1  0  0  0
 37 66  1  0  0  0
 37104  1  0  0  0
 38 43  2  0  0  0
 38 46  1  0  0  0
 38 47  1  0  0  0
 39 64  1  0  0  0
 39 67  2  0  0  0
 40 52  1  0  0  0
 40 53  2  0  0  0
 40 58  1  0  0  0
 41105  1  0  0  0
 41106  1  0  0  0
 41107  1  0  0  0
 41 48  1  0  0  0
 42 43  1  0  0  0
 42 66  1  0  0  0
 42108  1  0  0  0
 42109  1  0  0  0
 43 44  1  0  0  0
 44110  1  0  0  0
 45 46  2  0  0  0
 45111  1  0  0  0
 46112  1  0  0  0
 47113  1  0  0  0
 47114  1  0  0  0
 48 56  1  0  0  0
 48 65  1  0  0  0
 48115  1  0  0  0
 49 50  1  0  0  0
 49 53  1  0  0  0
 49 64  1  0  0  0
 49116  1  0  0  0
 50 51  1  0  0  0
 50117  1  0  0  0
 50118  1  0  0  0
 51 52  1  0  0  0
 51119  1  0  0  0
 51120  1  0  0  0
 52121  1  0  0  0
 52122  1  0  0  0
 53 54  1  0  0  0
 54 55  2  0  0  0
 54123  1  0  0  0
 55 57  1  0  0  0
 55124  1  0  0  0
 56 69  2  0  0  0
 57 58  2  0  0  0
 57125  1  0  0  0
 58126  1  0  0  0
 59 60  1  0  0  0
 59 61  1  0  0  0
 59 62  1  0  0  0
 60127  1  0  0  0
 60128  1  0  0  0
 60129  1  0  0  0
 61130  1  0  0  0
 61131  1  0  0  0
 61132  1  0  0  0
 62133  1  0  0  0
 62134  1  0  0  0
 62135  1  0  0  0
 63 65  1  0  0  0
 63136  1  0  0  0
 63137  1  0  0  0
 63138  1  0  0  0
 64139  1  0  0  0
 65140  1  0  0  0
 68 79  1  0  0  0
 71 73  2  0  0  0
 71 75  1  0  0  0
 71141  1  0  0  0
 72 74  1  0  0  0
 72 75  2  0  0  0
 72142  1  0  0  0
 73 76  1  0  0  0
 73143  1  0  0  0
 74 76  2  0  0  0
 74144  1  0  0  0
 75 80  1  0  0  0
 76 81  1  0  0  0
 77 78  1  0  0  0
 77 79  1  0  0  0
 77145  1  0  0  0
 77146  1  0  0  0
 78 81  1  0  0  0
 78147  1  0  0  0
 78148  1  0  0  0
 79149  1  0  0  0
 79150  1  0  0  0
 80151  1  0  0  0
M  ISO  4   1 100  68 101  79 101  80 100
M  END
> <chiral flag>
0

> <version>
0

> <s_m_source_file>
/data/baiqing/PycharmProjects/Reinvent-master-3.2/result/LINK_invent/BTK/process_docking_weight1_custom_sum_contain_oxygen_bond_distance_aromatic_linkinvent_7_9_3/rearranged_h_0000.sdf

> <i_m_source_file_index>
57

> <r_mmod_Potential_Energy-OPLS-2005>
87.3086853027344

> <r_mmod_Stretch_Energy-OPLS-2005>
91.08984375

> <r_mmod_Bend_Energy-OPLS-2005>
159.319290161133

> <r_mmod_Torsional_Energy-OPLS-2005>
236.013916015625

> <r_mmod_Improper_Torsional_Energy-OPLS-2005>
3.05807876586914

> <r_mmod_Van_der_Waal_Energy-OPLS-2005>
138.714782714844

> <r_mmod_Electrostatic_Energy-OPLS-2005>
-383.976654052734

> <r_mmod_Solvation_Energy-OPLS-2005>
-214.270523071289

> <b_mmod_Minimization_Converged-OPLS-2005>
0

> <r_mmod_RMS_Derivative-OPLS-2005>
5.72391843795776

$$$$
59
                    3D
 Structure written by MMmdl.
151158  0  0  1  0            999 V2000
  -30.6553  -14.5615   20.5164 C   0  0  0  0  0  0
  -30.4343  -12.3448   19.4472 C   0  0  0  0  0  0
  -29.5058  -12.5000   18.2222 C   0  0  0  0  0  0
  -28.0269  -12.3522   18.6318 C   0  0  0  0  0  0
  -27.6599  -13.2100   19.8722 C   0  0  2  0  0  0
  -28.7030  -13.0341   21.0011 C   0  0  0  0  0  0
  -25.2584  -13.8162   20.5687 C   0  0  0  0  0  0
  -24.1839  -13.0436   20.9184 C   0  0  0  0  0  0
  -24.6399  -11.6904   20.8735 C   0  0  0  0  0  0
  -23.9065  -10.4291   21.0404 C   0  0  0  0  0  0
  -24.3613   -9.4209   21.9185 C   0  0  0  0  0  0
  -23.6290   -8.2244   22.0754 C   0  0  0  0  0  0
  -22.4274   -8.0280   21.3544 C   0  0  0  0  0  0
  -21.9908   -9.0255   20.4647 C   0  0  0  0  0  0
  -22.7234  -10.2136   20.3058 C   0  0  0  0  0  0
  -21.6852   -6.0737   22.5281 C   0  0  0  0  0  0
  -21.4013   -6.5642   23.8214 C   0  0  0  0  0  0
  -21.3659   -5.6793   24.9176 C   0  0  0  0  0  0
  -21.6042   -4.3056   24.7226 C   0  0  0  0  0  0
  -21.8819   -3.8149   23.4347 C   0  0  0  0  0  0
  -21.9193   -4.6966   22.3403 C   0  0  0  0  0  0
  -22.7864  -13.5235   21.1847 C   0  0  0  0  0  0
  -22.1662   -4.2151   21.0980 F   0  0  0  0  0  0
  -21.5628   -3.4539   25.7739 F   0  0  0  0  0  0
  -30.0293  -13.3503   20.4461 N   0  0  0  0  0  0
  -26.3021  -12.9338   20.3357 N   0  0  0  0  0  0
  -25.9330  -11.6495   20.5769 N   0  0  0  0  0  0
  -22.0500  -12.8230   22.0403 N   0  0  0  0  0  0
  -25.4306  -15.1882   20.4098 N   0  0  0  0  0  0
  -31.7943  -14.7459   20.0817 O   0  0  0  0  0  0
  -21.6637   -6.8878   21.4242 O   0  0  0  0  0  0
  -22.3554  -14.5544   20.6697 O   0  0  0  0  0  0
  -24.6214  -31.8639   23.2075 C   0  0  0  0  0  0
  -25.9085  -32.4801   23.8384 C   0  0  1  0  0  0
  -27.2255  -27.3712   20.1033 C   0  0  0  0  0  0
  -25.5919  -33.8602   24.2308 N   0  0  0  0  0  0
  -23.4114  -30.4896   21.5492 C   0  0  2  0  0  0
  -24.8565  -28.9542   20.1093 C   0  0  0  0  0  0
  -22.7445  -29.4644   22.4958 C   0  0  0  0  0  0
  -18.0278  -28.1380   22.8491 C   0  0  0  0  0  0
  -24.1487  -36.7311   23.2637 C   0  0  0  0  0  0
  -25.9475  -30.8102   21.3710 C   0  0  0  0  0  0
  -26.0215  -29.4415   20.7145 C   0  0  0  0  0  0
  -27.2071  -28.6586   20.7081 C   0  0  0  0  0  0
  -26.0402  -26.9304   19.4662 C   0  0  0  0  0  0
  -24.8648  -27.7015   19.4786 C   0  0  0  0  0  0
  -23.6224  -29.8285   20.1616 C   0  0  0  0  0  0
  -25.4106  -36.3097   24.0333 C   0  0  1  0  0  0
  -20.5876  -28.3678   23.1297 C   0  0  2  0  0  0
  -20.6771  -26.9407   22.5414 C   0  0  0  0  0  0
  -19.5748  -26.6385   21.5213 C   0  0  0  0  0  0
  -18.1926  -26.7925   22.1623 C   0  0  0  0  0  0
  -19.1531  -28.8844   23.2893 C   0  0  0  0  0  0
  -18.9454  -30.1447   23.8907 C   0  0  0  0  0  0
  -17.6457  -30.6586   24.0563 C   0  0  0  0  0  0
  -25.9042  -34.9465   23.5117 C   0  0  0  0  0  0
  -16.5347  -29.9089   23.6325 C   0  0  0  0  0  0
  -16.7266  -28.6504   23.0347 C   0  0  0  0  0  0
  -26.4492  -31.6591   25.0732 C   0  0  0  0  0  0
  -25.3750  -31.3715   26.1476 C   0  0  0  0  0  0
  -27.0327  -30.3021   24.6144 C   0  0  0  0  0  0
  -27.6054  -32.4318   25.7506 C   0  0  0  0  0  0
  -27.5575  -37.1810   24.8463 C   0  0  0  0  0  0
  -21.4166  -29.3041   22.3700 N   0  0  0  0  0  0
  -26.4286  -37.3783   23.9409 N   0  0  0  0  0  0
  -24.6785  -31.0701   22.1001 N   0  0  0  0  0  0
  -23.4196  -28.8175   23.3006 O   0  0  0  0  0  0
  -28.3648  -26.5671   20.1596 O   0  0  0  0  0  0
  -26.5600  -34.8920   22.4678 O   0  0  0  0  0  0
  -23.5393  -32.1416   23.7435 O   0  0  0  0  0  0
  -29.9427  -17.0084   20.3659 C   0  0  0  0  0  0
  -30.2398  -18.1042   21.4380 C   0  0  0  0  0  0
  -28.2075  -25.1343   19.9110 C   0  0  0  0  0  0
  -29.2662  -24.1793   20.5573 C   0  0  0  0  0  0
  -29.9175  -20.3642   20.4052 C   0  0  0  0  0  0
  -29.8174  -21.8260   20.9840 C   0  0  0  0  0  0
  -29.8654  -15.6054   20.8638 N   0  0  0  0  0  0
  -29.4912  -19.3441   21.3363 O   0  0  0  0  0  0
  -29.0968  -22.7873   20.1739 O   0  0  0  0  0  0
  -31.4781  -12.4560   19.1472 H   0  0  0  0  0  0
  -30.3514  -11.3425   19.8699 H   0  0  0  0  0  0
  -29.7587  -11.7587   17.4631 H   0  0  0  0  0  0
  -29.6633  -13.4758   17.7598 H   0  0  0  0  0  0
  -27.8494  -11.2980   18.8472 H   0  0  0  0  0  0
  -27.3765  -12.6041   17.7933 H   0  0  0  0  0  0
  -27.6900  -14.2503   19.5482 H   0  0  0  0  0  0
  -28.6939  -12.0094   21.3754 H   0  0  0  0  0  0
  -28.4608  -13.6637   21.8586 H   0  0  0  0  0  0
  -25.2760   -9.5685   22.4755 H   0  0  0  0  0  0
  -24.0002   -7.4637   22.7472 H   0  0  0  0  0  0
  -21.0840   -8.8774   19.8954 H   0  0  0  0  0  0
  -22.3696  -10.9673   19.6164 H   0  0  0  0  0  0
  -21.2005   -7.6149   23.9717 H   0  0  0  0  0  0
  -21.1480   -6.0523   25.9077 H   0  0  0  0  0  0
  -22.0598   -2.7611   23.2847 H   0  0  0  0  0  0
  -22.4113  -11.9886   22.4785 H   0  0  0  0  0  0
  -21.1121  -13.1263   22.2609 H   0  0  0  0  0  0
  -24.6640  -15.8434   20.5187 H   0  0  0  0  0  0
  -26.2817  -15.6270   20.0812 H   0  0  0  0  0  0
  -26.7157  -32.5488   23.1142 H   0  0  0  0  0  0
  -25.0089  -33.9756   25.0468 H   0  0  0  0  0  0
  -22.7027  -31.3087   21.4110 H   0  0  0  0  0  0
  -23.3738  -35.9655   23.3305 H   0  0  0  0  0  0
  -24.3581  -36.8924   22.2051 H   0  0  0  0  0  0
  -23.7254  -37.6523   23.6652 H   0  0  0  0  0  0
  -26.0704  -31.5737   20.6015 H   0  0  0  0  0  0
  -26.8328  -30.8610   21.9934 H   0  0  0  0  0  0
  -28.1002  -29.0266   21.1935 H   0  0  0  0  0  0
  -25.9945  -25.9816   18.9532 H   0  0  0  0  0  0
  -23.9737  -27.3260   18.9946 H   0  0  0  0  0  0
  -23.7382  -30.6078   19.4073 H   0  0  0  0  0  0
  -22.7435  -29.2556   19.8597 H   0  0  0  0  0  0
  -25.1283  -36.1955   25.0825 H   0  0  0  0  0  0
  -20.9968  -28.3250   24.1416 H   0  0  0  0  0  0
  -20.5675  -26.2286   23.3609 H   0  0  0  0  0  0
  -21.6641  -26.7445   22.1203 H   0  0  0  0  0  0
  -19.6911  -25.6300   21.1234 H   0  0  0  0  0  0
  -19.6685  -27.3205   20.6752 H   0  0  0  0  0  0
  -17.4196  -26.6671   21.4025 H   0  0  0  0  0  0
  -18.0322  -26.0066   22.9016 H   0  0  0  0  0  0
  -19.7933  -30.7257   24.2281 H   0  0  0  0  0  0
  -17.5015  -31.6265   24.5168 H   0  0  0  0  0  0
  -15.5351  -30.2995   23.7644 H   0  0  0  0  0  0
  -15.8663  -28.0830   22.7056 H   0  0  0  0  0  0
  -24.5923  -30.7058   25.7824 H   0  0  0  0  0  0
  -24.8950  -32.2878   26.4917 H   0  0  0  0  0  0
  -25.8105  -30.8896   27.0238 H   0  0  0  0  0  0
  -26.2885  -29.6782   24.1174 H   0  0  0  0  0  0
  -27.4053  -29.7258   25.4624 H   0  0  0  0  0  0
  -27.8744  -30.4323   23.9335 H   0  0  0  0  0  0
  -27.2656  -33.3602   26.2106 H   0  0  0  0  0  0
  -28.3859  -32.6902   25.0339 H   0  0  0  0  0  0
  -28.0726  -31.8432   26.5410 H   0  0  0  0  0  0
  -28.2595  -38.0105   24.7496 H   0  0  0  0  0  0
  -28.1067  -36.2633   24.6297 H   0  0  0  0  0  0
  -27.2294  -37.1473   25.8868 H   0  0  0  0  0  0
  -20.9327  -29.8783   21.6941 H   0  0  0  0  0  0
  -26.0170  -38.2861   24.1406 H   0  0  0  0  0  0
  -30.6541  -17.0949   19.5428 H   0  0  0  0  0  0
  -28.9678  -17.2228   19.9266 H   0  0  0  0  0  0
  -31.3103  -18.3080   21.4926 H   0  0  0  0  0  0
  -29.9771  -17.6939   22.4136 H   0  0  0  0  0  0
  -27.2444  -24.7911   20.2910 H   0  0  0  0  0  0
  -28.1973  -24.9789   18.8314 H   0  0  0  0  0  0
  -29.1932  -24.2677   21.6418 H   0  0  0  0  0  0
  -30.2711  -24.5014   20.2815 H   0  0  0  0  0  0
  -30.9434  -20.1789   20.0829 H   0  0  0  0  0  0
  -29.3018  -20.2769   19.5094 H   0  0  0  0  0  0
  -30.8295  -22.1951   21.1586 H   0  0  0  0  0  0
  -29.3415  -21.7928   21.9649 H   0  0  0  0  0  0
  -28.9732  -15.3399   21.2544 H   0  0  0  0  0  0
  1 25  1  0  0  0
  1 30  2  0  0  0
  1 77  1  0  0  0
  2  3  1  0  0  0
  2 25  1  0  0  0
  2 80  1  0  0  0
  2 81  1  0  0  0
  3  4  1  0  0  0
  3 82  1  0  0  0
  3 83  1  0  0  0
  4  5  1  0  0  0
  4 84  1  0  0  0
  4 85  1  0  0  0
  5  6  1  0  0  0
  5 26  1  0  0  0
  5 86  1  0  0  0
  6 25  1  0  0  0
  6 87  1  0  0  0
  6 88  1  0  0  0
  7  8  2  0  0  0
  7 26  1  0  0  0
  7 29  1  0  0  0
  8  9  1  0  0  0
  8 22  1  0  0  0
  9 10  1  0  0  0
  9 27  2  0  0  0
 10 11  2  0  0  0
 10 15  1  0  0  0
 11 12  1  0  0  0
 11 89  1  0  0  0
 12 13  2  0  0  0
 12 90  1  0  0  0
 13 14  1  0  0  0
 13 31  1  0  0  0
 14 15  2  0  0  0
 14 91  1  0  0  0
 15 92  1  0  0  0
 16 17  2  0  0  0
 16 21  1  0  0  0
 16 31  1  0  0  0
 17 18  1  0  0  0
 17 93  1  0  0  0
 18 19  2  0  0  0
 18 94  1  0  0  0
 19 20  1  0  0  0
 19 24  1  0  0  0
 20 21  2  0  0  0
 20 95  1  0  0  0
 21 23  1  0  0  0
 22 28  1  0  0  0
 22 32  2  0  0  0
 26 27  1  0  0  0
 28 96  1  0  0  0
 28 97  1  0  0  0
 29 98  1  0  0  0
 29 99  1  0  0  0
 33 34  1  0  0  0
 33 66  1  0  0  0
 33 70  2  0  0  0
 34 36  1  0  0  0
 34 59  1  0  0  0
 34100  1  0  0  0
 35 44  2  0  0  0
 35 45  1  0  0  0
 35 68  1  0  0  0
 36 56  1  0  0  0
 36101  1  0  0  0
 37 39  1  0  0  0
 37 47  1  0  0  0
 37 66  1  0  0  0
 37102  1  0  0  0
 38 43  2  0  0  0
 38 46  1  0  0  0
 38 47  1  0  0  0
 39 64  1  0  0  0
 39 67  2  0  0  0
 40 52  1  0  0  0
 40 53  2  0  0  0
 40 58  1  0  0  0
 41103  1  0  0  0
 41104  1  0  0  0
 41105  1  0  0  0
 41 48  1  0  0  0
 42 43  1  0  0  0
 42 66  1  0  0  0
 42106  1  0  0  0
 42107  1  0  0  0
 43 44  1  0  0  0
 44108  1  0  0  0
 45 46  2  0  0  0
 45109  1  0  0  0
 46110  1  0  0  0
 47111  1  0  0  0
 47112  1  0  0  0
 48 56  1  0  0  0
 48 65  1  0  0  0
 48113  1  0  0  0
 49 50  1  0  0  0
 49 53  1  0  0  0
 49 64  1  0  0  0
 49114  1  0  0  0
 50 51  1  0  0  0
 50115  1  0  0  0
 50116  1  0  0  0
 51 52  1  0  0  0
 51117  1  0  0  0
 51118  1  0  0  0
 52119  1  0  0  0
 52120  1  0  0  0
 53 54  1  0  0  0
 54 55  2  0  0  0
 54121  1  0  0  0
 55 57  1  0  0  0
 55122  1  0  0  0
 56 69  2  0  0  0
 57 58  2  0  0  0
 57123  1  0  0  0
 58124  1  0  0  0
 59 60  1  0  0  0
 59 61  1  0  0  0
 59 62  1  0  0  0
 60125  1  0  0  0
 60126  1  0  0  0
 60127  1  0  0  0
 61128  1  0  0  0
 61129  1  0  0  0
 61130  1  0  0  0
 62131  1  0  0  0
 62132  1  0  0  0
 62133  1  0  0  0
 63 65  1  0  0  0
 63134  1  0  0  0
 63135  1  0  0  0
 63136  1  0  0  0
 64137  1  0  0  0
 65138  1  0  0  0
 68 73  1  0  0  0
 71 72  1  0  0  0
 71 77  1  0  0  0
 71139  1  0  0  0
 71140  1  0  0  0
 72 78  1  0  0  0
 72141  1  0  0  0
 72142  1  0  0  0
 73 74  1  0  0  0
 73143  1  0  0  0
 73144  1  0  0  0
 74 79  1  0  0  0
 74145  1  0  0  0
 74146  1  0  0  0
 75 76  1  0  0  0
 75 78  1  0  0  0
 75147  1  0  0  0
 75148  1  0  0  0
 76 79  1  0  0  0
 76149  1  0  0  0
 76150  1  0  0  0
 77151  1  0  0  0
M  ISO  4   1 100  68 101  73 101  77 100
M  END
> <chiral flag>
0

> <version>
0

> <s_m_source_file>
/data/baiqing/PycharmProjects/Reinvent-master-3.2/result/LINK_invent/BTK/process_docking_weight1_custom_sum_contain_oxygen_bond_distance_aromatic_linkinvent_7_9_3/rearranged_h_0000.sdf

> <i_m_source_file_index>
58

> <r_mmod_Potential_Energy-OPLS-2005>
-33.6661491394043

> <r_mmod_Stretch_Energy-OPLS-2005>
54.1415176391602

> <r_mmod_Bend_Energy-OPLS-2005>
117.664672851562

> <r_mmod_Torsional_Energy-OPLS-2005>
224.785095214844

> <r_mmod_Improper_Torsional_Energy-OPLS-2005>
6.75608205795288

> <r_mmod_Van_der_Waal_Energy-OPLS-2005>
133.051956176758

> <r_mmod_Electrostatic_Energy-OPLS-2005>
-384.544891357422

> <r_mmod_Solvation_Energy-OPLS-2005>
-214.149185180664

> <b_mmod_Minimization_Converged-OPLS-2005>
0

> <r_mmod_RMS_Derivative-OPLS-2005>
0.78693014383316

$$$$
61
                    3D
 Structure written by MMmdl.
201208  0  0  1  0            999 V2000
  -30.8361  -14.2419   20.7801 C   0  0  0  0  0  0
  -30.4023  -12.2841   19.3547 C   0  0  0  0  0  0
  -29.4597  -12.5414   18.1696 C   0  0  0  0  0  0
  -27.9924  -12.3833   18.6011 C   0  0  0  0  0  0
  -27.6629  -13.2020   19.8745 C   0  0  2  0  0  0
  -28.7001  -12.9414   20.9880 C   0  0  0  0  0  0
  -25.2603  -13.8167   20.5690 C   0  0  0  0  0  0
  -24.1847  -13.0444   20.9178 C   0  0  0  0  0  0
  -24.6391  -11.6902   20.8730 C   0  0  0  0  0  0
  -23.9053  -10.4294   21.0410 C   0  0  0  0  0  0
  -24.3610   -9.4218   21.9191 C   0  0  0  0  0  0
  -23.6302   -8.2247   22.0747 C   0  0  0  0  0  0
  -22.4286   -8.0272   21.3536 C   0  0  0  0  0  0
  -21.9914   -9.0247   20.4642 C   0  0  0  0  0  0
  -22.7229  -10.2133   20.3062 C   0  0  0  0  0  0
  -21.6860   -6.0737   22.5282 C   0  0  0  0  0  0
  -21.4010   -6.5635   23.8213 C   0  0  0  0  0  0
  -21.3661   -5.6790   24.9176 C   0  0  0  0  0  0
  -21.6047   -4.3054   24.7230 C   0  0  0  0  0  0
  -21.8819   -3.8147   23.4354 C   0  0  0  0  0  0
  -21.9196   -4.6966   22.3409 C   0  0  0  0  0  0
  -22.7871  -13.5247   21.1844 C   0  0  0  0  0  0
  -22.1668   -4.2153   21.0991 F   0  0  0  0  0  0
  -21.5629   -3.4537   25.7747 F   0  0  0  0  0  0
  -30.0516  -13.1915   20.4525 N   0  0  0  0  0  0
  -26.3032  -12.9330   20.3368 N   0  0  0  0  0  0
  -25.9314  -11.6487   20.5750 N   0  0  0  0  0  0
  -22.0504  -12.8231   22.0389 N   0  0  0  0  0  0
  -25.4341  -15.1884   20.4103 N   0  0  0  0  0  0
  -31.7313  -14.6851   20.0514 O   0  0  0  0  0  0
  -21.6642   -6.8877   21.4242 O   0  0  0  0  0  0
  -22.3554  -14.5563   20.6707 O   0  0  0  0  0  0
  -24.6109  -31.8767   23.2139 C   0  0  0  0  0  0
  -25.9033  -32.4856   23.8426 C   0  0  1  0  0  0
  -27.2230  -27.4699   20.1050 C   0  0  0  0  0  0
  -25.5936  -33.8647   24.2377 N   0  0  0  0  0  0
  -23.3958  -30.5022   21.5540 C   0  0  2  0  0  0
  -24.8406  -28.9718   20.1256 C   0  0  0  0  0  0
  -22.7390  -29.4725   22.5006 C   0  0  0  0  0  0
  -18.0298  -28.1408   22.8500 C   0  0  0  0  0  0
  -24.1492  -36.7276   23.2628 C   0  0  0  0  0  0
  -25.9206  -30.8539   21.3619 C   0  0  0  0  0  0
  -25.9997  -29.4869   20.7202 C   0  0  0  0  0  0
  -27.1993  -28.7424   20.7111 C   0  0  0  0  0  0
  -26.0521  -26.9721   19.4977 C   0  0  0  0  0  0
  -24.8575  -27.7100   19.5131 C   0  0  0  0  0  0
  -23.6030  -29.8352   20.1691 C   0  0  0  0  0  0
  -25.4110  -36.3113   24.0348 C   0  0  1  0  0  0
  -20.5889  -28.3686   23.1339 C   0  0  2  0  0  0
  -20.6785  -26.9430   22.5430 C   0  0  0  0  0  0
  -19.5756  -26.6423   21.5228 C   0  0  0  0  0  0
  -18.1939  -26.7966   22.1629 C   0  0  0  0  0  0
  -19.1546  -28.8857   23.2911 C   0  0  0  0  0  0
  -18.9471  -30.1475   23.8911 C   0  0  0  0  0  0
  -17.6478  -30.6602   24.0599 C   0  0  0  0  0  0
  -25.9043  -34.9486   23.5136 C   0  0  0  0  0  0
  -16.5368  -29.9120   23.6340 C   0  0  0  0  0  0
  -16.7294  -28.6539   23.0346 C   0  0  0  0  0  0
  -26.4481  -31.6597   25.0708 C   0  0  0  0  0  0
  -25.3758  -31.3717   26.1465 C   0  0  0  0  0  0
  -27.0288  -30.3044   24.6020 C   0  0  0  0  0  0
  -27.6067  -32.4309   25.7473 C   0  0  0  0  0  0
  -27.5592  -37.1785   24.8473 C   0  0  0  0  0  0
  -21.4119  -29.3056   22.3729 N   0  0  0  0  0  0
  -26.4292  -37.3803   23.9429 N   0  0  0  0  0  0
  -24.6599  -31.0922   22.1015 N   0  0  0  0  0  0
  -23.4173  -28.8254   23.3030 O   0  0  0  0  0  0
  -28.3852  -26.7484   20.0044 O   0  0  0  0  0  0
  -26.5572  -34.8917   22.4682 O   0  0  0  0  0  0
  -23.5310  -32.1526   23.7543 O   0  0  0  0  0  0
  -30.6466  -25.5926   18.2237 C   0  0  0  0  0  0
  -28.4682  -22.0210   19.0789 C   0  0  0  0  0  0
  -28.5343  -25.5971   20.7063 C   0  0  0  0  0  0
  -30.8983  -25.9040   16.7550 C   0  0  0  0  0  0
  -25.7249  -23.2728   18.7740 C   0  0  0  0  0  0
  -31.0569  -16.4257   23.7279 C   0  0  0  0  0  0
  -33.9445  -21.2084   22.8526 C   0  0  0  0  0  0
  -31.7091  -15.3739   22.8152 C   0  0  0  0  0  0
  -28.0624  -19.5499   19.1925 C   0  0  0  0  0  0
  -30.6280  -15.8771   25.1001 C   0  0  0  0  0  0
  -33.6414  -19.7804   22.3786 C   0  0  0  0  0  0
  -32.6971  -21.9748   23.3126 C   0  0  0  0  0  0
  -29.4397  -19.0214   18.7531 C   0  0  0  0  0  0
  -29.1721  -17.5720   25.9413 C   0  0  0  0  0  0
  -32.5412  -18.5347   20.7021 C   0  0  0  0  0  0
  -30.9058  -21.8875   24.8567 C   0  0  0  0  0  0
  -31.6544  -18.6450   19.4578 C   0  0  0  0  0  0
  -29.3034  -18.9912   26.5063 C   0  0  0  0  0  0
  -30.3479  -21.0717   26.0301 C   0  0  0  0  0  0
  -27.9819  -23.3774   19.6418 C   0  0  1  0  0  0
  -29.1062  -24.4425   19.8324 C   0  0  1  0  0  0
  -28.0683  -20.9161   19.7224 N   0  0  0  0  0  0
  -29.5380  -24.9055   18.5056 N   0  0  0  0  0  0
  -30.7293  -14.5914   22.0677 N   0  0  0  0  0  0
  -31.4346  -25.9701   19.0907 O   0  0  0  0  0  0
  -29.0799  -21.9774   18.0097 O   0  0  0  0  0  0
  -28.1836  -25.4572   21.8836 O   0  0  0  0  0  0
  -26.9998  -23.9100   18.7456 O   0  0  0  0  0  0
  -30.4481  -16.9508   26.0117 O   0  0  0  0  0  0
  -32.8916  -19.8290   21.1717 O   0  0  0  0  0  0
  -32.1585  -21.3420   24.4650 O   0  0  0  0  0  0
  -30.3506  -19.0640   19.8411 O   0  0  0  0  0  0
  -29.9909  -19.7844   25.5477 O   0  0  0  0  0  0
  -31.4422  -12.3987   19.0395 H   0  0  0  0  0  0
  -30.3066  -11.2525   19.6968 H   0  0  0  0  0  0
  -29.6828  -11.8516   17.3545 H   0  0  0  0  0  0
  -29.6243  -13.5458   17.7757 H   0  0  0  0  0  0
  -27.8021  -11.3234   18.7767 H   0  0  0  0  0  0
  -27.3287  -12.6788   17.7873 H   0  0  0  0  0  0
  -27.7249  -14.2568   19.6047 H   0  0  0  0  0  0
  -28.6412  -11.9082   21.3334 H   0  0  0  0  0  0
  -28.4556  -13.5621   21.8502 H   0  0  0  0  0  0
  -25.2763   -9.5700   22.4755 H   0  0  0  0  0  0
  -24.0027   -7.4637   22.7455 H   0  0  0  0  0  0
  -21.0849   -8.8762   19.8943 H   0  0  0  0  0  0
  -22.3695  -10.9667   19.6161 H   0  0  0  0  0  0
  -21.1993   -7.6139   23.9717 H   0  0  0  0  0  0
  -21.1481   -6.0517   25.9079 H   0  0  0  0  0  0
  -22.0596   -2.7612   23.2857 H   0  0  0  0  0  0
  -22.4110  -11.9887   22.4772 H   0  0  0  0  0  0
  -21.1123  -13.1247   22.2601 H   0  0  0  0  0  0
  -24.6724  -15.8475   20.5295 H   0  0  0  0  0  0
  -26.2959  -15.6237   20.1065 H   0  0  0  0  0  0
  -26.7093  -32.5615   23.1191 H   0  0  0  0  0  0
  -25.0188  -33.9835   25.0588 H   0  0  0  0  0  0
  -22.6823  -31.3163   21.4150 H   0  0  0  0  0  0
  -23.3781  -35.9586   23.3311 H   0  0  0  0  0  0
  -24.3596  -36.8871   22.2045 H   0  0  0  0  0  0
  -23.7199  -37.6461   23.6618 H   0  0  0  0  0  0
  -26.0322  -31.6185   20.5904 H   0  0  0  0  0  0
  -26.8102  -30.9129   21.9760 H   0  0  0  0  0  0
  -28.0991  -29.1434   21.1551 H   0  0  0  0  0  0
  -26.0573  -26.0259   18.9878 H   0  0  0  0  0  0
  -23.9692  -27.3136   19.0405 H   0  0  0  0  0  0
  -23.7091  -30.6078   19.4063 H   0  0  0  0  0  0
  -22.7286  -29.2527   19.8737 H   0  0  0  0  0  0
  -25.1281  -36.1974   25.0842 H   0  0  0  0  0  0
  -21.0017  -28.3267   24.1447 H   0  0  0  0  0  0
  -20.5751  -26.2289   23.3611 H   0  0  0  0  0  0
  -21.6652  -26.7527   22.1188 H   0  0  0  0  0  0
  -19.6917  -25.6344   21.1241 H   0  0  0  0  0  0
  -19.6683  -27.3247   20.6767 H   0  0  0  0  0  0
  -17.4224  -26.6768   21.4010 H   0  0  0  0  0  0
  -18.0290  -26.0100   22.9009 H   0  0  0  0  0  0
  -19.7941  -30.7301   24.2261 H   0  0  0  0  0  0
  -17.5036  -31.6270   24.5224 H   0  0  0  0  0  0
  -15.5370  -30.3036   23.7629 H   0  0  0  0  0  0
  -15.8695  -28.0874   22.7042 H   0  0  0  0  0  0
  -24.5938  -30.7045   25.7822 H   0  0  0  0  0  0
  -24.8932  -32.2890   26.4854 H   0  0  0  0  0  0
  -25.8138  -30.8940   27.0239 H   0  0  0  0  0  0
  -26.2796  -29.6815   24.1108 H   0  0  0  0  0  0
  -27.4133  -29.7253   25.4422 H   0  0  0  0  0  0
  -27.8612  -30.4373   23.9100 H   0  0  0  0  0  0
  -27.2701  -33.3627   26.2025 H   0  0  0  0  0  0
  -28.3891  -32.6846   25.0308 H   0  0  0  0  0  0
  -28.0704  -31.8441   26.5408 H   0  0  0  0  0  0
  -28.2605  -38.0086   24.7570 H   0  0  0  0  0  0
  -28.1097  -36.2629   24.6255 H   0  0  0  0  0  0
  -27.2329  -37.1408   25.8878 H   0  0  0  0  0  0
  -20.9262  -29.8755   21.6939 H   0  0  0  0  0  0
  -26.0188  -38.2878   24.1452 H   0  0  0  0  0  0
  -30.5698  -26.9170   16.5248 H   0  0  0  0  0  0
  -30.3608  -25.2115   16.1054 H   0  0  0  0  0  0
  -31.9608  -25.8220   16.5250 H   0  0  0  0  0  0
  -25.0590  -23.7712   18.0696 H   0  0  0  0  0  0
  -25.2657  -23.3380   19.7613 H   0  0  0  0  0  0
  -25.7777  -22.2226   18.4848 H   0  0  0  0  0  0
  -30.2249  -16.9146   23.2181 H   0  0  0  0  0  0
  -31.7948  -17.2093   23.9016 H   0  0  0  0  0  0
  -34.4336  -21.7566   22.0462 H   0  0  0  0  0  0
  -34.6629  -21.1729   23.6719 H   0  0  0  0  0  0
  -32.3273  -14.6916   23.4023 H   0  0  0  0  0  0
  -32.3991  -15.8708   22.1319 H   0  0  0  0  0  0
  -27.6527  -18.8932   19.9601 H   0  0  0  0  0  0
  -27.3687  -19.4971   18.3515 H   0  0  0  0  0  0
  -31.4299  -15.2573   25.5025 H   0  0  0  0  0  0
  -29.7408  -15.2429   25.0366 H   0  0  0  0  0  0
  -33.0941  -19.2379   23.1517 H   0  0  0  0  0  0
  -34.5766  -19.2425   22.2140 H   0  0  0  0  0  0
  -31.9629  -22.0032   22.5051 H   0  0  0  0  0  0
  -32.9579  -23.0078   23.5498 H   0  0  0  0  0  0
  -29.8260  -19.5832   17.9027 H   0  0  0  0  0  0
  -29.3271  -17.9905   18.4107 H   0  0  0  0  0  0
  -28.7833  -17.6096   24.9220 H   0  0  0  0  0  0
  -28.4690  -16.9872   26.5358 H   0  0  0  0  0  0
  -33.4469  -17.9770   20.4578 H   0  0  0  0  0  0
  -32.0110  -17.9801   21.4737 H   0  0  0  0  0  0
  -31.0368  -22.9298   25.1520 H   0  0  0  0  0  0
  -30.1979  -21.8677   24.0262 H   0  0  0  0  0  0
  -31.5977  -17.6649   18.9817 H   0  0  0  0  0  0
  -32.0876  -19.3342   18.7312 H   0  0  0  0  0  0
  -29.8298  -18.9712   27.4627 H   0  0  0  0  0  0
  -28.3141  -19.4150   26.6820 H   0  0  0  0  0  0
  -29.4689  -21.5748   26.4371 H   0  0  0  0  0  0
  -31.0840  -20.9928   26.8318 H   0  0  0  0  0  0
  -27.5151  -23.1892   20.6123 H   0  0  0  0  0  0
  -29.9515  -23.9921   20.3544 H   0  0  0  0  0  0
  -27.5720  -21.0545   20.5921 H   0  0  0  0  0  0
  -28.9166  -24.6605   17.7475 H   0  0  0  0  0  0
  -30.0134  -14.1103   22.5941 H   0  0  0  0  0  0
  1 25  1  0  0  0
  1 30  2  0  0  0
  1 94  1  0  0  0
  2  3  1  0  0  0
  2 25  1  0  0  0
  2104  1  0  0  0
  2105  1  0  0  0
  3  4  1  0  0  0
  3106  1  0  0  0
  3107  1  0  0  0
  4  5  1  0  0  0
  4108  1  0  0  0
  4109  1  0  0  0
  5  6  1  0  0  0
  5 26  1  0  0  0
  5110  1  0  0  0
  6 25  1  0  0  0
  6111  1  0  0  0
  6112  1  0  0  0
  7  8  2  0  0  0
  7 26  1  0  0  0
  7 29  1  0  0  0
  8  9  1  0  0  0
  8 22  1  0  0  0
  9 10  1  0  0  0
  9 27  2  0  0  0
 10 11  2  0  0  0
 10 15  1  0  0  0
 11 12  1  0  0  0
 11113  1  0  0  0
 12 13  2  0  0  0
 12114  1  0  0  0
 13 14  1  0  0  0
 13 31  1  0  0  0
 14 15  2  0  0  0
 14115  1  0  0  0
 15116  1  0  0  0
 16 17  2  0  0  0
 16 21  1  0  0  0
 16 31  1  0  0  0
 17 18  1  0  0  0
 17117  1  0  0  0
 18 19  2  0  0  0
 18118  1  0  0  0
 19 20  1  0  0  0
 19 24  1  0  0  0
 20 21  2  0  0  0
 20119  1  0  0  0
 21 23  1  0  0  0
 22 28  1  0  0  0
 22 32  2  0  0  0
 26 27  1  0  0  0
 28120  1  0  0  0
 28121  1  0  0  0
 29122  1  0  0  0
 29123  1  0  0  0
 33 34  1  0  0  0
 33 66  1  0  0  0
 33 70  2  0  0  0
 34 36  1  0  0  0
 34 59  1  0  0  0
 34124  1  0  0  0
 35 44  2  0  0  0
 35 45  1  0  0  0
 35 68  1  0  0  0
 36 56  1  0  0  0
 36125  1  0  0  0
 37 39  1  0  0  0
 37 47  1  0  0  0
 37 66  1  0  0  0
 37126  1  0  0  0
 38 43  2  0  0  0
 38 46  1  0  0  0
 38 47  1  0  0  0
 39 64  1  0  0  0
 39 67  2  0  0  0
 40 52  1  0  0  0
 40 53  2  0  0  0
 40 58  1  0  0  0
 41127  1  0  0  0
 41128  1  0  0  0
 41129  1  0  0  0
 41 48  1  0  0  0
 42 43  1  0  0  0
 42 66  1  0  0  0
 42130  1  0  0  0
 42131  1  0  0  0
 43 44  1  0  0  0
 44132  1  0  0  0
 45 46  2  0  0  0
 45133  1  0  0  0
 46134  1  0  0  0
 47135  1  0  0  0
 47136  1  0  0  0
 48 56  1  0  0  0
 48 65  1  0  0  0
 48137  1  0  0  0
 49 50  1  0  0  0
 49 53  1  0  0  0
 49 64  1  0  0  0
 49138  1  0  0  0
 50 51  1  0  0  0
 50139  1  0  0  0
 50140  1  0  0  0
 51 52  1  0  0  0
 51141  1  0  0  0
 51142  1  0  0  0
 52143  1  0  0  0
 52144  1  0  0  0
 53 54  1  0  0  0
 54 55  2  0  0  0
 54145  1  0  0  0
 55 57  1  0  0  0
 55146  1  0  0  0
 56 69  2  0  0  0
 57 58  2  0  0  0
 57147  1  0  0  0
 58148  1  0  0  0
 59 60  1  0  0  0
 59 61  1  0  0  0
 59 62  1  0  0  0
 60149  1  0  0  0
 60150  1  0  0  0
 60151  1  0  0  0
 61152  1  0  0  0
 61153  1  0  0  0
 61154  1  0  0  0
 62155  1  0  0  0
 62156  1  0  0  0
 62157  1  0  0  0
 63 65  1  0  0  0
 63158  1  0  0  0
 63159  1  0  0  0
 63160  1  0  0  0
 64161  1  0  0  0
 65162  1  0  0  0
 68 73  1  0  0  0
 71 74  1  0  0  0
 71 93  1  0  0  0
 71 95  2  0  0  0
 72 90  1  0  0  0
 72 92  1  0  0  0
 72 96  2  0  0  0
 73 91  1  0  0  0
 73 97  2  0  0  0
 74163  1  0  0  0
 74164  1  0  0  0
 74165  1  0  0  0
 75 98  1  0  0  0
 75166  1  0  0  0
 75167  1  0  0  0
 75168  1  0  0  0
 76 78  1  0  0  0
 76 80  1  0  0  0
 76169  1  0  0  0
 76170  1  0  0  0
 77 81  1  0  0  0
 77 82  1  0  0  0
 77171  1  0  0  0
 77172  1  0  0  0
 78 94  1  0  0  0
 78173  1  0  0  0
 78174  1  0  0  0
 79 83  1  0  0  0
 79 92  1  0  0  0
 79175  1  0  0  0
 79176  1  0  0  0
 80 99  1  0  0  0
 80177  1  0  0  0
 80178  1  0  0  0
 81100  1  0  0  0
 81179  1  0  0  0
 81180  1  0  0  0
 82101  1  0  0  0
 82181  1  0  0  0
 82182  1  0  0  0
 83102  1  0  0  0
 83183  1  0  0  0
 83184  1  0  0  0
 84 88  1  0  0  0
 84 99  1  0  0  0
 84185  1  0  0  0
 84186  1  0  0  0
 85 87  1  0  0  0
 85100  1  0  0  0
 85187  1  0  0  0
 85188  1  0  0  0
 86 89  1  0  0  0
 86101  1  0  0  0
 86189  1  0  0  0
 86190  1  0  0  0
 87102  1  0  0  0
 87191  1  0  0  0
 87192  1  0  0  0
 88103  1  0  0  0
 88193  1  0  0  0
 88194  1  0  0  0
 89103  1  0  0  0
 89195  1  0  0  0
 89196  1  0  0  0
 90 91  1  0  0  0
 90 98  1  0  0  0
 90197  1  0  0  0
 91 93  1  0  0  0
 91198  1  0  0  0
 92199  1  0  0  0
 93200  1  0  0  0
 94201  1  0  0  0
M  ISO  4   1 100  68 101  73 101  94 100
M  END
> <chiral flag>
0

> <version>
0

> <s_m_source_file>
/data/baiqing/PycharmProjects/Reinvent-master-3.2/result/LINK_invent/BTK/process_docking_weight1_custom_sum_contain_oxygen_bond_distance_aromatic_linkinvent_7_9_3/rearranged_h_0000.sdf

> <i_m_source_file_index>
59

> <r_mmod_Potential_Energy-OPLS-2005>
-244.78759765625

> <r_mmod_Stretch_Energy-OPLS-2005>
35.2000503540039

> <r_mmod_Bend_Energy-OPLS-2005>
99.8935394287109

> <r_mmod_Torsional_Energy-OPLS-2005>
249.322555541992

> <r_mmod_Improper_Torsional_Energy-OPLS-2005>
8.05361557006836

> <r_mmod_Van_der_Waal_Energy-OPLS-2005>
127.859443664551

> <r_mmod_Electrostatic_Energy-OPLS-2005>
-475.249847412109

> <r_mmod_Solvation_Energy-OPLS-2005>
-299.907470703125

> <b_mmod_Minimization_Converged-OPLS-2005>
0

> <r_mmod_RMS_Derivative-OPLS-2005>
3.0599193572998

$$$$
62
                    3D
 Structure written by MMmdl.
192200  0  0  1  0            999 V2000
  -30.7078  -14.3958   20.6413 C   0  0  0  0  0  0
  -30.4235  -12.2874   19.3898 C   0  0  0  0  0  0
  -29.4844  -12.5191   18.1892 C   0  0  0  0  0  0
  -28.0070  -12.3811   18.6076 C   0  0  0  0  0  0
  -27.6668  -13.1961   19.8840 C   0  0  2  0  0  0
  -28.7053  -12.9125   20.9910 C   0  0  0  0  0  0
  -25.2627  -13.8138   20.5698 C   0  0  0  0  0  0
  -24.1850  -13.0421   20.9156 C   0  0  0  0  0  0
  -24.6389  -11.6890   20.8721 C   0  0  0  0  0  0
  -23.9055  -10.4286   21.0405 C   0  0  0  0  0  0
  -24.3612   -9.4208   21.9183 C   0  0  0  0  0  0
  -23.6288   -8.2247   22.0753 C   0  0  0  0  0  0
  -22.4273   -8.0284   21.3545 C   0  0  0  0  0  0
  -21.9910   -9.0257   20.4648 C   0  0  0  0  0  0
  -22.7234  -10.2137   20.3055 C   0  0  0  0  0  0
  -21.6853   -6.0740   22.5282 C   0  0  0  0  0  0
  -21.4017   -6.5646   23.8215 C   0  0  0  0  0  0
  -21.3658   -5.6798   24.9180 C   0  0  0  0  0  0
  -21.6043   -4.3060   24.7228 C   0  0  0  0  0  0
  -21.8821   -3.8154   23.4346 C   0  0  0  0  0  0
  -21.9190   -4.6971   22.3404 C   0  0  0  0  0  0
  -22.7888  -13.5252   21.1827 C   0  0  0  0  0  0
  -22.1664   -4.2157   21.0984 F   0  0  0  0  0  0
  -21.5624   -3.4543   25.7740 F   0  0  0  0  0  0
  -30.0408  -13.2294   20.4508 N   0  0  0  0  0  0
  -26.3049  -12.9284   20.3412 N   0  0  0  0  0  0
  -25.9308  -11.6448   20.5760 N   0  0  0  0  0  0
  -22.0508  -12.8230   22.0361 N   0  0  0  0  0  0
  -25.4401  -15.1847   20.4198 N   0  0  0  0  0  0
  -31.7827  -14.6680   20.0986 O   0  0  0  0  0  0
  -21.6635   -6.8880   21.4242 O   0  0  0  0  0  0
  -22.3596  -14.5583   20.6716 O   0  0  0  0  0  0
  -24.6114  -31.8724   23.2114 C   0  0  0  0  0  0
  -25.9012  -32.4853   23.8427 C   0  0  1  0  0  0
  -27.2431  -27.4785   20.1070 C   0  0  0  0  0  0
  -25.5867  -33.8643   24.2319 N   0  0  0  0  0  0
  -23.3981  -30.4919   21.5501 C   0  0  2  0  0  0
  -24.8530  -28.9682   20.1043 C   0  0  0  0  0  0
  -22.7407  -29.4645   22.5011 C   0  0  0  0  0  0
  -18.0278  -28.1309   22.8496 C   0  0  0  0  0  0
  -24.1525  -36.7346   23.2638 C   0  0  0  0  0  0
  -25.9216  -30.8529   21.3595 C   0  0  0  0  0  0
  -26.0044  -29.4921   20.7082 C   0  0  0  0  0  0
  -27.2053  -28.7565   20.7059 C   0  0  0  0  0  0
  -26.0884  -26.9710   19.4771 C   0  0  0  0  0  0
  -24.8894  -27.7072   19.4806 C   0  0  0  0  0  0
  -23.6049  -29.8191   20.1640 C   0  0  0  0  0  0
  -25.4143  -36.3124   24.0315 C   0  0  1  0  0  0
  -20.5864  -28.3614   23.1336 C   0  0  2  0  0  0
  -20.6786  -26.9351   22.5422 C   0  0  0  0  0  0
  -19.5761  -26.6344   21.5207 C   0  0  0  0  0  0
  -18.1929  -26.7872   22.1614 C   0  0  0  0  0  0
  -19.1519  -28.8782   23.2908 C   0  0  0  0  0  0
  -18.9459  -30.1378   23.8927 C   0  0  0  0  0  0
  -17.6458  -30.6548   24.0522 C   0  0  0  0  0  0
  -25.9048  -34.9481   23.5125 C   0  0  0  0  0  0
  -16.5337  -29.9036   23.6283 C   0  0  0  0  0  0
  -16.7265  -28.6438   23.0339 C   0  0  0  0  0  0
  -26.4420  -31.6644   25.0760 C   0  0  0  0  0  0
  -25.3673  -31.3727   26.1506 C   0  0  0  0  0  0
  -27.0269  -30.3120   24.6092 C   0  0  0  0  0  0
  -27.6001  -32.4396   25.7485 C   0  0  0  0  0  0
  -27.5611  -37.1820   24.8445 C   0  0  0  0  0  0
  -21.4143  -29.2996   22.3762 N   0  0  0  0  0  0
  -26.4344  -37.3783   23.9371 N   0  0  0  0  0  0
  -24.6608  -31.0846   22.1002 N   0  0  0  0  0  0
  -23.4190  -28.8178   23.3031 O   0  0  0  0  0  0
  -28.3694  -26.6953   20.1356 O   0  0  0  0  0  0
  -26.5628  -34.8920   22.4702 O   0  0  0  0  0  0
  -23.5309  -32.1449   23.7526 O   0  0  0  0  0  0
  -28.9860  -22.5513   20.0832 C   0  0  0  0  0  0
  -29.0462  -23.9565   20.1097 C   0  0  0  0  0  0
  -28.5223  -21.8421   21.2061 C   0  0  0  0  0  0
  -28.2613  -23.9327   22.4182 C   0  0  0  0  0  0
  -28.6906  -24.6563   21.2824 C   0  0  0  0  0  0
  -28.1190  -22.5317   22.3764 C   0  0  0  0  0  0
  -28.6966  -26.1394   21.3287 C   0  0  0  0  0  0
  -25.5772  -20.6640   24.0087 C   0  0  0  0  0  0
  -26.9560  -20.6471   23.3428 C   0  0  0  0  0  0
  -23.7947  -19.2385   25.0021 C   0  0  0  0  0  0
  -30.4500  -16.6621   21.6679 C   0  0  0  0  0  0
  -22.8613  -19.0566   23.7943 C   0  0  0  0  0  0
  -30.1395  -17.5707   20.4660 C   0  0  0  0  0  0
  -20.5680  -18.8686   23.1466 C   0  0  0  0  0  0
  -28.4423  -18.3231   19.0119 C   0  0  0  0  0  0
  -20.2906  -20.2187   22.4530 C   0  0  0  0  0  0
  -26.9286  -18.3780   18.7554 C   0  0  0  0  0  0
  -21.2018  -21.7683   20.8833 C   0  0  0  0  0  0
  -24.9659  -19.6121   19.2517 C   0  0  0  0  0  0
  -22.5681  -22.2370   20.3657 C   0  0  0  0  0  0
  -24.4437  -20.8047   20.0653 C   0  0  0  0  0  0
  -25.1609  -19.5167   24.5603 N   0  0  0  0  0  0
  -30.0668  -15.2760   21.4186 N   0  0  0  0  0  0
  -28.8464  -26.7816   22.3739 O   0  0  0  0  0  0
  -24.8707  -21.6752   23.9677 O   0  0  0  0  0  0
  -27.5825  -21.9237   23.4930 O   0  0  0  0  0  0
  -21.5070  -18.9806   24.2172 O   0  0  0  0  0  0
  -28.7427  -17.5638   20.1794 O   0  0  0  0  0  0
  -21.3878  -20.5712   21.6233 O   0  0  0  0  0  0
  -26.3313  -19.3747   19.5769 O   0  0  0  0  0  0
  -23.1643  -21.2046   19.5815 O   0  0  0  0  0  0
  -31.4649  -12.4037   19.0843 H   0  0  0  0  0  0
  -30.3332  -11.2614   19.7506 H   0  0  0  0  0  0
  -29.7112  -11.8119   17.3904 H   0  0  0  0  0  0
  -29.6558  -13.5134   17.7745 H   0  0  0  0  0  0
  -27.8084  -11.3231   18.7806 H   0  0  0  0  0  0
  -27.3538  -12.6813   17.7879 H   0  0  0  0  0  0
  -27.7320  -14.2534   19.6241 H   0  0  0  0  0  0
  -28.6730  -11.8591   21.2757 H   0  0  0  0  0  0
  -28.4603  -13.4557   21.9045 H   0  0  0  0  0  0
  -25.2758   -9.5685   22.4756 H   0  0  0  0  0  0
  -24.0000   -7.4640   22.7470 H   0  0  0  0  0  0
  -21.0844   -8.8780   19.8948 H   0  0  0  0  0  0
  -22.3698  -10.9682   19.6168 H   0  0  0  0  0  0
  -21.2019   -7.6157   23.9722 H   0  0  0  0  0  0
  -21.1479   -6.0531   25.9081 H   0  0  0  0  0  0
  -22.0599   -2.7617   23.2848 H   0  0  0  0  0  0
  -22.4089  -11.9838   22.4678 H   0  0  0  0  0  0
  -21.1146  -13.1298   22.2591 H   0  0  0  0  0  0
  -24.6821  -15.8434   20.5526 H   0  0  0  0  0  0
  -26.3194  -15.6272   20.1845 H   0  0  0  0  0  0
  -26.7121  -32.5590   23.1229 H   0  0  0  0  0  0
  -24.9963  -33.9793   25.0431 H   0  0  0  0  0  0
  -22.6859  -31.3076   21.4101 H   0  0  0  0  0  0
  -23.3765  -35.9704   23.3312 H   0  0  0  0  0  0
  -24.3619  -36.8969   22.2056 H   0  0  0  0  0  0
  -23.7329  -37.6564   23.6685 H   0  0  0  0  0  0
  -26.0264  -31.6183   20.5882 H   0  0  0  0  0  0
  -26.8141  -30.9127   21.9732 H   0  0  0  0  0  0
  -28.0909  -29.1495   21.1892 H   0  0  0  0  0  0
  -26.1217  -25.9976   19.0038 H   0  0  0  0  0  0
  -24.0068  -27.2991   19.0029 H   0  0  0  0  0  0
  -23.6889  -30.5891   19.3962 H   0  0  0  0  0  0
  -22.7380  -29.2187   19.8863 H   0  0  0  0  0  0
  -25.1336  -36.1985   25.0813 H   0  0  0  0  0  0
  -20.9936  -28.3186   24.1453 H   0  0  0  0  0  0
  -20.5719  -26.2206   23.3610 H   0  0  0  0  0  0
  -21.6658  -26.7421   22.1182 H   0  0  0  0  0  0
  -19.6930  -25.6255   21.1255 H   0  0  0  0  0  0
  -19.6699  -27.3146   20.6747 H   0  0  0  0  0  0
  -17.4202  -26.6610   21.4004 H   0  0  0  0  0  0
  -18.0278  -25.9999   22.9000 H   0  0  0  0  0  0
  -19.7925  -30.7153   24.2337 H   0  0  0  0  0  0
  -17.5013  -31.6237   24.5113 H   0  0  0  0  0  0
  -15.5339  -30.2939   23.7614 H   0  0  0  0  0  0
  -15.8662  -28.0767   22.7061 H   0  0  0  0  0  0
  -24.5800  -30.7137   25.7817 H   0  0  0  0  0  0
  -24.8882  -32.2871   26.5047 H   0  0  0  0  0  0
  -25.7981  -30.8812   27.0239 H   0  0  0  0  0  0
  -26.2818  -29.6893   24.1135 H   0  0  0  0  0  0
  -27.4062  -29.7332   25.4524 H   0  0  0  0  0  0
  -27.8628  -30.4484   23.9220 H   0  0  0  0  0  0
  -27.2620  -33.3696   26.2084 H   0  0  0  0  0  0
  -28.3751  -32.6989   25.0253 H   0  0  0  0  0  0
  -28.0747  -31.8532   26.5368 H   0  0  0  0  0  0
  -28.2598  -38.0142   24.7516 H   0  0  0  0  0  0
  -28.1121  -36.2668   24.6257 H   0  0  0  0  0  0
  -27.2292  -37.1440   25.8828 H   0  0  0  0  0  0
  -20.9304  -29.8757   21.7019 H   0  0  0  0  0  0
  -26.0236  -38.2872   24.1311 H   0  0  0  0  0  0
  -29.2839  -22.0195   19.1909 H   0  0  0  0  0  0
  -29.3783  -24.4915   19.2299 H   0  0  0  0  0  0
  -28.4878  -20.7647   21.1426 H   0  0  0  0  0  0
  -27.9762  -24.4617   23.3184 H   0  0  0  0  0  0
  -26.7645  -20.3583   22.3122 H   0  0  0  0  0  0
  -27.5893  -19.8828   23.7912 H   0  0  0  0  0  0
  -23.7913  -18.3341   25.6126 H   0  0  0  0  0  0
  -23.4370  -20.0523   25.6355 H   0  0  0  0  0  0
  -29.9100  -17.0164   22.5465 H   0  0  0  0  0  0
  -31.5111  -16.7160   21.9156 H   0  0  0  0  0  0
  -23.1376  -18.1647   23.2290 H   0  0  0  0  0  0
  -22.9976  -19.9081   23.1351 H   0  0  0  0  0  0
  -30.7116  -17.2487   19.5930 H   0  0  0  0  0  0
  -30.4576  -18.5886   20.6961 H   0  0  0  0  0  0
  -20.8615  -18.0980   22.4296 H   0  0  0  0  0  0
  -19.6336  -18.5239   23.5922 H   0  0  0  0  0  0
  -28.8401  -19.3364   19.0871 H   0  0  0  0  0  0
  -28.9297  -17.8512   18.1558 H   0  0  0  0  0  0
  -20.1036  -20.9927   23.1968 H   0  0  0  0  0  0
  -19.3910  -20.1343   21.8418 H   0  0  0  0  0  0
  -26.4688  -17.4033   18.9162 H   0  0  0  0  0  0
  -26.7737  -18.6345   17.7060 H   0  0  0  0  0  0
  -20.5139  -21.5895   20.0570 H   0  0  0  0  0  0
  -20.7693  -22.5508   21.5108 H   0  0  0  0  0  0
  -24.8727  -19.8383   18.1882 H   0  0  0  0  0  0
  -24.3618  -18.7248   19.4508 H   0  0  0  0  0  0
  -23.1970  -22.5435   21.2043 H   0  0  0  0  0  0
  -22.4368  -23.1208   19.7398 H   0  0  0  0  0  0
  -25.1355  -21.6462   19.9800 H   0  0  0  0  0  0
  -24.3873  -20.5320   21.1209 H   0  0  0  0  0  0
  -25.8189  -18.7475   24.5847 H   0  0  0  0  0  0
  -29.1859  -14.9716   21.8057 H   0  0  0  0  0  0
  1 25  1  0  0  0
  1 30  2  0  0  0
  1 93  1  0  0  0
  2  3  1  0  0  0
  2 25  1  0  0  0
  2102  1  0  0  0
  2103  1  0  0  0
  3  4  1  0  0  0
  3104  1  0  0  0
  3105  1  0  0  0
  4  5  1  0  0  0
  4106  1  0  0  0
  4107  1  0  0  0
  5  6  1  0  0  0
  5 26  1  0  0  0
  5108  1  0  0  0
  6 25  1  0  0  0
  6109  1  0  0  0
  6110  1  0  0  0
  7  8  2  0  0  0
  7 26  1  0  0  0
  7 29  1  0  0  0
  8  9  1  0  0  0
  8 22  1  0  0  0
  9 10  1  0  0  0
  9 27  2  0  0  0
 10 11  2  0  0  0
 10 15  1  0  0  0
 11 12  1  0  0  0
 11111  1  0  0  0
 12 13  2  0  0  0
 12112  1  0  0  0
 13 14  1  0  0  0
 13 31  1  0  0  0
 14 15  2  0  0  0
 14113  1  0  0  0
 15114  1  0  0  0
 16 17  2  0  0  0
 16 21  1  0  0  0
 16 31  1  0  0  0
 17 18  1  0  0  0
 17115  1  0  0  0
 18 19  2  0  0  0
 18116  1  0  0  0
 19 20  1  0  0  0
 19 24  1  0  0  0
 20 21  2  0  0  0
 20117  1  0  0  0
 21 23  1  0  0  0
 22 28  1  0  0  0
 22 32  2  0  0  0
 26 27  1  0  0  0
 28118  1  0  0  0
 28119  1  0  0  0
 29120  1  0  0  0
 29121  1  0  0  0
 33 34  1  0  0  0
 33 66  1  0  0  0
 33 70  2  0  0  0
 34 36  1  0  0  0
 34 59  1  0  0  0
 34122  1  0  0  0
 35 44  2  0  0  0
 35 45  1  0  0  0
 35 68  1  0  0  0
 36 56  1  0  0  0
 36123  1  0  0  0
 37 39  1  0  0  0
 37 47  1  0  0  0
 37 66  1  0  0  0
 37124  1  0  0  0
 38 43  2  0  0  0
 38 46  1  0  0  0
 38 47  1  0  0  0
 39 64  1  0  0  0
 39 67  2  0  0  0
 40 52  1  0  0  0
 40 53  2  0  0  0
 40 58  1  0  0  0
 41125  1  0  0  0
 41126  1  0  0  0
 41127  1  0  0  0
 41 48  1  0  0  0
 42 43  1  0  0  0
 42 66  1  0  0  0
 42128  1  0  0  0
 42129  1  0  0  0
 43 44  1  0  0  0
 44130  1  0  0  0
 45 46  2  0  0  0
 45131  1  0  0  0
 46132  1  0  0  0
 47133  1  0  0  0
 47134  1  0  0  0
 48 56  1  0  0  0
 48 65  1  0  0  0
 48135  1  0  0  0
 49 50  1  0  0  0
 49 53  1  0  0  0
 49 64  1  0  0  0
 49136  1  0  0  0
 50 51  1  0  0  0
 50137  1  0  0  0
 50138  1  0  0  0
 51 52  1  0  0  0
 51139  1  0  0  0
 51140  1  0  0  0
 52141  1  0  0  0
 52142  1  0  0  0
 53 54  1  0  0  0
 54 55  2  0  0  0
 54143  1  0  0  0
 55 57  1  0  0  0
 55144  1  0  0  0
 56 69  2  0  0  0
 57 58  2  0  0  0
 57145  1  0  0  0
 58146  1  0  0  0
 59 60  1  0  0  0
 59 61  1  0  0  0
 59 62  1  0  0  0
 60147  1  0  0  0
 60148  1  0  0  0
 60149  1  0  0  0
 61150  1  0  0  0
 61151  1  0  0  0
 61152  1  0  0  0
 62153  1  0  0  0
 62154  1  0  0  0
 62155  1  0  0  0
 63 65  1  0  0  0
 63156  1  0  0  0
 63157  1  0  0  0
 63158  1  0  0  0
 64159  1  0  0  0
 65160  1  0  0  0
 68 77  1  0  0  0
 71 72  2  0  0  0
 71 73  1  0  0  0
 71161  1  0  0  0
 72 75  1  0  0  0
 72162  1  0  0  0
 73 76  2  0  0  0
 73163  1  0  0  0
 74 75  2  0  0  0
 74 76  1  0  0  0
 74164  1  0  0  0
 75 77  1  0  0  0
 76 96  1  0  0  0
 77 94  2  0  0  0
 78 79  1  0  0  0
 78 92  1  0  0  0
 78 95  2  0  0  0
 79 96  1  0  0  0
 79165  1  0  0  0
 79166  1  0  0  0
 80 82  1  0  0  0
 80 92  1  0  0  0
 80167  1  0  0  0
 80168  1  0  0  0
 81 83  1  0  0  0
 81 93  1  0  0  0
 81169  1  0  0  0
 81170  1  0  0  0
 82 97  1  0  0  0
 82171  1  0  0  0
 82172  1  0  0  0
 83 98  1  0  0  0
 83173  1  0  0  0
 83174  1  0  0  0
 84 86  1  0  0  0
 84 97  1  0  0  0
 84175  1  0  0  0
 84176  1  0  0  0
 85 87  1  0  0  0
 85 98  1  0  0  0
 85177  1  0  0  0
 85178  1  0  0  0
 86 99  1  0  0  0
 86179  1  0  0  0
 86180  1  0  0  0
 87100  1  0  0  0
 87181  1  0  0  0
 87182  1  0  0  0
 88 90  1  0  0  0
 88 99  1  0  0  0
 88183  1  0  0  0
 88184  1  0  0  0
 89 91  1  0  0  0
 89100  1  0  0  0
 89185  1  0  0  0
 89186  1  0  0  0
 90101  1  0  0  0
 90187  1  0  0  0
 90188  1  0  0  0
 91101  1  0  0  0
 91189  1  0  0  0
 91190  1  0  0  0
 92191  1  0  0  0
 93192  1  0  0  0
M  ISO  4   1 100  68 101  77 101  93 100
M  END
> <chiral flag>
0

> <version>
0

> <s_m_source_file>
/data/baiqing/PycharmProjects/Reinvent-master-3.2/result/LINK_invent/BTK/process_docking_weight1_custom_sum_contain_oxygen_bond_distance_aromatic_linkinvent_7_9_3/rearranged_h_0000.sdf

> <i_m_source_file_index>
60

> <r_mmod_Potential_Energy-OPLS-2005>
-160.71484375

> <r_mmod_Stretch_Energy-OPLS-2005>
35.6039695739746

> <r_mmod_Bend_Energy-OPLS-2005>
101.988693237305

> <r_mmod_Torsional_Energy-OPLS-2005>
251.79768371582

> <r_mmod_Improper_Torsional_Energy-OPLS-2005>
4.103196144104

> <r_mmod_Van_der_Waal_Energy-OPLS-2005>
135.08854675293

> <r_mmod_Electrostatic_Energy-OPLS-2005>
-417.302124023438

> <r_mmod_Solvation_Energy-OPLS-2005>
-280.534393310547

> <b_mmod_Minimization_Converged-OPLS-2005>
0

> <r_mmod_RMS_Derivative-OPLS-2005>
3.74416160583496

$$$$
63
                    3D
 Structure written by MMmdl.
185193  0  0  1  0            999 V2000
  -30.7285  -14.4258   20.5490 C   0  0  0  0  0  0
  -30.4016  -12.2835   19.3751 C   0  0  0  0  0  0
  -29.4599  -12.4839   18.1691 C   0  0  0  0  0  0
  -27.9843  -12.3564   18.5911 C   0  0  0  0  0  0
  -27.6501  -13.1977   19.8538 C   0  0  2  0  0  0
  -28.7012  -12.9725   20.9626 C   0  0  0  0  0  0
  -25.2588  -13.8245   20.5730 C   0  0  0  0  0  0
  -24.1829  -13.0475   20.9266 C   0  0  0  0  0  0
  -24.6380  -11.6939   20.8810 C   0  0  0  0  0  0
  -23.9038  -10.4297   21.0417 C   0  0  0  0  0  0
  -24.3598   -9.4223   21.9221 C   0  0  0  0  0  0
  -23.6293   -8.2249   22.0789 C   0  0  0  0  0  0
  -22.4276   -8.0294   21.3562 C   0  0  0  0  0  0
  -21.9892   -9.0254   20.4649 C   0  0  0  0  0  0
  -22.7195  -10.2151   20.3068 C   0  0  0  0  0  0
  -21.6859   -6.0724   22.5261 C   0  0  0  0  0  0
  -21.4002   -6.5626   23.8190 C   0  0  0  0  0  0
  -21.3679   -5.6795   24.9183 C   0  0  0  0  0  0
  -21.6080   -4.3059   24.7229 C   0  0  0  0  0  0
  -21.8805   -3.8132   23.4330 C   0  0  0  0  0  0
  -21.9189   -4.6955   22.3392 C   0  0  0  0  0  0
  -22.7843  -13.5257   21.1821 C   0  0  0  0  0  0
  -22.1635   -4.2139   21.0964 F   0  0  0  0  0  0
  -21.5667   -3.4537   25.7732 F   0  0  0  0  0  0
  -30.0292  -13.2701   20.3961 N   0  0  0  0  0  0
  -26.2959  -12.9348   20.3327 N   0  0  0  0  0  0
  -25.9291  -11.6520   20.5843 N   0  0  0  0  0  0
  -22.0460  -12.8244   22.0376 N   0  0  0  0  0  0
  -25.4408  -15.1945   20.4093 N   0  0  0  0  0  0
  -31.8616  -14.6081   20.1018 O   0  0  0  0  0  0
  -21.6669   -6.8877   21.4220 O   0  0  0  0  0  0
  -22.3529  -14.5548   20.6666 O   0  0  0  0  0  0
  -24.6131  -31.8722   23.2128 C   0  0  0  0  0  0
  -25.9034  -32.4850   23.8411 C   0  0  1  0  0  0
  -27.2362  -27.4691   20.0625 C   0  0  0  0  0  0
  -25.5899  -33.8645   24.2358 N   0  0  0  0  0  0
  -23.3990  -30.4940   21.5569 C   0  0  2  0  0  0
  -24.8391  -28.9606   20.1202 C   0  0  0  0  0  0
  -22.7415  -29.4667   22.5058 C   0  0  0  0  0  0
  -18.0264  -28.1379   22.8488 C   0  0  0  0  0  0
  -24.1479  -36.7319   23.2631 C   0  0  0  0  0  0
  -25.9242  -30.8414   21.3605 C   0  0  0  0  0  0
  -25.9988  -29.4770   20.7100 C   0  0  0  0  0  0
  -27.2005  -28.7384   20.6768 C   0  0  0  0  0  0
  -26.0585  -26.9656   19.4633 C   0  0  0  0  0  0
  -24.8611  -27.7017   19.4965 C   0  0  0  0  0  0
  -23.6024  -29.8267   20.1718 C   0  0  0  0  0  0
  -25.4100  -36.3143   24.0351 C   0  0  1  0  0  0
  -20.5852  -28.3661   23.1343 C   0  0  2  0  0  0
  -20.6765  -26.9413   22.5414 C   0  0  0  0  0  0
  -19.5739  -26.6397   21.5213 C   0  0  0  0  0  0
  -18.1922  -26.7924   22.1629 C   0  0  0  0  0  0
  -19.1513  -28.8840   23.2904 C   0  0  0  0  0  0
  -18.9440  -30.1445   23.8916 C   0  0  0  0  0  0
  -17.6445  -30.6586   24.0568 C   0  0  0  0  0  0
  -25.9028  -34.9495   23.5153 C   0  0  0  0  0  0
  -16.5336  -29.9091   23.6316 C   0  0  0  0  0  0
  -16.7256  -28.6505   23.0341 C   0  0  0  0  0  0
  -26.4452  -31.6604   25.0722 C   0  0  0  0  0  0
  -25.3728  -31.3701   26.1487 C   0  0  0  0  0  0
  -27.0253  -30.3057   24.6041 C   0  0  0  0  0  0
  -27.6061  -32.4299   25.7452 C   0  0  0  0  0  0
  -27.5588  -37.1814   24.8468 C   0  0  0  0  0  0
  -21.4150  -29.3028   22.3779 N   0  0  0  0  0  0
  -26.4299  -37.3819   23.9417 N   0  0  0  0  0  0
  -24.6646  -31.0823   22.1026 N   0  0  0  0  0  0
  -23.4194  -28.8218   23.3112 O   0  0  0  0  0  0
  -28.4280  -26.7857   20.0113 O   0  0  0  0  0  0
  -26.5590  -34.8943   22.4716 O   0  0  0  0  0  0
  -23.5328  -32.1467   23.7530 O   0  0  0  0  0  0
  -31.8613  -21.3242   17.5909 C   0  0  0  0  0  0
  -32.0313  -20.5033   19.8761 C   0  0  0  0  0  0
  -31.0041  -22.3567   18.0205 C   0  0  0  0  0  0
  -31.1677  -21.5251   20.3064 C   0  0  0  0  0  0
  -32.3747  -20.3905   18.5164 C   0  0  0  0  0  0
  -30.6551  -22.4636   19.3879 C   0  0  0  0  0  0
  -29.3736  -24.6201   19.4177 C   0  0  0  0  0  0
  -33.2890  -19.2643   18.0648 C   0  0  0  0  0  0
  -28.3877  -25.3876   20.3072 C   0  0  0  0  0  0
  -29.6302  -17.8029   20.5441 C   0  0  0  0  0  0
  -28.5578  -18.8203   20.0978 C   0  0  0  0  0  0
  -29.2014  -16.3269   20.3963 C   0  0  0  0  0  0
  -28.4175  -19.0560   18.5883 C   0  0  0  0  0  0
  -31.8984  -18.0663   16.5525 C   0  0  0  0  0  0
  -32.2245  -16.5864   16.8326 C   0  0  0  0  0  0
  -27.9368  -18.0953   16.4965 C   0  0  0  0  0  0
  -28.2024  -16.8533   15.6324 C   0  0  0  0  0  0
  -31.3804  -14.9856   15.2347 C   0  0  0  0  0  0
  -30.0859  -15.6750   14.7613 C   0  0  0  0  0  0
  -29.7653  -23.4342   19.9130 N   0  0  0  0  0  0
  -30.0887  -15.4346   21.1474 N   0  0  0  0  0  0
  -29.7539  -25.0921   18.3415 O   0  0  0  0  0  0
  -33.0608  -18.8717   16.7140 O   0  0  0  0  0  0
  -28.2244  -17.8456   17.8700 O   0  0  0  0  0  0
  -32.4264  -15.8890   15.6030 O   0  0  0  0  0  0
  -29.5537  -16.4683   15.8114 O   0  0  0  0  0  0
  -31.4404  -12.3668   19.0546 H   0  0  0  0  0  0
  -30.3061  -11.2769   19.7822 H   0  0  0  0  0  0
  -29.6806  -11.7594   17.3853 H   0  0  0  0  0  0
  -29.6259  -13.4654   17.7221 H   0  0  0  0  0  0
  -27.7753  -11.3020   18.7824 H   0  0  0  0  0  0
  -27.3359  -12.6492   17.7612 H   0  0  0  0  0  0
  -27.6950  -14.2375   19.5448 H   0  0  0  0  0  0
  -28.6596  -11.9312   21.2877 H   0  0  0  0  0  0
  -28.4789  -13.5700   21.8487 H   0  0  0  0  0  0
  -25.2731   -9.5742   22.4826 H   0  0  0  0  0  0
  -24.0015   -7.4653   22.7506 H   0  0  0  0  0  0
  -21.0845   -8.8699   19.8955 H   0  0  0  0  0  0
  -22.3601  -10.9703   19.6186 H   0  0  0  0  0  0
  -21.1957   -7.6125   23.9679 H   0  0  0  0  0  0
  -21.1537   -6.0553   25.9096 H   0  0  0  0  0  0
  -22.0576   -2.7592   23.2844 H   0  0  0  0  0  0
  -22.4021  -11.9879   22.4770 H   0  0  0  0  0  0
  -21.1133  -13.1360   22.2601 H   0  0  0  0  0  0
  -24.7085  -15.8835   20.5515 H   0  0  0  0  0  0
  -26.3035  -15.6035   20.0677 H   0  0  0  0  0  0
  -26.7108  -32.5557   23.1172 H   0  0  0  0  0  0
  -25.0064  -33.9792   25.0520 H   0  0  0  0  0  0
  -22.6866  -31.3106   21.4227 H   0  0  0  0  0  0
  -23.3756  -35.9636   23.3304 H   0  0  0  0  0  0
  -24.3577  -36.8911   22.2042 H   0  0  0  0  0  0
  -23.7200  -37.6522   23.6620 H   0  0  0  0  0  0
  -26.0297  -31.6047   20.5879 H   0  0  0  0  0  0
  -26.8161  -30.8975   21.9730 H   0  0  0  0  0  0
  -28.1021  -29.1435   21.1139 H   0  0  0  0  0  0
  -26.0619  -26.0262   18.9310 H   0  0  0  0  0  0
  -23.9728  -27.3079   19.0222 H   0  0  0  0  0  0
  -23.7115  -30.6019   19.4130 H   0  0  0  0  0  0
  -22.7241  -29.2490   19.8782 H   0  0  0  0  0  0
  -25.1263  -36.2027   25.0845 H   0  0  0  0  0  0
  -20.9908  -28.3208   24.1478 H   0  0  0  0  0  0
  -20.5701  -26.2268   23.3595 H   0  0  0  0  0  0
  -21.6640  -26.7490   22.1197 H   0  0  0  0  0  0
  -19.6916  -25.6319   21.1225 H   0  0  0  0  0  0
  -19.6669  -27.3224   20.6764 H   0  0  0  0  0  0
  -17.4196  -26.6664   21.4032 H   0  0  0  0  0  0
  -18.0326  -26.0065   22.9026 H   0  0  0  0  0  0
  -19.7912  -30.7255   24.2306 H   0  0  0  0  0  0
  -17.4993  -31.6262   24.5175 H   0  0  0  0  0  0
  -15.5334  -30.2999   23.7626 H   0  0  0  0  0  0
  -15.8655  -28.0829   22.7048 H   0  0  0  0  0  0
  -24.5866  -30.7090   25.7817 H   0  0  0  0  0  0
  -24.8947  -32.2851   26.4997 H   0  0  0  0  0  0
  -25.8076  -30.8809   27.0212 H   0  0  0  0  0  0
  -26.2767  -29.6855   24.1097 H   0  0  0  0  0  0
  -27.4057  -29.7249   25.4451 H   0  0  0  0  0  0
  -27.8589  -30.4402   23.9145 H   0  0  0  0  0  0
  -27.2727  -33.3599   26.2065 H   0  0  0  0  0  0
  -28.3827  -32.6861   25.0234 H   0  0  0  0  0  0
  -28.0775  -31.8398   26.5319 H   0  0  0  0  0  0
  -28.2629  -38.0097   24.7549 H   0  0  0  0  0  0
  -28.1072  -36.2641   24.6263 H   0  0  0  0  0  0
  -27.2315  -37.1429   25.8875 H   0  0  0  0  0  0
  -20.9351  -29.8725   21.6954 H   0  0  0  0  0  0
  -26.0207  -38.2908   24.1417 H   0  0  0  0  0  0
  -32.1063  -21.2391   16.5420 H   0  0  0  0  0  0
  -32.4098  -19.7863   20.5900 H   0  0  0  0  0  0
  -30.6086  -23.0351   17.2776 H   0  0  0  0  0  0
  -30.8950  -21.5734   21.3535 H   0  0  0  0  0  0
  -33.1921  -18.4231   18.7508 H   0  0  0  0  0  0
  -34.3210  -19.5968   18.1553 H   0  0  0  0  0  0
  -28.6730  -25.2695   21.3530 H   0  0  0  0  0  0
  -27.4076  -24.9251   20.2026 H   0  0  0  0  0  0
  -29.8450  -17.9971   21.5964 H   0  0  0  0  0  0
  -30.5660  -17.9927   20.0154 H   0  0  0  0  0  0
  -28.8063  -19.7907   20.5357 H   0  0  0  0  0  0
  -27.5908  -18.5427   20.5150 H   0  0  0  0  0  0
  -29.1657  -16.0544   19.3382 H   0  0  0  0  0  0
  -28.1887  -16.2007   20.7798 H   0  0  0  0  0  0
  -29.2903  -19.5842   18.2030 H   0  0  0  0  0  0
  -27.5588  -19.7126   18.4240 H   0  0  0  0  0  0
  -31.0711  -18.4125   17.1731 H   0  0  0  0  0  0
  -31.5477  -18.1843   15.5281 H   0  0  0  0  0  0
  -31.4557  -16.1220   17.4545 H   0  0  0  0  0  0
  -33.1380  -16.5111   17.4185 H   0  0  0  0  0  0
  -26.8907  -18.3901   16.4028 H   0  0  0  0  0  0
  -28.5468  -18.9157   16.1133 H   0  0  0  0  0  0
  -28.0050  -17.1060   14.5885 H   0  0  0  0  0  0
  -27.5455  -16.0273   15.8941 H   0  0  0  0  0  0
  -31.7524  -14.3807   14.4064 H   0  0  0  0  0  0
  -31.1735  -14.2861   16.0457 H   0  0  0  0  0  0
  -29.3681  -14.9027   14.4844 H   0  0  0  0  0  0
  -30.2611  -16.2894   13.8750 H   0  0  0  0  0  0
  -29.4018  -23.2344   20.8313 H   0  0  0  0  0  0
  -30.7290  -15.9815   21.7045 H   0  0  0  0  0  0
  1 25  1  0  0  0
  1 30  2  0  0  0
  1 91  1  0  0  0
  2  3  1  0  0  0
  2 25  1  0  0  0
  2 97  1  0  0  0
  2 98  1  0  0  0
  3  4  1  0  0  0
  3 99  1  0  0  0
  3100  1  0  0  0
  4  5  1  0  0  0
  4101  1  0  0  0
  4102  1  0  0  0
  5  6  1  0  0  0
  5 26  1  0  0  0
  5103  1  0  0  0
  6 25  1  0  0  0
  6104  1  0  0  0
  6105  1  0  0  0
  7  8  2  0  0  0
  7 26  1  0  0  0
  7 29  1  0  0  0
  8  9  1  0  0  0
  8 22  1  0  0  0
  9 10  1  0  0  0
  9 27  2  0  0  0
 10 11  2  0  0  0
 10 15  1  0  0  0
 11 12  1  0  0  0
 11106  1  0  0  0
 12 13  2  0  0  0
 12107  1  0  0  0
 13 14  1  0  0  0
 13 31  1  0  0  0
 14 15  2  0  0  0
 14108  1  0  0  0
 15109  1  0  0  0
 16 17  2  0  0  0
 16 21  1  0  0  0
 16 31  1  0  0  0
 17 18  1  0  0  0
 17110  1  0  0  0
 18 19  2  0  0  0
 18111  1  0  0  0
 19 20  1  0  0  0
 19 24  1  0  0  0
 20 21  2  0  0  0
 20112  1  0  0  0
 21 23  1  0  0  0
 22 28  1  0  0  0
 22 32  2  0  0  0
 26 27  1  0  0  0
 28113  1  0  0  0
 28114  1  0  0  0
 29115  1  0  0  0
 29116  1  0  0  0
 33 34  1  0  0  0
 33 66  1  0  0  0
 33 70  2  0  0  0
 34 36  1  0  0  0
 34 59  1  0  0  0
 34117  1  0  0  0
 35 44  2  0  0  0
 35 45  1  0  0  0
 35 68  1  0  0  0
 36 56  1  0  0  0
 36118  1  0  0  0
 37 39  1  0  0  0
 37 47  1  0  0  0
 37 66  1  0  0  0
 37119  1  0  0  0
 38 43  2  0  0  0
 38 46  1  0  0  0
 38 47  1  0  0  0
 39 64  1  0  0  0
 39 67  2  0  0  0
 40 52  1  0  0  0
 40 53  2  0  0  0
 40 58  1  0  0  0
 41120  1  0  0  0
 41121  1  0  0  0
 41122  1  0  0  0
 41 48  1  0  0  0
 42 43  1  0  0  0
 42 66  1  0  0  0
 42123  1  0  0  0
 42124  1  0  0  0
 43 44  1  0  0  0
 44125  1  0  0  0
 45 46  2  0  0  0
 45126  1  0  0  0
 46127  1  0  0  0
 47128  1  0  0  0
 47129  1  0  0  0
 48 56  1  0  0  0
 48 65  1  0  0  0
 48130  1  0  0  0
 49 50  1  0  0  0
 49 53  1  0  0  0
 49 64  1  0  0  0
 49131  1  0  0  0
 50 51  1  0  0  0
 50132  1  0  0  0
 50133  1  0  0  0
 51 52  1  0  0  0
 51134  1  0  0  0
 51135  1  0  0  0
 52136  1  0  0  0
 52137  1  0  0  0
 53 54  1  0  0  0
 54 55  2  0  0  0
 54138  1  0  0  0
 55 57  1  0  0  0
 55139  1  0  0  0
 56 69  2  0  0  0
 57 58  2  0  0  0
 57140  1  0  0  0
 58141  1  0  0  0
 59 60  1  0  0  0
 59 61  1  0  0  0
 59 62  1  0  0  0
 60142  1  0  0  0
 60143  1  0  0  0
 60144  1  0  0  0
 61145  1  0  0  0
 61146  1  0  0  0
 61147  1  0  0  0
 62148  1  0  0  0
 62149  1  0  0  0
 62150  1  0  0  0
 63 65  1  0  0  0
 63151  1  0  0  0
 63152  1  0  0  0
 63153  1  0  0  0
 64154  1  0  0  0
 65155  1  0  0  0
 68 79  1  0  0  0
 71 73  2  0  0  0
 71 75  1  0  0  0
 71156  1  0  0  0
 72 74  1  0  0  0
 72 75  2  0  0  0
 72157  1  0  0  0
 73 76  1  0  0  0
 73158  1  0  0  0
 74 76  2  0  0  0
 74159  1  0  0  0
 75 78  1  0  0  0
 76 90  1  0  0  0
 77 79  1  0  0  0
 77 90  1  0  0  0
 77 92  2  0  0  0
 78 93  1  0  0  0
 78160  1  0  0  0
 78161  1  0  0  0
 79162  1  0  0  0
 79163  1  0  0  0
 80 81  1  0  0  0
 80 82  1  0  0  0
 80164  1  0  0  0
 80165  1  0  0  0
 81 83  1  0  0  0
 81166  1  0  0  0
 81167  1  0  0  0
 82 91  1  0  0  0
 82168  1  0  0  0
 82169  1  0  0  0
 83 94  1  0  0  0
 83170  1  0  0  0
 83171  1  0  0  0
 84 85  1  0  0  0
 84 93  1  0  0  0
 84172  1  0  0  0
 84173  1  0  0  0
 85 95  1  0  0  0
 85174  1  0  0  0
 85175  1  0  0  0
 86 87  1  0  0  0
 86 94  1  0  0  0
 86176  1  0  0  0
 86177  1  0  0  0
 87 96  1  0  0  0
 87178  1  0  0  0
 87179  1  0  0  0
 88 89  1  0  0  0
 88 95  1  0  0  0
 88180  1  0  0  0
 88181  1  0  0  0
 89 96  1  0  0  0
 89182  1  0  0  0
 89183  1  0  0  0
 90184  1  0  0  0
 91185  1  0  0  0
M  ISO  4   1 100  68 101  79 101  91 100
M  END
> <chiral flag>
0

> <version>
0

> <s_m_source_file>
/data/baiqing/PycharmProjects/Reinvent-master-3.2/result/LINK_invent/BTK/process_docking_weight1_custom_sum_contain_oxygen_bond_distance_aromatic_linkinvent_7_9_3/rearranged_h_0000.sdf

> <i_m_source_file_index>
61

> <r_mmod_Potential_Energy-OPLS-2005>
-16.3415222167969

> <r_mmod_Stretch_Energy-OPLS-2005>
34.9633979797363

> <r_mmod_Bend_Energy-OPLS-2005>
122.365539550781

> <r_mmod_Torsional_Energy-OPLS-2005>
315.381713867188

> <r_mmod_Improper_Torsional_Energy-OPLS-2005>
7.4013786315918

> <r_mmod_Van_der_Waal_Energy-OPLS-2005>
128.80290222168

> <r_mmod_Electrostatic_Energy-OPLS-2005>
-370.247802734375

> <r_mmod_Solvation_Energy-OPLS-2005>
-267.227905273438

> <b_mmod_Minimization_Converged-OPLS-2005>
0

> <r_mmod_RMS_Derivative-OPLS-2005>
5.49131870269775

$$$$
64
                    3D
 Structure written by MMmdl.
202211  0  0  1  0            999 V2000
  -30.7815  -14.3381   20.6901 C   0  0  0  0  0  0
  -30.4148  -12.2795   19.3885 C   0  0  0  0  0  0
  -29.4822  -12.5317   18.1892 C   0  0  0  0  0  0
  -28.0063  -12.3924   18.6059 C   0  0  0  0  0  0
  -27.6694  -13.2036   19.8847 C   0  0  2  0  0  0
  -28.7081  -12.9323   20.9961 C   0  0  0  0  0  0
  -25.2616  -13.8161   20.5677 C   0  0  0  0  0  0
  -24.1860  -13.0444   20.9171 C   0  0  0  0  0  0
  -24.6407  -11.6909   20.8727 C   0  0  0  0  0  0
  -23.9069  -10.4296   21.0402 C   0  0  0  0  0  0
  -24.3619   -9.4213   21.9179 C   0  0  0  0  0  0
  -23.6296   -8.2249   22.0755 C   0  0  0  0  0  0
  -22.4276   -8.0286   21.3542 C   0  0  0  0  0  0
  -21.9909   -9.0259   20.4646 C   0  0  0  0  0  0
  -22.7239  -10.2141   20.3052 C   0  0  0  0  0  0
  -21.6850   -6.0738   22.5278 C   0  0  0  0  0  0
  -21.4016   -6.5642   23.8212 C   0  0  0  0  0  0
  -21.3660   -5.6794   24.9174 C   0  0  0  0  0  0
  -21.6042   -4.3055   24.7221 C   0  0  0  0  0  0
  -21.8821   -3.8148   23.4343 C   0  0  0  0  0  0
  -21.9198   -4.6967   22.3400 C   0  0  0  0  0  0
  -22.7882  -13.5246   21.1836 C   0  0  0  0  0  0
  -22.1662   -4.2151   21.0976 F   0  0  0  0  0  0
  -21.5627   -3.4541   25.7736 F   0  0  0  0  0  0
  -30.0531  -13.2171   20.4605 N   0  0  0  0  0  0
  -26.3066  -12.9332   20.3409 N   0  0  0  0  0  0
  -25.9336  -11.6489   20.5768 N   0  0  0  0  0  0
  -22.0517  -12.8231   22.0387 N   0  0  0  0  0  0
  -25.4358  -15.1881   20.4083 N   0  0  0  0  0  0
  -31.8017  -14.6268   20.0574 O   0  0  0  0  0  0
  -21.6640   -6.8883   21.4239 O   0  0  0  0  0  0
  -22.3573  -14.5555   20.6701 O   0  0  0  0  0  0
  -24.6082  -31.8724   23.2101 C   0  0  0  0  0  0
  -25.8992  -32.4850   23.8407 C   0  0  1  0  0  0
  -27.2292  -27.4641   20.0791 C   0  0  0  0  0  0
  -25.5879  -33.8644   24.2352 N   0  0  0  0  0  0
  -23.3961  -30.4933   21.5514 C   0  0  2  0  0  0
  -24.8397  -28.9637   20.1091 C   0  0  0  0  0  0
  -22.7387  -29.4652   22.4993 C   0  0  0  0  0  0
  -18.0267  -28.1375   22.8475 C   0  0  0  0  0  0
  -24.1483  -36.7341   23.2647 C   0  0  0  0  0  0
  -25.9214  -30.8397   21.3617 C   0  0  0  0  0  0
  -25.9965  -29.4774   20.7073 C   0  0  0  0  0  0
  -27.1931  -28.7336   20.6912 C   0  0  0  0  0  0
  -26.0611  -26.9653   19.4596 C   0  0  0  0  0  0
  -24.8659  -27.7051   19.4830 C   0  0  0  0  0  0
  -23.5998  -29.8237   20.1654 C   0  0  0  0  0  0
  -25.4096  -36.3128   24.0347 C   0  0  1  0  0  0
  -20.5843  -28.3643   23.1347 C   0  0  2  0  0  0
  -20.6772  -26.9391   22.5426 C   0  0  0  0  0  0
  -19.5746  -26.6338   21.5243 C   0  0  0  0  0  0
  -18.1914  -26.7917   22.1624 C   0  0  0  0  0  0
  -19.1517  -28.8819   23.2911 C   0  0  0  0  0  0
  -18.9441  -30.1429   23.8905 C   0  0  0  0  0  0
  -17.6455  -30.6587   24.0560 C   0  0  0  0  0  0
  -25.9021  -34.9484   23.5141 C   0  0  0  0  0  0
  -16.5344  -29.9076   23.6330 C   0  0  0  0  0  0
  -16.7263  -28.6499   23.0331 C   0  0  0  0  0  0
  -26.4424  -31.6614   25.0730 C   0  0  0  0  0  0
  -25.3697  -31.3704   26.1504 C   0  0  0  0  0  0
  -27.0270  -30.3060   24.6094 C   0  0  0  0  0  0
  -27.6025  -32.4327   25.7485 C   0  0  0  0  0  0
  -27.5581  -37.1821   24.8468 C   0  0  0  0  0  0
  -21.4116  -29.3019   22.3753 N   0  0  0  0  0  0
  -26.4287  -37.3807   23.9402 N   0  0  0  0  0  0
  -24.6608  -31.0831   22.0993 N   0  0  0  0  0  0
  -23.4184  -28.8187   23.2995 O   0  0  0  0  0  0
  -28.4087  -26.7575   20.1123 O   0  0  0  0  0  0
  -26.5603  -34.8919   22.4730 O   0  0  0  0  0  0
  -23.5267  -32.1488   23.7487 O   0  0  0  0  0  0
  -25.9629  -20.3720   20.0888 C   0  0  0  0  0  0
  -22.1805  -21.9173   17.3087 C   0  0  0  0  0  0
  -21.8954  -24.2215   18.0165 C   0  0  0  0  0  0
  -26.1089  -21.4377   19.1853 C   0  0  0  0  0  0
  -26.9850  -19.4239   20.2296 C   0  0  0  0  0  0
  -20.8667  -21.6310   17.7277 C   0  0  0  0  0  0
  -20.5866  -23.9354   18.4448 C   0  0  0  0  0  0
  -28.2520  -20.5532   18.4837 C   0  0  0  0  0  0
  -22.7081  -23.2206   17.4467 C   0  0  0  0  0  0
  -27.2312  -21.5245   18.3209 C   0  0  0  0  0  0
  -20.0620  -22.6280   18.3159 C   0  0  0  0  0  0
  -28.1649  -19.5387   19.4595 C   0  0  0  0  0  0
  -24.0974  -23.5615   17.1021 C   0  0  0  0  0  0
  -25.0775  -22.6932   16.7864 C   0  0  0  0  0  0
  -26.4308  -23.1844   16.5931 C   0  0  0  0  0  0
  -28.7846  -23.0668   17.1422 C   0  0  0  0  0  0
  -30.7571  -17.4939   21.0304 C   0  0  0  0  0  0
  -30.9206  -16.3902   22.0942 C   0  0  0  0  0  0
  -22.2892  -21.9434   22.0687 C   0  0  0  0  0  0
  -24.2115  -23.3489   21.4606 C   0  0  0  0  0  0
  -29.2970  -17.8653   20.7534 C   0  0  0  0  0  0
  -20.7944  -21.9878   22.4018 C   0  0  0  0  0  0
  -25.2235  -24.3786   21.9775 C   0  0  0  0  0  0
  -18.2316  -22.9103   19.8624 C   0  0  0  0  0  0
  -28.3373  -25.3330   20.2267 C   0  0  0  0  0  0
  -18.7976  -22.3032   21.1572 C   0  0  0  0  0  0
  -27.5085  -24.8633   21.4442 C   0  0  0  0  0  0
  -30.3308  -15.1184   21.6783 N   0  0  0  0  0  0
  -27.4052  -22.5916   17.3551 N   0  0  0  0  0  0
  -22.9572  -23.2546   22.2397 N   0  3  0  0  0  0
  -26.6770  -24.0941   15.7914 O   0  0  0  0  0  0
  -18.7939  -22.2686   18.7145 O   0  0  0  0  0  0
  -29.2613  -18.7222   19.6171 O   0  0  0  0  0  0
  -20.1551  -22.6908   21.3430 O   0  0  0  0  0  0
  -26.2362  -24.4296   20.9841 O   0  0  0  0  0  0
  -31.4582  -12.3756   19.0815 H   0  0  0  0  0  0
  -30.3074  -11.2536   19.7446 H   0  0  0  0  0  0
  -29.7095  -11.8337   17.3822 H   0  0  0  0  0  0
  -29.6587  -13.5315   17.7886 H   0  0  0  0  0  0
  -27.8051  -11.3339   18.7736 H   0  0  0  0  0  0
  -27.3552  -12.6995   17.7867 H   0  0  0  0  0  0
  -27.7322  -14.2605   19.6237 H   0  0  0  0  0  0
  -28.6647  -11.8864   21.3044 H   0  0  0  0  0  0
  -28.4599  -13.5036   21.8906 H   0  0  0  0  0  0
  -25.2767   -9.5685   22.4747 H   0  0  0  0  0  0
  -24.0004   -7.4640   22.7471 H   0  0  0  0  0  0
  -21.0840   -8.8778   19.8948 H   0  0  0  0  0  0
  -22.3700  -10.9678   19.6158 H   0  0  0  0  0  0
  -21.2008   -7.6149   23.9715 H   0  0  0  0  0  0
  -21.1477   -6.0523   25.9076 H   0  0  0  0  0  0
  -22.0601   -2.7612   23.2843 H   0  0  0  0  0  0
  -22.4125  -11.9884   22.4761 H   0  0  0  0  0  0
  -21.1133  -13.1257   22.2584 H   0  0  0  0  0  0
  -24.6691  -15.8443   20.5056 H   0  0  0  0  0  0
  -26.2917  -15.6206   20.0850 H   0  0  0  0  0  0
  -26.7074  -32.5544   23.1172 H   0  0  0  0  0  0
  -25.0014  -33.9851   25.0477 H   0  0  0  0  0  0
  -22.6815  -31.3073   21.4097 H   0  0  0  0  0  0
  -23.3733  -35.9696   23.3317 H   0  0  0  0  0  0
  -24.3583  -36.8949   22.2068 H   0  0  0  0  0  0
  -23.7246  -37.6544   23.6656 H   0  0  0  0  0  0
  -26.0340  -31.6014   20.5891 H   0  0  0  0  0  0
  -26.8121  -30.8933   21.9772 H   0  0  0  0  0  0
  -28.0888  -29.1234   21.1542 H   0  0  0  0  0  0
  -26.0627  -26.0080   18.9586 H   0  0  0  0  0  0
  -23.9796  -27.3114   19.0095 H   0  0  0  0  0  0
  -23.7022  -30.5971   19.4038 H   0  0  0  0  0  0
  -22.7225  -29.2419   19.8771 H   0  0  0  0  0  0
  -25.1253  -36.2005   25.0840 H   0  0  0  0  0  0
  -20.9933  -28.3228   24.1482 H   0  0  0  0  0  0
  -20.5678  -26.2290   23.3625 H   0  0  0  0  0  0
  -21.6640  -26.7498   22.1195 H   0  0  0  0  0  0
  -19.6926  -25.6224   21.1348 H   0  0  0  0  0  0
  -19.6676  -27.3109   20.6735 H   0  0  0  0  0  0
  -17.4197  -26.6674   21.4014 H   0  0  0  0  0  0
  -18.0266  -26.0069   22.9010 H   0  0  0  0  0  0
  -19.7911  -30.7241   24.2289 H   0  0  0  0  0  0
  -17.5000  -31.6255   24.5185 H   0  0  0  0  0  0
  -15.5341  -30.2978   23.7638 H   0  0  0  0  0  0
  -15.8664  -28.0828   22.7030 H   0  0  0  0  0  0
  -24.5847  -30.7074   25.7841 H   0  0  0  0  0  0
  -24.8900  -32.2848   26.5009 H   0  0  0  0  0  0
  -25.8053  -30.8821   27.0239 H   0  0  0  0  0  0
  -26.2832  -29.6818   24.1126 H   0  0  0  0  0  0
  -27.4047  -29.7280   25.4541 H   0  0  0  0  0  0
  -27.8640  -30.4398   23.9239 H   0  0  0  0  0  0
  -27.2678  -33.3626   26.2097 H   0  0  0  0  0  0
  -28.3805  -32.6917   25.0288 H   0  0  0  0  0  0
  -28.0732  -31.8431   26.5357 H   0  0  0  0  0  0
  -28.2604  -38.0120   24.7521 H   0  0  0  0  0  0
  -28.1067  -36.2646   24.6257 H   0  0  0  0  0  0
  -27.2318  -37.1458   25.8884 H   0  0  0  0  0  0
  -20.9274  -29.8810   21.7049 H   0  0  0  0  0  0
  -26.0176  -38.2891   24.1376 H   0  0  0  0  0  0
  -25.0739  -20.2890   20.6978 H   0  0  0  0  0  0
  -22.7721  -21.1203   16.8845 H   0  0  0  0  0  0
  -22.2793  -25.2237   18.1439 H   0  0  0  0  0  0
  -25.3315  -22.1823   19.1694 H   0  0  0  0  0  0
  -26.8458  -18.6334   20.9518 H   0  0  0  0  0  0
  -20.4819  -20.6266   17.6172 H   0  0  0  0  0  0
  -20.0051  -24.7423   18.8639 H   0  0  0  0  0  0
  -29.1452  -20.5872   17.8739 H   0  0  0  0  0  0
  -24.3385  -24.6170   17.1383 H   0  0  0  0  0  0
  -24.8933  -21.6321   16.7114 H   0  0  0  0  0  0
  -29.2290  -22.5752   16.2766 H   0  0  0  0  0  0
  -29.4201  -22.8767   18.0066 H   0  0  0  0  0  0
  -28.8389  -24.1445   16.9827 H   0  0  0  0  0  0
  -31.2385  -17.1938   20.0998 H   0  0  0  0  0  0
  -31.2888  -18.3884   21.3584 H   0  0  0  0  0  0
  -30.4519  -16.7040   23.0277 H   0  0  0  0  0  0
  -31.9788  -16.2426   22.3174 H   0  0  0  0  0  0
  -22.4053  -21.5916   21.0408 H   0  0  0  0  0  0
  -22.7925  -21.2112   22.7024 H   0  0  0  0  0  0
  -24.7061  -22.3791   21.4763 H   0  0  0  0  0  0
  -23.9585  -23.5659   20.4224 H   0  0  0  0  0  0
  -28.9015  -18.3431   21.6515 H   0  0  0  0  0  0
  -28.6934  -16.9796   20.5485 H   0  0  0  0  0  0
  -20.5931  -22.4533   23.3687 H   0  0  0  0  0  0
  -20.4397  -20.9575   22.4577 H   0  0  0  0  0  0
  -25.6216  -24.0593   22.9423 H   0  0  0  0  0  0
  -24.7878  -25.3708   22.1018 H   0  0  0  0  0  0
  -18.3075  -23.9962   19.8530 H   0  0  0  0  0  0
  -17.1620  -22.7012   19.8340 H   0  0  0  0  0  0
  -29.3644  -24.9869   20.3523 H   0  0  0  0  0  0
  -27.9862  -24.8740   19.3021 H   0  0  0  0  0  0
  -18.7016  -21.2168   21.1046 H   0  0  0  0  0  0
  -18.2073  -22.6387   22.0110 H   0  0  0  0  0  0
  -27.4299  -25.6615   22.1855 H   0  0  0  0  0  0
  -27.9950  -24.0194   21.9323 H   0  0  0  0  0  0
  -29.5147  -14.7946   22.1770 H   0  0  0  0  0  0
  -23.1394  -23.4045   23.2219 H   0  0  0  0  0  0
  -22.3278  -23.9810   21.9273 H   0  0  0  0  0  0
  1 25  1  0  0  0
  1 30  2  0  0  0
  1 98  1  0  0  0
  2  3  1  0  0  0
  2 25  1  0  0  0
  2106  1  0  0  0
  2107  1  0  0  0
  3  4  1  0  0  0
  3108  1  0  0  0
  3109  1  0  0  0
  4  5  1  0  0  0
  4110  1  0  0  0
  4111  1  0  0  0
  5  6  1  0  0  0
  5 26  1  0  0  0
  5112  1  0  0  0
  6 25  1  0  0  0
  6113  1  0  0  0
  6114  1  0  0  0
  7  8  2  0  0  0
  7 26  1  0  0  0
  7 29  1  0  0  0
  8  9  1  0  0  0
  8 22  1  0  0  0
  9 10  1  0  0  0
  9 27  2  0  0  0
 10 11  2  0  0  0
 10 15  1  0  0  0
 11 12  1  0  0  0
 11115  1  0  0  0
 12 13  2  0  0  0
 12116  1  0  0  0
 13 14  1  0  0  0
 13 31  1  0  0  0
 14 15  2  0  0  0
 14117  1  0  0  0
 15118  1  0  0  0
 16 17  2  0  0  0
 16 21  1  0  0  0
 16 31  1  0  0  0
 17 18  1  0  0  0
 17119  1  0  0  0
 18 19  2  0  0  0
 18120  1  0  0  0
 19 20  1  0  0  0
 19 24  1  0  0  0
 20 21  2  0  0  0
 20121  1  0  0  0
 21 23  1  0  0  0
 22 28  1  0  0  0
 22 32  2  0  0  0
 26 27  1  0  0  0
 28122  1  0  0  0
 28123  1  0  0  0
 29124  1  0  0  0
 29125  1  0  0  0
 33 34  1  0  0  0
 33 66  1  0  0  0
 33 70  2  0  0  0
 34 36  1  0  0  0
 34 59  1  0  0  0
 34126  1  0  0  0
 35 44  2  0  0  0
 35 45  1  0  0  0
 35 68  1  0  0  0
 36 56  1  0  0  0
 36127  1  0  0  0
 37 39  1  0  0  0
 37 47  1  0  0  0
 37 66  1  0  0  0
 37128  1  0  0  0
 38 43  2  0  0  0
 38 46  1  0  0  0
 38 47  1  0  0  0
 39 64  1  0  0  0
 39 67  2  0  0  0
 40 52  1  0  0  0
 40 53  2  0  0  0
 40 58  1  0  0  0
 41129  1  0  0  0
 41130  1  0  0  0
 41131  1  0  0  0
 41 48  1  0  0  0
 42 43  1  0  0  0
 42 66  1  0  0  0
 42132  1  0  0  0
 42133  1  0  0  0
 43 44  1  0  0  0
 44134  1  0  0  0
 45 46  2  0  0  0
 45135  1  0  0  0
 46136  1  0  0  0
 47137  1  0  0  0
 47138  1  0  0  0
 48 56  1  0  0  0
 48 65  1  0  0  0
 48139  1  0  0  0
 49 50  1  0  0  0
 49 53  1  0  0  0
 49 64  1  0  0  0
 49140  1  0  0  0
 50 51  1  0  0  0
 50141  1  0  0  0
 50142  1  0  0  0
 51 52  1  0  0  0
 51143  1  0  0  0
 51144  1  0  0  0
 52145  1  0  0  0
 52146  1  0  0  0
 53 54  1  0  0  0
 54 55  2  0  0  0
 54147  1  0  0  0
 55 57  1  0  0  0
 55148  1  0  0  0
 56 69  2  0  0  0
 57 58  2  0  0  0
 57149  1  0  0  0
 58150  1  0  0  0
 59 60  1  0  0  0
 59 61  1  0  0  0
 59 62  1  0  0  0
 60151  1  0  0  0
 60152  1  0  0  0
 60153  1  0  0  0
 61154  1  0  0  0
 61155  1  0  0  0
 61156  1  0  0  0
 62157  1  0  0  0
 62158  1  0  0  0
 62159  1  0  0  0
 63 65  1  0  0  0
 63160  1  0  0  0
 63161  1  0  0  0
 63162  1  0  0  0
 64163  1  0  0  0
 65164  1  0  0  0
 68 95  1  0  0  0
 71 74  2  0  0  0
 71 75  1  0  0  0
 71165  1  0  0  0
 72 76  2  0  0  0
 72 79  1  0  0  0
 72166  1  0  0  0
 73 77  1  0  0  0
 73 79  2  0  0  0
 73167  1  0  0  0
 74 80  1  0  0  0
 74168  1  0  0  0
 75 82  2  0  0  0
 75169  1  0  0  0
 76 81  1  0  0  0
 76170  1  0  0  0
 77 81  2  0  0  0
 77171  1  0  0  0
 78 80  2  0  0  0
 78 82  1  0  0  0
 78172  1  0  0  0
 79 83  1  0  0  0
 80 99  1  0  0  0
 81102  1  0  0  0
 82103  1  0  0  0
 83 84  2  0  0  0
 83173  1  0  0  0
 84 85  1  0  0  0
 84174  1  0  0  0
 85 99  1  0  0  0
 85101  2  0  0  0
 86 99  1  0  0  0
 86175  1  0  0  0
 86176  1  0  0  0
 86177  1  0  0  0
 87 88  1  0  0  0
 87 91  1  0  0  0
 87178  1  0  0  0
 87179  1  0  0  0
 88 98  1  0  0  0
 88180  1  0  0  0
 88181  1  0  0  0
 89 92  1  0  0  0
 89100  1  0  0  0
 89182  1  0  0  0
 89183  1  0  0  0
 90 93  1  0  0  0
 90100  1  0  0  0
 90184  1  0  0  0
 90185  1  0  0  0
 91103  1  0  0  0
 91186  1  0  0  0
 91187  1  0  0  0
 92104  1  0  0  0
 92188  1  0  0  0
 92189  1  0  0  0
 93105  1  0  0  0
 93190  1  0  0  0
 93191  1  0  0  0
 94 96  1  0  0  0
 94102  1  0  0  0
 94192  1  0  0  0
 94193  1  0  0  0
 95 97  1  0  0  0
 95194  1  0  0  0
 95195  1  0  0  0
 96104  1  0  0  0
 96196  1  0  0  0
 96197  1  0  0  0
 97105  1  0  0  0
 97198  1  0  0  0
 97199  1  0  0  0
 98200  1  0  0  0
100201  1  0  0  0
100202  1  0  0  0
M  CHG  1 100   1
M  ISO  4   1 100  68 101  95 101  98 100
M  END
> <chiral flag>
0

> <version>
0

> <s_m_source_file>
/data/baiqing/PycharmProjects/Reinvent-master-3.2/result/LINK_invent/BTK/process_docking_weight1_custom_sum_contain_oxygen_bond_distance_aromatic_linkinvent_7_9_3/rearranged_h_0000.sdf

> <i_m_source_file_index>
62

> <r_mmod_Potential_Energy-OPLS-2005>
-111.520629882812

> <r_mmod_Stretch_Energy-OPLS-2005>
43.312801361084

> <r_mmod_Bend_Energy-OPLS-2005>
131.057907104492

> <r_mmod_Torsional_Energy-OPLS-2005>
279.854919433594

> <r_mmod_Improper_Torsional_Energy-OPLS-2005>
2.46122026443481

> <r_mmod_Van_der_Waal_Energy-OPLS-2005>
169.860778808594

> <r_mmod_Electrostatic_Energy-OPLS-2005>
-271.814483642578

> <r_mmod_Solvation_Energy-OPLS-2005>
-474.590911865234

> <b_mmod_Minimization_Converged-OPLS-2005>
0

> <r_mmod_RMS_Derivative-OPLS-2005>
3.03156685829163

$$$$
65
                    3D
 Structure written by MMmdl.
179188  0  0  1  0            999 V2000
  -29.6811  -15.5308   20.3790 C   0  0  0  0  0  0
  -30.3063  -13.0493   19.5826 C   0  0  0  0  0  0
  -29.4968  -12.6202   18.3283 C   0  0  0  0  0  0
  -28.0570  -12.2436   18.7266 C   0  0  0  0  0  0
  -27.5018  -13.2203   19.7912 C   0  0  2  0  0  0
  -28.4343  -13.3984   20.9777 C   0  0  0  0  0  0
  -25.1898  -13.7954   20.5737 C   0  0  0  0  0  0
  -24.1302  -13.0216   20.9286 C   0  0  0  0  0  0
  -24.5963  -11.6718   20.8768 C   0  0  0  0  0  0
  -23.8789  -10.4139   21.0459 C   0  0  0  0  0  0
  -24.3453   -9.4103   21.9222 C   0  0  0  0  0  0
  -23.6194   -8.2113   22.0750 C   0  0  0  0  0  0
  -22.4173   -8.0161   21.3540 C   0  0  0  0  0  0
  -21.9755   -9.0096   20.4638 C   0  0  0  0  0  0
  -22.7007  -10.1994   20.3081 C   0  0  0  0  0  0
  -21.6807   -6.0669   22.5290 C   0  0  0  0  0  0
  -21.3979   -6.5599   23.8218 C   0  0  0  0  0  0
  -21.3643   -5.6763   24.9186 C   0  0  0  0  0  0
  -21.6046   -4.3029   24.7243 C   0  0  0  0  0  0
  -21.8821   -3.8108   23.4368 C   0  0  0  0  0  0
  -21.9179   -4.6911   22.3420 C   0  0  0  0  0  0
  -22.7430  -13.5074   21.1998 C   0  0  0  0  0  0
  -22.1654   -4.2104   21.0995 F   0  0  0  0  0  0
  -21.5634   -3.4522   25.7759 F   0  0  0  0  0  0
  -29.5141  -14.1072   20.3579 N   0  0  0  0  0  0
  -26.1992  -12.9064   20.2803 N   0  0  0  0  0  0
  -25.8759  -11.6252   20.5495 N   0  0  0  0  0  0
  -22.0110  -12.8132   22.0611 N   0  0  0  0  0  0
  -25.3698  -15.1662   20.4577 N   0  0  0  0  0  0
  -30.9168  -15.6956   20.1658 O   0  0  0  0  0  0
  -21.6565   -6.8761   21.4233 O   0  0  0  0  0  0
  -22.3182  -14.5416   20.6837 O   0  0  0  0  0  0
  -24.6780  -31.9529   23.1671 C   0  0  0  0  0  0
  -25.9501  -32.5152   23.8478 C   0  0  1  0  0  0
  -26.9754  -27.3412   20.4484 C   0  0  0  0  0  0
  -25.6307  -33.8860   24.2552 N   0  0  0  0  0  0
  -23.5292  -30.6878   21.4027 C   0  0  2  0  0  0
  -24.9006  -29.0803   20.0020 C   0  0  0  0  0  0
  -22.9975  -29.6351   22.3164 C   0  0  0  0  0  0
  -18.0838  -27.7459   22.7088 C   0  0  0  0  0  0
  -24.1495  -36.7412   23.2606 C   0  0  0  0  0  0
  -26.0247  -30.9128   21.3169 C   0  0  0  0  0  0
  -26.0426  -29.5354   20.6771 C   0  0  0  0  0  0
  -27.1309  -28.6745   20.8584 C   0  0  0  0  0  0
  -25.9636  -26.9548   19.5526 C   0  0  0  0  0  0
  -24.8700  -27.8141   19.3871 C   0  0  0  0  0  0
  -23.7311  -30.0215   20.0096 C   0  0  0  0  0  0
  -25.4102  -36.3244   24.0347 C   0  0  1  0  0  0
  -21.3109  -28.3002   22.8518 C   0  0  2  0  0  0
  -22.0143  -26.0012   22.5874 C   0  0  0  0  0  0
  -20.0428  -24.5787   22.4093 C   0  0  0  0  0  0
  -18.1257  -25.7645   22.3706 C   0  0  0  0  0  0
  -19.3900  -28.7739   22.9378 C   0  0  0  0  0  0
  -19.0893  -30.0250   23.5617 C   0  0  0  0  0  0
  -17.7809  -30.4740   23.8390 C   0  0  0  0  0  0
  -25.9118  -34.9656   23.5163 C   0  0  0  0  0  0
  -16.6730  -29.6740   23.5072 C   0  0  0  0  0  0
  -16.8273  -28.3618   22.9910 C   0  0  0  0  0  0
  -26.4526  -31.6604   25.0747 C   0  0  0  0  0  0
  -25.3614  -31.3637   26.1300 C   0  0  0  0  0  0
  -27.0320  -30.3061   24.6019 C   0  0  0  0  0  0
  -27.6045  -32.4153   25.7794 C   0  0  0  0  0  0
  -27.5597  -37.1892   24.8460 C   0  0  0  0  0  0
  -21.8046  -29.2495   22.0136 N   0  0  0  0  0  0
  -26.4286  -37.3922   23.9444 N   0  0  0  0  0  0
  -24.7639  -31.2284   22.0116 N   0  0  0  0  0  0
  -23.6394  -29.1766   23.2569 O   0  0  0  0  0  0
  -27.3421  -26.4025   21.3577 O   0  0  0  0  0  0
  -26.5497  -34.9080   22.4619 O   0  0  0  0  0  0
  -23.5850  -32.2049   23.7019 O   0  0  0  0  0  0
  -26.5328  -17.6562   19.1306 C   0  0  0  0  0  0
  -25.4009  -18.4963   18.7345 C   0  0  0  0  0  0
  -26.7678  -19.1652   20.9101 C   0  0  0  0  0  0
  -25.5640  -20.1467   20.5009 C   0  0  0  0  0  0
  -27.3789  -17.8259   20.2813 C   0  0  0  0  0  0
  -24.9000  -19.7096   19.3512 C   0  0  0  0  0  0
  -20.1813  -26.6769   21.3345 C   0  0  0  0  0  0
  -24.7712  -21.6387   21.0716 C   0  0  0  0  0  0
  -23.2688  -22.5311   20.4684 C   0  0  2  0  0  0
  -23.3361  -21.8448   19.0315 C   0  0  0  0  0  0
  -24.2680  -22.6507   18.1202 C   0  0  0  0  0  0
  -21.9124  -21.8540   18.4385 C   0  0  0  0  0  0
  -20.5948  -25.1848   25.5401 C   0  0  0  0  0  0
  -21.2339  -25.3333   20.3025 C   0  0  0  0  0  0
  -26.1526  -25.9129   22.2755 C   0  0  0  0  0  0
  -25.3110  -26.6852   23.5262 C   0  0  0  0  0  0
  -22.7273  -26.8191   24.9557 C   0  0  0  0  0  0
  -20.9641  -26.4629   24.7627 C   0  0  1  0  0  0
  -28.6477  -16.6954   20.7007 N   0  0  0  0  0  0
  -20.0205  -26.5768   23.3488 N   0  0  0  0  0  0
  -19.6245  -27.4645   20.5546 O   0  0  0  0  0  0
  -23.7295  -20.3870   18.8922 O   0  0  0  0  0  0
  -22.4695  -24.1021   20.7677 O   0  0  0  0  0  0
  -23.9909  -26.1801   24.2114 O   0  0  0  0  0  0
  -31.2806  -13.4289   19.2701 H   0  0  0  0  0  0
  -30.5233  -12.1860   20.2134 H   0  0  0  0  0  0
  -29.9856  -11.7928   17.8130 H   0  0  0  0  0  0
  -29.4676  -13.4529   17.6237 H   0  0  0  0  0  0
  -28.0776  -11.2346   19.1404 H   0  0  0  0  0  0
  -27.4079  -12.2028   17.8519 H   0  0  0  0  0  0
  -27.3913  -14.1693   19.2629 H   0  0  0  0  0  0
  -28.7178  -12.4520   21.4419 H   0  0  0  0  0  0
  -27.9797  -14.0179   21.7551 H   0  0  0  0  0  0
  -25.2595   -9.5622   22.4785 H   0  0  0  0  0  0
  -23.9926   -7.4497   22.7454 H   0  0  0  0  0  0
  -21.0687   -8.8559   19.8964 H   0  0  0  0  0  0
  -22.3436  -10.9529   19.6206 H   0  0  0  0  0  0
  -21.1955   -7.6107   23.9703 H   0  0  0  0  0  0
  -21.1480   -6.0504   25.9089 H   0  0  0  0  0  0
  -22.0627   -2.7573   23.2880 H   0  0  0  0  0  0
  -22.3709  -11.9784   22.4993 H   0  0  0  0  0  0
  -21.0771  -13.1235   22.2889 H   0  0  0  0  0  0
  -24.6159  -15.8252   20.6161 H   0  0  0  0  0  0
  -26.2512  -15.6193   20.2525 H   0  0  0  0  0  0
  -26.7772  -32.5869   23.1480 H   0  0  0  0  0  0
  -25.0619  -33.9985   25.0816 H   0  0  0  0  0  0
  -22.7930  -31.4904   21.3003 H   0  0  0  0  0  0
  -23.3771  -35.9732   23.3258 H   0  0  0  0  0  0
  -24.3608  -36.9039   22.2024 H   0  0  0  0  0  0
  -23.7230  -37.6620   23.6609 H   0  0  0  0  0  0
  -26.1797  -31.6561   20.5343 H   0  0  0  0  0  0
  -26.8957  -30.9520   21.9584 H   0  0  0  0  0  0
  -27.9136  -28.9408   21.5564 H   0  0  0  0  0  0
  -25.8635  -25.9243   19.2377 H   0  0  0  0  0  0
  -23.9941  -27.4748   18.8511 H   0  0  0  0  0  0
  -23.9481  -30.7966   19.2750 H   0  0  0  0  0  0
  -22.8340  -29.5265   19.6400 H   0  0  0  0  0  0
  -25.1249  -36.2130   25.0834 H   0  0  0  0  0  0
  -21.4659  -28.6795   23.8620 H   0  0  0  0  0  0
  -22.3757  -25.2585   23.2902 H   0  0  0  0  0  0
  -22.8565  -26.0023   21.8887 H   0  0  0  0  0  0
  -20.0413  -23.9634   23.3054 H   0  0  0  0  0  0
  -20.0431  -23.7791   21.6676 H   0  0  0  0  0  0
  -17.6467  -25.5834   21.4083 H   0  0  0  0  0  0
  -17.4505  -25.2884   23.0847 H   0  0  0  0  0  0
  -19.9212  -30.6601   23.8259 H   0  0  0  0  0  0
  -17.6338  -31.4499   24.2802 H   0  0  0  0  0  0
  -15.6776  -30.0463   23.7012 H   0  0  0  0  0  0
  -15.9370  -27.7656   22.8561 H   0  0  0  0  0  0
  -24.5833  -30.7072   25.7396 H   0  0  0  0  0  0
  -24.8804  -32.2776   26.4791 H   0  0  0  0  0  0
  -25.7812  -30.8667   27.0058 H   0  0  0  0  0  0
  -26.2921  -29.7063   24.0747 H   0  0  0  0  0  0
  -27.3772  -29.7092   25.4463 H   0  0  0  0  0  0
  -27.8910  -30.4395   23.9442 H   0  0  0  0  0  0
  -27.2591  -33.3328   26.2582 H   0  0  0  0  0  0
  -28.3920  -32.6888   25.0756 H   0  0  0  0  0  0
  -28.0615  -31.8070   26.5619 H   0  0  0  0  0  0
  -28.2593  -38.0210   24.7567 H   0  0  0  0  0  0
  -28.1120  -36.2765   24.6194 H   0  0  0  0  0  0
  -27.2346  -37.1437   25.8866 H   0  0  0  0  0  0
  -21.2466  -29.6461   21.2704 H   0  0  0  0  0  0
  -26.0188  -38.3004   24.1482 H   0  0  0  0  0  0
  -26.7214  -16.7929   18.5088 H   0  0  0  0  0  0
  -24.8547  -18.1578   17.8652 H   0  0  0  0  0  0
  -27.2634  -19.4766   21.8201 H   0  0  0  0  0  0
  -25.5698  -22.3767   21.0332 H   0  0  0  0  0  0
  -24.6120  -21.4816   22.1380 H   0  0  0  0  0  0
  -22.4953  -21.9488   20.9688 H   0  0  0  0  0  0
  -23.9699  -23.6997   18.0960 H   0  0  0  0  0  0
  -24.2453  -22.2736   17.0980 H   0  0  0  0  0  0
  -25.2980  -22.6038   18.4673 H   0  0  0  0  0  0
  -21.5092  -22.8672   18.3802 H   0  0  0  0  0  0
  -21.2244  -21.2616   19.0437 H   0  0  0  0  0  0
  -21.8936  -21.4367   17.4301 H   0  0  0  0  0  0
  -20.7667  -25.3062   26.6095 H   0  0  0  0  0  0
  -21.1771  -24.3205   25.2172 H   0  0  0  0  0  0
  -19.5372  -24.9445   25.4155 H   0  0  0  0  0  0
  -21.7335  -25.9390   19.5450 H   0  0  0  0  0  0
  -20.4987  -24.7695   19.7264 H   0  0  0  0  0  0
  -25.3847  -25.5258   21.6025 H   0  0  0  0  0  0
  -26.5284  -24.9975   22.7383 H   0  0  0  0  0  0
  -25.2663  -27.7055   23.2049 H   0  0  0  0  0  0
  -26.0173  -26.7451   24.3523 H   0  0  0  0  0  0
  -22.9243  -26.5547   25.9967 H   0  0  0  0  0  0
  -22.8958  -27.8846   25.0594 H   0  0  0  0  0  0
  -20.4929  -27.2348   25.3729 H   0  0  0  0  0  0
  -29.2064  -17.2152   21.3631 H   0  0  0  0  0  0
  -19.2016  -27.1444   23.5653 H   0  0  0  0  0  0
  1 25  1  0  0  0
  1 30  2  0  0  0
  1 89  1  0  0  0
  2  3  1  0  0  0
  2 25  1  0  0  0
  2 95  1  0  0  0
  2 96  1  0  0  0
  3  4  1  0  0  0
  3 97  1  0  0  0
  3 98  1  0  0  0
  4  5  1  0  0  0
  4 99  1  0  0  0
  4100  1  0  0  0
  5  6  1  0  0  0
  5 26  1  0  0  0
  5101  1  0  0  0
  6 25  1  0  0  0
  6102  1  0  0  0
  6103  1  0  0  0
  7  8  2  0  0  0
  7 26  1  0  0  0
  7 29  1  0  0  0
  8  9  1  0  0  0
  8 22  1  0  0  0
  9 10  1  0  0  0
  9 27  2  0  0  0
 10 11  2  0  0  0
 10 15  1  0  0  0
 11 12  1  0  0  0
 11104  1  0  0  0
 12 13  2  0  0  0
 12105  1  0  0  0
 13 14  1  0  0  0
 13 31  1  0  0  0
 14 15  2  0  0  0
 14106  1  0  0  0
 15107  1  0  0  0
 16 17  2  0  0  0
 16 21  1  0  0  0
 16 31  1  0  0  0
 17 18  1  0  0  0
 17108  1  0  0  0
 18 19  2  0  0  0
 18109  1  0  0  0
 19 20  1  0  0  0
 19 24  1  0  0  0
 20 21  2  0  0  0
 20110  1  0  0  0
 21 23  1  0  0  0
 22 28  1  0  0  0
 22 32  2  0  0  0
 26 27  1  0  0  0
 28111  1  0  0  0
 28112  1  0  0  0
 29113  1  0  0  0
 29114  1  0  0  0
 33 34  1  0  0  0
 33 66  1  0  0  0
 33 70  2  0  0  0
 34 36  1  0  0  0
 34 59  1  0  0  0
 34115  1  0  0  0
 35 44  2  0  0  0
 35 45  1  0  0  0
 35 68  1  0  0  0
 36 56  1  0  0  0
 36116  1  0  0  0
 37 39  1  0  0  0
 37 47  1  0  0  0
 37 66  1  0  0  0
 37117  1  0  0  0
 38 43  2  0  0  0
 38 46  1  0  0  0
 38 47  1  0  0  0
 39 64  1  0  0  0
 39 67  2  0  0  0
 40 52  1  0  0  0
 40 53  2  0  0  0
 40 58  1  0  0  0
 41118  1  0  0  0
 41119  1  0  0  0
 41120  1  0  0  0
 41 48  1  0  0  0
 42 43  1  0  0  0
 42 66  1  0  0  0
 42121  1  0  0  0
 42122  1  0  0  0
 43 44  1  0  0  0
 44123  1  0  0  0
 45 46  2  0  0  0
 45124  1  0  0  0
 46125  1  0  0  0
 47126  1  0  0  0
 47127  1  0  0  0
 48 56  1  0  0  0
 48 65  1  0  0  0
 48128  1  0  0  0
 49 50  1  0  0  0
 49 53  1  0  0  0
 49 64  1  0  0  0
 49129  1  0  0  0
 50 51  1  0  0  0
 50130  1  0  0  0
 50131  1  0  0  0
 51 52  1  0  0  0
 51132  1  0  0  0
 51133  1  0  0  0
 52134  1  0  0  0
 52135  1  0  0  0
 53 54  1  0  0  0
 54 55  2  0  0  0
 54136  1  0  0  0
 55 57  1  0  0  0
 55137  1  0  0  0
 56 69  2  0  0  0
 57 58  2  0  0  0
 57138  1  0  0  0
 58139  1  0  0  0
 59 60  1  0  0  0
 59 61  1  0  0  0
 59 62  1  0  0  0
 60140  1  0  0  0
 60141  1  0  0  0
 60142  1  0  0  0
 61143  1  0  0  0
 61144  1  0  0  0
 61145  1  0  0  0
 62146  1  0  0  0
 62147  1  0  0  0
 62148  1  0  0  0
 63 65  1  0  0  0
 63149  1  0  0  0
 63150  1  0  0  0
 63151  1  0  0  0
 64152  1  0  0  0
 65153  1  0  0  0
 68 85  1  0  0  0
 71 72  2  0  0  0
 71 75  1  0  0  0
 71154  1  0  0  0
 72 76  1  0  0  0
 72155  1  0  0  0
 73 74  1  0  0  0
 73 75  2  0  0  0
 73156  1  0  0  0
 74 76  2  0  0  0
 74 78  1  0  0  0
 75 89  1  0  0  0
 76 92  1  0  0  0
 77 84  1  0  0  0
 77 90  1  0  0  0
 77 91  2  0  0  0
 78 79  1  0  0  0
 78157  1  0  0  0
 78158  1  0  0  0
 79 80  1  0  0  0
 79 93  1  0  0  0
 79159  1  0  0  0
 80 81  1  0  0  0
 80 82  1  0  0  0
 80 92  1  0  0  0
 81160  1  0  0  0
 81161  1  0  0  0
 81162  1  0  0  0
 82163  1  0  0  0
 82164  1  0  0  0
 82165  1  0  0  0
 83166  1  0  0  0
 83167  1  0  0  0
 83168  1  0  0  0
 83 88  1  0  0  0
 84 93  1  0  0  0
 84169  1  0  0  0
 84170  1  0  0  0
 85 86  1  0  0  0
 85171  1  0  0  0
 85172  1  0  0  0
 86 94  1  0  0  0
 86173  1  0  0  0
 86174  1  0  0  0
 87 88  1  0  0  0
 87 94  1  0  0  0
 87175  1  0  0  0
 87176  1  0  0  0
 88 90  1  0  0  0
 88177  1  0  0  0
 89178  1  0  0  0
 90179  1  0  0  0
M  ISO  4   1 100  68 101  85 101  89 100
M  END
> <chiral flag>
0

> <version>
0

> <s_m_source_file>
/data/baiqing/PycharmProjects/Reinvent-master-3.2/result/LINK_invent/BTK/process_docking_weight1_custom_sum_contain_oxygen_bond_distance_aromatic_linkinvent_7_9_3/rearranged_h_0000.sdf

> <i_m_source_file_index>
63

> <r_mmod_Potential_Energy-OPLS-2005>
11705.103515625

> <r_mmod_Stretch_Energy-OPLS-2005>
5985.875

> <r_mmod_Bend_Energy-OPLS-2005>
1248.51171875

> <r_mmod_Torsional_Energy-OPLS-2005>
440.170440673828

> <r_mmod_Improper_Torsional_Energy-OPLS-2005>
21.3611755371094

> <r_mmod_Van_der_Waal_Energy-OPLS-2005>
2548.42236328125

> <r_mmod_Electrostatic_Energy-OPLS-2005>
-477.997833251953

> <r_mmod_Solvation_Energy-OPLS-2005>
-205.092193603516

> <b_mmod_Minimization_Converged-OPLS-2005>
0

> <r_mmod_RMS_Derivative-OPLS-2005>
8.94631958007812

$$$$
66
                    3D
 Structure written by MMmdl.
145152  0  0  1  0            999 V2000
  -30.5076  -14.9901   20.4119 C   0  0  0  0  0  0
  -30.4383  -12.6190   19.4867 C   0  0  0  0  0  0
  -29.5187  -12.5320   18.2471 C   0  0  0  0  0  0
  -28.0509  -12.3152   18.6646 C   0  0  0  0  0  0
  -27.6210  -13.2490   19.8261 C   0  0  2  0  0  0
  -28.6642  -13.2920   20.9597 C   0  0  0  0  0  0
  -25.2435  -13.8222   20.5697 C   0  0  0  0  0  0
  -24.1760  -13.0437   20.9228 C   0  0  0  0  0  0
  -24.6377  -11.6927   20.8743 C   0  0  0  0  0  0
  -23.9058  -10.4301   21.0403 C   0  0  0  0  0  0
  -24.3624   -9.4221   21.9175 C   0  0  0  0  0  0
  -23.6311   -8.2250   22.0747 C   0  0  0  0  0  0
  -22.4288   -8.0281   21.3544 C   0  0  0  0  0  0
  -21.9916   -9.0246   20.4641 C   0  0  0  0  0  0
  -22.7235  -10.2132   20.3052 C   0  0  0  0  0  0
  -21.6860   -6.0737   22.5277 C   0  0  0  0  0  0
  -21.4019   -6.5639   23.8212 C   0  0  0  0  0  0
  -21.3661   -5.6790   24.9173 C   0  0  0  0  0  0
  -21.6052   -4.3054   24.7221 C   0  0  0  0  0  0
  -21.8819   -3.8143   23.4338 C   0  0  0  0  0  0
  -21.9200   -4.6962   22.3399 C   0  0  0  0  0  0
  -22.7785  -13.5204   21.1899 C   0  0  0  0  0  0
  -22.1668   -4.2149   21.0977 F   0  0  0  0  0  0
  -21.5632   -3.4537   25.7733 F   0  0  0  0  0  0
  -29.9277  -13.7223   20.3491 N   0  0  0  0  0  0
  -26.2837  -12.9441   20.3178 N   0  0  0  0  0  0
  -25.9302  -11.6571   20.5704 N   0  0  0  0  0  0
  -22.0446  -12.8183   22.0457 N   0  0  0  0  0  0
  -25.4082  -15.1957   20.4152 N   0  0  0  0  0  0
  -31.7259  -15.0599   20.2216 O   0  0  0  0  0  0
  -21.6649   -6.8883   21.4239 O   0  0  0  0  0  0
  -22.3463  -14.5510   20.6750 O   0  0  0  0  0  0
  -24.6451  -31.8401   23.1848 C   0  0  0  0  0  0
  -25.9213  -32.4673   23.8249 C   0  0  1  0  0  0
  -27.2223  -27.1013   20.1692 C   0  0  0  0  0  0
  -25.5943  -33.8482   24.2166 N   0  0  0  0  0  0
  -23.4517  -30.4549   21.5307 C   0  0  2  0  0  0
  -24.9006  -28.8618   20.1232 C   0  0  0  0  0  0
  -22.7572  -29.4525   22.4867 C   0  0  0  0  0  0
  -18.0304  -28.1406   22.8480 C   0  0  0  0  0  0
  -24.1489  -36.7251   23.2648 C   0  0  0  0  0  0
  -26.0074  -30.6996   21.3898 C   0  0  0  0  0  0
  -26.0759  -29.3011   20.7460 C   0  0  0  0  0  0
  -27.2360  -28.4355   20.7525 C   0  0  0  0  0  0
  -26.0216  -26.7607   19.5160 C   0  0  0  0  0  0
  -24.8855  -27.6042   19.4965 C   0  0  0  0  0  0
  -23.6808  -29.7725   20.1546 C   0  0  0  0  0  0
  -25.4125  -36.3025   24.0316 C   0  0  1  0  0  0
  -20.5913  -28.3731   23.1238 C   0  0  2  0  0  0
  -20.6787  -26.9432   22.5411 C   0  0  0  0  0  0
  -19.5761  -26.6387   21.5221 C   0  0  0  0  0  0
  -18.1943  -26.7944   22.1629 C   0  0  0  0  0  0
  -19.1559  -28.8889   23.2848 C   0  0  0  0  0  0
  -18.9471  -30.1485   23.8874 C   0  0  0  0  0  0
  -17.6466  -30.6597   24.0565 C   0  0  0  0  0  0
  -25.9073  -34.9398   23.5058 C   0  0  0  0  0  0
  -16.5360  -29.9090   23.6337 C   0  0  0  0  0  0
  -16.7288  -28.6512   23.0356 C   0  0  0  0  0  0
  -26.4523  -31.6560   25.0710 C   0  0  0  0  0  0
  -25.3693  -31.3759   26.1393 C   0  0  0  0  0  0
  -27.0394  -30.2951   24.6325 C   0  0  0  0  0  0
  -27.6048  -32.4333   25.7496 C   0  0  0  0  0  0
  -27.5575  -37.1785   24.8466 C   0  0  0  0  0  0
  -21.4265  -29.3046   22.3602 N   0  0  0  0  0  0
  -26.4288  -37.3739   23.9403 N   0  0  0  0  0  0
  -24.7212  -31.0217   22.0898 N   0  0  0  0  0  0
  -23.4199  -28.8096   23.3044 O   0  0  0  0  0  0
  -28.3207  -26.1670   20.0922 O   0  0  0  0  0  0
  -26.5672  -34.8905   22.4648 O   0  0  0  0  0  0
  -23.5561  -32.1299   23.7048 O   0  0  0  0  0  0
  -29.9445  -17.7160   20.7985 C   0  0  0  0  0  0
  -29.3188  -19.0845   19.9921 C   0  0  0  0  0  0
  -29.2774  -21.9084   20.2503 C   0  0  0  0  0  0
  -28.4576  -23.3766   19.8755 C   0  0  0  0  0  0
  -29.7003  -16.1687   20.4835 N   0  0  0  0  0  0
  -28.8102  -20.4526   20.5685 O   0  0  0  0  0  0
  -28.1459  -24.6214   20.7496 O   0  0  0  0  0  0
  -31.4676  -12.7989   19.1731 H   0  0  0  0  0  0
  -30.4483  -11.6734   20.0317 H   0  0  0  0  0  0
  -29.8439  -11.7263   17.5877 H   0  0  0  0  0  0
  -29.6023  -13.4524   17.6676 H   0  0  0  0  0  0
  -27.9469  -11.2747   18.9718 H   0  0  0  0  0  0
  -27.3885  -12.4467   17.8072 H   0  0  0  0  0  0
  -27.5749  -14.2480   19.3918 H   0  0  0  0  0  0
  -28.7632  -12.3184   21.4433 H   0  0  0  0  0  0
  -28.3563  -13.9966   21.7351 H   0  0  0  0  0  0
  -25.2774   -9.5716   22.4741 H   0  0  0  0  0  0
  -24.0035   -7.4645   22.7459 H   0  0  0  0  0  0
  -21.0851   -8.8755   19.8942 H   0  0  0  0  0  0
  -22.3683  -10.9668   19.6161 H   0  0  0  0  0  0
  -21.2005   -7.6146   23.9717 H   0  0  0  0  0  0
  -21.1490   -6.0515   25.9076 H   0  0  0  0  0  0
  -22.0597   -2.7604   23.2834 H   0  0  0  0  0  0
  -22.4079  -11.9850   22.4847 H   0  0  0  0  0  0
  -21.1056  -13.1180   22.2660 H   0  0  0  0  0  0
  -24.6377  -15.8445   20.5396 H   0  0  0  0  0  0
  -26.2477  -15.6435   20.0719 H   0  0  0  0  0  0
  -26.7286  -32.5270   23.0981 H   0  0  0  0  0  0
  -25.0037  -33.9588   25.0276 H   0  0  0  0  0  0
  -22.7575  -31.2820   21.3698 H   0  0  0  0  0  0
  -23.3753  -35.9578   23.3299 H   0  0  0  0  0  0
  -24.3571  -36.8895   22.2063 H   0  0  0  0  0  0
  -23.7239  -37.6445   23.6691 H   0  0  0  0  0  0
  -26.1648  -31.4440   20.6084 H   0  0  0  0  0  0
  -26.8781  -30.7577   22.0307 H   0  0  0  0  0  0
  -28.1438  -28.7758   21.2305 H   0  0  0  0  0  0
  -25.9584  -25.8011   19.0225 H   0  0  0  0  0  0
  -23.9888  -27.2639   18.9968 H   0  0  0  0  0  0
  -23.8240  -30.5405   19.3934 H   0  0  0  0  0  0
  -22.7944  -29.2155   19.8452 H   0  0  0  0  0  0
  -25.1315  -36.1855   25.0806 H   0  0  0  0  0  0
  -21.0004  -28.3322   24.1361 H   0  0  0  0  0  0
  -20.5687  -26.2341   23.3629 H   0  0  0  0  0  0
  -21.6653  -26.7440   22.1203 H   0  0  0  0  0  0
  -19.6917  -25.6290   21.1269 H   0  0  0  0  0  0
  -19.6700  -27.3181   20.6738 H   0  0  0  0  0  0
  -17.4211  -26.6688   21.4034 H   0  0  0  0  0  0
  -18.0341  -26.0097   22.9034 H   0  0  0  0  0  0
  -19.7943  -30.7314   24.2230 H   0  0  0  0  0  0
  -17.5015  -31.6276   24.5174 H   0  0  0  0  0  0
  -15.5359  -30.2983   23.7680 H   0  0  0  0  0  0
  -15.8689  -28.0828   22.7078 H   0  0  0  0  0  0
  -24.5872  -30.7118   25.7700 H   0  0  0  0  0  0
  -24.8881  -32.2938   26.4771 H   0  0  0  0  0  0
  -25.7951  -30.8951   27.0206 H   0  0  0  0  0  0
  -26.3022  -29.6666   24.1322 H   0  0  0  0  0  0
  -27.3973  -29.7271   25.4922 H   0  0  0  0  0  0
  -27.8940  -30.4179   23.9672 H   0  0  0  0  0  0
  -27.2642  -33.3651   26.2022 H   0  0  0  0  0  0
  -28.3880  -32.6868   25.0341 H   0  0  0  0  0  0
  -28.0693  -31.8497   26.5454 H   0  0  0  0  0  0
  -28.2591  -38.0085   24.7509 H   0  0  0  0  0  0
  -28.1076  -36.2615   24.6296 H   0  0  0  0  0  0
  -27.2292  -37.1433   25.8870 H   0  0  0  0  0  0
  -20.9489  -29.8730   21.6745 H   0  0  0  0  0  0
  -26.0156  -38.2808   24.1398 H   0  0  0  0  0  0
  -29.6031  -17.8150   21.8285 H   0  0  0  0  0  0
  -31.0250  -17.8514   20.8679 H   0  0  0  0  0  0
  -28.4434  -18.7113   19.4609 H   0  0  0  0  0  0
  -30.0141  -19.3249   19.1878 H   0  0  0  0  0  0
  -30.0065  -22.1522   21.0235 H   0  0  0  0  0  0
  -29.9012  -21.7456   19.3705 H   0  0  0  0  0  0
  -27.5423  -23.1233   19.3414 H   0  0  0  0  0  0
  -29.0863  -23.8157   19.1004 H   0  0  0  0  0  0
  -28.7191  -15.9346   20.4714 H   0  0  0  0  0  0
  1 25  1  0  0  0
  1 30  2  0  0  0
  1 75  1  0  0  0
  2  3  1  0  0  0
  2 25  1  0  0  0
  2 78  1  0  0  0
  2 79  1  0  0  0
  3  4  1  0  0  0
  3 80  1  0  0  0
  3 81  1  0  0  0
  4  5  1  0  0  0
  4 82  1  0  0  0
  4 83  1  0  0  0
  5  6  1  0  0  0
  5 26  1  0  0  0
  5 84  1  0  0  0
  6 25  1  0  0  0
  6 85  1  0  0  0
  6 86  1  0  0  0
  7  8  2  0  0  0
  7 26  1  0  0  0
  7 29  1  0  0  0
  8  9  1  0  0  0
  8 22  1  0  0  0
  9 10  1  0  0  0
  9 27  2  0  0  0
 10 11  2  0  0  0
 10 15  1  0  0  0
 11 12  1  0  0  0
 11 87  1  0  0  0
 12 13  2  0  0  0
 12 88  1  0  0  0
 13 14  1  0  0  0
 13 31  1  0  0  0
 14 15  2  0  0  0
 14 89  1  0  0  0
 15 90  1  0  0  0
 16 17  2  0  0  0
 16 21  1  0  0  0
 16 31  1  0  0  0
 17 18  1  0  0  0
 17 91  1  0  0  0
 18 19  2  0  0  0
 18 92  1  0  0  0
 19 20  1  0  0  0
 19 24  1  0  0  0
 20 21  2  0  0  0
 20 93  1  0  0  0
 21 23  1  0  0  0
 22 28  1  0  0  0
 22 32  2  0  0  0
 26 27  1  0  0  0
 28 94  1  0  0  0
 28 95  1  0  0  0
 29 96  1  0  0  0
 29 97  1  0  0  0
 33 34  1  0  0  0
 33 66  1  0  0  0
 33 70  2  0  0  0
 34 36  1  0  0  0
 34 59  1  0  0  0
 34 98  1  0  0  0
 35 44  2  0  0  0
 35 45  1  0  0  0
 35 68  1  0  0  0
 36 56  1  0  0  0
 36 99  1  0  0  0
 37 39  1  0  0  0
 37 47  1  0  0  0
 37 66  1  0  0  0
 37100  1  0  0  0
 38 43  2  0  0  0
 38 46  1  0  0  0
 38 47  1  0  0  0
 39 64  1  0  0  0
 39 67  2  0  0  0
 40 52  1  0  0  0
 40 53  2  0  0  0
 40 58  1  0  0  0
 41101  1  0  0  0
 41102  1  0  0  0
 41103  1  0  0  0
 41 48  1  0  0  0
 42 43  1  0  0  0
 42 66  1  0  0  0
 42104  1  0  0  0
 42105  1  0  0  0
 43 44  1  0  0  0
 44106  1  0  0  0
 45 46  2  0  0  0
 45107  1  0  0  0
 46108  1  0  0  0
 47109  1  0  0  0
 47110  1  0  0  0
 48 56  1  0  0  0
 48 65  1  0  0  0
 48111  1  0  0  0
 49 50  1  0  0  0
 49 53  1  0  0  0
 49 64  1  0  0  0
 49112  1  0  0  0
 50 51  1  0  0  0
 50113  1  0  0  0
 50114  1  0  0  0
 51 52  1  0  0  0
 51115  1  0  0  0
 51116  1  0  0  0
 52117  1  0  0  0
 52118  1  0  0  0
 53 54  1  0  0  0
 54 55  2  0  0  0
 54119  1  0  0  0
 55 57  1  0  0  0
 55120  1  0  0  0
 56 69  2  0  0  0
 57 58  2  0  0  0
 57121  1  0  0  0
 58122  1  0  0  0
 59 60  1  0  0  0
 59 61  1  0  0  0
 59 62  1  0  0  0
 60123  1  0  0  0
 60124  1  0  0  0
 60125  1  0  0  0
 61126  1  0  0  0
 61127  1  0  0  0
 61128  1  0  0  0
 62129  1  0  0  0
 62130  1  0  0  0
 62131  1  0  0  0
 63 65  1  0  0  0
 63132  1  0  0  0
 63133  1  0  0  0
 63134  1  0  0  0
 64135  1  0  0  0
 65136  1  0  0  0
 68 77  1  0  0  0
 71 72  1  0  0  0
 71 75  1  0  0  0
 71137  1  0  0  0
 71138  1  0  0  0
 72 76  1  0  0  0
 72139  1  0  0  0
 72140  1  0  0  0
 73 74  1  0  0  0
 73 76  1  0  0  0
 73141  1  0  0  0
 73142  1  0  0  0
 74 77  1  0  0  0
 74143  1  0  0  0
 74144  1  0  0  0
 75145  1  0  0  0
M  ISO  4   1 100  68 101  75 100  77 101
M  END
> <chiral flag>
0

> <version>
0

> <s_m_source_file>
/data/baiqing/PycharmProjects/Reinvent-master-3.2/result/LINK_invent/BTK/process_docking_weight1_custom_sum_contain_oxygen_bond_distance_aromatic_linkinvent_7_9_3/rearranged_h_0000.sdf

> <i_m_source_file_index>
64

> <r_mmod_Potential_Energy-OPLS-2005>
620.935241699219

> <r_mmod_Stretch_Energy-OPLS-2005>
322.877319335938

> <r_mmod_Bend_Energy-OPLS-2005>
351.754791259766

> <r_mmod_Torsional_Energy-OPLS-2005>
213.292877197266

> <r_mmod_Improper_Torsional_Energy-OPLS-2005>
4.70500183105469

> <r_mmod_Van_der_Waal_Energy-OPLS-2005>
110.161445617676

> <r_mmod_Electrostatic_Energy-OPLS-2005>
-378.746856689453

> <r_mmod_Solvation_Energy-OPLS-2005>
-218.916793823242

> <b_mmod_Minimization_Converged-OPLS-2005>
0

> <r_mmod_RMS_Derivative-OPLS-2005>
1.35732614994049

$$$$
67
                    3D
 Structure written by MMmdl.
173181  0  0  1  0            999 V2000
  -30.2507  -13.5183   21.4907 C   0  0  0  0  0  0
  -30.9299  -12.7962   19.0489 C   0  0  0  0  0  0
  -30.0305  -13.0222   17.7255 C   0  0  0  0  0  0
  -28.4643  -13.0770   17.8924 C   0  0  0  0  0  0
  -28.0462  -13.6571   19.3128 C   0  0  2  0  0  0
  -29.0878  -12.3297   19.8373 C   0  0  0  0  0  0
  -24.4194  -14.6636   20.4525 C   0  0  0  0  0  0
  -23.5430  -13.6659   20.7811 C   0  0  0  0  0  0
  -24.3130  -12.5922   21.0415 C   0  0  0  0  0  0
  -24.3141  -11.2658   21.2767 C   0  0  0  0  0  0
  -25.5472   -9.8411   21.7277 C   0  0  0  0  0  0
  -24.7701   -8.2147   21.7259 C   0  0  0  0  0  0
  -23.1094   -8.0459   21.3739 C   0  0  0  0  0  0
  -22.2276   -9.2835   20.8926 C   0  0  0  0  0  0
  -22.7358  -10.8019   20.8242 C   0  0  0  0  0  0
  -21.9557   -6.1267   22.5086 C   0  0  0  0  0  0
  -21.5877   -6.6263   23.7830 C   0  0  0  0  0  0
  -21.4183   -5.7387   24.8738 C   0  0  0  0  0  0
  -21.5815   -4.3501   24.6978 C   0  0  0  0  0  0
  -21.8295   -3.8446   23.4129 C   0  0  0  0  0  0
  -21.9909   -4.7247   22.3270 C   0  0  0  0  0  0
  -22.1897  -13.8471   21.1961 C   0  0  0  0  0  0
  -22.2104   -4.2154   21.0931 F   0  0  0  0  0  0
  -21.5022   -3.5017   25.7531 F   0  0  0  0  0  0
  -30.2100  -12.8328   20.3275 N   0  0  0  0  0  0
  -25.5635  -14.0415   20.4705 N   0  0  0  0  0  0
  -25.0356  -13.3498   21.6126 N   0  0  0  0  0  0
  -21.7273  -13.0950   22.1943 N   0  0  0  0  0  0
  -24.4034  -16.0136   20.3055 N   0  0  0  0  0  0
  -31.1412  -14.4102   21.3780 O   0  0  0  0  0  0
  -22.2756   -6.9041   21.3981 O   0  0  0  0  0  0
  -21.6021  -14.7625   20.6715 O   0  0  0  0  0  0
  -24.7449  -31.7198   23.1023 C   0  0  0  0  0  0
  -25.9754  -32.4037   23.7743 C   0  0  1  0  0  0
  -26.8607  -25.9315   20.2628 C   0  0  0  0  0  0
  -25.6064  -33.7909   24.1541 N   0  0  0  0  0  0
  -23.5740  -30.3214   21.4755 C   0  0  2  0  0  0
  -24.9531  -28.5210   20.1041 C   0  0  0  0  0  0
  -22.7937  -29.3959   22.4519 C   0  0  0  0  0  0
  -18.0383  -28.1443   22.8440 C   0  0  0  0  0  0
  -24.1500  -36.6992   23.2663 C   0  0  0  0  0  0
  -26.1624  -30.1726   21.4777 C   0  0  0  0  0  0
  -26.1375  -28.6685   20.8268 C   0  0  0  0  0  0
  -27.0660  -27.4117   20.8681 C   0  0  0  0  0  0
  -25.7378  -26.1963   19.4254 C   0  0  0  0  0  0
  -24.8435  -27.3262   19.3690 C   0  0  0  0  0  0
  -23.8339  -29.5952   20.1176 C   0  0  0  0  0  0
  -25.4171  -36.2647   24.0227 C   0  0  1  0  0  0
  -20.6018  -28.3819   23.1049 C   0  0  2  0  0  0
  -20.6805  -26.9427   22.5414 C   0  0  0  0  0  0
  -19.5782  -26.6345   21.5232 C   0  0  0  0  0  0
  -18.1966  -26.7967   22.1616 C   0  0  0  0  0  0
  -19.1652  -28.8980   23.2711 C   0  0  0  0  0  0
  -18.9541  -30.1550   23.8781 C   0  0  0  0  0  0
  -17.6518  -30.6606   24.0540 C   0  0  0  0  0  0
  -25.9204  -34.9055   23.4768 C   0  0  0  0  0  0
  -16.5412  -29.9080   23.6339 C   0  0  0  0  0  0
  -16.7359  -28.6504   23.0369 C   0  0  0  0  0  0
  -26.4715  -31.6414   25.0667 C   0  0  0  0  0  0
  -25.3597  -31.3959   26.1156 C   0  0  0  0  0  0
  -27.0757  -30.2694   24.7074 C   0  0  0  0  0  0
  -27.6025  -32.4459   25.7503 C   0  0  0  0  0  0
  -27.5548  -37.1639   24.8452 C   0  0  0  0  0  0
  -21.4549  -29.2967   22.3301 N   0  0  0  0  0  0
  -26.4234  -37.3493   23.9415 N   0  0  0  0  0  0
  -24.8650  -30.7935   22.0659 N   0  0  0  0  0  0
  -23.4149  -28.7605   23.3060 O   0  0  0  0  0  0
  -27.4606  -24.3070   20.3455 O   0  0  0  0  0  0
  -26.5935  -34.8782   22.4447 O   0  0  0  0  0  0
  -23.6361  -32.0671   23.5580 O   0  0  0  0  0  0
  -27.1893  -12.6844   21.1299 C   0  0  0  0  0  0
  -25.9589  -13.4168   18.3158 C   0  0  0  0  0  0
  -27.5596  -14.6675   21.3146 C   0  0  0  0  0  0
  -26.4039  -15.1826   18.5994 C   0  0  0  0  0  0
  -26.3100  -12.0681   19.5137 C   0  0  0  0  0  0
  -27.1077  -16.0033   20.0437 C   0  0  0  0  0  0
  -25.5389  -10.5145   19.1236 C   0  0  0  0  0  0
  -25.2358   -7.4730   18.4715 C   0  0  0  0  0  0
  -23.2779   -8.9237   17.5982 C   0  0  0  0  0  0
  -26.7404  -11.3224   23.8278 C   0  0  0  0  0  0
  -24.8759  -10.9857   23.8400 C   0  0  0  0  0  0
  -28.0692  -12.6405   23.6087 C   0  0  0  0  0  0
  -23.6204   -9.8668   22.8189 C   0  0  0  0  0  0
  -27.3414  -19.9092   20.3815 C   0  0  0  0  0  0
  -27.0583  -22.2449   20.0952 C   0  0  0  0  0  0
  -24.0629   -8.4294   18.8329 C   0  0  0  0  0  0
  -29.5290  -12.9103   22.6926 N   0  0  0  0  0  0
  -24.4221   -9.5507   19.8481 N   0  0  0  0  0  0
  -25.9562  -10.2001   18.0060 O   0  0  0  0  0  0
  -27.0559  -17.8703   19.9296 O   0  0  0  0  0  0
  -31.7397  -13.5274   19.0478 H   0  0  0  0  0  0
  -31.4332  -11.8300   18.9810 H   0  0  0  0  0  0
  -30.2931  -12.2978   16.9521 H   0  0  0  0  0  0
  -30.3247  -13.9851   17.3029 H   0  0  0  0  0  0
  -28.0156  -12.1226   17.6010 H   0  0  0  0  0  0
  -28.1284  -13.7566   17.1103 H   0  0  0  0  0  0
  -28.7020  -14.5362   19.2761 H   0  0  0  0  0  0
  -29.1411  -11.4296   19.1945 H   0  0  0  0  0  0
  -28.9619  -11.5444   20.5900 H   0  0  0  0  0  0
  -26.6121   -9.9308   21.8307 H   0  0  0  0  0  0
  -25.3446   -7.3262   21.9473 H   0  0  0  0  0  0
  -21.2037   -9.0951   20.6114 H   0  0  0  0  0  0
  -22.0290  -11.4794   20.3822 H   0  0  0  0  0  0
  -21.5008   -7.6915   23.9485 H   0  0  0  0  0  0
  -21.2078   -6.1309   25.8609 H   0  0  0  0  0  0
  -21.9059   -2.7796   23.2624 H   0  0  0  0  0  0
  -22.3097  -12.3895   22.6180 H   0  0  0  0  0  0
  -20.8056  -13.2635   22.5748 H   0  0  0  0  0  0
  -25.2596  -16.5514   20.2213 H   0  0  0  0  0  0
  -23.5786  -16.5797   20.4544 H   0  0  0  0  0  0
  -26.7900  -32.4316   23.0480 H   0  0  0  0  0  0
  -25.0006  -33.8821   24.9561 H   0  0  0  0  0  0
  -22.9430  -31.1853   21.2578 H   0  0  0  0  0  0
  -23.3786  -35.9290   23.3178 H   0  0  0  0  0  0
  -24.3559  -36.8852   22.2110 H   0  0  0  0  0  0
  -23.7243  -37.6089   23.6903 H   0  0  0  0  0  0
  -26.4725  -30.8355   20.6691 H   0  0  0  0  0  0
  -26.9929  -30.2126   22.1685 H   0  0  0  0  0  0
  -27.9225  -27.5116   21.5196 H   0  0  0  0  0  0
  -25.4218  -25.3494   18.8301 H   0  0  0  0  0  0
  -23.9726  -27.2102   18.7363 H   0  0  0  0  0  0
  -24.0983  -30.3365   19.3621 H   0  0  0  0  0  0
  -22.9078  -29.1403   19.7591 H   0  0  0  0  0  0
  -25.1409  -36.1292   25.0714 H   0  0  0  0  0  0
  -21.0119  -28.3492   24.1168 H   0  0  0  0  0  0
  -20.5606  -26.2467   23.3730 H   0  0  0  0  0  0
  -21.6659  -26.7262   22.1260 H   0  0  0  0  0  0
  -19.6896  -25.6223   21.1347 H   0  0  0  0  0  0
  -19.6729  -27.3087   20.6712 H   0  0  0  0  0  0
  -17.4232  -26.6748   21.4010 H   0  0  0  0  0  0
  -18.0296  -26.0141   22.9037 H   0  0  0  0  0  0
  -19.8019  -30.7404   24.2078 H   0  0  0  0  0  0
  -17.5064  -31.6272   24.5174 H   0  0  0  0  0  0
  -15.5399  -30.2934   23.7749 H   0  0  0  0  0  0
  -15.8768  -28.0789   22.7134 H   0  0  0  0  0  0
  -24.5826  -30.7279   25.7437 H   0  0  0  0  0  0
  -24.8762  -32.3260   26.4147 H   0  0  0  0  0  0
  -25.7596  -30.9391   27.0216 H   0  0  0  0  0  0
  -26.3553  -29.6036   24.2323 H   0  0  0  0  0  0
  -27.4153  -29.7500   25.6044 H   0  0  0  0  0  0
  -27.9543  -30.3691   24.0703 H   0  0  0  0  0  0
  -27.2475  -33.3915   26.1612 H   0  0  0  0  0  0
  -28.4042  -32.6777   25.0482 H   0  0  0  0  0  0
  -28.0463  -31.8934   26.5794 H   0  0  0  0  0  0
  -28.2442  -38.0043   24.7531 H   0  0  0  0  0  0
  -28.1161  -36.2550   24.6218 H   0  0  0  0  0  0
  -27.2276  -37.1188   25.8854 H   0  0  0  0  0  0
  -20.9972  -29.8600   21.6275 H   0  0  0  0  0  0
  -25.9985  -38.2503   24.1443 H   0  0  0  0  0  0
  -27.3827  -11.8310   21.7166 H   0  0  0  0  0  0
  -25.4201  -13.1566   17.4154 H   0  0  0  0  0  0
  -27.9902  -15.0377   22.2319 H   0  0  0  0  0  0
  -26.0873  -15.8612   17.8232 H   0  0  0  0  0  0
  -24.8526   -6.4894   18.1940 H   0  0  0  0  0  0
  -25.9275   -7.3282   19.3019 H   0  0  0  0  0  0
  -25.8294   -7.8067   17.6196 H   0  0  0  0  0  0
  -22.9801   -8.0719   16.9814 H   0  0  0  0  0  0
  -23.8381   -9.5865   16.9440 H   0  0  0  0  0  0
  -22.3630   -9.4380   17.8927 H   0  0  0  0  0  0
  -27.2501  -10.3678   23.7069 H   0  0  0  0  0  0
  -26.7861  -11.3695   24.9159 H   0  0  0  0  0  0
  -24.4282  -11.9806   23.8434 H   0  0  0  0  0  0
  -24.6857  -10.6674   24.8674 H   0  0  0  0  0  0
  -28.5492  -12.5885   24.5872 H   0  0  0  0  0  0
  -27.5621  -13.5967   23.7122 H   0  0  0  0  0  0
  -22.6467  -10.2979   23.0760 H   0  0  0  0  0  0
  -23.5361   -8.9990   23.4957 H   0  0  0  0  0  0
  -27.1540  -19.8382   21.4547 H   0  0  0  0  0  0
  -28.4266  -19.8820   20.3056 H   0  0  0  0  0  0
  -25.9832  -22.2982   20.2727 H   0  0  0  0  0  0
  -27.1299  -22.2588   19.0078 H   0  0  0  0  0  0
  -23.3344   -7.6982   19.1569 H   0  0  0  0  0  0
  -30.1955  -13.1272   23.4207 H   0  0  0  0  0  0
  1 25  1  0  0  0
  1 30  2  0  0  0
  1 87  1  0  0  0
  2  3  1  0  0  0
  2 25  1  0  0  0
  2 91  1  0  0  0
  2 92  1  0  0  0
  3  4  1  0  0  0
  3 93  1  0  0  0
  3 94  1  0  0  0
  4  5  1  0  0  0
  4 95  1  0  0  0
  4 96  1  0  0  0
  5  6  1  0  0  0
  5 26  1  0  0  0
  5 97  1  0  0  0
  6 25  1  0  0  0
  6 98  1  0  0  0
  6 99  1  0  0  0
  7  8  2  0  0  0
  7 26  1  0  0  0
  7 29  1  0  0  0
  8  9  1  0  0  0
  8 22  1  0  0  0
  9 10  1  0  0  0
  9 27  2  0  0  0
 10 11  2  0  0  0
 10 15  1  0  0  0
 11 12  1  0  0  0
 11100  1  0  0  0
 12 13  2  0  0  0
 12101  1  0  0  0
 13 14  1  0  0  0
 13 31  1  0  0  0
 14 15  2  0  0  0
 14102  1  0  0  0
 15103  1  0  0  0
 16 17  2  0  0  0
 16 21  1  0  0  0
 16 31  1  0  0  0
 17 18  1  0  0  0
 17104  1  0  0  0
 18 19  2  0  0  0
 18105  1  0  0  0
 19 20  1  0  0  0
 19 24  1  0  0  0
 20 21  2  0  0  0
 20106  1  0  0  0
 21 23  1  0  0  0
 22 28  1  0  0  0
 22 32  2  0  0  0
 26 27  1  0  0  0
 28107  1  0  0  0
 28108  1  0  0  0
 29109  1  0  0  0
 29110  1  0  0  0
 33 34  1  0  0  0
 33 66  1  0  0  0
 33 70  2  0  0  0
 34 36  1  0  0  0
 34 59  1  0  0  0
 34111  1  0  0  0
 35 44  2  0  0  0
 35 45  1  0  0  0
 35 68  1  0  0  0
 36 56  1  0  0  0
 36112  1  0  0  0
 37 39  1  0  0  0
 37 47  1  0  0  0
 37 66  1  0  0  0
 37113  1  0  0  0
 38 43  2  0  0  0
 38 46  1  0  0  0
 38 47  1  0  0  0
 39 64  1  0  0  0
 39 67  2  0  0  0
 40 52  1  0  0  0
 40 53  2  0  0  0
 40 58  1  0  0  0
 41114  1  0  0  0
 41115  1  0  0  0
 41116  1  0  0  0
 41 48  1  0  0  0
 42 43  1  0  0  0
 42 66  1  0  0  0
 42117  1  0  0  0
 42118  1  0  0  0
 43 44  1  0  0  0
 44119  1  0  0  0
 45 46  2  0  0  0
 45120  1  0  0  0
 46121  1  0  0  0
 47122  1  0  0  0
 47123  1  0  0  0
 48 56  1  0  0  0
 48 65  1  0  0  0
 48124  1  0  0  0
 49 50  1  0  0  0
 49 53  1  0  0  0
 49 64  1  0  0  0
 49125  1  0  0  0
 50 51  1  0  0  0
 50126  1  0  0  0
 50127  1  0  0  0
 51 52  1  0  0  0
 51128  1  0  0  0
 51129  1  0  0  0
 52130  1  0  0  0
 52131  1  0  0  0
 53 54  1  0  0  0
 54 55  2  0  0  0
 54132  1  0  0  0
 55 57  1  0  0  0
 55133  1  0  0  0
 56 69  2  0  0  0
 57 58  2  0  0  0
 57134  1  0  0  0
 58135  1  0  0  0
 59 60  1  0  0  0
 59 61  1  0  0  0
 59 62  1  0  0  0
 60136  1  0  0  0
 60137  1  0  0  0
 60138  1  0  0  0
 61139  1  0  0  0
 61140  1  0  0  0
 61141  1  0  0  0
 62142  1  0  0  0
 62143  1  0  0  0
 62144  1  0  0  0
 63 65  1  0  0  0
 63145  1  0  0  0
 63146  1  0  0  0
 63147  1  0  0  0
 64148  1  0  0  0
 65149  1  0  0  0
 68 85  1  0  0  0
 71 73  2  0  0  0
 71 75  1  0  0  0
 71150  1  0  0  0
 72 74  1  0  0  0
 72 75  2  0  0  0
 72151  1  0  0  0
 73 76  1  0  0  0
 73152  1  0  0  0
 74 76  2  0  0  0
 74153  1  0  0  0
 75 77  1  0  0  0
 76 90  1  0  0  0
 77 88  1  0  0  0
 77 89  2  0  0  0
 78154  1  0  0  0
 78155  1  0  0  0
 78156  1  0  0  0
 78 86  1  0  0  0
 79 86  1  0  0  0
 79157  1  0  0  0
 79158  1  0  0  0
 79159  1  0  0  0
 80 81  1  0  0  0
 80 82  1  0  0  0
 80160  1  0  0  0
 80161  1  0  0  0
 81 83  1  0  0  0
 81162  1  0  0  0
 81163  1  0  0  0
 82 87  1  0  0  0
 82164  1  0  0  0
 82165  1  0  0  0
 83 88  1  0  0  0
 83166  1  0  0  0
 83167  1  0  0  0
 84 85  1  0  0  0
 84 90  1  0  0  0
 84168  1  0  0  0
 84169  1  0  0  0
 85170  1  0  0  0
 85171  1  0  0  0
 86 88  1  0  0  0
 86172  1  0  0  0
 87173  1  0  0  0
M  ISO  4   1 100  68 101  85 101  87 100
M  END
> <chiral flag>
0

> <version>
0

> <s_m_source_file>
/data/baiqing/PycharmProjects/Reinvent-master-3.2/result/LINK_invent/BTK/process_docking_weight1_custom_sum_contain_oxygen_bond_distance_aromatic_linkinvent_7_9_3/rearranged_h_0000.sdf

> <i_m_source_file_index>
65

> <r_mmod_Potential_Energy-OPLS-2005>
26533.74609375

> <r_mmod_Stretch_Energy-OPLS-2005>
14800.736328125

> <r_mmod_Bend_Energy-OPLS-2005>
2121.13696289062

> <r_mmod_Torsional_Energy-OPLS-2005>
589.892333984375

> <r_mmod_Improper_Torsional_Energy-OPLS-2005>
31.0879516601562

> <r_mmod_Van_der_Waal_Energy-OPLS-2005>
5288.96337890625

> <r_mmod_Electrostatic_Energy-OPLS-2005>
-306.422698974609

> <r_mmod_Solvation_Energy-OPLS-2005>
-224.782150268555

> <b_mmod_Minimization_Converged-OPLS-2005>
0

> <r_mmod_RMS_Derivative-OPLS-2005>
8.38088321685791

$$$$
68
                    3D
 Structure written by MMmdl.
175184  0  0  1  0            999 V2000
  -30.7438  -14.3994   20.6996 C   0  0  0  0  0  0
  -30.4449  -12.3329   19.3856 C   0  0  0  0  0  0
  -29.4926  -12.5599   18.1930 C   0  0  0  0  0  0
  -28.0154  -12.4164   18.6096 C   0  0  0  0  0  0
  -27.6792  -13.2056   19.9023 C   0  0  2  0  0  0
  -28.7260  -12.9109   21.0032 C   0  0  0  0  0  0
  -25.2645  -13.8158   20.5702 C   0  0  0  0  0  0
  -24.1865  -13.0433   20.9149 C   0  0  0  0  0  0
  -24.6416  -11.6912   20.8691 C   0  0  0  0  0  0
  -23.9066  -10.4297   21.0353 C   0  0  0  0  0  0
  -24.3621   -9.4233   21.9145 C   0  0  0  0  0  0
  -23.6295   -8.2272   22.0752 C   0  0  0  0  0  0
  -22.4271   -8.0286   21.3550 C   0  0  0  0  0  0
  -21.9899   -9.0253   20.4657 C   0  0  0  0  0  0
  -22.7233  -10.2137   20.3041 C   0  0  0  0  0  0
  -21.6858   -6.0729   22.5281 C   0  0  0  0  0  0
  -21.4027   -6.5638   23.8220 C   0  0  0  0  0  0
  -21.3664   -5.6795   24.9183 C   0  0  0  0  0  0
  -21.6037   -4.3051   24.7226 C   0  0  0  0  0  0
  -21.8827   -3.8141   23.4350 C   0  0  0  0  0  0
  -21.9203   -4.6957   22.3401 C   0  0  0  0  0  0
  -22.7898  -13.5262   21.1802 C   0  0  0  0  0  0
  -22.1668   -4.2144   21.0977 F   0  0  0  0  0  0
  -21.5622   -3.4539   25.7735 F   0  0  0  0  0  0
  -30.0686  -13.2395   20.4788 N   0  0  0  0  0  0
  -26.3127  -12.9323   20.3522 N   0  0  0  0  0  0
  -25.9366  -11.6479   20.5783 N   0  0  0  0  0  0
  -22.0535  -12.8258   22.0381 N   0  0  0  0  0  0
  -25.4315  -15.1852   20.4094 N   0  0  0  0  0  0
  -31.7241  -14.7502   20.0354 O   0  0  0  0  0  0
  -21.6662   -6.8871   21.4241 O   0  0  0  0  0  0
  -22.3575  -14.5562   20.6673 O   0  0  0  0  0  0
  -24.6134  -31.8725   23.2116 C   0  0  0  0  0  0
  -25.9014  -32.4869   23.8417 C   0  0  1  0  0  0
  -27.2340  -27.4416   20.0942 C   0  0  0  0  0  0
  -25.5867  -33.8661   24.2344 N   0  0  0  0  0  0
  -23.4001  -30.4933   21.5553 C   0  0  2  0  0  0
  -24.8405  -28.9518   20.1235 C   0  0  0  0  0  0
  -22.7420  -29.4681   22.5032 C   0  0  0  0  0  0
  -18.0287  -28.1393   22.8501 C   0  0  0  0  0  0
  -24.1460  -36.7305   23.2636 C   0  0  0  0  0  0
  -25.9266  -30.8372   21.3587 C   0  0  0  0  0  0
  -26.0010  -29.4685   20.7111 C   0  0  0  0  0  0
  -27.1996  -28.7250   20.6844 C   0  0  0  0  0  0
  -26.0516  -26.9295   19.5110 C   0  0  0  0  0  0
  -24.8599  -27.6808   19.5192 C   0  0  0  0  0  0
  -23.6065  -29.8225   20.1716 C   0  0  0  0  0  0
  -25.4096  -36.3148   24.0354 C   0  0  1  0  0  0
  -20.5868  -28.3687   23.1315 C   0  0  2  0  0  0
  -20.6780  -26.9425   22.5411 C   0  0  0  0  0  0
  -19.5757  -26.6408   21.5217 C   0  0  0  0  0  0
  -18.1935  -26.7940   22.1623 C   0  0  0  0  0  0
  -19.1529  -28.8861   23.2899 C   0  0  0  0  0  0
  -18.9464  -30.1464   23.8925 C   0  0  0  0  0  0
  -17.6457  -30.6599   24.0579 C   0  0  0  0  0  0
  -25.9036  -34.9521   23.5164 C   0  0  0  0  0  0
  -16.5354  -29.9109   23.6312 C   0  0  0  0  0  0
  -16.7280  -28.6518   23.0357 C   0  0  0  0  0  0
  -26.4437  -31.6641   25.0738 C   0  0  0  0  0  0
  -25.3696  -31.3715   26.1478 C   0  0  0  0  0  0
  -27.0248  -30.3112   24.6035 C   0  0  0  0  0  0
  -27.6034  -32.4345   25.7466 C   0  0  0  0  0  0
  -27.5580  -37.1807   24.8479 C   0  0  0  0  0  0
  -21.4154  -29.3044   22.3741 N   0  0  0  0  0  0
  -26.4285  -37.3835   23.9436 N   0  0  0  0  0  0
  -24.6658  -31.0832   22.1006 N   0  0  0  0  0  0
  -23.4187  -28.8227   23.3075 O   0  0  0  0  0  0
  -28.4258  -26.7499   20.0978 O   0  0  0  0  0  0
  -26.5600  -34.8963   22.4727 O   0  0  0  0  0  0
  -23.5347  -32.1440   23.7527 O   0  0  0  0  0  0
  -32.2992  -23.2965   21.9259 C   0  0  0  0  0  0
  -32.4725  -23.1627   20.5349 C   0  0  0  0  0  0
  -32.5038  -22.1887   22.7692 C   0  0  0  0  0  0
  -32.8626  -21.9256   19.9871 C   0  0  0  0  0  0
  -32.9000  -20.9528   22.2219 C   0  0  0  0  0  0
  -28.3527  -16.4196   22.0420 C   0  0  0  0  0  0
  -27.6217  -17.6209   22.0106 C   0  0  0  0  0  0
  -29.6386  -18.8151   21.4176 C   0  0  0  0  0  0
  -30.3968  -17.6129   21.4198 C   0  0  0  0  0  0
  -33.0844  -20.8129   20.8288 C   0  0  0  0  0  0
  -29.7290  -16.3835   21.7234 C   0  0  0  0  0  0
  -28.2593  -18.8371   21.7122 C   0  0  0  0  0  0
  -31.8843  -17.7481   21.2111 C   0  0  0  0  0  0
  -27.2368  -21.4107   23.6050 C   0  0  0  0  0  0
  -33.4249  -19.4487   20.2424 C   0  0  0  0  0  0
  -28.4114  -25.3144   20.1531 C   0  0  0  0  0  0
  -27.8476  -24.7879   21.4954 C   0  0  0  0  0  0
  -27.9177  -22.3700   21.3278 C   0  0  0  0  0  0
  -28.0371  -21.1748   22.3091 C   0  0  2  0  0  0
  -30.3209  -15.0862   21.7725 N   0  0  0  0  0  0
  -32.2299  -18.6142   20.2507 N   0  0  0  0  0  0
  -32.6977  -17.1866   21.9468 O   0  0  0  0  0  0
  -27.5055  -19.9924   21.6921 O   0  0  0  0  0  0
  -28.4270  -23.5565   21.9398 O   0  0  0  0  0  0
  -31.4799  -12.4845   19.0746 H   0  0  0  0  0  0
  -30.3864  -11.3026   19.7344 H   0  0  0  0  0  0
  -29.7251  -11.8569   17.3925 H   0  0  0  0  0  0
  -29.6530  -13.5565   17.7771 H   0  0  0  0  0  0
  -27.8091  -11.3555   18.7528 H   0  0  0  0  0  0
  -27.3621  -12.7441   17.7982 H   0  0  0  0  0  0
  -27.7454  -14.2676   19.6666 H   0  0  0  0  0  0
  -28.6994  -11.8550   21.2727 H   0  0  0  0  0  0
  -28.4717  -13.4295   21.9250 H   0  0  0  0  0  0
  -25.2766   -9.5717   22.4724 H   0  0  0  0  0  0
  -24.0011   -7.4673   22.7480 H   0  0  0  0  0  0
  -21.0829   -8.8758   19.8970 H   0  0  0  0  0  0
  -22.3650  -10.9669   19.6151 H   0  0  0  0  0  0
  -21.2033   -7.6149   23.9715 H   0  0  0  0  0  0
  -21.1474   -6.0527   25.9086 H   0  0  0  0  0  0
  -22.0594   -2.7600   23.2851 H   0  0  0  0  0  0
  -22.4181  -11.9938   22.4784 H   0  0  0  0  0  0
  -21.1154  -13.1290   22.2608 H   0  0  0  0  0  0
  -24.6568  -15.8310   20.5152 H   0  0  0  0  0  0
  -26.2913  -15.6367   20.1205 H   0  0  0  0  0  0
  -26.7083  -32.5566   23.1182 H   0  0  0  0  0  0
  -25.0038  -33.9822   25.0508 H   0  0  0  0  0  0
  -22.6872  -31.3105   21.4181 H   0  0  0  0  0  0
  -23.3764  -35.9597   23.3338 H   0  0  0  0  0  0
  -24.3539  -36.8884   22.2042 H   0  0  0  0  0  0
  -23.7157  -37.6497   23.6627 H   0  0  0  0  0  0
  -26.0247  -31.5929   20.5787 H   0  0  0  0  0  0
  -26.8246  -30.9057   21.9629 H   0  0  0  0  0  0
  -28.0982  -29.1267   21.1299 H   0  0  0  0  0  0
  -26.0338  -25.9586   19.0400 H   0  0  0  0  0  0
  -23.9662  -27.2737   19.0643 H   0  0  0  0  0  0
  -23.7285  -30.5974   19.4158 H   0  0  0  0  0  0
  -22.7282  -29.2502   19.8668 H   0  0  0  0  0  0
  -25.1260  -36.2032   25.0850 H   0  0  0  0  0  0
  -20.9957  -28.3263   24.1436 H   0  0  0  0  0  0
  -20.5691  -26.2310   23.3611 H   0  0  0  0  0  0
  -21.6649  -26.7487   22.1190 H   0  0  0  0  0  0
  -19.6909  -25.6327   21.1244 H   0  0  0  0  0  0
  -19.6676  -27.3219   20.6755 H   0  0  0  0  0  0
  -17.4195  -26.6709   21.4027 H   0  0  0  0  0  0
  -18.0329  -26.0076   22.9017 H   0  0  0  0  0  0
  -19.7939  -30.7281   24.2300 H   0  0  0  0  0  0
  -17.5022  -31.6274   24.5192 H   0  0  0  0  0  0
  -15.5352  -30.3036   23.7635 H   0  0  0  0  0  0
  -15.8675  -28.0860   22.7068 H   0  0  0  0  0  0
  -24.5895  -30.7037   25.7803 H   0  0  0  0  0  0
  -24.8825  -32.2850   26.4913 H   0  0  0  0  0  0
  -25.8039  -30.8897   27.0251 H   0  0  0  0  0  0
  -26.2771  -29.6914   24.1075 H   0  0  0  0  0  0
  -27.4066  -29.7293   25.4428 H   0  0  0  0  0  0
  -27.8584  -30.4504   23.9139 H   0  0  0  0  0  0
  -27.2712  -33.3677   26.2027 H   0  0  0  0  0  0
  -28.3828  -32.6858   25.0257 H   0  0  0  0  0  0
  -28.0719  -31.8472   26.5373 H   0  0  0  0  0  0
  -28.2630  -38.0072   24.7559 H   0  0  0  0  0  0
  -28.1043  -36.2627   24.6284 H   0  0  0  0  0  0
  -27.2312  -37.1442   25.8879 H   0  0  0  0  0  0
  -20.9368  -29.8705   21.6878 H   0  0  0  0  0  0
  -26.0195  -38.2919   24.1458 H   0  0  0  0  0  0
  -31.9996  -24.2470   22.3418 H   0  0  0  0  0  0
  -32.2867  -24.0058   19.8834 H   0  0  0  0  0  0
  -32.3387  -22.2756   23.8343 H   0  0  0  0  0  0
  -32.9665  -21.8414   18.9127 H   0  0  0  0  0  0
  -33.0345  -20.1024   22.8766 H   0  0  0  0  0  0
  -27.8230  -15.5159   22.3071 H   0  0  0  0  0  0
  -26.5679  -17.6035   22.2525 H   0  0  0  0  0  0
  -30.1254  -19.7508   21.1871 H   0  0  0  0  0  0
  -26.1792  -21.5771   23.4046 H   0  0  0  0  0  0
  -27.6059  -22.2946   24.1260 H   0  0  0  0  0  0
  -27.3186  -20.5703   24.2964 H   0  0  0  0  0  0
  -34.2467  -18.9954   20.8024 H   0  0  0  0  0  0
  -33.7707  -19.5590   19.2132 H   0  0  0  0  0  0
  -29.4576  -25.0175   20.0740 H   0  0  0  0  0  0
  -27.9229  -24.8567   19.2933 H   0  0  0  0  0  0
  -26.7569  -24.7419   21.4867 H   0  0  0  0  0  0
  -28.1088  -25.5154   22.2631 H   0  0  0  0  0  0
  -26.8756  -22.4971   21.0311 H   0  0  0  0  0  0
  -28.4777  -22.1785   20.4109 H   0  0  0  0  0  0
  -29.0799  -21.0631   22.6029 H   0  0  0  0  0  0
  -29.7997  -14.4559   22.3616 H   0  0  0  0  0  0
  -31.4701  -18.9587   19.6856 H   0  0  0  0  0  0
  1 25  1  0  0  0
  1 30  2  0  0  0
  1 90  1  0  0  0
  2  3  1  0  0  0
  2 25  1  0  0  0
  2 95  1  0  0  0
  2 96  1  0  0  0
  3  4  1  0  0  0
  3 97  1  0  0  0
  3 98  1  0  0  0
  4  5  1  0  0  0
  4 99  1  0  0  0
  4100  1  0  0  0
  5  6  1  0  0  0
  5 26  1  0  0  0
  5101  1  0  0  0
  6 25  1  0  0  0
  6102  1  0  0  0
  6103  1  0  0  0
  7  8  2  0  0  0
  7 26  1  0  0  0
  7 29  1  0  0  0
  8  9  1  0  0  0
  8 22  1  0  0  0
  9 10  1  0  0  0
  9 27  2  0  0  0
 10 11  2  0  0  0
 10 15  1  0  0  0
 11 12  1  0  0  0
 11104  1  0  0  0
 12 13  2  0  0  0
 12105  1  0  0  0
 13 14  1  0  0  0
 13 31  1  0  0  0
 14 15  2  0  0  0
 14106  1  0  0  0
 15107  1  0  0  0
 16 17  2  0  0  0
 16 21  1  0  0  0
 16 31  1  0  0  0
 17 18  1  0  0  0
 17108  1  0  0  0
 18 19  2  0  0  0
 18109  1  0  0  0
 19 20  1  0  0  0
 19 24  1  0  0  0
 20 21  2  0  0  0
 20110  1  0  0  0
 21 23  1  0  0  0
 22 28  1  0  0  0
 22 32  2  0  0  0
 26 27  1  0  0  0
 28111  1  0  0  0
 28112  1  0  0  0
 29113  1  0  0  0
 29114  1  0  0  0
 33 34  1  0  0  0
 33 66  1  0  0  0
 33 70  2  0  0  0
 34 36  1  0  0  0
 34 59  1  0  0  0
 34115  1  0  0  0
 35 44  2  0  0  0
 35 45  1  0  0  0
 35 68  1  0  0  0
 36 56  1  0  0  0
 36116  1  0  0  0
 37 39  1  0  0  0
 37 47  1  0  0  0
 37 66  1  0  0  0
 37117  1  0  0  0
 38 43  2  0  0  0
 38 46  1  0  0  0
 38 47  1  0  0  0
 39 64  1  0  0  0
 39 67  2  0  0  0
 40 52  1  0  0  0
 40 53  2  0  0  0
 40 58  1  0  0  0
 41118  1  0  0  0
 41119  1  0  0  0
 41120  1  0  0  0
 41 48  1  0  0  0
 42 43  1  0  0  0
 42 66  1  0  0  0
 42121  1  0  0  0
 42122  1  0  0  0
 43 44  1  0  0  0
 44123  1  0  0  0
 45 46  2  0  0  0
 45124  1  0  0  0
 46125  1  0  0  0
 47126  1  0  0  0
 47127  1  0  0  0
 48 56  1  0  0  0
 48 65  1  0  0  0
 48128  1  0  0  0
 49 50  1  0  0  0
 49 53  1  0  0  0
 49 64  1  0  0  0
 49129  1  0  0  0
 50 51  1  0  0  0
 50130  1  0  0  0
 50131  1  0  0  0
 51 52  1  0  0  0
 51132  1  0  0  0
 51133  1  0  0  0
 52134  1  0  0  0
 52135  1  0  0  0
 53 54  1  0  0  0
 54 55  2  0  0  0
 54136  1  0  0  0
 55 57  1  0  0  0
 55137  1  0  0  0
 56 69  2  0  0  0
 57 58  2  0  0  0
 57138  1  0  0  0
 58139  1  0  0  0
 59 60  1  0  0  0
 59 61  1  0  0  0
 59 62  1  0  0  0
 60140  1  0  0  0
 60141  1  0  0  0
 60142  1  0  0  0
 61143  1  0  0  0
 61144  1  0  0  0
 61145  1  0  0  0
 62146  1  0  0  0
 62147  1  0  0  0
 62148  1  0  0  0
 63 65  1  0  0  0
 63149  1  0  0  0
 63150  1  0  0  0
 63151  1  0  0  0
 64152  1  0  0  0
 65153  1  0  0  0
 68 86  1  0  0  0
 71 72  2  0  0  0
 71 73  1  0  0  0
 71154  1  0  0  0
 72 74  1  0  0  0
 72155  1  0  0  0
 73 75  2  0  0  0
 73156  1  0  0  0
 74 80  2  0  0  0
 74157  1  0  0  0
 75 80  1  0  0  0
 75158  1  0  0  0
 76 77  2  0  0  0
 76 81  1  0  0  0
 76159  1  0  0  0
 77 82  1  0  0  0
 77160  1  0  0  0
 78 79  1  0  0  0
 78 82  2  0  0  0
 78161  1  0  0  0
 79 81  2  0  0  0
 79 83  1  0  0  0
 80 85  1  0  0  0
 81 90  1  0  0  0
 82 93  1  0  0  0
 83 91  1  0  0  0
 83 92  2  0  0  0
 84162  1  0  0  0
 84163  1  0  0  0
 84164  1  0  0  0
 84 89  1  0  0  0
 85 91  1  0  0  0
 85165  1  0  0  0
 85166  1  0  0  0
 86 87  1  0  0  0
 86167  1  0  0  0
 86168  1  0  0  0
 87 94  1  0  0  0
 87169  1  0  0  0
 87170  1  0  0  0
 88 89  1  0  0  0
 88 94  1  0  0  0
 88171  1  0  0  0
 88172  1  0  0  0
 89 93  1  0  0  0
 89173  1  0  0  0
 90174  1  0  0  0
 91175  1  0  0  0
M  ISO  4   1 100  68 101  86 101  90 100
M  END
> <chiral flag>
0

> <version>
0

> <s_m_source_file>
/data/baiqing/PycharmProjects/Reinvent-master-3.2/result/LINK_invent/BTK/process_docking_weight1_custom_sum_contain_oxygen_bond_distance_aromatic_linkinvent_7_9_3/rearranged_h_0000.sdf

> <i_m_source_file_index>
66

> <r_mmod_Potential_Energy-OPLS-2005>
-35.5153846740723

> <r_mmod_Stretch_Energy-OPLS-2005>
40.629768371582

> <r_mmod_Bend_Energy-OPLS-2005>
126.03547668457

> <r_mmod_Torsional_Energy-OPLS-2005>
283.307189941406

> <r_mmod_Improper_Torsional_Energy-OPLS-2005>
9.5395450592041

> <r_mmod_Van_der_Waal_Energy-OPLS-2005>
151.504806518555

> <r_mmod_Electrostatic_Energy-OPLS-2005>
-414.715942382812

> <r_mmod_Solvation_Energy-OPLS-2005>
-242.397232055664

> <b_mmod_Minimization_Converged-OPLS-2005>
0

> <r_mmod_RMS_Derivative-OPLS-2005>
4.64057779312134

$$$$
69
                    3D
 Structure written by MMmdl.
168176  0  0  1  0            999 V2000
  -30.0447  -13.0197   20.2312 C   0  0  0  0  0  0
  -31.2038  -12.5952   19.2031 C   0  0  0  0  0  0
  -29.8881  -13.1337   17.9087 C   0  0  0  0  0  0
  -28.1742  -13.4134   18.5029 C   0  0  0  0  0  0
  -27.7160  -13.5030   20.1911 C   0  0  2  0  0  0
  -28.9948  -13.0866   21.4758 C   0  0  0  0  0  0
  -25.2251  -13.8634   20.5932 C   0  0  0  0  0  0
  -24.1710  -13.0556   20.9116 C   0  0  0  0  0  0
  -24.6668  -11.7170   20.8775 C   0  0  0  0  0  0
  -23.9391  -10.4383   21.0275 C   0  0  0  0  0  0
  -24.3828   -9.4294   21.9131 C   0  0  0  0  0  0
  -23.6412   -8.2359   22.0739 C   0  0  0  0  0  0
  -22.4382   -8.0397   21.3546 C   0  0  0  0  0  0
  -22.0081   -9.0369   20.4607 C   0  0  0  0  0  0
  -22.7491  -10.2220   20.2965 C   0  0  0  0  0  0
  -21.6918   -6.0791   22.5268 C   0  0  0  0  0  0
  -21.4077   -6.5672   23.8209 C   0  0  0  0  0  0
  -21.3663   -5.6814   24.9172 C   0  0  0  0  0  0
  -21.6012   -4.3081   24.7195 C   0  0  0  0  0  0
  -21.8805   -3.8180   23.4311 C   0  0  0  0  0  0
  -21.9231   -4.7012   22.3370 C   0  0  0  0  0  0
  -22.7646  -13.5109   21.1683 C   0  0  0  0  0  0
  -22.1659   -4.2167   21.0944 F   0  0  0  0  0  0
  -21.5606   -3.4569   25.7701 F   0  0  0  0  0  0
  -30.6191  -12.6234   20.9155 N   0  0  0  0  0  0
  -26.3342  -13.0485   20.4734 N   0  0  0  0  0  0
  -25.9867  -11.7371   20.6631 N   0  0  0  0  0  0
  -22.0396  -12.8040   22.0275 N   0  0  0  0  0  0
  -25.3349  -15.2388   20.4145 N   0  0  0  0  0  0
  -30.2661  -14.3824   20.0784 O   0  0  0  0  0  0
  -21.6718   -6.8983   21.4241 O   0  0  0  0  0  0
  -22.3241  -14.5379   20.6575 O   0  0  0  0  0  0
  -24.6309  -31.8637   23.2143 C   0  0  0  0  0  0
  -25.9170  -32.4793   23.8424 C   0  0  1  0  0  0
  -27.1808  -27.3211   20.0103 C   0  0  0  0  0  0
  -25.5984  -33.8594   24.2323 N   0  0  0  0  0  0
  -23.4182  -30.5042   21.5632 C   0  0  2  0  0  0
  -24.8454  -28.9857   20.1175 C   0  0  0  0  0  0
  -22.7482  -29.4662   22.4970 C   0  0  0  0  0  0
  -18.0282  -28.1379   22.8483 C   0  0  0  0  0  0
  -24.1492  -36.7293   23.2640 C   0  0  0  0  0  0
  -25.9747  -30.7822   21.3988 C   0  0  0  0  0  0
  -26.0345  -29.4203   20.7178 C   0  0  0  0  0  0
  -27.2081  -28.5974   20.6678 C   0  0  0  0  0  0
  -25.9348  -26.9646   19.4225 C   0  0  0  0  0  0
  -24.7952  -27.7560   19.4756 C   0  0  0  0  0  0
  -23.6267  -29.8721   20.1720 C   0  0  0  0  0  0
  -25.4118  -36.3083   24.0326 C   0  0  1  0  0  0
  -20.5890  -28.3685   23.1273 C   0  0  2  0  0  0
  -20.6775  -26.9411   22.5397 C   0  0  0  0  0  0
  -19.5746  -26.6377   21.5206 C   0  0  0  0  0  0
  -18.1928  -26.7919   22.1623 C   0  0  0  0  0  0
  -19.1539  -28.8849   23.2872 C   0  0  0  0  0  0
  -18.9462  -30.1456   23.8884 C   0  0  0  0  0  0
  -17.6465  -30.6589   24.0557 C   0  0  0  0  0  0
  -25.9060  -34.9452   23.5107 C   0  0  0  0  0  0
  -16.5353  -29.9083   23.6342 C   0  0  0  0  0  0
  -16.7269  -28.6500   23.0358 C   0  0  0  0  0  0
  -26.4532  -31.6604   25.0802 C   0  0  0  0  0  0
  -25.3762  -31.3758   26.1531 C   0  0  0  0  0  0
  -27.0394  -30.3008   24.6324 C   0  0  0  0  0  0
  -27.6074  -32.4358   25.7573 C   0  0  0  0  0  0
  -27.5569  -37.1812   24.8471 C   0  0  0  0  0  0
  -21.4199  -29.3058   22.3695 N   0  0  0  0  0  0
  -26.4294  -37.3773   23.9399 N   0  0  0  0  0  0
  -24.6944  -31.0638   22.1127 N   0  0  0  0  0  0
  -23.4211  -28.8140   23.3000 O   0  0  0  0  0  0
  -28.2688  -26.4168   19.9148 O   0  0  0  0  0  0
  -26.5603  -34.8907   22.4659 O   0  0  0  0  0  0
  -23.5470  -32.1459   23.7456 O   0  0  0  0  0  0
  -27.4395  -20.4365   18.3254 C   0  0  0  0  0  0
  -29.4956  -21.1922   17.3181 C   0  0  0  0  0  0
  -27.5642  -19.1741   17.6810 C   0  0  0  0  0  0
  -29.6090  -19.9337   16.6598 C   0  0  0  0  0  0
  -28.3970  -21.4726   18.1654 C   0  0  0  0  0  0
  -28.6561  -18.8931   16.8199 C   0  0  0  0  0  0
  -28.8158  -23.9017   19.0390 C   0  0  0  0  0  0
  -27.8712  -25.1222   19.2941 C   0  0  0  0  0  0
  -28.7571  -10.6327   17.2760 C   0  0  0  0  0  0
  -27.8133  -11.3661   16.1890 C   0  0  0  0  0  0
  -28.5172  -10.7456   18.8590 C   0  0  0  0  0  0
  -28.1663  -12.7046   15.3730 C   0  0  0  0  0  0
  -28.0174  -16.5238   16.3638 C   0  0  0  0  0  0
  -28.4469  -15.2183   15.5616 C   0  0  0  0  0  0
  -28.1143  -22.7582   18.7743 N   0  0  0  0  0  0
  -29.3635  -11.5496   19.8618 N   0  0  0  0  0  0
  -30.0477  -23.9900   19.0475 O   0  0  0  0  0  0
  -28.8436  -17.6937   16.1139 O   0  0  0  0  0  0
  -27.7261  -13.9931   15.9048 O   0  0  0  0  0  0
  -32.1216  -13.1941   19.0712 H   0  0  0  0  0  0
  -31.5907  -11.5988   18.9284 H   0  0  0  0  0  0
  -30.0718  -12.6528   16.9647 H   0  0  0  0  0  0
  -30.2126  -14.1376   17.6258 H   0  0  0  0  0  0
  -27.3882  -12.8649   18.0136 H   0  0  0  0  0  0
  -27.9363  -14.4202   18.1922 H   0  0  0  0  0  0
  -27.6875  -14.5824   20.3415 H   0  0  0  0  0  0
  -28.5971  -12.2765   22.1044 H   0  0  0  0  0  0
  -29.0400  -13.9032   22.2171 H   0  0  0  0  0  0
  -25.2935   -9.5771   22.4779 H   0  0  0  0  0  0
  -24.0053   -7.4757   22.7512 H   0  0  0  0  0  0
  -21.0993   -8.8930   19.8911 H   0  0  0  0  0  0
  -22.3915  -10.9762   19.6076 H   0  0  0  0  0  0
  -21.2082   -7.6187   23.9709 H   0  0  0  0  0  0
  -21.1475   -6.0551   25.9077 H   0  0  0  0  0  0
  -22.0579   -2.7635   23.2816 H   0  0  0  0  0  0
  -22.4158  -11.9806   22.4737 H   0  0  0  0  0  0
  -21.0993  -13.1017   22.2476 H   0  0  0  0  0  0
  -24.5346  -15.8604   20.4505 H   0  0  0  0  0  0
  -26.1911  -15.7165   20.1654 H   0  0  0  0  0  0
  -26.7227  -32.5421   23.1153 H   0  0  0  0  0  0
  -25.0158  -33.9748   25.0481 H   0  0  0  0  0  0
  -22.7125  -31.3278   21.4364 H   0  0  0  0  0  0
  -23.3738  -35.9642   23.3333 H   0  0  0  0  0  0
  -24.3572  -36.8884   22.2046 H   0  0  0  0  0  0
  -23.7273  -37.6515   23.6645 H   0  0  0  0  0  0
  -26.1323  -31.5575   20.6479 H   0  0  0  0  0  0
  -26.8459  -30.8006   22.0419 H   0  0  0  0  0  0
  -28.1228  -28.9312   21.1371 H   0  0  0  0  0  0
  -25.7376  -26.0604   18.8744 H   0  0  0  0  0  0
  -23.8853  -27.4160   19.0002 H   0  0  0  0  0  0
  -23.7612  -30.6624   19.4324 H   0  0  0  0  0  0
  -22.7401  -29.3193   19.8545 H   0  0  0  0  0  0
  -25.1300  -36.1932   25.0817 H   0  0  0  0  0  0
  -20.9967  -28.3245   24.1399 H   0  0  0  0  0  0
  -20.5677  -26.2292   23.3593 H   0  0  0  0  0  0
  -21.6639  -26.7442   22.1188 H   0  0  0  0  0  0
  -19.6903  -25.6282   21.1246 H   0  0  0  0  0  0
  -19.6677  -27.3175   20.6726 H   0  0  0  0  0  0
  -17.4190  -26.6659   21.4037 H   0  0  0  0  0  0
  -18.0336  -26.0067   22.9026 H   0  0  0  0  0  0
  -19.7941  -30.7273   24.2240 H   0  0  0  0  0  0
  -17.5023  -31.6270   24.5151 H   0  0  0  0  0  0
  -15.5354  -30.2977   23.7682 H   0  0  0  0  0  0
  -15.8667  -28.0816   22.7082 H   0  0  0  0  0  0
  -24.5905  -30.7144   25.7867 H   0  0  0  0  0  0
  -24.9007  -32.2940   26.4985 H   0  0  0  0  0  0
  -25.8091  -30.8907   27.0291 H   0  0  0  0  0  0
  -26.3003  -29.6740   24.1325 H   0  0  0  0  0  0
  -27.4021  -29.7295   25.4881 H   0  0  0  0  0  0
  -27.8909  -30.4263   23.9634 H   0  0  0  0  0  0
  -27.2651  -33.3633   26.2176 H   0  0  0  0  0  0
  -28.3872  -32.6969   25.0405 H   0  0  0  0  0  0
  -28.0767  -31.8487   26.5478 H   0  0  0  0  0  0
  -28.2618  -38.0077   24.7470 H   0  0  0  0  0  0
  -28.1037  -36.2606   24.6363 H   0  0  0  0  0  0
  -27.2282  -37.1540   25.8876 H   0  0  0  0  0  0
  -20.9355  -29.8847   21.6976 H   0  0  0  0  0  0
  -26.0173  -38.2850   24.1379 H   0  0  0  0  0  0
  -26.5692  -20.6096   18.9445 H   0  0  0  0  0  0
  -30.2412  -21.9504   17.1324 H   0  0  0  0  0  0
  -26.7891  -18.4402   17.8456 H   0  0  0  0  0  0
  -30.4494  -19.7688   16.0000 H   0  0  0  0  0  0
  -27.0377  -24.7088   19.8693 H   0  0  0  0  0  0
  -27.5480  -25.3369   18.2735 H   0  0  0  0  0  0
  -28.5082   -9.5852   17.1039 H   0  0  0  0  0  0
  -29.8124  -10.6140   17.0061 H   0  0  0  0  0  0
  -26.7919  -11.4291   16.5691 H   0  0  0  0  0  0
  -27.7201  -10.6238   15.3940 H   0  0  0  0  0  0
  -28.6524   -9.7323   19.2383 H   0  0  0  0  0  0
  -27.4578  -10.8998   19.0002 H   0  0  0  0  0  0
  -27.6437  -12.6254   14.4178 H   0  0  0  0  0  0
  -29.2165  -12.7241   15.0837 H   0  0  0  0  0  0
  -28.0777  -16.3473   17.4362 H   0  0  0  0  0  0
  -26.9749  -16.7521   16.1483 H   0  0  0  0  0  0
  -29.5097  -15.0489   15.7292 H   0  0  0  0  0  0
  -28.3442  -15.3995   14.4934 H   0  0  0  0  0  0
  -27.1337  -22.8799   18.9868 H   0  0  0  0  0  0
  -29.7180  -10.9172   20.5651 H   0  0  0  0  0  0
  1 25  1  0  0  0
  1 30  2  0  0  0
  1 86  1  0  0  0
  2  3  1  0  0  0
  2 25  1  0  0  0
  2 90  1  0  0  0
  2 91  1  0  0  0
  3  4  1  0  0  0
  3 92  1  0  0  0
  3 93  1  0  0  0
  4  5  1  0  0  0
  4 94  1  0  0  0
  4 95  1  0  0  0
  5  6  1  0  0  0
  5 26  1  0  0  0
  5 96  1  0  0  0
  6 25  1  0  0  0
  6 97  1  0  0  0
  6 98  1  0  0  0
  7  8  2  0  0  0
  7 26  1  0  0  0
  7 29  1  0  0  0
  8  9  1  0  0  0
  8 22  1  0  0  0
  9 10  1  0  0  0
  9 27  2  0  0  0
 10 11  2  0  0  0
 10 15  1  0  0  0
 11 12  1  0  0  0
 11 99  1  0  0  0
 12 13  2  0  0  0
 12100  1  0  0  0
 13 14  1  0  0  0
 13 31  1  0  0  0
 14 15  2  0  0  0
 14101  1  0  0  0
 15102  1  0  0  0
 16 17  2  0  0  0
 16 21  1  0  0  0
 16 31  1  0  0  0
 17 18  1  0  0  0
 17103  1  0  0  0
 18 19  2  0  0  0
 18104  1  0  0  0
 19 20  1  0  0  0
 19 24  1  0  0  0
 20 21  2  0  0  0
 20105  1  0  0  0
 21 23  1  0  0  0
 22 28  1  0  0  0
 22 32  2  0  0  0
 26 27  1  0  0  0
 28106  1  0  0  0
 28107  1  0  0  0
 29108  1  0  0  0
 29109  1  0  0  0
 33 34  1  0  0  0
 33 66  1  0  0  0
 33 70  2  0  0  0
 34 36  1  0  0  0
 34 59  1  0  0  0
 34110  1  0  0  0
 35 44  2  0  0  0
 35 45  1  0  0  0
 35 68  1  0  0  0
 36 56  1  0  0  0
 36111  1  0  0  0
 37 39  1  0  0  0
 37 47  1  0  0  0
 37 66  1  0  0  0
 37112  1  0  0  0
 38 43  2  0  0  0
 38 46  1  0  0  0
 38 47  1  0  0  0
 39 64  1  0  0  0
 39 67  2  0  0  0
 40 52  1  0  0  0
 40 53  2  0  0  0
 40 58  1  0  0  0
 41113  1  0  0  0
 41114  1  0  0  0
 41115  1  0  0  0
 41 48  1  0  0  0
 42 43  1  0  0  0
 42 66  1  0  0  0
 42116  1  0  0  0
 42117  1  0  0  0
 43 44  1  0  0  0
 44118  1  0  0  0
 45 46  2  0  0  0
 45119  1  0  0  0
 46120  1  0  0  0
 47121  1  0  0  0
 47122  1  0  0  0
 48 56  1  0  0  0
 48 65  1  0  0  0
 48123  1  0  0  0
 49 50  1  0  0  0
 49 53  1  0  0  0
 49 64  1  0  0  0
 49124  1  0  0  0
 50 51  1  0  0  0
 50125  1  0  0  0
 50126  1  0  0  0
 51 52  1  0  0  0
 51127  1  0  0  0
 51128  1  0  0  0
 52129  1  0  0  0
 52130  1  0  0  0
 53 54  1  0  0  0
 54 55  2  0  0  0
 54131  1  0  0  0
 55 57  1  0  0  0
 55132  1  0  0  0
 56 69  2  0  0  0
 57 58  2  0  0  0
 57133  1  0  0  0
 58134  1  0  0  0
 59 60  1  0  0  0
 59 61  1  0  0  0
 59 62  1  0  0  0
 60135  1  0  0  0
 60136  1  0  0  0
 60137  1  0  0  0
 61138  1  0  0  0
 61139  1  0  0  0
 61140  1  0  0  0
 62141  1  0  0  0
 62142  1  0  0  0
 62143  1  0  0  0
 63 65  1  0  0  0
 63144  1  0  0  0
 63145  1  0  0  0
 63146  1  0  0  0
 64147  1  0  0  0
 65148  1  0  0  0
 68 78  1  0  0  0
 71 73  2  0  0  0
 71 75  1  0  0  0
 71149  1  0  0  0
 72 74  1  0  0  0
 72 75  2  0  0  0
 72150  1  0  0  0
 73 76  1  0  0  0
 73151  1  0  0  0
 74 76  2  0  0  0
 74152  1  0  0  0
 75 85  1  0  0  0
 76 88  1  0  0  0
 77 78  1  0  0  0
 77 85  1  0  0  0
 77 87  2  0  0  0
 78153  1  0  0  0
 78154  1  0  0  0
 79 80  1  0  0  0
 79 81  1  0  0  0
 79155  1  0  0  0
 79156  1  0  0  0
 80 82  1  0  0  0
 80157  1  0  0  0
 80158  1  0  0  0
 81 86  1  0  0  0
 81159  1  0  0  0
 81160  1  0  0  0
 82 89  1  0  0  0
 82161  1  0  0  0
 82162  1  0  0  0
 83 84  1  0  0  0
 83 88  1  0  0  0
 83163  1  0  0  0
 83164  1  0  0  0
 84 89  1  0  0  0
 84165  1  0  0  0
 84166  1  0  0  0
 85167  1  0  0  0
 86168  1  0  0  0
M  ISO  4   1 100  68 101  78 101  86 100
M  END
> <chiral flag>
0

> <version>
0

> <s_m_source_file>
/data/baiqing/PycharmProjects/Reinvent-master-3.2/result/LINK_invent/BTK/process_docking_weight1_custom_sum_contain_oxygen_bond_distance_aromatic_linkinvent_7_9_3/rearranged_h_0000.sdf

> <i_m_source_file_index>
67

> <r_mmod_Potential_Energy-OPLS-2005>
4095.00830078125

> <r_mmod_Stretch_Energy-OPLS-2005>
1450.92346191406

> <r_mmod_Bend_Energy-OPLS-2005>
984.815368652344

> <r_mmod_Torsional_Energy-OPLS-2005>
323.333923339844

> <r_mmod_Improper_Torsional_Energy-OPLS-2005>
2.6353907585144

> <r_mmod_Van_der_Waal_Energy-OPLS-2005>
1078.28564453125

> <r_mmod_Electrostatic_Energy-OPLS-2005>
-387.229339599609

> <r_mmod_Solvation_Energy-OPLS-2005>
-269.235870361328

> <b_mmod_Minimization_Converged-OPLS-2005>
0

> <r_mmod_RMS_Derivative-OPLS-2005>
4.08487033843994

$$$$
70
                    3D
 Structure written by MMmdl.
184194  0  0  1  0            999 V2000
  -30.7239  -14.3957   20.6280 C   0  0  0  0  0  0
  -30.4301  -12.2746   19.4132 C   0  0  0  0  0  0
  -29.4988  -12.5139   18.2068 C   0  0  0  0  0  0
  -28.0184  -12.3814   18.6155 C   0  0  0  0  0  0
  -27.6746  -13.1982   19.8882 C   0  0  2  0  0  0
  -28.7117  -12.9226   21.0033 C   0  0  0  0  0  0
  -25.2629  -13.8143   20.5660 C   0  0  0  0  0  0
  -24.1852  -13.0433   20.9137 C   0  0  0  0  0  0
  -24.6396  -11.6897   20.8717 C   0  0  0  0  0  0
  -23.9055  -10.4284   21.0397 C   0  0  0  0  0  0
  -24.3604   -9.4197   21.9173 C   0  0  0  0  0  0
  -23.6273   -8.2245   22.0756 C   0  0  0  0  0  0
  -22.4253   -8.0289   21.3547 C   0  0  0  0  0  0
  -21.9887   -9.0261   20.4647 C   0  0  0  0  0  0
  -22.7224  -10.2131   20.3046 C   0  0  0  0  0  0
  -21.6852   -6.0731   22.5272 C   0  0  0  0  0  0
  -21.4023   -6.5637   23.8212 C   0  0  0  0  0  0
  -21.3660   -5.6785   24.9168 C   0  0  0  0  0  0
  -21.6044   -4.3050   24.7215 C   0  0  0  0  0  0
  -21.8820   -3.8142   23.4337 C   0  0  0  0  0  0
  -21.9188   -4.6956   22.3393 C   0  0  0  0  0  0
  -22.7874  -13.5244   21.1807 C   0  0  0  0  0  0
  -22.1658   -4.2146   21.0972 F   0  0  0  0  0  0
  -21.5623   -3.4534   25.7731 F   0  0  0  0  0  0
  -30.0603  -13.2195   20.4778 N   0  0  0  0  0  0
  -26.3080  -12.9302   20.3399 N   0  0  0  0  0  0
  -25.9334  -11.6469   20.5772 N   0  0  0  0  0  0
  -22.0517  -12.8260   22.0372 N   0  0  0  0  0  0
  -25.4356  -15.1858   20.4085 N   0  0  0  0  0  0
  -31.7538  -14.6751   20.0082 O   0  0  0  0  0  0
  -21.6635   -6.8877   21.4238 O   0  0  0  0  0  0
  -22.3558  -14.5551   20.6648 O   0  0  0  0  0  0
  -24.6105  -31.8700   23.2125 C   0  0  0  0  0  0
  -25.9012  -32.4830   23.8409 C   0  0  1  0  0  0
  -27.2418  -27.4809   20.0804 C   0  0  0  0  0  0
  -25.5884  -33.8631   24.2341 N   0  0  0  0  0  0
  -23.3975  -30.4915   21.5521 C   0  0  2  0  0  0
  -24.8468  -28.9591   20.1177 C   0  0  0  0  0  0
  -22.7391  -29.4659   22.5014 C   0  0  0  0  0  0
  -18.0262  -28.1379   22.8489 C   0  0  0  0  0  0
  -24.1485  -36.7320   23.2638 C   0  0  0  0  0  0
  -25.9214  -30.8472   21.3603 C   0  0  0  0  0  0
  -26.0024  -29.4833   20.7113 C   0  0  0  0  0  0
  -27.2059  -28.7485   20.6945 C   0  0  0  0  0  0
  -26.0758  -26.9545   19.4918 C   0  0  0  0  0  0
  -24.8742  -27.6906   19.5091 C   0  0  0  0  0  0
  -23.6050  -29.8201   20.1674 C   0  0  0  0  0  0
  -25.4104  -36.3118   24.0337 C   0  0  1  0  0  0
  -20.5849  -28.3655   23.1331 C   0  0  2  0  0  0
  -20.6757  -26.9396   22.5423 C   0  0  0  0  0  0
  -19.5740  -26.6388   21.5211 C   0  0  0  0  0  0
  -18.1916  -26.7926   22.1618 C   0  0  0  0  0  0
  -19.1514  -28.8832   23.2906 C   0  0  0  0  0  0
  -18.9444  -30.1442   23.8918 C   0  0  0  0  0  0
  -17.6450  -30.6582   24.0569 C   0  0  0  0  0  0
  -25.9026  -34.9478   23.5136 C   0  0  0  0  0  0
  -16.5339  -29.9090   23.6326 C   0  0  0  0  0  0
  -16.7254  -28.6506   23.0341 C   0  0  0  0  0  0
  -26.4462  -31.6595   25.0719 C   0  0  0  0  0  0
  -25.3747  -31.3692   26.1482 C   0  0  0  0  0  0
  -27.0285  -30.3042   24.6061 C   0  0  0  0  0  0
  -27.6050  -32.4308   25.7469 C   0  0  0  0  0  0
  -27.5578  -37.1813   24.8463 C   0  0  0  0  0  0
  -21.4123  -29.3023   22.3742 N   0  0  0  0  0  0
  -26.4294  -37.3796   23.9407 N   0  0  0  0  0  0
  -24.6608  -31.0829   22.1008 N   0  0  0  0  0  0
  -23.4174  -28.8208   23.3049 O   0  0  0  0  0  0
  -28.4053  -26.7613   20.0366 O   0  0  0  0  0  0
  -26.5589  -34.8925   22.4698 O   0  0  0  0  0  0
  -23.5306  -32.1437   23.7541 O   0  0  0  0  0  0
  -31.1952  -23.5150   19.1241 C   0  0  0  0  0  0
  -32.5238  -23.9455   19.2862 C   0  0  0  0  0  0
  -30.8293  -22.2076   19.4944 C   0  0  0  0  0  0
  -32.2972  -17.3812   21.5568 C   0  0  0  0  0  0
  -33.4887  -23.0691   19.8190 C   0  0  0  0  0  0
  -33.3195  -18.3478   21.4724 C   0  0  0  0  0  0
  -30.7355  -18.9635   20.5716 C   0  0  0  0  0  0
  -31.7809  -21.3116   20.0335 C   0  0  0  0  0  0
  -31.7393  -19.9535   20.4918 C   0  0  0  0  0  0
  -31.0005  -17.6769   21.0837 C   0  0  0  0  0  0
  -33.1252  -21.7575   20.1924 C   0  0  0  0  0  0
  -33.0507  -19.6248   20.9354 C   0  0  0  0  0  0
  -29.8539  -16.6705   21.0826 C   0  0  0  0  0  0
  -29.9450  -26.1024   21.7641 C   0  0  0  0  0  0
  -35.3323  -20.7474   20.9851 C   0  0  0  0  0  0
  -28.5666  -25.8719   21.1347 C   0  0  0  0  0  0
  -30.1319  -25.2997   23.0556 C   0  0  0  0  0  0
  -35.6652  -20.9039   22.4756 C   0  0  0  0  0  0
  -31.6059  -25.1097   24.8943 C   0  0  0  0  0  0
  -35.4681  -22.3246   24.3478 C   0  0  0  0  0  0
  -33.1021  -25.0343   25.2154 C   0  0  0  0  0  0
  -35.0231  -23.7198   24.7980 C   0  0  0  0  0  0
  -33.8997  -20.7181   20.7242 N   0  0  0  0  0  0
  -30.1187  -15.2752   21.4348 N   0  0  0  0  0  0
  -31.4494  -25.5077   23.5387 O   0  0  0  0  0  0
  -35.2174  -22.1650   22.9578 O   0  0  0  0  0  0
  -33.6103  -23.8142   24.6955 O   0  0  0  0  0  0
  -31.4758  -12.3719   19.1149 H   0  0  0  0  0  0
  -30.3282  -11.2508   19.7770 H   0  0  0  0  0  0
  -29.7282  -11.8095   17.4065 H   0  0  0  0  0  0
  -29.6792  -13.5085   17.7952 H   0  0  0  0  0  0
  -27.8160  -11.3240   18.7923 H   0  0  0  0  0  0
  -27.3702  -12.6816   17.7909 H   0  0  0  0  0  0
  -27.7375  -14.2532   19.6193 H   0  0  0  0  0  0
  -28.6717  -11.8727   21.2980 H   0  0  0  0  0  0
  -28.4669  -13.4771   21.9092 H   0  0  0  0  0  0
  -25.2768   -9.5673   22.4718 H   0  0  0  0  0  0
  -23.9984   -7.4643   22.7480 H   0  0  0  0  0  0
  -21.0809   -8.8784   19.8953 H   0  0  0  0  0  0
  -22.3702  -10.9663   19.6133 H   0  0  0  0  0  0
  -21.2047   -7.6149   23.9715 H   0  0  0  0  0  0
  -21.1470   -6.0517   25.9071 H   0  0  0  0  0  0
  -22.0599   -2.7603   23.2839 H   0  0  0  0  0  0
  -22.4141  -11.9940   22.4785 H   0  0  0  0  0  0
  -21.1134  -13.1294   22.2579 H   0  0  0  0  0  0
  -24.6710  -15.8431   20.5181 H   0  0  0  0  0  0
  -26.2922  -15.6215   20.0907 H   0  0  0  0  0  0
  -26.7089  -32.5564   23.1185 H   0  0  0  0  0  0
  -25.0042  -33.9800   25.0490 H   0  0  0  0  0  0
  -22.6840  -31.3062   21.4126 H   0  0  0  0  0  0
  -23.3737  -35.9664   23.3321 H   0  0  0  0  0  0
  -24.3579  -36.8915   22.2049 H   0  0  0  0  0  0
  -23.7248  -37.6536   23.6640 H   0  0  0  0  0  0
  -26.0262  -31.6133   20.5908 H   0  0  0  0  0  0
  -26.8117  -30.9045   21.9745 H   0  0  0  0  0  0
  -28.1034  -29.1509   21.1436 H   0  0  0  0  0  0
  -26.1012  -25.9834   19.0184 H   0  0  0  0  0  0
  -23.9856  -27.2805   19.0501 H   0  0  0  0  0  0
  -23.7085  -30.5933   19.4053 H   0  0  0  0  0  0
  -22.7315  -29.2345   19.8752 H   0  0  0  0  0  0
  -25.1281  -36.1989   25.0830 H   0  0  0  0  0  0
  -20.9932  -28.3220   24.1456 H   0  0  0  0  0  0
  -20.5659  -26.2260   23.3603 H   0  0  0  0  0  0
  -21.6630  -26.7450   22.1217 H   0  0  0  0  0  0
  -19.6906  -25.6305   21.1224 H   0  0  0  0  0  0
  -19.6685  -27.3214   20.6756 H   0  0  0  0  0  0
  -17.4187  -26.6668   21.4021 H   0  0  0  0  0  0
  -18.0323  -26.0067   22.9015 H   0  0  0  0  0  0
  -19.7922  -30.7250   24.2299 H   0  0  0  0  0  0
  -17.5006  -31.6262   24.5171 H   0  0  0  0  0  0
  -15.5344  -30.2999   23.7643 H   0  0  0  0  0  0
  -15.8649  -28.0839   22.7044 H   0  0  0  0  0  0
  -24.5908  -30.7047   25.7828 H   0  0  0  0  0  0
  -24.8949  -32.2846   26.4959 H   0  0  0  0  0  0
  -25.8115  -30.8844   27.0221 H   0  0  0  0  0  0
  -26.2813  -29.6809   24.1130 H   0  0  0  0  0  0
  -27.4090  -29.7266   25.4496 H   0  0  0  0  0  0
  -27.8634  -30.4372   23.9175 H   0  0  0  0  0  0
  -27.2674  -33.3591   26.2091 H   0  0  0  0  0  0
  -28.3828  -32.6894   25.0271 H   0  0  0  0  0  0
  -28.0752  -31.8405   26.5344 H   0  0  0  0  0  0
  -28.2612  -38.0095   24.7497 H   0  0  0  0  0  0
  -28.1057  -36.2627   24.6303 H   0  0  0  0  0  0
  -27.2297  -37.1485   25.8868 H   0  0  0  0  0  0
  -20.9284  -29.8732   21.6956 H   0  0  0  0  0  0
  -26.0184  -38.2877   24.1410 H   0  0  0  0  0  0
  -30.4523  -24.1878   18.7159 H   0  0  0  0  0  0
  -32.8047  -24.9497   19.0013 H   0  0  0  0  0  0
  -29.8069  -21.8822   19.3660 H   0  0  0  0  0  0
  -32.5270  -16.4075   21.9635 H   0  0  0  0  0  0
  -34.5071  -23.4120   19.9385 H   0  0  0  0  0  0
  -34.3139  -18.0995   21.8158 H   0  0  0  0  0  0
  -29.7439  -19.2020   20.2142 H   0  0  0  0  0  0
  -29.3986  -16.6769   20.0894 H   0  0  0  0  0  0
  -29.0830  -17.0421   21.7586 H   0  0  0  0  0  0
  -30.0682  -27.1626   21.9863 H   0  0  0  0  0  0
  -30.7224  -25.8413   21.0457 H   0  0  0  0  0  0
  -35.7654  -19.8216   20.6063 H   0  0  0  0  0  0
  -35.7919  -21.5495   20.4087 H   0  0  0  0  0  0
  -27.7882  -26.0039   21.8897 H   0  0  0  0  0  0
  -28.4849  -24.8463   20.7728 H   0  0  0  0  0  0
  -29.9746  -24.2355   22.8739 H   0  0  0  0  0  0
  -29.3942  -25.6212   23.7929 H   0  0  0  0  0  0
  -36.7444  -20.8214   22.6129 H   0  0  0  0  0  0
  -35.2074  -20.0945   23.0470 H   0  0  0  0  0  0
  -31.1237  -25.8501   25.5337 H   0  0  0  0  0  0
  -31.1304  -24.1476   25.0946 H   0  0  0  0  0  0
  -34.9450  -21.5590   24.9225 H   0  0  0  0  0  0
  -36.5352  -22.2079   24.5435 H   0  0  0  0  0  0
  -33.2520  -25.0535   26.2967 H   0  0  0  0  0  0
  -33.6238  -25.8983   24.7990 H   0  0  0  0  0  0
  -35.5043  -24.4889   24.1923 H   0  0  0  0  0  0
  -35.3299  -23.8781   25.8334 H   0  0  0  0  0  0
  -29.4069  -14.8629   22.0191 H   0  0  0  0  0  0
  1 25  1  0  0  0
  1 30  2  0  0  0
  1 94  1  0  0  0
  2  3  1  0  0  0
  2 25  1  0  0  0
  2 98  1  0  0  0
  2 99  1  0  0  0
  3  4  1  0  0  0
  3100  1  0  0  0
  3101  1  0  0  0
  4  5  1  0  0  0
  4102  1  0  0  0
  4103  1  0  0  0
  5  6  1  0  0  0
  5 26  1  0  0  0
  5104  1  0  0  0
  6 25  1  0  0  0
  6105  1  0  0  0
  6106  1  0  0  0
  7  8  2  0  0  0
  7 26  1  0  0  0
  7 29  1  0  0  0
  8  9  1  0  0  0
  8 22  1  0  0  0
  9 10  1  0  0  0
  9 27  2  0  0  0
 10 11  2  0  0  0
 10 15  1  0  0  0
 11 12  1  0  0  0
 11107  1  0  0  0
 12 13  2  0  0  0
 12108  1  0  0  0
 13 14  1  0  0  0
 13 31  1  0  0  0
 14 15  2  0  0  0
 14109  1  0  0  0
 15110  1  0  0  0
 16 17  2  0  0  0
 16 21  1  0  0  0
 16 31  1  0  0  0
 17 18  1  0  0  0
 17111  1  0  0  0
 18 19  2  0  0  0
 18112  1  0  0  0
 19 20  1  0  0  0
 19 24  1  0  0  0
 20 21  2  0  0  0
 20113  1  0  0  0
 21 23  1  0  0  0
 22 28  1  0  0  0
 22 32  2  0  0  0
 26 27  1  0  0  0
 28114  1  0  0  0
 28115  1  0  0  0
 29116  1  0  0  0
 29117  1  0  0  0
 33 34  1  0  0  0
 33 66  1  0  0  0
 33 70  2  0  0  0
 34 36  1  0  0  0
 34 59  1  0  0  0
 34118  1  0  0  0
 35 44  2  0  0  0
 35 45  1  0  0  0
 35 68  1  0  0  0
 36 56  1  0  0  0
 36119  1  0  0  0
 37 39  1  0  0  0
 37 47  1  0  0  0
 37 66  1  0  0  0
 37120  1  0  0  0
 38 43  2  0  0  0
 38 46  1  0  0  0
 38 47  1  0  0  0
 39 64  1  0  0  0
 39 67  2  0  0  0
 40 52  1  0  0  0
 40 53  2  0  0  0
 40 58  1  0  0  0
 41121  1  0  0  0
 41122  1  0  0  0
 41123  1  0  0  0
 41 48  1  0  0  0
 42 43  1  0  0  0
 42 66  1  0  0  0
 42124  1  0  0  0
 42125  1  0  0  0
 43 44  1  0  0  0
 44126  1  0  0  0
 45 46  2  0  0  0
 45127  1  0  0  0
 46128  1  0  0  0
 47129  1  0  0  0
 47130  1  0  0  0
 48 56  1  0  0  0
 48 65  1  0  0  0
 48131  1  0  0  0
 49 50  1  0  0  0
 49 53  1  0  0  0
 49 64  1  0  0  0
 49132  1  0  0  0
 50 51  1  0  0  0
 50133  1  0  0  0
 50134  1  0  0  0
 51 52  1  0  0  0
 51135  1  0  0  0
 51136  1  0  0  0
 52137  1  0  0  0
 52138  1  0  0  0
 53 54  1  0  0  0
 54 55  2  0  0  0
 54139  1  0  0  0
 55 57  1  0  0  0
 55140  1  0  0  0
 56 69  2  0  0  0
 57 58  2  0  0  0
 57141  1  0  0  0
 58142  1  0  0  0
 59 60  1  0  0  0
 59 61  1  0  0  0
 59 62  1  0  0  0
 60143  1  0  0  0
 60144  1  0  0  0
 60145  1  0  0  0
 61146  1  0  0  0
 61147  1  0  0  0
 61148  1  0  0  0
 62149  1  0  0  0
 62150  1  0  0  0
 62151  1  0  0  0
 63 65  1  0  0  0
 63152  1  0  0  0
 63153  1  0  0  0
 63154  1  0  0  0
 64155  1  0  0  0
 65156  1  0  0  0
 68 86  1  0  0  0
 71 72  2  0  0  0
 71 73  1  0  0  0
 71157  1  0  0  0
 72 75  1  0  0  0
 72158  1  0  0  0
 73 78  2  0  0  0
 73159  1  0  0  0
 74 76  1  0  0  0
 74 80  2  0  0  0
 74160  1  0  0  0
 75 81  2  0  0  0
 75161  1  0  0  0
 76 82  2  0  0  0
 76162  1  0  0  0
 77 79  2  0  0  0
 77 80  1  0  0  0
 77163  1  0  0  0
 78 79  1  0  0  0
 78 81  1  0  0  0
 79 82  1  0  0  0
 80 83  1  0  0  0
 81 93  1  0  0  0
 82 93  1  0  0  0
 83 94  1  0  0  0
 83164  1  0  0  0
 83165  1  0  0  0
 84 86  1  0  0  0
 84 87  1  0  0  0
 84166  1  0  0  0
 84167  1  0  0  0
 85 88  1  0  0  0
 85 93  1  0  0  0
 85168  1  0  0  0
 85169  1  0  0  0
 86170  1  0  0  0
 86171  1  0  0  0
 87 95  1  0  0  0
 87172  1  0  0  0
 87173  1  0  0  0
 88 96  1  0  0  0
 88174  1  0  0  0
 88175  1  0  0  0
 89 91  1  0  0  0
 89 95  1  0  0  0
 89176  1  0  0  0
 89177  1  0  0  0
 90 92  1  0  0  0
 90 96  1  0  0  0
 90178  1  0  0  0
 90179  1  0  0  0
 91 97  1  0  0  0
 91180  1  0  0  0
 91181  1  0  0  0
 92 97  1  0  0  0
 92182  1  0  0  0
 92183  1  0  0  0
 94184  1  0  0  0
M  ISO  4   1 100  68 101  86 101  94 100
M  END
> <chiral flag>
0

> <version>
0

> <s_m_source_file>
/data/baiqing/PycharmProjects/Reinvent-master-3.2/result/LINK_invent/BTK/process_docking_weight1_custom_sum_contain_oxygen_bond_distance_aromatic_linkinvent_7_9_3/rearranged_h_0000.sdf

> <i_m_source_file_index>
68

> <r_mmod_Potential_Energy-OPLS-2005>
-82.5816192626953

> <r_mmod_Stretch_Energy-OPLS-2005>
35.0080146789551

> <r_mmod_Bend_Energy-OPLS-2005>
109.265296936035

> <r_mmod_Torsional_Energy-OPLS-2005>
243.027130126953

> <r_mmod_Improper_Torsional_Energy-OPLS-2005>
5.38685512542725

> <r_mmod_Van_der_Waal_Energy-OPLS-2005>
147.948776245117

> <r_mmod_Electrostatic_Energy-OPLS-2005>
-366.259002685547

> <r_mmod_Solvation_Energy-OPLS-2005>
-264.051666259766

> <b_mmod_Minimization_Converged-OPLS-2005>
0

> <r_mmod_RMS_Derivative-OPLS-2005>
1.81530666351318

$$$$
71
                    3D
 Structure written by MMmdl.
170177  0  0  1  0            999 V2000
  -30.7076  -14.3850   20.6618 C   0  0  0  0  0  0
  -30.4352  -12.2884   19.3862 C   0  0  0  0  0  0
  -29.4933  -12.5294   18.1882 C   0  0  0  0  0  0
  -28.0129  -12.3853   18.5996 C   0  0  0  0  0  0
  -27.6715  -13.1887   19.8831 C   0  0  2  0  0  0
  -28.7088  -12.8874   20.9862 C   0  0  0  0  0  0
  -25.2642  -13.8118   20.5653 C   0  0  0  0  0  0
  -24.1866  -13.0431   20.9137 C   0  0  0  0  0  0
  -24.6385  -11.6884   20.8704 C   0  0  0  0  0  0
  -23.9046  -10.4288   21.0391 C   0  0  0  0  0  0
  -24.3605   -9.4216   21.9178 C   0  0  0  0  0  0
  -23.6276   -8.2258   22.0769 C   0  0  0  0  0  0
  -22.4262   -8.0294   21.3561 C   0  0  0  0  0  0
  -21.9884   -9.0264   20.4669 C   0  0  0  0  0  0
  -22.7212  -10.2135   20.3058 C   0  0  0  0  0  0
  -21.6850   -6.0730   22.5277 C   0  0  0  0  0  0
  -21.4019   -6.5630   23.8208 C   0  0  0  0  0  0
  -21.3658   -5.6789   24.9172 C   0  0  0  0  0  0
  -21.6044   -4.3054   24.7218 C   0  0  0  0  0  0
  -21.8819   -3.8139   23.4344 C   0  0  0  0  0  0
  -21.9194   -4.6956   22.3396 C   0  0  0  0  0  0
  -22.7897  -13.5271   21.1785 C   0  0  0  0  0  0
  -22.1660   -4.2141   21.0973 F   0  0  0  0  0  0
  -21.5629   -3.4538   25.7732 F   0  0  0  0  0  0
  -30.0507  -13.2147   20.4573 N   0  0  0  0  0  0
  -26.3071  -12.9252   20.3375 N   0  0  0  0  0  0
  -25.9306  -11.6430   20.5730 N   0  0  0  0  0  0
  -22.0518  -12.8305   22.0359 N   0  0  0  0  0  0
  -25.4395  -15.1832   20.4058 N   0  0  0  0  0  0
  -31.7579  -14.7022   20.0929 O   0  0  0  0  0  0
  -21.6640   -6.8879   21.4248 O   0  0  0  0  0  0
  -22.3597  -14.5566   20.6611 O   0  0  0  0  0  0
  -24.6114  -31.8686   23.2136 C   0  0  0  0  0  0
  -25.9024  -32.4820   23.8401 C   0  0  1  0  0  0
  -27.2353  -27.4711   20.0789 C   0  0  0  0  0  0
  -25.5894  -33.8614   24.2340 N   0  0  0  0  0  0
  -23.3962  -30.4922   21.5543 C   0  0  2  0  0  0
  -24.8401  -28.9615   20.1155 C   0  0  0  0  0  0
  -22.7394  -29.4637   22.5023 C   0  0  0  0  0  0
  -18.0265  -28.1364   22.8493 C   0  0  0  0  0  0
  -24.1486  -36.7323   23.2638 C   0  0  0  0  0  0
  -25.9198  -30.8451   21.3579 C   0  0  0  0  0  0
  -25.9976  -29.4821   20.7065 C   0  0  0  0  0  0
  -27.1983  -28.7436   20.6833 C   0  0  0  0  0  0
  -26.0618  -26.9572   19.4794 C   0  0  0  0  0  0
  -24.8648  -27.6960   19.5028 C   0  0  0  0  0  0
  -23.6006  -29.8241   20.1679 C   0  0  0  0  0  0
  -25.4102  -36.3107   24.0340 C   0  0  1  0  0  0
  -20.5853  -28.3635   23.1344 C   0  0  2  0  0  0
  -20.6766  -26.9377   22.5436 C   0  0  0  0  0  0
  -19.5750  -26.6370   21.5221 C   0  0  0  0  0  0
  -18.1922  -26.7910   22.1621 C   0  0  0  0  0  0
  -19.1514  -28.8817   23.2914 C   0  0  0  0  0  0
  -18.9445  -30.1424   23.8915 C   0  0  0  0  0  0
  -17.6452  -30.6584   24.0560 C   0  0  0  0  0  0
  -25.9025  -34.9468   23.5135 C   0  0  0  0  0  0
  -16.5341  -29.9083   23.6319 C   0  0  0  0  0  0
  -16.7255  -28.6491   23.0355 C   0  0  0  0  0  0
  -26.4479  -31.6578   25.0706 C   0  0  0  0  0  0
  -25.3779  -31.3664   26.1487 C   0  0  0  0  0  0
  -27.0295  -30.3023   24.6028 C   0  0  0  0  0  0
  -27.6062  -32.4288   25.7462 C   0  0  0  0  0  0
  -27.5580  -37.1813   24.8464 C   0  0  0  0  0  0
  -21.4128  -29.3010   22.3760 N   0  0  0  0  0  0
  -26.4289  -37.3791   23.9412 N   0  0  0  0  0  0
  -24.6603  -31.0818   22.1016 N   0  0  0  0  0  0
  -23.4191  -28.8167   23.3030 O   0  0  0  0  0  0
  -28.4247  -26.7833   20.0830 O   0  0  0  0  0  0
  -26.5583  -34.8923   22.4692 O   0  0  0  0  0  0
  -23.5316  -32.1421   23.7557 O   0  0  0  0  0  0
  -29.0632  -17.1174   22.5679 C   0  0  0  0  0  0
  -28.0858  -25.0372   21.7954 C   0  0  0  0  0  0
  -26.9617  -19.9823   25.6566 C   0  0  0  0  0  0
  -24.9052  -24.3656   25.3835 C   0  0  0  0  0  0
  -30.2665  -16.6234   21.7453 C   0  0  0  0  0  0
  -29.0949  -18.5901   22.9867 C   0  0  0  0  0  0
  -28.3911  -25.3751   20.3197 C   0  0  0  0  0  0
  -26.5911  -24.9999   22.1480 C   0  0  0  0  0  0
  -27.9209  -20.0571   24.4594 C   0  0  0  0  0  0
  -26.7883  -21.3223   26.3798 C   0  0  0  0  0  0
  -25.0936  -24.3842   23.8606 C   0  0  0  0  0  0
  -25.9181  -23.4982   26.1427 C   0  0  0  0  0  0
  -30.0646  -15.2029   21.4985 N   0  0  0  0  0  0
  -28.0374  -18.7490   23.9234 O   0  0  0  0  0  0
  -26.4374  -24.7103   23.5282 O   0  0  0  0  0  0
  -25.9290  -22.1721   25.6327 O   0  0  0  0  0  0
  -31.4768  -12.4170   19.0848 H   0  0  0  0  0  0
  -30.3531  -11.2599   19.7419 H   0  0  0  0  0  0
  -29.7258  -11.8325   17.3823 H   0  0  0  0  0  0
  -29.6634  -13.5285   17.7828 H   0  0  0  0  0  0
  -27.8119  -11.3253   18.7630 H   0  0  0  0  0  0
  -27.3653  -12.6962   17.7788 H   0  0  0  0  0  0
  -27.7407  -14.2479   19.6349 H   0  0  0  0  0  0
  -28.6768  -11.8286   21.2466 H   0  0  0  0  0  0
  -28.4512  -13.4052   21.9106 H   0  0  0  0  0  0
  -25.2757   -9.5680   22.4738 H   0  0  0  0  0  0
  -23.9985   -7.4643   22.7483 H   0  0  0  0  0  0
  -21.0815   -8.8779   19.8967 H   0  0  0  0  0  0
  -22.3679  -10.9675   19.6160 H   0  0  0  0  0  0
  -21.2016   -7.6138   23.9710 H   0  0  0  0  0  0
  -21.1478   -6.0517   25.9075 H   0  0  0  0  0  0
  -22.0596   -2.7602   23.2842 H   0  0  0  0  0  0
  -22.4128  -11.9988   22.4791 H   0  0  0  0  0  0
  -21.1150  -13.1378   22.2533 H   0  0  0  0  0  0
  -24.6776  -15.8440   20.5135 H   0  0  0  0  0  0
  -26.2979  -15.6186   20.0917 H   0  0  0  0  0  0
  -26.7087  -32.5549   23.1158 H   0  0  0  0  0  0
  -25.0072  -33.9770   25.0505 H   0  0  0  0  0  0
  -22.6817  -31.3068   21.4186 H   0  0  0  0  0  0
  -23.3730  -35.9675   23.3310 H   0  0  0  0  0  0
  -24.3582  -36.8929   22.2051 H   0  0  0  0  0  0
  -23.7265  -37.6540   23.6651 H   0  0  0  0  0  0
  -26.0245  -31.6092   20.5867 H   0  0  0  0  0  0
  -26.8109  -30.9025   21.9696 H   0  0  0  0  0  0
  -28.0942  -29.1422   21.1389 H   0  0  0  0  0  0
  -26.0564  -25.9949   18.9885 H   0  0  0  0  0  0
  -23.9748  -27.2914   19.0408 H   0  0  0  0  0  0
  -23.7054  -30.5990   19.4077 H   0  0  0  0  0  0
  -22.7246  -29.2420   19.8751 H   0  0  0  0  0  0
  -25.1277  -36.1974   25.0833 H   0  0  0  0  0  0
  -20.9932  -28.3201   24.1466 H   0  0  0  0  0  0
  -20.5670  -26.2238   23.3615 H   0  0  0  0  0  0
  -21.6641  -26.7428   22.1233 H   0  0  0  0  0  0
  -19.6905  -25.6279   21.1245 H   0  0  0  0  0  0
  -19.6702  -27.3186   20.6758 H   0  0  0  0  0  0
  -17.4198  -26.6654   21.4017 H   0  0  0  0  0  0
  -18.0322  -26.0052   22.9018 H   0  0  0  0  0  0
  -19.7928  -30.7231   24.2299 H   0  0  0  0  0  0
  -17.5012  -31.6269   24.5148 H   0  0  0  0  0  0
  -15.5343  -30.2999   23.7638 H   0  0  0  0  0  0
  -15.8646  -28.0820   22.7079 H   0  0  0  0  0  0
  -24.5937  -30.7016   25.7847 H   0  0  0  0  0  0
  -24.8992  -32.2813   26.4985 H   0  0  0  0  0  0
  -25.8175  -30.8812   27.0210 H   0  0  0  0  0  0
  -26.2797  -29.6776   24.1155 H   0  0  0  0  0  0
  -27.4167  -29.7266   25.4445 H   0  0  0  0  0  0
  -27.8590  -30.4351   23.9079 H   0  0  0  0  0  0
  -27.2680  -33.3568   26.2079 H   0  0  0  0  0  0
  -28.3852  -32.6872   25.0278 H   0  0  0  0  0  0
  -28.0751  -31.8391   26.5352 H   0  0  0  0  0  0
  -28.2603  -38.0103   24.7489 H   0  0  0  0  0  0
  -28.1070  -36.2634   24.6301 H   0  0  0  0  0  0
  -27.2302  -37.1477   25.8869 H   0  0  0  0  0  0
  -20.9279  -29.8738   21.6991 H   0  0  0  0  0  0
  -26.0181  -38.2866   24.1417 H   0  0  0  0  0  0
  -28.9963  -16.5119   23.4735 H   0  0  0  0  0  0
  -28.1411  -16.9351   22.0119 H   0  0  0  0  0  0
  -28.6075  -25.7353   22.4493 H   0  0  0  0  0  0
  -28.5050  -24.0542   22.0145 H   0  0  0  0  0  0
  -27.3604  -19.2599   26.3699 H   0  0  0  0  0  0
  -25.9900  -19.5975   25.3463 H   0  0  0  0  0  0
  -23.8942  -24.0236   25.6098 H   0  0  0  0  0  0
  -24.9675  -25.3859   25.7638 H   0  0  0  0  0  0
  -31.2009  -16.7792   22.2859 H   0  0  0  0  0  0
  -30.3404  -17.1634   20.7985 H   0  0  0  0  0  0
  -28.9559  -19.2428   22.1235 H   0  0  0  0  0  0
  -30.0514  -18.8366   23.4488 H   0  0  0  0  0  0
  -27.7385  -24.8339   19.6346 H   0  0  0  0  0  0
  -29.3960  -25.0172   20.0948 H   0  0  0  0  0  0
  -26.0895  -24.2517   21.5322 H   0  0  0  0  0  0
  -26.1104  -25.9580   21.9592 H   0  0  0  0  0  0
  -28.8948  -20.4210   24.7901 H   0  0  0  0  0  0
  -27.5499  -20.7477   23.7011 H   0  0  0  0  0  0
  -27.7643  -21.7855   26.5358 H   0  0  0  0  0  0
  -26.3522  -21.1551   27.3649 H   0  0  0  0  0  0
  -24.4060  -25.1151   23.4298 H   0  0  0  0  0  0
  -24.8340  -23.4133   23.4353 H   0  0  0  0  0  0
  -25.6558  -23.4890   27.2021 H   0  0  0  0  0  0
  -26.9149  -23.9354   26.0617 H   0  0  0  0  0  0
  -29.2386  -14.7953   21.9114 H   0  0  0  0  0  0
  1 25  1  0  0  0
  1 30  2  0  0  0
  1 83  1  0  0  0
  2  3  1  0  0  0
  2 25  1  0  0  0
  2 87  1  0  0  0
  2 88  1  0  0  0
  3  4  1  0  0  0
  3 89  1  0  0  0
  3 90  1  0  0  0
  4  5  1  0  0  0
  4 91  1  0  0  0
  4 92  1  0  0  0
  5  6  1  0  0  0
  5 26  1  0  0  0
  5 93  1  0  0  0
  6 25  1  0  0  0
  6 94  1  0  0  0
  6 95  1  0  0  0
  7  8  2  0  0  0
  7 26  1  0  0  0
  7 29  1  0  0  0
  8  9  1  0  0  0
  8 22  1  0  0  0
  9 10  1  0  0  0
  9 27  2  0  0  0
 10 11  2  0  0  0
 10 15  1  0  0  0
 11 12  1  0  0  0
 11 96  1  0  0  0
 12 13  2  0  0  0
 12 97  1  0  0  0
 13 14  1  0  0  0
 13 31  1  0  0  0
 14 15  2  0  0  0
 14 98  1  0  0  0
 15 99  1  0  0  0
 16 17  2  0  0  0
 16 21  1  0  0  0
 16 31  1  0  0  0
 17 18  1  0  0  0
 17100  1  0  0  0
 18 19  2  0  0  0
 18101  1  0  0  0
 19 20  1  0  0  0
 19 24  1  0  0  0
 20 21  2  0  0  0
 20102  1  0  0  0
 21 23  1  0  0  0
 22 28  1  0  0  0
 22 32  2  0  0  0
 26 27  1  0  0  0
 28103  1  0  0  0
 28104  1  0  0  0
 29105  1  0  0  0
 29106  1  0  0  0
 33 34  1  0  0  0
 33 66  1  0  0  0
 33 70  2  0  0  0
 34 36  1  0  0  0
 34 59  1  0  0  0
 34107  1  0  0  0
 35 44  2  0  0  0
 35 45  1  0  0  0
 35 68  1  0  0  0
 36 56  1  0  0  0
 36108  1  0  0  0
 37 39  1  0  0  0
 37 47  1  0  0  0
 37 66  1  0  0  0
 37109  1  0  0  0
 38 43  2  0  0  0
 38 46  1  0  0  0
 38 47  1  0  0  0
 39 64  1  0  0  0
 39 67  2  0  0  0
 40 52  1  0  0  0
 40 53  2  0  0  0
 40 58  1  0  0  0
 41110  1  0  0  0
 41111  1  0  0  0
 41112  1  0  0  0
 41 48  1  0  0  0
 42 43  1  0  0  0
 42 66  1  0  0  0
 42113  1  0  0  0
 42114  1  0  0  0
 43 44  1  0  0  0
 44115  1  0  0  0
 45 46  2  0  0  0
 45116  1  0  0  0
 46117  1  0  0  0
 47118  1  0  0  0
 47119  1  0  0  0
 48 56  1  0  0  0
 48 65  1  0  0  0
 48120  1  0  0  0
 49 50  1  0  0  0
 49 53  1  0  0  0
 49 64  1  0  0  0
 49121  1  0  0  0
 50 51  1  0  0  0
 50122  1  0  0  0
 50123  1  0  0  0
 51 52  1  0  0  0
 51124  1  0  0  0
 51125  1  0  0  0
 52126  1  0  0  0
 52127  1  0  0  0
 53 54  1  0  0  0
 54 55  2  0  0  0
 54128  1  0  0  0
 55 57  1  0  0  0
 55129  1  0  0  0
 56 69  2  0  0  0
 57 58  2  0  0  0
 57130  1  0  0  0
 58131  1  0  0  0
 59 60  1  0  0  0
 59 61  1  0  0  0
 59 62  1  0  0  0
 60132  1  0  0  0
 60133  1  0  0  0
 60134  1  0  0  0
 61135  1  0  0  0
 61136  1  0  0  0
 61137  1  0  0  0
 62138  1  0  0  0
 62139  1  0  0  0
 62140  1  0  0  0
 63 65  1  0  0  0
 63141  1  0  0  0
 63142  1  0  0  0
 63143  1  0  0  0
 64144  1  0  0  0
 65145  1  0  0  0
 68 77  1  0  0  0
 71 75  1  0  0  0
 71 76  1  0  0  0
 71146  1  0  0  0
 71147  1  0  0  0
 72 77  1  0  0  0
 72 78  1  0  0  0
 72148  1  0  0  0
 72149  1  0  0  0
 73 79  1  0  0  0
 73 80  1  0  0  0
 73150  1  0  0  0
 73151  1  0  0  0
 74 81  1  0  0  0
 74 82  1  0  0  0
 74152  1  0  0  0
 74153  1  0  0  0
 75 83  1  0  0  0
 75154  1  0  0  0
 75155  1  0  0  0
 76 84  1  0  0  0
 76156  1  0  0  0
 76157  1  0  0  0
 77158  1  0  0  0
 77159  1  0  0  0
 78 85  1  0  0  0
 78160  1  0  0  0
 78161  1  0  0  0
 79 84  1  0  0  0
 79162  1  0  0  0
 79163  1  0  0  0
 80 86  1  0  0  0
 80164  1  0  0  0
 80165  1  0  0  0
 81 85  1  0  0  0
 81166  1  0  0  0
 81167  1  0  0  0
 82 86  1  0  0  0
 82168  1  0  0  0
 82169  1  0  0  0
 83170  1  0  0  0
M  ISO  4   1 100  68 101  77 101  83 100
M  END
> <chiral flag>
0

> <version>
0

> <s_m_source_file>
/data/baiqing/PycharmProjects/Reinvent-master-3.2/result/LINK_invent/BTK/process_docking_weight1_custom_sum_contain_oxygen_bond_distance_aromatic_linkinvent_7_9_3/rearranged_h_0000.sdf

> <i_m_source_file_index>
69

> <r_mmod_Potential_Energy-OPLS-2005>
-101.216156005859

> <r_mmod_Stretch_Energy-OPLS-2005>
30.6726913452148

> <r_mmod_Bend_Energy-OPLS-2005>
100.767517089844

> <r_mmod_Torsional_Energy-OPLS-2005>
209.457015991211

> <r_mmod_Improper_Torsional_Energy-OPLS-2005>
2.43287205696106

> <r_mmod_Van_der_Waal_Energy-OPLS-2005>
128.764419555664

> <r_mmod_Electrostatic_Energy-OPLS-2005>
-359.512969970703

> <r_mmod_Solvation_Energy-OPLS-2005>
-222.238647460938

> <b_mmod_Minimization_Converged-OPLS-2005>
0

> <r_mmod_RMS_Derivative-OPLS-2005>
1.93772506713867

$$$$
72
                    3D
 Structure written by MMmdl.
151158  0  0  1  0            999 V2000
  -30.6553  -14.5615   20.5164 C   0  0  0  0  0  0
  -30.4343  -12.3448   19.4472 C   0  0  0  0  0  0
  -29.5058  -12.5000   18.2222 C   0  0  0  0  0  0
  -28.0269  -12.3522   18.6318 C   0  0  0  0  0  0
  -27.6599  -13.2100   19.8722 C   0  0  2  0  0  0
  -28.7030  -13.0341   21.0011 C   0  0  0  0  0  0
  -25.2584  -13.8162   20.5687 C   0  0  0  0  0  0
  -24.1839  -13.0436   20.9184 C   0  0  0  0  0  0
  -24.6399  -11.6904   20.8735 C   0  0  0  0  0  0
  -23.9065  -10.4291   21.0404 C   0  0  0  0  0  0
  -24.3613   -9.4209   21.9185 C   0  0  0  0  0  0
  -23.6290   -8.2244   22.0754 C   0  0  0  0  0  0
  -22.4274   -8.0280   21.3544 C   0  0  0  0  0  0
  -21.9908   -9.0255   20.4647 C   0  0  0  0  0  0
  -22.7234  -10.2136   20.3058 C   0  0  0  0  0  0
  -21.6852   -6.0737   22.5281 C   0  0  0  0  0  0
  -21.4013   -6.5642   23.8214 C   0  0  0  0  0  0
  -21.3659   -5.6793   24.9176 C   0  0  0  0  0  0
  -21.6042   -4.3056   24.7226 C   0  0  0  0  0  0
  -21.8819   -3.8149   23.4347 C   0  0  0  0  0  0
  -21.9193   -4.6966   22.3403 C   0  0  0  0  0  0
  -22.7864  -13.5235   21.1847 C   0  0  0  0  0  0
  -22.1662   -4.2151   21.0980 F   0  0  0  0  0  0
  -21.5628   -3.4539   25.7739 F   0  0  0  0  0  0
  -30.0293  -13.3503   20.4461 N   0  0  0  0  0  0
  -26.3021  -12.9338   20.3357 N   0  0  0  0  0  0
  -25.9330  -11.6495   20.5769 N   0  0  0  0  0  0
  -22.0500  -12.8230   22.0403 N   0  0  0  0  0  0
  -25.4306  -15.1882   20.4098 N   0  0  0  0  0  0
  -31.7943  -14.7459   20.0817 O   0  0  0  0  0  0
  -21.6637   -6.8878   21.4242 O   0  0  0  0  0  0
  -22.3554  -14.5544   20.6697 O   0  0  0  0  0  0
  -24.6214  -31.8639   23.2075 C   0  0  0  0  0  0
  -25.9085  -32.4801   23.8384 C   0  0  1  0  0  0
  -27.2255  -27.3712   20.1033 C   0  0  0  0  0  0
  -25.5919  -33.8602   24.2308 N   0  0  0  0  0  0
  -23.4114  -30.4896   21.5492 C   0  0  2  0  0  0
  -24.8565  -28.9542   20.1093 C   0  0  0  0  0  0
  -22.7445  -29.4644   22.4958 C   0  0  0  0  0  0
  -18.0278  -28.1380   22.8491 C   0  0  0  0  0  0
  -24.1487  -36.7311   23.2637 C   0  0  0  0  0  0
  -25.9475  -30.8102   21.3710 C   0  0  0  0  0  0
  -26.0215  -29.4415   20.7145 C   0  0  0  0  0  0
  -27.2071  -28.6586   20.7081 C   0  0  0  0  0  0
  -26.0402  -26.9304   19.4662 C   0  0  0  0  0  0
  -24.8648  -27.7015   19.4786 C   0  0  0  0  0  0
  -23.6224  -29.8285   20.1616 C   0  0  0  0  0  0
  -25.4106  -36.3097   24.0333 C   0  0  1  0  0  0
  -20.5876  -28.3678   23.1297 C   0  0  2  0  0  0
  -20.6771  -26.9407   22.5414 C   0  0  0  0  0  0
  -19.5748  -26.6385   21.5213 C   0  0  0  0  0  0
  -18.1926  -26.7925   22.1623 C   0  0  0  0  0  0
  -19.1531  -28.8844   23.2893 C   0  0  0  0  0  0
  -18.9454  -30.1447   23.8907 C   0  0  0  0  0  0
  -17.6457  -30.6586   24.0563 C   0  0  0  0  0  0
  -25.9042  -34.9465   23.5117 C   0  0  0  0  0  0
  -16.5347  -29.9089   23.6325 C   0  0  0  0  0  0
  -16.7266  -28.6504   23.0347 C   0  0  0  0  0  0
  -26.4492  -31.6591   25.0732 C   0  0  0  0  0  0
  -25.3750  -31.3715   26.1476 C   0  0  0  0  0  0
  -27.0327  -30.3021   24.6144 C   0  0  0  0  0  0
  -27.6054  -32.4318   25.7506 C   0  0  0  0  0  0
  -27.5575  -37.1810   24.8463 C   0  0  0  0  0  0
  -21.4166  -29.3041   22.3700 N   0  0  0  0  0  0
  -26.4286  -37.3783   23.9409 N   0  0  0  0  0  0
  -24.6785  -31.0701   22.1001 N   0  0  0  0  0  0
  -23.4196  -28.8175   23.3006 O   0  0  0  0  0  0
  -28.3648  -26.5671   20.1596 O   0  0  0  0  0  0
  -26.5600  -34.8920   22.4678 O   0  0  0  0  0  0
  -23.5393  -32.1416   23.7435 O   0  0  0  0  0  0
  -29.9427  -17.0084   20.3659 C   0  0  0  0  0  0
  -30.2398  -18.1042   21.4380 C   0  0  0  0  0  0
  -28.2075  -25.1343   19.9110 C   0  0  0  0  0  0
  -29.2662  -24.1793   20.5573 C   0  0  0  0  0  0
  -29.9175  -20.3642   20.4052 C   0  0  0  0  0  0
  -29.8174  -21.8260   20.9840 C   0  0  0  0  0  0
  -29.8654  -15.6054   20.8638 N   0  0  0  0  0  0
  -29.4912  -19.3441   21.3363 O   0  0  0  0  0  0
  -29.0968  -22.7873   20.1739 O   0  0  0  0  0  0
  -31.4781  -12.4560   19.1472 H   0  0  0  0  0  0
  -30.3514  -11.3425   19.8699 H   0  0  0  0  0  0
  -29.7587  -11.7587   17.4631 H   0  0  0  0  0  0
  -29.6633  -13.4758   17.7598 H   0  0  0  0  0  0
  -27.8494  -11.2980   18.8472 H   0  0  0  0  0  0
  -27.3765  -12.6041   17.7933 H   0  0  0  0  0  0
  -27.6900  -14.2503   19.5482 H   0  0  0  0  0  0
  -28.6939  -12.0094   21.3754 H   0  0  0  0  0  0
  -28.4608  -13.6637   21.8586 H   0  0  0  0  0  0
  -25.2760   -9.5685   22.4755 H   0  0  0  0  0  0
  -24.0002   -7.4637   22.7472 H   0  0  0  0  0  0
  -21.0840   -8.8774   19.8954 H   0  0  0  0  0  0
  -22.3696  -10.9673   19.6164 H   0  0  0  0  0  0
  -21.2005   -7.6149   23.9717 H   0  0  0  0  0  0
  -21.1480   -6.0523   25.9077 H   0  0  0  0  0  0
  -22.0598   -2.7611   23.2847 H   0  0  0  0  0  0
  -22.4113  -11.9886   22.4785 H   0  0  0  0  0  0
  -21.1121  -13.1263   22.2609 H   0  0  0  0  0  0
  -24.6640  -15.8434   20.5187 H   0  0  0  0  0  0
  -26.2817  -15.6270   20.0812 H   0  0  0  0  0  0
  -26.7157  -32.5488   23.1142 H   0  0  0  0  0  0
  -25.0089  -33.9756   25.0468 H   0  0  0  0  0  0
  -22.7027  -31.3087   21.4110 H   0  0  0  0  0  0
  -23.3738  -35.9655   23.3305 H   0  0  0  0  0  0
  -24.3581  -36.8924   22.2051 H   0  0  0  0  0  0
  -23.7254  -37.6523   23.6652 H   0  0  0  0  0  0
  -26.0704  -31.5737   20.6015 H   0  0  0  0  0  0
  -26.8328  -30.8610   21.9934 H   0  0  0  0  0  0
  -28.1002  -29.0266   21.1935 H   0  0  0  0  0  0
  -25.9945  -25.9816   18.9532 H   0  0  0  0  0  0
  -23.9737  -27.3260   18.9946 H   0  0  0  0  0  0
  -23.7382  -30.6078   19.4073 H   0  0  0  0  0  0
  -22.7435  -29.2556   19.8597 H   0  0  0  0  0  0
  -25.1283  -36.1955   25.0825 H   0  0  0  0  0  0
  -20.9968  -28.3250   24.1416 H   0  0  0  0  0  0
  -20.5675  -26.2286   23.3609 H   0  0  0  0  0  0
  -21.6641  -26.7445   22.1203 H   0  0  0  0  0  0
  -19.6911  -25.6300   21.1234 H   0  0  0  0  0  0
  -19.6685  -27.3205   20.6752 H   0  0  0  0  0  0
  -17.4196  -26.6671   21.4025 H   0  0  0  0  0  0
  -18.0322  -26.0066   22.9016 H   0  0  0  0  0  0
  -19.7933  -30.7257   24.2281 H   0  0  0  0  0  0
  -17.5015  -31.6265   24.5168 H   0  0  0  0  0  0
  -15.5351  -30.2995   23.7644 H   0  0  0  0  0  0
  -15.8663  -28.0830   22.7056 H   0  0  0  0  0  0
  -24.5923  -30.7058   25.7824 H   0  0  0  0  0  0
  -24.8950  -32.2878   26.4917 H   0  0  0  0  0  0
  -25.8105  -30.8896   27.0238 H   0  0  0  0  0  0
  -26.2885  -29.6782   24.1174 H   0  0  0  0  0  0
  -27.4053  -29.7258   25.4624 H   0  0  0  0  0  0
  -27.8744  -30.4323   23.9335 H   0  0  0  0  0  0
  -27.2656  -33.3602   26.2106 H   0  0  0  0  0  0
  -28.3859  -32.6902   25.0339 H   0  0  0  0  0  0
  -28.0726  -31.8432   26.5410 H   0  0  0  0  0  0
  -28.2595  -38.0105   24.7496 H   0  0  0  0  0  0
  -28.1067  -36.2633   24.6297 H   0  0  0  0  0  0
  -27.2294  -37.1473   25.8868 H   0  0  0  0  0  0
  -20.9327  -29.8783   21.6941 H   0  0  0  0  0  0
  -26.0170  -38.2861   24.1406 H   0  0  0  0  0  0
  -30.6541  -17.0949   19.5428 H   0  0  0  0  0  0
  -28.9678  -17.2228   19.9266 H   0  0  0  0  0  0
  -31.3103  -18.3080   21.4926 H   0  0  0  0  0  0
  -29.9771  -17.6939   22.4136 H   0  0  0  0  0  0
  -27.2444  -24.7911   20.2910 H   0  0  0  0  0  0
  -28.1973  -24.9789   18.8314 H   0  0  0  0  0  0
  -29.1932  -24.2677   21.6418 H   0  0  0  0  0  0
  -30.2711  -24.5014   20.2815 H   0  0  0  0  0  0
  -30.9434  -20.1789   20.0829 H   0  0  0  0  0  0
  -29.3018  -20.2769   19.5094 H   0  0  0  0  0  0
  -30.8295  -22.1951   21.1586 H   0  0  0  0  0  0
  -29.3415  -21.7928   21.9649 H   0  0  0  0  0  0
  -28.9732  -15.3399   21.2544 H   0  0  0  0  0  0
  1 25  1  0  0  0
  1 30  2  0  0  0
  1 77  1  0  0  0
  2  3  1  0  0  0
  2 25  1  0  0  0
  2 80  1  0  0  0
  2 81  1  0  0  0
  3  4  1  0  0  0
  3 82  1  0  0  0
  3 83  1  0  0  0
  4  5  1  0  0  0
  4 84  1  0  0  0
  4 85  1  0  0  0
  5  6  1  0  0  0
  5 26  1  0  0  0
  5 86  1  0  0  0
  6 25  1  0  0  0
  6 87  1  0  0  0
  6 88  1  0  0  0
  7  8  2  0  0  0
  7 26  1  0  0  0
  7 29  1  0  0  0
  8  9  1  0  0  0
  8 22  1  0  0  0
  9 10  1  0  0  0
  9 27  2  0  0  0
 10 11  2  0  0  0
 10 15  1  0  0  0
 11 12  1  0  0  0
 11 89  1  0  0  0
 12 13  2  0  0  0
 12 90  1  0  0  0
 13 14  1  0  0  0
 13 31  1  0  0  0
 14 15  2  0  0  0
 14 91  1  0  0  0
 15 92  1  0  0  0
 16 17  2  0  0  0
 16 21  1  0  0  0
 16 31  1  0  0  0
 17 18  1  0  0  0
 17 93  1  0  0  0
 18 19  2  0  0  0
 18 94  1  0  0  0
 19 20  1  0  0  0
 19 24  1  0  0  0
 20 21  2  0  0  0
 20 95  1  0  0  0
 21 23  1  0  0  0
 22 28  1  0  0  0
 22 32  2  0  0  0
 26 27  1  0  0  0
 28 96  1  0  0  0
 28 97  1  0  0  0
 29 98  1  0  0  0
 29 99  1  0  0  0
 33 34  1  0  0  0
 33 66  1  0  0  0
 33 70  2  0  0  0
 34 36  1  0  0  0
 34 59  1  0  0  0
 34100  1  0  0  0
 35 44  2  0  0  0
 35 45  1  0  0  0
 35 68  1  0  0  0
 36 56  1  0  0  0
 36101  1  0  0  0
 37 39  1  0  0  0
 37 47  1  0  0  0
 37 66  1  0  0  0
 37102  1  0  0  0
 38 43  2  0  0  0
 38 46  1  0  0  0
 38 47  1  0  0  0
 39 64  1  0  0  0
 39 67  2  0  0  0
 40 52  1  0  0  0
 40 53  2  0  0  0
 40 58  1  0  0  0
 41103  1  0  0  0
 41104  1  0  0  0
 41105  1  0  0  0
 41 48  1  0  0  0
 42 43  1  0  0  0
 42 66  1  0  0  0
 42106  1  0  0  0
 42107  1  0  0  0
 43 44  1  0  0  0
 44108  1  0  0  0
 45 46  2  0  0  0
 45109  1  0  0  0
 46110  1  0  0  0
 47111  1  0  0  0
 47112  1  0  0  0
 48 56  1  0  0  0
 48 65  1  0  0  0
 48113  1  0  0  0
 49 50  1  0  0  0
 49 53  1  0  0  0
 49 64  1  0  0  0
 49114  1  0  0  0
 50 51  1  0  0  0
 50115  1  0  0  0
 50116  1  0  0  0
 51 52  1  0  0  0
 51117  1  0  0  0
 51118  1  0  0  0
 52119  1  0  0  0
 52120  1  0  0  0
 53 54  1  0  0  0
 54 55  2  0  0  0
 54121  1  0  0  0
 55 57  1  0  0  0
 55122  1  0  0  0
 56 69  2  0  0  0
 57 58  2  0  0  0
 57123  1  0  0  0
 58124  1  0  0  0
 59 60  1  0  0  0
 59 61  1  0  0  0
 59 62  1  0  0  0
 60125  1  0  0  0
 60126  1  0  0  0
 60127  1  0  0  0
 61128  1  0  0  0
 61129  1  0  0  0
 61130  1  0  0  0
 62131  1  0  0  0
 62132  1  0  0  0
 62133  1  0  0  0
 63 65  1  0  0  0
 63134  1  0  0  0
 63135  1  0  0  0
 63136  1  0  0  0
 64137  1  0  0  0
 65138  1  0  0  0
 68 73  1  0  0  0
 71 72  1  0  0  0
 71 77  1  0  0  0
 71139  1  0  0  0
 71140  1  0  0  0
 72 78  1  0  0  0
 72141  1  0  0  0
 72142  1  0  0  0
 73 74  1  0  0  0
 73143  1  0  0  0
 73144  1  0  0  0
 74 79  1  0  0  0
 74145  1  0  0  0
 74146  1  0  0  0
 75 76  1  0  0  0
 75 78  1  0  0  0
 75147  1  0  0  0
 75148  1  0  0  0
 76 79  1  0  0  0
 76149  1  0  0  0
 76150  1  0  0  0
 77151  1  0  0  0
M  ISO  4   1 100  68 101  73 101  77 100
M  END
> <chiral flag>
0

> <version>
0

> <s_m_source_file>
/data/baiqing/PycharmProjects/Reinvent-master-3.2/result/LINK_invent/BTK/process_docking_weight1_custom_sum_contain_oxygen_bond_distance_aromatic_linkinvent_7_9_3/rearranged_h_0000.sdf

> <i_m_source_file_index>
70

> <r_mmod_Potential_Energy-OPLS-2005>
-33.6661491394043

> <r_mmod_Stretch_Energy-OPLS-2005>
54.1415176391602

> <r_mmod_Bend_Energy-OPLS-2005>
117.664672851562

> <r_mmod_Torsional_Energy-OPLS-2005>
224.785095214844

> <r_mmod_Improper_Torsional_Energy-OPLS-2005>
6.75608205795288

> <r_mmod_Van_der_Waal_Energy-OPLS-2005>
133.051956176758

> <r_mmod_Electrostatic_Energy-OPLS-2005>
-384.544891357422

> <r_mmod_Solvation_Energy-OPLS-2005>
-214.149185180664

> <b_mmod_Minimization_Converged-OPLS-2005>
0

> <r_mmod_RMS_Derivative-OPLS-2005>
0.78693014383316

$$$$
73
                    3D
 Structure written by MMmdl.
174181  0  0  1  0            999 V2000
  -30.7111  -14.3902   20.6466 C   0  0  0  0  0  0
  -30.4386  -12.2860   19.3942 C   0  0  0  0  0  0
  -29.4963  -12.5221   18.1959 C   0  0  0  0  0  0
  -28.0163  -12.3830   18.6093 C   0  0  0  0  0  0
  -27.6748  -13.1937   19.8876 C   0  0  2  0  0  0
  -28.7128  -12.8955   20.9923 C   0  0  0  0  0  0
  -25.2639  -13.8141   20.5665 C   0  0  0  0  0  0
  -24.1863  -13.0445   20.9171 C   0  0  0  0  0  0
  -24.6409  -11.6897   20.8733 C   0  0  0  0  0  0
  -23.9060  -10.4299   21.0402 C   0  0  0  0  0  0
  -24.3599   -9.4214   21.9176 C   0  0  0  0  0  0
  -23.6283   -8.2254   22.0753 C   0  0  0  0  0  0
  -22.4271   -8.0284   21.3540 C   0  0  0  0  0  0
  -21.9901   -9.0264   20.4648 C   0  0  0  0  0  0
  -22.7238  -10.2144   20.3054 C   0  0  0  0  0  0
  -21.6865   -6.0737   22.5280 C   0  0  0  0  0  0
  -21.4032   -6.5625   23.8220 C   0  0  0  0  0  0
  -21.3661   -5.6770   24.9174 C   0  0  0  0  0  0
  -21.6044   -4.3034   24.7223 C   0  0  0  0  0  0
  -21.8816   -3.8137   23.4337 C   0  0  0  0  0  0
  -21.9189   -4.6964   22.3398 C   0  0  0  0  0  0
  -22.7873  -13.5265   21.1799 C   0  0  0  0  0  0
  -22.1648   -4.2145   21.0982 F   0  0  0  0  0  0
  -21.5622   -3.4513   25.7732 F   0  0  0  0  0  0
  -30.0530  -13.2160   20.4649 N   0  0  0  0  0  0
  -26.3086  -12.9290   20.3398 N   0  0  0  0  0  0
  -25.9332  -11.6463   20.5767 N   0  0  0  0  0  0
  -22.0472  -12.8309   22.0373 N   0  0  0  0  0  0
  -25.4391  -15.1864   20.4059 N   0  0  0  0  0  0
  -31.7655  -14.6840   20.0743 O   0  0  0  0  0  0
  -21.6634   -6.8883   21.4242 O   0  0  0  0  0  0
  -22.3563  -14.5543   20.6607 O   0  0  0  0  0  0
  -24.6052  -31.8721   23.2137 C   0  0  0  0  0  0
  -25.8976  -32.4843   23.8415 C   0  0  1  0  0  0
  -27.2683  -27.5068   20.1007 C   0  0  0  0  0  0
  -25.5861  -33.8641   24.2356 N   0  0  0  0  0  0
  -23.3905  -30.4921   21.5516 C   0  0  2  0  0  0
  -24.8442  -28.9643   20.1174 C   0  0  0  0  0  0
  -22.7373  -29.4670   22.5035 C   0  0  0  0  0  0
  -18.0263  -28.1371   22.8502 C   0  0  0  0  0  0
  -24.1484  -36.7351   23.2636 C   0  0  0  0  0  0
  -25.9058  -30.8670   21.3476 C   0  0  0  0  0  0
  -25.9918  -29.5012   20.7100 C   0  0  0  0  0  0
  -27.2005  -28.7846   20.7019 C   0  0  0  0  0  0
  -26.1082  -26.9842   19.4924 C   0  0  0  0  0  0
  -24.8937  -27.6993   19.5030 C   0  0  0  0  0  0
  -23.5956  -29.8147   20.1679 C   0  0  0  0  0  0
  -25.4094  -36.3133   24.0337 C   0  0  1  0  0  0
  -20.5851  -28.3639   23.1353 C   0  0  2  0  0  0
  -20.6759  -26.9385   22.5424 C   0  0  0  0  0  0
  -19.5743  -26.6394   21.5214 C   0  0  0  0  0  0
  -18.1923  -26.7926   22.1622 C   0  0  0  0  0  0
  -19.1516  -28.8825   23.2929 C   0  0  0  0  0  0
  -18.9435  -30.1433   23.8931 C   0  0  0  0  0  0
  -17.6441  -30.6581   24.0570 C   0  0  0  0  0  0
  -25.9009  -34.9492   23.5147 C   0  0  0  0  0  0
  -16.5334  -29.9081   23.6322 C   0  0  0  0  0  0
  -16.7255  -28.6498   23.0346 C   0  0  0  0  0  0
  -26.4450  -31.6597   25.0706 C   0  0  0  0  0  0
  -25.3735  -31.3668   26.1464 C   0  0  0  0  0  0
  -27.0256  -30.3054   24.5985 C   0  0  0  0  0  0
  -27.6055  -32.4285   25.7450 C   0  0  0  0  0  0
  -27.5575  -37.1823   24.8457 C   0  0  0  0  0  0
  -21.4112  -29.3027   22.3784 N   0  0  0  0  0  0
  -26.4300  -37.3801   23.9397 N   0  0  0  0  0  0
  -24.6525  -31.0888   22.0990 N   0  0  0  0  0  0
  -23.4195  -28.8219   23.3048 O   0  0  0  0  0  0
  -28.4079  -26.7338   20.0534 O   0  0  0  0  0  0
  -26.5579  -34.8934   22.4710 O   0  0  0  0  0  0
  -23.5266  -32.1441   23.7584 O   0  0  0  0  0  0
  -30.3680  -25.9179   21.2317 C   0  0  0  0  0  0
  -26.6635  -23.1349   22.3529 C   0  0  0  0  0  0
  -24.3042  -22.2990   18.9846 C   0  0  0  0  0  0
  -30.2100  -16.7169   21.3795 C   0  0  0  0  0  0
  -29.5489  -27.1441   20.8100 C   0  0  0  0  0  0
  -29.7353  -25.1646   22.4127 C   0  0  0  0  0  0
  -27.8280  -23.8858   23.0042 C   0  0  0  0  0  0
  -25.4730  -24.0275   21.9763 C   0  0  0  0  0  0
  -24.5090  -23.5606   19.8353 C   0  0  0  0  0  0
  -25.6155  -21.5631   18.6547 C   0  0  0  0  0  0
  -28.8243  -17.3833   21.4721 C   0  0  0  0  0  0
  -27.3207  -20.2189   19.6267 C   0  0  0  0  0  0
  -27.4992  -19.1997   20.7593 C   0  0  0  0  0  0
  -30.0639  -15.2630   21.4249 N   0  0  0  0  0  0
  -28.5355  -24.5525   21.9724 O   0  0  0  0  0  0
  -24.5595  -23.2379   21.2212 O   0  0  0  0  0  0
  -26.0495  -20.8332   19.7917 O   0  0  0  0  0  0
  -28.7681  -18.5590   20.6732 O   0  0  0  0  0  0
  -31.4768  -12.4196   19.0825 H   0  0  0  0  0  0
  -30.3655  -11.2557   19.7483 H   0  0  0  0  0  0
  -29.7258  -11.8178   17.3954 H   0  0  0  0  0  0
  -29.6723  -13.5188   17.7880 H   0  0  0  0  0  0
  -27.8214  -11.3242   18.7808 H   0  0  0  0  0  0
  -27.3674  -12.6830   17.7846 H   0  0  0  0  0  0
  -27.7472  -14.2532   19.6371 H   0  0  0  0  0  0
  -28.6818  -11.8355   21.2530 H   0  0  0  0  0  0
  -28.4670  -13.4174   21.9158 H   0  0  0  0  0  0
  -25.2755   -9.5678   22.4742 H   0  0  0  0  0  0
  -23.9983   -7.4648   22.7477 H   0  0  0  0  0  0
  -21.0833   -8.8810   19.8960 H   0  0  0  0  0  0
  -22.3721  -10.9677   19.6148 H   0  0  0  0  0  0
  -21.2046   -7.6139   23.9727 H   0  0  0  0  0  0
  -21.1473   -6.0497   25.9080 H   0  0  0  0  0  0
  -22.0598   -2.7604   23.2832 H   0  0  0  0  0  0
  -22.4038  -11.9997   22.4844 H   0  0  0  0  0  0
  -21.1078  -13.1367   22.2508 H   0  0  0  0  0  0
  -24.6742  -15.8429   20.5131 H   0  0  0  0  0  0
  -26.2819  -15.6140   20.0449 H   0  0  0  0  0  0
  -26.7063  -32.5610   23.1213 H   0  0  0  0  0  0
  -24.9993  -33.9822   25.0481 H   0  0  0  0  0  0
  -22.6744  -31.3047   21.4122 H   0  0  0  0  0  0
  -23.3726  -35.9710   23.3327 H   0  0  0  0  0  0
  -24.3586  -36.8938   22.2051 H   0  0  0  0  0  0
  -23.7273  -37.6577   23.6631 H   0  0  0  0  0  0
  -25.9863  -31.6277   20.5699 H   0  0  0  0  0  0
  -26.8038  -30.9450   21.9473 H   0  0  0  0  0  0
  -28.0658  -29.2522   21.1454 H   0  0  0  0  0  0
  -26.1590  -26.0267   18.9988 H   0  0  0  0  0  0
  -24.0171  -27.2800   19.0295 H   0  0  0  0  0  0
  -23.6865  -30.5844   19.4004 H   0  0  0  0  0  0
  -22.7271  -29.2174   19.8818 H   0  0  0  0  0  0
  -25.1281  -36.2011   25.0833 H   0  0  0  0  0  0
  -20.9937  -28.3187   24.1475 H   0  0  0  0  0  0
  -20.5671  -26.2238   23.3595 H   0  0  0  0  0  0
  -21.6630  -26.7448   22.1210 H   0  0  0  0  0  0
  -19.6899  -25.6315   21.1222 H   0  0  0  0  0  0
  -19.6686  -27.3226   20.6764 H   0  0  0  0  0  0
  -17.4193  -26.6694   21.4020 H   0  0  0  0  0  0
  -18.0311  -26.0062   22.9010 H   0  0  0  0  0  0
  -19.7911  -30.7249   24.2327 H   0  0  0  0  0  0
  -17.4987  -31.6262   24.5166 H   0  0  0  0  0  0
  -15.5335  -30.2986   23.7627 H   0  0  0  0  0  0
  -15.8658  -28.0821   22.7039 H   0  0  0  0  0  0
  -24.5904  -30.7021   25.7791 H   0  0  0  0  0  0
  -24.8927  -32.2813   26.4951 H   0  0  0  0  0  0
  -25.8109  -30.8805   27.0194 H   0  0  0  0  0  0
  -26.2756  -29.6823   24.1089 H   0  0  0  0  0  0
  -27.4132  -29.7265   25.4383 H   0  0  0  0  0  0
  -27.8547  -30.4427   23.9033 H   0  0  0  0  0  0
  -27.2704  -33.3567   26.2097 H   0  0  0  0  0  0
  -28.3820  -32.6867   25.0232 H   0  0  0  0  0  0
  -28.0768  -31.8350   26.5298 H   0  0  0  0  0  0
  -28.2609  -38.0102   24.7476 H   0  0  0  0  0  0
  -28.1059  -36.2635   24.6320 H   0  0  0  0  0  0
  -27.2299  -37.1514   25.8863 H   0  0  0  0  0  0
  -20.9251  -29.8741   21.7008 H   0  0  0  0  0  0
  -26.0200  -38.2890   24.1368 H   0  0  0  0  0  0
  -31.3585  -26.2553   21.5379 H   0  0  0  0  0  0
  -30.5231  -25.2494   20.3846 H   0  0  0  0  0  0
  -26.3107  -22.3582   23.0307 H   0  0  0  0  0  0
  -27.0360  -22.6201   21.4678 H   0  0  0  0  0  0
  -23.8563  -22.6053   18.0399 H   0  0  0  0  0  0
  -23.5848  -21.6238   19.4497 H   0  0  0  0  0  0
  -30.8572  -17.0591   22.1889 H   0  0  0  0  0  0
  -30.6879  -17.0176   20.4456 H   0  0  0  0  0  0
  -30.1515  -27.8150   20.1973 H   0  0  0  0  0  0
  -29.2935  -27.6781   21.7246 H   0  0  0  0  0  0
  -29.5338  -25.8486   23.2396 H   0  0  0  0  0  0
  -30.4261  -24.4045   22.7811 H   0  0  0  0  0  0
  -28.4882  -23.1762   23.5049 H   0  0  0  0  0  0
  -27.4695  -24.5921   23.7562 H   0  0  0  0  0  0
  -25.8000  -24.9284   21.4538 H   0  0  0  0  0  0
  -24.9752  -24.3703   22.8849 H   0  0  0  0  0  0
  -23.6857  -24.2605   19.6821 H   0  0  0  0  0  0
  -25.4180  -24.0537   19.4951 H   0  0  0  0  0  0
  -26.3780  -22.2717   18.3264 H   0  0  0  0  0  0
  -25.4478  -20.8736   17.8265 H   0  0  0  0  0  0
  -28.5889  -17.6123   22.5121 H   0  0  0  0  0  0
  -28.0549  -16.6925   21.1198 H   0  0  0  0  0  0
  -27.3829  -19.7084   18.6646 H   0  0  0  0  0  0
  -28.1103  -20.9724   19.6521 H   0  0  0  0  0  0
  -26.6918  -18.4683   20.6892 H   0  0  0  0  0  0
  -27.4078  -19.6883   21.7304 H   0  0  0  0  0  0
  -29.2497  -14.8999   21.8963 H   0  0  0  0  0  0
  1 25  1  0  0  0
  1 30  2  0  0  0
  1 84  1  0  0  0
  2  3  1  0  0  0
  2 25  1  0  0  0
  2 89  1  0  0  0
  2 90  1  0  0  0
  3  4  1  0  0  0
  3 91  1  0  0  0
  3 92  1  0  0  0
  4  5  1  0  0  0
  4 93  1  0  0  0
  4 94  1  0  0  0
  5  6  1  0  0  0
  5 26  1  0  0  0
  5 95  1  0  0  0
  6 25  1  0  0  0
  6 96  1  0  0  0
  6 97  1  0  0  0
  7  8  2  0  0  0
  7 26  1  0  0  0
  7 29  1  0  0  0
  8  9  1  0  0  0
  8 22  1  0  0  0
  9 10  1  0  0  0
  9 27  2  0  0  0
 10 11  2  0  0  0
 10 15  1  0  0  0
 11 12  1  0  0  0
 11 98  1  0  0  0
 12 13  2  0  0  0
 12 99  1  0  0  0
 13 14  1  0  0  0
 13 31  1  0  0  0
 14 15  2  0  0  0
 14100  1  0  0  0
 15101  1  0  0  0
 16 17  2  0  0  0
 16 21  1  0  0  0
 16 31  1  0  0  0
 17 18  1  0  0  0
 17102  1  0  0  0
 18 19  2  0  0  0
 18103  1  0  0  0
 19 20  1  0  0  0
 19 24  1  0  0  0
 20 21  2  0  0  0
 20104  1  0  0  0
 21 23  1  0  0  0
 22 28  1  0  0  0
 22 32  2  0  0  0
 26 27  1  0  0  0
 28105  1  0  0  0
 28106  1  0  0  0
 29107  1  0  0  0
 29108  1  0  0  0
 33 34  1  0  0  0
 33 66  1  0  0  0
 33 70  2  0  0  0
 34 36  1  0  0  0
 34 59  1  0  0  0
 34109  1  0  0  0
 35 44  2  0  0  0
 35 45  1  0  0  0
 35 68  1  0  0  0
 36 56  1  0  0  0
 36110  1  0  0  0
 37 39  1  0  0  0
 37 47  1  0  0  0
 37 66  1  0  0  0
 37111  1  0  0  0
 38 43  2  0  0  0
 38 46  1  0  0  0
 38 47  1  0  0  0
 39 64  1  0  0  0
 39 67  2  0  0  0
 40 52  1  0  0  0
 40 53  2  0  0  0
 40 58  1  0  0  0
 41112  1  0  0  0
 41113  1  0  0  0
 41114  1  0  0  0
 41 48  1  0  0  0
 42 43  1  0  0  0
 42 66  1  0  0  0
 42115  1  0  0  0
 42116  1  0  0  0
 43 44  1  0  0  0
 44117  1  0  0  0
 45 46  2  0  0  0
 45118  1  0  0  0
 46119  1  0  0  0
 47120  1  0  0  0
 47121  1  0  0  0
 48 56  1  0  0  0
 48 65  1  0  0  0
 48122  1  0  0  0
 49 50  1  0  0  0
 49 53  1  0  0  0
 49 64  1  0  0  0
 49123  1  0  0  0
 50 51  1  0  0  0
 50124  1  0  0  0
 50125  1  0  0  0
 51 52  1  0  0  0
 51126  1  0  0  0
 51127  1  0  0  0
 52128  1  0  0  0
 52129  1  0  0  0
 53 54  1  0  0  0
 54 55  2  0  0  0
 54130  1  0  0  0
 55 57  1  0  0  0
 55131  1  0  0  0
 56 69  2  0  0  0
 57 58  2  0  0  0
 57132  1  0  0  0
 58133  1  0  0  0
 59 60  1  0  0  0
 59 61  1  0  0  0
 59 62  1  0  0  0
 60134  1  0  0  0
 60135  1  0  0  0
 60136  1  0  0  0
 61137  1  0  0  0
 61138  1  0  0  0
 61139  1  0  0  0
 62140  1  0  0  0
 62141  1  0  0  0
 62142  1  0  0  0
 63 65  1  0  0  0
 63143  1  0  0  0
 63144  1  0  0  0
 63145  1  0  0  0
 64146  1  0  0  0
 65147  1  0  0  0
 68 75  1  0  0  0
 71 75  1  0  0  0
 71 76  1  0  0  0
 71148  1  0  0  0
 71149  1  0  0  0
 72 77  1  0  0  0
 72 78  1  0  0  0
 72150  1  0  0  0
 72151  1  0  0  0
 73 79  1  0  0  0
 73 80  1  0  0  0
 73152  1  0  0  0
 73153  1  0  0  0
 74 81  1  0  0  0
 74 84  1  0  0  0
 74154  1  0  0  0
 74155  1  0  0  0
 75156  1  0  0  0
 75157  1  0  0  0
 76 85  1  0  0  0
 76158  1  0  0  0
 76159  1  0  0  0
 77 85  1  0  0  0
 77160  1  0  0  0
 77161  1  0  0  0
 78 86  1  0  0  0
 78162  1  0  0  0
 78163  1  0  0  0
 79 86  1  0  0  0
 79164  1  0  0  0
 79165  1  0  0  0
 80 87  1  0  0  0
 80166  1  0  0  0
 80167  1  0  0  0
 81 88  1  0  0  0
 81168  1  0  0  0
 81169  1  0  0  0
 82 83  1  0  0  0
 82 87  1  0  0  0
 82170  1  0  0  0
 82171  1  0  0  0
 83 88  1  0  0  0
 83172  1  0  0  0
 83173  1  0  0  0
 84174  1  0  0  0
M  ISO  4   1 100  68 101  75 101  84 100
M  END
> <chiral flag>
0

> <version>
0

> <s_m_source_file>
/data/baiqing/PycharmProjects/Reinvent-master-3.2/result/LINK_invent/BTK/process_docking_weight1_custom_sum_contain_oxygen_bond_distance_aromatic_linkinvent_7_9_3/rearranged_h_0000.sdf

> <i_m_source_file_index>
71

> <r_mmod_Potential_Energy-OPLS-2005>
-121.021865844727

> <r_mmod_Stretch_Energy-OPLS-2005>
31.4419689178467

> <r_mmod_Bend_Energy-OPLS-2005>
99.3418426513672

> <r_mmod_Torsional_Energy-OPLS-2005>
229.010650634766

> <r_mmod_Improper_Torsional_Energy-OPLS-2005>
3.58972787857056

> <r_mmod_Van_der_Waal_Energy-OPLS-2005>
125.458862304688

> <r_mmod_Electrostatic_Energy-OPLS-2005>
-382.093963623047

> <r_mmod_Solvation_Energy-OPLS-2005>
-234.142700195312

> <b_mmod_Minimization_Converged-OPLS-2005>
0

> <r_mmod_RMS_Derivative-OPLS-2005>
2.84246921539307

$$$$
74
                    3D
 Structure written by MMmdl.
174181  0  0  1  0            999 V2000
  -30.7210  -14.3954   20.6083 C   0  0  0  0  0  0
  -30.4146  -12.2569   19.3906 C   0  0  0  0  0  0
  -29.4819  -12.5282   18.1929 C   0  0  0  0  0  0
  -28.0031  -12.4001   18.6052 C   0  0  0  0  0  0
  -27.6645  -13.2015   19.8899 C   0  0  2  0  0  0
  -28.6994  -12.9133   20.9989 C   0  0  0  0  0  0
  -25.2650  -13.8096   20.5870 C   0  0  0  0  0  0
  -24.1874  -13.0396   20.9210 C   0  0  0  0  0  0
  -24.6379  -11.6845   20.8688 C   0  0  0  0  0  0
  -23.9042  -10.4248   21.0376 C   0  0  0  0  0  0
  -24.3597   -9.4186   21.9164 C   0  0  0  0  0  0
  -23.6269   -8.2229   22.0761 C   0  0  0  0  0  0
  -22.4256   -8.0254   21.3537 C   0  0  0  0  0  0
  -21.9879   -9.0221   20.4637 C   0  0  0  0  0  0
  -22.7213  -10.2103   20.3024 C   0  0  0  0  0  0
  -21.6875   -6.0698   22.5255 C   0  0  0  0  0  0
  -21.4043   -6.5625   23.8180 C   0  0  0  0  0  0
  -21.3653   -5.6803   24.9151 C   0  0  0  0  0  0
  -21.6036   -4.3057   24.7228 C   0  0  0  0  0  0
  -21.8827   -3.8121   23.4356 C   0  0  0  0  0  0
  -21.9205   -4.6916   22.3398 C   0  0  0  0  0  0
  -22.7893  -13.5217   21.1872 C   0  0  0  0  0  0
  -22.1688   -4.2093   21.0985 F   0  0  0  0  0  0
  -21.5602   -3.4556   25.7756 F   0  0  0  0  0  0
  -30.0383  -13.1854   20.4562 N   0  0  0  0  0  0
  -26.3036  -12.9261   20.3416 N   0  0  0  0  0  0
  -25.9288  -11.6400   20.5651 N   0  0  0  0  0  0
  -22.0551  -12.8169   22.0386 N   0  0  0  0  0  0
  -25.4482  -15.1817   20.4574 N   0  0  0  0  0  0
  -31.8105  -14.6748   20.1005 O   0  0  0  0  0  0
  -21.6631   -6.8835   21.4226 O   0  0  0  0  0  0
  -22.3573  -14.5541   20.6755 O   0  0  0  0  0  0
  -24.6092  -31.8679   23.2110 C   0  0  0  0  0  0
  -25.8998  -32.4815   23.8408 C   0  0  1  0  0  0
  -27.2523  -27.4767   20.0790 C   0  0  0  0  0  0
  -25.5886  -33.8621   24.2369 N   0  0  0  0  0  0
  -23.3944  -30.4902   21.5506 C   0  0  2  0  0  0
  -24.8457  -28.9604   20.1189 C   0  0  0  0  0  0
  -22.7401  -29.4647   22.5027 C   0  0  0  0  0  0
  -18.0267  -28.1337   22.8513 C   0  0  0  0  0  0
  -24.1491  -36.7325   23.2649 C   0  0  0  0  0  0
  -25.9165  -30.8542   21.3499 C   0  0  0  0  0  0
  -26.0006  -29.4862   20.7080 C   0  0  0  0  0  0
  -27.2028  -28.7477   20.6902 C   0  0  0  0  0  0
  -26.0775  -26.9610   19.4835 C   0  0  0  0  0  0
  -24.8760  -27.6923   19.5115 C   0  0  0  0  0  0
  -23.5995  -29.8126   20.1690 C   0  0  0  0  0  0
  -25.4077  -36.3092   24.0371 C   0  0  1  0  0  0
  -20.5858  -28.3603   23.1368 C   0  0  2  0  0  0
  -20.6732  -26.9344   22.5435 C   0  0  0  0  0  0
  -19.5716  -26.6375   21.5212 C   0  0  0  0  0  0
  -18.1899  -26.7894   22.1627 C   0  0  0  0  0  0
  -19.1525  -28.8779   23.2931 C   0  0  0  0  0  0
  -18.9465  -30.1395   23.8914 C   0  0  0  0  0  0
  -17.6473  -30.6546   24.0570 C   0  0  0  0  0  0
  -25.9014  -34.9472   23.5161 C   0  0  0  0  0  0
  -16.5356  -29.9047   23.6330 C   0  0  0  0  0  0
  -16.7270  -28.6464   23.0355 C   0  0  0  0  0  0
  -26.4489  -31.6546   25.0682 C   0  0  0  0  0  0
  -25.3834  -31.3629   26.1498 C   0  0  0  0  0  0
  -27.0338  -30.3008   24.5971 C   0  0  0  0  0  0
  -27.6048  -32.4284   25.7443 C   0  0  0  0  0  0
  -27.5572  -37.1789   24.8464 C   0  0  0  0  0  0
  -21.4136  -29.3002   22.3804 N   0  0  0  0  0  0
  -26.4270  -37.3773   23.9443 N   0  0  0  0  0  0
  -24.6587  -31.0840   22.0966 N   0  0  0  0  0  0
  -23.4214  -28.8194   23.3036 O   0  0  0  0  0  0
  -28.4560  -26.8071   20.0853 O   0  0  0  0  0  0
  -26.5583  -34.8926   22.4723 O   0  0  0  0  0  0
  -23.5296  -32.1411   23.7546 O   0  0  0  0  0  0
  -24.3887  -22.9800   20.6995 C   0  0  0  0  0  0
  -25.4563  -23.9768   21.1802 C   0  0  0  0  0  0
  -24.6624  -21.5397   21.1540 C   0  0  0  0  0  0
  -28.4929  -25.4049   19.8179 C   0  0  0  0  0  0
  -30.2465  -16.6746   21.1990 C   0  0  0  0  0  0
  -27.7380  -24.5927   20.8942 C   0  0  0  0  0  0
  -29.9790  -17.2323   19.7855 C   0  0  0  0  0  0
  -23.9043  -19.3117   20.9642 C   0  0  0  0  0  0
  -23.2055  -18.3349   20.0075 C   0  0  0  0  0  0
  -28.3372  -17.5877   18.1384 C   0  0  0  0  0  0
  -26.8405  -17.8261   17.9011 C   0  0  0  0  0  0
  -23.7662  -16.9717   18.1265 C   0  0  0  0  0  0
  -24.8797  -16.7119   17.0929 C   0  0  0  0  0  0
  -29.9547  -15.2850   21.2666 O   0  0  0  0  0  0
  -26.6051  -23.9218   20.3406 O   0  0  0  0  0  0
  -23.7883  -20.6449   20.4781 O   0  0  0  0  0  0
  -28.5853  -17.2120   19.4882 O   0  0  0  0  0  0
  -24.0241  -18.1663   18.8566 O   0  0  0  0  0  0
  -26.1806  -16.5832   17.6702 O   0  0  0  0  0  0
  -31.4637  -12.3586   19.1041 H   0  0  0  0  0  0
  -30.2920  -11.2293   19.7375 H   0  0  0  0  0  0
  -29.6981  -11.8367   17.3789 H   0  0  0  0  0  0
  -29.6659  -13.5308   17.8021 H   0  0  0  0  0  0
  -27.7947  -11.3417   18.7632 H   0  0  0  0  0  0
  -27.3534  -12.7201   17.7907 H   0  0  0  0  0  0
  -27.7259  -14.2614   19.6390 H   0  0  0  0  0  0
  -28.6479  -11.8640   21.2966 H   0  0  0  0  0  0
  -28.4798  -13.4842   21.9016 H   0  0  0  0  0  0
  -25.2753   -9.5669   22.4704 H   0  0  0  0  0  0
  -23.9961   -7.4635   22.7515 H   0  0  0  0  0  0
  -21.0787   -8.8740   19.8954 H   0  0  0  0  0  0
  -22.3673  -10.9627   19.6109 H   0  0  0  0  0  0
  -21.2081   -7.6144   23.9669 H   0  0  0  0  0  0
  -21.1462   -6.0543   25.9056 H   0  0  0  0  0  0
  -22.0611   -2.7568   23.2893 H   0  0  0  0  0  0
  -22.4208  -11.9817   22.4730 H   0  0  0  0  0  0
  -21.1170  -13.1149   22.2639 H   0  0  0  0  0  0
  -24.6850  -15.8354   20.5679 H   0  0  0  0  0  0
  -26.2706  -15.6010   20.0416 H   0  0  0  0  0  0
  -26.7068  -32.5594   23.1188 H   0  0  0  0  0  0
  -25.0071  -33.9768   25.0538 H   0  0  0  0  0  0
  -22.6768  -31.2999   21.4047 H   0  0  0  0  0  0
  -23.3737  -35.9677   23.3281 H   0  0  0  0  0  0
  -24.3593  -36.8951   22.2069 H   0  0  0  0  0  0
  -23.7270  -37.6537   23.6671 H   0  0  0  0  0  0
  -26.0023  -31.6176   20.5751 H   0  0  0  0  0  0
  -26.8153  -30.9254   21.9495 H   0  0  0  0  0  0
  -28.0972  -29.1548   21.1428 H   0  0  0  0  0  0
  -26.0737  -25.9959   18.9986 H   0  0  0  0  0  0
  -23.9845  -27.2767   19.0627 H   0  0  0  0  0  0
  -23.6867  -30.5772   19.3962 H   0  0  0  0  0  0
  -22.7317  -29.2115   19.8888 H   0  0  0  0  0  0
  -25.1230  -36.1957   25.0860 H   0  0  0  0  0  0
  -20.9949  -28.3138   24.1497 H   0  0  0  0  0  0
  -20.5560  -26.2233   23.3626 H   0  0  0  0  0  0
  -21.6610  -26.7328   22.1277 H   0  0  0  0  0  0
  -19.6867  -25.6314   21.1167 H   0  0  0  0  0  0
  -19.6628  -27.3265   20.6808 H   0  0  0  0  0  0
  -17.4181  -26.6724   21.4007 H   0  0  0  0  0  0
  -18.0237  -25.9988   22.8960 H   0  0  0  0  0  0
  -19.7949  -30.7191   24.2296 H   0  0  0  0  0  0
  -17.5034  -31.6233   24.5170 H   0  0  0  0  0  0
  -15.5352  -30.2956   23.7614 H   0  0  0  0  0  0
  -15.8686  -28.0771   22.7055 H   0  0  0  0  0  0
  -24.5998  -30.6933   25.7934 H   0  0  0  0  0  0
  -24.9037  -32.2780   26.4980 H   0  0  0  0  0  0
  -25.8275  -30.8843   27.0233 H   0  0  0  0  0  0
  -26.2850  -29.6699   24.1161 H   0  0  0  0  0  0
  -27.4334  -29.7259   25.4335 H   0  0  0  0  0  0
  -27.8564  -30.4356   23.8939 H   0  0  0  0  0  0
  -27.2626  -33.3572   26.2025 H   0  0  0  0  0  0
  -28.3857  -32.6868   25.0277 H   0  0  0  0  0  0
  -28.0728  -31.8427   26.5367 H   0  0  0  0  0  0
  -28.2560  -38.0115   24.7521 H   0  0  0  0  0  0
  -28.1090  -36.2644   24.6235 H   0  0  0  0  0  0
  -27.2320  -37.1382   25.8877 H   0  0  0  0  0  0
  -20.9271  -29.8786   21.7097 H   0  0  0  0  0  0
  -26.0162  -38.2858   24.1415 H   0  0  0  0  0  0
  -24.3043  -23.0310   19.6136 H   0  0  0  0  0  0
  -23.4197  -23.2857   21.0971 H   0  0  0  0  0  0
  -25.7167  -23.7771   22.2214 H   0  0  0  0  0  0
  -25.0523  -24.9892   21.1417 H   0  0  0  0  0  0
  -24.5207  -21.4716   22.2339 H   0  0  0  0  0  0
  -25.6971  -21.2634   20.9450 H   0  0  0  0  0  0
  -28.1606  -25.1835   18.8034 H   0  0  0  0  0  0
  -29.5472  -25.1251   19.8392 H   0  0  0  0  0  0
  -29.6249  -17.2013   21.9226 H   0  0  0  0  0  0
  -31.2822  -16.8467   21.4985 H   0  0  0  0  0  0
  -27.4571  -25.2622   21.7090 H   0  0  0  0  0  0
  -28.3935  -23.8451   21.3420 H   0  0  0  0  0  0
  -30.5327  -16.6770   19.0275 H   0  0  0  0  0  0
  -30.3402  -18.2598   19.7388 H   0  0  0  0  0  0
  -24.9502  -19.0195   21.0822 H   0  0  0  0  0  0
  -23.4470  -19.2518   21.9537 H   0  0  0  0  0  0
  -22.2062  -18.6773   19.7377 H   0  0  0  0  0  0
  -23.0930  -17.3838   20.5289 H   0  0  0  0  0  0
  -28.8739  -18.5129   17.9204 H   0  0  0  0  0  0
  -28.7155  -16.8312   17.4491 H   0  0  0  0  0  0
  -26.7330  -18.4682   17.0247 H   0  0  0  0  0  0
  -26.4120  -18.3643   18.7458 H   0  0  0  0  0  0
  -23.6825  -16.1093   18.7862 H   0  0  0  0  0  0
  -22.8031  -17.0575   17.6220 H   0  0  0  0  0  0
  -24.8633  -17.4560   16.2967 H   0  0  0  0  0  0
  -24.6601  -15.7580   16.6123 H   0  0  0  0  0  0
  1 25  1  0  0  0
  1 30  2  0  0  0
  1 84  1  0  0  0
  2  3  1  0  0  0
  2 25  1  0  0  0
  2 90  1  0  0  0
  2 91  1  0  0  0
  3  4  1  0  0  0
  3 92  1  0  0  0
  3 93  1  0  0  0
  4  5  1  0  0  0
  4 94  1  0  0  0
  4 95  1  0  0  0
  5  6  1  0  0  0
  5 26  1  0  0  0
  5 96  1  0  0  0
  6 25  1  0  0  0
  6 97  1  0  0  0
  6 98  1  0  0  0
  7  8  2  0  0  0
  7 26  1  0  0  0
  7 29  1  0  0  0
  8  9  1  0  0  0
  8 22  1  0  0  0
  9 10  1  0  0  0
  9 27  2  0  0  0
 10 11  2  0  0  0
 10 15  1  0  0  0
 11 12  1  0  0  0
 11 99  1  0  0  0
 12 13  2  0  0  0
 12100  1  0  0  0
 13 14  1  0  0  0
 13 31  1  0  0  0
 14 15  2  0  0  0
 14101  1  0  0  0
 15102  1  0  0  0
 16 17  2  0  0  0
 16 21  1  0  0  0
 16 31  1  0  0  0
 17 18  1  0  0  0
 17103  1  0  0  0
 18 19  2  0  0  0
 18104  1  0  0  0
 19 20  1  0  0  0
 19 24  1  0  0  0
 20 21  2  0  0  0
 20105  1  0  0  0
 21 23  1  0  0  0
 22 28  1  0  0  0
 22 32  2  0  0  0
 26 27  1  0  0  0
 28106  1  0  0  0
 28107  1  0  0  0
 29108  1  0  0  0
 29109  1  0  0  0
 33 34  1  0  0  0
 33 66  1  0  0  0
 33 70  2  0  0  0
 34 36  1  0  0  0
 34 59  1  0  0  0
 34110  1  0  0  0
 35 44  2  0  0  0
 35 45  1  0  0  0
 35 68  1  0  0  0
 36 56  1  0  0  0
 36111  1  0  0  0
 37 39  1  0  0  0
 37 47  1  0  0  0
 37 66  1  0  0  0
 37112  1  0  0  0
 38 43  2  0  0  0
 38 46  1  0  0  0
 38 47  1  0  0  0
 39 64  1  0  0  0
 39 67  2  0  0  0
 40 52  1  0  0  0
 40 53  2  0  0  0
 40 58  1  0  0  0
 41113  1  0  0  0
 41114  1  0  0  0
 41115  1  0  0  0
 41 48  1  0  0  0
 42 43  1  0  0  0
 42 66  1  0  0  0
 42116  1  0  0  0
 42117  1  0  0  0
 43 44  1  0  0  0
 44118  1  0  0  0
 45 46  2  0  0  0
 45119  1  0  0  0
 46120  1  0  0  0
 47121  1  0  0  0
 47122  1  0  0  0
 48 56  1  0  0  0
 48 65  1  0  0  0
 48123  1  0  0  0
 49 50  1  0  0  0
 49 53  1  0  0  0
 49 64  1  0  0  0
 49124  1  0  0  0
 50 51  1  0  0  0
 50125  1  0  0  0
 50126  1  0  0  0
 51 52  1  0  0  0
 51127  1  0  0  0
 51128  1  0  0  0
 52129  1  0  0  0
 52130  1  0  0  0
 53 54  1  0  0  0
 54 55  2  0  0  0
 54131  1  0  0  0
 55 57  1  0  0  0
 55132  1  0  0  0
 56 69  2  0  0  0
 57 58  2  0  0  0
 57133  1  0  0  0
 58134  1  0  0  0
 59 60  1  0  0  0
 59 61  1  0  0  0
 59 62  1  0  0  0
 60135  1  0  0  0
 60136  1  0  0  0
 60137  1  0  0  0
 61138  1  0  0  0
 61139  1  0  0  0
 61140  1  0  0  0
 62141  1  0  0  0
 62142  1  0  0  0
 62143  1  0  0  0
 63 65  1  0  0  0
 63144  1  0  0  0
 63145  1  0  0  0
 63146  1  0  0  0
 64147  1  0  0  0
 65148  1  0  0  0
 68 74  1  0  0  0
 71 72  1  0  0  0
 71 73  1  0  0  0
 71149  1  0  0  0
 71150  1  0  0  0
 72 85  1  0  0  0
 72151  1  0  0  0
 72152  1  0  0  0
 73 86  1  0  0  0
 73153  1  0  0  0
 73154  1  0  0  0
 74 76  1  0  0  0
 74155  1  0  0  0
 74156  1  0  0  0
 75 77  1  0  0  0
 75 84  1  0  0  0
 75157  1  0  0  0
 75158  1  0  0  0
 76 85  1  0  0  0
 76159  1  0  0  0
 76160  1  0  0  0
 77 87  1  0  0  0
 77161  1  0  0  0
 77162  1  0  0  0
 78 79  1  0  0  0
 78 86  1  0  0  0
 78163  1  0  0  0
 78164  1  0  0  0
 79 88  1  0  0  0
 79165  1  0  0  0
 79166  1  0  0  0
 80 81  1  0  0  0
 80 87  1  0  0  0
 80167  1  0  0  0
 80168  1  0  0  0
 81 89  1  0  0  0
 81169  1  0  0  0
 81170  1  0  0  0
 82 83  1  0  0  0
 82 88  1  0  0  0
 82171  1  0  0  0
 82172  1  0  0  0
 83 89  1  0  0  0
 83173  1  0  0  0
 83174  1  0  0  0
M  ISO  4   1 100  68 101  74 101  84 100
M  END
> <chiral flag>
0

> <version>
0

> <s_m_source_file>
/data/baiqing/PycharmProjects/Reinvent-master-3.2/result/LINK_invent/BTK/process_docking_weight1_custom_sum_contain_oxygen_bond_distance_aromatic_linkinvent_7_9_3/rearranged_h_0000.sdf

> <i_m_source_file_index>
72

> <r_mmod_Potential_Energy-OPLS-2005>
-97.2229766845703

> <r_mmod_Stretch_Energy-OPLS-2005>
32.4634742736816

> <r_mmod_Bend_Energy-OPLS-2005>
99.1860504150391

> <r_mmod_Torsional_Energy-OPLS-2005>
163.814407348633

> <r_mmod_Improper_Torsional_Energy-OPLS-2005>
3.81811189651489

> <r_mmod_Van_der_Waal_Energy-OPLS-2005>
125.907562255859

> <r_mmod_Electrostatic_Energy-OPLS-2005>
-329.363159179688

> <r_mmod_Solvation_Energy-OPLS-2005>
-201.306976318359

> <b_mmod_Minimization_Converged-OPLS-2005>
0

> <r_mmod_RMS_Derivative-OPLS-2005>
3.94408941268921

$$$$
75
                    3D
 Structure written by MMmdl.
168175  0  0  1  0            999 V2000
  -30.7322  -14.4234   20.5755 C   0  0  0  0  0  0
  -30.4027  -12.2767   19.4233 C   0  0  0  0  0  0
  -29.4856  -12.5093   18.2040 C   0  0  0  0  0  0
  -28.0055  -12.3696   18.6129 C   0  0  0  0  0  0
  -27.6561  -13.1994   19.8770 C   0  0  2  0  0  0
  -28.6993  -12.9979   20.9996 C   0  0  0  0  0  0
  -25.2568  -13.8108   20.5674 C   0  0  0  0  0  0
  -24.1817  -13.0399   20.9127 C   0  0  0  0  0  0
  -24.6387  -11.6881   20.8709 C   0  0  0  0  0  0
  -23.9062  -10.4303   21.0384 C   0  0  0  0  0  0
  -24.3630   -9.4228   21.9171 C   0  0  0  0  0  0
  -23.6316   -8.2258   22.0744 C   0  0  0  0  0  0
  -22.4304   -8.0306   21.3524 C   0  0  0  0  0  0
  -21.9920   -9.0274   20.4625 C   0  0  0  0  0  0
  -22.7224  -10.2155   20.3034 C   0  0  0  0  0  0
  -21.6856   -6.0745   22.5264 C   0  0  0  0  0  0
  -21.4018   -6.5644   23.8211 C   0  0  0  0  0  0
  -21.3676   -5.6799   24.9165 C   0  0  0  0  0  0
  -21.6051   -4.3065   24.7197 C   0  0  0  0  0  0
  -21.8833   -3.8150   23.4324 C   0  0  0  0  0  0
  -21.9202   -4.6980   22.3372 C   0  0  0  0  0  0
  -22.7868  -13.5210   21.1809 C   0  0  0  0  0  0
  -22.1671   -4.2156   21.0953 F   0  0  0  0  0  0
  -21.5634   -3.4547   25.7704 F   0  0  0  0  0  0
  -30.0301  -13.2708   20.4360 N   0  0  0  0  0  0
  -26.3011  -12.9277   20.3368 N   0  0  0  0  0  0
  -25.9297  -11.6442   20.5724 N   0  0  0  0  0  0
  -22.0543  -12.8206   22.0403 N   0  0  0  0  0  0
  -25.4248  -15.1810   20.4159 N   0  0  0  0  0  0
  -31.8802  -14.5828   20.1497 O   0  0  0  0  0  0
  -21.6653   -6.8884   21.4228 O   0  0  0  0  0  0
  -22.3547  -14.5522   20.6683 O   0  0  0  0  0  0
  -24.6172  -31.8686   23.2156 C   0  0  0  0  0  0
  -25.9066  -32.4817   23.8442 C   0  0  1  0  0  0
  -27.2330  -27.4471   20.0237 C   0  0  0  0  0  0
  -25.5927  -33.8622   24.2347 N   0  0  0  0  0  0
  -23.4039  -30.4923   21.5614 C   0  0  2  0  0  0
  -24.8415  -28.9692   20.1076 C   0  0  0  0  0  0
  -22.7469  -29.4622   22.5072 C   0  0  0  0  0  0
  -18.0267  -28.1357   22.8505 C   0  0  0  0  0  0
  -24.1468  -36.7283   23.2637 C   0  0  0  0  0  0
  -25.9378  -30.8193   21.3805 C   0  0  0  0  0  0
  -26.0050  -29.4615   20.7092 C   0  0  0  0  0  0
  -27.1984  -28.7029   20.6729 C   0  0  0  0  0  0
  -26.0393  -26.9654   19.4352 C   0  0  0  0  0  0
  -24.8567  -27.7190   19.4697 C   0  0  0  0  0  0
  -23.6070  -29.8372   20.1696 C   0  0  0  0  0  0
  -25.4094  -36.3125   24.0353 C   0  0  1  0  0  0
  -20.5863  -28.3620   23.1335 C   0  0  2  0  0  0
  -20.6761  -26.9368   22.5400 C   0  0  0  0  0  0
  -19.5713  -26.6368   21.5219 C   0  0  0  0  0  0
  -18.1900  -26.7893   22.1643 C   0  0  0  0  0  0
  -19.1519  -28.8812   23.2891 C   0  0  0  0  0  0
  -18.9446  -30.1427   23.8876 C   0  0  0  0  0  0
  -17.6445  -30.6568   24.0541 C   0  0  0  0  0  0
  -25.9047  -34.9492   23.5142 C   0  0  0  0  0  0
  -16.5327  -29.9056   23.6328 C   0  0  0  0  0  0
  -16.7249  -28.6464   23.0359 C   0  0  0  0  0  0
  -26.4480  -31.6620   25.0786 C   0  0  0  0  0  0
  -25.3760  -31.3726   26.1562 C   0  0  0  0  0  0
  -27.0294  -30.3057   24.6180 C   0  0  0  0  0  0
  -27.6094  -32.4359   25.7466 C   0  0  0  0  0  0
  -27.5598  -37.1759   24.8452 C   0  0  0  0  0  0
  -21.4196  -29.2980   22.3781 N   0  0  0  0  0  0
  -26.4260  -37.3837   23.9476 N   0  0  0  0  0  0
  -24.6708  -31.0788   22.1060 N   0  0  0  0  0  0
  -23.4248  -28.8164   23.3104 O   0  0  0  0  0  0
  -28.4089  -26.7164   20.0187 O   0  0  0  0  0  0
  -26.5617  -34.8944   22.4705 O   0  0  0  0  0  0
  -23.5365  -32.1450   23.7540 O   0  0  0  0  0  0
  -28.7454  -16.8203   19.2966 C   0  0  0  0  0  0
  -28.7129  -17.2033   17.8187 C   0  0  0  0  0  0
  -27.7494  -16.3022   17.0119 C   0  0  0  0  0  0
  -25.8790  -19.8140   14.5090 C   0  0  0  0  0  0
  -26.3832  -16.9522   16.7869 C   0  0  0  0  0  0
  -25.5164  -18.8478   15.6442 C   0  0  0  0  0  0
  -27.2078  -20.5524   14.7545 C   0  0  0  0  0  0
  -28.8235  -26.0373   18.8151 C   0  0  0  0  0  0
  -28.0829  -24.7205   18.4674 C   0  0  0  0  0  0
  -28.3750  -21.8830   16.3490 C   0  0  0  0  0  0
  -28.2415  -22.4470   17.7806 C   0  0  0  0  0  0
  -29.9170  -16.3818   19.7610 N   0  0  0  0  0  0
  -30.0057  -15.5067   20.8680 N   0  0  0  0  0  0
  -27.7261  -16.8643   19.9843 O   0  0  0  0  0  0
  -26.5622  -17.8984   15.7477 O   0  0  0  0  0  0
  -27.1499  -21.2552   15.9899 O   0  0  0  0  0  0
  -28.9340  -23.6902   17.9622 O   0  0  0  0  0  0
  -31.4539  -12.3402   19.1356 H   0  0  0  0  0  0
  -30.2620  -11.2716   19.8225 H   0  0  0  0  0  0
  -29.7234  -11.8071   17.4055 H   0  0  0  0  0  0
  -29.6558  -13.5099   17.8035 H   0  0  0  0  0  0
  -27.8074  -11.3124   18.7908 H   0  0  0  0  0  0
  -27.3538  -12.6616   17.7869 H   0  0  0  0  0  0
  -27.6942  -14.2422   19.5803 H   0  0  0  0  0  0
  -28.6638  -11.9753   21.3766 H   0  0  0  0  0  0
  -28.4748  -13.6447   21.8512 H   0  0  0  0  0  0
  -25.2791   -9.5724   22.4734 H   0  0  0  0  0  0
  -24.0038   -7.4650   22.7478 H   0  0  0  0  0  0
  -21.0826   -8.8801   19.8929 H   0  0  0  0  0  0
  -22.3679  -10.9719   19.6162 H   0  0  0  0  0  0
  -21.2030   -7.6161   23.9694 H   0  0  0  0  0  0
  -21.1481   -6.0527   25.9056 H   0  0  0  0  0  0
  -22.0603   -2.7608   23.2798 H   0  0  0  0  0  0
  -22.4205  -11.9886   22.4777 H   0  0  0  0  0  0
  -21.1161  -13.1186   22.2609 H   0  0  0  0  0  0
  -24.6630  -15.8326   20.5732 H   0  0  0  0  0  0
  -26.3145  -15.6492   20.2367 H   0  0  0  0  0  0
  -26.7117  -32.5485   23.1182 H   0  0  0  0  0  0
  -25.0107  -33.9812   25.0510 H   0  0  0  0  0  0
  -22.6883  -31.3079   21.4360 H   0  0  0  0  0  0
  -23.3803  -35.9535   23.3236 H   0  0  0  0  0  0
  -24.3583  -36.8955   22.2066 H   0  0  0  0  0  0
  -23.7103  -37.6415   23.6682 H   0  0  0  0  0  0
  -26.0858  -31.5951   20.6297 H   0  0  0  0  0  0
  -26.8115  -30.8395   22.0206 H   0  0  0  0  0  0
  -28.1006  -29.0915   21.1262 H   0  0  0  0  0  0
  -25.9792  -26.0087   18.9494 H   0  0  0  0  0  0
  -23.9626  -27.3426   18.9880 H   0  0  0  0  0  0
  -23.7171  -30.6205   19.4174 H   0  0  0  0  0  0
  -22.7232  -29.2685   19.8723 H   0  0  0  0  0  0
  -25.1241  -36.1979   25.0837 H   0  0  0  0  0  0
  -20.9914  -28.3132   24.1474 H   0  0  0  0  0  0
  -20.5712  -26.2212   23.3584 H   0  0  0  0  0  0
  -21.6617  -26.7439   22.1144 H   0  0  0  0  0  0
  -19.6874  -25.6298   21.1207 H   0  0  0  0  0  0
  -19.6623  -27.3220   20.6788 H   0  0  0  0  0  0
  -17.4176  -26.6643   21.4049 H   0  0  0  0  0  0
  -18.0288  -26.0030   22.9034 H   0  0  0  0  0  0
  -19.7917  -30.7248   24.2254 H   0  0  0  0  0  0
  -17.4987  -31.6255   24.5121 H   0  0  0  0  0  0
  -15.5324  -30.2935   23.7678 H   0  0  0  0  0  0
  -15.8660  -28.0778   22.7105 H   0  0  0  0  0  0
  -24.5776  -30.7287   25.7849 H   0  0  0  0  0  0
  -24.9169  -32.2900   26.5256 H   0  0  0  0  0  0
  -25.8094  -30.8624   27.0172 H   0  0  0  0  0  0
  -26.2813  -29.6825   24.1260 H   0  0  0  0  0  0
  -27.4068  -29.7304   25.4640 H   0  0  0  0  0  0
  -27.8677  -30.4375   23.9338 H   0  0  0  0  0  0
  -27.2738  -33.3652   26.2077 H   0  0  0  0  0  0
  -28.3809  -32.6932   25.0197 H   0  0  0  0  0  0
  -28.0867  -31.8483   26.5314 H   0  0  0  0  0  0
  -28.2528  -38.0153   24.7716 H   0  0  0  0  0  0
  -28.1180  -36.2714   24.5991 H   0  0  0  0  0  0
  -27.2371  -37.1060   25.8855 H   0  0  0  0  0  0
  -20.9446  -29.8676   21.6947 H   0  0  0  0  0  0
  -26.0150  -38.2880   24.1611 H   0  0  0  0  0  0
  -29.7181  -17.1233   17.4048 H   0  0  0  0  0  0
  -28.4355  -18.2552   17.7186 H   0  0  0  0  0  0
  -27.6041  -15.3464   17.5119 H   0  0  0  0  0  0
  -28.1986  -16.0566   16.0504 H   0  0  0  0  0  0
  -25.0692  -20.5310   14.3641 H   0  0  0  0  0  0
  -25.9547  -19.2523   13.5752 H   0  0  0  0  0  0
  -26.0350  -17.4182   17.7128 H   0  0  0  0  0  0
  -25.6428  -16.2083   16.4872 H   0  0  0  0  0  0
  -24.5643  -18.3582   15.4329 H   0  0  0  0  0  0
  -25.4055  -19.3898   16.5824 H   0  0  0  0  0  0
  -27.4075  -21.2438   13.9357 H   0  0  0  0  0  0
  -28.0257  -19.8322   14.7680 H   0  0  0  0  0  0
  -28.8243  -26.7228   17.9662 H   0  0  0  0  0  0
  -29.8711  -25.7818   18.9881 H   0  0  0  0  0  0
  -27.3274  -24.9158   17.7028 H   0  0  0  0  0  0
  -27.5737  -24.3531   19.3598 H   0  0  0  0  0  0
  -29.2018  -21.1721   16.2959 H   0  0  0  0  0  0
  -28.5785  -22.6783   15.6298 H   0  0  0  0  0  0
  -28.6024  -21.7135   18.5049 H   0  0  0  0  0  0
  -27.1786  -22.5731   17.9961 H   0  0  0  0  0  0
  -30.7471  -16.3035   19.1847 H   0  0  0  0  0  0
  -30.4334  -16.0847   21.5799 H   0  0  0  0  0  0
  1 25  1  0  0  0
  1 30  2  0  0  0
  1 83  1  0  0  0
  2  3  1  0  0  0
  2 25  1  0  0  0
  2 88  1  0  0  0
  2 89  1  0  0  0
  3  4  1  0  0  0
  3 90  1  0  0  0
  3 91  1  0  0  0
  4  5  1  0  0  0
  4 92  1  0  0  0
  4 93  1  0  0  0
  5  6  1  0  0  0
  5 26  1  0  0  0
  5 94  1  0  0  0
  6 25  1  0  0  0
  6 95  1  0  0  0
  6 96  1  0  0  0
  7  8  2  0  0  0
  7 26  1  0  0  0
  7 29  1  0  0  0
  8  9  1  0  0  0
  8 22  1  0  0  0
  9 10  1  0  0  0
  9 27  2  0  0  0
 10 11  2  0  0  0
 10 15  1  0  0  0
 11 12  1  0  0  0
 11 97  1  0  0  0
 12 13  2  0  0  0
 12 98  1  0  0  0
 13 14  1  0  0  0
 13 31  1  0  0  0
 14 15  2  0  0  0
 14 99  1  0  0  0
 15100  1  0  0  0
 16 17  2  0  0  0
 16 21  1  0  0  0
 16 31  1  0  0  0
 17 18  1  0  0  0
 17101  1  0  0  0
 18 19  2  0  0  0
 18102  1  0  0  0
 19 20  1  0  0  0
 19 24  1  0  0  0
 20 21  2  0  0  0
 20103  1  0  0  0
 21 23  1  0  0  0
 22 28  1  0  0  0
 22 32  2  0  0  0
 26 27  1  0  0  0
 28104  1  0  0  0
 28105  1  0  0  0
 29106  1  0  0  0
 29107  1  0  0  0
 33 34  1  0  0  0
 33 66  1  0  0  0
 33 70  2  0  0  0
 34 36  1  0  0  0
 34 59  1  0  0  0
 34108  1  0  0  0
 35 44  2  0  0  0
 35 45  1  0  0  0
 35 68  1  0  0  0
 36 56  1  0  0  0
 36109  1  0  0  0
 37 39  1  0  0  0
 37 47  1  0  0  0
 37 66  1  0  0  0
 37110  1  0  0  0
 38 43  2  0  0  0
 38 46  1  0  0  0
 38 47  1  0  0  0
 39 64  1  0  0  0
 39 67  2  0  0  0
 40 52  1  0  0  0
 40 53  2  0  0  0
 40 58  1  0  0  0
 41111  1  0  0  0
 41112  1  0  0  0
 41113  1  0  0  0
 41 48  1  0  0  0
 42 43  1  0  0  0
 42 66  1  0  0  0
 42114  1  0  0  0
 42115  1  0  0  0
 43 44  1  0  0  0
 44116  1  0  0  0
 45 46  2  0  0  0
 45117  1  0  0  0
 46118  1  0  0  0
 47119  1  0  0  0
 47120  1  0  0  0
 48 56  1  0  0  0
 48 65  1  0  0  0
 48121  1  0  0  0
 49 50  1  0  0  0
 49 53  1  0  0  0
 49 64  1  0  0  0
 49122  1  0  0  0
 50 51  1  0  0  0
 50123  1  0  0  0
 50124  1  0  0  0
 51 52  1  0  0  0
 51125  1  0  0  0
 51126  1  0  0  0
 52127  1  0  0  0
 52128  1  0  0  0
 53 54  1  0  0  0
 54 55  2  0  0  0
 54129  1  0  0  0
 55 57  1  0  0  0
 55130  1  0  0  0
 56 69  2  0  0  0
 57 58  2  0  0  0
 57131  1  0  0  0
 58132  1  0  0  0
 59 60  1  0  0  0
 59 61  1  0  0  0
 59 62  1  0  0  0
 60133  1  0  0  0
 60134  1  0  0  0
 60135  1  0  0  0
 61136  1  0  0  0
 61137  1  0  0  0
 61138  1  0  0  0
 62139  1  0  0  0
 62140  1  0  0  0
 62141  1  0  0  0
 63 65  1  0  0  0
 63142  1  0  0  0
 63143  1  0  0  0
 63144  1  0  0  0
 64145  1  0  0  0
 65146  1  0  0  0
 68 78  1  0  0  0
 71 72  1  0  0  0
 71 82  1  0  0  0
 71 84  2  0  0  0
 72 73  1  0  0  0
 72147  1  0  0  0
 72148  1  0  0  0
 73 75  1  0  0  0
 73149  1  0  0  0
 73150  1  0  0  0
 74 76  1  0  0  0
 74 77  1  0  0  0
 74151  1  0  0  0
 74152  1  0  0  0
 75 85  1  0  0  0
 75153  1  0  0  0
 75154  1  0  0  0
 76 85  1  0  0  0
 76155  1  0  0  0
 76156  1  0  0  0
 77 86  1  0  0  0
 77157  1  0  0  0
 77158  1  0  0  0
 78 79  1  0  0  0
 78159  1  0  0  0
 78160  1  0  0  0
 79 87  1  0  0  0
 79161  1  0  0  0
 79162  1  0  0  0
 80 81  1  0  0  0
 80 86  1  0  0  0
 80163  1  0  0  0
 80164  1  0  0  0
 81 87  1  0  0  0
 81165  1  0  0  0
 81166  1  0  0  0
 82 83  1  0  0  0
 82167  1  0  0  0
 83168  1  0  0  0
M  ISO  4   1 100  68 101  78 101  83 100
M  END
> <chiral flag>
0

> <version>
0

> <s_m_source_file>
/data/baiqing/PycharmProjects/Reinvent-master-3.2/result/LINK_invent/BTK/process_docking_weight1_custom_sum_contain_oxygen_bond_distance_aromatic_linkinvent_7_9_3/rearranged_h_0000.sdf

> <i_m_source_file_index>
73

> <r_mmod_Potential_Energy-OPLS-2005>
-97.2327651977539

> <r_mmod_Stretch_Energy-OPLS-2005>
34.3595275878906

> <r_mmod_Bend_Energy-OPLS-2005>
112.886848449707

> <r_mmod_Torsional_Energy-OPLS-2005>
291.85400390625

> <r_mmod_Improper_Torsional_Energy-OPLS-2005>
17.8980808258057

> <r_mmod_Van_der_Waal_Energy-OPLS-2005>
130.89631652832

> <r_mmod_Electrostatic_Energy-OPLS-2005>
-482.108825683594

> <r_mmod_Solvation_Energy-OPLS-2005>
-217.827880859375

> <b_mmod_Minimization_Converged-OPLS-2005>
0

> <r_mmod_RMS_Derivative-OPLS-2005>
5.19202470779419

$$$$
76
                    3D
 Structure written by MMmdl.
144151  0  0  1  0            999 V2000
  -30.4369  -15.2511   20.3767 C   0  0  0  0  0  0
  -30.4407  -12.8036   19.5103 C   0  0  0  0  0  0
  -29.5321  -12.5695   18.2777 C   0  0  0  0  0  0
  -28.0806  -12.2958   18.7105 C   0  0  0  0  0  0
  -27.6107  -13.2711   19.8186 C   0  0  2  0  0  0
  -28.6480  -13.4407   20.9474 C   0  0  0  0  0  0
  -25.2393  -13.8238   20.5742 C   0  0  0  0  0  0
  -24.1743  -13.0431   20.9260 C   0  0  0  0  0  0
  -24.6395  -11.6928   20.8764 C   0  0  0  0  0  0
  -23.9090  -10.4290   21.0409 C   0  0  0  0  0  0
  -24.3635   -9.4203   21.9186 C   0  0  0  0  0  0
  -23.6303   -8.2241   22.0755 C   0  0  0  0  0  0
  -22.4284   -8.0282   21.3545 C   0  0  0  0  0  0
  -21.9926   -9.0257   20.4646 C   0  0  0  0  0  0
  -22.7261  -10.2132   20.3056 C   0  0  0  0  0  0
  -21.6855   -6.0737   22.5279 C   0  0  0  0  0  0
  -21.4016   -6.5641   23.8212 C   0  0  0  0  0  0
  -21.3660   -5.6793   24.9174 C   0  0  0  0  0  0
  -21.6044   -4.3056   24.7225 C   0  0  0  0  0  0
  -21.8819   -3.8148   23.4346 C   0  0  0  0  0  0
  -21.9193   -4.6965   22.3402 C   0  0  0  0  0  0
  -22.7761  -13.5187   21.1906 C   0  0  0  0  0  0
  -22.1661   -4.2150   21.0980 F   0  0  0  0  0  0
  -21.5628   -3.4540   25.7737 F   0  0  0  0  0  0
  -29.8748  -13.9472   20.3118 N   0  0  0  0  0  0
  -26.2814  -12.9504   20.3207 N   0  0  0  0  0  0
  -25.9329  -11.6614   20.5719 N   0  0  0  0  0  0
  -22.0419  -12.8169   22.0460 N   0  0  0  0  0  0
  -25.4019  -15.1973   20.4173 N   0  0  0  0  0  0
  -31.6652  -15.2598   20.2187 O   0  0  0  0  0  0
  -21.6644   -6.8882   21.4242 O   0  0  0  0  0  0
  -22.3441  -14.5488   20.6746 O   0  0  0  0  0  0
  -24.6622  -31.8245   23.1706 C   0  0  0  0  0  0
  -25.9306  -32.4593   23.8170 C   0  0  1  0  0  0
  -27.2187  -26.9359   20.1919 C   0  0  0  0  0  0
  -25.5976  -33.8406   24.2077 N   0  0  0  0  0  0
  -23.4761  -30.4358   21.5204 C   0  0  2  0  0  0
  -24.9283  -28.8193   20.1193 C   0  0  0  0  0  0
  -22.7660  -29.4449   22.4794 C   0  0  0  0  0  0
  -18.0321  -28.1408   22.8468 C   0  0  0  0  0  0
  -24.1493  -36.7209   23.2648 C   0  0  0  0  0  0
  -26.0446  -30.6350   21.3978 C   0  0  0  0  0  0
  -26.1136  -29.2235   20.7468 C   0  0  0  0  0  0
  -27.2569  -28.3054   20.7517 C   0  0  0  0  0  0
  -26.0019  -26.6767   19.5243 C   0  0  0  0  0  0
  -24.8966  -27.5655   19.4877 C   0  0  0  0  0  0
  -23.7155  -29.7482   20.1484 C   0  0  0  0  0  0
  -25.4134  -36.2970   24.0300 C   0  0  1  0  0  0
  -20.5944  -28.3752   23.1192 C   0  0  2  0  0  0
  -20.6798  -26.9435   22.5403 C   0  0  0  0  0  0
  -19.5772  -26.6378   21.5214 C   0  0  0  0  0  0
  -18.1954  -26.7942   22.1623 C   0  0  0  0  0  0
  -19.1582  -28.8901   23.2817 C   0  0  0  0  0  0
  -18.9493  -30.1491   23.8852 C   0  0  0  0  0  0
  -17.6486  -30.6598   24.0556 C   0  0  0  0  0  0
  -25.9098  -34.9353   23.5010 C   0  0  0  0  0  0
  -16.5376  -29.9085   23.6343 C   0  0  0  0  0  0
  -16.7303  -28.6506   23.0363 C   0  0  0  0  0  0
  -26.4559  -31.6536   25.0696 C   0  0  0  0  0  0
  -25.3687  -31.3784   26.1354 C   0  0  0  0  0  0
  -27.0455  -30.2904   24.6421 C   0  0  0  0  0  0
  -27.6050  -32.4345   25.7500 C   0  0  0  0  0  0
  -27.5569  -37.1762   24.8467 C   0  0  0  0  0  0
  -21.4331  -29.3044   22.3542 N   0  0  0  0  0  0
  -26.4280  -37.3705   23.9407 N   0  0  0  0  0  0
  -24.7491  -30.9919   22.0835 N   0  0  0  0  0  0
  -23.4211  -28.8021   23.3034 O   0  0  0  0  0  0
  -28.2432  -25.8546   20.1976 O   0  0  0  0  0  0
  -26.5710  -34.8888   22.4606 O   0  0  0  0  0  0
  -23.5694  -32.1209   23.6807 O   0  0  0  0  0  0
  -29.9032  -18.1505   20.6487 C   0  0  0  0  0  0
  -29.0916  -19.6523   20.0641 C   0  0  0  0  0  0
  -28.0410  -24.2465   20.5108 C   0  0  0  0  0  0
  -28.7182  -22.6665   19.9472 C   0  0  0  0  0  0
  -29.6593  -16.5123   20.4191 N   0  0  0  0  0  0
  -28.9892  -21.1936   20.6301 O   0  0  0  0  0  0
  -31.4561  -13.0183   19.1742 H   0  0  0  0  0  0
  -30.5160  -11.9000   20.1175 H   0  0  0  0  0  0
  -29.9090  -11.7401   17.6776 H   0  0  0  0  0  0
  -29.5601  -13.4510   17.6352 H   0  0  0  0  0  0
  -28.0368  -11.2719   19.0838 H   0  0  0  0  0  0
  -27.4101  -12.3372   17.8514 H   0  0  0  0  0  0
  -27.5259  -14.2383   19.3215 H   0  0  0  0  0  0
  -28.8185  -12.5046   21.4812 H   0  0  0  0  0  0
  -28.2924  -14.1615   21.6855 H   0  0  0  0  0  0
  -25.2776   -9.5679   22.4767 H   0  0  0  0  0  0
  -24.0007   -7.4633   22.7477 H   0  0  0  0  0  0
  -21.0856   -8.8780   19.8952 H   0  0  0  0  0  0
  -22.3719  -10.9674   19.6169 H   0  0  0  0  0  0
  -21.2009   -7.6149   23.9716 H   0  0  0  0  0  0
  -21.1482   -6.0524   25.9077 H   0  0  0  0  0  0
  -22.0597   -2.7610   23.2846 H   0  0  0  0  0  0
  -22.4051  -11.9839   22.4851 H   0  0  0  0  0  0
  -21.1031  -13.1176   22.2665 H   0  0  0  0  0  0
  -24.6298  -15.8453   20.5309 H   0  0  0  0  0  0
  -26.2396  -15.6403   20.0642 H   0  0  0  0  0  0
  -26.7377  -32.5137   23.0887 H   0  0  0  0  0  0
  -25.0070  -33.9485   25.0192 H   0  0  0  0  0  0
  -22.7891  -31.2670   21.3485 H   0  0  0  0  0  0
  -23.3765  -35.9530   23.3283 H   0  0  0  0  0  0
  -24.3569  -36.8881   22.2067 H   0  0  0  0  0  0
  -23.7242  -37.6387   23.6720 H   0  0  0  0  0  0
  -26.2213  -31.3747   20.6158 H   0  0  0  0  0  0
  -26.9062  -30.6947   22.0510 H   0  0  0  0  0  0
  -28.1614  -28.6200   21.2530 H   0  0  0  0  0  0
  -25.8841  -25.7202   19.0350 H   0  0  0  0  0  0
  -23.9962  -27.2498   18.9788 H   0  0  0  0  0  0
  -23.8728  -30.5146   19.3885 H   0  0  0  0  0  0
  -22.8250  -29.2028   19.8311 H   0  0  0  0  0  0
  -25.1332  -36.1767   25.0791 H   0  0  0  0  0  0
  -21.0032  -28.3358   24.1316 H   0  0  0  0  0  0
  -20.5680  -26.2370   23.3642 H   0  0  0  0  0  0
  -21.6662  -26.7414   22.1208 H   0  0  0  0  0  0
  -19.6931  -25.6277   21.1274 H   0  0  0  0  0  0
  -19.6710  -27.3164   20.6724 H   0  0  0  0  0  0
  -17.4222  -26.6685   21.4027 H   0  0  0  0  0  0
  -18.0350  -26.0095   22.9030 H   0  0  0  0  0  0
  -19.7968  -30.7320   24.2201 H   0  0  0  0  0  0
  -17.5037  -31.6274   24.5166 H   0  0  0  0  0  0
  -15.5375  -30.2973   23.7693 H   0  0  0  0  0  0
  -15.8704  -28.0808   22.7105 H   0  0  0  0  0  0
  -24.5885  -30.7117   25.7664 H   0  0  0  0  0  0
  -24.8859  -32.2984   26.4657 H   0  0  0  0  0  0
  -25.7920  -30.9033   27.0213 H   0  0  0  0  0  0
  -26.3120  -29.6580   24.1408 H   0  0  0  0  0  0
  -27.3971  -29.7268   25.5074 H   0  0  0  0  0  0
  -27.9066  -30.4088   23.9841 H   0  0  0  0  0  0
  -27.2619  -33.3690   26.1952 H   0  0  0  0  0  0
  -28.3927  -32.6835   25.0377 H   0  0  0  0  0  0
  -28.0645  -31.8555   26.5522 H   0  0  0  0  0  0
  -28.2572  -38.0071   24.7508 H   0  0  0  0  0  0
  -28.1079  -36.2597   24.6302 H   0  0  0  0  0  0
  -27.2284  -37.1414   25.8869 H   0  0  0  0  0  0
  -20.9586  -29.8729   21.6666 H   0  0  0  0  0  0
  -26.0128  -38.2764   24.1412 H   0  0  0  0  0  0
  -29.8343  -18.2328   21.7336 H   0  0  0  0  0  0
  -30.9655  -18.2990   20.4516 H   0  0  0  0  0  0
  -28.0459  -19.3727   19.9349 H   0  0  0  0  0  0
  -29.4521  -19.7769   19.0427 H   0  0  0  0  0  0
  -28.2693  -24.2286   21.5764 H   0  0  0  0  0  0
  -26.9610  -24.1021   20.4918 H   0  0  0  0  0  0
  -29.7032  -22.9230   19.5574 H   0  0  0  0  0  0
  -28.1449  -22.4326   19.0499 H   0  0  0  0  0  0
  -28.6725  -16.2975   20.4101 H   0  0  0  0  0  0
  1 25  1  0  0  0
  1 30  2  0  0  0
  1 75  1  0  0  0
  2  3  1  0  0  0
  2 25  1  0  0  0
  2 77  1  0  0  0
  2 78  1  0  0  0
  3  4  1  0  0  0
  3 79  1  0  0  0
  3 80  1  0  0  0
  4  5  1  0  0  0
  4 81  1  0  0  0
  4 82  1  0  0  0
  5  6  1  0  0  0
  5 26  1  0  0  0
  5 83  1  0  0  0
  6 25  1  0  0  0
  6 84  1  0  0  0
  6 85  1  0  0  0
  7  8  2  0  0  0
  7 26  1  0  0  0
  7 29  1  0  0  0
  8  9  1  0  0  0
  8 22  1  0  0  0
  9 10  1  0  0  0
  9 27  2  0  0  0
 10 11  2  0  0  0
 10 15  1  0  0  0
 11 12  1  0  0  0
 11 86  1  0  0  0
 12 13  2  0  0  0
 12 87  1  0  0  0
 13 14  1  0  0  0
 13 31  1  0  0  0
 14 15  2  0  0  0
 14 88  1  0  0  0
 15 89  1  0  0  0
 16 17  2  0  0  0
 16 21  1  0  0  0
 16 31  1  0  0  0
 17 18  1  0  0  0
 17 90  1  0  0  0
 18 19  2  0  0  0
 18 91  1  0  0  0
 19 20  1  0  0  0
 19 24  1  0  0  0
 20 21  2  0  0  0
 20 92  1  0  0  0
 21 23  1  0  0  0
 22 28  1  0  0  0
 22 32  2  0  0  0
 26 27  1  0  0  0
 28 93  1  0  0  0
 28 94  1  0  0  0
 29 95  1  0  0  0
 29 96  1  0  0  0
 33 34  1  0  0  0
 33 66  1  0  0  0
 33 70  2  0  0  0
 34 36  1  0  0  0
 34 59  1  0  0  0
 34 97  1  0  0  0
 35 44  2  0  0  0
 35 45  1  0  0  0
 35 68  1  0  0  0
 36 56  1  0  0  0
 36 98  1  0  0  0
 37 39  1  0  0  0
 37 47  1  0  0  0
 37 66  1  0  0  0
 37 99  1  0  0  0
 38 43  2  0  0  0
 38 46  1  0  0  0
 38 47  1  0  0  0
 39 64  1  0  0  0
 39 67  2  0  0  0
 40 52  1  0  0  0
 40 53  2  0  0  0
 40 58  1  0  0  0
 41100  1  0  0  0
 41101  1  0  0  0
 41102  1  0  0  0
 41 48  1  0  0  0
 42 43  1  0  0  0
 42 66  1  0  0  0
 42103  1  0  0  0
 42104  1  0  0  0
 43 44  1  0  0  0
 44105  1  0  0  0
 45 46  2  0  0  0
 45106  1  0  0  0
 46107  1  0  0  0
 47108  1  0  0  0
 47109  1  0  0  0
 48 56  1  0  0  0
 48 65  1  0  0  0
 48110  1  0  0  0
 49 50  1  0  0  0
 49 53  1  0  0  0
 49 64  1  0  0  0
 49111  1  0  0  0
 50 51  1  0  0  0
 50112  1  0  0  0
 50113  1  0  0  0
 51 52  1  0  0  0
 51114  1  0  0  0
 51115  1  0  0  0
 52116  1  0  0  0
 52117  1  0  0  0
 53 54  1  0  0  0
 54 55  2  0  0  0
 54118  1  0  0  0
 55 57  1  0  0  0
 55119  1  0  0  0
 56 69  2  0  0  0
 57 58  2  0  0  0
 57120  1  0  0  0
 58121  1  0  0  0
 59 60  1  0  0  0
 59 61  1  0  0  0
 59 62  1  0  0  0
 60122  1  0  0  0
 60123  1  0  0  0
 60124  1  0  0  0
 61125  1  0  0  0
 61126  1  0  0  0
 61127  1  0  0  0
 62128  1  0  0  0
 62129  1  0  0  0
 62130  1  0  0  0
 63 65  1  0  0  0
 63131  1  0  0  0
 63132  1  0  0  0
 63133  1  0  0  0
 64134  1  0  0  0
 65135  1  0  0  0
 68 73  1  0  0  0
 71 72  1  0  0  0
 71 75  1  0  0  0
 71136  1  0  0  0
 71137  1  0  0  0
 72 76  1  0  0  0
 72138  1  0  0  0
 72139  1  0  0  0
 73 74  1  0  0  0
 73140  1  0  0  0
 73141  1  0  0  0
 74 76  1  0  0  0
 74142  1  0  0  0
 74143  1  0  0  0
 75144  1  0  0  0
M  ISO  4   1 100  68 101  73 101  75 100
M  END
> <chiral flag>
0

> <version>
0

> <s_m_source_file>
/data/baiqing/PycharmProjects/Reinvent-master-3.2/result/LINK_invent/BTK/process_docking_weight1_custom_sum_contain_oxygen_bond_distance_aromatic_linkinvent_7_9_3/rearranged_h_0000.sdf

> <i_m_source_file_index>
74

> <r_mmod_Potential_Energy-OPLS-2005>
1272.39196777344

> <r_mmod_Stretch_Energy-OPLS-2005>
620.559265136719

> <r_mmod_Bend_Energy-OPLS-2005>
470.408538818359

> <r_mmod_Torsional_Energy-OPLS-2005>
228.680725097656

> <r_mmod_Improper_Torsional_Energy-OPLS-2005>
4.08042764663696

> <r_mmod_Van_der_Waal_Energy-OPLS-2005>
109.728851318359

> <r_mmod_Electrostatic_Energy-OPLS-2005>
-380.777038574219

> <r_mmod_Solvation_Energy-OPLS-2005>
-221.878372192383

> <b_mmod_Minimization_Converged-OPLS-2005>
0

> <r_mmod_RMS_Derivative-OPLS-2005>
0.0835052877664566

$$$$
77
                    3D
 Structure written by MMmdl.
154161  0  0  1  0            999 V2000
  -30.7154  -14.4316   20.6012 C   0  0  0  0  0  0
  -30.4238  -12.2940   19.4124 C   0  0  0  0  0  0
  -29.4911  -12.5102   18.2034 C   0  0  0  0  0  0
  -28.0129  -12.3718   18.6155 C   0  0  0  0  0  0
  -27.6665  -13.2011   19.8811 C   0  0  2  0  0  0
  -28.7072  -12.9579   20.9985 C   0  0  0  0  0  0
  -25.2619  -13.8155   20.5685 C   0  0  0  0  0  0
  -24.1859  -13.0442   20.9173 C   0  0  0  0  0  0
  -24.6394  -11.6904   20.8725 C   0  0  0  0  0  0
  -23.9045  -10.4298   21.0391 C   0  0  0  0  0  0
  -24.3607   -9.4227   21.9174 C   0  0  0  0  0  0
  -23.6298   -8.2258   22.0738 C   0  0  0  0  0  0
  -22.4281   -8.0289   21.3532 C   0  0  0  0  0  0
  -21.9908   -9.0255   20.4635 C   0  0  0  0  0  0
  -22.7215  -10.2141   20.3049 C   0  0  0  0  0  0
  -21.6860   -6.0746   22.5281 C   0  0  0  0  0  0
  -21.4015   -6.5642   23.8214 C   0  0  0  0  0  0
  -21.3659   -5.6793   24.9170 C   0  0  0  0  0  0
  -21.6047   -4.3059   24.7224 C   0  0  0  0  0  0
  -21.8823   -3.8151   23.4343 C   0  0  0  0  0  0
  -21.9198   -4.6971   22.3399 C   0  0  0  0  0  0
  -22.7885  -13.5250   21.1842 C   0  0  0  0  0  0
  -22.1669   -4.2161   21.0978 F   0  0  0  0  0  0
  -21.5622   -3.4538   25.7732 F   0  0  0  0  0  0
  -30.0430  -13.2596   20.4547 N   0  0  0  0  0  0
  -26.3057  -12.9315   20.3396 N   0  0  0  0  0  0
  -25.9323  -11.6476   20.5765 N   0  0  0  0  0  0
  -22.0517  -12.8246   22.0396 N   0  0  0  0  0  0
  -25.4372  -15.1866   20.4110 N   0  0  0  0  0  0
  -31.8111  -14.6505   20.0754 O   0  0  0  0  0  0
  -21.6645   -6.8887   21.4242 O   0  0  0  0  0  0
  -22.3575  -14.5561   20.6692 O   0  0  0  0  0  0
  -24.6137  -31.8681   23.2112 C   0  0  0  0  0  0
  -25.9030  -32.4826   23.8403 C   0  0  1  0  0  0
  -27.2318  -27.4420   20.0925 C   0  0  0  0  0  0
  -25.5891  -33.8624   24.2324 N   0  0  0  0  0  0
  -23.3995  -30.4936   21.5515 C   0  0  2  0  0  0
  -24.8442  -28.9645   20.1118 C   0  0  0  0  0  0
  -22.7401  -29.4650   22.4987 C   0  0  0  0  0  0
  -18.0260  -28.1364   22.8487 C   0  0  0  0  0  0
  -24.1485  -36.7319   23.2640 C   0  0  0  0  0  0
  -25.9288  -30.8359   21.3641 C   0  0  0  0  0  0
  -26.0047  -29.4730   20.7080 C   0  0  0  0  0  0
  -27.1997  -28.7196   20.6941 C   0  0  0  0  0  0
  -26.0527  -26.9496   19.4860 C   0  0  0  0  0  0
  -24.8635  -27.7011   19.4988 C   0  0  0  0  0  0
  -23.6059  -29.8302   20.1645 C   0  0  0  0  0  0
  -25.4108  -36.3113   24.0334 C   0  0  1  0  0  0
  -20.5848  -28.3642   23.1319 C   0  0  2  0  0  0
  -20.6759  -26.9379   22.5416 C   0  0  0  0  0  0
  -19.5745  -26.6370   21.5211 C   0  0  0  0  0  0
  -18.1917  -26.7912   22.1617 C   0  0  0  0  0  0
  -19.1512  -28.8822   23.2895 C   0  0  0  0  0  0
  -18.9453  -30.1430   23.8903 C   0  0  0  0  0  0
  -17.6459  -30.6578   24.0561 C   0  0  0  0  0  0
  -25.9039  -34.9474   23.5133 C   0  0  0  0  0  0
  -16.5339  -29.9087   23.6332 C   0  0  0  0  0  0
  -16.7252  -28.6502   23.0346 C   0  0  0  0  0  0
  -26.4461  -31.6611   25.0733 C   0  0  0  0  0  0
  -25.3740  -31.3718   26.1497 C   0  0  0  0  0  0
  -27.0288  -30.3056   24.6095 C   0  0  0  0  0  0
  -27.6034  -32.4342   25.7489 C   0  0  0  0  0  0
  -27.5578  -37.1809   24.8465 C   0  0  0  0  0  0
  -21.4129  -29.3014   22.3737 N   0  0  0  0  0  0
  -26.4293  -37.3796   23.9412 N   0  0  0  0  0  0
  -24.6653  -31.0802   22.1006 N   0  0  0  0  0  0
  -23.4186  -28.8185   23.3014 O   0  0  0  0  0  0
  -28.4078  -26.7180   20.1231 O   0  0  0  0  0  0
  -26.5609  -34.8914   22.4694 O   0  0  0  0  0  0
  -23.5335  -32.1418   23.7519 O   0  0  0  0  0  0
  -29.5078  -17.5907   20.1901 C   0  0  0  0  0  0
  -30.3828  -16.8355   21.2185 C   0  0  0  0  0  0
  -30.1047  -18.9009   19.6349 C   0  0  0  0  0  0
  -28.3079  -25.2976   19.9658 C   0  0  0  0  0  0
  -29.5466  -24.5808   20.5320 C   0  0  0  0  0  0
  -30.7545  -21.1284   20.0262 C   0  0  0  0  0  0
  -30.5370  -22.4257   20.8313 C   0  0  0  0  0  0
  -30.0474  -15.4034   21.2457 N   0  0  0  0  0  0
  -30.0446  -19.9993   20.5443 O   0  0  0  0  0  0
  -29.4613  -23.1794   20.2700 O   0  0  0  0  0  0
  -31.4657  -12.3988   19.1063 H   0  0  0  0  0  0
  -30.3283  -11.2757   19.7938 H   0  0  0  0  0  0
  -29.7260  -11.7965   17.4130 H   0  0  0  0  0  0
  -29.6643  -13.5004   17.7798 H   0  0  0  0  0  0
  -27.8150  -11.3148   18.7982 H   0  0  0  0  0  0
  -27.3641  -12.6607   17.7873 H   0  0  0  0  0  0
  -27.7207  -14.2528   19.5999 H   0  0  0  0  0  0
  -28.6782  -11.9159   21.3201 H   0  0  0  0  0  0
  -28.4678  -13.5398   21.8886 H   0  0  0  0  0  0
  -25.2755   -9.5716   22.4745 H   0  0  0  0  0  0
  -24.0020   -7.4650   22.7453 H   0  0  0  0  0  0
  -21.0837   -8.8758   19.8948 H   0  0  0  0  0  0
  -22.3656  -10.9677   19.6164 H   0  0  0  0  0  0
  -21.2007   -7.6151   23.9719 H   0  0  0  0  0  0
  -21.1473   -6.0518   25.9071 H   0  0  0  0  0  0
  -22.0603   -2.7618   23.2831 H   0  0  0  0  0  0
  -22.4140  -11.9915   22.4797 H   0  0  0  0  0  0
  -21.1131  -13.1270   22.2590 H   0  0  0  0  0  0
  -24.6742  -15.8451   20.5227 H   0  0  0  0  0  0
  -26.2969  -15.6246   20.1048 H   0  0  0  0  0  0
  -26.7096  -32.5519   23.1162 H   0  0  0  0  0  0
  -25.0058  -33.9805   25.0477 H   0  0  0  0  0  0
  -22.6869  -31.3099   21.4157 H   0  0  0  0  0  0
  -23.3741  -35.9663   23.3332 H   0  0  0  0  0  0
  -24.3591  -36.8914   22.2056 H   0  0  0  0  0  0
  -23.7234  -37.6527   23.6645 H   0  0  0  0  0  0
  -26.0443  -31.6037   20.5976 H   0  0  0  0  0  0
  -26.8165  -30.8820   21.9840 H   0  0  0  0  0  0
  -28.0934  -29.1106   21.1607 H   0  0  0  0  0  0
  -26.0313  -25.9871   18.9960 H   0  0  0  0  0  0
  -23.9732  -27.3026   19.0314 H   0  0  0  0  0  0
  -23.7117  -30.6080   19.4072 H   0  0  0  0  0  0
  -22.7296  -29.2528   19.8651 H   0  0  0  0  0  0
  -25.1273  -36.1996   25.0828 H   0  0  0  0  0  0
  -20.9923  -28.3199   24.1448 H   0  0  0  0  0  0
  -20.5670  -26.2238   23.3595 H   0  0  0  0  0  0
  -21.6634  -26.7436   22.1201 H   0  0  0  0  0  0
  -19.6919  -25.6291   21.1222 H   0  0  0  0  0  0
  -19.6700  -27.3205   20.6768 H   0  0  0  0  0  0
  -17.4189  -26.6651   21.4016 H   0  0  0  0  0  0
  -18.0315  -26.0043   22.9005 H   0  0  0  0  0  0
  -19.7933  -30.7237   24.2262 H   0  0  0  0  0  0
  -17.5023  -31.6262   24.5169 H   0  0  0  0  0  0
  -15.5345  -30.3005   23.7657 H   0  0  0  0  0  0
  -15.8638  -28.0839   22.7058 H   0  0  0  0  0  0
  -24.5896  -30.7074   25.7854 H   0  0  0  0  0  0
  -24.8946  -32.2876   26.4969 H   0  0  0  0  0  0
  -25.8105  -30.8879   27.0241 H   0  0  0  0  0  0
  -26.2820  -29.6832   24.1148 H   0  0  0  0  0  0
  -27.4073  -29.7275   25.4535 H   0  0  0  0  0  0
  -27.8648  -30.4396   23.9224 H   0  0  0  0  0  0
  -27.2638  -33.3627   26.2091 H   0  0  0  0  0  0
  -28.3817  -32.6936   25.0302 H   0  0  0  0  0  0
  -28.0723  -31.8456   26.5387 H   0  0  0  0  0  0
  -28.2591  -38.0104   24.7515 H   0  0  0  0  0  0
  -28.1062  -36.2637   24.6279 H   0  0  0  0  0  0
  -27.2300  -37.1450   25.8864 H   0  0  0  0  0  0
  -20.9281  -29.8758   21.6983 H   0  0  0  0  0  0
  -26.0185  -38.2872   24.1427 H   0  0  0  0  0  0
  -28.5130  -17.7762   20.5983 H   0  0  0  0  0  0
  -29.3582  -16.9347   19.3313 H   0  0  0  0  0  0
  -30.2313  -17.2570   22.2135 H   0  0  0  0  0  0
  -31.4423  -16.9746   20.9934 H   0  0  0  0  0  0
  -29.5445  -19.1765   18.7394 H   0  0  0  0  0  0
  -31.1316  -18.7206   19.3107 H   0  0  0  0  0  0
  -27.4316  -24.9072   20.4873 H   0  0  0  0  0  0
  -28.1963  -25.0645   18.9056 H   0  0  0  0  0  0
  -29.6276  -24.7630   21.6048 H   0  0  0  0  0  0
  -30.4462  -24.9863   20.0681 H   0  0  0  0  0  0
  -31.8178  -20.8846   20.0345 H   0  0  0  0  0  0
  -30.4908  -21.3132   18.9836 H   0  0  0  0  0  0
  -31.4567  -23.0108   20.7742 H   0  0  0  0  0  0
  -30.3630  -22.2234   21.8882 H   0  0  0  0  0  0
  -29.1665  -15.1419   21.6635 H   0  0  0  0  0  0
  1 25  1  0  0  0
  1 30  2  0  0  0
  1 78  1  0  0  0
  2  3  1  0  0  0
  2 25  1  0  0  0
  2 81  1  0  0  0
  2 82  1  0  0  0
  3  4  1  0  0  0
  3 83  1  0  0  0
  3 84  1  0  0  0
  4  5  1  0  0  0
  4 85  1  0  0  0
  4 86  1  0  0  0
  5  6  1  0  0  0
  5 26  1  0  0  0
  5 87  1  0  0  0
  6 25  1  0  0  0
  6 88  1  0  0  0
  6 89  1  0  0  0
  7  8  2  0  0  0
  7 26  1  0  0  0
  7 29  1  0  0  0
  8  9  1  0  0  0
  8 22  1  0  0  0
  9 10  1  0  0  0
  9 27  2  0  0  0
 10 11  2  0  0  0
 10 15  1  0  0  0
 11 12  1  0  0  0
 11 90  1  0  0  0
 12 13  2  0  0  0
 12 91  1  0  0  0
 13 14  1  0  0  0
 13 31  1  0  0  0
 14 15  2  0  0  0
 14 92  1  0  0  0
 15 93  1  0  0  0
 16 17  2  0  0  0
 16 21  1  0  0  0
 16 31  1  0  0  0
 17 18  1  0  0  0
 17 94  1  0  0  0
 18 19  2  0  0  0
 18 95  1  0  0  0
 19 20  1  0  0  0
 19 24  1  0  0  0
 20 21  2  0  0  0
 20 96  1  0  0  0
 21 23  1  0  0  0
 22 28  1  0  0  0
 22 32  2  0  0  0
 26 27  1  0  0  0
 28 97  1  0  0  0
 28 98  1  0  0  0
 29 99  1  0  0  0
 29100  1  0  0  0
 33 34  1  0  0  0
 33 66  1  0  0  0
 33 70  2  0  0  0
 34 36  1  0  0  0
 34 59  1  0  0  0
 34101  1  0  0  0
 35 44  2  0  0  0
 35 45  1  0  0  0
 35 68  1  0  0  0
 36 56  1  0  0  0
 36102  1  0  0  0
 37 39  1  0  0  0
 37 47  1  0  0  0
 37 66  1  0  0  0
 37103  1  0  0  0
 38 43  2  0  0  0
 38 46  1  0  0  0
 38 47  1  0  0  0
 39 64  1  0  0  0
 39 67  2  0  0  0
 40 52  1  0  0  0
 40 53  2  0  0  0
 40 58  1  0  0  0
 41104  1  0  0  0
 41105  1  0  0  0
 41106  1  0  0  0
 41 48  1  0  0  0
 42 43  1  0  0  0
 42 66  1  0  0  0
 42107  1  0  0  0
 42108  1  0  0  0
 43 44  1  0  0  0
 44109  1  0  0  0
 45 46  2  0  0  0
 45110  1  0  0  0
 46111  1  0  0  0
 47112  1  0  0  0
 47113  1  0  0  0
 48 56  1  0  0  0
 48 65  1  0  0  0
 48114  1  0  0  0
 49 50  1  0  0  0
 49 53  1  0  0  0
 49 64  1  0  0  0
 49115  1  0  0  0
 50 51  1  0  0  0
 50116  1  0  0  0
 50117  1  0  0  0
 51 52  1  0  0  0
 51118  1  0  0  0
 51119  1  0  0  0
 52120  1  0  0  0
 52121  1  0  0  0
 53 54  1  0  0  0
 54 55  2  0  0  0
 54122  1  0  0  0
 55 57  1  0  0  0
 55123  1  0  0  0
 56 69  2  0  0  0
 57 58  2  0  0  0
 57124  1  0  0  0
 58125  1  0  0  0
 59 60  1  0  0  0
 59 61  1  0  0  0
 59 62  1  0  0  0
 60126  1  0  0  0
 60127  1  0  0  0
 60128  1  0  0  0
 61129  1  0  0  0
 61130  1  0  0  0
 61131  1  0  0  0
 62132  1  0  0  0
 62133  1  0  0  0
 62134  1  0  0  0
 63 65  1  0  0  0
 63135  1  0  0  0
 63136  1  0  0  0
 63137  1  0  0  0
 64138  1  0  0  0
 65139  1  0  0  0
 68 74  1  0  0  0
 71 72  1  0  0  0
 71 73  1  0  0  0
 71140  1  0  0  0
 71141  1  0  0  0
 72 78  1  0  0  0
 72142  1  0  0  0
 72143  1  0  0  0
 73 79  1  0  0  0
 73144  1  0  0  0
 73145  1  0  0  0
 74 75  1  0  0  0
 74146  1  0  0  0
 74147  1  0  0  0
 75 80  1  0  0  0
 75148  1  0  0  0
 75149  1  0  0  0
 76 77  1  0  0  0
 76 79  1  0  0  0
 76150  1  0  0  0
 76151  1  0  0  0
 77 80  1  0  0  0
 77152  1  0  0  0
 77153  1  0  0  0
 78154  1  0  0  0
M  ISO  4   1 100  68 101  74 101  78 100
M  END
> <chiral flag>
0

> <version>
0

> <s_m_source_file>
/data/baiqing/PycharmProjects/Reinvent-master-3.2/result/LINK_invent/BTK/process_docking_weight1_custom_sum_contain_oxygen_bond_distance_aromatic_linkinvent_7_9_3/rearranged_h_0000.sdf

> <i_m_source_file_index>
75

> <r_mmod_Potential_Energy-OPLS-2005>
-73.5306701660156

> <r_mmod_Stretch_Energy-OPLS-2005>
33.5781745910645

> <r_mmod_Bend_Energy-OPLS-2005>
91.5863876342773

> <r_mmod_Torsional_Energy-OPLS-2005>
199.27978515625

> <r_mmod_Improper_Torsional_Energy-OPLS-2005>
3.27935147285461

> <r_mmod_Van_der_Waal_Energy-OPLS-2005>
140.687744140625

> <r_mmod_Electrostatic_Energy-OPLS-2005>
-334.756378173828

> <r_mmod_Solvation_Energy-OPLS-2005>
-217.337936401367

> <b_mmod_Minimization_Converged-OPLS-2005>
0

> <r_mmod_RMS_Derivative-OPLS-2005>
1.95932567119598

$$$$
78
                    3D
 Structure written by MMmdl.
151159  0  0  1  0            999 V2000
  -30.6334  -14.6643   20.5081 C   0  0  0  0  0  0
  -30.4252  -12.4145   19.4545 C   0  0  0  0  0  0
  -29.5042  -12.5171   18.2197 C   0  0  0  0  0  0
  -28.0249  -12.3559   18.6255 C   0  0  0  0  0  0
  -27.6429  -13.2269   19.8526 C   0  0  2  0  0  0
  -28.6861  -13.1116   20.9835 C   0  0  0  0  0  0
  -25.2511  -13.8188   20.5673 C   0  0  0  0  0  0
  -24.1799  -13.0439   20.9187 C   0  0  0  0  0  0
  -24.6393  -11.6911   20.8739 C   0  0  0  0  0  0
  -23.9057  -10.4291   21.0410 C   0  0  0  0  0  0
  -24.3613   -9.4208   21.9190 C   0  0  0  0  0  0
  -23.6288   -8.2243   22.0763 C   0  0  0  0  0  0
  -22.4271   -8.0284   21.3550 C   0  0  0  0  0  0
  -21.9905   -9.0248   20.4645 C   0  0  0  0  0  0
  -22.7231  -10.2130   20.3050 C   0  0  0  0  0  0
  -21.6848   -6.0740   22.5282 C   0  0  0  0  0  0
  -21.4018   -6.5643   23.8218 C   0  0  0  0  0  0
  -21.3658   -5.6798   24.9178 C   0  0  0  0  0  0
  -21.6037   -4.3056   24.7227 C   0  0  0  0  0  0
  -21.8816   -3.8146   23.4348 C   0  0  0  0  0  0
  -21.9195   -4.6965   22.3407 C   0  0  0  0  0  0
  -22.7826  -13.5223   21.1857 C   0  0  0  0  0  0
  -22.1666   -4.2148   21.0984 F   0  0  0  0  0  0
  -21.5629   -3.4546   25.7738 F   0  0  0  0  0  0
  -29.9899  -13.4575   20.4066 N   0  0  0  0  0  0
  -26.2928  -12.9391   20.3266 N   0  0  0  0  0  0
  -25.9314  -11.6536   20.5728 N   0  0  0  0  0  0
  -22.0475  -12.8203   22.0408 N   0  0  0  0  0  0
  -25.4196  -15.1919   20.4101 N   0  0  0  0  0  0
  -31.8194  -14.7696   20.1834 O   0  0  0  0  0  0
  -21.6633   -6.8882   21.4246 O   0  0  0  0  0  0
  -22.3503  -14.5533   20.6710 O   0  0  0  0  0  0
  -24.6308  -31.8610   23.2051 C   0  0  0  0  0  0
  -25.9148  -32.4793   23.8385 C   0  0  1  0  0  0
  -27.2073  -27.2959   20.1040 C   0  0  0  0  0  0
  -25.5948  -33.8593   24.2311 N   0  0  0  0  0  0
  -23.4234  -30.4906   21.5478 C   0  0  2  0  0  0
  -24.8651  -28.9518   20.1054 C   0  0  0  0  0  0
  -22.7488  -29.4649   22.4910 C   0  0  0  0  0  0
  -18.0295  -28.1401   22.8490 C   0  0  0  0  0  0
  -24.1484  -36.7290   23.2630 C   0  0  0  0  0  0
  -25.9697  -30.7853   21.3794 C   0  0  0  0  0  0
  -26.0396  -29.4138   20.7141 C   0  0  0  0  0  0
  -27.2126  -28.5965   20.7077 C   0  0  0  0  0  0
  -25.9993  -26.8956   19.4809 C   0  0  0  0  0  0
  -24.8477  -27.6991   19.4819 C   0  0  0  0  0  0
  -23.6391  -29.8391   20.1590 C   0  0  0  0  0  0
  -25.4110  -36.3094   24.0336 C   0  0  1  0  0  0
  -20.5895  -28.3723   23.1267 C   0  0  2  0  0  0
  -20.6796  -26.9443   22.5404 C   0  0  0  0  0  0
  -19.5766  -26.6399   21.5215 C   0  0  0  0  0  0
  -18.1942  -26.7943   22.1623 C   0  0  0  0  0  0
  -19.1544  -28.8876   23.2879 C   0  0  0  0  0  0
  -18.9459  -30.1472   23.8911 C   0  0  0  0  0  0
  -17.6457  -30.6599   24.0568 C   0  0  0  0  0  0
  -25.9060  -34.9462   23.5124 C   0  0  0  0  0  0
  -16.5359  -29.9100   23.6323 C   0  0  0  0  0  0
  -16.7279  -28.6513   23.0359 C   0  0  0  0  0  0
  -26.4518  -31.6591   25.0751 C   0  0  0  0  0  0
  -25.3729  -31.3713   26.1457 C   0  0  0  0  0  0
  -27.0364  -30.3016   24.6201 C   0  0  0  0  0  0
  -27.6096  -32.4290   25.7515 C   0  0  0  0  0  0
  -27.5596  -37.1778   24.8447 C   0  0  0  0  0  0
  -21.4195  -29.3074   22.3651 N   0  0  0  0  0  0
  -26.4282  -37.3801   23.9437 N   0  0  0  0  0  0
  -24.6945  -31.0614   22.1012 N   0  0  0  0  0  0
  -23.4207  -28.8166   23.2974 O   0  0  0  0  0  0
  -28.2818  -26.3850   20.2050 O   0  0  0  0  0  0
  -26.5613  -34.8928   22.4677 O   0  0  0  0  0  0
  -23.5460  -32.1424   23.7352 O   0  0  0  0  0  0
  -30.1446  -19.7045   21.5116 C   0  0  0  0  0  0
  -28.9481  -18.7430   19.6665 C   0  0  0  0  0  0
  -29.7377  -21.0233   21.1300 C   0  0  0  0  0  0
  -28.5426  -20.0621   19.2864 C   0  0  0  0  0  0
  -29.7896  -18.5273   20.7856 C   0  0  0  0  0  0
  -28.9356  -21.2438   19.9844 C   0  0  0  0  0  0
  -28.3847  -25.2080   19.3921 C   0  0  0  0  0  0
  -30.4205  -17.1376   21.2066 C   0  0  0  0  0  0
  -28.5366  -22.6554   19.3890 C   0  0  0  0  0  0
  -29.8876  -15.7785   20.8199 N   0  0  0  0  0  0
  -28.6347  -23.9907   20.0927 N   0  0  0  0  0  0
  -28.2086  -25.2493   18.1723 O   0  0  0  0  0  0
  -31.4695  -12.5315   19.1590 H   0  0  0  0  0  0
  -30.3510  -11.4265   19.9125 H   0  0  0  0  0  0
  -29.7743  -11.7640   17.4775 H   0  0  0  0  0  0
  -29.6460  -13.4847   17.7367 H   0  0  0  0  0  0
  -27.8546  -11.3017   18.8480 H   0  0  0  0  0  0
  -27.3766  -12.5945   17.7813 H   0  0  0  0  0  0
  -27.6531  -14.2590   19.5029 H   0  0  0  0  0  0
  -28.7073  -12.0972   21.3848 H   0  0  0  0  0  0
  -28.4299  -13.7631   21.8200 H   0  0  0  0  0  0
  -25.2770   -9.5689   22.4748 H   0  0  0  0  0  0
  -24.0005   -7.4631   22.7471 H   0  0  0  0  0  0
  -21.0854   -8.8747   19.8939 H   0  0  0  0  0  0
  -22.3690  -10.9661   19.6143 H   0  0  0  0  0  0
  -21.2010   -7.6151   23.9715 H   0  0  0  0  0  0
  -21.1491   -6.0535   25.9080 H   0  0  0  0  0  0
  -22.0595   -2.7606   23.2846 H   0  0  0  0  0  0
  -22.4110  -11.9873   22.4798 H   0  0  0  0  0  0
  -21.1084  -13.1206   22.2606 H   0  0  0  0  0  0
  -24.6478  -15.8425   20.5104 H   0  0  0  0  0  0
  -26.2621  -15.6309   20.0636 H   0  0  0  0  0  0
  -26.7213  -32.5460   23.1129 H   0  0  0  0  0  0
  -25.0095  -33.9746   25.0455 H   0  0  0  0  0  0
  -22.7188  -31.3141   21.4099 H   0  0  0  0  0  0
  -23.3783  -35.9577   23.3230 H   0  0  0  0  0  0
  -24.3591  -36.8976   22.2056 H   0  0  0  0  0  0
  -23.7187  -37.6454   23.6687 H   0  0  0  0  0  0
  -26.1040  -31.5510   20.6145 H   0  0  0  0  0  0
  -26.8505  -30.8307   22.0089 H   0  0  0  0  0  0
  -28.1071  -28.9386   21.2085 H   0  0  0  0  0  0
  -25.8953  -25.9243   19.0204 H   0  0  0  0  0  0
  -23.9428  -27.3358   19.0143 H   0  0  0  0  0  0
  -23.7708  -30.6262   19.4155 H   0  0  0  0  0  0
  -22.7551  -29.2826   19.8436 H   0  0  0  0  0  0
  -25.1272  -36.1947   25.0828 H   0  0  0  0  0  0
  -20.9998  -28.3319   24.1385 H   0  0  0  0  0  0
  -20.5731  -26.2331   23.3607 H   0  0  0  0  0  0
  -21.6662  -26.7490   22.1180 H   0  0  0  0  0  0
  -19.6944  -25.6308   21.1255 H   0  0  0  0  0  0
  -19.6717  -27.3199   20.6736 H   0  0  0  0  0  0
  -17.4220  -26.6693   21.4020 H   0  0  0  0  0  0
  -18.0348  -26.0089   22.9017 H   0  0  0  0  0  0
  -19.7936  -30.7277   24.2297 H   0  0  0  0  0  0
  -17.5020  -31.6278   24.5160 H   0  0  0  0  0  0
  -15.5368  -30.3011   23.7638 H   0  0  0  0  0  0
  -15.8678  -28.0836   22.7078 H   0  0  0  0  0  0
  -24.5926  -30.7059   25.7753 H   0  0  0  0  0  0
  -24.8897  -32.2867   26.4875 H   0  0  0  0  0  0
  -25.8033  -30.8883   27.0238 H   0  0  0  0  0  0
  -26.2949  -29.6759   24.1225 H   0  0  0  0  0  0
  -27.4068  -29.7283   25.4710 H   0  0  0  0  0  0
  -27.8812  -30.4317   23.9435 H   0  0  0  0  0  0
  -27.2760  -33.3596   26.2108 H   0  0  0  0  0  0
  -28.3902  -32.6825   25.0330 H   0  0  0  0  0  0
  -28.0771  -31.8396   26.5413 H   0  0  0  0  0  0
  -28.2532  -38.0156   24.7620 H   0  0  0  0  0  0
  -28.1175  -36.2696   24.6104 H   0  0  0  0  0  0
  -27.2329  -37.1216   25.8847 H   0  0  0  0  0  0
  -20.9370  -29.8808   21.6871 H   0  0  0  0  0  0
  -26.0161  -38.2858   24.1519 H   0  0  0  0  0  0
  -30.7847  -19.6038   22.3768 H   0  0  0  0  0  0
  -28.6404  -17.8985   19.0651 H   0  0  0  0  0  0
  -30.0808  -21.8712   21.7069 H   0  0  0  0  0  0
  -27.9313  -20.1663   18.4002 H   0  0  0  0  0  0
  -30.4412  -17.1325   22.2970 H   0  0  0  0  0  0
  -31.4700  -17.1921   20.9150 H   0  0  0  0  0  0
  -27.5029  -22.5645   19.0481 H   0  0  0  0  0  0
  -29.1201  -22.7468   18.4711 H   0  0  0  0  0  0
  -28.9052  -15.6241   20.9856 H   0  0  0  0  0  0
  -28.7089  -24.0451   21.0997 H   0  0  0  0  0  0
  1 25  1  0  0  0
  1 30  2  0  0  0
  1 80  1  0  0  0
  2  3  1  0  0  0
  2 25  1  0  0  0
  2 83  1  0  0  0
  2 84  1  0  0  0
  3  4  1  0  0  0
  3 85  1  0  0  0
  3 86  1  0  0  0
  4  5  1  0  0  0
  4 87  1  0  0  0
  4 88  1  0  0  0
  5  6  1  0  0  0
  5 26  1  0  0  0
  5 89  1  0  0  0
  6 25  1  0  0  0
  6 90  1  0  0  0
  6 91  1  0  0  0
  7  8  2  0  0  0
  7 26  1  0  0  0
  7 29  1  0  0  0
  8  9  1  0  0  0
  8 22  1  0  0  0
  9 10  1  0  0  0
  9 27  2  0  0  0
 10 11  2  0  0  0
 10 15  1  0  0  0
 11 12  1  0  0  0
 11 92  1  0  0  0
 12 13  2  0  0  0
 12 93  1  0  0  0
 13 14  1  0  0  0
 13 31  1  0  0  0
 14 15  2  0  0  0
 14 94  1  0  0  0
 15 95  1  0  0  0
 16 17  2  0  0  0
 16 21  1  0  0  0
 16 31  1  0  0  0
 17 18  1  0  0  0
 17 96  1  0  0  0
 18 19  2  0  0  0
 18 97  1  0  0  0
 19 20  1  0  0  0
 19 24  1  0  0  0
 20 21  2  0  0  0
 20 98  1  0  0  0
 21 23  1  0  0  0
 22 28  1  0  0  0
 22 32  2  0  0  0
 26 27  1  0  0  0
 28 99  1  0  0  0
 28100  1  0  0  0
 29101  1  0  0  0
 29102  1  0  0  0
 33 34  1  0  0  0
 33 66  1  0  0  0
 33 70  2  0  0  0
 34 36  1  0  0  0
 34 59  1  0  0  0
 34103  1  0  0  0
 35 44  2  0  0  0
 35 45  1  0  0  0
 35 68  1  0  0  0
 36 56  1  0  0  0
 36104  1  0  0  0
 37 39  1  0  0  0
 37 47  1  0  0  0
 37 66  1  0  0  0
 37105  1  0  0  0
 38 43  2  0  0  0
 38 46  1  0  0  0
 38 47  1  0  0  0
 39 64  1  0  0  0
 39 67  2  0  0  0
 40 52  1  0  0  0
 40 53  2  0  0  0
 40 58  1  0  0  0
 41106  1  0  0  0
 41107  1  0  0  0
 41108  1  0  0  0
 41 48  1  0  0  0
 42 43  1  0  0  0
 42 66  1  0  0  0
 42109  1  0  0  0
 42110  1  0  0  0
 43 44  1  0  0  0
 44111  1  0  0  0
 45 46  2  0  0  0
 45112  1  0  0  0
 46113  1  0  0  0
 47114  1  0  0  0
 47115  1  0  0  0
 48 56  1  0  0  0
 48 65  1  0  0  0
 48116  1  0  0  0
 49 50  1  0  0  0
 49 53  1  0  0  0
 49 64  1  0  0  0
 49117  1  0  0  0
 50 51  1  0  0  0
 50118  1  0  0  0
 50119  1  0  0  0
 51 52  1  0  0  0
 51120  1  0  0  0
 51121  1  0  0  0
 52122  1  0  0  0
 52123  1  0  0  0
 53 54  1  0  0  0
 54 55  2  0  0  0
 54124  1  0  0  0
 55 57  1  0  0  0
 55125  1  0  0  0
 56 69  2  0  0  0
 57 58  2  0  0  0
 57126  1  0  0  0
 58127  1  0  0  0
 59 60  1  0  0  0
 59 61  1  0  0  0
 59 62  1  0  0  0
 60128  1  0  0  0
 60129  1  0  0  0
 60130  1  0  0  0
 61131  1  0  0  0
 61132  1  0  0  0
 61133  1  0  0  0
 62134  1  0  0  0
 62135  1  0  0  0
 62136  1  0  0  0
 63 65  1  0  0  0
 63137  1  0  0  0
 63138  1  0  0  0
 63139  1  0  0  0
 64140  1  0  0  0
 65141  1  0  0  0
 68 77  1  0  0  0
 71 73  2  0  0  0
 71 75  1  0  0  0
 71142  1  0  0  0
 72 74  1  0  0  0
 72 75  2  0  0  0
 72143  1  0  0  0
 73 76  1  0  0  0
 73144  1  0  0  0
 74 76  2  0  0  0
 74145  1  0  0  0
 75 78  1  0  0  0
 76 79  1  0  0  0
 77 81  1  0  0  0
 77 82  2  0  0  0
 78 80  1  0  0  0
 78146  1  0  0  0
 78147  1  0  0  0
 79 81  1  0  0  0
 79148  1  0  0  0
 79149  1  0  0  0
 80150  1  0  0  0
 81151  1  0  0  0
M  ISO  4   1 100  68 101  77 101  80 100
M  END
> <chiral flag>
0

> <version>
0

> <s_m_source_file>
/data/baiqing/PycharmProjects/Reinvent-master-3.2/result/LINK_invent/BTK/process_docking_weight1_custom_sum_contain_oxygen_bond_distance_aromatic_linkinvent_7_9_3/rearranged_h_0000.sdf

> <i_m_source_file_index>
76

> <r_mmod_Potential_Energy-OPLS-2005>
-8.02212715148926

> <r_mmod_Stretch_Energy-OPLS-2005>
90.8935394287109

> <r_mmod_Bend_Energy-OPLS-2005>
157.966720581055

> <r_mmod_Torsional_Energy-OPLS-2005>
215.154083251953

> <r_mmod_Improper_Torsional_Energy-OPLS-2005>
5.1741681098938

> <r_mmod_Van_der_Waal_Energy-OPLS-2005>
146.956115722656

> <r_mmod_Electrostatic_Energy-OPLS-2005>
-461.092681884766

> <r_mmod_Solvation_Energy-OPLS-2005>
-228.154998779297

> <b_mmod_Minimization_Converged-OPLS-2005>
0

> <r_mmod_RMS_Derivative-OPLS-2005>
1.90269804000854

$$$$
79
                    3D
 Structure written by MMmdl.
161169  0  0  1  0            999 V2000
  -30.9046  -14.1897   20.8445 C   0  0  0  0  0  0
  -30.3990  -12.2983   19.3712 C   0  0  0  0  0  0
  -29.4626  -12.5645   18.1866 C   0  0  0  0  0  0
  -28.0004  -12.3877   18.6220 C   0  0  0  0  0  0
  -27.6635  -13.2164   19.8867 C   0  0  2  0  0  0
  -28.7023  -13.0068   21.0124 C   0  0  0  0  0  0
  -25.2565  -13.8182   20.5691 C   0  0  0  0  0  0
  -24.1812  -13.0426   20.9162 C   0  0  0  0  0  0
  -24.6377  -11.6917   20.8710 C   0  0  0  0  0  0
  -23.9026  -10.4295   21.0358 C   0  0  0  0  0  0
  -24.3585   -9.4214   21.9134 C   0  0  0  0  0  0
  -23.6267   -8.2249   22.0717 C   0  0  0  0  0  0
  -22.4276   -8.0251   21.3489 C   0  0  0  0  0  0
  -21.9904   -9.0213   20.4594 C   0  0  0  0  0  0
  -22.7197  -10.2112   20.2997 C   0  0  0  0  0  0
  -21.6863   -6.0692   22.5216 C   0  0  0  0  0  0
  -21.4031   -6.5608   23.8141 C   0  0  0  0  0  0
  -21.3678   -5.6761   24.9111 C   0  0  0  0  0  0
  -21.6051   -4.3020   24.7175 C   0  0  0  0  0  0
  -21.8830   -3.8104   23.4302 C   0  0  0  0  0  0
  -21.9210   -4.6923   22.3352 C   0  0  0  0  0  0
  -22.7842  -13.5211   21.1838 C   0  0  0  0  0  0
  -22.1665   -4.2101   21.0931 F   0  0  0  0  0  0
  -21.5653   -3.4514   25.7689 F   0  0  0  0  0  0
  -30.0598  -13.2054   20.4714 N   0  0  0  0  0  0
  -26.3023  -12.9369   20.3441 N   0  0  0  0  0  0
  -25.9323  -11.6519   20.5817 N   0  0  0  0  0  0
  -22.0532  -12.8142   22.0404 N   0  0  0  0  0  0
  -25.4262  -15.1893   20.4106 N   0  0  0  0  0  0
  -31.7483  -14.6963   20.0993 O   0  0  0  0  0  0
  -21.6660   -6.8829   21.4174 O   0  0  0  0  0  0
  -22.3506  -14.5513   20.6724 O   0  0  0  0  0  0
  -24.6076  -31.8714   23.2136 C   0  0  0  0  0  0
  -25.9035  -32.4814   23.8374 C   0  0  1  0  0  0
  -27.2588  -27.4960   20.1084 C   0  0  0  0  0  0
  -25.5927  -33.8606   24.2306 N   0  0  0  0  0  0
  -23.3895  -30.4940   21.5515 C   0  0  2  0  0  0
  -24.8370  -28.9579   20.1198 C   0  0  0  0  0  0
  -22.7357  -29.4665   22.5015 C   0  0  0  0  0  0
  -18.0278  -28.1380   22.8493 C   0  0  0  0  0  0
  -24.1487  -36.7317   23.2603 C   0  0  0  0  0  0
  -25.9074  -30.8556   21.3566 C   0  0  0  0  0  0
  -25.9858  -29.4944   20.7100 C   0  0  0  0  0  0
  -27.1898  -28.7762   20.7036 C   0  0  0  0  0  0
  -26.0967  -26.9618   19.5102 C   0  0  0  0  0  0
  -24.8833  -27.6842   19.5191 C   0  0  0  0  0  0
  -23.5965  -29.8209   20.1658 C   0  0  0  0  0  0
  -25.4088  -36.3093   24.0322 C   0  0  1  0  0  0
  -20.5852  -28.3648   23.1349 C   0  0  2  0  0  0
  -20.6771  -26.9393   22.5429 C   0  0  0  0  0  0
  -19.5752  -26.6396   21.5215 C   0  0  0  0  0  0
  -18.1927  -26.7936   22.1618 C   0  0  0  0  0  0
  -19.1521  -28.8826   23.2917 C   0  0  0  0  0  0
  -18.9456  -30.1445   23.8899 C   0  0  0  0  0  0
  -17.6458  -30.6583   24.0575 C   0  0  0  0  0  0
  -25.9042  -34.9468   23.5102 C   0  0  0  0  0  0
  -16.5346  -29.9083   23.6341 C   0  0  0  0  0  0
  -16.7265  -28.6516   23.0324 C   0  0  0  0  0  0
  -26.4489  -31.6580   25.0676 C   0  0  0  0  0  0
  -25.3807  -31.3729   26.1476 C   0  0  0  0  0  0
  -27.0278  -30.2997   24.6028 C   0  0  0  0  0  0
  -27.6055  -32.4294   25.7467 C   0  0  0  0  0  0
  -27.5630  -37.1721   24.8379 C   0  0  0  0  0  0
  -21.4091  -29.3023   22.3760 N   0  0  0  0  0  0
  -26.4227  -37.3828   23.9504 N   0  0  0  0  0  0
  -24.6527  -31.0863   22.1005 N   0  0  0  0  0  0
  -23.4164  -28.8222   23.3040 O   0  0  0  0  0  0
  -28.4336  -26.7768   20.0814 O   0  0  0  0  0  0
  -26.5596  -34.8930   22.4656 O   0  0  0  0  0  0
  -23.5299  -32.1456   23.7581 O   0  0  0  0  0  0
  -32.8230  -20.2445   22.9474 C   0  0  0  0  0  0
  -32.1222  -19.9059   20.6379 C   0  0  0  0  0  0
  -33.1563  -18.8805   23.0431 C   0  0  0  0  0  0
  -32.4599  -18.5435   20.7325 C   0  0  0  0  0  0
  -32.2439  -20.7497   21.7654 C   0  0  0  0  0  0
  -32.9159  -18.0141   21.9539 C   0  0  0  0  0  0
  -30.7082  -22.5853   21.1360 C   0  0  0  0  0  0
  -29.2412  -26.7327   21.1791 C   0  0  0  0  0  0
  -30.2928  -24.0050   21.5086 C   0  0  0  0  0  0
  -30.6707  -26.2752   20.8676 C   0  0  0  0  0  0
  -32.1966  -14.5874   22.9561 C   0  0  0  0  0  0
  -32.4140  -16.0887   23.1816 C   0  0  0  0  0  0
  -31.7893  -22.0925   21.7678 N   0  0  0  0  0  0
  -30.9968  -14.2621   22.1786 N   0  0  0  0  0  0
  -30.0573  -21.9773   20.2806 O   0  0  0  0  0  0
  -28.9200  -27.0270   22.3346 O   0  0  0  0  0  0
  -33.0719  -16.6577   22.0537 O   0  0  0  0  0  0
  -30.7306  -24.9007   20.4894 O   0  0  0  0  0  0
  -31.4416  -12.4009   19.0653 H   0  0  0  0  0  0
  -30.2913  -11.2681   19.7122 H   0  0  0  0  0  0
  -29.6905  -11.8842   17.3660 H   0  0  0  0  0  0
  -29.6202  -13.5734   17.8065 H   0  0  0  0  0  0
  -27.8335  -11.3279   18.8147 H   0  0  0  0  0  0
  -27.3301  -12.6608   17.8069 H   0  0  0  0  0  0
  -27.7112  -14.2675   19.5989 H   0  0  0  0  0  0
  -28.6216  -12.0097   21.4471 H   0  0  0  0  0  0
  -28.4850  -13.7064   21.8233 H   0  0  0  0  0  0
  -25.2726   -9.5725   22.4702 H   0  0  0  0  0  0
  -23.9956   -7.4678   22.7494 H   0  0  0  0  0  0
  -21.0820   -8.8700   19.8923 H   0  0  0  0  0  0
  -22.3595  -10.9628   19.6112 H   0  0  0  0  0  0
  -21.2011   -7.6112   23.9613 H   0  0  0  0  0  0
  -21.1507   -6.0499   25.9007 H   0  0  0  0  0  0
  -22.0608   -2.7564   23.2802 H   0  0  0  0  0  0
  -22.4220  -11.9798   22.4722 H   0  0  0  0  0  0
  -21.1141  -13.1093   22.2675 H   0  0  0  0  0  0
  -24.6678  -15.8541   20.5318 H   0  0  0  0  0  0
  -26.2907  -15.6258   20.1113 H   0  0  0  0  0  0
  -26.7097  -32.5549   23.1133 H   0  0  0  0  0  0
  -25.0112  -33.9769   25.0471 H   0  0  0  0  0  0
  -22.6771  -31.3111   21.4163 H   0  0  0  0  0  0
  -23.3784  -35.9595   23.3065 H   0  0  0  0  0  0
  -24.3655  -36.9141   22.2064 H   0  0  0  0  0  0
  -23.7153  -37.6420   23.6747 H   0  0  0  0  0  0
  -26.0161  -31.6195   20.5856 H   0  0  0  0  0  0
  -26.7942  -30.9043   21.9761 H   0  0  0  0  0  0
  -28.0634  -29.2156   21.1639 H   0  0  0  0  0  0
  -26.1324  -25.9920   19.0358 H   0  0  0  0  0  0
  -23.9977  -27.2557   19.0689 H   0  0  0  0  0  0
  -23.7123  -30.5972   19.4090 H   0  0  0  0  0  0
  -22.7190  -29.2460   19.8657 H   0  0  0  0  0  0
  -25.1217  -36.1890   25.0795 H   0  0  0  0  0  0
  -20.9964  -28.3218   24.1456 H   0  0  0  0  0  0
  -20.5714  -26.2231   23.3594 H   0  0  0  0  0  0
  -21.6646  -26.7486   22.1196 H   0  0  0  0  0  0
  -19.6918  -25.6319   21.1212 H   0  0  0  0  0  0
  -19.6706  -27.3239   20.6773 H   0  0  0  0  0  0
  -17.4216  -26.6699   21.3995 H   0  0  0  0  0  0
  -18.0317  -26.0061   22.9001 H   0  0  0  0  0  0
  -19.7932  -30.7275   24.2227 H   0  0  0  0  0  0
  -17.5018  -31.6256   24.5202 H   0  0  0  0  0  0
  -15.5346  -30.2986   23.7658 H   0  0  0  0  0  0
  -15.8675  -28.0860   22.6981 H   0  0  0  0  0  0
  -24.5907  -30.7134   25.7858 H   0  0  0  0  0  0
  -24.9112  -32.2933   26.4961 H   0  0  0  0  0  0
  -25.8211  -30.8873   27.0202 H   0  0  0  0  0  0
  -26.2786  -29.6779   24.1108 H   0  0  0  0  0  0
  -27.4048  -29.7188   25.4460 H   0  0  0  0  0  0
  -27.8633  -30.4221   23.9130 H   0  0  0  0  0  0
  -27.2621  -33.3550   26.2095 H   0  0  0  0  0  0
  -28.3879  -32.6937   25.0341 H   0  0  0  0  0  0
  -28.0720  -31.8406   26.5378 H   0  0  0  0  0  0
  -28.2346  -38.0299   24.7889 H   0  0  0  0  0  0
  -28.1415  -36.2902   24.5589 H   0  0  0  0  0  0
  -27.2462  -37.0628   25.8761 H   0  0  0  0  0  0
  -20.9229  -29.8726   21.6983 H   0  0  0  0  0  0
  -26.0075  -38.2811   24.1798 H   0  0  0  0  0  0
  -32.9671  -20.8777   23.8118 H   0  0  0  0  0  0
  -31.7349  -20.2796   19.7005 H   0  0  0  0  0  0
  -33.5684  -18.5014   23.9685 H   0  0  0  0  0  0
  -32.3121  -17.8931   19.8814 H   0  0  0  0  0  0
  -30.7129  -24.2777   22.4782 H   0  0  0  0  0  0
  -29.2062  -24.0265   21.6058 H   0  0  0  0  0  0
  -31.2948  -26.4409   21.7462 H   0  0  0  0  0  0
  -31.0769  -26.8981   20.0710 H   0  0  0  0  0  0
  -32.0629  -14.1200   23.9318 H   0  0  0  0  0  0
  -33.0888  -14.1323   22.5272 H   0  0  0  0  0  0
  -33.0338  -16.2234   24.0694 H   0  0  0  0  0  0
  -31.4611  -16.5824   23.3832 H   0  0  0  0  0  0
  -32.1989  -22.7054   22.4609 H   0  0  0  0  0  0
  -30.2929  -13.7332   22.6727 H   0  0  0  0  0  0
  1 25  1  0  0  0
  1 30  2  0  0  0
  1 84  1  0  0  0
  2  3  1  0  0  0
  2 25  1  0  0  0
  2 89  1  0  0  0
  2 90  1  0  0  0
  3  4  1  0  0  0
  3 91  1  0  0  0
  3 92  1  0  0  0
  4  5  1  0  0  0
  4 93  1  0  0  0
  4 94  1  0  0  0
  5  6  1  0  0  0
  5 26  1  0  0  0
  5 95  1  0  0  0
  6 25  1  0  0  0
  6 96  1  0  0  0
  6 97  1  0  0  0
  7  8  2  0  0  0
  7 26  1  0  0  0
  7 29  1  0  0  0
  8  9  1  0  0  0
  8 22  1  0  0  0
  9 10  1  0  0  0
  9 27  2  0  0  0
 10 11  2  0  0  0
 10 15  1  0  0  0
 11 12  1  0  0  0
 11 98  1  0  0  0
 12 13  2  0  0  0
 12 99  1  0  0  0
 13 14  1  0  0  0
 13 31  1  0  0  0
 14 15  2  0  0  0
 14100  1  0  0  0
 15101  1  0  0  0
 16 17  2  0  0  0
 16 21  1  0  0  0
 16 31  1  0  0  0
 17 18  1  0  0  0
 17102  1  0  0  0
 18 19  2  0  0  0
 18103  1  0  0  0
 19 20  1  0  0  0
 19 24  1  0  0  0
 20 21  2  0  0  0
 20104  1  0  0  0
 21 23  1  0  0  0
 22 28  1  0  0  0
 22 32  2  0  0  0
 26 27  1  0  0  0
 28105  1  0  0  0
 28106  1  0  0  0
 29107  1  0  0  0
 29108  1  0  0  0
 33 34  1  0  0  0
 33 66  1  0  0  0
 33 70  2  0  0  0
 34 36  1  0  0  0
 34 59  1  0  0  0
 34109  1  0  0  0
 35 44  2  0  0  0
 35 45  1  0  0  0
 35 68  1  0  0  0
 36 56  1  0  0  0
 36110  1  0  0  0
 37 39  1  0  0  0
 37 47  1  0  0  0
 37 66  1  0  0  0
 37111  1  0  0  0
 38 43  2  0  0  0
 38 46  1  0  0  0
 38 47  1  0  0  0
 39 64  1  0  0  0
 39 67  2  0  0  0
 40 52  1  0  0  0
 40 53  2  0  0  0
 40 58  1  0  0  0
 41112  1  0  0  0
 41113  1  0  0  0
 41114  1  0  0  0
 41 48  1  0  0  0
 42 43  1  0  0  0
 42 66  1  0  0  0
 42115  1  0  0  0
 42116  1  0  0  0
 43 44  1  0  0  0
 44117  1  0  0  0
 45 46  2  0  0  0
 45118  1  0  0  0
 46119  1  0  0  0
 47120  1  0  0  0
 47121  1  0  0  0
 48 56  1  0  0  0
 48 65  1  0  0  0
 48122  1  0  0  0
 49 50  1  0  0  0
 49 53  1  0  0  0
 49 64  1  0  0  0
 49123  1  0  0  0
 50 51  1  0  0  0
 50124  1  0  0  0
 50125  1  0  0  0
 51 52  1  0  0  0
 51126  1  0  0  0
 51127  1  0  0  0
 52128  1  0  0  0
 52129  1  0  0  0
 53 54  1  0  0  0
 54 55  2  0  0  0
 54130  1  0  0  0
 55 57  1  0  0  0
 55131  1  0  0  0
 56 69  2  0  0  0
 57 58  2  0  0  0
 57132  1  0  0  0
 58133  1  0  0  0
 59 60  1  0  0  0
 59 61  1  0  0  0
 59 62  1  0  0  0
 60134  1  0  0  0
 60135  1  0  0  0
 60136  1  0  0  0
 61137  1  0  0  0
 61138  1  0  0  0
 61139  1  0  0  0
 62140  1  0  0  0
 62141  1  0  0  0
 62142  1  0  0  0
 63 65  1  0  0  0
 63143  1  0  0  0
 63144  1  0  0  0
 63145  1  0  0  0
 64146  1  0  0  0
 65147  1  0  0  0
 68 78  1  0  0  0
 71 73  2  0  0  0
 71 75  1  0  0  0
 71148  1  0  0  0
 72 74  1  0  0  0
 72 75  2  0  0  0
 72149  1  0  0  0
 73 76  1  0  0  0
 73150  1  0  0  0
 74 76  2  0  0  0
 74151  1  0  0  0
 75 83  1  0  0  0
 76 87  1  0  0  0
 77 79  1  0  0  0
 77 83  1  0  0  0
 77 85  2  0  0  0
 78 80  1  0  0  0
 78 86  2  0  0  0
 79 88  1  0  0  0
 79152  1  0  0  0
 79153  1  0  0  0
 80 88  1  0  0  0
 80154  1  0  0  0
 80155  1  0  0  0
 81 82  1  0  0  0
 81 84  1  0  0  0
 81156  1  0  0  0
 81157  1  0  0  0
 82 87  1  0  0  0
 82158  1  0  0  0
 82159  1  0  0  0
 83160  1  0  0  0
 84161  1  0  0  0
M  ISO  4   1 100  68 101  78 101  84 100
M  END
> <chiral flag>
0

> <version>
0

> <s_m_source_file>
/data/baiqing/PycharmProjects/Reinvent-master-3.2/result/LINK_invent/BTK/process_docking_weight1_custom_sum_contain_oxygen_bond_distance_aromatic_linkinvent_7_9_3/rearranged_h_0000.sdf

> <i_m_source_file_index>
77

> <r_mmod_Potential_Energy-OPLS-2005>
-73.4775238037109

> <r_mmod_Stretch_Energy-OPLS-2005>
31.8850250244141

> <r_mmod_Bend_Energy-OPLS-2005>
91.3811416625977

> <r_mmod_Torsional_Energy-OPLS-2005>
258.258422851562

> <r_mmod_Improper_Torsional_Energy-OPLS-2005>
11.7575054168701

> <r_mmod_Van_der_Waal_Energy-OPLS-2005>
165.521362304688

> <r_mmod_Electrostatic_Energy-OPLS-2005>
-388.817352294922

> <r_mmod_Solvation_Energy-OPLS-2005>
-258.829986572266

> <b_mmod_Minimization_Converged-OPLS-2005>
0

> <r_mmod_RMS_Derivative-OPLS-2005>
3.97546434402466

$$$$
80
                    3D
 Structure written by MMmdl.
165173  0  0  1  0            999 V2000
  -30.7101  -14.4276   20.5503 C   0  0  0  0  0  0
  -30.4181  -12.2687   19.4228 C   0  0  0  0  0  0
  -29.4953  -12.4969   18.2075 C   0  0  0  0  0  0
  -28.0130  -12.3724   18.6146 C   0  0  0  0  0  0
  -27.6637  -13.2028   19.8798 C   0  0  2  0  0  0
  -28.7045  -12.9643   20.9981 C   0  0  0  0  0  0
  -25.2579  -13.8143   20.5645 C   0  0  0  0  0  0
  -24.1844  -13.0430   20.9171 C   0  0  0  0  0  0
  -24.6393  -11.6896   20.8744 C   0  0  0  0  0  0
  -23.9066  -10.4294   21.0422 C   0  0  0  0  0  0
  -24.3621   -9.4205   21.9190 C   0  0  0  0  0  0
  -23.6297   -8.2242   22.0758 C   0  0  0  0  0  0
  -22.4280   -8.0287   21.3549 C   0  0  0  0  0  0
  -21.9916   -9.0255   20.4652 C   0  0  0  0  0  0
  -22.7242  -10.2135   20.3063 C   0  0  0  0  0  0
  -21.6846   -6.0742   22.5277 C   0  0  0  0  0  0
  -21.4018   -6.5643   23.8212 C   0  0  0  0  0  0
  -21.3655   -5.6795   24.9169 C   0  0  0  0  0  0
  -21.6041   -4.3058   24.7221 C   0  0  0  0  0  0
  -21.8821   -3.8150   23.4341 C   0  0  0  0  0  0
  -21.9197   -4.6971   22.3400 C   0  0  0  0  0  0
  -22.7859  -13.5228   21.1828 C   0  0  0  0  0  0
  -22.1659   -4.2157   21.0975 F   0  0  0  0  0  0
  -21.5631   -3.4540   25.7733 F   0  0  0  0  0  0
  -30.0403  -13.2502   20.4491 N   0  0  0  0  0  0
  -26.3034  -12.9311   20.3390 N   0  0  0  0  0  0
  -25.9319  -11.6472   20.5788 N   0  0  0  0  0  0
  -22.0505  -12.8224   22.0391 N   0  0  0  0  0  0
  -25.4235  -15.1852   20.3913 N   0  0  0  0  0  0
  -31.8524  -14.6032   20.1200 O   0  0  0  0  0  0
  -21.6637   -6.8884   21.4241 O   0  0  0  0  0  0
  -22.3533  -14.5523   20.6670 O   0  0  0  0  0  0
  -24.6089  -31.8723   23.2117 C   0  0  0  0  0  0
  -25.8999  -32.4855   23.8407 C   0  0  1  0  0  0
  -27.2359  -27.4833   20.0884 C   0  0  0  0  0  0
  -25.5899  -33.8651   24.2362 N   0  0  0  0  0  0
  -23.3956  -30.4946   21.5517 C   0  0  2  0  0  0
  -24.8439  -28.9705   20.1075 C   0  0  0  0  0  0
  -22.7385  -29.4682   22.4997 C   0  0  0  0  0  0
  -18.0271  -28.1370   22.8482 C   0  0  0  0  0  0
  -24.1487  -36.7333   23.2640 C   0  0  0  0  0  0
  -25.9164  -30.8534   21.3567 C   0  0  0  0  0  0
  -25.9969  -29.4884   20.7114 C   0  0  0  0  0  0
  -27.1960  -28.7488   20.7084 C   0  0  0  0  0  0
  -26.0778  -26.9766   19.4634 C   0  0  0  0  0  0
  -24.8769  -27.7104   19.4822 C   0  0  0  0  0  0
  -23.6009  -29.8299   20.1635 C   0  0  0  0  0  0
  -25.4104  -36.3132   24.0346 C   0  0  1  0  0  0
  -20.5861  -28.3660   23.1312 C   0  0  2  0  0  0
  -20.6774  -26.9400   22.5415 C   0  0  0  0  0  0
  -19.5755  -26.6391   21.5207 C   0  0  0  0  0  0
  -18.1925  -26.7916   22.1609 C   0  0  0  0  0  0
  -19.1522  -28.8826   23.2895 C   0  0  0  0  0  0
  -18.9449  -30.1430   23.8909 C   0  0  0  0  0  0
  -17.6453  -30.6578   24.0551 C   0  0  0  0  0  0
  -25.9025  -34.9498   23.5147 C   0  0  0  0  0  0
  -16.5339  -29.9079   23.6327 C   0  0  0  0  0  0
  -16.7258  -28.6497   23.0344 C   0  0  0  0  0  0
  -26.4438  -31.6600   25.0706 C   0  0  0  0  0  0
  -25.3721  -31.3693   26.1468 C   0  0  0  0  0  0
  -27.0259  -30.3057   24.6030 C   0  0  0  0  0  0
  -27.6036  -32.4284   25.7477 C   0  0  0  0  0  0
  -27.5580  -37.1820   24.8469 C   0  0  0  0  0  0
  -21.4122  -29.3025   22.3718 N   0  0  0  0  0  0
  -26.4295  -37.3805   23.9416 N   0  0  0  0  0  0
  -24.6585  -31.0872   22.0995 N   0  0  0  0  0  0
  -23.4168  -28.8241   23.3035 O   0  0  0  0  0  0
  -28.3930  -26.7478   20.0749 O   0  0  0  0  0  0
  -26.5565  -34.8941   22.4695 O   0  0  0  0  0  0
  -23.5294  -32.1470   23.7543 O   0  0  0  0  0  0
  -27.9761  -17.1742   23.4657 C   0  0  0  0  0  0
  -30.2487  -16.8560   24.2876 C   0  0  0  0  0  0
  -28.3081  -16.4835   22.2866 C   0  0  0  0  0  0
  -30.5812  -16.1540   23.1111 C   0  0  0  0  0  0
  -28.9572  -17.4000   24.4537 C   0  0  0  0  0  0
  -29.6129  -15.9890   22.0962 C   0  0  0  0  0  0
  -28.6380  -18.2651   25.6608 C   0  0  0  0  0  0
  -28.6472  -26.0597   21.3008 C   0  0  0  0  0  0
  -27.7699  -20.4157   26.2100 C   0  0  0  0  0  0
  -27.9626  -24.6811   21.2808 C   0  0  0  0  0  0
  -26.7298  -21.4468   25.7467 C   0  0  0  0  0  0
  -26.5582  -23.2372   22.4978 C   0  0  0  0  0  0
  -26.1128  -22.7951   23.8981 C   0  0  0  0  0  0
  -29.9524  -15.4966   20.8164 N   0  0  0  0  0  0
  -27.7560  -19.3217   25.3027 O   0  0  0  0  0  0
  -27.4934  -24.3101   22.5728 O   0  0  0  0  0  0
  -27.1201  -21.9807   24.4850 O   0  0  0  0  0  0
  -31.4651  -12.3532   19.1259 H   0  0  0  0  0  0
  -30.3005  -11.2559   19.8117 H   0  0  0  0  0  0
  -29.7270  -11.7817   17.4169 H   0  0  0  0  0  0
  -29.6775  -13.4870   17.7862 H   0  0  0  0  0  0
  -27.8063  -11.3163   18.7954 H   0  0  0  0  0  0
  -27.3702  -12.6693   17.7843 H   0  0  0  0  0  0
  -27.7139  -14.2532   19.5946 H   0  0  0  0  0  0
  -28.6663  -11.9294   21.3404 H   0  0  0  0  0  0
  -28.4793  -13.5683   21.8759 H   0  0  0  0  0  0
  -25.2766   -9.5682   22.4761 H   0  0  0  0  0  0
  -24.0006   -7.4633   22.7472 H   0  0  0  0  0  0
  -21.0849   -8.8776   19.8952 H   0  0  0  0  0  0
  -22.3707  -10.9678   19.6173 H   0  0  0  0  0  0
  -21.2010   -7.6152   23.9719 H   0  0  0  0  0  0
  -21.1471   -6.0522   25.9075 H   0  0  0  0  0  0
  -22.0608   -2.7616   23.2834 H   0  0  0  0  0  0
  -22.4107  -11.9882   22.4792 H   0  0  0  0  0  0
  -21.1129  -13.1260   22.2599 H   0  0  0  0  0  0
  -24.6565  -15.8422   20.4946 H   0  0  0  0  0  0
  -26.2671  -15.6142   20.0332 H   0  0  0  0  0  0
  -26.7084  -32.5602   23.1200 H   0  0  0  0  0  0
  -25.0061  -33.9820   25.0515 H   0  0  0  0  0  0
  -22.6832  -31.3104   21.4172 H   0  0  0  0  0  0
  -23.3735  -35.9678   23.3301 H   0  0  0  0  0  0
  -24.3579  -36.8944   22.2054 H   0  0  0  0  0  0
  -23.7256  -37.6554   23.6637 H   0  0  0  0  0  0
  -26.0128  -31.6158   20.5824 H   0  0  0  0  0  0
  -26.8084  -30.9144   21.9685 H   0  0  0  0  0  0
  -28.0877  -29.1457   21.1734 H   0  0  0  0  0  0
  -26.1062  -26.0168   18.9676 H   0  0  0  0  0  0
  -23.9951  -27.3106   19.0013 H   0  0  0  0  0  0
  -23.7023  -30.6061   19.4031 H   0  0  0  0  0  0
  -22.7249  -29.2474   19.8740 H   0  0  0  0  0  0
  -25.1279  -36.1995   25.0837 H   0  0  0  0  0  0
  -20.9951  -28.3210   24.1433 H   0  0  0  0  0  0
  -20.5686  -26.2258   23.3591 H   0  0  0  0  0  0
  -21.6643  -26.7462   22.1199 H   0  0  0  0  0  0
  -19.6919  -25.6310   21.1222 H   0  0  0  0  0  0
  -19.6697  -27.3213   20.6744 H   0  0  0  0  0  0
  -17.4210  -26.6671   21.3997 H   0  0  0  0  0  0
  -18.0301  -26.0054   22.9001 H   0  0  0  0  0  0
  -19.7925  -30.7231   24.2301 H   0  0  0  0  0  0
  -17.5014  -31.6262   24.5139 H   0  0  0  0  0  0
  -15.5342  -30.2977   23.7669 H   0  0  0  0  0  0
  -15.8660  -28.0825   22.7059 H   0  0  0  0  0  0
  -24.5897  -30.7037   25.7800 H   0  0  0  0  0  0
  -24.8905  -32.2839   26.4933 H   0  0  0  0  0  0
  -25.8076  -30.8858   27.0219 H   0  0  0  0  0  0
  -26.2796  -29.6831   24.1083 H   0  0  0  0  0  0
  -27.4057  -29.7271   25.4461 H   0  0  0  0  0  0
  -27.8597  -30.4409   23.9138 H   0  0  0  0  0  0
  -27.2699  -33.3597   26.2069 H   0  0  0  0  0  0
  -28.3838  -32.6821   25.0284 H   0  0  0  0  0  0
  -28.0691  -31.8387   26.5385 H   0  0  0  0  0  0
  -28.2609  -38.0105   24.7501 H   0  0  0  0  0  0
  -28.1067  -36.2644   24.6300 H   0  0  0  0  0  0
  -27.2303  -37.1471   25.8873 H   0  0  0  0  0  0
  -20.9264  -29.8751   21.6961 H   0  0  0  0  0  0
  -26.0185  -38.2892   24.1388 H   0  0  0  0  0  0
  -26.9804  -17.5780   23.5854 H   0  0  0  0  0  0
  -31.0055  -17.0210   25.0409 H   0  0  0  0  0  0
  -27.5663  -16.3763   21.5106 H   0  0  0  0  0  0
  -31.5959  -15.8042   22.9771 H   0  0  0  0  0  0
  -29.5734  -18.6670   26.0554 H   0  0  0  0  0  0
  -28.1900  -17.6545   26.4455 H   0  0  0  0  0  0
  -28.2973  -26.6461   22.1543 H   0  0  0  0  0  0
  -29.7240  -25.9450   21.4333 H   0  0  0  0  0  0
  -27.5262  -20.0696   27.2152 H   0  0  0  0  0  0
  -28.7614  -20.8698   26.2457 H   0  0  0  0  0  0
  -28.6391  -23.9246   20.8825 H   0  0  0  0  0  0
  -27.1154  -24.7139   20.5980 H   0  0  0  0  0  0
  -26.6569  -22.2562   26.4750 H   0  0  0  0  0  0
  -25.7462  -20.9771   25.6892 H   0  0  0  0  0  0
  -25.6788  -23.5819   21.9524 H   0  0  0  0  0  0
  -26.9700  -22.3912   21.9430 H   0  0  0  0  0  0
  -25.1956  -22.2098   23.8027 H   0  0  0  0  0  0
  -25.8837  -23.6617   24.5197 H   0  0  0  0  0  0
  -30.2293  -16.2547   20.2099 H   0  0  0  0  0  0
  1 25  1  0  0  0
  1 30  2  0  0  0
  1 84  1  0  0  0
  2  3  1  0  0  0
  2 25  1  0  0  0
  2 88  1  0  0  0
  2 89  1  0  0  0
  3  4  1  0  0  0
  3 90  1  0  0  0
  3 91  1  0  0  0
  4  5  1  0  0  0
  4 92  1  0  0  0
  4 93  1  0  0  0
  5  6  1  0  0  0
  5 26  1  0  0  0
  5 94  1  0  0  0
  6 25  1  0  0  0
  6 95  1  0  0  0
  6 96  1  0  0  0
  7  8  2  0  0  0
  7 26  1  0  0  0
  7 29  1  0  0  0
  8  9  1  0  0  0
  8 22  1  0  0  0
  9 10  1  0  0  0
  9 27  2  0  0  0
 10 11  2  0  0  0
 10 15  1  0  0  0
 11 12  1  0  0  0
 11 97  1  0  0  0
 12 13  2  0  0  0
 12 98  1  0  0  0
 13 14  1  0  0  0
 13 31  1  0  0  0
 14 15  2  0  0  0
 14 99  1  0  0  0
 15100  1  0  0  0
 16 17  2  0  0  0
 16 21  1  0  0  0
 16 31  1  0  0  0
 17 18  1  0  0  0
 17101  1  0  0  0
 18 19  2  0  0  0
 18102  1  0  0  0
 19 20  1  0  0  0
 19 24  1  0  0  0
 20 21  2  0  0  0
 20103  1  0  0  0
 21 23  1  0  0  0
 22 28  1  0  0  0
 22 32  2  0  0  0
 26 27  1  0  0  0
 28104  1  0  0  0
 28105  1  0  0  0
 29106  1  0  0  0
 29107  1  0  0  0
 33 34  1  0  0  0
 33 66  1  0  0  0
 33 70  2  0  0  0
 34 36  1  0  0  0
 34 59  1  0  0  0
 34108  1  0  0  0
 35 44  2  0  0  0
 35 45  1  0  0  0
 35 68  1  0  0  0
 36 56  1  0  0  0
 36109  1  0  0  0
 37 39  1  0  0  0
 37 47  1  0  0  0
 37 66  1  0  0  0
 37110  1  0  0  0
 38 43  2  0  0  0
 38 46  1  0  0  0
 38 47  1  0  0  0
 39 64  1  0  0  0
 39 67  2  0  0  0
 40 52  1  0  0  0
 40 53  2  0  0  0
 40 58  1  0  0  0
 41111  1  0  0  0
 41112  1  0  0  0
 41113  1  0  0  0
 41 48  1  0  0  0
 42 43  1  0  0  0
 42 66  1  0  0  0
 42114  1  0  0  0
 42115  1  0  0  0
 43 44  1  0  0  0
 44116  1  0  0  0
 45 46  2  0  0  0
 45117  1  0  0  0
 46118  1  0  0  0
 47119  1  0  0  0
 47120  1  0  0  0
 48 56  1  0  0  0
 48 65  1  0  0  0
 48121  1  0  0  0
 49 50  1  0  0  0
 49 53  1  0  0  0
 49 64  1  0  0  0
 49122  1  0  0  0
 50 51  1  0  0  0
 50123  1  0  0  0
 50124  1  0  0  0
 51 52  1  0  0  0
 51125  1  0  0  0
 51126  1  0  0  0
 52127  1  0  0  0
 52128  1  0  0  0
 53 54  1  0  0  0
 54 55  2  0  0  0
 54129  1  0  0  0
 55 57  1  0  0  0
 55130  1  0  0  0
 56 69  2  0  0  0
 57 58  2  0  0  0
 57131  1  0  0  0
 58132  1  0  0  0
 59 60  1  0  0  0
 59 61  1  0  0  0
 59 62  1  0  0  0
 60133  1  0  0  0
 60134  1  0  0  0
 60135  1  0  0  0
 61136  1  0  0  0
 61137  1  0  0  0
 61138  1  0  0  0
 62139  1  0  0  0
 62140  1  0  0  0
 62141  1  0  0  0
 63 65  1  0  0  0
 63142  1  0  0  0
 63143  1  0  0  0
 63144  1  0  0  0
 64145  1  0  0  0
 65146  1  0  0  0
 68 78  1  0  0  0
 71 73  2  0  0  0
 71 75  1  0  0  0
 71147  1  0  0  0
 72 74  1  0  0  0
 72 75  2  0  0  0
 72148  1  0  0  0
 73 76  1  0  0  0
 73149  1  0  0  0
 74 76  2  0  0  0
 74150  1  0  0  0
 75 77  1  0  0  0
 76 84  1  0  0  0
 77 85  1  0  0  0
 77151  1  0  0  0
 77152  1  0  0  0
 78 80  1  0  0  0
 78153  1  0  0  0
 78154  1  0  0  0
 79 81  1  0  0  0
 79 85  1  0  0  0
 79155  1  0  0  0
 79156  1  0  0  0
 80 86  1  0  0  0
 80157  1  0  0  0
 80158  1  0  0  0
 81 87  1  0  0  0
 81159  1  0  0  0
 81160  1  0  0  0
 82 83  1  0  0  0
 82 86  1  0  0  0
 82161  1  0  0  0
 82162  1  0  0  0
 83 87  1  0  0  0
 83163  1  0  0  0
 83164  1  0  0  0
 84165  1  0  0  0
M  ISO  4   1 100  68 101  78 101  84 100
M  END
> <chiral flag>
0

> <version>
0

> <s_m_source_file>
/data/baiqing/PycharmProjects/Reinvent-master-3.2/result/LINK_invent/BTK/process_docking_weight1_custom_sum_contain_oxygen_bond_distance_aromatic_linkinvent_7_9_3/rearranged_h_0000.sdf

> <i_m_source_file_index>
78

> <r_mmod_Potential_Energy-OPLS-2005>
34.5943260192871

> <r_mmod_Stretch_Energy-OPLS-2005>
31.2350769042969

> <r_mmod_Bend_Energy-OPLS-2005>
94.5736694335938

> <r_mmod_Torsional_Energy-OPLS-2005>
298.936065673828

> <r_mmod_Improper_Torsional_Energy-OPLS-2005>
14.2294015884399

> <r_mmod_Van_der_Waal_Energy-OPLS-2005>
148.585021972656

> <r_mmod_Electrostatic_Energy-OPLS-2005>
-345.460723876953

> <r_mmod_Solvation_Energy-OPLS-2005>
-217.832824707031

> <b_mmod_Minimization_Converged-OPLS-2005>
0

> <r_mmod_RMS_Derivative-OPLS-2005>
2.45691347122192

$$$$
81
                    3D
 Structure written by MMmdl.
186195  0  0  1  0            999 V2000
  -30.6572  -14.5052   20.3947 C   0  0  0  0  0  0
  -30.4255  -12.2885   19.4186 C   0  0  0  0  0  0
  -29.4950  -12.4671   18.1996 C   0  0  0  0  0  0
  -28.0055  -12.3620   18.6084 C   0  0  0  0  0  0
  -27.6572  -13.1617   19.8920 C   0  0  2  0  0  0
  -28.7226  -12.9948   20.9962 C   0  0  0  0  0  0
  -25.2619  -13.8061   20.5746 C   0  0  0  0  0  0
  -24.1829  -13.0360   20.9195 C   0  0  0  0  0  0
  -24.6366  -11.6810   20.8781 C   0  0  0  0  0  0
  -23.9029  -10.4224   21.0468 C   0  0  0  0  0  0
  -24.3598   -9.4140   21.9202 C   0  0  0  0  0  0
  -23.6271   -8.2182   22.0732 C   0  0  0  0  0  0
  -22.4250   -8.0236   21.3529 C   0  0  0  0  0  0
  -21.9910   -9.0219   20.4643 C   0  0  0  0  0  0
  -22.7240  -10.2095   20.3073 C   0  0  0  0  0  0
  -21.6807   -6.0729   22.5272 C   0  0  0  0  0  0
  -21.3990   -6.5639   23.8204 C   0  0  0  0  0  0
  -21.3653   -5.6787   24.9161 C   0  0  0  0  0  0
  -21.6036   -4.3051   24.7228 C   0  0  0  0  0  0
  -21.8818   -3.8146   23.4360 C   0  0  0  0  0  0
  -21.9180   -4.6956   22.3407 C   0  0  0  0  0  0
  -22.7854  -13.5124   21.1876 C   0  0  0  0  0  0
  -22.1661   -4.2158   21.0983 F   0  0  0  0  0  0
  -21.5644   -3.4548   25.7763 F   0  0  0  0  0  0
  -30.0341  -13.2967   20.4075 N   0  0  0  0  0  0
  -26.3015  -12.9093   20.3549 N   0  0  0  0  0  0
  -25.9281  -11.6307   20.5915 N   0  0  0  0  0  0
  -22.0521  -12.8080   22.0431 N   0  0  0  0  0  0
  -25.4438  -15.1792   20.4145 N   0  0  0  0  0  0
  -31.8722  -14.6316   20.2127 O   0  0  0  0  0  0
  -21.6573   -6.8872   21.4239 O   0  0  0  0  0  0
  -22.3520  -14.5444   20.6756 O   0  0  0  0  0  0
  -24.6146  -31.8737   23.2132 C   0  0  0  0  0  0
  -25.9044  -32.4863   23.8427 C   0  0  1  0  0  0
  -27.2341  -27.4574   20.0685 C   0  0  0  0  0  0
  -25.5902  -33.8641   24.2387 N   0  0  0  0  0  0
  -23.4004  -30.4970   21.5558 C   0  0  2  0  0  0
  -24.8435  -28.9709   20.1120 C   0  0  0  0  0  0
  -22.7437  -29.4687   22.5039 C   0  0  0  0  0  0
  -18.0271  -28.1420   22.8518 C   0  0  0  0  0  0
  -24.1471  -36.7287   23.2638 C   0  0  0  0  0  0
  -25.9299  -30.8440   21.3621 C   0  0  0  0  0  0
  -26.0051  -29.4818   20.7029 C   0  0  0  0  0  0
  -27.2022  -28.7324   20.6785 C   0  0  0  0  0  0
  -26.0436  -26.9521   19.4899 C   0  0  0  0  0  0
  -24.8557  -27.7047   19.5045 C   0  0  0  0  0  0
  -23.6058  -29.8364   20.1674 C   0  0  0  0  0  0
  -25.4090  -36.3128   24.0377 C   0  0  1  0  0  0
  -20.5875  -28.3689   23.1364 C   0  0  2  0  0  0
  -20.6780  -26.9436   22.5429 C   0  0  0  0  0  0
  -19.5738  -26.6431   21.5239 C   0  0  0  0  0  0
  -18.1912  -26.7977   22.1638 C   0  0  0  0  0  0
  -19.1520  -28.8866   23.2939 C   0  0  0  0  0  0
  -18.9443  -30.1468   23.8979 C   0  0  0  0  0  0
  -17.6445  -30.6623   24.0571 C   0  0  0  0  0  0
  -25.9021  -34.9494   23.5179 C   0  0  0  0  0  0
  -16.5342  -29.9130   23.6319 C   0  0  0  0  0  0
  -16.7255  -28.6523   23.0384 C   0  0  0  0  0  0
  -26.4464  -31.6626   25.0730 C   0  0  0  0  0  0
  -25.3723  -31.3761   26.1487 C   0  0  0  0  0  0
  -27.0237  -30.3062   24.6060 C   0  0  0  0  0  0
  -27.6087  -32.4319   25.7445 C   0  0  0  0  0  0
  -27.5604  -37.1803   24.8475 C   0  0  0  0  0  0
  -21.4162  -29.3047   22.3777 N   0  0  0  0  0  0
  -26.4297  -37.3812   23.9442 N   0  0  0  0  0  0
  -24.6663  -31.0859   22.1023 N   0  0  0  0  0  0
  -23.4216  -28.8236   23.3077 O   0  0  0  0  0  0
  -28.4049  -26.7283   20.1085 O   0  0  0  0  0  0
  -26.5563  -34.8954   22.4736 O   0  0  0  0  0  0
  -23.5336  -32.1497   23.7531 O   0  0  0  0  0  0
  -29.9215  -16.7007   14.7145 C   0  0  0  0  0  0
  -30.9321  -17.0516   16.9285 C   0  0  0  0  0  0
  -28.8923  -16.1375   13.9320 C   0  0  0  0  0  0
  -30.9246  -16.7647   18.3127 C   0  0  0  0  0  0
  -27.5918  -15.7127   15.9467 C   0  0  0  0  0  0
  -28.5887  -16.1125   18.1380 C   0  0  0  0  0  0
  -29.8358  -16.6784   16.1236 C   0  0  0  0  0  0
  -28.6530  -16.2065   16.7353 C   0  0  0  0  0  0
  -27.7458  -15.5954   14.5486 C   0  0  0  0  0  0
  -29.7738  -16.1901   18.9081 C   0  0  0  0  0  0
  -28.7138  -25.7586   19.2097 C   0  0  0  0  0  0
  -26.7500  -14.7815   13.7336 C   0  0  0  0  0  0
  -29.4995  -24.6127   19.8578 C   0  0  0  0  0  0
  -27.0357  -19.8343   16.8084 C   0  0  0  0  0  0
  -26.8316  -19.6318   15.2994 C   0  0  0  0  0  0
  -25.9568  -15.5858   12.7002 C   0  0  0  0  0  0
  -28.4705  -20.2142   17.1892 C   0  0  0  0  0  0
  -25.3994  -19.1943   14.9691 C   0  0  0  0  0  0
  -29.6671  -22.2515   19.9147 C   0  0  0  0  0  0
  -29.7646  -21.0123   19.0109 C   0  0  0  0  0  0
  -24.4764  -17.4060   12.4184 C   0  0  0  0  0  0
  -24.0076  -18.6923   13.1119 C   0  0  0  0  0  0
  -29.8230  -15.5482   20.1930 N   0  0  0  0  0  0
  -28.3756  -25.7297   18.0207 O   0  0  0  0  0  0
  -29.3075  -23.3931   19.1398 O   0  0  0  0  0  0
  -25.1835  -16.5854   13.3418 O   0  0  0  0  0  0
  -28.4704  -20.6591   18.5378 O   0  0  0  0  0  0
  -25.1455  -19.4088   13.5862 O   0  0  0  0  0  0
  -31.4685  -12.3913   19.1119 H   0  0  0  0  0  0
  -30.3229  -11.2884   19.8374 H   0  0  0  0  0  0
  -29.7247  -11.7243   17.4355 H   0  0  0  0  0  0
  -29.6888  -13.4333   17.7342 H   0  0  0  0  0  0
  -27.7715  -11.3074   18.7585 H   0  0  0  0  0  0
  -27.3750  -12.6970   17.7874 H   0  0  0  0  0  0
  -27.6713  -14.1963   19.6246 H   0  0  0  0  0  0
  -28.7092  -11.9790   21.3904 H   0  0  0  0  0  0
  -28.5146  -13.6535   21.8408 H   0  0  0  0  0  0
  -25.2787   -9.5577   22.4732 H   0  0  0  0  0  0
  -24.0001   -7.4544   22.7403 H   0  0  0  0  0  0
  -21.0859   -8.8737   19.8929 H   0  0  0  0  0  0
  -22.3748  -10.9624   19.6144 H   0  0  0  0  0  0
  -21.1978   -7.6139   23.9725 H   0  0  0  0  0  0
  -21.1481   -6.0517   25.9063 H   0  0  0  0  0  0
  -22.0633   -2.7615   23.2867 H   0  0  0  0  0  0
  -22.4069  -11.9668   22.4730 H   0  0  0  0  0  0
  -21.1165  -13.1092   22.2746 H   0  0  0  0  0  0
  -24.6871  -15.8455   20.5247 H   0  0  0  0  0  0
  -26.3159  -15.6279   20.1734 H   0  0  0  0  0  0
  -26.7119  -32.5594   23.1199 H   0  0  0  0  0  0
  -25.0104  -33.9784   25.0566 H   0  0  0  0  0  0
  -22.6852  -31.3115   21.4234 H   0  0  0  0  0  0
  -23.3772  -35.9586   23.3309 H   0  0  0  0  0  0
  -24.3572  -36.8852   22.2051 H   0  0  0  0  0  0
  -23.7180  -37.6492   23.6602 H   0  0  0  0  0  0
  -26.0434  -31.6135   20.5964 H   0  0  0  0  0  0
  -26.8194  -30.8968   21.9788 H   0  0  0  0  0  0
  -28.1029  -29.1245   21.1294 H   0  0  0  0  0  0
  -26.0179  -25.9729   19.0318 H   0  0  0  0  0  0
  -23.9589  -27.3033   19.0534 H   0  0  0  0  0  0
  -23.7193  -30.6141   19.4108 H   0  0  0  0  0  0
  -22.7270  -29.2620   19.8696 H   0  0  0  0  0  0
  -25.1258  -36.2015   25.0875 H   0  0  0  0  0  0
  -20.9948  -28.3258   24.1498 H   0  0  0  0  0  0
  -20.5738  -26.2290   23.3600 H   0  0  0  0  0  0
  -21.6655  -26.7530   22.1206 H   0  0  0  0  0  0
  -19.6875  -25.6351   21.1249 H   0  0  0  0  0  0
  -19.6669  -27.3272   20.6792 H   0  0  0  0  0  0
  -17.4191  -26.6777   21.4025 H   0  0  0  0  0  0
  -18.0247  -26.0123   22.9019 H   0  0  0  0  0  0
  -19.7903  -30.7254   24.2446 H   0  0  0  0  0  0
  -17.4983  -31.6318   24.5150 H   0  0  0  0  0  0
  -15.5344  -30.3045   23.7600 H   0  0  0  0  0  0
  -15.8652  -28.0821   22.7144 H   0  0  0  0  0  0
  -24.5831  -30.7183   25.7831 H   0  0  0  0  0  0
  -24.8985  -32.2929   26.5011 H   0  0  0  0  0  0
  -25.8058  -30.8854   27.0205 H   0  0  0  0  0  0
  -26.2754  -29.6883   24.1086 H   0  0  0  0  0  0
  -27.3980  -29.7254   25.4498 H   0  0  0  0  0  0
  -27.8611  -30.4388   23.9205 H   0  0  0  0  0  0
  -27.2773  -33.3620   26.2090 H   0  0  0  0  0  0
  -28.3842  -32.6899   25.0210 H   0  0  0  0  0  0
  -28.0817  -31.8389   26.5284 H   0  0  0  0  0  0
  -28.2642  -38.0087   24.7570 H   0  0  0  0  0  0
  -28.1079  -36.2640   24.6232 H   0  0  0  0  0  0
  -27.2333  -37.1403   25.8877 H   0  0  0  0  0  0
  -20.9328  -29.8689   21.6935 H   0  0  0  0  0  0
  -26.0192  -38.2894   24.1451 H   0  0  0  0  0  0
  -30.8119  -17.0625   14.2293 H   0  0  0  0  0  0
  -31.8308  -17.4464   16.4748 H   0  0  0  0  0  0
  -29.0149  -16.0746   12.8572 H   0  0  0  0  0  0
  -31.8250  -16.9056   18.8911 H   0  0  0  0  0  0
  -26.7121  -15.2978   16.4205 H   0  0  0  0  0  0
  -27.6458  -15.8169   18.5585 H   0  0  0  0  0  0
  -26.0726  -14.2506   14.4037 H   0  0  0  0  0  0
  -27.3120  -14.0034   13.2139 H   0  0  0  0  0  0
  -29.1598  -24.5027   20.8888 H   0  0  0  0  0  0
  -30.5613  -24.8593   19.8858 H   0  0  0  0  0  0
  -26.7507  -18.9285   17.3480 H   0  0  0  0  0  0
  -26.3623  -20.6239   17.1470 H   0  0  0  0  0  0
  -27.5314  -18.8848   14.9210 H   0  0  0  0  0  0
  -27.0628  -20.5608   14.7766 H   0  0  0  0  0  0
  -25.3021  -14.9149   12.1374 H   0  0  0  0  0  0
  -26.6510  -16.0315   11.9883 H   0  0  0  0  0  0
  -28.8349  -21.0177   16.5460 H   0  0  0  0  0  0
  -29.1347  -19.3581   17.0610 H   0  0  0  0  0  0
  -24.6713  -19.7632   15.5492 H   0  0  0  0  0  0
  -25.2800  -18.1474   15.2523 H   0  0  0  0  0  0
  -30.6374  -22.4138   20.3871 H   0  0  0  0  0  0
  -28.9403  -22.0929   20.7144 H   0  0  0  0  0  0
  -30.1623  -20.1650   19.5722 H   0  0  0  0  0  0
  -30.4678  -21.2088   18.1997 H   0  0  0  0  0  0
  -25.1101  -17.6731   11.5717 H   0  0  0  0  0  0
  -23.6218  -16.8539   12.0187 H   0  0  0  0  0  0
  -23.2781  -18.4950   13.8988 H   0  0  0  0  0  0
  -23.4983  -19.3104   12.3707 H   0  0  0  0  0  0
  -28.9099  -15.3527   20.5687 H   0  0  0  0  0  0
  1 25  1  0  0  0
  1 30  2  0  0  0
  1 93  1  0  0  0
  2  3  1  0  0  0
  2 25  1  0  0  0
  2 99  1  0  0  0
  2100  1  0  0  0
  3  4  1  0  0  0
  3101  1  0  0  0
  3102  1  0  0  0
  4  5  1  0  0  0
  4103  1  0  0  0
  4104  1  0  0  0
  5  6  1  0  0  0
  5 26  1  0  0  0
  5105  1  0  0  0
  6 25  1  0  0  0
  6106  1  0  0  0
  6107  1  0  0  0
  7  8  2  0  0  0
  7 26  1  0  0  0
  7 29  1  0  0  0
  8  9  1  0  0  0
  8 22  1  0  0  0
  9 10  1  0  0  0
  9 27  2  0  0  0
 10 11  2  0  0  0
 10 15  1  0  0  0
 11 12  1  0  0  0
 11108  1  0  0  0
 12 13  2  0  0  0
 12109  1  0  0  0
 13 14  1  0  0  0
 13 31  1  0  0  0
 14 15  2  0  0  0
 14110  1  0  0  0
 15111  1  0  0  0
 16 17  2  0  0  0
 16 21  1  0  0  0
 16 31  1  0  0  0
 17 18  1  0  0  0
 17112  1  0  0  0
 18 19  2  0  0  0
 18113  1  0  0  0
 19 20  1  0  0  0
 19 24  1  0  0  0
 20 21  2  0  0  0
 20114  1  0  0  0
 21 23  1  0  0  0
 22 28  1  0  0  0
 22 32  2  0  0  0
 26 27  1  0  0  0
 28115  1  0  0  0
 28116  1  0  0  0
 29117  1  0  0  0
 29118  1  0  0  0
 33 34  1  0  0  0
 33 66  1  0  0  0
 33 70  2  0  0  0
 34 36  1  0  0  0
 34 59  1  0  0  0
 34119  1  0  0  0
 35 44  2  0  0  0
 35 45  1  0  0  0
 35 68  1  0  0  0
 36 56  1  0  0  0
 36120  1  0  0  0
 37 39  1  0  0  0
 37 47  1  0  0  0
 37 66  1  0  0  0
 37121  1  0  0  0
 38 43  2  0  0  0
 38 46  1  0  0  0
 38 47  1  0  0  0
 39 64  1  0  0  0
 39 67  2  0  0  0
 40 52  1  0  0  0
 40 53  2  0  0  0
 40 58  1  0  0  0
 41122  1  0  0  0
 41123  1  0  0  0
 41124  1  0  0  0
 41 48  1  0  0  0
 42 43  1  0  0  0
 42 66  1  0  0  0
 42125  1  0  0  0
 42126  1  0  0  0
 43 44  1  0  0  0
 44127  1  0  0  0
 45 46  2  0  0  0
 45128  1  0  0  0
 46129  1  0  0  0
 47130  1  0  0  0
 47131  1  0  0  0
 48 56  1  0  0  0
 48 65  1  0  0  0
 48132  1  0  0  0
 49 50  1  0  0  0
 49 53  1  0  0  0
 49 64  1  0  0  0
 49133  1  0  0  0
 50 51  1  0  0  0
 50134  1  0  0  0
 50135  1  0  0  0
 51 52  1  0  0  0
 51136  1  0  0  0
 51137  1  0  0  0
 52138  1  0  0  0
 52139  1  0  0  0
 53 54  1  0  0  0
 54 55  2  0  0  0
 54140  1  0  0  0
 55 57  1  0  0  0
 55141  1  0  0  0
 56 69  2  0  0  0
 57 58  2  0  0  0
 57142  1  0  0  0
 58143  1  0  0  0
 59 60  1  0  0  0
 59 61  1  0  0  0
 59 62  1  0  0  0
 60144  1  0  0  0
 60145  1  0  0  0
 60146  1  0  0  0
 61147  1  0  0  0
 61148  1  0  0  0
 61149  1  0  0  0
 62150  1  0  0  0
 62151  1  0  0  0
 62152  1  0  0  0
 63 65  1  0  0  0
 63153  1  0  0  0
 63154  1  0  0  0
 63155  1  0  0  0
 64156  1  0  0  0
 65157  1  0  0  0
 68 81  1  0  0  0
 71 73  2  0  0  0
 71 77  1  0  0  0
 71158  1  0  0  0
 72 74  1  0  0  0
 72 77  2  0  0  0
 72159  1  0  0  0
 73 79  1  0  0  0
 73160  1  0  0  0
 74 80  2  0  0  0
 74161  1  0  0  0
 75 78  1  0  0  0
 75 79  2  0  0  0
 75162  1  0  0  0
 76 78  2  0  0  0
 76 80  1  0  0  0
 76163  1  0  0  0
 77 78  1  0  0  0
 79 82  1  0  0  0
 80 93  1  0  0  0
 81 83  1  0  0  0
 81 94  2  0  0  0
 82 86  1  0  0  0
 82164  1  0  0  0
 82165  1  0  0  0
 83 95  1  0  0  0
 83166  1  0  0  0
 83167  1  0  0  0
 84 85  1  0  0  0
 84 87  1  0  0  0
 84168  1  0  0  0
 84169  1  0  0  0
 85 88  1  0  0  0
 85170  1  0  0  0
 85171  1  0  0  0
 86 96  1  0  0  0
 86172  1  0  0  0
 86173  1  0  0  0
 87 97  1  0  0  0
 87174  1  0  0  0
 87175  1  0  0  0
 88 98  1  0  0  0
 88176  1  0  0  0
 88177  1  0  0  0
 89 90  1  0  0  0
 89 95  1  0  0  0
 89178  1  0  0  0
 89179  1  0  0  0
 90 97  1  0  0  0
 90180  1  0  0  0
 90181  1  0  0  0
 91 92  1  0  0  0
 91 96  1  0  0  0
 91182  1  0  0  0
 91183  1  0  0  0
 92 98  1  0  0  0
 92184  1  0  0  0
 92185  1  0  0  0
 93186  1  0  0  0
M  ISO  4   1 100  68 101  81 101  93 100
M  END
> <chiral flag>
0

> <version>
0

> <s_m_source_file>
/data/baiqing/PycharmProjects/Reinvent-master-3.2/result/LINK_invent/BTK/process_docking_weight1_custom_sum_contain_oxygen_bond_distance_aromatic_linkinvent_7_9_3/rearranged_h_0000.sdf

> <i_m_source_file_index>
79

> <r_mmod_Potential_Energy-OPLS-2005>
98.8372039794922

> <r_mmod_Stretch_Energy-OPLS-2005>
38.4287948608398

> <r_mmod_Bend_Energy-OPLS-2005>
103.170303344727

> <r_mmod_Torsional_Energy-OPLS-2005>
311.958312988281

> <r_mmod_Improper_Torsional_Energy-OPLS-2005>
17.7058238983154

> <r_mmod_Van_der_Waal_Energy-OPLS-2005>
154.544021606445

> <r_mmod_Electrostatic_Energy-OPLS-2005>
-298.524963378906

> <r_mmod_Solvation_Energy-OPLS-2005>
-253.372085571289

> <b_mmod_Minimization_Converged-OPLS-2005>
0

> <r_mmod_RMS_Derivative-OPLS-2005>
5.5171422958374

$$$$
82
                    3D
 Structure written by MMmdl.
205213  0  0  1  0            999 V2000
  -30.6548  -14.3771   20.5800 C   0  0  0  0  0  0
  -30.4209  -12.2487   19.3596 C   0  0  0  0  0  0
  -29.4634  -12.4768   18.1680 C   0  0  0  0  0  0
  -27.9752  -12.3650   18.5624 C   0  0  0  0  0  0
  -27.6550  -13.1517   19.8537 C   0  0  2  0  0  0
  -28.6985  -12.8536   20.9530 C   0  0  0  0  0  0
  -25.2864  -13.7762   20.5986 C   0  0  0  0  0  0
  -24.1899  -13.0176   20.9320 C   0  0  0  0  0  0
  -24.6347  -11.6703   20.8708 C   0  0  0  0  0  0
  -23.8996  -10.4175   21.0353 C   0  0  0  0  0  0
  -24.3645   -9.4198   21.9136 C   0  0  0  0  0  0
  -23.6360   -8.2241   22.0793 C   0  0  0  0  0  0
  -22.4316   -8.0294   21.3609 C   0  0  0  0  0  0
  -21.9877   -9.0195   20.4699 C   0  0  0  0  0  0
  -22.7183  -10.2054   20.3049 C   0  0  0  0  0  0
  -21.6834   -6.0889   22.5290 C   0  0  0  0  0  0
  -21.3987   -6.5776   23.8230 C   0  0  0  0  0  0
  -21.3636   -5.6892   24.9154 C   0  0  0  0  0  0
  -21.6036   -4.3152   24.7134 C   0  0  0  0  0  0
  -21.8834   -3.8299   23.4230 C   0  0  0  0  0  0
  -21.9182   -4.7146   22.3342 C   0  0  0  0  0  0
  -22.8060  -13.5262   21.1854 C   0  0  0  0  0  0
  -22.1636   -4.2397   21.0897 F   0  0  0  0  0  0
  -21.5591   -3.4573   25.7594 F   0  0  0  0  0  0
  -30.0330  -13.1830   20.4227 N   0  0  0  0  0  0
  -26.3042  -12.8849   20.3303 N   0  0  0  0  0  0
  -25.9222  -11.6078   20.5602 N   0  0  0  0  0  0
  -22.0677  -12.8483   22.0602 N   0  0  0  0  0  0
  -25.4864  -15.1269   20.4842 N   0  0  0  0  0  0
  -31.7485  -14.6699   20.0874 O   0  0  0  0  0  0
  -21.6650   -6.8957   21.4261 O   0  0  0  0  0  0
  -22.3790  -14.5445   20.6497 O   0  0  0  0  0  0
  -24.5965  -31.8718   23.2353 C   0  0  0  0  0  0
  -25.8880  -32.4880   23.8700 C   0  0  1  0  0  0
  -27.2893  -27.5164   20.1562 C   0  0  0  0  0  0
  -25.5829  -33.8682   24.2653 N   0  0  0  0  0  0
  -23.3835  -30.5121   21.5477 C   0  0  2  0  0  0
  -24.8883  -29.0290   20.0808 C   0  0  0  0  0  0
  -22.7269  -29.4728   22.4842 C   0  0  0  0  0  0
  -18.0212  -28.1461   22.8481 C   0  0  0  0  0  0
  -24.1459  -36.7389   23.2689 C   0  0  0  0  0  0
  -25.9145  -30.8676   21.3947 C   0  0  0  0  0  0
  -26.0165  -29.5045   20.7673 C   0  0  0  0  0  0
  -27.2012  -28.7323   20.8586 C   0  0  0  0  0  0
  -26.2246  -27.1606   19.3312 C   0  0  0  0  0  0
  -25.0028  -27.8537   19.3216 C   0  0  0  0  0  0
  -23.6062  -29.8456   20.1561 C   0  0  0  0  0  0
  -25.4034  -36.3219   24.0526 C   0  0  1  0  0  0
  -20.5840  -28.3613   23.1057 C   0  0  2  0  0  0
  -20.6891  -26.9616   22.4446 C   0  0  0  0  0  0
  -19.5328  -26.6595   21.4718 C   0  0  0  0  0  0
  -18.1508  -26.8130   22.1218 C   0  0  0  0  0  0
  -19.1544  -28.8747   23.2932 C   0  0  0  0  0  0
  -18.9667  -30.1261   23.9201 C   0  0  0  0  0  0
  -17.6797  -30.6489   24.1219 C   0  0  0  0  0  0
  -25.8889  -34.9537   23.5376 C   0  0  0  0  0  0
  -16.5599  -29.9246   23.6820 C   0  0  0  0  0  0
  -16.7354  -28.6858   23.0487 C   0  0  0  0  0  0
  -26.4444  -31.6609   25.0924 C   0  0  0  0  0  0
  -25.3911  -31.3555   26.1845 C   0  0  0  0  0  0
  -27.0291  -30.3102   24.6209 C   0  0  0  0  0  0
  -27.6132  -32.4228   25.7629 C   0  0  0  0  0  0
  -27.5623  -37.1887   24.8497 C   0  0  0  0  0  0
  -21.3959  -29.3294   22.3789 N   0  0  0  0  0  0
  -26.4284  -37.3845   23.9469 N   0  0  0  0  0  0
  -24.6502  -31.0936   22.1199 N   0  0  0  0  0  0
  -23.4101  -28.8085   23.2644 O   0  0  0  0  0  0
  -28.3825  -26.6788   20.2573 O   0  0  0  0  0  0
  -26.5291  -34.8918   22.4844 O   0  0  0  0  0  0
  -23.5152  -32.1411   23.7763 O   0  0  0  0  0  0
  -25.2399  -21.4620   18.8263 C   0  0  0  0  0  0
  -25.0161  -23.5285   17.5596 C   0  0  0  0  0  0
  -25.5881  -22.1981   19.9769 C   0  0  0  0  0  0
  -25.1799  -24.2353   18.7541 C   0  0  0  0  0  0
  -25.0209  -22.1226   17.5934 C   0  0  0  0  0  0
  -25.5794  -23.6082   19.9525 C   0  0  0  0  0  0
  -24.9810  -24.1947   22.1733 C   0  0  0  0  0  0
  -27.3344  -21.0411   15.9718 C   0  0  0  0  0  0
  -23.4713  -24.0990   21.8690 C   0  0  0  0  0  0
  -24.7640  -21.3623   16.2948 C   0  0  0  0  0  0
  -25.9306  -20.4253   15.8449 C   0  0  0  0  0  0
  -29.0867  -21.6090   17.6478 C   0  0  0  0  0  0
  -29.8732  -16.7042   21.0182 C   0  0  0  0  0  0
  -27.2200  -24.8521   21.4884 C   0  0  0  0  0  0
  -29.4406  -21.1799   19.0875 C   0  0  0  0  0  0
  -28.6064  -17.1237   20.2292 C   0  0  0  0  0  0
  -28.1215  -25.2548   20.2974 C   0  0  0  0  0  0
  -28.9139  -21.2847   21.3895 C   0  0  0  0  0  0
  -27.8821  -17.0279   17.8780 C   0  0  0  0  0  0
  -27.8562  -21.0335   22.4879 C   0  0  0  0  0  0
  -26.3520  -16.8589   17.9314 C   0  0  0  0  0  0
  -25.9263  -19.8054   23.0814 C   0  0  0  0  0  0
  -24.4681  -17.8226   19.0311 C   0  0  0  0  0  0
  -24.9840  -18.7291   22.5467 C   0  0  0  0  0  0
  -24.0583  -18.0134   20.4980 C   0  0  0  0  0  0
  -27.9012  -20.9152   17.1807 N   0  0  0  0  0  0
  -29.8827  -15.2628   21.2172 N   0  0  0  0  0  0
  -25.8527  -24.3430   21.1528 N   0  0  0  0  0  0
  -25.3674  -24.0380   23.3390 O   0  0  0  0  0  0
  -27.9089  -21.5677   15.0140 O   0  0  0  0  0  0
  -28.4151  -21.4326   20.0543 O   0  0  0  0  0  0
  -28.6113  -16.4498   18.9662 O   0  0  0  0  0  0
  -27.1340  -19.8173   22.3117 O   0  0  0  0  0  0
  -25.8778  -17.6241   19.0241 O   0  0  0  0  0  0
  -24.9254  -18.9251   21.1423 O   0  0  0  0  0  0
  -31.4563  -12.3764   19.0443 H   0  0  0  0  0  0
  -30.3568  -11.2246   19.7266 H   0  0  0  0  0  0
  -29.6680  -11.7861   17.3529 H   0  0  0  0  0  0
  -29.6309  -13.4790   17.7756 H   0  0  0  0  0  0
  -27.6895  -11.3127   18.6511 H   0  0  0  0  0  0
  -27.3542  -12.7565   17.7540 H   0  0  0  0  0  0
  -27.7054  -14.2017   19.5687 H   0  0  0  0  0  0
  -28.6877  -11.7918   21.1969 H   0  0  0  0  0  0
  -28.4500  -13.3648   21.8845 H   0  0  0  0  0  0
  -25.2806   -9.5854   22.4637 H   0  0  0  0  0  0
  -24.0195   -7.4741   22.7552 H   0  0  0  0  0  0
  -21.0830   -8.8686   19.9014 H   0  0  0  0  0  0
  -22.3657  -10.9589   19.6165 H   0  0  0  0  0  0
  -21.1990   -7.6286   23.9772 H   0  0  0  0  0  0
  -21.1418   -6.0607   25.9055 H   0  0  0  0  0  0
  -22.0646   -2.7796   23.2579 H   0  0  0  0  0  0
  -22.4246  -12.0265   22.5208 H   0  0  0  0  0  0
  -21.1356  -13.1728   22.2667 H   0  0  0  0  0  0
  -24.7381  -15.8031   20.5822 H   0  0  0  0  0  0
  -26.3446  -15.5357   20.1314 H   0  0  0  0  0  0
  -26.7027  -32.5653   23.1615 H   0  0  0  0  0  0
  -25.0443  -33.9863   25.1116 H   0  0  0  0  0  0
  -22.6773  -31.3394   21.4043 H   0  0  0  0  0  0
  -23.3698  -35.9723   23.3269 H   0  0  0  0  0  0
  -24.3752  -36.8948   22.2118 H   0  0  0  0  0  0
  -23.7138  -37.6663   23.6545 H   0  0  0  0  0  0
  -25.9990  -31.6109   20.5997 H   0  0  0  0  0  0
  -26.8232  -30.9620   21.9841 H   0  0  0  0  0  0
  -28.0048  -29.0494   21.5144 H   0  0  0  0  0  0
  -26.4369  -26.3730   18.6434 H   0  0  0  0  0  0
  -24.2198  -27.5298   18.6490 H   0  0  0  0  0  0
  -23.6389  -30.6237   19.3956 H   0  0  0  0  0  0
  -22.7408  -29.2426   19.8619 H   0  0  0  0  0  0
  -25.1147  -36.2395   25.1030 H   0  0  0  0  0  0
  -20.9712  -28.2921   24.1253 H   0  0  0  0  0  0
  -20.6991  -26.1862   23.2099 H   0  0  0  0  0  0
  -21.6607  -26.8520   21.9619 H   0  0  0  0  0  0
  -19.6331  -25.6690   21.0257 H   0  0  0  0  0  0
  -19.5702  -27.3603   20.6398 H   0  0  0  0  0  0
  -17.3804  -26.7399   21.3499 H   0  0  0  0  0  0
  -17.9006  -25.9954   22.7980 H   0  0  0  0  0  0
  -19.8342  -30.6873   24.2405 H   0  0  0  0  0  0
  -17.5539  -31.5950   24.6296 H   0  0  0  0  0  0
  -15.5713  -30.3329   23.8195 H   0  0  0  0  0  0
  -15.8627  -28.1676   22.6898 H   0  0  0  0  0  0
  -24.6100  -30.6805   25.8385 H   0  0  0  0  0  0
  -24.9021  -32.2515   26.5616 H   0  0  0  0  0  0
  -25.8530  -30.8717   27.0465 H   0  0  0  0  0  0
  -26.2863  -29.6894   24.1183 H   0  0  0  0  0  0
  -27.4072  -29.7323   25.4672 H   0  0  0  0  0  0
  -27.8718  -30.4525   23.9448 H   0  0  0  0  0  0
  -27.2961  -33.3517   26.2420 H   0  0  0  0  0  0
  -28.3897  -32.6811   25.0390 H   0  0  0  0  0  0
  -28.0910  -31.8199   26.5421 H   0  0  0  0  0  0
  -28.2667  -38.0156   24.7527 H   0  0  0  0  0  0
  -28.1094  -36.2733   24.6280 H   0  0  0  0  0  0
  -27.2402  -37.1532   25.8915 H   0  0  0  0  0  0
  -20.8947  -29.9250   21.7315 H   0  0  0  0  0  0
  -26.0293  -38.2991   24.1355 H   0  0  0  0  0  0
  -25.2141  -20.3846   18.8831 H   0  0  0  0  0  0
  -24.8145  -24.0853   16.6510 H   0  0  0  0  0  0
  -25.8342  -21.6573   20.8831 H   0  0  0  0  0  0
  -24.9053  -25.2630   18.6939 H   0  0  0  0  0  0
  -23.0573  -23.3007   22.4799 H   0  0  0  0  0  0
  -23.1891  -23.8949   20.8322 H   0  0  0  0  0  0
  -22.9774  -25.0212   22.1706 H   0  0  0  0  0  0
  -24.5103  -22.0897   15.5227 H   0  0  0  0  0  0
  -23.8435  -20.7859   16.4093 H   0  0  0  0  0  0
  -25.9357  -19.5592   16.5028 H   0  0  0  0  0  0
  -25.7734  -20.0218   14.8354 H   0  0  0  0  0  0
  -29.9233  -21.4013   16.9760 H   0  0  0  0  0  0
  -28.8858  -22.6802   17.6300 H   0  0  0  0  0  0
  -29.9203  -17.1821   21.9946 H   0  0  0  0  0  0
  -30.7671  -17.0249   20.4882 H   0  0  0  0  0  0
  -27.1365  -25.7079   22.1647 H   0  0  0  0  0  0
  -27.7669  -24.1081   22.0660 H   0  0  0  0  0  0
  -30.3520  -21.7048   19.3769 H   0  0  0  0  0  0
  -29.6662  -20.1123   19.1132 H   0  0  0  0  0  0
  -28.5988  -18.2051   20.0933 H   0  0  0  0  0  0
  -27.7014  -16.8740   20.7843 H   0  0  0  0  0  0
  -29.0946  -24.7749   20.4285 H   0  0  0  0  0  0
  -27.7545  -24.8362   19.3620 H   0  0  0  0  0  0
  -29.6549  -20.4878   21.4282 H   0  0  0  0  0  0
  -29.4217  -22.2224   21.6279 H   0  0  0  0  0  0
  -28.1614  -18.0751   17.7438 H   0  0  0  0  0  0
  -28.2237  -16.5033   16.9834 H   0  0  0  0  0  0
  -27.1923  -21.8947   22.5549 H   0  0  0  0  0  0
  -28.3633  -20.9626   23.4506 H   0  0  0  0  0  0
  -26.0615  -15.8107   18.0222 H   0  0  0  0  0  0
  -25.9179  -17.2180   16.9963 H   0  0  0  0  0  0
  -26.1273  -19.6654   24.1469 H   0  0  0  0  0  0
  -25.3964  -20.7532   22.9763 H   0  0  0  0  0  0
  -24.1885  -18.6729   18.4048 H   0  0  0  0  0  0
  -23.9271  -16.9649   18.6319 H   0  0  0  0  0  0
  -23.9865  -18.8798   22.9715 H   0  0  0  0  0  0
  -25.3383  -17.7240   22.8016 H   0  0  0  0  0  0
  -24.1198  -17.0554   21.0001 H   0  0  0  0  0  0
  -23.0220  -18.3311   20.5932 H   0  0  0  0  0  0
  -27.4184  -20.3910   17.9019 H   0  0  0  0  0  0
  -29.0369  -14.8523   21.5854 H   0  0  0  0  0  0
  1 25  1  0  0  0
  1 30  2  0  0  0
  1 97  1  0  0  0
  2  3  1  0  0  0
  2 25  1  0  0  0
  2106  1  0  0  0
  2107  1  0  0  0
  3  4  1  0  0  0
  3108  1  0  0  0
  3109  1  0  0  0
  4  5  1  0  0  0
  4110  1  0  0  0
  4111  1  0  0  0
  5  6  1  0  0  0
  5 26  1  0  0  0
  5112  1  0  0  0
  6 25  1  0  0  0
  6113  1  0  0  0
  6114  1  0  0  0
  7  8  2  0  0  0
  7 26  1  0  0  0
  7 29  1  0  0  0
  8  9  1  0  0  0
  8 22  1  0  0  0
  9 10  1  0  0  0
  9 27  2  0  0  0
 10 11  2  0  0  0
 10 15  1  0  0  0
 11 12  1  0  0  0
 11115  1  0  0  0
 12 13  2  0  0  0
 12116  1  0  0  0
 13 14  1  0  0  0
 13 31  1  0  0  0
 14 15  2  0  0  0
 14117  1  0  0  0
 15118  1  0  0  0
 16 17  2  0  0  0
 16 21  1  0  0  0
 16 31  1  0  0  0
 17 18  1  0  0  0
 17119  1  0  0  0
 18 19  2  0  0  0
 18120  1  0  0  0
 19 20  1  0  0  0
 19 24  1  0  0  0
 20 21  2  0  0  0
 20121  1  0  0  0
 21 23  1  0  0  0
 22 28  1  0  0  0
 22 32  2  0  0  0
 26 27  1  0  0  0
 28122  1  0  0  0
 28123  1  0  0  0
 29124  1  0  0  0
 29125  1  0  0  0
 33 34  1  0  0  0
 33 66  1  0  0  0
 33 70  2  0  0  0
 34 36  1  0  0  0
 34 59  1  0  0  0
 34126  1  0  0  0
 35 44  2  0  0  0
 35 45  1  0  0  0
 35 68  1  0  0  0
 36 56  1  0  0  0
 36127  1  0  0  0
 37 39  1  0  0  0
 37 47  1  0  0  0
 37 66  1  0  0  0
 37128  1  0  0  0
 38 43  2  0  0  0
 38 46  1  0  0  0
 38 47  1  0  0  0
 39 64  1  0  0  0
 39 67  2  0  0  0
 40 52  1  0  0  0
 40 53  2  0  0  0
 40 58  1  0  0  0
 41129  1  0  0  0
 41130  1  0  0  0
 41131  1  0  0  0
 41 48  1  0  0  0
 42 43  1  0  0  0
 42 66  1  0  0  0
 42132  1  0  0  0
 42133  1  0  0  0
 43 44  1  0  0  0
 44134  1  0  0  0
 45 46  2  0  0  0
 45135  1  0  0  0
 46136  1  0  0  0
 47137  1  0  0  0
 47138  1  0  0  0
 48 56  1  0  0  0
 48 65  1  0  0  0
 48139  1  0  0  0
 49 50  1  0  0  0
 49 53  1  0  0  0
 49 64  1  0  0  0
 49140  1  0  0  0
 50 51  1  0  0  0
 50141  1  0  0  0
 50142  1  0  0  0
 51 52  1  0  0  0
 51143  1  0  0  0
 51144  1  0  0  0
 52145  1  0  0  0
 52146  1  0  0  0
 53 54  1  0  0  0
 54 55  2  0  0  0
 54147  1  0  0  0
 55 57  1  0  0  0
 55148  1  0  0  0
 56 69  2  0  0  0
 57 58  2  0  0  0
 57149  1  0  0  0
 58150  1  0  0  0
 59 60  1  0  0  0
 59 61  1  0  0  0
 59 62  1  0  0  0
 60151  1  0  0  0
 60152  1  0  0  0
 60153  1  0  0  0
 61154  1  0  0  0
 61155  1  0  0  0
 61156  1  0  0  0
 62157  1  0  0  0
 62158  1  0  0  0
 62159  1  0  0  0
 63 65  1  0  0  0
 63160  1  0  0  0
 63161  1  0  0  0
 63162  1  0  0  0
 64163  1  0  0  0
 65164  1  0  0  0
 68 87  1  0  0  0
 71 73  2  0  0  0
 71 75  1  0  0  0
 71165  1  0  0  0
 72 74  1  0  0  0
 72 75  2  0  0  0
 72166  1  0  0  0
 73 76  1  0  0  0
 73167  1  0  0  0
 74 76  2  0  0  0
 74168  1  0  0  0
 75 80  1  0  0  0
 76 98  1  0  0  0
 77 79  1  0  0  0
 77 98  1  0  0  0
 77 99  2  0  0  0
 78 81  1  0  0  0
 78 96  1  0  0  0
 78100  2  0  0  0
 79169  1  0  0  0
 79170  1  0  0  0
 79171  1  0  0  0
 80 81  1  0  0  0
 80172  1  0  0  0
 80173  1  0  0  0
 81174  1  0  0  0
 81175  1  0  0  0
 82 85  1  0  0  0
 82 96  1  0  0  0
 82176  1  0  0  0
 82177  1  0  0  0
 83 86  1  0  0  0
 83 97  1  0  0  0
 83178  1  0  0  0
 83179  1  0  0  0
 84 87  1  0  0  0
 84 98  1  0  0  0
 84180  1  0  0  0
 84181  1  0  0  0
 85101  1  0  0  0
 85182  1  0  0  0
 85183  1  0  0  0
 86102  1  0  0  0
 86184  1  0  0  0
 86185  1  0  0  0
 87186  1  0  0  0
 87187  1  0  0  0
 88 90  1  0  0  0
 88101  1  0  0  0
 88188  1  0  0  0
 88189  1  0  0  0
 89 91  1  0  0  0
 89102  1  0  0  0
 89190  1  0  0  0
 89191  1  0  0  0
 90103  1  0  0  0
 90192  1  0  0  0
 90193  1  0  0  0
 91104  1  0  0  0
 91194  1  0  0  0
 91195  1  0  0  0
 92 94  1  0  0  0
 92103  1  0  0  0
 92196  1  0  0  0
 92197  1  0  0  0
 93 95  1  0  0  0
 93104  1  0  0  0
 93198  1  0  0  0
 93199  1  0  0  0
 94105  1  0  0  0
 94200  1  0  0  0
 94201  1  0  0  0
 95105  1  0  0  0
 95202  1  0  0  0
 95203  1  0  0  0
 96204  1  0  0  0
 97205  1  0  0  0
M  ISO  4   1 100  68 101  87 101  97 100
M  END
> <chiral flag>
0

> <version>
0

> <s_m_source_file>
/data/baiqing/PycharmProjects/Reinvent-master-3.2/result/LINK_invent/BTK/process_docking_weight1_custom_sum_contain_oxygen_bond_distance_aromatic_linkinvent_7_9_3/rearranged_h_0000.sdf

> <i_m_source_file_index>
80

> <r_mmod_Potential_Energy-OPLS-2005>
-27.1345157623291

> <r_mmod_Stretch_Energy-OPLS-2005>
46.9189720153809

> <r_mmod_Bend_Energy-OPLS-2005>
149.310302734375

> <r_mmod_Torsional_Energy-OPLS-2005>
372.399841308594

> <r_mmod_Improper_Torsional_Energy-OPLS-2005>
7.77527761459351

> <r_mmod_Van_der_Waal_Energy-OPLS-2005>
134.312561035156

> <r_mmod_Electrostatic_Energy-OPLS-2005>
-525.130126953125

> <r_mmod_Solvation_Energy-OPLS-2005>
-255.098739624023

> <b_mmod_Minimization_Converged-OPLS-2005>
0

> <r_mmod_RMS_Derivative-OPLS-2005>
19.7928886413574

$$$$
83
                    3D
 Structure written by MMmdl.
171178  0  0  1  0            999 V2000
  -30.7365  -14.4100   20.6451 C   0  0  0  0  0  0
  -30.4273  -12.2961   19.4111 C   0  0  0  0  0  0
  -29.5018  -12.5300   18.2030 C   0  0  0  0  0  0
  -28.0165  -12.4152   18.6045 C   0  0  0  0  0  0
  -27.6707  -13.2155   19.8891 C   0  0  2  0  0  0
  -28.7115  -12.9503   20.9990 C   0  0  0  0  0  0
  -25.2624  -13.8190   20.5713 C   0  0  0  0  0  0
  -24.1862  -13.0443   20.9184 C   0  0  0  0  0  0
  -24.6431  -11.6918   20.8732 C   0  0  0  0  0  0
  -23.9088  -10.4298   21.0408 C   0  0  0  0  0  0
  -24.3642   -9.4206   21.9187 C   0  0  0  0  0  0
  -23.6315   -8.2245   22.0757 C   0  0  0  0  0  0
  -22.4288   -8.0288   21.3564 C   0  0  0  0  0  0
  -21.9927   -9.0260   20.4663 C   0  0  0  0  0  0
  -22.7263  -10.2129   20.3059 C   0  0  0  0  0  0
  -21.6854   -6.0750   22.5290 C   0  0  0  0  0  0
  -21.4028   -6.5649   23.8227 C   0  0  0  0  0  0
  -21.3663   -5.6791   24.9184 C   0  0  0  0  0  0
  -21.6048   -4.3059   24.7223 C   0  0  0  0  0  0
  -21.8819   -3.8157   23.4343 C   0  0  0  0  0  0
  -21.9197   -4.6983   22.3401 C   0  0  0  0  0  0
  -22.7885  -13.5234   21.1862 C   0  0  0  0  0  0
  -22.1665   -4.2173   21.0977 F   0  0  0  0  0  0
  -21.5618   -3.4533   25.7732 F   0  0  0  0  0  0
  -30.0444  -13.2590   20.4521 N   0  0  0  0  0  0
  -26.3086  -12.9374   20.3444 N   0  0  0  0  0  0
  -25.9365  -11.6523   20.5782 N   0  0  0  0  0  0
  -22.0508  -12.8220   22.0413 N   0  0  0  0  0  0
  -25.4300  -15.1923   20.4173 N   0  0  0  0  0  0
  -31.8544  -14.6132   20.1638 O   0  0  0  0  0  0
  -21.6653   -6.8891   21.4247 O   0  0  0  0  0  0
  -22.3565  -14.5545   20.6723 O   0  0  0  0  0  0
  -24.6170  -31.8722   23.2149 C   0  0  0  0  0  0
  -25.9065  -32.4845   23.8439 C   0  0  1  0  0  0
  -27.2368  -27.4690   20.0661 C   0  0  0  0  0  0
  -25.5929  -33.8649   24.2367 N   0  0  0  0  0  0
  -23.3997  -30.4997   21.5581 C   0  0  2  0  0  0
  -24.8422  -28.9807   20.1196 C   0  0  0  0  0  0
  -22.7425  -29.4654   22.5016 C   0  0  0  0  0  0
  -18.0266  -28.1337   22.8517 C   0  0  0  0  0  0
  -24.1463  -36.7324   23.2638 C   0  0  0  0  0  0
  -25.9284  -30.8543   21.3569 C   0  0  0  0  0  0
  -26.0056  -29.4891   20.7083 C   0  0  0  0  0  0
  -27.2037  -28.7397   20.6855 C   0  0  0  0  0  0
  -26.0420  -26.9763   19.4921 C   0  0  0  0  0  0
  -24.8520  -27.7186   19.5141 C   0  0  0  0  0  0
  -23.6081  -29.8465   20.1689 C   0  0  0  0  0  0
  -25.4072  -36.3120   24.0349 C   0  0  1  0  0  0
  -20.5860  -28.3606   23.1357 C   0  0  2  0  0  0
  -20.6737  -26.9336   22.5452 C   0  0  0  0  0  0
  -19.5713  -26.6342   21.5242 C   0  0  0  0  0  0
  -18.1893  -26.7890   22.1640 C   0  0  0  0  0  0
  -19.1518  -28.8796   23.2934 C   0  0  0  0  0  0
  -18.9436  -30.1410   23.8913 C   0  0  0  0  0  0
  -17.6442  -30.6557   24.0549 C   0  0  0  0  0  0
  -25.9016  -34.9491   23.5140 C   0  0  0  0  0  0
  -16.5330  -29.9053   23.6315 C   0  0  0  0  0  0
  -16.7255  -28.6459   23.0357 C   0  0  0  0  0  0
  -26.4499  -31.6592   25.0733 C   0  0  0  0  0  0
  -25.3780  -31.3660   26.1481 C   0  0  0  0  0  0
  -27.0297  -30.3039   24.6042 C   0  0  0  0  0  0
  -27.6076  -32.4299   25.7499 C   0  0  0  0  0  0
  -27.5559  -37.1804   24.8472 C   0  0  0  0  0  0
  -21.4149  -29.3001   22.3785 N   0  0  0  0  0  0
  -26.4248  -37.3811   23.9444 N   0  0  0  0  0  0
  -24.6681  -31.0852   22.1037 N   0  0  0  0  0  0
  -23.4209  -28.8187   23.3041 O   0  0  0  0  0  0
  -28.4295  -26.7695   20.0359 O   0  0  0  0  0  0
  -26.5571  -34.8950   22.4691 O   0  0  0  0  0  0
  -23.5369  -32.1441   23.7567 O   0  0  0  0  0  0
  -27.9898  -24.3404   19.7492 C   0  0  0  0  0  0
  -27.6397  -21.0507   16.1879 C   0  0  0  0  0  0
  -30.4506  -16.7298   21.6610 C   0  0  0  0  0  0
  -28.5515  -25.6490   19.1486 C   0  0  0  0  0  0
  -27.0761  -23.5520   18.7917 C   0  0  0  0  0  0
  -27.0430  -22.3293   16.7844 C   0  0  0  0  0  0
  -27.5848  -19.8857   17.1816 C   0  0  0  0  0  0
  -31.2148  -17.4870   20.5577 C   0  0  0  0  0  0
  -28.1153  -17.6166   17.4872 C   0  0  0  0  0  0
  -31.4168  -17.6108   18.1894 C   0  0  0  0  0  0
  -28.8536  -16.4288   16.8483 C   0  0  0  0  0  0
  -31.2576  -16.5858   17.0564 C   0  0  0  0  0  0
  -30.0685  -15.3484   21.3317 N   0  0  0  0  0  0
  -27.8291  -22.7530   17.8943 O   0  0  0  0  0  0
  -28.0649  -18.6995   16.5664 O   0  0  0  0  0  0
  -30.6638  -17.1431   19.2970 O   0  0  0  0  0  0
  -30.0970  -16.8173   16.2640 O   0  0  0  0  0  0
  -31.4730  -12.3993   19.1161 H   0  0  0  0  0  0
  -30.3200  -11.2769   19.7840 H   0  0  0  0  0  0
  -29.7309  -11.8226   17.4055 H   0  0  0  0  0  0
  -29.7021  -13.5170   17.7891 H   0  0  0  0  0  0
  -27.7865  -11.3598   18.7481 H   0  0  0  0  0  0
  -27.3860  -12.7566   17.7832 H   0  0  0  0  0  0
  -27.7251  -14.2745   19.6364 H   0  0  0  0  0  0
  -28.6818  -11.9034   21.3021 H   0  0  0  0  0  0
  -28.4737  -13.5112   21.9042 H   0  0  0  0  0  0
  -25.2783   -9.5688   22.4779 H   0  0  0  0  0  0
  -24.0036   -7.4633   22.7467 H   0  0  0  0  0  0
  -21.0861   -8.8770   19.8977 H   0  0  0  0  0  0
  -22.3714  -10.9674   19.6184 H   0  0  0  0  0  0
  -21.2019   -7.6157   23.9742 H   0  0  0  0  0  0
  -21.1499   -6.0518   25.9090 H   0  0  0  0  0  0
  -22.0598   -2.7622   23.2827 H   0  0  0  0  0  0
  -22.4071  -11.9832   22.4760 H   0  0  0  0  0  0
  -21.1156  -13.1310   22.2644 H   0  0  0  0  0  0
  -24.6624  -15.8446   20.5374 H   0  0  0  0  0  0
  -26.2944  -15.6473   20.1510 H   0  0  0  0  0  0
  -26.7160  -32.5562   23.1238 H   0  0  0  0  0  0
  -25.0146  -33.9832   25.0561 H   0  0  0  0  0  0
  -22.6849  -31.3148   21.4259 H   0  0  0  0  0  0
  -23.3722  -35.9666   23.3316 H   0  0  0  0  0  0
  -24.3583  -36.8914   22.2056 H   0  0  0  0  0  0
  -23.7220  -37.6538   23.6632 H   0  0  0  0  0  0
  -26.0249  -31.6213   20.5856 H   0  0  0  0  0  0
  -26.8232  -30.9176   21.9644 H   0  0  0  0  0  0
  -28.1084  -29.1432   21.1206 H   0  0  0  0  0  0
  -25.9900  -26.0198   19.0154 H   0  0  0  0  0  0
  -23.9575  -27.3181   19.0562 H   0  0  0  0  0  0
  -23.7214  -30.6279   19.4170 H   0  0  0  0  0  0
  -22.7307  -29.2744   19.8638 H   0  0  0  0  0  0
  -25.1241  -36.1988   25.0840 H   0  0  0  0  0  0
  -20.9930  -28.3127   24.1483 H   0  0  0  0  0  0
  -20.5608  -26.2201   23.3633 H   0  0  0  0  0  0
  -21.6612  -26.7365   22.1257 H   0  0  0  0  0  0
  -19.6854  -25.6257   21.1257 H   0  0  0  0  0  0
  -19.6651  -27.3175   20.6789 H   0  0  0  0  0  0
  -17.4175  -26.6700   21.4019 H   0  0  0  0  0  0
  -18.0229  -26.0005   22.8993 H   0  0  0  0  0  0
  -19.7916  -30.7228   24.2278 H   0  0  0  0  0  0
  -17.4988  -31.6238   24.5145 H   0  0  0  0  0  0
  -15.5326  -30.2960   23.7593 H   0  0  0  0  0  0
  -15.8661  -28.0771   22.7067 H   0  0  0  0  0  0
  -24.5996  -30.6952   25.7832 H   0  0  0  0  0  0
  -24.8926  -32.2786   26.4937 H   0  0  0  0  0  0
  -25.8164  -30.8851   27.0233 H   0  0  0  0  0  0
  -26.2819  -29.6845   24.1064 H   0  0  0  0  0  0
  -27.4065  -29.7218   25.4466 H   0  0  0  0  0  0
  -27.8661  -30.4377   23.9171 H   0  0  0  0  0  0
  -27.2708  -33.3615   26.2064 H   0  0  0  0  0  0
  -28.3889  -32.6828   25.0316 H   0  0  0  0  0  0
  -28.0730  -31.8415   26.5419 H   0  0  0  0  0  0
  -28.2577  -38.0103   24.7537 H   0  0  0  0  0  0
  -28.1036  -36.2640   24.6233 H   0  0  0  0  0  0
  -27.2306  -37.1398   25.8881 H   0  0  0  0  0  0
  -20.9255  -29.8782   21.7100 H   0  0  0  0  0  0
  -26.0135  -38.2882   24.1480 H   0  0  0  0  0  0
  -27.4251  -24.5786   20.6507 H   0  0  0  0  0  0
  -28.8059  -23.7006   20.0852 H   0  0  0  0  0  0
  -28.6682  -21.2327   15.8745 H   0  0  0  0  0  0
  -27.0855  -20.7836   15.2879 H   0  0  0  0  0  0
  -29.5252  -17.2680   21.8673 H   0  0  0  0  0  0
  -31.0235  -16.7433   22.5891 H   0  0  0  0  0  0
  -28.1070  -25.8789   18.1794 H   0  0  0  0  0  0
  -29.6127  -25.5100   18.9396 H   0  0  0  0  0  0
  -26.4446  -24.2211   18.2123 H   0  0  0  0  0  0
  -26.4063  -22.9075   19.3634 H   0  0  0  0  0  0
  -26.0061  -22.1433   17.0713 H   0  0  0  0  0  0
  -27.0234  -23.1302   16.0429 H   0  0  0  0  0  0
  -26.5630  -19.7337   17.5346 H   0  0  0  0  0  0
  -28.1964  -20.1305   18.0514 H   0  0  0  0  0  0
  -32.2723  -17.2204   20.6022 H   0  0  0  0  0  0
  -31.1525  -18.5670   20.7082 H   0  0  0  0  0  0
  -28.6016  -17.9267   18.4100 H   0  0  0  0  0  0
  -27.1049  -17.3170   17.7684 H   0  0  0  0  0  0
  -31.0916  -18.6088   17.8913 H   0  0  0  0  0  0
  -32.4776  -17.6859   18.4359 H   0  0  0  0  0  0
  -28.2391  -16.0164   16.0474 H   0  0  0  0  0  0
  -28.9807  -15.6291   17.5782 H   0  0  0  0  0  0
  -31.2826  -15.5624   17.4368 H   0  0  0  0  0  0
  -32.1173  -16.6715   16.3910 H   0  0  0  0  0  0
  -29.1467  -15.0715   21.6354 H   0  0  0  0  0  0
  1 25  1  0  0  0
  1 30  2  0  0  0
  1 83  1  0  0  0
  2  3  1  0  0  0
  2 25  1  0  0  0
  2 88  1  0  0  0
  2 89  1  0  0  0
  3  4  1  0  0  0
  3 90  1  0  0  0
  3 91  1  0  0  0
  4  5  1  0  0  0
  4 92  1  0  0  0
  4 93  1  0  0  0
  5  6  1  0  0  0
  5 26  1  0  0  0
  5 94  1  0  0  0
  6 25  1  0  0  0
  6 95  1  0  0  0
  6 96  1  0  0  0
  7  8  2  0  0  0
  7 26  1  0  0  0
  7 29  1  0  0  0
  8  9  1  0  0  0
  8 22  1  0  0  0
  9 10  1  0  0  0
  9 27  2  0  0  0
 10 11  2  0  0  0
 10 15  1  0  0  0
 11 12  1  0  0  0
 11 97  1  0  0  0
 12 13  2  0  0  0
 12 98  1  0  0  0
 13 14  1  0  0  0
 13 31  1  0  0  0
 14 15  2  0  0  0
 14 99  1  0  0  0
 15100  1  0  0  0
 16 17  2  0  0  0
 16 21  1  0  0  0
 16 31  1  0  0  0
 17 18  1  0  0  0
 17101  1  0  0  0
 18 19  2  0  0  0
 18102  1  0  0  0
 19 20  1  0  0  0
 19 24  1  0  0  0
 20 21  2  0  0  0
 20103  1  0  0  0
 21 23  1  0  0  0
 22 28  1  0  0  0
 22 32  2  0  0  0
 26 27  1  0  0  0
 28104  1  0  0  0
 28105  1  0  0  0
 29106  1  0  0  0
 29107  1  0  0  0
 33 34  1  0  0  0
 33 66  1  0  0  0
 33 70  2  0  0  0
 34 36  1  0  0  0
 34 59  1  0  0  0
 34108  1  0  0  0
 35 44  2  0  0  0
 35 45  1  0  0  0
 35 68  1  0  0  0
 36 56  1  0  0  0
 36109  1  0  0  0
 37 39  1  0  0  0
 37 47  1  0  0  0
 37 66  1  0  0  0
 37110  1  0  0  0
 38 43  2  0  0  0
 38 46  1  0  0  0
 38 47  1  0  0  0
 39 64  1  0  0  0
 39 67  2  0  0  0
 40 52  1  0  0  0
 40 53  2  0  0  0
 40 58  1  0  0  0
 41111  1  0  0  0
 41112  1  0  0  0
 41113  1  0  0  0
 41 48  1  0  0  0
 42 43  1  0  0  0
 42 66  1  0  0  0
 42114  1  0  0  0
 42115  1  0  0  0
 43 44  1  0  0  0
 44116  1  0  0  0
 45 46  2  0  0  0
 45117  1  0  0  0
 46118  1  0  0  0
 47119  1  0  0  0
 47120  1  0  0  0
 48 56  1  0  0  0
 48 65  1  0  0  0
 48121  1  0  0  0
 49 50  1  0  0  0
 49 53  1  0  0  0
 49 64  1  0  0  0
 49122  1  0  0  0
 50 51  1  0  0  0
 50123  1  0  0  0
 50124  1  0  0  0
 51 52  1  0  0  0
 51125  1  0  0  0
 51126  1  0  0  0
 52127  1  0  0  0
 52128  1  0  0  0
 53 54  1  0  0  0
 54 55  2  0  0  0
 54129  1  0  0  0
 55 57  1  0  0  0
 55130  1  0  0  0
 56 69  2  0  0  0
 57 58  2  0  0  0
 57131  1  0  0  0
 58132  1  0  0  0
 59 60  1  0  0  0
 59 61  1  0  0  0
 59 62  1  0  0  0
 60133  1  0  0  0
 60134  1  0  0  0
 60135  1  0  0  0
 61136  1  0  0  0
 61137  1  0  0  0
 61138  1  0  0  0
 62139  1  0  0  0
 62140  1  0  0  0
 62141  1  0  0  0
 63 65  1  0  0  0
 63142  1  0  0  0
 63143  1  0  0  0
 63144  1  0  0  0
 64145  1  0  0  0
 65146  1  0  0  0
 68 74  1  0  0  0
 71 74  1  0  0  0
 71 75  1  0  0  0
 71147  1  0  0  0
 71148  1  0  0  0
 72 76  1  0  0  0
 72 77  1  0  0  0
 72149  1  0  0  0
 72150  1  0  0  0
 73 78  1  0  0  0
 73 83  1  0  0  0
 73151  1  0  0  0
 73152  1  0  0  0
 74153  1  0  0  0
 74154  1  0  0  0
 75 84  1  0  0  0
 75155  1  0  0  0
 75156  1  0  0  0
 76 84  1  0  0  0
 76157  1  0  0  0
 76158  1  0  0  0
 77 85  1  0  0  0
 77159  1  0  0  0
 77160  1  0  0  0
 78 86  1  0  0  0
 78161  1  0  0  0
 78162  1  0  0  0
 79 81  1  0  0  0
 79 85  1  0  0  0
 79163  1  0  0  0
 79164  1  0  0  0
 80 82  1  0  0  0
 80 86  1  0  0  0
 80165  1  0  0  0
 80166  1  0  0  0
 81 87  1  0  0  0
 81167  1  0  0  0
 81168  1  0  0  0
 82 87  1  0  0  0
 82169  1  0  0  0
 82170  1  0  0  0
 83171  1  0  0  0
M  ISO  4   1 100  68 101  74 101  83 100
M  END
> <chiral flag>
0

> <version>
0

> <s_m_source_file>
/data/baiqing/PycharmProjects/Reinvent-master-3.2/result/LINK_invent/BTK/process_docking_weight1_custom_sum_contain_oxygen_bond_distance_aromatic_linkinvent_7_9_3/rearranged_h_0000.sdf

> <i_m_source_file_index>
81

> <r_mmod_Potential_Energy-OPLS-2005>
-117.463745117188

> <r_mmod_Stretch_Energy-OPLS-2005>
33.2541275024414

> <r_mmod_Bend_Energy-OPLS-2005>
105.837860107422

> <r_mmod_Torsional_Energy-OPLS-2005>
224.953109741211

> <r_mmod_Improper_Torsional_Energy-OPLS-2005>
2.01114058494568

> <r_mmod_Van_der_Waal_Energy-OPLS-2005>
140.583374023438

> <r_mmod_Electrostatic_Energy-OPLS-2005>
-400.868438720703

> <r_mmod_Solvation_Energy-OPLS-2005>
-233.200836181641

> <b_mmod_Minimization_Converged-OPLS-2005>
0

> <r_mmod_RMS_Derivative-OPLS-2005>
3.58788681030273

$$$$
84
                    3D
 Structure written by MMmdl.
168176  0  0  1  0            999 V2000
  -30.8060  -14.3010   20.7226 C   0  0  0  0  0  0
  -30.4159  -12.2783   19.3721 C   0  0  0  0  0  0
  -29.4776  -12.5368   18.1806 C   0  0  0  0  0  0
  -28.0047  -12.3900   18.6033 C   0  0  0  0  0  0
  -27.6715  -13.2012   19.8821 C   0  0  2  0  0  0
  -28.7108  -12.9253   20.9913 C   0  0  0  0  0  0
  -25.2631  -13.8158   20.5669 C   0  0  0  0  0  0
  -24.1860  -13.0439   20.9150 C   0  0  0  0  0  0
  -24.6408  -11.6905   20.8716 C   0  0  0  0  0  0
  -23.9066  -10.4293   21.0397 C   0  0  0  0  0  0
  -24.3617   -9.4210   21.9178 C   0  0  0  0  0  0
  -23.6289   -8.2248   22.0756 C   0  0  0  0  0  0
  -22.4273   -8.0286   21.3545 C   0  0  0  0  0  0
  -21.9906   -9.0260   20.4649 C   0  0  0  0  0  0
  -22.7236  -10.2137   20.3052 C   0  0  0  0  0  0
  -21.6851   -6.0737   22.5276 C   0  0  0  0  0  0
  -21.4015   -6.5639   23.8213 C   0  0  0  0  0  0
  -21.3658   -5.6793   24.9173 C   0  0  0  0  0  0
  -21.6043   -4.3055   24.7223 C   0  0  0  0  0  0
  -21.8820   -3.8150   23.4344 C   0  0  0  0  0  0
  -21.9194   -4.6962   22.3402 C   0  0  0  0  0  0
  -22.7889  -13.5247   21.1815 C   0  0  0  0  0  0
  -22.1661   -4.2151   21.0978 F   0  0  0  0  0  0
  -21.5629   -3.4538   25.7736 F   0  0  0  0  0  0
  -30.0621  -13.1986   20.4601 N   0  0  0  0  0  0
  -26.3078  -12.9319   20.3401 N   0  0  0  0  0  0
  -25.9338  -11.6481   20.5756 N   0  0  0  0  0  0
  -22.0527  -12.8249   22.0378 N   0  0  0  0  0  0
  -25.4357  -15.1868   20.4086 N   0  0  0  0  0  0
  -31.7548  -14.6720   20.0244 O   0  0  0  0  0  0
  -21.6638   -6.8881   21.4242 O   0  0  0  0  0  0
  -22.3573  -14.5552   20.6663 O   0  0  0  0  0  0
  -24.6105  -31.8696   23.2135 C   0  0  0  0  0  0
  -25.9003  -32.4836   23.8418 C   0  0  1  0  0  0
  -27.2339  -27.4650   20.0835 C   0  0  0  0  0  0
  -25.5875  -33.8632   24.2348 N   0  0  0  0  0  0
  -23.3970  -30.4953   21.5521 C   0  0  2  0  0  0
  -24.8425  -28.9667   20.1122 C   0  0  0  0  0  0
  -22.7380  -29.4662   22.4985 C   0  0  0  0  0  0
  -18.0266  -28.1354   22.8484 C   0  0  0  0  0  0
  -24.1494  -36.7339   23.2635 C   0  0  0  0  0  0
  -25.9227  -30.8437   21.3619 C   0  0  0  0  0  0
  -26.0001  -29.4818   20.7079 C   0  0  0  0  0  0
  -27.1981  -28.7386   20.6898 C   0  0  0  0  0  0
  -26.0612  -26.9613   19.4760 C   0  0  0  0  0  0
  -24.8669  -27.7046   19.4945 C   0  0  0  0  0  0
  -23.6042  -29.8308   20.1653 C   0  0  0  0  0  0
  -25.4111  -36.3125   24.0333 C   0  0  1  0  0  0
  -20.5844  -28.3674   23.1337 C   0  0  2  0  0  0
  -20.6788  -26.9463   22.5326 C   0  0  0  0  0  0
  -19.5737  -26.6379   21.5185 C   0  0  0  0  0  0
  -18.1928  -26.7887   22.1633 C   0  0  0  0  0  0
  -19.1503  -28.8819   23.2913 C   0  0  0  0  0  0
  -18.9422  -30.1414   23.8953 C   0  0  0  0  0  0
  -17.6422  -30.6549   24.0596 C   0  0  0  0  0  0
  -25.9035  -34.9484   23.5147 C   0  0  0  0  0  0
  -16.5326  -29.9061   23.6304 C   0  0  0  0  0  0
  -16.7249  -28.6480   23.0310 C   0  0  0  0  0  0
  -26.4448  -31.6592   25.0723 C   0  0  0  0  0  0
  -25.3723  -31.3687   26.1480 C   0  0  0  0  0  0
  -27.0259  -30.3037   24.6057 C   0  0  0  0  0  0
  -27.6039  -32.4294   25.7478 C   0  0  0  0  0  0
  -27.5584  -37.1822   24.8456 C   0  0  0  0  0  0
  -21.4096  -29.3092   22.3790 N   0  0  0  0  0  0
  -26.4301  -37.3807   23.9400 N   0  0  0  0  0  0
  -24.6617  -31.0823   22.1021 N   0  0  0  0  0  0
  -23.4174  -28.8123   23.2935 O   0  0  0  0  0  0
  -28.4197  -26.7678   20.0980 O   0  0  0  0  0  0
  -26.5602  -34.8932   22.4714 O   0  0  0  0  0  0
  -23.5307  -32.1429   23.7553 O   0  0  0  0  0  0
  -29.9741  -17.9727   23.7049 C   0  0  0  0  0  0
  -29.2025  -17.5230   21.4380 C   0  0  0  0  0  0
  -28.9939  -18.9720   23.8337 C   0  0  0  0  0  0
  -28.2203  -18.5239   21.5689 C   0  0  0  0  0  0
  -30.0742  -17.2339   22.5108 C   0  0  0  0  0  0
  -28.1046  -19.2508   22.7785 C   0  0  0  0  0  0
  -31.1016  -16.1230   22.3963 C   0  0  0  0  0  0
  -25.3466  -21.6451   22.5910 C   0  0  0  0  0  0
  -26.2259  -20.5412   22.0005 C   0  0  0  0  0  0
  -24.3356  -22.2369   21.6021 C   0  0  0  0  0  0
  -28.3702  -25.3406   20.1685 C   0  0  0  0  0  0
  -27.7117  -24.8389   21.4716 C   0  0  0  0  0  0
  -24.0107  -24.6208   21.8445 C   0  0  0  0  0  0
  -25.4500  -25.0178   22.2250 C   0  0  0  0  0  0
  -30.5017  -14.9045   21.8729 N   0  0  0  0  0  0
  -27.1673  -20.2262   23.0157 O   0  0  0  0  0  0
  -23.6358  -23.3009   22.2404 O   0  0  0  0  0  0
  -26.3432  -24.5366   21.2292 O   0  0  0  0  0  0
  -31.4571  -12.3839   19.0612 H   0  0  0  0  0  0
  -30.3155  -11.2484   19.7179 H   0  0  0  0  0  0
  -29.7027  -11.8450   17.3674 H   0  0  0  0  0  0
  -29.6498  -13.5398   17.7860 H   0  0  0  0  0  0
  -27.8083  -11.3305   18.7721 H   0  0  0  0  0  0
  -27.3492  -12.6937   17.7862 H   0  0  0  0  0  0
  -27.7360  -14.2582   19.6229 H   0  0  0  0  0  0
  -28.6605  -11.8809   21.3023 H   0  0  0  0  0  0
  -28.4589  -13.5040   21.8796 H   0  0  0  0  0  0
  -25.2768   -9.5681   22.4747 H   0  0  0  0  0  0
  -23.9997   -7.4642   22.7477 H   0  0  0  0  0  0
  -21.0838   -8.8779   19.8959 H   0  0  0  0  0  0
  -22.3699  -10.9673   19.6160 H   0  0  0  0  0  0
  -21.2007   -7.6150   23.9714 H   0  0  0  0  0  0
  -21.1477   -6.0523   25.9075 H   0  0  0  0  0  0
  -22.0601   -2.7611   23.2843 H   0  0  0  0  0  0
  -22.4144  -11.9914   22.4773 H   0  0  0  0  0  0
  -21.1147  -13.1283   22.2577 H   0  0  0  0  0  0
  -24.6751  -15.8467   20.5273 H   0  0  0  0  0  0
  -26.3035  -15.6271   20.1288 H   0  0  0  0  0  0
  -26.7067  -32.5569   23.1177 H   0  0  0  0  0  0
  -24.9990  -33.9803   25.0468 H   0  0  0  0  0  0
  -22.6841  -31.3108   21.4152 H   0  0  0  0  0  0
  -23.3744  -35.9688   23.3305 H   0  0  0  0  0  0
  -24.3597  -36.8956   22.2054 H   0  0  0  0  0  0
  -23.7264  -37.6552   23.6651 H   0  0  0  0  0  0
  -26.0325  -31.6095   20.5935 H   0  0  0  0  0  0
  -26.8119  -30.8981   21.9770 H   0  0  0  0  0  0
  -28.0949  -29.1306   21.1499 H   0  0  0  0  0  0
  -26.0531  -25.9971   18.9888 H   0  0  0  0  0  0
  -23.9793  -27.3057   19.0241 H   0  0  0  0  0  0
  -23.7127  -30.6094   19.4093 H   0  0  0  0  0  0
  -22.7287  -29.2521   19.8658 H   0  0  0  0  0  0
  -25.1285  -36.1997   25.0824 H   0  0  0  0  0  0
  -20.9918  -28.3193   24.1466 H   0  0  0  0  0  0
  -20.5950  -26.2227   23.3450 H   0  0  0  0  0  0
  -21.6584  -26.7740   22.0893 H   0  0  0  0  0  0
  -19.6950  -25.6282   21.1231 H   0  0  0  0  0  0
  -19.6638  -27.3166   20.6693 H   0  0  0  0  0  0
  -17.4189  -26.6578   21.4052 H   0  0  0  0  0  0
  -18.0383  -26.0035   22.9051 H   0  0  0  0  0  0
  -19.7893  -30.7201   24.2385 H   0  0  0  0  0  0
  -17.4959  -31.6213   24.5234 H   0  0  0  0  0  0
  -15.5321  -30.2963   23.7620 H   0  0  0  0  0  0
  -15.8635  -28.0832   22.6995 H   0  0  0  0  0  0
  -24.5889  -30.7036   25.7813 H   0  0  0  0  0  0
  -24.8912  -32.2845   26.4934 H   0  0  0  0  0  0
  -25.8085  -30.8846   27.0230 H   0  0  0  0  0  0
  -26.2781  -29.6824   24.1096 H   0  0  0  0  0  0
  -27.4037  -29.7236   25.4491 H   0  0  0  0  0  0
  -27.8631  -30.4372   23.9191 H   0  0  0  0  0  0
  -27.2655  -33.3575   26.2093 H   0  0  0  0  0  0
  -28.3816  -32.6875   25.0275 H   0  0  0  0  0  0
  -28.0727  -31.8384   26.5357 H   0  0  0  0  0  0
  -28.2592  -38.0125   24.7491 H   0  0  0  0  0  0
  -28.1080  -36.2656   24.6274 H   0  0  0  0  0  0
  -27.2298  -37.1444   25.8856 H   0  0  0  0  0  0
  -20.9244  -29.8938   21.7126 H   0  0  0  0  0  0
  -26.0195  -38.2893   24.1386 H   0  0  0  0  0  0
  -30.6362  -17.7681   24.5349 H   0  0  0  0  0  0
  -29.2777  -16.9717   20.5107 H   0  0  0  0  0  0
  -28.9171  -19.5258   24.7584 H   0  0  0  0  0  0
  -27.5652  -18.7094   20.7300 H   0  0  0  0  0  0
  -31.5227  -15.8986   23.3774 H   0  0  0  0  0  0
  -31.9310  -16.4730   21.7793 H   0  0  0  0  0  0
  -26.0036  -22.4300   22.9581 H   0  0  0  0  0  0
  -24.8163  -21.2591   23.4626 H   0  0  0  0  0  0
  -26.7350  -20.9005   21.1040 H   0  0  0  0  0  0
  -25.6243  -19.6691   21.7359 H   0  0  0  0  0  0
  -23.6113  -21.4688   21.3305 H   0  0  0  0  0  0
  -24.8135  -22.5510   20.6726 H   0  0  0  0  0  0
  -27.9215  -24.8906   19.2817 H   0  0  0  0  0  0
  -29.4083  -25.0097   20.1619 H   0  0  0  0  0  0
  -28.1955  -23.9188   21.7992 H   0  0  0  0  0  0
  -27.8578  -25.5654   22.2731 H   0  0  0  0  0  0
  -23.8298  -24.7771   20.7798 H   0  0  0  0  0  0
  -23.3297  -25.2897   22.3683 H   0  0  0  0  0  0
  -25.7128  -24.6560   23.2201 H   0  0  0  0  0  0
  -25.5200  -26.1071   22.2556 H   0  0  0  0  0  0
  -29.7596  -14.4916   22.4169 H   0  0  0  0  0  0
  1 25  1  0  0  0
  1 30  2  0  0  0
  1 85  1  0  0  0
  2  3  1  0  0  0
  2 25  1  0  0  0
  2 89  1  0  0  0
  2 90  1  0  0  0
  3  4  1  0  0  0
  3 91  1  0  0  0
  3 92  1  0  0  0
  4  5  1  0  0  0
  4 93  1  0  0  0
  4 94  1  0  0  0
  5  6  1  0  0  0
  5 26  1  0  0  0
  5 95  1  0  0  0
  6 25  1  0  0  0
  6 96  1  0  0  0
  6 97  1  0  0  0
  7  8  2  0  0  0
  7 26  1  0  0  0
  7 29  1  0  0  0
  8  9  1  0  0  0
  8 22  1  0  0  0
  9 10  1  0  0  0
  9 27  2  0  0  0
 10 11  2  0  0  0
 10 15  1  0  0  0
 11 12  1  0  0  0
 11 98  1  0  0  0
 12 13  2  0  0  0
 12 99  1  0  0  0
 13 14  1  0  0  0
 13 31  1  0  0  0
 14 15  2  0  0  0
 14100  1  0  0  0
 15101  1  0  0  0
 16 17  2  0  0  0
 16 21  1  0  0  0
 16 31  1  0  0  0
 17 18  1  0  0  0
 17102  1  0  0  0
 18 19  2  0  0  0
 18103  1  0  0  0
 19 20  1  0  0  0
 19 24  1  0  0  0
 20 21  2  0  0  0
 20104  1  0  0  0
 21 23  1  0  0  0
 22 28  1  0  0  0
 22 32  2  0  0  0
 26 27  1  0  0  0
 28105  1  0  0  0
 28106  1  0  0  0
 29107  1  0  0  0
 29108  1  0  0  0
 33 34  1  0  0  0
 33 66  1  0  0  0
 33 70  2  0  0  0
 34 36  1  0  0  0
 34 59  1  0  0  0
 34109  1  0  0  0
 35 44  2  0  0  0
 35 45  1  0  0  0
 35 68  1  0  0  0
 36 56  1  0  0  0
 36110  1  0  0  0
 37 39  1  0  0  0
 37 47  1  0  0  0
 37 66  1  0  0  0
 37111  1  0  0  0
 38 43  2  0  0  0
 38 46  1  0  0  0
 38 47  1  0  0  0
 39 64  1  0  0  0
 39 67  2  0  0  0
 40 52  1  0  0  0
 40 53  2  0  0  0
 40 58  1  0  0  0
 41112  1  0  0  0
 41113  1  0  0  0
 41114  1  0  0  0
 41 48  1  0  0  0
 42 43  1  0  0  0
 42 66  1  0  0  0
 42115  1  0  0  0
 42116  1  0  0  0
 43 44  1  0  0  0
 44117  1  0  0  0
 45 46  2  0  0  0
 45118  1  0  0  0
 46119  1  0  0  0
 47120  1  0  0  0
 47121  1  0  0  0
 48 56  1  0  0  0
 48 65  1  0  0  0
 48122  1  0  0  0
 49 50  1  0  0  0
 49 53  1  0  0  0
 49 64  1  0  0  0
 49123  1  0  0  0
 50 51  1  0  0  0
 50124  1  0  0  0
 50125  1  0  0  0
 51 52  1  0  0  0
 51126  1  0  0  0
 51127  1  0  0  0
 52128  1  0  0  0
 52129  1  0  0  0
 53 54  1  0  0  0
 54 55  2  0  0  0
 54130  1  0  0  0
 55 57  1  0  0  0
 55131  1  0  0  0
 56 69  2  0  0  0
 57 58  2  0  0  0
 57132  1  0  0  0
 58133  1  0  0  0
 59 60  1  0  0  0
 59 61  1  0  0  0
 59 62  1  0  0  0
 60134  1  0  0  0
 60135  1  0  0  0
 60136  1  0  0  0
 61137  1  0  0  0
 61138  1  0  0  0
 61139  1  0  0  0
 62140  1  0  0  0
 62141  1  0  0  0
 62142  1  0  0  0
 63 65  1  0  0  0
 63143  1  0  0  0
 63144  1  0  0  0
 63145  1  0  0  0
 64146  1  0  0  0
 65147  1  0  0  0
 68 81  1  0  0  0
 71 73  2  0  0  0
 71 75  1  0  0  0
 71148  1  0  0  0
 72 74  1  0  0  0
 72 75  2  0  0  0
 72149  1  0  0  0
 73 76  1  0  0  0
 73150  1  0  0  0
 74 76  2  0  0  0
 74151  1  0  0  0
 75 77  1  0  0  0
 76 86  1  0  0  0
 77 85  1  0  0  0
 77152  1  0  0  0
 77153  1  0  0  0
 78 79  1  0  0  0
 78 80  1  0  0  0
 78154  1  0  0  0
 78155  1  0  0  0
 79 86  1  0  0  0
 79156  1  0  0  0
 79157  1  0  0  0
 80 87  1  0  0  0
 80158  1  0  0  0
 80159  1  0  0  0
 81 82  1  0  0  0
 81160  1  0  0  0
 81161  1  0  0  0
 82 88  1  0  0  0
 82162  1  0  0  0
 82163  1  0  0  0
 83 84  1  0  0  0
 83 87  1  0  0  0
 83164  1  0  0  0
 83165  1  0  0  0
 84 88  1  0  0  0
 84166  1  0  0  0
 84167  1  0  0  0
 85168  1  0  0  0
M  ISO  4   1 100  68 101  81 101  85 100
M  END
> <chiral flag>
0

> <version>
0

> <s_m_source_file>
/data/baiqing/PycharmProjects/Reinvent-master-3.2/result/LINK_invent/BTK/process_docking_weight1_custom_sum_contain_oxygen_bond_distance_aromatic_linkinvent_7_9_3/rearranged_h_0000.sdf

> <i_m_source_file_index>
82

> <r_mmod_Potential_Energy-OPLS-2005>
-129.011947631836

> <r_mmod_Stretch_Energy-OPLS-2005>
32.0233039855957

> <r_mmod_Bend_Energy-OPLS-2005>
107.065971374512

> <r_mmod_Torsional_Energy-OPLS-2005>
201.458450317383

> <r_mmod_Improper_Torsional_Energy-OPLS-2005>
2.3113751411438

> <r_mmod_Van_der_Waal_Energy-OPLS-2005>
145.820892333984

> <r_mmod_Electrostatic_Energy-OPLS-2005>
-410.9033203125

> <r_mmod_Solvation_Energy-OPLS-2005>
-215.211135864258

> <b_mmod_Minimization_Converged-OPLS-2005>
0

> <r_mmod_RMS_Derivative-OPLS-2005>
1.58313500881195

$$$$
85
                    3D
 Structure written by MMmdl.
174182  0  0  1  0            999 V2000
  -29.8160  -17.4407   20.7103 C   0  0  0  0  0  0
  -30.2275  -14.4090   19.7731 C   0  0  0  0  0  0
  -29.6267  -13.3883   18.6417 C   0  0  0  0  0  0
  -28.3876  -12.6193   19.0866 C   0  0  0  0  0  0
  -27.5857  -13.6253   19.9170 C   0  0  2  0  0  0
  -28.3749  -14.5635   20.9926 C   0  0  0  0  0  0
  -25.1907  -13.8816   20.5969 C   0  0  0  0  0  0
  -24.1621  -13.0516   20.9272 C   0  0  0  0  0  0
  -24.6804  -11.7193   20.8647 C   0  0  0  0  0  0
  -23.9575  -10.4355   21.0251 C   0  0  0  0  0  0
  -24.3963   -9.4254   21.9101 C   0  0  0  0  0  0
  -23.6503   -8.2355   22.0742 C   0  0  0  0  0  0
  -22.4460   -8.0397   21.3550 C   0  0  0  0  0  0
  -22.0208   -9.0397   20.4620 C   0  0  0  0  0  0
  -22.7682  -10.2199   20.2957 C   0  0  0  0  0  0
  -21.6913   -6.0841   22.5289 C   0  0  0  0  0  0
  -21.4055   -6.5711   23.8229 C   0  0  0  0  0  0
  -21.3678   -5.6844   24.9168 C   0  0  0  0  0  0
  -21.6043   -4.3101   24.7201 C   0  0  0  0  0  0
  -21.8808   -3.8218   23.4301 C   0  0  0  0  0  0
  -21.9196   -4.7059   22.3378 C   0  0  0  0  0  0
  -22.7514  -13.4928   21.1864 C   0  0  0  0  0  0
  -22.1655   -4.2233   21.0962 F   0  0  0  0  0  0
  -21.5612   -3.4557   25.7713 F   0  0  0  0  0  0
  -29.3744  -15.6867   20.4587 N   0  0  0  0  0  0
  -26.2938  -13.0904   20.3815 N   0  0  0  0  0  0
  -25.9937  -11.7608   20.5680 N   0  0  0  0  0  0
  -22.0330  -12.7853   22.0490 N   0  0  0  0  0  0
  -25.2716  -15.2613   20.4348 N   0  0  0  0  0  0
  -31.0417  -17.0747   20.5071 O   0  0  0  0  0  0
  -21.6714   -6.9026   21.4272 O   0  0  0  0  0  0
  -22.3036  -14.5159   20.6676 O   0  0  0  0  0  0
  -24.7594  -30.3711   24.2101 C   0  0  0  0  0  0
  -25.8547  -31.7796   24.1943 C   0  0  1  0  0  0
  -26.9167  -26.6470   19.5404 C   0  0  0  0  0  0
  -25.4294  -33.3324   24.2380 N   0  0  0  0  0  0
  -23.6350  -29.1706   21.3215 C   0  0  2  0  0  0
  -25.1077  -28.6059   19.7872 C   0  0  0  0  0  0
  -22.5656  -28.6230   21.1274 C   0  0  0  0  0  0
  -18.6077  -29.2243   23.9804 C   0  0  0  0  0  0
  -24.1389  -36.4555   23.3040 C   0  0  0  0  0  0
  -25.2053  -28.1332   22.5557 C   0  0  0  0  0  0
  -25.5601  -27.9450   20.9299 C   0  0  0  0  0  0
  -26.2116  -26.8384   20.6626 C   0  0  0  0  0  0
  -26.3866  -27.2073   18.4263 C   0  0  0  0  0  0
  -25.3537  -28.1093   18.5448 C   0  0  0  0  0  0
  -24.1267  -29.5637   19.8866 C   0  0  0  0  0  0
  -25.3826  -35.9692   24.0784 C   0  0  1  0  0  0
  -20.0496  -28.5454   21.3299 C   0  0  2  0  0  0
  -20.7826  -26.8826   21.4356 C   0  0  0  0  0  0
  -21.6820  -26.7946   23.1712 C   0  0  0  0  0  0
  -19.7978  -28.5374   25.0271 C   0  0  0  0  0  0
  -19.0167  -29.4802   22.5607 C   0  0  0  0  0  0
  -18.5883  -30.8082   22.6065 C   0  0  0  0  0  0
  -17.3288  -31.1566   23.2255 C   0  0  0  0  0  0
  -25.8522  -34.5184   23.6030 C   0  0  0  0  0  0
  -16.5178  -30.1143   23.7273 C   0  0  0  0  0  0
  -17.2095  -28.9445   24.0213 C   0  0  0  0  0  0
  -26.7281  -31.5017   25.3851 C   0  0  0  0  0  0
  -25.8467  -31.3479   26.6473 C   0  0  0  0  0  0
  -27.4971  -30.2116   25.0307 C   0  0  0  0  0  0
  -27.7842  -32.5834   25.6793 C   0  0  0  0  0  0
  -27.5059  -37.0400   24.8614 C   0  0  0  0  0  0
  -21.2853  -29.1964   20.9550 N   0  0  0  0  0  0
  -26.3803  -37.0867   23.9393 N   0  0  0  0  0  0
  -24.4007  -29.1921   23.0589 N   0  0  0  0  0  0
  -23.0544  -27.5634   21.3161 O   0  0  0  0  0  0
  -27.4595  -25.4463   19.4234 O   0  0  0  0  0  0
  -26.6231  -34.5243   22.6359 O   0  0  0  0  0  0
  -23.8571  -31.0408   24.7801 O   0  0  0  0  0  0
  -21.9005  -27.3185   25.6658 C   0  0  0  0  0  0
  -22.2044  -28.5655   24.8153 C   0  0  0  0  0  0
  -20.8306  -26.2293   25.5040 C   0  0  0  0  0  0
  -19.6138  -27.2452   23.3632 C   0  0  0  0  0  0
  -21.4173  -29.0338   23.5092 C   0  0  0  0  0  0
  -19.7427  -26.0984   24.4286 C   0  0  0  0  0  0
  -26.4826  -24.3255   19.3035 C   0  0  0  0  0  0
  -24.6093  -31.2739   21.8880 C   0  0  0  0  0  0
  -24.8940  -24.5312   19.3782 C   0  0  0  0  0  0
  -24.1123  -24.2738   20.7380 C   0  0  0  0  0  0
  -28.1800  -25.2397   21.9759 C   0  0  0  0  0  0
  -27.7322  -28.0414   22.0793 C   0  0  0  0  0  0
  -22.6006  -23.7793   20.6630 C   0  0  0  0  0  0
  -28.8203  -22.6006   21.3257 C   0  0  0  0  0  0
  -19.3055  -24.2702   22.8324 C   0  0  0  0  0  0
  -20.5612  -23.5115   22.1584 C   0  0  0  0  0  0
  -22.7035  -30.7975   22.6682 N   0  0  0  0  0  0
  -26.3099  -30.1283   21.8356 N   0  0  0  0  0  0
  -26.8567  -23.1733   19.0950 O   0  0  0  0  0  0
  -24.7015  -32.3812   21.3517 O   0  0  0  0  0  0
  -19.3035  -24.7993   24.1945 O   0  0  0  0  0  0
  -28.9171  -20.1501   21.1632 O   0  0  0  0  0  0
  -21.7756  -24.2207   21.7789 O   0  0  0  0  0  0
  -31.0738  -14.8826   19.2774 H   0  0  0  0  0  0
  -30.6933  -13.8190   20.5684 H   0  0  0  0  0  0
  -30.3967  -12.6946   18.3090 H   0  0  0  0  0  0
  -29.3718  -13.9920   17.7691 H   0  0  0  0  0  0
  -28.6917  -11.7797   19.7173 H   0  0  0  0  0  0
  -27.8303  -12.2102   18.2423 H   0  0  0  0  0  0
  -27.2922  -14.3475   19.1525 H   0  0  0  0  0  0
  -28.8323  -13.9341   21.7615 H   0  0  0  0  0  0
  -27.6236  -15.1122   21.5601 H   0  0  0  0  0  0
  -25.3081   -9.5651   22.4704 H   0  0  0  0  0  0
  -24.0128   -7.4744   22.7520 H   0  0  0  0  0  0
  -21.1103   -8.8997   19.8922 H   0  0  0  0  0  0
  -22.4181  -10.9726   19.6021 H   0  0  0  0  0  0
  -21.2080   -7.6209   23.9759 H   0  0  0  0  0  0
  -21.1507   -6.0551   25.9074 H   0  0  0  0  0  0
  -22.0563   -2.7674   23.2781 H   0  0  0  0  0  0
  -22.4114  -11.9649   22.4951 H   0  0  0  0  0  0
  -21.0866  -13.0639   22.2585 H   0  0  0  0  0  0
  -24.4587  -15.8593   20.5356 H   0  0  0  0  0  0
  -26.1118  -15.7670   20.1870 H   0  0  0  0  0  0
  -26.5861  -31.8041   23.3959 H   0  0  0  0  0  0
  -24.7494  -33.4985   24.9639 H   0  0  0  0  0  0
  -23.1633  -30.0080   20.7869 H   0  0  0  0  0  0
  -23.3390  -35.7129   23.3496 H   0  0  0  0  0  0
  -24.3587  -36.6188   22.2468 H   0  0  0  0  0  0
  -23.7372  -37.3842   23.7179 H   0  0  0  0  0  0
  -24.7202  -27.1930   22.8020 H   0  0  0  0  0  0
  -25.9170  -28.0063   23.3675 H   0  0  0  0  0  0
  -26.1897  -26.1175   21.4544 H   0  0  0  0  0  0
  -26.6700  -26.8514   17.4524 H   0  0  0  0  0  0
  -24.9064  -28.5326   17.6548 H   0  0  0  0  0  0
  -24.6501  -30.4911   19.6209 H   0  0  0  0  0  0
  -23.4242  -29.4290   19.0377 H   0  0  0  0  0  0
  -25.1001  -35.8798   25.1290 H   0  0  0  0  0  0
  -20.6940  -28.1024   21.8292 H   0  0  0  0  0  0
  -21.3016  -26.4933   20.5533 H   0  0  0  0  0  0
  -20.0117  -26.1501   21.2795 H   0  0  0  0  0  0
  -22.7560  -26.8736   23.3202 H   0  0  0  0  0  0
  -21.7862  -25.7331   23.3791 H   0  0  0  0  0  0
  -19.2502  -28.0419   25.8413 H   0  0  0  0  0  0
  -20.1731  -29.4070   25.5812 H   0  0  0  0  0  0
  -19.0038  -31.5170   21.9105 H   0  0  0  0  0  0
  -16.8969  -32.1307   23.0650 H   0  0  0  0  0  0
  -15.4832  -30.2574   24.0160 H   0  0  0  0  0  0
  -16.7762  -28.1773   24.6577 H   0  0  0  0  0  0
  -25.3553  -30.3810   26.7474 H   0  0  0  0  0  0
  -25.0982  -32.1355   26.7489 H   0  0  0  0  0  0
  -26.4676  -31.4270   27.5372 H   0  0  0  0  0  0
  -26.9138  -29.2980   25.0814 H   0  0  0  0  0  0
  -28.2974  -30.0493   25.7548 H   0  0  0  0  0  0
  -27.9856  -30.2648   24.0588 H   0  0  0  0  0  0
  -27.3508  -33.5134   26.0429 H   0  0  0  0  0  0
  -28.3691  -32.8294   24.7932 H   0  0  0  0  0  0
  -28.4915  -32.2654   26.4471 H   0  0  0  0  0  0
  -28.1784  -37.8794   24.6654 H   0  0  0  0  0  0
  -28.0791  -36.1189   24.7570 H   0  0  0  0  0  0
  -27.1649  -37.0974   25.8973 H   0  0  0  0  0  0
  -21.2536  -30.2015   20.8577 H   0  0  0  0  0  0
  -25.9278  -37.9908   24.0430 H   0  0  0  0  0  0
  -22.5416  -27.2135   26.5317 H   0  0  0  0  0  0
  -22.9719  -29.1201   25.2885 H   0  0  0  0  0  0
  -20.9392  -25.3718   26.1601 H   0  0  0  0  0  0
  -18.7913  -27.0807   22.6670 H   0  0  0  0  0  0
  -24.4789  -23.8298   18.6543 H   0  0  0  0  0  0
  -24.5719  -25.4969   18.9892 H   0  0  0  0  0  0
  -24.1012  -25.2026   21.3044 H   0  0  0  0  0  0
  -24.6851  -23.5791   21.3518 H   0  0  0  0  0  0
  -27.9138  -25.0223   23.0157 H   0  0  0  0  0  0
  -29.2503  -25.4305   21.9972 H   0  0  0  0  0  0
  -28.5036  -28.3569   21.3746 H   0  0  0  0  0  0
  -28.1980  -28.2486   23.0432 H   0  0  0  0  0  0
  -22.6061  -22.6883   20.6013 H   0  0  0  0  0  0
  -22.1156  -24.1486   19.7531 H   0  0  0  0  0  0
  -28.7976  -22.7476   20.2485 H   0  0  0  0  0  0
  -29.8809  -22.6910   21.5664 H   0  0  0  0  0  0
  -18.5390  -23.4926   22.8876 H   0  0  0  0  0  0
  -18.7744  -24.9485   22.1763 H   0  0  0  0  0  0
  -20.1505  -23.1085   21.2289 H   0  0  0  0  0  0
  -20.8597  -22.6545   22.7697 H   0  0  0  0  0  0
  -22.0909  -31.5548   22.3815 H   0  0  0  0  0  0
  -26.9525  -30.7809   21.4066 H   0  0  0  0  0  0
  1 25  1  0  0  0
  1 30  2  0  0  0
  1 92  1  0  0  0
  2  3  1  0  0  0
  2 25  1  0  0  0
  2 94  1  0  0  0
  2 95  1  0  0  0
  3  4  1  0  0  0
  3 96  1  0  0  0
  3 97  1  0  0  0
  4  5  1  0  0  0
  4 98  1  0  0  0
  4 99  1  0  0  0
  5  6  1  0  0  0
  5 26  1  0  0  0
  5100  1  0  0  0
  6 25  1  0  0  0
  6101  1  0  0  0
  6102  1  0  0  0
  7  8  2  0  0  0
  7 26  1  0  0  0
  7 29  1  0  0  0
  8  9  1  0  0  0
  8 22  1  0  0  0
  9 10  1  0  0  0
  9 27  2  0  0  0
 10 11  2  0  0  0
 10 15  1  0  0  0
 11 12  1  0  0  0
 11103  1  0  0  0
 12 13  2  0  0  0
 12104  1  0  0  0
 13 14  1  0  0  0
 13 31  1  0  0  0
 14 15  2  0  0  0
 14105  1  0  0  0
 15106  1  0  0  0
 16 17  2  0  0  0
 16 21  1  0  0  0
 16 31  1  0  0  0
 17 18  1  0  0  0
 17107  1  0  0  0
 18 19  2  0  0  0
 18108  1  0  0  0
 19 20  1  0  0  0
 19 24  1  0  0  0
 20 21  2  0  0  0
 20109  1  0  0  0
 21 23  1  0  0  0
 22 28  1  0  0  0
 22 32  2  0  0  0
 26 27  1  0  0  0
 28110  1  0  0  0
 28111  1  0  0  0
 29112  1  0  0  0
 29113  1  0  0  0
 33 34  1  0  0  0
 33 66  1  0  0  0
 33 70  2  0  0  0
 34 36  1  0  0  0
 34 59  1  0  0  0
 34114  1  0  0  0
 35 44  2  0  0  0
 35 45  1  0  0  0
 35 68  1  0  0  0
 36 56  1  0  0  0
 36115  1  0  0  0
 37 39  1  0  0  0
 37 47  1  0  0  0
 37 66  1  0  0  0
 37116  1  0  0  0
 38 43  2  0  0  0
 38 46  1  0  0  0
 38 47  1  0  0  0
 39 64  1  0  0  0
 39 67  2  0  0  0
 40 52  1  0  0  0
 40 53  2  0  0  0
 40 58  1  0  0  0
 41117  1  0  0  0
 41118  1  0  0  0
 41119  1  0  0  0
 41 48  1  0  0  0
 42 43  1  0  0  0
 42 66  1  0  0  0
 42120  1  0  0  0
 42121  1  0  0  0
 43 44  1  0  0  0
 44122  1  0  0  0
 45 46  2  0  0  0
 45123  1  0  0  0
 46124  1  0  0  0
 47125  1  0  0  0
 47126  1  0  0  0
 48 56  1  0  0  0
 48 65  1  0  0  0
 48127  1  0  0  0
 49 50  1  0  0  0
 49 53  1  0  0  0
 49 64  1  0  0  0
 49128  1  0  0  0
 50 51  1  0  0  0
 50129  1  0  0  0
 50130  1  0  0  0
 51 52  1  0  0  0
 51131  1  0  0  0
 51132  1  0  0  0
 52133  1  0  0  0
 52134  1  0  0  0
 53 54  1  0  0  0
 54 55  2  0  0  0
 54135  1  0  0  0
 55 57  1  0  0  0
 55136  1  0  0  0
 56 69  2  0  0  0
 57 58  2  0  0  0
 57137  1  0  0  0
 58138  1  0  0  0
 59 60  1  0  0  0
 59 61  1  0  0  0
 59 62  1  0  0  0
 60139  1  0  0  0
 60140  1  0  0  0
 60141  1  0  0  0
 61142  1  0  0  0
 61143  1  0  0  0
 61144  1  0  0  0
 62145  1  0  0  0
 62146  1  0  0  0
 62147  1  0  0  0
 63 65  1  0  0  0
 63148  1  0  0  0
 63149  1  0  0  0
 63150  1  0  0  0
 64151  1  0  0  0
 65152  1  0  0  0
 68 77  1  0  0  0
 71 72  2  0  0  0
 71 73  1  0  0  0
 71153  1  0  0  0
 72 75  1  0  0  0
 72154  1  0  0  0
 73 76  2  0  0  0
 73155  1  0  0  0
 74 75  2  0  0  0
 74 76  1  0  0  0
 74156  1  0  0  0
 75 87  1  0  0  0
 76 91  1  0  0  0
 77 79  1  0  0  0
 77 89  2  0  0  0
 78 87  1  0  0  0
 78 88  1  0  0  0
 78 90  2  0  0  0
 79 80  1  0  0  0
 79157  1  0  0  0
 79158  1  0  0  0
 80 83  1  0  0  0
 80159  1  0  0  0
 80160  1  0  0  0
 81 82  1  0  0  0
 81 84  1  0  0  0
 81161  1  0  0  0
 81162  1  0  0  0
 82 88  1  0  0  0
 82163  1  0  0  0
 82164  1  0  0  0
 83 93  1  0  0  0
 83165  1  0  0  0
 83166  1  0  0  0
 84 92  1  0  0  0
 84167  1  0  0  0
 84168  1  0  0  0
 85 86  1  0  0  0
 85 91  1  0  0  0
 85169  1  0  0  0
 85170  1  0  0  0
 86 93  1  0  0  0
 86171  1  0  0  0
 86172  1  0  0  0
 87173  1  0  0  0
 88174  1  0  0  0
M  ISO  4   1 100  68 101  77 101  92 100
M  END
> <chiral flag>
0

> <version>
0

> <s_m_source_file>
/data/baiqing/PycharmProjects/Reinvent-master-3.2/result/LINK_invent/BTK/process_docking_weight1_custom_sum_contain_oxygen_bond_distance_aromatic_linkinvent_7_9_3/rearranged_h_0000.sdf

> <i_m_source_file_index>
83

> <r_mmod_Potential_Energy-OPLS-2005>
41079.21484375

> <r_mmod_Stretch_Energy-OPLS-2005>
20570.908203125

> <r_mmod_Bend_Energy-OPLS-2005>
3396.71655273438

> <r_mmod_Torsional_Energy-OPLS-2005>
691.992126464844

> <r_mmod_Improper_Torsional_Energy-OPLS-2005>
111.386489868164

> <r_mmod_Van_der_Waal_Energy-OPLS-2005>
5318.6083984375

> <r_mmod_Electrostatic_Energy-OPLS-2005>
-359.212615966797

> <r_mmod_Solvation_Energy-OPLS-2005>
-250.943115234375

> <b_mmod_Minimization_Converged-OPLS-2005>
0

> <r_mmod_RMS_Derivative-OPLS-2005>
18.7093696594238

$$$$
86
                    3D
 Structure written by MMmdl.
158166  0  0  1  0            999 V2000
  -30.7646  -14.3192   20.7183 C   0  0  0  0  0  0
  -30.4234  -12.2708   19.3872 C   0  0  0  0  0  0
  -29.4871  -12.5321   18.1917 C   0  0  0  0  0  0
  -28.0098  -12.3914   18.6044 C   0  0  0  0  0  0
  -27.6736  -13.1963   19.8862 C   0  0  2  0  0  0
  -28.7070  -12.8964   20.9961 C   0  0  0  0  0  0
  -25.2636  -13.8154   20.5646 C   0  0  0  0  0  0
  -24.1870  -13.0442   20.9164 C   0  0  0  0  0  0
  -24.6403  -11.6910   20.8728 C   0  0  0  0  0  0
  -23.9058  -10.4300   21.0405 C   0  0  0  0  0  0
  -24.3614   -9.4214   21.9179 C   0  0  0  0  0  0
  -23.6291   -8.2248   22.0745 C   0  0  0  0  0  0
  -22.4268   -8.0288   21.3540 C   0  0  0  0  0  0
  -21.9911   -9.0260   20.4644 C   0  0  0  0  0  0
  -22.7241  -10.2139   20.3054 C   0  0  0  0  0  0
  -21.6852   -6.0747   22.5280 C   0  0  0  0  0  0
  -21.4012   -6.5653   23.8217 C   0  0  0  0  0  0
  -21.3653   -5.6803   24.9178 C   0  0  0  0  0  0
  -21.6045   -4.3066   24.7222 C   0  0  0  0  0  0
  -21.8818   -3.8158   23.4345 C   0  0  0  0  0  0
  -21.9190   -4.6976   22.3405 C   0  0  0  0  0  0
  -22.7904  -13.5255   21.1855 C   0  0  0  0  0  0
  -22.1668   -4.2171   21.0982 F   0  0  0  0  0  0
  -21.5618   -3.4545   25.7731 F   0  0  0  0  0  0
  -30.0627  -13.1841   20.4774 N   0  0  0  0  0  0
  -26.3078  -12.9307   20.3382 N   0  0  0  0  0  0
  -25.9327  -11.6473   20.5746 N   0  0  0  0  0  0
  -22.0543  -12.8223   22.0400 N   0  0  0  0  0  0
  -25.4401  -15.1863   20.4059 N   0  0  0  0  0  0
  -31.7254  -14.6994   20.0412 O   0  0  0  0  0  0
  -21.6631   -6.8891   21.4241 O   0  0  0  0  0  0
  -22.3597  -14.5577   20.6738 O   0  0  0  0  0  0
  -24.6277  -31.8786   23.2224 C   0  0  0  0  0  0
  -25.9140  -32.4907   23.8507 C   0  0  1  0  0  0
  -27.2320  -27.4670   20.0833 C   0  0  0  0  0  0
  -25.5970  -33.8682   24.2430 N   0  0  0  0  0  0
  -23.4294  -30.5080   21.5742 C   0  0  2  0  0  0
  -24.8481  -28.9789   20.1170 C   0  0  0  0  0  0
  -22.7721  -29.4873   22.5245 C   0  0  0  0  0  0
  -17.9921  -28.1208   22.8729 C   0  0  0  0  0  0
  -24.1490  -36.7326   23.2638 C   0  0  0  0  0  0
  -25.9417  -30.8528   21.3652 C   0  0  0  0  0  0
  -26.0085  -29.4882   20.7130 C   0  0  0  0  0  0
  -27.2008  -28.7364   20.6967 C   0  0  0  0  0  0
  -26.0565  -26.9752   19.4667 C   0  0  0  0  0  0
  -24.8650  -27.7208   19.4926 C   0  0  0  0  0  0
  -23.6126  -29.8432   20.1824 C   0  0  0  0  0  0
  -25.4113  -36.3154   24.0349 C   0  0  1  0  0  0
  -20.4764  -28.4600   22.7820 C   0  0  2  0  0  0
  -20.6895  -26.9627   22.5331 C   0  0  0  0  0  0
  -19.5531  -26.4584   21.6176 C   0  0  0  0  0  0
  -18.1560  -26.7508   22.2091 C   0  0  0  0  0  0
  -19.1124  -28.8985   23.2532 C   0  0  0  0  0  0
  -18.9328  -30.1493   23.8788 C   0  0  0  0  0  0
  -17.6341  -30.6504   24.0816 C   0  0  0  0  0  0
  -25.9034  -34.9511   23.5169 C   0  0  0  0  0  0
  -16.5180  -29.8968   23.6749 C   0  0  0  0  0  0
  -16.6960  -28.6302   23.0873 C   0  0  0  0  0  0
  -26.4524  -31.6633   25.0794 C   0  0  0  0  0  0
  -25.3768  -31.3675   26.1509 C   0  0  0  0  0  0
  -27.0346  -30.3102   24.6097 C   0  0  0  0  0  0
  -27.6128  -32.4305   25.7548 C   0  0  0  0  0  0
  -27.5587  -37.1843   24.8483 C   0  0  0  0  0  0
  -21.4515  -29.4479   22.3999 N   0  0  0  0  0  0
  -26.4312  -37.3823   23.9403 N   0  0  0  0  0  0
  -24.6885  -31.0915   22.1138 N   0  0  0  0  0  0
  -23.4227  -28.7610   23.2771 O   0  0  0  0  0  0
  -28.4178  -26.7684   20.1108 O   0  0  0  0  0  0
  -26.5553  -34.8945   22.4705 O   0  0  0  0  0  0
  -23.5440  -32.1513   23.7588 O   0  0  0  0  0  0
  -25.5401  -21.7732   23.4607 C   0  0  0  0  0  0
  -26.0583  -20.4660   23.5194 C   0  0  0  0  0  0
  -26.1501  -22.7415   22.6400 C   0  0  0  0  0  0
  -27.7982  -21.0926   21.9429 C   0  0  0  0  0  0
  -27.1936  -20.1113   22.7649 C   0  0  0  0  0  0
  -27.2894  -22.4018   21.8707 C   0  0  0  0  0  0
  -29.0460  -16.9607   22.3773 C   0  0  0  0  0  0
  -30.4384  -16.4316   21.9968 C   0  0  0  0  0  0
  -28.9203  -18.4847   22.3453 C   0  0  0  0  0  0
  -28.3871  -25.3534   19.9222 C   0  0  0  0  0  0
  -27.5594  -24.6243   21.0006 C   0  0  0  0  0  0
  -30.3333  -14.9938   21.7859 N   0  0  0  0  0  0
  -27.6358  -18.8114   22.8664 O   0  0  0  0  0  0
  -27.9564  -23.2626   21.0285 O   0  0  0  0  0  0
  -31.4682  -12.3771   19.0865 H   0  0  0  0  0  0
  -30.3195  -11.2398   19.7329 H   0  0  0  0  0  0
  -29.7133  -11.8355   17.3843 H   0  0  0  0  0  0
  -29.6662  -13.5302   17.7902 H   0  0  0  0  0  0
  -27.8084  -11.3315   18.7691 H   0  0  0  0  0  0
  -27.3608  -12.7018   17.7841 H   0  0  0  0  0  0
  -27.7457  -14.2560   19.6378 H   0  0  0  0  0  0
  -28.6543  -11.8452   21.2834 H   0  0  0  0  0  0
  -28.4424  -13.4461   21.9007 H   0  0  0  0  0  0
  -25.2760   -9.5685   22.4754 H   0  0  0  0  0  0
  -24.0007   -7.4632   22.7451 H   0  0  0  0  0  0
  -21.0851   -8.8777   19.8945 H   0  0  0  0  0  0
  -22.3701  -10.9676   19.6161 H   0  0  0  0  0  0
  -21.2003   -7.6161   23.9726 H   0  0  0  0  0  0
  -21.1479   -6.0532   25.9082 H   0  0  0  0  0  0
  -22.0597   -2.7619   23.2833 H   0  0  0  0  0  0
  -22.4160  -11.9864   22.4754 H   0  0  0  0  0  0
  -21.1164  -13.1251   22.2624 H   0  0  0  0  0  0
  -24.6813  -15.8506   20.5144 H   0  0  0  0  0  0
  -26.3045  -15.6174   20.1025 H   0  0  0  0  0  0
  -26.7232  -32.5635   23.1293 H   0  0  0  0  0  0
  -25.0189  -33.9865   25.0620 H   0  0  0  0  0  0
  -22.7260  -31.3329   21.4366 H   0  0  0  0  0  0
  -23.3754  -35.9662   23.3348 H   0  0  0  0  0  0
  -24.3585  -36.8884   22.2047 H   0  0  0  0  0  0
  -23.7239  -37.6549   23.6600 H   0  0  0  0  0  0
  -26.0358  -31.6180   20.5928 H   0  0  0  0  0  0
  -26.8378  -30.9150   21.9697 H   0  0  0  0  0  0
  -28.0976  -29.1261   21.1581 H   0  0  0  0  0  0
  -26.0421  -26.0252   18.9545 H   0  0  0  0  0  0
  -23.9736  -27.3316   19.0206 H   0  0  0  0  0  0
  -23.7046  -30.6188   19.4211 H   0  0  0  0  0  0
  -22.7343  -29.2586   19.9025 H   0  0  0  0  0  0
  -25.1289  -36.2056   25.0844 H   0  0  0  0  0  0
  -20.1615  -28.6798   21.7609 H   0  0  0  0  0  0
  -20.6759  -26.4271   23.4835 H   0  0  0  0  0  0
  -21.6602  -26.7690   22.0749 H   0  0  0  0  0  0
  -19.6591  -25.3878   21.4417 H   0  0  0  0  0  0
  -19.6370  -26.9204   20.6329 H   0  0  0  0  0  0
  -17.3983  -26.6246   21.4336 H   0  0  0  0  0  0
  -17.9332  -26.0023   22.9706 H   0  0  0  0  0  0
  -19.7873  -30.7522   24.1547 H   0  0  0  0  0  0
  -17.4944  -31.6219   24.5366 H   0  0  0  0  0  0
  -15.5206  -30.2861   23.8283 H   0  0  0  0  0  0
  -15.8294  -28.0543   22.7918 H   0  0  0  0  0  0
  -24.5944  -30.7054   25.7782 H   0  0  0  0  0  0
  -24.8941  -32.2797   26.5027 H   0  0  0  0  0  0
  -25.8088  -30.8763   27.0235 H   0  0  0  0  0  0
  -26.2868  -29.6855   24.1202 H   0  0  0  0  0  0
  -27.4225  -29.7338   25.4508 H   0  0  0  0  0  0
  -27.8651  -30.4475   23.9168 H   0  0  0  0  0  0
  -27.2810  -33.3597   26.2192 H   0  0  0  0  0  0
  -28.3901  -32.6882   25.0338 H   0  0  0  0  0  0
  -28.0842  -31.8376   26.5400 H   0  0  0  0  0  0
  -28.2660  -38.0089   24.7486 H   0  0  0  0  0  0
  -28.1030  -36.2625   24.6372 H   0  0  0  0  0  0
  -27.2294  -37.1574   25.8886 H   0  0  0  0  0  0
  -21.0711  -30.1627   21.7953 H   0  0  0  0  0  0
  -26.0223  -38.2917   24.1365 H   0  0  0  0  0  0
  -24.6717  -22.0324   24.0504 H   0  0  0  0  0  0
  -25.5839  -19.7315   24.1544 H   0  0  0  0  0  0
  -25.7216  -23.7325   22.6198 H   0  0  0  0  0  0
  -28.6657  -20.8743   21.3414 H   0  0  0  0  0  0
  -28.7811  -16.5959   23.3712 H   0  0  0  0  0  0
  -28.2997  -16.5496   21.6957 H   0  0  0  0  0  0
  -31.1625  -16.6449   22.7856 H   0  0  0  0  0  0
  -30.7955  -16.9282   21.0922 H   0  0  0  0  0  0
  -29.0402  -18.8052   21.3105 H   0  0  0  0  0  0
  -29.6982  -18.9586   22.9483 H   0  0  0  0  0  0
  -28.0740  -25.0852   18.9125 H   0  0  0  0  0  0
  -29.4214  -25.0223   20.0040 H   0  0  0  0  0  0
  -26.4956  -24.7051   20.7798 H   0  0  0  0  0  0
  -27.7390  -25.0701   21.9806 H   0  0  0  0  0  0
  -29.6456  -14.5065   22.3432 H   0  0  0  0  0  0
  1 25  1  0  0  0
  1 30  2  0  0  0
  1 82  1  0  0  0
  2  3  1  0  0  0
  2 25  1  0  0  0
  2 85  1  0  0  0
  2 86  1  0  0  0
  3  4  1  0  0  0
  3 87  1  0  0  0
  3 88  1  0  0  0
  4  5  1  0  0  0
  4 89  1  0  0  0
  4 90  1  0  0  0
  5  6  1  0  0  0
  5 26  1  0  0  0
  5 91  1  0  0  0
  6 25  1  0  0  0
  6 92  1  0  0  0
  6 93  1  0  0  0
  7  8  2  0  0  0
  7 26  1  0  0  0
  7 29  1  0  0  0
  8  9  1  0  0  0
  8 22  1  0  0  0
  9 10  1  0  0  0
  9 27  2  0  0  0
 10 11  2  0  0  0
 10 15  1  0  0  0
 11 12  1  0  0  0
 11 94  1  0  0  0
 12 13  2  0  0  0
 12 95  1  0  0  0
 13 14  1  0  0  0
 13 31  1  0  0  0
 14 15  2  0  0  0
 14 96  1  0  0  0
 15 97  1  0  0  0
 16 17  2  0  0  0
 16 21  1  0  0  0
 16 31  1  0  0  0
 17 18  1  0  0  0
 17 98  1  0  0  0
 18 19  2  0  0  0
 18 99  1  0  0  0
 19 20  1  0  0  0
 19 24  1  0  0  0
 20 21  2  0  0  0
 20100  1  0  0  0
 21 23  1  0  0  0
 22 28  1  0  0  0
 22 32  2  0  0  0
 26 27  1  0  0  0
 28101  1  0  0  0
 28102  1  0  0  0
 29103  1  0  0  0
 29104  1  0  0  0
 33 34  1  0  0  0
 33 66  1  0  0  0
 33 70  2  0  0  0
 34 36  1  0  0  0
 34 59  1  0  0  0
 34105  1  0  0  0
 35 44  2  0  0  0
 35 45  1  0  0  0
 35 68  1  0  0  0
 36 56  1  0  0  0
 36106  1  0  0  0
 37 39  1  0  0  0
 37 47  1  0  0  0
 37 66  1  0  0  0
 37107  1  0  0  0
 38 43  2  0  0  0
 38 46  1  0  0  0
 38 47  1  0  0  0
 39 64  1  0  0  0
 39 67  2  0  0  0
 40 52  1  0  0  0
 40 53  2  0  0  0
 40 58  1  0  0  0
 41108  1  0  0  0
 41109  1  0  0  0
 41110  1  0  0  0
 41 48  1  0  0  0
 42 43  1  0  0  0
 42 66  1  0  0  0
 42111  1  0  0  0
 42112  1  0  0  0
 43 44  1  0  0  0
 44113  1  0  0  0
 45 46  2  0  0  0
 45114  1  0  0  0
 46115  1  0  0  0
 47116  1  0  0  0
 47117  1  0  0  0
 48 56  1  0  0  0
 48 65  1  0  0  0
 48118  1  0  0  0
 49 50  1  0  0  0
 49 53  1  0  0  0
 49 64  1  0  0  0
 49119  1  0  0  0
 50 51  1  0  0  0
 50120  1  0  0  0
 50121  1  0  0  0
 51 52  1  0  0  0
 51122  1  0  0  0
 51123  1  0  0  0
 52124  1  0  0  0
 52125  1  0  0  0
 53 54  1  0  0  0
 54 55  2  0  0  0
 54126  1  0  0  0
 55 57  1  0  0  0
 55127  1  0  0  0
 56 69  2  0  0  0
 57 58  2  0  0  0
 57128  1  0  0  0
 58129  1  0  0  0
 59 60  1  0  0  0
 59 61  1  0  0  0
 59 62  1  0  0  0
 60130  1  0  0  0
 60131  1  0  0  0
 60132  1  0  0  0
 61133  1  0  0  0
 61134  1  0  0  0
 61135  1  0  0  0
 62136  1  0  0  0
 62137  1  0  0  0
 62138  1  0  0  0
 63 65  1  0  0  0
 63139  1  0  0  0
 63140  1  0  0  0
 63141  1  0  0  0
 64142  1  0  0  0
 65143  1  0  0  0
 68 80  1  0  0  0
 71 72  2  0  0  0
 71 73  1  0  0  0
 71144  1  0  0  0
 72 75  1  0  0  0
 72145  1  0  0  0
 73 76  2  0  0  0
 73146  1  0  0  0
 74 75  2  0  0  0
 74 76  1  0  0  0
 74147  1  0  0  0
 75 83  1  0  0  0
 76 84  1  0  0  0
 77 78  1  0  0  0
 77 79  1  0  0  0
 77148  1  0  0  0
 77149  1  0  0  0
 78 82  1  0  0  0
 78150  1  0  0  0
 78151  1  0  0  0
 79 83  1  0  0  0
 79152  1  0  0  0
 79153  1  0  0  0
 80 81  1  0  0  0
 80154  1  0  0  0
 80155  1  0  0  0
 81 84  1  0  0  0
 81156  1  0  0  0
 81157  1  0  0  0
 82158  1  0  0  0
M  ISO  4   1 100  68 101  80 101  82 100
M  END
> <chiral flag>
0

> <version>
0

> <s_m_source_file>
/data/baiqing/PycharmProjects/Reinvent-master-3.2/result/LINK_invent/BTK/process_docking_weight1_custom_sum_contain_oxygen_bond_distance_aromatic_linkinvent_7_9_3/rearranged_h_0000.sdf

> <i_m_source_file_index>
84

> <r_mmod_Potential_Energy-OPLS-2005>
75.7892379760742

> <r_mmod_Stretch_Energy-OPLS-2005>
28.867654800415

> <r_mmod_Bend_Energy-OPLS-2005>
210.260223388672

> <r_mmod_Torsional_Energy-OPLS-2005>
202.917755126953

> <r_mmod_Improper_Torsional_Energy-OPLS-2005>
4.19111490249634

> <r_mmod_Van_der_Waal_Energy-OPLS-2005>
174.394638061523

> <r_mmod_Electrostatic_Energy-OPLS-2005>
-353.052978515625

> <r_mmod_Solvation_Energy-OPLS-2005>
-220.696762084961

> <b_mmod_Minimization_Converged-OPLS-2005>
0

> <r_mmod_RMS_Derivative-OPLS-2005>
2.42649555206299

$$$$
87
                    3D
 Structure written by MMmdl.
179187  0  0  1  0            999 V2000
  -30.7429  -14.3987   20.6250 C   0  0  0  0  0  0
  -30.4148  -12.2797   19.4029 C   0  0  0  0  0  0
  -29.4855  -12.5161   18.1970 C   0  0  0  0  0  0
  -28.0084  -12.3783   18.6135 C   0  0  0  0  0  0
  -27.6675  -13.2031   19.8838 C   0  0  2  0  0  0
  -28.7119  -12.9574   20.9979 C   0  0  0  0  0  0
  -25.2614  -13.8149   20.5690 C   0  0  0  0  0  0
  -24.1862  -13.0438   20.9175 C   0  0  0  0  0  0
  -24.6405  -11.6897   20.8730 C   0  0  0  0  0  0
  -23.9060  -10.4291   21.0394 C   0  0  0  0  0  0
  -24.3608   -9.4213   21.9174 C   0  0  0  0  0  0
  -23.6291   -8.2245   22.0748 C   0  0  0  0  0  0
  -22.4274   -8.0279   21.3538 C   0  0  0  0  0  0
  -21.9903   -9.0251   20.4640 C   0  0  0  0  0  0
  -22.7223  -10.2133   20.3050 C   0  0  0  0  0  0
  -21.6853   -6.0737   22.5277 C   0  0  0  0  0  0
  -21.4011   -6.5640   23.8209 C   0  0  0  0  0  0
  -21.3665   -5.6794   24.9174 C   0  0  0  0  0  0
  -21.6047   -4.3058   24.7222 C   0  0  0  0  0  0
  -21.8819   -3.8146   23.4344 C   0  0  0  0  0  0
  -21.9194   -4.6965   22.3401 C   0  0  0  0  0  0
  -22.7887  -13.5232   21.1841 C   0  0  0  0  0  0
  -22.1662   -4.2150   21.0980 F   0  0  0  0  0  0
  -21.5637   -3.4542   25.7737 F   0  0  0  0  0  0
  -30.0443  -13.2468   20.4461 N   0  0  0  0  0  0
  -26.3066  -12.9328   20.3420 N   0  0  0  0  0  0
  -25.9336  -11.6487   20.5777 N   0  0  0  0  0  0
  -22.0521  -12.8225   22.0402 N   0  0  0  0  0  0
  -25.4348  -15.1872   20.4103 N   0  0  0  0  0  0
  -31.8345  -14.5814   20.0730 O   0  0  0  0  0  0
  -21.6638   -6.8875   21.4234 O   0  0  0  0  0  0
  -22.3579  -14.5548   20.6703 O   0  0  0  0  0  0
  -24.6109  -31.8704   23.2139 C   0  0  0  0  0  0
  -25.9019  -32.4834   23.8418 C   0  0  1  0  0  0
  -27.2261  -27.4677   20.0860 C   0  0  0  0  0  0
  -25.5880  -33.8631   24.2345 N   0  0  0  0  0  0
  -23.3967  -30.4954   21.5531 C   0  0  2  0  0  0
  -24.8426  -28.9709   20.1111 C   0  0  0  0  0  0
  -22.7381  -29.4671   22.5007 C   0  0  0  0  0  0
  -18.0259  -28.1373   22.8487 C   0  0  0  0  0  0
  -24.1488  -36.7331   23.2633 C   0  0  0  0  0  0
  -25.9227  -30.8455   21.3643 C   0  0  0  0  0  0
  -26.0009  -29.4833   20.7106 C   0  0  0  0  0  0
  -27.1978  -28.7348   20.7037 C   0  0  0  0  0  0
  -26.0631  -26.9760   19.4575 C   0  0  0  0  0  0
  -24.8665  -27.7138   19.4828 C   0  0  0  0  0  0
  -23.6015  -29.8306   20.1659 C   0  0  0  0  0  0
  -25.4098  -36.3114   24.0339 C   0  0  1  0  0  0
  -20.5844  -28.3659   23.1325 C   0  0  2  0  0  0
  -20.6754  -26.9404   22.5406 C   0  0  0  0  0  0
  -19.5738  -26.6379   21.5195 C   0  0  0  0  0  0
  -18.1914  -26.7918   22.1609 C   0  0  0  0  0  0
  -19.1506  -28.8830   23.2904 C   0  0  0  0  0  0
  -18.9437  -30.1436   23.8919 C   0  0  0  0  0  0
  -17.6444  -30.6583   24.0569 C   0  0  0  0  0  0
  -25.9025  -34.9476   23.5143 C   0  0  0  0  0  0
  -16.5332  -29.9088   23.6329 C   0  0  0  0  0  0
  -16.7250  -28.6501   23.0350 C   0  0  0  0  0  0
  -26.4451  -31.6602   25.0736 C   0  0  0  0  0  0
  -25.3731  -31.3711   26.1499 C   0  0  0  0  0  0
  -27.0289  -30.3052   24.6098 C   0  0  0  0  0  0
  -27.6039  -32.4322   25.7484 C   0  0  0  0  0  0
  -27.5582  -37.1799   24.8453 C   0  0  0  0  0  0
  -21.4114  -29.3041   22.3745 N   0  0  0  0  0  0
  -26.4289  -37.3787   23.9410 N   0  0  0  0  0  0
  -24.6614  -31.0822   22.1034 N   0  0  0  0  0  0
  -23.4161  -28.8207   23.3033 O   0  0  0  0  0  0
  -28.3730  -26.7166   20.0971 O   0  0  0  0  0  0
  -26.5582  -34.8922   22.4701 O   0  0  0  0  0  0
  -23.5314  -32.1450   23.7553 O   0  0  0  0  0  0
  -30.6600  -17.6164   19.9836 C   0  0  0  0  0  0
  -30.7627  -16.8806   21.1328 C   0  0  0  0  0  0
  -30.1429  -15.5435   21.4721 C   0  0  0  0  0  0
  -31.8500  -19.7559   19.2727 C   0  0  0  0  0  0
  -31.1910  -21.0978   19.6139 C   0  0  0  0  0  0
  -28.3756  -25.7075   21.1122 C   0  0  0  0  0  0
  -27.8635  -24.3536   20.5905 C   0  0  0  0  0  0
  -31.0334  -22.7386   21.3008 C   0  0  0  0  0  0
  -31.5786  -23.1373   22.6734 C   0  0  0  0  0  0
  -27.1355  -22.2074   21.2481 C   0  0  0  0  0  0
  -26.9826  -21.2692   22.4510 C   0  0  0  0  0  0
  -31.5577  -22.3285   24.9082 C   0  0  0  0  0  0
  -31.2012  -21.0794   25.7284 C   0  0  0  0  0  0
  -28.2373  -19.8905   23.9160 C   0  0  0  0  0  0
  -29.6376  -19.7372   24.5222 C   0  0  0  0  0  0
  -31.5957  -17.5725   22.0171 N   0  0  0  0  0  0
  -32.0339  -18.6525   21.4424 N   0  0  0  0  0  0
  -31.4910  -18.6952   20.2017 N   0  0  0  0  0  0
  -31.7580  -21.6234   20.8056 O   0  0  0  0  0  0
  -27.6696  -23.4562   21.6746 O   0  0  0  0  0  0
  -31.3957  -22.0265   23.5340 O   0  0  0  0  0  0
  -28.2709  -20.9223   22.9383 O   0  0  0  0  0  0
  -29.8336  -20.7435   25.5139 O   0  0  0  0  0  0
  -31.4595  -12.3592   19.0990 H   0  0  0  0  0  0
  -30.2983  -11.2632   19.7821 H   0  0  0  0  0  0
  -29.7161  -11.8085   17.3996 H   0  0  0  0  0  0
  -29.6592  -13.5123   17.7872 H   0  0  0  0  0  0
  -27.8118  -11.3205   18.7925 H   0  0  0  0  0  0
  -27.3560  -12.6707   17.7901 H   0  0  0  0  0  0
  -27.7224  -14.2550   19.6044 H   0  0  0  0  0  0
  -28.6768  -11.9162   21.3253 H   0  0  0  0  0  0
  -28.4825  -13.5434   21.8878 H   0  0  0  0  0  0
  -25.2752   -9.5704   22.4747 H   0  0  0  0  0  0
  -24.0012   -7.4636   22.7467 H   0  0  0  0  0  0
  -21.0835   -8.8756   19.8946 H   0  0  0  0  0  0
  -22.3667  -10.9670   19.6165 H   0  0  0  0  0  0
  -21.1997   -7.6145   23.9712 H   0  0  0  0  0  0
  -21.1491   -6.0525   25.9077 H   0  0  0  0  0  0
  -22.0594   -2.7607   23.2844 H   0  0  0  0  0  0
  -22.4133  -11.9885   22.4793 H   0  0  0  0  0  0
  -21.1141  -13.1255   22.2589 H   0  0  0  0  0  0
  -24.6685  -15.8423   20.5195 H   0  0  0  0  0  0
  -26.2918  -15.6272   20.0998 H   0  0  0  0  0  0
  -26.7101  -32.5566   23.1196 H   0  0  0  0  0  0
  -25.0049  -33.9801   25.0499 H   0  0  0  0  0  0
  -22.6865  -31.3133   21.4163 H   0  0  0  0  0  0
  -23.3742  -35.9674   23.3292 H   0  0  0  0  0  0
  -24.3591  -36.8941   22.2047 H   0  0  0  0  0  0
  -23.7256  -37.6539   23.6656 H   0  0  0  0  0  0
  -26.0296  -31.6161   20.5994 H   0  0  0  0  0  0
  -26.8113  -30.8986   21.9814 H   0  0  0  0  0  0
  -28.0931  -29.1205   21.1724 H   0  0  0  0  0  0
  -26.0740  -26.0334   18.9321 H   0  0  0  0  0  0
  -23.9810  -27.3201   19.0017 H   0  0  0  0  0  0
  -23.7035  -30.6047   19.4049 H   0  0  0  0  0  0
  -22.7282  -29.2438   19.8752 H   0  0  0  0  0  0
  -25.1272  -36.1981   25.0834 H   0  0  0  0  0  0
  -20.9935  -28.3221   24.1445 H   0  0  0  0  0  0
  -20.5650  -26.2269   23.3591 H   0  0  0  0  0  0
  -21.6634  -26.7464   22.1208 H   0  0  0  0  0  0
  -19.6919  -25.6288   21.1227 H   0  0  0  0  0  0
  -19.6685  -27.3193   20.6731 H   0  0  0  0  0  0
  -17.4188  -26.6659   21.4011 H   0  0  0  0  0  0
  -18.0338  -26.0044   22.8998 H   0  0  0  0  0  0
  -19.7921  -30.7231   24.2306 H   0  0  0  0  0  0
  -17.5014  -31.6274   24.5160 H   0  0  0  0  0  0
  -15.5339  -30.3009   23.7647 H   0  0  0  0  0  0
  -15.8642  -28.0837   22.7063 H   0  0  0  0  0  0
  -24.5901  -30.7050   25.7855 H   0  0  0  0  0  0
  -24.8918  -32.2866   26.4958 H   0  0  0  0  0  0
  -25.8085  -30.8885   27.0256 H   0  0  0  0  0  0
  -26.2832  -29.6807   24.1162 H   0  0  0  0  0  0
  -27.4069  -29.7296   25.4551 H   0  0  0  0  0  0
  -27.8664  -30.4375   23.9247 H   0  0  0  0  0  0
  -27.2668  -33.3618   26.2088 H   0  0  0  0  0  0
  -28.3830  -32.6872   25.0290 H   0  0  0  0  0  0
  -28.0735  -31.8433   26.5370 H   0  0  0  0  0  0
  -28.2579  -38.0116   24.7531 H   0  0  0  0  0  0
  -28.1092  -36.2640   24.6244 H   0  0  0  0  0  0
  -27.2309  -37.1429   25.8857 H   0  0  0  0  0  0
  -20.9275  -29.8771   21.6979 H   0  0  0  0  0  0
  -26.0185  -38.2866   24.1411 H   0  0  0  0  0  0
  -30.1301  -17.4478   19.0540 H   0  0  0  0  0  0
  -29.0684  -15.6081   21.3080 H   0  0  0  0  0  0
  -30.2849  -15.3058   22.5262 H   0  0  0  0  0  0
  -32.9356  -19.8572   19.2487 H   0  0  0  0  0  0
  -31.5473  -19.4481   18.2720 H   0  0  0  0  0  0
  -30.1140  -20.9522   19.7195 H   0  0  0  0  0  0
  -31.3405  -21.8084   18.7998 H   0  0  0  0  0  0
  -29.3931  -25.5886   21.4837 H   0  0  0  0  0  0
  -27.7832  -26.0226   21.9752 H   0  0  0  0  0  0
  -28.5701  -23.9440   19.8678 H   0  0  0  0  0  0
  -26.9125  -24.4645   20.0767 H   0  0  0  0  0  0
  -31.0964  -23.5769   20.6051 H   0  0  0  0  0  0
  -29.9832  -22.4753   21.4064 H   0  0  0  0  0  0
  -31.0211  -24.0020   23.0387 H   0  0  0  0  0  0
  -32.6315  -23.4147   22.6208 H   0  0  0  0  0  0
  -26.1578  -22.3647   20.7891 H   0  0  0  0  0  0
  -27.7761  -21.7516   20.4923 H   0  0  0  0  0  0
  -26.4488  -20.3694   22.1404 H   0  0  0  0  0  0
  -26.3946  -21.7470   23.2354 H   0  0  0  0  0  0
  -32.5874  -22.6340   25.1020 H   0  0  0  0  0  0
  -30.9063  -23.1547   25.1975 H   0  0  0  0  0  0
  -31.3269  -21.3093   26.7865 H   0  0  0  0  0  0
  -31.8720  -20.2462   25.5110 H   0  0  0  0  0  0
  -27.5054  -20.1005   24.6972 H   0  0  0  0  0  0
  -27.9411  -18.9590   23.4307 H   0  0  0  0  0  0
  -30.3811  -19.7675   23.7250 H   0  0  0  0  0  0
  -29.7387  -18.7629   25.0007 H   0  0  0  0  0  0
  1 25  1  0  0  0
  1 30  2  0  0  0
  1 73  1  0  0  0
  2  3  1  0  0  0
  2 25  1  0  0  0
  2 94  1  0  0  0
  2 95  1  0  0  0
  3  4  1  0  0  0
  3 96  1  0  0  0
  3 97  1  0  0  0
  4  5  1  0  0  0
  4 98  1  0  0  0
  4 99  1  0  0  0
  5  6  1  0  0  0
  5 26  1  0  0  0
  5100  1  0  0  0
  6 25  1  0  0  0
  6101  1  0  0  0
  6102  1  0  0  0
  7  8  2  0  0  0
  7 26  1  0  0  0
  7 29  1  0  0  0
  8  9  1  0  0  0
  8 22  1  0  0  0
  9 10  1  0  0  0
  9 27  2  0  0  0
 10 11  2  0  0  0
 10 15  1  0  0  0
 11 12  1  0  0  0
 11103  1  0  0  0
 12 13  2  0  0  0
 12104  1  0  0  0
 13 14  1  0  0  0
 13 31  1  0  0  0
 14 15  2  0  0  0
 14105  1  0  0  0
 15106  1  0  0  0
 16 17  2  0  0  0
 16 21  1  0  0  0
 16 31  1  0  0  0
 17 18  1  0  0  0
 17107  1  0  0  0
 18 19  2  0  0  0
 18108  1  0  0  0
 19 20  1  0  0  0
 19 24  1  0  0  0
 20 21  2  0  0  0
 20109  1  0  0  0
 21 23  1  0  0  0
 22 28  1  0  0  0
 22 32  2  0  0  0
 26 27  1  0  0  0
 28110  1  0  0  0
 28111  1  0  0  0
 29112  1  0  0  0
 29113  1  0  0  0
 33 34  1  0  0  0
 33 66  1  0  0  0
 33 70  2  0  0  0
 34 36  1  0  0  0
 34 59  1  0  0  0
 34114  1  0  0  0
 35 44  2  0  0  0
 35 45  1  0  0  0
 35 68  1  0  0  0
 36 56  1  0  0  0
 36115  1  0  0  0
 37 39  1  0  0  0
 37 47  1  0  0  0
 37 66  1  0  0  0
 37116  1  0  0  0
 38 43  2  0  0  0
 38 46  1  0  0  0
 38 47  1  0  0  0
 39 64  1  0  0  0
 39 67  2  0  0  0
 40 52  1  0  0  0
 40 53  2  0  0  0
 40 58  1  0  0  0
 41117  1  0  0  0
 41118  1  0  0  0
 41119  1  0  0  0
 41 48  1  0  0  0
 42 43  1  0  0  0
 42 66  1  0  0  0
 42120  1  0  0  0
 42121  1  0  0  0
 43 44  1  0  0  0
 44122  1  0  0  0
 45 46  2  0  0  0
 45123  1  0  0  0
 46124  1  0  0  0
 47125  1  0  0  0
 47126  1  0  0  0
 48 56  1  0  0  0
 48 65  1  0  0  0
 48127  1  0  0  0
 49 50  1  0  0  0
 49 53  1  0  0  0
 49 64  1  0  0  0
 49128  1  0  0  0
 50 51  1  0  0  0
 50129  1  0  0  0
 50130  1  0  0  0
 51 52  1  0  0  0
 51131  1  0  0  0
 51132  1  0  0  0
 52133  1  0  0  0
 52134  1  0  0  0
 53 54  1  0  0  0
 54 55  2  0  0  0
 54135  1  0  0  0
 55 57  1  0  0  0
 55136  1  0  0  0
 56 69  2  0  0  0
 57 58  2  0  0  0
 57137  1  0  0  0
 58138  1  0  0  0
 59 60  1  0  0  0
 59 61  1  0  0  0
 59 62  1  0  0  0
 60139  1  0  0  0
 60140  1  0  0  0
 60141  1  0  0  0
 61142  1  0  0  0
 61143  1  0  0  0
 61144  1  0  0  0
 62145  1  0  0  0
 62146  1  0  0  0
 62147  1  0  0  0
 63 65  1  0  0  0
 63148  1  0  0  0
 63149  1  0  0  0
 63150  1  0  0  0
 64151  1  0  0  0
 65152  1  0  0  0
 68 76  1  0  0  0
 71 72  2  0  0  0
 71 88  1  0  0  0
 71153  1  0  0  0
 72 73  1  0  0  0
 72 86  1  0  0  0
 73154  1  0  0  0
 73155  1  0  0  0
 74 75  1  0  0  0
 74 88  1  0  0  0
 74156  1  0  0  0
 74157  1  0  0  0
 75 89  1  0  0  0
 75158  1  0  0  0
 75159  1  0  0  0
 76 77  1  0  0  0
 76160  1  0  0  0
 76161  1  0  0  0
 77 90  1  0  0  0
 77162  1  0  0  0
 77163  1  0  0  0
 78 79  1  0  0  0
 78 89  1  0  0  0
 78164  1  0  0  0
 78165  1  0  0  0
 79 91  1  0  0  0
 79166  1  0  0  0
 79167  1  0  0  0
 80 81  1  0  0  0
 80 90  1  0  0  0
 80168  1  0  0  0
 80169  1  0  0  0
 81 92  1  0  0  0
 81170  1  0  0  0
 81171  1  0  0  0
 82 83  1  0  0  0
 82 91  1  0  0  0
 82172  1  0  0  0
 82173  1  0  0  0
 83 93  1  0  0  0
 83174  1  0  0  0
 83175  1  0  0  0
 84 85  1  0  0  0
 84 92  1  0  0  0
 84176  1  0  0  0
 84177  1  0  0  0
 85 93  1  0  0  0
 85178  1  0  0  0
 85179  1  0  0  0
 86 87  2  0  0  0
 87 88  1  0  0  0
M  ISO  4   1 100  68 101  73 100  76 101
M  END
> <chiral flag>
0

> <version>
0

> <s_m_source_file>
/data/baiqing/PycharmProjects/Reinvent-master-3.2/result/LINK_invent/BTK/process_docking_weight1_custom_sum_contain_oxygen_bond_distance_aromatic_linkinvent_7_9_3/rearranged_h_0000.sdf

> <i_m_source_file_index>
85

> <r_mmod_Potential_Energy-OPLS-2005>
-19.6355838775635

> <r_mmod_Stretch_Energy-OPLS-2005>
32.2449226379395

> <r_mmod_Bend_Energy-OPLS-2005>
90.4696731567383

> <r_mmod_Torsional_Energy-OPLS-2005>
202.296249389648

> <r_mmod_Improper_Torsional_Energy-OPLS-2005>
2.11796355247498

> <r_mmod_Van_der_Waal_Energy-OPLS-2005>
108.803901672363

> <r_mmod_Electrostatic_Energy-OPLS-2005>
-193.714889526367

> <r_mmod_Solvation_Energy-OPLS-2005>
-270.964080810547

> <b_mmod_Minimization_Converged-OPLS-2005>
0

> <r_mmod_RMS_Derivative-OPLS-2005>
1.99542367458344

$$$$
88
                    3D
 Structure written by MMmdl.
196205  0  0  1  0            999 V2000
  -30.7076  -14.4559   20.5039 C   0  0  0  0  0  0
  -30.4169  -12.2765   19.4335 C   0  0  0  0  0  0
  -29.5045  -12.5025   18.2116 C   0  0  0  0  0  0
  -28.0198  -12.3754   18.6116 C   0  0  0  0  0  0
  -27.6620  -13.2111   19.8708 C   0  0  2  0  0  0
  -28.7037  -13.0032   20.9947 C   0  0  0  0  0  0
  -25.2597  -13.8166   20.5644 C   0  0  0  0  0  0
  -24.1872  -13.0455   20.9189 C   0  0  0  0  0  0
  -24.6445  -11.6926   20.8735 C   0  0  0  0  0  0
  -23.9124  -10.4308   21.0393 C   0  0  0  0  0  0
  -24.3670   -9.4218   21.9168 C   0  0  0  0  0  0
  -23.6343   -8.2245   22.0734 C   0  0  0  0  0  0
  -22.4313   -8.0291   21.3535 C   0  0  0  0  0  0
  -21.9971   -9.0277   20.4637 C   0  0  0  0  0  0
  -22.7304  -10.2156   20.3046 C   0  0  0  0  0  0
  -21.6856   -6.0756   22.5281 C   0  0  0  0  0  0
  -21.4015   -6.5654   23.8223 C   0  0  0  0  0  0
  -21.3650   -5.6797   24.9181 C   0  0  0  0  0  0
  -21.6056   -4.3066   24.7210 C   0  0  0  0  0  0
  -21.8824   -3.8161   23.4329 C   0  0  0  0  0  0
  -21.9202   -4.6984   22.3397 C   0  0  0  0  0  0
  -22.7897  -13.5247   21.1826 C   0  0  0  0  0  0
  -22.1664   -4.2164   21.0970 F   0  0  0  0  0  0
  -21.5633   -3.4553   25.7720 F   0  0  0  0  0  0
  -30.0411  -13.2749   20.4406 N   0  0  0  0  0  0
  -26.3034  -12.9344   20.3319 N   0  0  0  0  0  0
  -25.9362  -11.6501   20.5752 N   0  0  0  0  0  0
  -22.0519  -12.8240   22.0375 N   0  0  0  0  0  0
  -25.4330  -15.1866   20.3931 N   0  0  0  0  0  0
  -31.8700  -14.5847   20.1121 O   0  0  0  0  0  0
  -21.6655   -6.8901   21.4239 O   0  0  0  0  0  0
  -22.3583  -14.5541   20.6655 O   0  0  0  0  0  0
  -24.6140  -31.8698   23.2116 C   0  0  0  0  0  0
  -25.9018  -32.4834   23.8403 C   0  0  1  0  0  0
  -27.2312  -27.4600   20.1014 C   0  0  0  0  0  0
  -25.5884  -33.8638   24.2337 N   0  0  0  0  0  0
  -23.4011  -30.4924   21.5494 C   0  0  2  0  0  0
  -24.8447  -28.9575   20.1160 C   0  0  0  0  0  0
  -22.7392  -29.4694   22.4989 C   0  0  0  0  0  0
  -18.0257  -28.1402   22.8526 C   0  0  0  0  0  0
  -24.1480  -36.7328   23.2639 C   0  0  0  0  0  0
  -25.9251  -30.8411   21.3554 C   0  0  0  0  0  0
  -26.0015  -29.4733   20.7137 C   0  0  0  0  0  0
  -27.2019  -28.7323   20.7071 C   0  0  0  0  0  0
  -26.0636  -26.9464   19.5043 C   0  0  0  0  0  0
  -24.8706  -27.6913   19.5033 C   0  0  0  0  0  0
  -23.6059  -29.8198   20.1648 C   0  0  0  0  0  0
  -25.4096  -36.3124   24.0355 C   0  0  1  0  0  0
  -20.5864  -28.3675   23.1338 C   0  0  2  0  0  0
  -20.6787  -26.9413   22.5435 C   0  0  0  0  0  0
  -19.5738  -26.6397   21.5256 C   0  0  0  0  0  0
  -18.1909  -26.7963   22.1645 C   0  0  0  0  0  0
  -19.1520  -28.8858   23.2931 C   0  0  0  0  0  0
  -18.9441  -30.1477   23.8928 C   0  0  0  0  0  0
  -17.6441  -30.6610   24.0585 C   0  0  0  0  0  0
  -25.9024  -34.9493   23.5140 C   0  0  0  0  0  0
  -16.5331  -29.9127   23.6320 C   0  0  0  0  0  0
  -16.7249  -28.6543   23.0352 C   0  0  0  0  0  0
  -26.4447  -31.6602   25.0715 C   0  0  0  0  0  0
  -25.3728  -31.3664   26.1469 C   0  0  0  0  0  0
  -27.0281  -30.3079   24.6025 C   0  0  0  0  0  0
  -27.6071  -32.4289   25.7462 C   0  0  0  0  0  0
  -27.5561  -37.1810   24.8464 C   0  0  0  0  0  0
  -21.4137  -29.3058   22.3761 N   0  0  0  0  0  0
  -26.4270  -37.3824   23.9413 N   0  0  0  0  0  0
  -24.6661  -31.0820   22.0971 N   0  0  0  0  0  0
  -23.4190  -28.8197   23.2992 O   0  0  0  0  0  0
  -28.4038  -26.7478   20.0622 O   0  0  0  0  0  0
  -26.5568  -34.8943   22.4691 O   0  0  0  0  0  0
  -23.5339  -32.1422   23.7522 O   0  0  0  0  0  0
  -26.3900  -24.7442   14.5338 C   0  0  0  0  0  0
  -27.5159  -25.2305   16.6434 C   0  0  0  0  0  0
  -28.7716  -17.4708   19.9972 C   0  0  0  0  0  0
  -31.1973  -17.4443   19.8662 C   0  0  0  0  0  0
  -27.3373  -25.5329   13.8537 C   0  0  0  0  0  0
  -28.4385  -26.0506   15.9700 C   0  0  0  0  0  0
  -28.7543  -18.7283   19.3543 C   0  0  0  0  0  0
  -31.1736  -18.6963   19.2288 C   0  0  0  0  0  0
  -26.4978  -24.5632   15.9268 C   0  0  0  0  0  0
  -29.9930  -16.8027   20.2401 C   0  0  0  0  0  0
  -28.3723  -26.1714   14.5689 C   0  0  0  0  0  0
  -29.9498  -19.3573   18.9540 C   0  0  0  0  0  0
  -25.8772  -22.6531   17.3123 C   0  0  0  0  0  0
  -24.7285  -21.9703   18.0689 C   0  0  0  0  0  0
  -30.9103  -22.6175   17.3695 C   0  0  0  0  0  0
  -32.2817  -23.3032   17.2178 C   0  0  0  0  0  0
  -31.6716  -26.4200   13.5009 C   0  0  0  0  0  0
  -31.0873  -21.2661   18.0742 C   0  0  0  0  0  0
  -32.2377  -24.7716   16.7888 C   0  0  0  0  0  0
  -30.2185  -26.0725   13.1481 C   0  0  0  0  0  0
  -32.0241  -26.2489   14.9871 C   0  0  0  0  0  0
  -28.4926  -25.6866   21.0113 C   0  0  0  0  0  0
  -25.1286  -22.8870   20.2799 C   0  0  0  0  0  0
  -28.5617  -24.3305   20.2948 C   0  0  0  0  0  0
  -26.5551  -23.1187   20.8074 C   0  0  0  0  0  0
  -25.5636  -23.7410   16.5942 N   0  0  0  0  0  0
  -29.9510  -15.5132   20.8511 N   0  0  0  0  0  0
  -27.0170  -22.1812   17.3671 O   0  0  0  0  0  0
  -29.8620  -20.5803   18.3159 O   0  0  0  0  0  0
  -29.3343  -26.8880   13.9126 O   0  0  0  0  0  0
  -25.0686  -21.7346   19.4377 O   0  0  0  0  0  0
  -31.9271  -24.8927   15.4073 O   0  0  0  0  0  0
  -27.2783  -23.8949   19.8607 O   0  0  0  0  0  0
  -31.4677  -12.3479   19.1476 H   0  0  0  0  0  0
  -30.2859  -11.2685   19.8281 H   0  0  0  0  0  0
  -29.7497  -11.7868   17.4285 H   0  0  0  0  0  0
  -29.6902  -13.4921   17.7886 H   0  0  0  0  0  0
  -27.8162  -11.3197   18.7975 H   0  0  0  0  0  0
  -27.3833  -12.6637   17.7753 H   0  0  0  0  0  0
  -27.7046  -14.2561   19.5659 H   0  0  0  0  0  0
  -28.6574  -11.9778   21.3645 H   0  0  0  0  0  0
  -28.4824  -13.6361   21.8545 H   0  0  0  0  0  0
  -25.2807   -9.5684   22.4758 H   0  0  0  0  0  0
  -24.0041   -7.4636   22.7470 H   0  0  0  0  0  0
  -21.0896   -8.8849   19.8949 H   0  0  0  0  0  0
  -22.3790  -10.9715   19.6167 H   0  0  0  0  0  0
  -21.1996   -7.6159   23.9743 H   0  0  0  0  0  0
  -21.1463   -6.0509   25.9094 H   0  0  0  0  0  0
  -22.0605   -2.7624   23.2832 H   0  0  0  0  0  0
  -22.4154  -11.9921   22.4775 H   0  0  0  0  0  0
  -21.1124  -13.1257   22.2529 H   0  0  0  0  0  0
  -24.6626  -15.8411   20.4654 H   0  0  0  0  0  0
  -26.2615  -15.5974   19.9814 H   0  0  0  0  0  0
  -26.7116  -32.5531   23.1202 H   0  0  0  0  0  0
  -25.0094  -33.9835   25.0524 H   0  0  0  0  0  0
  -22.6920  -31.3116   21.4126 H   0  0  0  0  0  0
  -23.3755  -35.9640   23.3310 H   0  0  0  0  0  0
  -24.3584  -36.8905   22.2043 H   0  0  0  0  0  0
  -23.7220  -37.6542   23.6644 H   0  0  0  0  0  0
  -26.0236  -31.5932   20.5720 H   0  0  0  0  0  0
  -26.8231  -30.9091   21.9603 H   0  0  0  0  0  0
  -28.0966  -29.1303   21.1668 H   0  0  0  0  0  0
  -26.0692  -25.9741   19.0329 H   0  0  0  0  0  0
  -23.9859  -27.2937   19.0248 H   0  0  0  0  0  0
  -23.7050  -30.5918   19.4012 H   0  0  0  0  0  0
  -22.7326  -29.2308   19.8721 H   0  0  0  0  0  0
  -25.1281  -36.1974   25.0852 H   0  0  0  0  0  0
  -20.9970  -28.3228   24.1454 H   0  0  0  0  0  0
  -20.5751  -26.2265   23.3620 H   0  0  0  0  0  0
  -21.6643  -26.7486   22.1170 H   0  0  0  0  0  0
  -19.6872  -25.6314   21.1251 H   0  0  0  0  0  0
  -19.6690  -27.3254   20.6825 H   0  0  0  0  0  0
  -17.4207  -26.6752   21.4030 H   0  0  0  0  0  0
  -18.0249  -26.0126   22.9051 H   0  0  0  0  0  0
  -19.7899  -30.7305   24.2313 H   0  0  0  0  0  0
  -17.4975  -31.6279   24.5184 H   0  0  0  0  0  0
  -15.5337  -30.3026   23.7641 H   0  0  0  0  0  0
  -15.8657  -28.0866   22.7046 H   0  0  0  0  0  0
  -24.5914  -30.7011   25.7786 H   0  0  0  0  0  0
  -24.8922  -32.2816   26.4924 H   0  0  0  0  0  0
  -25.8084  -30.8816   27.0224 H   0  0  0  0  0  0
  -26.2778  -29.6847   24.1162 H   0  0  0  0  0  0
  -27.4180  -29.7269   25.4399 H   0  0  0  0  0  0
  -27.8570  -30.4488   23.9087 H   0  0  0  0  0  0
  -27.2735  -33.3600   26.2058 H   0  0  0  0  0  0
  -28.3862  -32.6781   25.0248 H   0  0  0  0  0  0
  -28.0780  -31.8398   26.5335 H   0  0  0  0  0  0
  -28.2604  -38.0094   24.7530 H   0  0  0  0  0  0
  -28.1029  -36.2632   24.6262 H   0  0  0  0  0  0
  -27.2295  -37.1404   25.8876 H   0  0  0  0  0  0
  -20.9269  -29.8766   21.7005 H   0  0  0  0  0  0
  -26.0149  -38.2902   24.1435 H   0  0  0  0  0  0
  -25.6033  -24.2553   13.9761 H   0  0  0  0  0  0
  -27.6000  -25.1145   17.7113 H   0  0  0  0  0  0
  -27.8340  -17.0174   20.2846 H   0  0  0  0  0  0
  -32.1609  -16.9896   20.0426 H   0  0  0  0  0  0
  -27.2716  -25.6389   12.7803 H   0  0  0  0  0  0
  -29.2158  -26.5573   16.5251 H   0  0  0  0  0  0
  -27.8080  -19.2149   19.1683 H   0  0  0  0  0  0
  -32.1258  -19.1229   18.9508 H   0  0  0  0  0  0
  -24.5421  -21.0116   17.5831 H   0  0  0  0  0  0
  -23.8002  -22.5391   18.0001 H   0  0  0  0  0  0
  -30.4372  -22.4880   16.3952 H   0  0  0  0  0  0
  -30.2438  -23.2467   17.9534 H   0  0  0  0  0  0
  -32.9147  -22.7352   16.5340 H   0  0  0  0  0  0
  -32.7851  -23.2698   18.1846 H   0  0  0  0  0  0
  -31.8549  -27.4586   13.2243 H   0  0  0  0  0  0
  -32.3493  -25.8226   12.8892 H   0  0  0  0  0  0
  -31.5760  -21.4365   19.0369 H   0  0  0  0  0  0
  -31.7473  -20.6561   17.4563 H   0  0  0  0  0  0
  -33.2201  -25.2102   16.9794 H   0  0  0  0  0  0
  -31.5214  -25.3274   17.3972 H   0  0  0  0  0  0
  -30.0527  -25.0033   13.3020 H   0  0  0  0  0  0
  -30.0415  -26.2663   12.0897 H   0  0  0  0  0  0
  -31.3716  -26.8731   15.5972 H   0  0  0  0  0  0
  -33.0431  -26.6056   15.1495 H   0  0  0  0  0  0
  -29.4308  -25.8347   21.5443 H   0  0  0  0  0  0
  -27.7009  -25.7030   21.7646 H   0  0  0  0  0  0
  -24.7312  -23.7912   19.8146 H   0  0  0  0  0  0
  -24.4791  -22.6769   21.1293 H   0  0  0  0  0  0
  -29.0340  -23.5750   20.9252 H   0  0  0  0  0  0
  -29.2094  -24.4469   19.4283 H   0  0  0  0  0  0
  -27.0505  -22.1664   20.9995 H   0  0  0  0  0  0
  -26.5032  -23.6480   21.7586 H   0  0  0  0  0  0
  -24.5827  -23.9560   16.4736 H   0  0  0  0  0  0
  -29.0591  -15.2560   21.2431 H   0  0  0  0  0  0
  1 25  1  0  0  0
  1 30  2  0  0  0
  1 97  1  0  0  0
  2  3  1  0  0  0
  2 25  1  0  0  0
  2104  1  0  0  0
  2105  1  0  0  0
  3  4  1  0  0  0
  3106  1  0  0  0
  3107  1  0  0  0
  4  5  1  0  0  0
  4108  1  0  0  0
  4109  1  0  0  0
  5  6  1  0  0  0
  5 26  1  0  0  0
  5110  1  0  0  0
  6 25  1  0  0  0
  6111  1  0  0  0
  6112  1  0  0  0
  7  8  2  0  0  0
  7 26  1  0  0  0
  7 29  1  0  0  0
  8  9  1  0  0  0
  8 22  1  0  0  0
  9 10  1  0  0  0
  9 27  2  0  0  0
 10 11  2  0  0  0
 10 15  1  0  0  0
 11 12  1  0  0  0
 11113  1  0  0  0
 12 13  2  0  0  0
 12114  1  0  0  0
 13 14  1  0  0  0
 13 31  1  0  0  0
 14 15  2  0  0  0
 14115  1  0  0  0
 15116  1  0  0  0
 16 17  2  0  0  0
 16 21  1  0  0  0
 16 31  1  0  0  0
 17 18  1  0  0  0
 17117  1  0  0  0
 18 19  2  0  0  0
 18118  1  0  0  0
 19 20  1  0  0  0
 19 24  1  0  0  0
 20 21  2  0  0  0
 20119  1  0  0  0
 21 23  1  0  0  0
 22 28  1  0  0  0
 22 32  2  0  0  0
 26 27  1  0  0  0
 28120  1  0  0  0
 28121  1  0  0  0
 29122  1  0  0  0
 29123  1  0  0  0
 33 34  1  0  0  0
 33 66  1  0  0  0
 33 70  2  0  0  0
 34 36  1  0  0  0
 34 59  1  0  0  0
 34124  1  0  0  0
 35 44  2  0  0  0
 35 45  1  0  0  0
 35 68  1  0  0  0
 36 56  1  0  0  0
 36125  1  0  0  0
 37 39  1  0  0  0
 37 47  1  0  0  0
 37 66  1  0  0  0
 37126  1  0  0  0
 38 43  2  0  0  0
 38 46  1  0  0  0
 38 47  1  0  0  0
 39 64  1  0  0  0
 39 67  2  0  0  0
 40 52  1  0  0  0
 40 53  2  0  0  0
 40 58  1  0  0  0
 41127  1  0  0  0
 41128  1  0  0  0
 41129  1  0  0  0
 41 48  1  0  0  0
 42 43  1  0  0  0
 42 66  1  0  0  0
 42130  1  0  0  0
 42131  1  0  0  0
 43 44  1  0  0  0
 44132  1  0  0  0
 45 46  2  0  0  0
 45133  1  0  0  0
 46134  1  0  0  0
 47135  1  0  0  0
 47136  1  0  0  0
 48 56  1  0  0  0
 48 65  1  0  0  0
 48137  1  0  0  0
 49 50  1  0  0  0
 49 53  1  0  0  0
 49 64  1  0  0  0
 49138  1  0  0  0
 50 51  1  0  0  0
 50139  1  0  0  0
 50140  1  0  0  0
 51 52  1  0  0  0
 51141  1  0  0  0
 51142  1  0  0  0
 52143  1  0  0  0
 52144  1  0  0  0
 53 54  1  0  0  0
 54 55  2  0  0  0
 54145  1  0  0  0
 55 57  1  0  0  0
 55146  1  0  0  0
 56 69  2  0  0  0
 57 58  2  0  0  0
 57147  1  0  0  0
 58148  1  0  0  0
 59 60  1  0  0  0
 59 61  1  0  0  0
 59 62  1  0  0  0
 60149  1  0  0  0
 60150  1  0  0  0
 60151  1  0  0  0
 61152  1  0  0  0
 61153  1  0  0  0
 61154  1  0  0  0
 62155  1  0  0  0
 62156  1  0  0  0
 62157  1  0  0  0
 63 65  1  0  0  0
 63158  1  0  0  0
 63159  1  0  0  0
 63160  1  0  0  0
 64161  1  0  0  0
 65162  1  0  0  0
 68 92  1  0  0  0
 71 75  2  0  0  0
 71 79  1  0  0  0
 71163  1  0  0  0
 72 76  1  0  0  0
 72 79  2  0  0  0
 72164  1  0  0  0
 73 77  2  0  0  0
 73 80  1  0  0  0
 73165  1  0  0  0
 74 78  1  0  0  0
 74 80  2  0  0  0
 74166  1  0  0  0
 75 81  1  0  0  0
 75167  1  0  0  0
 76 81  2  0  0  0
 76168  1  0  0  0
 77 82  1  0  0  0
 77169  1  0  0  0
 78 82  2  0  0  0
 78170  1  0  0  0
 79 96  1  0  0  0
 80 97  1  0  0  0
 81100  1  0  0  0
 82 99  1  0  0  0
 83 84  1  0  0  0
 83 96  1  0  0  0
 83 98  2  0  0  0
 84101  1  0  0  0
 84171  1  0  0  0
 84172  1  0  0  0
 85 86  1  0  0  0
 85 88  1  0  0  0
 85173  1  0  0  0
 85174  1  0  0  0
 86 89  1  0  0  0
 86175  1  0  0  0
 86176  1  0  0  0
 87 90  1  0  0  0
 87 91  1  0  0  0
 87177  1  0  0  0
 87178  1  0  0  0
 88 99  1  0  0  0
 88179  1  0  0  0
 88180  1  0  0  0
 89102  1  0  0  0
 89181  1  0  0  0
 89182  1  0  0  0
 90100  1  0  0  0
 90183  1  0  0  0
 90184  1  0  0  0
 91102  1  0  0  0
 91185  1  0  0  0
 91186  1  0  0  0
 92 94  1  0  0  0
 92187  1  0  0  0
 92188  1  0  0  0
 93 95  1  0  0  0
 93101  1  0  0  0
 93189  1  0  0  0
 93190  1  0  0  0
 94103  1  0  0  0
 94191  1  0  0  0
 94192  1  0  0  0
 95103  1  0  0  0
 95193  1  0  0  0
 95194  1  0  0  0
 96195  1  0  0  0
 97196  1  0  0  0
M  ISO  4   1 100  68 101  92 101  97 100
M  END
> <chiral flag>
0

> <version>
0

> <s_m_source_file>
/data/baiqing/PycharmProjects/Reinvent-master-3.2/result/LINK_invent/BTK/process_docking_weight1_custom_sum_contain_oxygen_bond_distance_aromatic_linkinvent_7_9_3/rearranged_h_0000.sdf

> <i_m_source_file_index>
86

> <r_mmod_Potential_Energy-OPLS-2005>
-30.8156604766846

> <r_mmod_Stretch_Energy-OPLS-2005>
36.7221298217773

> <r_mmod_Bend_Energy-OPLS-2005>
110.30590057373

> <r_mmod_Torsional_Energy-OPLS-2005>
326.12451171875

> <r_mmod_Improper_Torsional_Energy-OPLS-2005>
6.80654287338257

> <r_mmod_Van_der_Waal_Energy-OPLS-2005>
147.802825927734

> <r_mmod_Electrostatic_Energy-OPLS-2005>
-395.845672607422

> <r_mmod_Solvation_Energy-OPLS-2005>
-275.941772460938

> <b_mmod_Minimization_Converged-OPLS-2005>
0

> <r_mmod_RMS_Derivative-OPLS-2005>
4.53703641891479

$$$$
89
                    3D
 Structure written by MMmdl.
164172  0  0  1  0            999 V2000
  -31.2139  -14.2664   20.2114 C   0  0  0  0  0  0
  -30.5072  -12.4997   18.9534 C   0  0  0  0  0  0
  -29.3797  -11.8098   18.3046 C   0  0  0  0  0  0
  -27.9735  -12.0136   18.8219 C   0  0  0  0  0  0
  -27.6782  -13.1712   19.7732 C   0  0  2  0  0  0
  -28.8503  -13.3554   20.7774 C   0  0  0  0  0  0
  -25.2731  -13.8260   20.5904 C   0  0  0  0  0  0
  -24.1945  -13.0704   20.9430 C   0  0  0  0  0  0
  -24.6464  -11.7116   20.9268 C   0  0  0  0  0  0
  -23.9347  -10.4421   21.0892 C   0  0  0  0  0  0
  -24.3923   -9.4207   21.9565 C   0  0  0  0  0  0
  -23.6520   -8.2208   22.0826 C   0  0  0  0  0  0
  -22.4486   -8.0398   21.3606 C   0  0  0  0  0  0
  -22.0246   -9.0517   20.4825 C   0  0  0  0  0  0
  -22.7644  -10.2338   20.3382 C   0  0  0  0  0  0
  -21.6834   -6.0894   22.5401 C   0  0  0  0  0  0
  -21.3998   -6.5765   23.8355 C   0  0  0  0  0  0
  -21.3613   -5.6899   24.9288 C   0  0  0  0  0  0
  -21.6030   -4.3196   24.7337 C   0  0  0  0  0  0
  -21.8797   -3.8308   23.4444 C   0  0  0  0  0  0
  -21.9117   -4.7119   22.3485 C   0  0  0  0  0  0
  -22.7831  -13.5259   21.1911 C   0  0  0  0  0  0
  -22.1604   -4.2260   21.1105 F   0  0  0  0  0  0
  -21.5567   -3.4652   25.7846 F   0  0  0  0  0  0
  -30.2434  -13.2937   20.1539 N   0  0  0  0  0  0
  -26.3314  -12.9568   20.3697 N   0  0  0  0  0  0
  -25.9325  -11.6829   20.6257 N   0  0  0  0  0  0
  -22.0616  -12.8200   22.0501 N   0  0  0  0  0  0
  -25.4554  -15.1894   20.3652 N   0  0  0  0  0  0
  -31.1590  -15.3396   20.7152 O   0  0  0  0  0  0
  -21.6703   -6.9103   21.4371 O   0  0  0  0  0  0
  -22.3424  -14.5533   20.6639 O   0  0  0  0  0  0
  -24.6115  -31.8756   23.2183 C   0  0  0  0  0  0
  -25.8965  -32.4979   23.8513 C   0  0  1  0  0  0
  -27.2737  -27.4840   20.0563 C   0  0  0  0  0  0
  -25.5859  -33.8743   24.2499 N   0  0  0  0  0  0
  -23.4087  -30.4865   21.5587 C   0  0  2  0  0  0
  -24.8622  -28.9601   20.1155 C   0  0  0  0  0  0
  -22.7502  -29.4623   22.5107 C   0  0  0  0  0  0
  -18.0293  -28.1310   22.8597 C   0  0  0  0  0  0
  -24.1411  -36.7291   23.2671 C   0  0  0  0  0  0
  -25.9310  -30.8446   21.3756 C   0  0  0  0  0  0
  -26.0117  -29.4788   20.7209 C   0  0  0  0  0  0
  -27.2156  -28.7490   20.6825 C   0  0  0  0  0  0
  -26.0956  -26.9488   19.4850 C   0  0  0  0  0  0
  -24.8952  -27.6942   19.4996 C   0  0  0  0  0  0
  -23.6248  -29.8208   20.1710 C   0  0  0  0  0  0
  -25.4057  -36.3220   24.0438 C   0  0  1  0  0  0
  -20.5878  -28.3591   23.1402 C   0  0  2  0  0  0
  -20.6735  -26.9337   22.5451 C   0  0  0  0  0  0
  -19.5723  -26.6371   21.5251 C   0  0  0  0  0  0
  -18.1899  -26.7880   22.1667 C   0  0  0  0  0  0
  -19.1516  -28.8804   23.2983 C   0  0  0  0  0  0
  -18.9427  -30.1398   23.9008 C   0  0  0  0  0  0
  -17.6419  -30.6550   24.0561 C   0  0  0  0  0  0
  -25.9019  -34.9597   23.5304 C   0  0  0  0  0  0
  -16.5330  -29.9064   23.6239 C   0  0  0  0  0  0
  -16.7282  -28.6421   23.0406 C   0  0  0  0  0  0
  -26.4384  -31.6684   25.0768 C   0  0  0  0  0  0
  -25.3620  -31.3660   26.1502 C   0  0  0  0  0  0
  -27.0140  -30.3177   24.5931 C   0  0  0  0  0  0
  -27.6079  -32.4283   25.7432 C   0  0  0  0  0  0
  -27.5592  -37.1800   24.8526 C   0  0  0  0  0  0
  -21.4232  -29.2989   22.3871 N   0  0  0  0  0  0
  -26.4292  -37.3882   23.9500 N   0  0  0  0  0  0
  -24.6638  -31.0887   22.1065 N   0  0  0  0  0  0
  -23.4331  -28.8072   23.3053 O   0  0  0  0  0  0
  -28.5048  -26.8555   20.0281 O   0  0  0  0  0  0
  -26.5601  -34.9011   22.4858 O   0  0  0  0  0  0
  -23.5267  -32.1440   23.7554 O   0  0  0  0  0  0
  -32.9646  -17.0105   18.3219 C   0  0  0  0  0  0
  -32.6000  -15.6680   16.3467 C   0  0  0  0  0  0
  -32.7557  -18.1726   17.5431 C   0  0  0  0  0  0
  -32.4010  -16.8391   15.5857 C   0  0  0  0  0  0
  -32.8450  -15.7226   17.7377 C   0  0  0  0  0  0
  -32.4193  -18.1101   16.1818 C   0  0  0  0  0  0
  -33.1353  -14.4078   18.5041 C   0  0  0  0  0  0
  -28.6618  -24.9480   18.4398 C   0  0  0  0  0  0
  -29.1808  -23.4990   18.1911 C   0  0  0  0  0  0
  -28.6245  -25.4331   19.9125 C   0  0  0  0  0  0
  -30.6340  -23.2669   17.7151 C   0  0  0  0  0  0
  -31.1243  -20.1223   15.7697 C   0  0  0  0  0  0
  -31.6025  -21.4325   16.4140 C   0  0  0  0  0  0
  -32.4687  -14.0333   19.7745 N   0  0  0  0  0  0
  -32.1968  -19.2345   15.4117 O   0  0  0  0  0  0
  -30.6527  -21.8755   17.3782 O   0  0  0  0  0  0
  -30.7463  -13.1847   18.1137 H   0  0  0  0  0  0
  -31.3668  -11.8333   19.0962 H   0  0  0  0  0  0
  -29.5943  -10.7873   18.6185 H   0  0  0  0  0  0
  -29.4830  -11.7667   17.2156 H   0  0  0  0  0  0
  -27.8562  -11.1083   19.4167 H   0  0  0  0  0  0
  -27.2182  -11.8851   18.0554 H   0  0  0  0  0  0
  -27.6389  -14.0233   19.1087 H   0  0  0  0  0  0
  -28.6862  -12.7738   21.6793 H   0  0  0  0  0  0
  -28.7128  -14.3714   21.1393 H   0  0  0  0  0  0
  -25.3017   -9.5561   22.5278 H   0  0  0  0  0  0
  -24.0031   -7.4327   22.7268 H   0  0  0  0  0  0
  -21.1191   -8.9085   19.9172 H   0  0  0  0  0  0
  -22.4349  -11.0137   19.6592 H   0  0  0  0  0  0
  -21.2061   -7.6268   23.9942 H   0  0  0  0  0  0
  -21.1353   -6.0672   25.9141 H   0  0  0  0  0  0
  -22.0564   -2.7791   23.2942 H   0  0  0  0  0  0
  -22.4200  -11.9861   22.5080 H   0  0  0  0  0  0
  -21.1217  -13.1080   22.2763 H   0  0  0  0  0  0
  -24.7268  -15.8838   20.3805 H   0  0  0  0  0  0
  -26.3169  -15.6021   20.0538 H   0  0  0  0  0  0
  -26.7159  -32.5682   23.1398 H   0  0  0  0  0  0
  -25.0104  -34.0015   25.0712 H   0  0  0  0  0  0
  -22.6843  -31.2863   21.4097 H   0  0  0  0  0  0
  -23.3776  -35.9518   23.3385 H   0  0  0  0  0  0
  -24.3487  -36.8785   22.2063 H   0  0  0  0  0  0
  -23.6984  -37.6470   23.6556 H   0  0  0  0  0  0
  -26.0476  -31.5934   20.5907 H   0  0  0  0  0  0
  -26.8162  -30.9095   21.9932 H   0  0  0  0  0  0
  -28.1060  -29.1585   21.1421 H   0  0  0  0  0  0
  -26.1009  -25.9750   19.0158 H   0  0  0  0  0  0
  -23.9991  -27.3026   19.0337 H   0  0  0  0  0  0
  -23.7468  -30.5930   19.4143 H   0  0  0  0  0  0
  -22.7453  -29.2476   19.8786 H   0  0  0  0  0  0
  -25.1131  -36.2212   25.0926 H   0  0  0  0  0  0
  -20.9938  -28.2997   24.1531 H   0  0  0  0  0  0
  -20.5497  -26.2223   23.3610 H   0  0  0  0  0  0
  -21.6603  -26.7289   22.1295 H   0  0  0  0  0  0
  -19.6791  -25.6280   21.1230 H   0  0  0  0  0  0
  -19.6594  -27.3215   20.6800 H   0  0  0  0  0  0
  -17.4167  -26.6771   21.4028 H   0  0  0  0  0  0
  -18.0208  -25.9939   22.8953 H   0  0  0  0  0  0
  -19.7869  -30.7197   24.2439 H   0  0  0  0  0  0
  -17.4948  -31.6210   24.5129 H   0  0  0  0  0  0
  -15.5317  -30.2995   23.7453 H   0  0  0  0  0  0
  -15.8689  -28.0708   22.7170 H   0  0  0  0  0  0
  -24.5927  -30.6902   25.7776 H   0  0  0  0  0  0
  -24.8594  -32.2692   26.4959 H   0  0  0  0  0  0
  -25.7994  -30.8842   27.0266 H   0  0  0  0  0  0
  -26.2607  -29.7069   24.0991 H   0  0  0  0  0  0
  -27.4038  -29.7287   25.4228 H   0  0  0  0  0  0
  -27.8394  -30.4646   23.8978 H   0  0  0  0  0  0
  -27.2995  -33.3739   26.1942 H   0  0  0  0  0  0
  -28.3908  -32.6607   25.0168 H   0  0  0  0  0  0
  -28.0741  -31.8366   26.5338 H   0  0  0  0  0  0
  -28.2667  -38.0044   24.7572 H   0  0  0  0  0  0
  -28.1024  -36.2600   24.6304 H   0  0  0  0  0  0
  -27.2359  -37.1411   25.8945 H   0  0  0  0  0  0
  -20.9451  -29.8830   21.7127 H   0  0  0  0  0  0
  -26.0271  -38.3028   24.1361 H   0  0  0  0  0  0
  -33.2121  -17.1254   19.3681 H   0  0  0  0  0  0
  -32.5879  -14.7276   15.8161 H   0  0  0  0  0  0
  -32.8596  -19.1239   18.0176 H   0  0  0  0  0  0
  -32.2468  -16.7738   14.5241 H   0  0  0  0  0  0
  -34.2043  -14.4183   18.7350 H   0  0  0  0  0  0
  -33.0004  -13.5716   17.8246 H   0  0  0  0  0  0
  -27.6409  -24.9135   18.0668 H   0  0  0  0  0  0
  -29.1369  -25.6942   17.8027 H   0  0  0  0  0  0
  -28.5268  -23.1167   17.4078 H   0  0  0  0  0  0
  -28.9823  -22.8500   19.0355 H   0  0  0  0  0  0
  -29.5791  -25.1738   20.3784 H   0  0  0  0  0  0
  -27.8646  -24.9237   20.5054 H   0  0  0  0  0  0
  -31.3778  -23.5206   18.4829 H   0  0  0  0  0  0
  -30.8156  -23.8731   16.8298 H   0  0  0  0  0  0
  -30.6138  -20.3821   14.8395 H   0  0  0  0  0  0
  -30.3217  -19.6756   16.3500 H   0  0  0  0  0  0
  -31.7542  -22.1493   15.6087 H   0  0  0  0  0  0
  -32.5487  -21.2948   16.9253 H   0  0  0  0  0  0
  -33.0960  -14.3916   20.4716 H   0  0  0  0  0  0
  1 25  1  0  0  0
  1 30  2  0  0  0
  1 84  1  0  0  0
  2  3  1  0  0  0
  2 25  1  0  0  0
  2 87  1  0  0  0
  2 88  1  0  0  0
  3  4  1  0  0  0
  3 89  1  0  0  0
  3 90  1  0  0  0
  4  5  1  0  0  0
  4 91  1  0  0  0
  4 92  1  0  0  0
  5  6  1  0  0  0
  5 26  1  0  0  0
  5 93  1  0  0  0
  6 25  1  0  0  0
  6 94  1  0  0  0
  6 95  1  0  0  0
  7  8  2  0  0  0
  7 26  1  0  0  0
  7 29  1  0  0  0
  8  9  1  0  0  0
  8 22  1  0  0  0
  9 10  1  0  0  0
  9 27  2  0  0  0
 10 11  2  0  0  0
 10 15  1  0  0  0
 11 12  1  0  0  0
 11 96  1  0  0  0
 12 13  2  0  0  0
 12 97  1  0  0  0
 13 14  1  0  0  0
 13 31  1  0  0  0
 14 15  2  0  0  0
 14 98  1  0  0  0
 15 99  1  0  0  0
 16 17  2  0  0  0
 16 21  1  0  0  0
 16 31  1  0  0  0
 17 18  1  0  0  0
 17100  1  0  0  0
 18 19  2  0  0  0
 18101  1  0  0  0
 19 20  1  0  0  0
 19 24  1  0  0  0
 20 21  2  0  0  0
 20102  1  0  0  0
 21 23  1  0  0  0
 22 28  1  0  0  0
 22 32  2  0  0  0
 26 27  1  0  0  0
 28103  1  0  0  0
 28104  1  0  0  0
 29105  1  0  0  0
 29106  1  0  0  0
 33 34  1  0  0  0
 33 66  1  0  0  0
 33 70  2  0  0  0
 34 36  1  0  0  0
 34 59  1  0  0  0
 34107  1  0  0  0
 35 44  2  0  0  0
 35 45  1  0  0  0
 35 68  1  0  0  0
 36 56  1  0  0  0
 36108  1  0  0  0
 37 39  1  0  0  0
 37 47  1  0  0  0
 37 66  1  0  0  0
 37109  1  0  0  0
 38 43  2  0  0  0
 38 46  1  0  0  0
 38 47  1  0  0  0
 39 64  1  0  0  0
 39 67  2  0  0  0
 40 52  1  0  0  0
 40 53  2  0  0  0
 40 58  1  0  0  0
 41110  1  0  0  0
 41111  1  0  0  0
 41112  1  0  0  0
 41 48  1  0  0  0
 42 43  1  0  0  0
 42 66  1  0  0  0
 42113  1  0  0  0
 42114  1  0  0  0
 43 44  1  0  0  0
 44115  1  0  0  0
 45 46  2  0  0  0
 45116  1  0  0  0
 46117  1  0  0  0
 47118  1  0  0  0
 47119  1  0  0  0
 48 56  1  0  0  0
 48 65  1  0  0  0
 48120  1  0  0  0
 49 50  1  0  0  0
 49 53  1  0  0  0
 49 64  1  0  0  0
 49121  1  0  0  0
 50 51  1  0  0  0
 50122  1  0  0  0
 50123  1  0  0  0
 51 52  1  0  0  0
 51124  1  0  0  0
 51125  1  0  0  0
 52126  1  0  0  0
 52127  1  0  0  0
 53 54  1  0  0  0
 54 55  2  0  0  0
 54128  1  0  0  0
 55 57  1  0  0  0
 55129  1  0  0  0
 56 69  2  0  0  0
 57 58  2  0  0  0
 57130  1  0  0  0
 58131  1  0  0  0
 59 60  1  0  0  0
 59 61  1  0  0  0
 59 62  1  0  0  0
 60132  1  0  0  0
 60133  1  0  0  0
 60134  1  0  0  0
 61135  1  0  0  0
 61136  1  0  0  0
 61137  1  0  0  0
 62138  1  0  0  0
 62139  1  0  0  0
 62140  1  0  0  0
 63 65  1  0  0  0
 63141  1  0  0  0
 63142  1  0  0  0
 63143  1  0  0  0
 64144  1  0  0  0
 65145  1  0  0  0
 68 80  1  0  0  0
 71 73  2  0  0  0
 71 75  1  0  0  0
 71146  1  0  0  0
 72 74  1  0  0  0
 72 75  2  0  0  0
 72147  1  0  0  0
 73 76  1  0  0  0
 73148  1  0  0  0
 74 76  2  0  0  0
 74149  1  0  0  0
 75 77  1  0  0  0
 76 85  1  0  0  0
 77 84  1  0  0  0
 77150  1  0  0  0
 77151  1  0  0  0
 78 79  1  0  0  0
 78 80  1  0  0  0
 78152  1  0  0  0
 78153  1  0  0  0
 79 81  1  0  0  0
 79154  1  0  0  0
 79155  1  0  0  0
 80156  1  0  0  0
 80157  1  0  0  0
 81 86  1  0  0  0
 81158  1  0  0  0
 81159  1  0  0  0
 82 83  1  0  0  0
 82 85  1  0  0  0
 82160  1  0  0  0
 82161  1  0  0  0
 83 86  1  0  0  0
 83162  1  0  0  0
 83163  1  0  0  0
 84164  1  0  0  0
M  ISO  4   1 100  68 101  80 101  84 100
M  END
> <chiral flag>
0

> <version>
0

> <s_m_source_file>
/data/baiqing/PycharmProjects/Reinvent-master-3.2/result/LINK_invent/BTK/process_docking_weight1_custom_sum_contain_oxygen_bond_distance_aromatic_linkinvent_7_9_3/rearranged_h_0000.sdf

> <i_m_source_file_index>
87

> <r_mmod_Potential_Energy-OPLS-2005>
519.656005859375

> <r_mmod_Stretch_Energy-OPLS-2005>
62.4673042297363

> <r_mmod_Bend_Energy-OPLS-2005>
270.697082519531

> <r_mmod_Torsional_Energy-OPLS-2005>
328.206512451172

> <r_mmod_Improper_Torsional_Energy-OPLS-2005>
10.9794931411743

> <r_mmod_Van_der_Waal_Energy-OPLS-2005>
171.299926757812

> <r_mmod_Electrostatic_Energy-OPLS-2005>
-424.265319824219

> <r_mmod_Solvation_Energy-OPLS-2005>
-219.697448730469

> <b_mmod_Minimization_Converged-OPLS-2005>
0

> <r_mmod_RMS_Derivative-OPLS-2005>
25.8486175537109

$$$$
90
                    3D
 Structure written by MMmdl.
198205  0  0  1  0            999 V2000
  -30.7977  -14.3491   20.4661 C   0  0  0  0  0  0
  -30.3856  -12.2180   19.4062 C   0  0  0  0  0  0
  -29.4648  -12.4608   18.1970 C   0  0  0  0  0  0
  -27.9953  -12.3280   18.6242 C   0  0  0  0  0  0
  -27.6479  -13.1981   19.8640 C   0  0  2  0  0  0
  -28.7047  -13.0481   20.9880 C   0  0  0  0  0  0
  -25.2419  -13.7981   20.5610 C   0  0  0  0  0  0
  -24.1715  -13.0342   20.9223 C   0  0  0  0  0  0
  -24.6300  -11.6821   20.8812 C   0  0  0  0  0  0
  -23.9017  -10.4230   21.0455 C   0  0  0  0  0  0
  -24.3602   -9.4153   21.9217 C   0  0  0  0  0  0
  -23.6270   -8.2204   22.0793 C   0  0  0  0  0  0
  -22.4280   -8.0224   21.3537 C   0  0  0  0  0  0
  -21.9885   -9.0205   20.4633 C   0  0  0  0  0  0
  -22.7199  -10.2092   20.3073 C   0  0  0  0  0  0
  -21.6817   -6.0682   22.5269 C   0  0  0  0  0  0
  -21.3978   -6.5616   23.8195 C   0  0  0  0  0  0
  -21.3674   -5.6802   24.9190 C   0  0  0  0  0  0
  -21.6075   -4.3065   24.7260 C   0  0  0  0  0  0
  -21.8820   -3.8114   23.4387 C   0  0  0  0  0  0
  -21.9174   -4.6905   22.3430 C   0  0  0  0  0  0
  -22.7729  -13.5129   21.1928 C   0  0  0  0  0  0
  -22.1663   -4.2079   21.1021 F   0  0  0  0  0  0
  -21.5656   -3.4593   25.7800 F   0  0  0  0  0  0
  -30.0463  -13.2320   20.4087 N   0  0  0  0  0  0
  -26.2917  -12.9220   20.3398 N   0  0  0  0  0  0
  -25.9227  -11.6395   20.5899 N   0  0  0  0  0  0
  -22.0384  -12.8168   22.0503 N   0  0  0  0  0  0
  -25.3991  -15.1634   20.3689 N   0  0  0  0  0  0
  -31.9915  -14.3899   20.1709 O   0  0  0  0  0  0
  -21.6636   -6.8816   21.4228 O   0  0  0  0  0  0
  -22.3476  -14.5510   20.6824 O   0  0  0  0  0  0
  -24.6085  -31.8739   23.2180 C   0  0  0  0  0  0
  -25.9005  -32.4851   23.8458 C   0  0  1  0  0  0
  -27.2408  -27.5042   20.0316 C   0  0  0  0  0  0
  -25.5903  -33.8647   24.2391 N   0  0  0  0  0  0
  -23.3931  -30.5031   21.5567 C   0  0  2  0  0  0
  -24.8420  -28.9873   20.1118 C   0  0  0  0  0  0
  -22.7355  -29.4703   22.4997 C   0  0  0  0  0  0
  -18.0268  -28.1353   22.8475 C   0  0  0  0  0  0
  -24.1481  -36.7323   23.2626 C   0  0  0  0  0  0
  -25.9200  -30.8477   21.3725 C   0  0  0  0  0  0
  -26.0004  -29.4863   20.7239 C   0  0  0  0  0  0
  -27.1953  -28.7345   20.7177 C   0  0  0  0  0  0
  -26.0774  -27.0440   19.3821 C   0  0  0  0  0  0
  -24.8719  -27.7537   19.4488 C   0  0  0  0  0  0
  -23.5977  -29.8415   20.1702 C   0  0  0  0  0  0
  -25.4100  -36.3137   24.0342 C   0  0  1  0  0  0
  -20.5853  -28.3645   23.1300 C   0  0  2  0  0  0
  -20.6758  -26.9381   22.5389 C   0  0  0  0  0  0
  -19.5748  -26.6377   21.5171 C   0  0  0  0  0  0
  -18.1928  -26.7898   22.1599 C   0  0  0  0  0  0
  -19.1516  -28.8809   23.2890 C   0  0  0  0  0  0
  -18.9460  -30.1414   23.8902 C   0  0  0  0  0  0
  -17.6474  -30.6561   24.0572 C   0  0  0  0  0  0
  -25.9031  -34.9495   23.5155 C   0  0  0  0  0  0
  -16.5360  -29.9077   23.6315 C   0  0  0  0  0  0
  -16.7264  -28.6489   23.0332 C   0  0  0  0  0  0
  -26.4498  -31.6574   25.0712 C   0  0  0  0  0  0
  -25.3800  -31.3670   26.1485 C   0  0  0  0  0  0
  -27.0283  -30.3011   24.5992 C   0  0  0  0  0  0
  -27.6109  -32.4263   25.7450 C   0  0  0  0  0  0
  -27.5589  -37.1794   24.8449 C   0  0  0  0  0  0
  -21.4083  -29.3037   22.3706 N   0  0  0  0  0  0
  -26.4288  -37.3819   23.9427 N   0  0  0  0  0  0
  -24.6584  -31.0883   22.1084 N   0  0  0  0  0  0
  -23.4135  -28.8237   23.3022 O   0  0  0  0  0  0
  -28.3700  -26.7251   20.0268 O   0  0  0  0  0  0
  -26.5572  -34.8937   22.4702 O   0  0  0  0  0  0
  -23.5279  -32.1504   23.7597 O   0  0  0  0  0  0
  -25.8035  -22.7269   22.6814 C   0  0  0  0  0  0
  -27.0259  -22.8232   23.6166 C   0  0  0  0  0  0
  -31.7244  -17.4277   20.3754 C   0  0  0  0  0  0
  -31.5033  -17.9473   21.8134 C   0  0  0  0  0  0
  -28.2676  -17.9613   23.4439 C   0  0  0  0  0  0
  -28.1227  -19.0501   19.9206 C   0  0  0  0  0  0
  -30.6010  -16.6227   19.6807 C   0  0  0  0  0  0
  -25.0200  -23.4714   20.4364 C   0  0  0  0  0  0
  -31.4442  -16.8777   22.9235 C   0  0  0  0  0  0
  -29.3573  -17.1183   24.1314 C   0  0  0  0  0  0
  -27.4055  -17.1553   22.4541 C   0  0  0  0  0  0
  -27.0007  -18.0502   20.2415 C   0  0  0  0  0  0
  -27.6983  -20.5018   19.8247 C   0  0  0  0  0  0
  -26.0393  -23.6177   19.2926 C   0  0  0  0  0  0
  -29.2783  -26.9001   18.9358 C   0  0  0  0  0  0
  -28.7810  -23.0946   21.8440 C   0  0  0  0  0  0
  -28.7267  -26.4600   17.5583 C   0  0  0  0  0  0
  -28.8703  -21.5684   21.6402 C   0  0  0  0  0  0
  -26.3084  -23.6698   16.9047 C   0  0  0  0  0  0
  -27.1679  -24.9205   16.6037 C   0  0  0  0  0  0
  -25.7387  -23.6268   21.6962 N   0  0  0  0  0  0
  -30.0961  -15.4733   20.4231 N   0  0  0  0  0  0
  -24.9663  -21.8324   22.8266 O   0  0  0  0  0  0
  -28.1338  -23.5524   23.0494 O   0  0  0  0  0  0
  -30.1314  -16.3906   23.1746 O   0  0  0  0  0  0
  -26.6240  -18.0202   21.6225 O   0  0  0  0  0  0
  -27.6327  -21.0939   21.1113 O   0  0  0  0  0  0
  -25.4236  -23.8179   18.0230 O   0  0  0  0  0  0
  -28.1076  -25.1768   17.6473 O   0  0  0  0  0  0
  -31.4286  -12.2630   19.0827 H   0  0  0  0  0  0
  -30.2419  -11.2181   19.8221 H   0  0  0  0  0  0
  -29.6931  -11.7492   17.4044 H   0  0  0  0  0  0
  -29.6422  -13.4522   17.7699 H   0  0  0  0  0  0
  -27.8203  -11.2734   18.8526 H   0  0  0  0  0  0
  -27.3374  -12.5731   17.7867 H   0  0  0  0  0  0
  -27.6700  -14.2337   19.5268 H   0  0  0  0  0  0
  -28.6335  -12.0680   21.4612 H   0  0  0  0  0  0
  -28.5166  -13.7809   21.7763 H   0  0  0  0  0  0
  -25.2740   -9.5690   22.4801 H   0  0  0  0  0  0
  -23.9930   -7.4653   22.7592 H   0  0  0  0  0  0
  -21.0786   -8.8709   19.8978 H   0  0  0  0  0  0
  -22.3602  -10.9638   19.6219 H   0  0  0  0  0  0
  -21.1953   -7.6139   23.9647 H   0  0  0  0  0  0
  -21.1505   -6.0584   25.9087 H   0  0  0  0  0  0
  -22.0582   -2.7561   23.2952 H   0  0  0  0  0  0
  -22.3957  -11.9825   22.4931 H   0  0  0  0  0  0
  -21.1010  -13.1211   22.2750 H   0  0  0  0  0  0
  -24.5974  -15.7815   20.4099 H   0  0  0  0  0  0
  -26.1926  -15.5616   19.8891 H   0  0  0  0  0  0
  -26.7051  -32.5616   23.1226 H   0  0  0  0  0  0
  -25.0107  -33.9827   25.0570 H   0  0  0  0  0  0
  -22.6810  -31.3196   21.4233 H   0  0  0  0  0  0
  -23.3748  -35.9644   23.3272 H   0  0  0  0  0  0
  -24.3591  -36.8946   22.2044 H   0  0  0  0  0  0
  -23.7210  -37.6522   23.6632 H   0  0  0  0  0  0
  -26.0188  -31.6123   20.6010 H   0  0  0  0  0  0
  -26.8113  -30.9090   21.9837 H   0  0  0  0  0  0
  -28.0766  -29.0972   21.2276 H   0  0  0  0  0  0
  -26.0985  -26.1716   18.7625 H   0  0  0  0  0  0
  -23.9943  -27.3764   18.9428 H   0  0  0  0  0  0
  -23.6921  -30.6160   19.4090 H   0  0  0  0  0  0
  -22.7247  -29.2534   19.8808 H   0  0  0  0  0  0
  -25.1260  -36.2030   25.0829 H   0  0  0  0  0  0
  -20.9957  -28.3211   24.1425 H   0  0  0  0  0  0
  -20.5632  -26.2246   23.3566 H   0  0  0  0  0  0
  -21.6642  -26.7406   22.1222 H   0  0  0  0  0  0
  -19.6923  -25.6302   21.1173 H   0  0  0  0  0  0
  -19.6694  -27.3202   20.6715 H   0  0  0  0  0  0
  -17.4183  -26.6604   21.4020 H   0  0  0  0  0  0
  -18.0377  -26.0038   22.9004 H   0  0  0  0  0  0
  -19.7953  -30.7203   24.2267 H   0  0  0  0  0  0
  -17.5051  -31.6245   24.5169 H   0  0  0  0  0  0
  -15.5365  -30.3002   23.7631 H   0  0  0  0  0  0
  -15.8657  -28.0826   22.7045 H   0  0  0  0  0  0
  -24.5972  -30.7008   25.7848 H   0  0  0  0  0  0
  -24.9008  -32.2817   26.4958 H   0  0  0  0  0  0
  -25.8200  -30.8841   27.0207 H   0  0  0  0  0  0
  -26.2745  -29.6771   24.1153 H   0  0  0  0  0  0
  -27.4200  -29.7252   25.4385 H   0  0  0  0  0  0
  -27.8540  -30.4346   23.8996 H   0  0  0  0  0  0
  -27.2758  -33.3564   26.2050 H   0  0  0  0  0  0
  -28.3901  -32.6785   25.0245 H   0  0  0  0  0  0
  -28.0761  -31.8334   26.5339 H   0  0  0  0  0  0
  -28.2588  -38.0116   24.7559 H   0  0  0  0  0  0
  -28.1100  -36.2646   24.6186 H   0  0  0  0  0  0
  -27.2299  -37.1349   25.8848 H   0  0  0  0  0  0
  -20.9194  -29.8786   21.6987 H   0  0  0  0  0  0
  -26.0179  -38.2885   24.1492 H   0  0  0  0  0  0
  -27.3501  -21.8216   23.9107 H   0  0  0  0  0  0
  -26.7218  -23.3511   24.5209 H   0  0  0  0  0  0
  -32.6513  -16.8549   20.3467 H   0  0  0  0  0  0
  -31.9157  -18.2957   19.7457 H   0  0  0  0  0  0
  -30.6787  -18.6518   21.8610 H   0  0  0  0  0  0
  -32.3776  -18.5552   22.0443 H   0  0  0  0  0  0
  -28.7437  -18.7844   22.9226 H   0  0  0  0  0  0
  -27.6307  -18.4212   24.1986 H   0  0  0  0  0  0
  -28.4834  -18.8064   18.9206 H   0  0  0  0  0  0
  -28.9576  -18.9360   20.6023 H   0  0  0  0  0  0
  -30.9804  -16.2708   18.7145 H   0  0  0  0  0  0
  -29.7652  -17.2378   19.4148 H   0  0  0  0  0  0
  -24.5303  -22.4945   20.3694 H   0  0  0  0  0  0
  -24.2347  -24.2279   20.3832 H   0  0  0  0  0  0
  -31.9050  -17.2509   23.8401 H   0  0  0  0  0  0
  -32.0513  -16.0229   22.6305 H   0  0  0  0  0  0
  -28.9080  -16.3864   24.8100 H   0  0  0  0  0  0
  -29.9797  -17.7632   24.7489 H   0  0  0  0  0  0
  -26.7338  -16.5012   23.0043 H   0  0  0  0  0  0
  -28.0332  -16.4909   21.8669 H   0  0  0  0  0  0
  -27.2876  -17.0580   19.8982 H   0  0  0  0  0  0
  -26.1279  -18.3152   19.6462 H   0  0  0  0  0  0
  -26.7146  -20.5277   19.3544 H   0  0  0  0  0  0
  -28.3606  -21.0652   19.1632 H   0  0  0  0  0  0
  -26.6657  -22.7364   19.2550 H   0  0  0  0  0  0
  -26.7314  -24.4226   19.5210 H   0  0  0  0  0  0
  -29.6135  -27.9373   18.8936 H   0  0  0  0  0  0
  -30.1623  -26.3082   19.1762 H   0  0  0  0  0  0
  -28.3465  -23.5776   20.9696 H   0  0  0  0  0  0
  -29.7976  -23.4789   21.8806 H   0  0  0  0  0  0
  -29.5343  -26.4255   16.8242 H   0  0  0  0  0  0
  -28.0281  -27.2187   17.2041 H   0  0  0  0  0  0
  -29.7062  -21.3439   20.9769 H   0  0  0  0  0  0
  -29.0970  -21.0656   22.5774 H   0  0  0  0  0  0
  -26.9213  -22.7731   16.9916 H   0  0  0  0  0  0
  -25.6681  -23.5025   16.0363 H   0  0  0  0  0  0
  -26.5064  -25.7702   16.4416 H   0  0  0  0  0  0
  -27.7074  -24.7798   15.6626 H   0  0  0  0  0  0
  -26.4692  -24.3269   21.7149 H   0  0  0  0  0  0
  -29.1058  -15.4022   20.6030 H   0  0  0  0  0  0
  1 25  1  0  0  0
  1 30  2  0  0  0
  1 92  1  0  0  0
  2  3  1  0  0  0
  2 25  1  0  0  0
  2100  1  0  0  0
  2101  1  0  0  0
  3  4  1  0  0  0
  3102  1  0  0  0
  3103  1  0  0  0
  4  5  1  0  0  0
  4104  1  0  0  0
  4105  1  0  0  0
  5  6  1  0  0  0
  5 26  1  0  0  0
  5106  1  0  0  0
  6 25  1  0  0  0
  6107  1  0  0  0
  6108  1  0  0  0
  7  8  2  0  0  0
  7 26  1  0  0  0
  7 29  1  0  0  0
  8  9  1  0  0  0
  8 22  1  0  0  0
  9 10  1  0  0  0
  9 27  2  0  0  0
 10 11  2  0  0  0
 10 15  1  0  0  0
 11 12  1  0  0  0
 11109  1  0  0  0
 12 13  2  0  0  0
 12110  1  0  0  0
 13 14  1  0  0  0
 13 31  1  0  0  0
 14 15  2  0  0  0
 14111  1  0  0  0
 15112  1  0  0  0
 16 17  2  0  0  0
 16 21  1  0  0  0
 16 31  1  0  0  0
 17 18  1  0  0  0
 17113  1  0  0  0
 18 19  2  0  0  0
 18114  1  0  0  0
 19 20  1  0  0  0
 19 24  1  0  0  0
 20 21  2  0  0  0
 20115  1  0  0  0
 21 23  1  0  0  0
 22 28  1  0  0  0
 22 32  2  0  0  0
 26 27  1  0  0  0
 28116  1  0  0  0
 28117  1  0  0  0
 29118  1  0  0  0
 29119  1  0  0  0
 33 34  1  0  0  0
 33 66  1  0  0  0
 33 70  2  0  0  0
 34 36  1  0  0  0
 34 59  1  0  0  0
 34120  1  0  0  0
 35 44  2  0  0  0
 35 45  1  0  0  0
 35 68  1  0  0  0
 36 56  1  0  0  0
 36121  1  0  0  0
 37 39  1  0  0  0
 37 47  1  0  0  0
 37 66  1  0  0  0
 37122  1  0  0  0
 38 43  2  0  0  0
 38 46  1  0  0  0
 38 47  1  0  0  0
 39 64  1  0  0  0
 39 67  2  0  0  0
 40 52  1  0  0  0
 40 53  2  0  0  0
 40 58  1  0  0  0
 41123  1  0  0  0
 41124  1  0  0  0
 41125  1  0  0  0
 41 48  1  0  0  0
 42 43  1  0  0  0
 42 66  1  0  0  0
 42126  1  0  0  0
 42127  1  0  0  0
 43 44  1  0  0  0
 44128  1  0  0  0
 45 46  2  0  0  0
 45129  1  0  0  0
 46130  1  0  0  0
 47131  1  0  0  0
 47132  1  0  0  0
 48 56  1  0  0  0
 48 65  1  0  0  0
 48133  1  0  0  0
 49 50  1  0  0  0
 49 53  1  0  0  0
 49 64  1  0  0  0
 49134  1  0  0  0
 50 51  1  0  0  0
 50135  1  0  0  0
 50136  1  0  0  0
 51 52  1  0  0  0
 51137  1  0  0  0
 51138  1  0  0  0
 52139  1  0  0  0
 52140  1  0  0  0
 53 54  1  0  0  0
 54 55  2  0  0  0
 54141  1  0  0  0
 55 57  1  0  0  0
 55142  1  0  0  0
 56 69  2  0  0  0
 57 58  2  0  0  0
 57143  1  0  0  0
 58144  1  0  0  0
 59 60  1  0  0  0
 59 61  1  0  0  0
 59 62  1  0  0  0
 60145  1  0  0  0
 60146  1  0  0  0
 60147  1  0  0  0
 61148  1  0  0  0
 61149  1  0  0  0
 61150  1  0  0  0
 62151  1  0  0  0
 62152  1  0  0  0
 62153  1  0  0  0
 63 65  1  0  0  0
 63154  1  0  0  0
 63155  1  0  0  0
 63156  1  0  0  0
 64157  1  0  0  0
 65158  1  0  0  0
 68 85  1  0  0  0
 71 72  1  0  0  0
 71 91  1  0  0  0
 71 93  2  0  0  0
 72 94  1  0  0  0
 72159  1  0  0  0
 72160  1  0  0  0
 73 74  1  0  0  0
 73 77  1  0  0  0
 73161  1  0  0  0
 73162  1  0  0  0
 74 79  1  0  0  0
 74163  1  0  0  0
 74164  1  0  0  0
 75 80  1  0  0  0
 75 81  1  0  0  0
 75165  1  0  0  0
 75166  1  0  0  0
 76 82  1  0  0  0
 76 83  1  0  0  0
 76167  1  0  0  0
 76168  1  0  0  0
 77 92  1  0  0  0
 77169  1  0  0  0
 77170  1  0  0  0
 78 84  1  0  0  0
 78 91  1  0  0  0
 78171  1  0  0  0
 78172  1  0  0  0
 79 95  1  0  0  0
 79173  1  0  0  0
 79174  1  0  0  0
 80 95  1  0  0  0
 80175  1  0  0  0
 80176  1  0  0  0
 81 96  1  0  0  0
 81177  1  0  0  0
 81178  1  0  0  0
 82 96  1  0  0  0
 82179  1  0  0  0
 82180  1  0  0  0
 83 97  1  0  0  0
 83181  1  0  0  0
 83182  1  0  0  0
 84 98  1  0  0  0
 84183  1  0  0  0
 84184  1  0  0  0
 85 87  1  0  0  0
 85185  1  0  0  0
 85186  1  0  0  0
 86 88  1  0  0  0
 86 94  1  0  0  0
 86187  1  0  0  0
 86188  1  0  0  0
 87 99  1  0  0  0
 87189  1  0  0  0
 87190  1  0  0  0
 88 97  1  0  0  0
 88191  1  0  0  0
 88192  1  0  0  0
 89 90  1  0  0  0
 89 98  1  0  0  0
 89193  1  0  0  0
 89194  1  0  0  0
 90 99  1  0  0  0
 90195  1  0  0  0
 90196  1  0  0  0
 91197  1  0  0  0
 92198  1  0  0  0
M  ISO  4   1 100  68 101  85 101  92 100
M  END
> <chiral flag>
0

> <version>
0

> <s_m_source_file>
/data/baiqing/PycharmProjects/Reinvent-master-3.2/result/LINK_invent/BTK/process_docking_weight1_custom_sum_contain_oxygen_bond_distance_aromatic_linkinvent_7_9_3/rearranged_h_0000.sdf

> <i_m_source_file_index>
88

> <r_mmod_Potential_Energy-OPLS-2005>
15.3852319717407

> <r_mmod_Stretch_Energy-OPLS-2005>
39.1554069519043

> <r_mmod_Bend_Energy-OPLS-2005>
147.547897338867

> <r_mmod_Torsional_Energy-OPLS-2005>
309.818878173828

> <r_mmod_Improper_Torsional_Energy-OPLS-2005>
16.2599906921387

> <r_mmod_Van_der_Waal_Energy-OPLS-2005>
121.767730712891

> <r_mmod_Electrostatic_Energy-OPLS-2005>
-396.678131103516

> <r_mmod_Solvation_Energy-OPLS-2005>
-252.911483764648

> <b_mmod_Minimization_Converged-OPLS-2005>
0

> <r_mmod_RMS_Derivative-OPLS-2005>
7.4929666519165

$$$$
91
                    3D
 Structure written by MMmdl.
186193  0  0  1  0            999 V2000
  -30.7380  -14.4612   20.6308 C   0  0  0  0  0  0
  -30.4419  -12.3067   19.4091 C   0  0  0  0  0  0
  -29.4956  -12.5109   18.2110 C   0  0  0  0  0  0
  -28.0255  -12.3412   18.6456 C   0  0  0  0  0  0
  -27.6687  -13.1898   19.8936 C   0  0  2  0  0  0
  -28.7095  -12.9730   21.0144 C   0  0  0  0  0  0
  -25.2540  -13.7968   20.5896 C   0  0  0  0  0  0
  -24.1787  -13.0339   20.9262 C   0  0  0  0  0  0
  -24.6323  -11.6808   20.8781 C   0  0  0  0  0  0
  -23.8988  -10.4256   21.0439 C   0  0  0  0  0  0
  -24.3573   -9.4175   21.9206 C   0  0  0  0  0  0
  -23.6258   -8.2220   22.0748 C   0  0  0  0  0  0
  -22.4227   -8.0293   21.3536 C   0  0  0  0  0  0
  -21.9864   -9.0260   20.4627 C   0  0  0  0  0  0
  -22.7178  -10.2139   20.3060 C   0  0  0  0  0  0
  -21.6805   -6.0758   22.5299 C   0  0  0  0  0  0
  -21.3987   -6.5644   23.8252 C   0  0  0  0  0  0
  -21.3669   -5.6775   24.9205 C   0  0  0  0  0  0
  -21.6080   -4.3051   24.7229 C   0  0  0  0  0  0
  -21.8800   -3.8148   23.4333 C   0  0  0  0  0  0
  -21.9174   -4.6990   22.3407 C   0  0  0  0  0  0
  -22.7811  -13.5231   21.1884 C   0  0  0  0  0  0
  -22.1618   -4.2174   21.0991 F   0  0  0  0  0  0
  -21.5657   -3.4541   25.7744 F   0  0  0  0  0  0
  -30.0474  -13.2504   20.4615 N   0  0  0  0  0  0
  -26.3059  -12.9216   20.3535 N   0  0  0  0  0  0
  -25.9278  -11.6377   20.5832 N   0  0  0  0  0  0
  -22.0326  -12.8354   22.0411 N   0  0  0  0  0  0
  -25.4114  -15.1676   20.4504 N   0  0  0  0  0  0
  -31.7748  -14.7803   20.0461 O   0  0  0  0  0  0
  -21.6578   -6.8907   21.4252 O   0  0  0  0  0  0
  -22.3642  -14.5601   20.6698 O   0  0  0  0  0  0
  -24.6107  -31.8683   23.2112 C   0  0  0  0  0  0
  -25.9006  -32.4824   23.8397 C   0  0  1  0  0  0
  -27.2571  -27.4794   20.0795 C   0  0  0  0  0  0
  -25.5895  -33.8634   24.2359 N   0  0  0  0  0  0
  -23.4011  -30.4882   21.5476 C   0  0  2  0  0  0
  -24.8558  -28.9563   20.1110 C   0  0  0  0  0  0
  -22.7409  -29.4668   22.5005 C   0  0  0  0  0  0
  -18.0278  -28.1373   22.8476 C   0  0  0  0  0  0
  -24.1496  -36.7315   23.2629 C   0  0  0  0  0  0
  -25.9239  -30.8432   21.3590 C   0  0  0  0  0  0
  -26.0081  -29.4777   20.7137 C   0  0  0  0  0  0
  -27.2124  -28.7451   20.7031 C   0  0  0  0  0  0
  -26.0997  -26.9659   19.4681 C   0  0  0  0  0  0
  -24.8942  -27.6965   19.4856 C   0  0  0  0  0  0
  -23.6086  -29.8094   20.1659 C   0  0  0  0  0  0
  -25.4099  -36.3123   24.0351 C   0  0  1  0  0  0
  -20.5867  -28.3646   23.1346 C   0  0  2  0  0  0
  -20.6768  -26.9391   22.5439 C   0  0  0  0  0  0
  -19.5749  -26.6377   21.5231 C   0  0  0  0  0  0
  -18.1928  -26.7926   22.1621 C   0  0  0  0  0  0
  -19.1522  -28.8840   23.2898 C   0  0  0  0  0  0
  -18.9436  -30.1462   23.8904 C   0  0  0  0  0  0
  -17.6436  -30.6579   24.0586 C   0  0  0  0  0  0
  -25.9028  -34.9492   23.5141 C   0  0  0  0  0  0
  -16.5337  -29.9069   23.6340 C   0  0  0  0  0  0
  -16.7266  -28.6495   23.0323 C   0  0  0  0  0  0
  -26.4435  -31.6581   25.0715 C   0  0  0  0  0  0
  -25.3714  -31.3666   26.1465 C   0  0  0  0  0  0
  -27.0189  -30.3024   24.6008 C   0  0  0  0  0  0
  -27.6073  -32.4223   25.7444 C   0  0  0  0  0  0
  -27.5604  -37.1787   24.8449 C   0  0  0  0  0  0
  -21.4148  -29.3027   22.3758 N   0  0  0  0  0  0
  -26.4283  -37.3806   23.9438 N   0  0  0  0  0  0
  -24.6628  -31.0805   22.0992 N   0  0  0  0  0  0
  -23.4195  -28.8235   23.3070 O   0  0  0  0  0  0
  -28.4172  -26.7492   20.0438 O   0  0  0  0  0  0
  -26.5571  -34.8926   22.4699 O   0  0  0  0  0  0
  -23.5311  -32.1462   23.7505 O   0  0  0  0  0  0
  -29.7551  -22.4480   15.9568 C   0  0  0  0  0  0
  -30.5827  -25.1439   18.2933 C   0  0  0  0  0  0
  -32.1965  -25.4697   20.1265 C   0  0  0  0  0  0
  -29.7535  -22.8640   17.4249 C   0  0  0  0  0  0
  -29.4129  -24.3543   17.6880 C   0  0  0  0  0  0
  -31.4966  -19.7481   14.5894 C   0  0  0  0  0  0
  -28.8960  -24.6369   21.1219 C   0  0  0  0  0  0
  -31.0974  -21.2020   14.2455 C   0  0  0  0  0  0
  -30.2049  -24.0616   20.5146 C   0  0  0  0  0  0
  -28.7760  -26.1599   21.2921 C   0  0  0  0  0  0
  -30.6378  -18.6579   13.9190 C   0  0  0  0  0  0
  -30.1469  -16.6932   21.4167 C   0  0  0  0  0  0
  -28.7845  -17.1903   20.8829 C   0  0  0  0  0  0
  -28.7142  -18.8820   15.3910 C   0  0  0  0  0  0
  -28.5681  -17.4736   16.0057 C   0  0  0  0  0  0
  -27.3455  -17.3160   19.0276 C   0  0  0  0  0  0
  -26.9979  -18.0539   17.7271 C   0  0  0  0  0  0
  -30.9117  -21.9816   15.4704 N   0  0  0  0  0  0
  -30.9327  -24.9461   19.5869 N   0  0  0  0  0  0
  -28.7103  -22.4604   15.3099 O   0  0  0  0  0  0
  -31.1815  -25.9376   17.5605 O   0  0  0  0  0  0
  -30.0793  -15.2679   21.4860 O   0  0  0  0  0  0
  -29.2343  -18.8721   14.0637 O   0  0  0  0  0  0
  -28.7093  -17.3672   19.4606 O   0  0  0  0  0  0
  -27.2733  -17.2858   16.5621 O   0  0  0  0  0  0
  -31.4813  -12.4434   19.1054 H   0  0  0  0  0  0
  -30.3715  -11.2854   19.7849 H   0  0  0  0  0  0
  -29.7394  -11.7961   17.4243 H   0  0  0  0  0  0
  -29.6496  -13.5044   17.7818 H   0  0  0  0  0  0
  -27.8771  -11.2842   18.8729 H   0  0  0  0  0  0
  -27.3467  -12.5637   17.8242 H   0  0  0  0  0  0
  -27.7156  -14.2372   19.6024 H   0  0  0  0  0  0
  -28.6706  -11.9438   21.3656 H   0  0  0  0  0  0
  -28.4629  -13.5832   21.8849 H   0  0  0  0  0  0
  -25.2743   -9.5684   22.4773 H   0  0  0  0  0  0
  -23.9966   -7.4629   22.7466 H   0  0  0  0  0  0
  -21.0798   -8.8823   19.8939 H   0  0  0  0  0  0
  -22.3671  -10.9717   19.6182 H   0  0  0  0  0  0
  -21.1913   -7.6144   23.9786 H   0  0  0  0  0  0
  -21.1517   -6.0478   25.9127 H   0  0  0  0  0  0
  -22.0548   -2.7609   23.2806 H   0  0  0  0  0  0
  -22.3773  -12.0034   22.4994 H   0  0  0  0  0  0
  -21.0959  -13.1499   22.2449 H   0  0  0  0  0  0
  -24.6356  -15.8073   20.5826 H   0  0  0  0  0  0
  -26.2750  -15.6090   20.1791 H   0  0  0  0  0  0
  -26.7111  -32.5554   23.1186 H   0  0  0  0  0  0
  -25.0104  -33.9805   25.0536 H   0  0  0  0  0  0
  -22.6880  -31.3026   21.4006 H   0  0  0  0  0  0
  -23.3779  -35.9623   23.3235 H   0  0  0  0  0  0
  -24.3664  -36.8967   22.2071 H   0  0  0  0  0  0
  -23.7209  -37.6487   23.6662 H   0  0  0  0  0  0
  -26.0302  -31.6056   20.5845 H   0  0  0  0  0  0
  -26.8170  -30.9062   21.9697 H   0  0  0  0  0  0
  -28.1037  -29.1505   21.1583 H   0  0  0  0  0  0
  -26.1305  -26.0004   18.9819 H   0  0  0  0  0  0
  -24.0133  -27.2833   19.0128 H   0  0  0  0  0  0
  -23.7065  -30.5748   19.3975 H   0  0  0  0  0  0
  -22.7393  -29.2150   19.8755 H   0  0  0  0  0  0
  -25.1261  -36.1984   25.0842 H   0  0  0  0  0  0
  -20.9955  -28.3188   24.1461 H   0  0  0  0  0  0
  -20.5693  -26.2253   23.3606 H   0  0  0  0  0  0
  -21.6622  -26.7453   22.1208 H   0  0  0  0  0  0
  -19.6906  -25.6290   21.1246 H   0  0  0  0  0  0
  -19.6682  -27.3205   20.6780 H   0  0  0  0  0  0
  -17.4208  -26.6692   21.4022 H   0  0  0  0  0  0
  -18.0301  -26.0066   22.9010 H   0  0  0  0  0  0
  -19.7917  -30.7286   24.2251 H   0  0  0  0  0  0
  -17.4986  -31.6266   24.5158 H   0  0  0  0  0  0
  -15.5339  -30.2967   23.7663 H   0  0  0  0  0  0
  -15.8659  -28.0849   22.6980 H   0  0  0  0  0  0
  -24.5956  -30.6906   25.7841 H   0  0  0  0  0  0
  -24.8794  -32.2792   26.4849 H   0  0  0  0  0  0
  -25.8090  -30.8937   27.0264 H   0  0  0  0  0  0
  -26.2688  -29.6865   24.1021 H   0  0  0  0  0  0
  -27.3939  -29.7159   25.4406 H   0  0  0  0  0  0
  -27.8551  -30.4335   23.9128 H   0  0  0  0  0  0
  -27.2807  -33.3594   26.1926 H   0  0  0  0  0  0
  -28.3915  -32.6610   25.0264 H   0  0  0  0  0  0
  -28.0645  -31.8351   26.5398 H   0  0  0  0  0  0
  -28.2543  -38.0165   24.7618 H   0  0  0  0  0  0
  -28.1168  -36.2710   24.6080 H   0  0  0  0  0  0
  -27.2363  -37.1188   25.8853 H   0  0  0  0  0  0
  -20.9309  -29.8748   21.6958 H   0  0  0  0  0  0
  -26.0172  -38.2874   24.1469 H   0  0  0  0  0  0
  -32.6178  -26.2962   19.5480 H   0  0  0  0  0  0
  -32.9460  -24.6753   20.1425 H   0  0  0  0  0  0
  -32.0668  -25.8324   21.1468 H   0  0  0  0  0  0
  -30.6985  -22.5641   17.8829 H   0  0  0  0  0  0
  -28.9943  -22.2478   17.9164 H   0  0  0  0  0  0
  -29.0826  -24.8649   16.7853 H   0  0  0  0  0  0
  -28.5620  -24.4176   18.3611 H   0  0  0  0  0  0
  -31.5147  -19.5951   15.6672 H   0  0  0  0  0  0
  -32.5299  -19.5955   14.2791 H   0  0  0  0  0  0
  -28.7773  -24.1783   22.1041 H   0  0  0  0  0  0
  -28.0312  -24.2857   20.5579 H   0  0  0  0  0  0
  -30.2069  -21.2269   13.6118 H   0  0  0  0  0  0
  -31.8936  -21.6667   13.6610 H   0  0  0  0  0  0
  -29.9640  -23.1180   20.0314 H   0  0  0  0  0  0
  -30.8756  -23.7664   21.3195 H   0  0  0  0  0  0
  -29.7057  -26.5928   21.6633 H   0  0  0  0  0  0
  -28.0116  -26.3562   22.0492 H   0  0  0  0  0  0
  -30.9076  -17.6730   14.3017 H   0  0  0  0  0  0
  -30.8601  -18.6315   12.8512 H   0  0  0  0  0  0
  -30.2717  -17.0331   22.4468 H   0  0  0  0  0  0
  -30.9950  -17.0960   20.8636 H   0  0  0  0  0  0
  -28.4953  -18.1316   21.3597 H   0  0  0  0  0  0
  -28.0385  -16.4620   21.2014 H   0  0  0  0  0  0
  -29.2588  -19.5455   16.0618 H   0  0  0  0  0  0
  -27.7266  -19.3340   15.2937 H   0  0  0  0  0  0
  -29.3489  -17.2529   16.7371 H   0  0  0  0  0  0
  -28.6703  -16.7280   15.2171 H   0  0  0  0  0  0
  -27.0579  -16.2778   18.8995 H   0  0  0  0  0  0
  -26.7131  -17.7416   19.8104 H   0  0  0  0  0  0
  -27.4036  -19.0651   17.6977 H   0  0  0  0  0  0
  -25.9126  -18.1694   17.7194 H   0  0  0  0  0  0
  -31.7163  -22.0610   16.0775 H   0  0  0  0  0  0
  1 25  1  0  0  0
  1 30  2  0  0  0
  1 92  1  0  0  0
  2  3  1  0  0  0
  2 25  1  0  0  0
  2 96  1  0  0  0
  2 97  1  0  0  0
  3  4  1  0  0  0
  3 98  1  0  0  0
  3 99  1  0  0  0
  4  5  1  0  0  0
  4100  1  0  0  0
  4101  1  0  0  0
  5  6  1  0  0  0
  5 26  1  0  0  0
  5102  1  0  0  0
  6 25  1  0  0  0
  6103  1  0  0  0
  6104  1  0  0  0
  7  8  2  0  0  0
  7 26  1  0  0  0
  7 29  1  0  0  0
  8  9  1  0  0  0
  8 22  1  0  0  0
  9 10  1  0  0  0
  9 27  2  0  0  0
 10 11  2  0  0  0
 10 15  1  0  0  0
 11 12  1  0  0  0
 11105  1  0  0  0
 12 13  2  0  0  0
 12106  1  0  0  0
 13 14  1  0  0  0
 13 31  1  0  0  0
 14 15  2  0  0  0
 14107  1  0  0  0
 15108  1  0  0  0
 16 17  2  0  0  0
 16 21  1  0  0  0
 16 31  1  0  0  0
 17 18  1  0  0  0
 17109  1  0  0  0
 18 19  2  0  0  0
 18110  1  0  0  0
 19 20  1  0  0  0
 19 24  1  0  0  0
 20 21  2  0  0  0
 20111  1  0  0  0
 21 23  1  0  0  0
 22 28  1  0  0  0
 22 32  2  0  0  0
 26 27  1  0  0  0
 28112  1  0  0  0
 28113  1  0  0  0
 29114  1  0  0  0
 29115  1  0  0  0
 33 34  1  0  0  0
 33 66  1  0  0  0
 33 70  2  0  0  0
 34 36  1  0  0  0
 34 59  1  0  0  0
 34116  1  0  0  0
 35 44  2  0  0  0
 35 45  1  0  0  0
 35 68  1  0  0  0
 36 56  1  0  0  0
 36117  1  0  0  0
 37 39  1  0  0  0
 37 47  1  0  0  0
 37 66  1  0  0  0
 37118  1  0  0  0
 38 43  2  0  0  0
 38 46  1  0  0  0
 38 47  1  0  0  0
 39 64  1  0  0  0
 39 67  2  0  0  0
 40 52  1  0  0  0
 40 53  2  0  0  0
 40 58  1  0  0  0
 41119  1  0  0  0
 41120  1  0  0  0
 41121  1  0  0  0
 41 48  1  0  0  0
 42 43  1  0  0  0
 42 66  1  0  0  0
 42122  1  0  0  0
 42123  1  0  0  0
 43 44  1  0  0  0
 44124  1  0  0  0
 45 46  2  0  0  0
 45125  1  0  0  0
 46126  1  0  0  0
 47127  1  0  0  0
 47128  1  0  0  0
 48 56  1  0  0  0
 48 65  1  0  0  0
 48129  1  0  0  0
 49 50  1  0  0  0
 49 53  1  0  0  0
 49 64  1  0  0  0
 49130  1  0  0  0
 50 51  1  0  0  0
 50131  1  0  0  0
 50132  1  0  0  0
 51 52  1  0  0  0
 51133  1  0  0  0
 51134  1  0  0  0
 52135  1  0  0  0
 52136  1  0  0  0
 53 54  1  0  0  0
 54 55  2  0  0  0
 54137  1  0  0  0
 55 57  1  0  0  0
 55138  1  0  0  0
 56 69  2  0  0  0
 57 58  2  0  0  0
 57139  1  0  0  0
 58140  1  0  0  0
 59 60  1  0  0  0
 59 61  1  0  0  0
 59 62  1  0  0  0
 60141  1  0  0  0
 60142  1  0  0  0
 60143  1  0  0  0
 61144  1  0  0  0
 61145  1  0  0  0
 61146  1  0  0  0
 62147  1  0  0  0
 62148  1  0  0  0
 62149  1  0  0  0
 63 65  1  0  0  0
 63150  1  0  0  0
 63151  1  0  0  0
 63152  1  0  0  0
 64153  1  0  0  0
 65154  1  0  0  0
 68 80  1  0  0  0
 71 74  1  0  0  0
 71 88  1  0  0  0
 71 90  2  0  0  0
 72 75  1  0  0  0
 72 89  1  0  0  0
 72 91  2  0  0  0
 73 89  1  0  0  0
 73155  1  0  0  0
 73156  1  0  0  0
 73157  1  0  0  0
 74 75  1  0  0  0
 74158  1  0  0  0
 74159  1  0  0  0
 75160  1  0  0  0
 75161  1  0  0  0
 76 78  1  0  0  0
 76 81  1  0  0  0
 76162  1  0  0  0
 76163  1  0  0  0
 77 79  1  0  0  0
 77 80  1  0  0  0
 77164  1  0  0  0
 77165  1  0  0  0
 78 88  1  0  0  0
 78166  1  0  0  0
 78167  1  0  0  0
 79 89  1  0  0  0
 79168  1  0  0  0
 79169  1  0  0  0
 80170  1  0  0  0
 80171  1  0  0  0
 81 93  1  0  0  0
 81172  1  0  0  0
 81173  1  0  0  0
 82 83  1  0  0  0
 82 92  1  0  0  0
 82174  1  0  0  0
 82175  1  0  0  0
 83 94  1  0  0  0
 83176  1  0  0  0
 83177  1  0  0  0
 84 85  1  0  0  0
 84 93  1  0  0  0
 84178  1  0  0  0
 84179  1  0  0  0
 85 95  1  0  0  0
 85180  1  0  0  0
 85181  1  0  0  0
 86 87  1  0  0  0
 86 94  1  0  0  0
 86182  1  0  0  0
 86183  1  0  0  0
 87 95  1  0  0  0
 87184  1  0  0  0
 87185  1  0  0  0
 88186  1  0  0  0
M  ISO  4   1 100  68 101  80 101  92 100
M  END
> <chiral flag>
0

> <version>
0

> <s_m_source_file>
/data/baiqing/PycharmProjects/Reinvent-master-3.2/result/LINK_invent/BTK/process_docking_weight1_custom_sum_contain_oxygen_bond_distance_aromatic_linkinvent_7_9_3/rearranged_h_0000.sdf

> <i_m_source_file_index>
89

> <r_mmod_Potential_Energy-OPLS-2005>
-132.345153808594

> <r_mmod_Stretch_Energy-OPLS-2005>
37.9230308532715

> <r_mmod_Bend_Energy-OPLS-2005>
128.747085571289

> <r_mmod_Torsional_Energy-OPLS-2005>
257.536956787109

> <r_mmod_Improper_Torsional_Energy-OPLS-2005>
3.22334814071655

> <r_mmod_Van_der_Waal_Energy-OPLS-2005>
132.858154296875

> <r_mmod_Electrostatic_Energy-OPLS-2005>
-433.179809570312

> <r_mmod_Solvation_Energy-OPLS-2005>
-269.707214355469

> <b_mmod_Minimization_Converged-OPLS-2005>
0

> <r_mmod_RMS_Derivative-OPLS-2005>
7.44021654129028

$$$$
92
                    3D
 Structure written by MMmdl.
151159  0  0  1  0            999 V2000
  -30.6240  -14.7128   20.4559 C   0  0  0  0  0  0
  -30.4260  -12.4287   19.4809 C   0  0  0  0  0  0
  -29.5114  -12.5211   18.2394 C   0  0  0  0  0  0
  -28.0342  -12.3558   18.6424 C   0  0  0  0  0  0
  -27.6473  -13.2367   19.8603 C   0  0  2  0  0  0
  -28.6895  -13.1460   20.9987 C   0  0  0  0  0  0
  -25.2522  -13.8215   20.5686 C   0  0  0  0  0  0
  -24.1813  -13.0453   20.9196 C   0  0  0  0  0  0
  -24.6407  -11.6933   20.8734 C   0  0  0  0  0  0
  -23.9079  -10.4307   21.0389 C   0  0  0  0  0  0
  -24.3630   -9.4223   21.9169 C   0  0  0  0  0  0
  -23.6304   -8.2260   22.0746 C   0  0  0  0  0  0
  -22.4283   -8.0295   21.3542 C   0  0  0  0  0  0
  -21.9919   -9.0266   20.4639 C   0  0  0  0  0  0
  -22.7248  -10.2144   20.3044 C   0  0  0  0  0  0
  -21.6862   -6.0743   22.5271 C   0  0  0  0  0  0
  -21.4023   -6.5641   23.8207 C   0  0  0  0  0  0
  -21.3662   -5.6790   24.9168 C   0  0  0  0  0  0
  -21.6044   -4.3052   24.7212 C   0  0  0  0  0  0
  -21.8822   -3.8147   23.4331 C   0  0  0  0  0  0
  -21.9198   -4.6970   22.3394 C   0  0  0  0  0  0
  -22.7830  -13.5230   21.1851 C   0  0  0  0  0  0
  -22.1659   -4.2157   21.0969 F   0  0  0  0  0  0
  -21.5631   -3.4532   25.7720 F   0  0  0  0  0  0
  -30.0014  -13.4846   20.4312 N   0  0  0  0  0  0
  -26.2963  -12.9431   20.3308 N   0  0  0  0  0  0
  -25.9343  -11.6566   20.5756 N   0  0  0  0  0  0
  -22.0480  -12.8229   22.0416 N   0  0  0  0  0  0
  -25.4209  -15.1945   20.4101 N   0  0  0  0  0  0
  -31.7921  -14.8162   20.0689 O   0  0  0  0  0  0
  -21.6649   -6.8888   21.4236 O   0  0  0  0  0  0
  -22.3506  -14.5529   20.6690 O   0  0  0  0  0  0
  -24.6307  -31.8560   23.2001 C   0  0  0  0  0  0
  -25.9132  -32.4765   23.8337 C   0  0  1  0  0  0
  -27.2211  -27.2639   20.1238 C   0  0  0  0  0  0
  -25.5936  -33.8566   24.2266 N   0  0  0  0  0  0
  -23.4275  -30.4802   21.5432 C   0  0  2  0  0  0
  -24.8757  -28.9316   20.1076 C   0  0  0  0  0  0
  -22.7498  -29.4610   22.4907 C   0  0  0  0  0  0
  -18.0299  -28.1380   22.8484 C   0  0  0  0  0  0
  -24.1497  -36.7288   23.2634 C   0  0  0  0  0  0
  -25.9738  -30.7680   21.3829 C   0  0  0  0  0  0
  -26.0457  -29.3913   20.7242 C   0  0  0  0  0  0
  -27.2173  -28.5674   20.7279 C   0  0  0  0  0  0
  -26.0333  -26.8880   19.4534 C   0  0  0  0  0  0
  -24.8752  -27.6874   19.4616 C   0  0  0  0  0  0
  -23.6461  -29.8179   20.1579 C   0  0  0  0  0  0
  -25.4120  -36.3083   24.0330 C   0  0  1  0  0  0
  -20.5902  -28.3701   23.1266 C   0  0  2  0  0  0
  -20.6789  -26.9414   22.5410 C   0  0  0  0  0  0
  -19.5767  -26.6374   21.5215 C   0  0  0  0  0  0
  -18.1945  -26.7924   22.1620 C   0  0  0  0  0  0
  -19.1547  -28.8855   23.2876 C   0  0  0  0  0  0
  -18.9465  -30.1456   23.8894 C   0  0  0  0  0  0
  -17.6462  -30.6581   24.0562 C   0  0  0  0  0  0
  -25.9057  -34.9450   23.5103 C   0  0  0  0  0  0
  -16.5357  -29.9076   23.6325 C   0  0  0  0  0  0
  -16.7284  -28.6493   23.0350 C   0  0  0  0  0  0
  -26.4496  -31.6580   25.0718 C   0  0  0  0  0  0
  -25.3714  -31.3721   26.1433 C   0  0  0  0  0  0
  -27.0337  -30.2998   24.6193 C   0  0  0  0  0  0
  -27.6054  -32.4312   25.7488 C   0  0  0  0  0  0
  -27.5600  -37.1790   24.8451 C   0  0  0  0  0  0
  -21.4206  -29.3050   22.3650 N   0  0  0  0  0  0
  -26.4296  -37.3784   23.9420 N   0  0  0  0  0  0
  -24.6963  -31.0530   22.0981 N   0  0  0  0  0  0
  -23.4196  -28.8150   23.3008 O   0  0  0  0  0  0
  -28.3135  -26.3643   20.2130 O   0  0  0  0  0  0
  -26.5617  -34.8923   22.4665 O   0  0  0  0  0  0
  -23.5459  -32.1386   23.7296 O   0  0  0  0  0  0
  -29.9215  -18.4009   17.9838 C   0  0  0  0  0  0
  -30.0436  -17.2015   18.7101 C   0  0  0  0  0  0
  -29.6505  -19.6289   18.6192 C   0  0  0  0  0  0
  -29.6150  -18.4578   20.7475 C   0  0  0  0  0  0
  -29.8832  -17.1718   20.1126 C   0  0  0  0  0  0
  -29.5061  -19.7228   20.0242 C   0  0  0  0  0  0
  -28.9583  -23.7015   20.5590 C   0  0  0  0  0  0
  -28.1390  -24.9094   19.8603 C   0  0  0  0  0  0
  -28.9051  -22.2244   19.8922 C   0  0  0  0  0  0
  -29.8887  -15.8432   20.7781 N   0  0  0  0  0  0
  -29.2917  -20.9914   20.6527 O   0  0  0  0  0  0
  -31.4711  -12.5289   19.1850 H   0  0  0  0  0  0
  -30.3434  -11.4441   19.9445 H   0  0  0  0  0  0
  -29.7878  -11.7633   17.5056 H   0  0  0  0  0  0
  -29.6521  -13.4855   17.7487 H   0  0  0  0  0  0
  -27.8736  -11.3035   18.8783 H   0  0  0  0  0  0
  -27.3839  -12.5778   17.7944 H   0  0  0  0  0  0
  -27.6497  -14.2659   19.5014 H   0  0  0  0  0  0
  -28.7085  -12.1426   21.4259 H   0  0  0  0  0  0
  -28.4261  -13.8197   21.8158 H   0  0  0  0  0  0
  -25.2776   -9.5703   22.4741 H   0  0  0  0  0  0
  -24.0011   -7.4656   22.7465 H   0  0  0  0  0  0
  -21.0850   -8.8788   19.8956 H   0  0  0  0  0  0
  -22.3695  -10.9685   19.6157 H   0  0  0  0  0  0
  -21.2016   -7.6148   23.9717 H   0  0  0  0  0  0
  -21.1482   -6.0514   25.9073 H   0  0  0  0  0  0
  -22.0598   -2.7610   23.2826 H   0  0  0  0  0  0
  -22.4088  -11.9897   22.4822 H   0  0  0  0  0  0
  -21.1095  -13.1252   22.2608 H   0  0  0  0  0  0
  -24.6539  -15.8493   20.5182 H   0  0  0  0  0  0
  -26.2720  -15.6335   20.0812 H   0  0  0  0  0  0
  -26.7194  -32.5423   23.1073 H   0  0  0  0  0  0
  -25.0108  -33.9697   25.0431 H   0  0  0  0  0  0
  -22.7246  -31.3034   21.3992 H   0  0  0  0  0  0
  -23.3787  -35.9590   23.3251 H   0  0  0  0  0  0
  -24.3611  -36.8955   22.2062 H   0  0  0  0  0  0
  -23.7209  -37.6460   23.6678 H   0  0  0  0  0  0
  -26.1139  -31.5300   20.6151 H   0  0  0  0  0  0
  -26.8505  -30.8151   22.0170 H   0  0  0  0  0  0
  -28.1074  -28.9110   21.2363 H   0  0  0  0  0  0
  -25.9612  -25.9548   18.9169 H   0  0  0  0  0  0
  -23.9851  -27.3344   18.9594 H   0  0  0  0  0  0
  -23.7705  -30.5966   19.4044 H   0  0  0  0  0  0
  -22.7642  -29.2517   19.8525 H   0  0  0  0  0  0
  -25.1302  -36.1934   25.0823 H   0  0  0  0  0  0
  -21.0005  -28.3286   24.1384 H   0  0  0  0  0  0
  -20.5701  -26.2309   23.3617 H   0  0  0  0  0  0
  -21.6657  -26.7444   22.1198 H   0  0  0  0  0  0
  -19.6930  -25.6282   21.1255 H   0  0  0  0  0  0
  -19.6711  -27.3176   20.6741 H   0  0  0  0  0  0
  -17.4222  -26.6685   21.4013 H   0  0  0  0  0  0
  -18.0335  -26.0059   22.9007 H   0  0  0  0  0  0
  -19.7940  -30.7272   24.2264 H   0  0  0  0  0  0
  -17.5014  -31.6263   24.5158 H   0  0  0  0  0  0
  -15.5354  -30.2972   23.7645 H   0  0  0  0  0  0
  -15.8690  -28.0806   22.7061 H   0  0  0  0  0  0
  -24.5890  -30.7073   25.7749 H   0  0  0  0  0  0
  -24.8896  -32.2885   26.4853 H   0  0  0  0  0  0
  -25.8022  -30.8890   27.0213 H   0  0  0  0  0  0
  -26.2909  -29.6744   24.1224 H   0  0  0  0  0  0
  -27.4035  -29.7261   25.4703 H   0  0  0  0  0  0
  -27.8786  -30.4282   23.9422 H   0  0  0  0  0  0
  -27.2666  -33.3615   26.2063 H   0  0  0  0  0  0
  -28.3860  -32.6868   25.0307 H   0  0  0  0  0  0
  -28.0720  -31.8431   26.5404 H   0  0  0  0  0  0
  -28.2567  -38.0141   24.7588 H   0  0  0  0  0  0
  -28.1152  -36.2679   24.6168 H   0  0  0  0  0  0
  -27.2330  -37.1304   25.8852 H   0  0  0  0  0  0
  -20.9380  -29.8783   21.6870 H   0  0  0  0  0  0
  -26.0183  -38.2854   24.1457 H   0  0  0  0  0  0
  -30.0301  -18.3759   16.9078 H   0  0  0  0  0  0
  -30.2300  -16.2897   18.1602 H   0  0  0  0  0  0
  -29.5703  -20.4951   17.9815 H   0  0  0  0  0  0
  -29.4868  -18.4791   21.8197 H   0  0  0  0  0  0
  -28.6090  -23.6198   21.5884 H   0  0  0  0  0  0
  -30.0060  -23.9934   20.6347 H   0  0  0  0  0  0
  -27.1028  -24.6222   20.0292 H   0  0  0  0  0  0
  -28.2986  -24.8394   18.7838 H   0  0  0  0  0  0
  -29.5254  -22.3041   19.0017 H   0  0  0  0  0  0
  -27.8886  -22.0526   19.5364 H   0  0  0  0  0  0
  -29.0753  -15.6548   21.3447 H   0  0  0  0  0  0
  1 25  1  0  0  0
  1 30  2  0  0  0
  1 80  1  0  0  0
  2  3  1  0  0  0
  2 25  1  0  0  0
  2 82  1  0  0  0
  2 83  1  0  0  0
  3  4  1  0  0  0
  3 84  1  0  0  0
  3 85  1  0  0  0
  4  5  1  0  0  0
  4 86  1  0  0  0
  4 87  1  0  0  0
  5  6  1  0  0  0
  5 26  1  0  0  0
  5 88  1  0  0  0
  6 25  1  0  0  0
  6 89  1  0  0  0
  6 90  1  0  0  0
  7  8  2  0  0  0
  7 26  1  0  0  0
  7 29  1  0  0  0
  8  9  1  0  0  0
  8 22  1  0  0  0
  9 10  1  0  0  0
  9 27  2  0  0  0
 10 11  2  0  0  0
 10 15  1  0  0  0
 11 12  1  0  0  0
 11 91  1  0  0  0
 12 13  2  0  0  0
 12 92  1  0  0  0
 13 14  1  0  0  0
 13 31  1  0  0  0
 14 15  2  0  0  0
 14 93  1  0  0  0
 15 94  1  0  0  0
 16 17  2  0  0  0
 16 21  1  0  0  0
 16 31  1  0  0  0
 17 18  1  0  0  0
 17 95  1  0  0  0
 18 19  2  0  0  0
 18 96  1  0  0  0
 19 20  1  0  0  0
 19 24  1  0  0  0
 20 21  2  0  0  0
 20 97  1  0  0  0
 21 23  1  0  0  0
 22 28  1  0  0  0
 22 32  2  0  0  0
 26 27  1  0  0  0
 28 98  1  0  0  0
 28 99  1  0  0  0
 29100  1  0  0  0
 29101  1  0  0  0
 33 34  1  0  0  0
 33 66  1  0  0  0
 33 70  2  0  0  0
 34 36  1  0  0  0
 34 59  1  0  0  0
 34102  1  0  0  0
 35 44  2  0  0  0
 35 45  1  0  0  0
 35 68  1  0  0  0
 36 56  1  0  0  0
 36103  1  0  0  0
 37 39  1  0  0  0
 37 47  1  0  0  0
 37 66  1  0  0  0
 37104  1  0  0  0
 38 43  2  0  0  0
 38 46  1  0  0  0
 38 47  1  0  0  0
 39 64  1  0  0  0
 39 67  2  0  0  0
 40 52  1  0  0  0
 40 53  2  0  0  0
 40 58  1  0  0  0
 41105  1  0  0  0
 41106  1  0  0  0
 41107  1  0  0  0
 41 48  1  0  0  0
 42 43  1  0  0  0
 42 66  1  0  0  0
 42108  1  0  0  0
 42109  1  0  0  0
 43 44  1  0  0  0
 44110  1  0  0  0
 45 46  2  0  0  0
 45111  1  0  0  0
 46112  1  0  0  0
 47113  1  0  0  0
 47114  1  0  0  0
 48 56  1  0  0  0
 48 65  1  0  0  0
 48115  1  0  0  0
 49 50  1  0  0  0
 49 53  1  0  0  0
 49 64  1  0  0  0
 49116  1  0  0  0
 50 51  1  0  0  0
 50117  1  0  0  0
 50118  1  0  0  0
 51 52  1  0  0  0
 51119  1  0  0  0
 51120  1  0  0  0
 52121  1  0  0  0
 52122  1  0  0  0
 53 54  1  0  0  0
 54 55  2  0  0  0
 54123  1  0  0  0
 55 57  1  0  0  0
 55124  1  0  0  0
 56 69  2  0  0  0
 57 58  2  0  0  0
 57125  1  0  0  0
 58126  1  0  0  0
 59 60  1  0  0  0
 59 61  1  0  0  0
 59 62  1  0  0  0
 60127  1  0  0  0
 60128  1  0  0  0
 60129  1  0  0  0
 61130  1  0  0  0
 61131  1  0  0  0
 61132  1  0  0  0
 62133  1  0  0  0
 62134  1  0  0  0
 62135  1  0  0  0
 63 65  1  0  0  0
 63136  1  0  0  0
 63137  1  0  0  0
 63138  1  0  0  0
 64139  1  0  0  0
 65140  1  0  0  0
 68 78  1  0  0  0
 71 72  2  0  0  0
 71 73  1  0  0  0
 71141  1  0  0  0
 72 75  1  0  0  0
 72142  1  0  0  0
 73 76  2  0  0  0
 73143  1  0  0  0
 74 75  2  0  0  0
 74 76  1  0  0  0
 74144  1  0  0  0
 75 80  1  0  0  0
 76 81  1  0  0  0
 77 78  1  0  0  0
 77 79  1  0  0  0
 77145  1  0  0  0
 77146  1  0  0  0
 78147  1  0  0  0
 78148  1  0  0  0
 79 81  1  0  0  0
 79149  1  0  0  0
 79150  1  0  0  0
 80151  1  0  0  0
M  ISO  4   1 100  68 101  78 101  80 100
M  END
> <chiral flag>
0

> <version>
0

> <s_m_source_file>
/data/baiqing/PycharmProjects/Reinvent-master-3.2/result/LINK_invent/BTK/process_docking_weight1_custom_sum_contain_oxygen_bond_distance_aromatic_linkinvent_7_9_3/rearranged_h_0000.sdf

> <i_m_source_file_index>
90

> <r_mmod_Potential_Energy-OPLS-2005>
185.519424438477

> <r_mmod_Stretch_Energy-OPLS-2005>
124.80167388916

> <r_mmod_Bend_Energy-OPLS-2005>
166.076385498047

> <r_mmod_Torsional_Energy-OPLS-2005>
237.988235473633

> <r_mmod_Improper_Torsional_Energy-OPLS-2005>
4.65315580368042

> <r_mmod_Van_der_Waal_Energy-OPLS-2005>
146.747375488281

> <r_mmod_Electrostatic_Energy-OPLS-2005>
-355.506103515625

> <r_mmod_Solvation_Energy-OPLS-2005>
-217.155700683594

> <b_mmod_Minimization_Converged-OPLS-2005>
0

> <r_mmod_RMS_Derivative-OPLS-2005>
1.40038752555847

$$$$
