0
                    3D
 Structure written by MMmdl.
157166  0  0  1  0            999 V2000
  -30.4936  -15.0693   20.4037 C   0  0  0  0  0  0
  -30.4443  -12.6772   19.4912 C   0  0  0  0  0  0
  -29.5251  -12.5405   18.2545 C   0  0  0  0  0  0
  -28.0622  -12.3063   18.6798 C   0  0  0  0  0  0
  -27.6200  -13.2565   19.8235 C   0  0  2  0  0  0
  -28.6638  -13.3417   20.9539 C   0  0  0  0  0  0
  -25.2432  -13.8226   20.5735 C   0  0  0  0  0  0
  -24.1765  -13.0435   20.9251 C   0  0  0  0  0  0
  -24.6400  -11.6926   20.8761 C   0  0  0  0  0  0
  -23.9092  -10.4289   21.0407 C   0  0  0  0  0  0
  -24.3639   -9.4200   21.9186 C   0  0  0  0  0  0
  -23.6304   -8.2237   22.0759 C   0  0  0  0  0  0
  -22.4281   -8.0288   21.3551 C   0  0  0  0  0  0
  -21.9920   -9.0266   20.4652 C   0  0  0  0  0  0
  -22.7262  -10.2137   20.3058 C   0  0  0  0  0  0
  -21.6850   -6.0744   22.5283 C   0  0  0  0  0  0
  -21.4017   -6.5647   23.8218 C   0  0  0  0  0  0
  -21.3654   -5.6798   24.9179 C   0  0  0  0  0  0
  -21.6041   -4.3061   24.7226 C   0  0  0  0  0  0
  -21.8817   -3.8154   23.4344 C   0  0  0  0  0  0
  -21.9192   -4.6974   22.3403 C   0  0  0  0  0  0
  -22.7784  -13.5204   21.1894 C   0  0  0  0  0  0
  -22.1659   -4.2162   21.0977 F   0  0  0  0  0  0
  -21.5619   -3.4544   25.7734 F   0  0  0  0  0  0
  -29.9146  -13.7944   20.3307 N   0  0  0  0  0  0
  -26.2851  -12.9471   20.3204 N   0  0  0  0  0  0
  -25.9329  -11.6593   20.5720 N   0  0  0  0  0  0
  -22.0425  -12.8204   22.0445 N   0  0  0  0  0  0
  -25.4057  -15.1959   20.4160 N   0  0  0  0  0  0
  -31.7197  -15.1104   20.2466 O   0  0  0  0  0  0
  -21.6640   -6.8887   21.4246 O   0  0  0  0  0  0
  -22.3472  -14.5502   20.6720 O   0  0  0  0  0  0
  -24.6502  -31.8353   23.1794 C   0  0  0  0  0  0
  -25.9236  -32.4647   23.8222 C   0  0  1  0  0  0
  -27.2231  -27.0539   20.1816 C   0  0  0  0  0  0
  -25.5949  -33.8458   24.2140 N   0  0  0  0  0  0
  -23.4583  -30.4481   21.5276 C   0  0  2  0  0  0
  -24.9081  -28.8464   20.1247 C   0  0  0  0  0  0
  -22.7601  -29.4497   22.4854 C   0  0  0  0  0  0
  -18.0305  -28.1397   22.8475 C   0  0  0  0  0  0
  -24.1488  -36.7240   23.2649 C   0  0  0  0  0  0
  -26.0182  -30.6839   21.3874 C   0  0  0  0  0  0
  -26.0885  -29.2818   20.7405 C   0  0  0  0  0  0
  -27.2478  -28.4069   20.7375 C   0  0  0  0  0  0
  -26.0118  -26.7242   19.5420 C   0  0  0  0  0  0
  -24.8859  -27.5828   19.5093 C   0  0  0  0  0  0
  -23.6902  -29.7623   20.1540 C   0  0  0  0  0  0
  -25.4124  -36.3005   24.0313 C   0  0  1  0  0  0
  -20.5922  -28.3725   23.1229 C   0  0  2  0  0  0
  -20.6787  -26.9419   22.5412 C   0  0  0  0  0  0
  -19.5760  -26.6376   21.5220 C   0  0  0  0  0  0
  -18.1942  -26.7934   22.1627 C   0  0  0  0  0  0
  -19.1565  -28.8881   23.2841 C   0  0  0  0  0  0
  -18.9478  -30.1479   23.8861 C   0  0  0  0  0  0
  -17.6473  -30.6588   24.0556 C   0  0  0  0  0  0
  -25.9079  -34.9382   23.5041 C   0  0  0  0  0  0
  -16.5364  -29.9080   23.6338 C   0  0  0  0  0  0
  -16.7289  -28.6503   23.0353 C   0  0  0  0  0  0
  -26.4526  -31.6547   25.0702 C   0  0  0  0  0  0
  -25.3689  -31.3768   26.1387 C   0  0  0  0  0  0
  -27.0413  -30.2933   24.6341 C   0  0  0  0  0  0
  -27.6031  -32.4338   25.7499 C   0  0  0  0  0  0
  -27.5570  -37.1781   24.8470 C   0  0  0  0  0  0
  -21.4287  -29.3037   22.3601 N   0  0  0  0  0  0
  -26.4282  -37.3725   23.9402 N   0  0  0  0  0  0
  -24.7295  -31.0134   22.0862 N   0  0  0  0  0  0
  -23.4210  -28.8065   23.3048 O   0  0  0  0  0  0
  -28.3145  -26.0942   20.1060 O   0  0  0  0  0  0
  -26.5685  -34.8897   22.4632 O   0  0  0  0  0  0
  -23.5601  -32.1268   23.6963 O   0  0  0  0  0  0
  -30.1439  -19.8736   19.0385 C   0  0  0  0  0  0
  -29.7818  -21.2127   18.9238 C   0  0  0  0  0  0
  -29.5555  -19.3073   20.2090 C   0  0  0  0  0  0
  -31.6148  -22.3662   17.5072 C   0  0  0  0  0  0
  -30.7715  -23.4782   18.0756 C   0  0  0  0  0  0
  -30.1463  -22.1282   17.7923 C   0  0  0  0  0  0
  -29.2013  -21.9596   16.6157 C   0  0  0  0  0  0
  -29.9418  -17.8067   20.8896 C   0  0  0  0  0  0
  -28.0884  -23.0171   20.0149 C   0  0  0  0  0  0
  -28.4334  -24.5913   20.6311 C   0  0  0  0  0  0
  -28.8275  -20.4068   20.7418 N   0  0  0  0  0  0
  -28.9494  -21.6315   19.9695 N   0  0  0  0  0  0
  -29.7008  -16.2758   20.4495 N   0  0  0  0  0  0
  -31.4691  -12.8690   19.1680 H   0  0  0  0  0  0
  -30.4790  -11.7462   20.0596 H   0  0  0  0  0  0
  -29.8662  -11.7242   17.6168 H   0  0  0  0  0  0
  -29.5906  -13.4476   17.6505 H   0  0  0  0  0  0
  -27.9790  -11.2715   19.0127 H   0  0  0  0  0  0
  -27.3966  -12.4038   17.8214 H   0  0  0  0  0  0
  -27.5618  -14.2453   19.3682 H   0  0  0  0  0  0
  -28.7883  -12.3812   21.4550 H   0  0  0  0  0  0
  -28.3441  -14.0536   21.7168 H   0  0  0  0  0  0
  -25.2778   -9.5675   22.4776 H   0  0  0  0  0  0
  -24.0009   -7.4624   22.7478 H   0  0  0  0  0  0
  -21.0847   -8.8797   19.8960 H   0  0  0  0  0  0
  -22.3720  -10.9690   19.6177 H   0  0  0  0  0  0
  -21.2015   -7.6156   23.9731 H   0  0  0  0  0  0
  -21.1474   -6.0522   25.9083 H   0  0  0  0  0  0
  -22.0597   -2.7620   23.2839 H   0  0  0  0  0  0
  -22.4040  -11.9884   22.4868 H   0  0  0  0  0  0
  -21.1038  -13.1230   22.2628 H   0  0  0  0  0  0
  -24.6316  -15.8415   20.5289 H   0  0  0  0  0  0
  -26.2384  -15.6416   20.0557 H   0  0  0  0  0  0
  -26.7304  -32.5229   23.0953 H   0  0  0  0  0  0
  -25.0045  -33.9550   25.0253 H   0  0  0  0  0  0
  -22.7646  -31.2750   21.3627 H   0  0  0  0  0  0
  -23.3748  -35.9575   23.3306 H   0  0  0  0  0  0
  -24.3569  -36.8882   22.2065 H   0  0  0  0  0  0
  -23.7250  -37.6435   23.6696 H   0  0  0  0  0  0
  -26.1798  -31.4284   20.6069 H   0  0  0  0  0  0
  -26.8861  -30.7423   22.0327 H   0  0  0  0  0  0
  -28.1599  -28.7517   21.2039 H   0  0  0  0  0  0
  -25.9321  -25.7592   19.0612 H   0  0  0  0  0  0
  -23.9861  -27.2434   19.0148 H   0  0  0  0  0  0
  -23.8393  -30.5298   19.3938 H   0  0  0  0  0  0
  -22.8025  -29.2103   19.8397 H   0  0  0  0  0  0
  -25.1316  -36.1825   25.0804 H   0  0  0  0  0  0
  -21.0004  -28.3314   24.1352 H   0  0  0  0  0  0
  -20.5679  -26.2334   23.3636 H   0  0  0  0  0  0
  -21.6653  -26.7418   22.1208 H   0  0  0  0  0  0
  -19.6922  -25.6282   21.1259 H   0  0  0  0  0  0
  -19.6695  -27.3177   20.6741 H   0  0  0  0  0  0
  -17.4211  -26.6678   21.4026 H   0  0  0  0  0  0
  -18.0333  -26.0082   22.9029 H   0  0  0  0  0  0
  -19.7955  -30.7309   24.2204 H   0  0  0  0  0  0
  -17.5022  -31.6262   24.5173 H   0  0  0  0  0  0
  -15.5361  -30.2968   23.7678 H   0  0  0  0  0  0
  -15.8694  -28.0811   22.7078 H   0  0  0  0  0  0
  -24.5862  -30.7123   25.7711 H   0  0  0  0  0  0
  -24.8889  -32.2964   26.4741 H   0  0  0  0  0  0
  -25.7948  -30.8985   27.0216 H   0  0  0  0  0  0
  -26.3060  -29.6634   24.1326 H   0  0  0  0  0  0
  -27.3976  -29.7255   25.4947 H   0  0  0  0  0  0
  -27.8978  -30.4155   23.9711 H   0  0  0  0  0  0
  -27.2597  -33.3659   26.1997 H   0  0  0  0  0  0
  -28.3879  -32.6869   25.0360 H   0  0  0  0  0  0
  -28.0659  -31.8527   26.5486 H   0  0  0  0  0  0
  -28.2587  -38.0076   24.7487 H   0  0  0  0  0  0
  -28.1060  -36.2600   24.6323 H   0  0  0  0  0  0
  -27.2287  -37.1467   25.8874 H   0  0  0  0  0  0
  -20.9519  -29.8730   21.6750 H   0  0  0  0  0  0
  -26.0145  -38.2791   24.1386 H   0  0  0  0  0  0
  -30.8012  -19.3583   18.3527 H   0  0  0  0  0  0
  -32.3437  -21.9058   18.1721 H   0  0  0  0  0  0
  -31.9283  -22.4565   16.4687 H   0  0  0  0  0  0
  -30.5116  -24.3037   17.4156 H   0  0  0  0  0  0
  -30.9491  -23.7540   19.1126 H   0  0  0  0  0  0
  -29.2626  -20.9430   16.2259 H   0  0  0  0  0  0
  -29.4568  -22.6485   15.8108 H   0  0  0  0  0  0
  -28.1711  -22.1488   16.9157 H   0  0  0  0  0  0
  -29.5426  -17.8325   21.9034 H   0  0  0  0  0  0
  -31.0200  -17.8403   21.0539 H   0  0  0  0  0  0
  -27.8276  -23.2066   18.9745 H   0  0  0  0  0  0
  -27.1296  -22.7393   20.4512 H   0  0  0  0  0  0
  -29.4930  -24.5331   20.8786 H   0  0  0  0  0  0
  -27.9579  -24.6196   21.6112 H   0  0  0  0  0  0
  -28.7170  -16.0704   20.3695 H   0  0  0  0  0  0
  1 25  1  0  0  0
  1 30  2  0  0  0
  1 83  1  0  0  0
  2  3  1  0  0  0
  2 25  1  0  0  0
  2 84  1  0  0  0
  2 85  1  0  0  0
  3  4  1  0  0  0
  3 86  1  0  0  0
  3 87  1  0  0  0
  4  5  1  0  0  0
  4 88  1  0  0  0
  4 89  1  0  0  0
  5  6  1  0  0  0
  5 26  1  0  0  0
  5 90  1  0  0  0
  6 25  1  0  0  0
  6 91  1  0  0  0
  6 92  1  0  0  0
  7  8  2  0  0  0
  7 26  1  0  0  0
  7 29  1  0  0  0
  8  9  1  0  0  0
  8 22  1  0  0  0
  9 10  1  0  0  0
  9 27  2  0  0  0
 10 11  2  0  0  0
 10 15  1  0  0  0
 11 12  1  0  0  0
 11 93  1  0  0  0
 12 13  2  0  0  0
 12 94  1  0  0  0
 13 14  1  0  0  0
 13 31  1  0  0  0
 14 15  2  0  0  0
 14 95  1  0  0  0
 15 96  1  0  0  0
 16 17  2  0  0  0
 16 21  1  0  0  0
 16 31  1  0  0  0
 17 18  1  0  0  0
 17 97  1  0  0  0
 18 19  2  0  0  0
 18 98  1  0  0  0
 19 20  1  0  0  0
 19 24  1  0  0  0
 20 21  2  0  0  0
 20 99  1  0  0  0
 21 23  1  0  0  0
 22 28  1  0  0  0
 22 32  2  0  0  0
 26 27  1  0  0  0
 28100  1  0  0  0
 28101  1  0  0  0
 29102  1  0  0  0
 29103  1  0  0  0
 33 34  1  0  0  0
 33 66  1  0  0  0
 33 70  2  0  0  0
 34 36  1  0  0  0
 34 59  1  0  0  0
 34104  1  0  0  0
 35 44  2  0  0  0
 35 45  1  0  0  0
 35 68  1  0  0  0
 36 56  1  0  0  0
 36105  1  0  0  0
 37 39  1  0  0  0
 37 47  1  0  0  0
 37 66  1  0  0  0
 37106  1  0  0  0
 38 43  2  0  0  0
 38 46  1  0  0  0
 38 47  1  0  0  0
 39 64  1  0  0  0
 39 67  2  0  0  0
 40 52  1  0  0  0
 40 53  2  0  0  0
 40 58  1  0  0  0
 41107  1  0  0  0
 41108  1  0  0  0
 41109  1  0  0  0
 41 48  1  0  0  0
 42 43  1  0  0  0
 42 66  1  0  0  0
 42110  1  0  0  0
 42111  1  0  0  0
 43 44  1  0  0  0
 44112  1  0  0  0
 45 46  2  0  0  0
 45113  1  0  0  0
 46114  1  0  0  0
 47115  1  0  0  0
 47116  1  0  0  0
 48 56  1  0  0  0
 48 65  1  0  0  0
 48117  1  0  0  0
 49 50  1  0  0  0
 49 53  1  0  0  0
 49 64  1  0  0  0
 49118  1  0  0  0
 50 51  1  0  0  0
 50119  1  0  0  0
 50120  1  0  0  0
 51 52  1  0  0  0
 51121  1  0  0  0
 51122  1  0  0  0
 52123  1  0  0  0
 52124  1  0  0  0
 53 54  1  0  0  0
 54 55  2  0  0  0
 54125  1  0  0  0
 55 57  1  0  0  0
 55126  1  0  0  0
 56 69  2  0  0  0
 57 58  2  0  0  0
 57127  1  0  0  0
 58128  1  0  0  0
 59 60  1  0  0  0
 59 61  1  0  0  0
 59 62  1  0  0  0
 60129  1  0  0  0
 60130  1  0  0  0
 60131  1  0  0  0
 61132  1  0  0  0
 61133  1  0  0  0
 61134  1  0  0  0
 62135  1  0  0  0
 62136  1  0  0  0
 62137  1  0  0  0
 63 65  1  0  0  0
 63138  1  0  0  0
 63139  1  0  0  0
 63140  1  0  0  0
 64141  1  0  0  0
 65142  1  0  0  0
 68 80  1  0  0  0
 71 72  2  0  0  0
 71 73  1  0  0  0
 71143  1  0  0  0
 72 76  1  0  0  0
 72 82  1  0  0  0
 73 78  1  0  0  0
 73 81  2  0  0  0
 74 75  1  0  0  0
 74 76  1  0  0  0
 74144  1  0  0  0
 74145  1  0  0  0
 75 76  1  0  0  0
 75146  1  0  0  0
 75147  1  0  0  0
 76 77  1  0  0  0
 77148  1  0  0  0
 77149  1  0  0  0
 77150  1  0  0  0
 78 83  1  0  0  0
 78151  1  0  0  0
 78152  1  0  0  0
 79 80  1  0  0  0
 79 82  1  0  0  0
 79153  1  0  0  0
 79154  1  0  0  0
 80155  1  0  0  0
 80156  1  0  0  0
 81 82  1  0  0  0
 83157  1  0  0  0
M  ISO  4   1 100  68 101  80 101  83 100
M  END
> <chiral flag>
0

> <version>
0

> <s_m_source_file>
/data/baiqing/PycharmProjects/Reinvent-master-3.2/result/LINK_invent/BTK/process_docking_weight1_custom_sum_contain_oxygen_bond_distance_aromatic_linkinvent_7_9_3/rearranged_h_0183.sdf

> <i_m_source_file_index>
1

> <r_mmod_Potential_Energy-OPLS-2005>
748.724731445312

> <r_mmod_Stretch_Energy-OPLS-2005>
357.967620849609

> <r_mmod_Bend_Energy-OPLS-2005>
398.180786132812

> <r_mmod_Torsional_Energy-OPLS-2005>
297.887603759766

> <r_mmod_Improper_Torsional_Energy-OPLS-2005>
8.67800426483154

> <r_mmod_Van_der_Waal_Energy-OPLS-2005>
98.6339569091797

> <r_mmod_Electrostatic_Energy-OPLS-2005>
-458.002471923828

> <r_mmod_Solvation_Energy-OPLS-2005>
-226.181060791016

> <b_mmod_Minimization_Converged-OPLS-2005>
0

> <r_mmod_RMS_Derivative-OPLS-2005>
1.13430273532867

$$$$
1
                    3D
 Structure written by MMmdl.
174183  0  0  1  0            999 V2000
  -30.6733  -14.7150   20.5327 C   0  0  0  0  0  0
  -30.4132  -12.4479   19.5154 C   0  0  0  0  0  0
  -29.5179  -12.5383   18.2637 C   0  0  0  0  0  0
  -28.0358  -12.3720   18.6520 C   0  0  0  0  0  0
  -27.6405  -13.2508   19.8663 C   0  0  2  0  0  0
  -28.6731  -13.1896   21.0132 C   0  0  0  0  0  0
  -25.2506  -13.8210   20.5626 C   0  0  0  0  0  0
  -24.1782  -13.0416   20.9187 C   0  0  0  0  0  0
  -24.6410  -11.6943   20.8749 C   0  0  0  0  0  0
  -23.9097  -10.4264   21.0390 C   0  0  0  0  0  0
  -24.3628   -9.4187   21.9189 C   0  0  0  0  0  0
  -23.6267   -8.2245   22.0782 C   0  0  0  0  0  0
  -22.4269   -8.0284   21.3534 C   0  0  0  0  0  0
  -21.9895   -9.0276   20.4675 C   0  0  0  0  0  0
  -22.7263  -10.2140   20.3052 C   0  0  0  0  0  0
  -21.6868   -6.0752   22.5277 C   0  0  0  0  0  0
  -21.4015   -6.5645   23.8214 C   0  0  0  0  0  0
  -21.3674   -5.6807   24.9183 C   0  0  0  0  0  0
  -21.6035   -4.3060   24.7230 C   0  0  0  0  0  0
  -21.8830   -3.8151   23.4348 C   0  0  0  0  0  0
  -21.9170   -4.6971   22.3394 C   0  0  0  0  0  0
  -22.7816  -13.5230   21.1808 C   0  0  0  0  0  0
  -22.1652   -4.2142   21.0978 F   0  0  0  0  0  0
  -21.5615   -3.4541   25.7742 F   0  0  0  0  0  0
  -29.9880  -13.5183   20.4601 N   0  0  0  0  0  0
  -26.2930  -12.9458   20.3290 N   0  0  0  0  0  0
  -25.9343  -11.6599   20.5776 N   0  0  0  0  0  0
  -22.0425  -12.8242   22.0416 N   0  0  0  0  0  0
  -25.4109  -15.1867   20.3960 N   0  0  0  0  0  0
  -31.8049  -14.7805   20.0501 O   0  0  0  0  0  0
  -21.6636   -6.8887   21.4235 O   0  0  0  0  0  0
  -22.3442  -14.5468   20.6660 O   0  0  0  0  0  0
  -24.6326  -31.8551   23.1960 C   0  0  0  0  0  0
  -25.9182  -32.4753   23.8298 C   0  0  1  0  0  0
  -27.2198  -27.2480   20.1230 C   0  0  0  0  0  0
  -25.5940  -33.8530   24.2233 N   0  0  0  0  0  0
  -23.4271  -30.4752   21.5447 C   0  0  2  0  0  0
  -24.8704  -28.9104   20.1254 C   0  0  0  0  0  0
  -22.7572  -29.4574   22.5000 C   0  0  0  0  0  0
  -18.0377  -28.1481   22.8452 C   0  0  0  0  0  0
  -24.1474  -36.7288   23.2643 C   0  0  0  0  0  0
  -25.9729  -30.7599   21.3786 C   0  0  0  0  0  0
  -26.0420  -29.3765   20.7292 C   0  0  0  0  0  0
  -27.2192  -28.5575   20.7196 C   0  0  0  0  0  0
  -26.0245  -26.8664   19.4720 C   0  0  0  0  0  0
  -24.8690  -27.6646   19.4805 C   0  0  0  0  0  0
  -23.6401  -29.7958   20.1686 C   0  0  0  0  0  0
  -25.4116  -36.3058   24.0338 C   0  0  1  0  0  0
  -20.5994  -28.3691   23.1457 C   0  0  2  0  0  0
  -20.6812  -26.9460   22.5448 C   0  0  0  0  0  0
  -19.6001  -26.6939   21.4966 C   0  0  0  0  0  0
  -18.2070  -26.8284   22.1199 C   0  0  0  0  0  0
  -19.1628  -28.8831   23.3110 C   0  0  0  0  0  0
  -18.9564  -30.1358   23.9258 C   0  0  0  0  0  0
  -17.6567  -30.6524   24.0708 C   0  0  0  0  0  0
  -25.9080  -34.9437   23.5096 C   0  0  0  0  0  0
  -16.5495  -29.9153   23.6175 C   0  0  0  0  0  0
  -16.7371  -28.6626   23.0135 C   0  0  0  0  0  0
  -26.4488  -31.6567   25.0699 C   0  0  0  0  0  0
  -25.3671  -31.3784   26.1389 C   0  0  0  0  0  0
  -27.0334  -30.2981   24.6234 C   0  0  0  0  0  0
  -27.6055  -32.4289   25.7491 C   0  0  0  0  0  0
  -27.5574  -37.1816   24.8481 C   0  0  0  0  0  0
  -21.4256  -29.3229   22.3946 N   0  0  0  0  0  0
  -26.4282  -37.3785   23.9431 N   0  0  0  0  0  0
  -24.6975  -31.0503   22.0973 N   0  0  0  0  0  0
  -23.4380  -28.8105   23.3012 O   0  0  0  0  0  0
  -28.3172  -26.3475   20.1844 O   0  0  0  0  0  0
  -26.5639  -34.8908   22.4677 O   0  0  0  0  0  0
  -23.5477  -32.1421   23.7276 O   0  0  0  0  0  0
  -29.6509  -17.1443   20.2971 C   0  0  0  0  0  0
  -30.1416  -16.0689   21.1273 C   0  0  0  0  0  0
  -30.4394  -16.4704   22.4636 C   0  0  0  0  0  0
  -29.5212  -18.5012   20.7678 C   0  0  0  0  0  0
  -30.3623  -17.8420   22.8327 C   0  0  0  0  0  0
  -28.1088  -21.4039   18.5895 C   0  0  0  0  0  0
  -26.9014  -20.4974   18.8881 C   0  0  0  0  0  0
  -28.7518  -19.6252   19.9612 C   0  0  1  0  0  0
  -29.0804  -21.2036   19.7470 C   0  0  2  0  0  0
  -30.8209  -15.4351   23.5125 C   0  0  0  0  0  0
  -30.8775  -18.3872   24.1615 C   0  0  0  0  0  0
  -26.3846  -18.1184   21.6848 C   0  0  0  0  0  0
  -25.4182  -20.4016   21.3936 C   0  0  0  0  0  0
  -29.2201  -23.7850   20.4373 C   0  0  0  0  0  0
  -28.1728  -24.8769   19.8423 C   0  0  0  0  0  0
  -26.6887  -19.5564   21.2505 C   0  0  0  0  0  0
  -29.8999  -18.8152   22.0169 N   0  0  0  0  0  0
  -27.2895  -19.5033   19.9018 N   0  0  0  0  0  0
  -28.8562  -22.3168   20.7813 N   0  3  0  0  0  0
  -31.4598  -12.5193   19.2233 H   0  0  0  0  0  0
  -30.3177  -11.4691   19.9855 H   0  0  0  0  0  0
  -29.8098  -11.7843   17.5324 H   0  0  0  0  0  0
  -29.6684  -13.5006   17.7749 H   0  0  0  0  0  0
  -27.8737  -11.3148   18.8852 H   0  0  0  0  0  0
  -27.3964  -12.5979   17.8009 H   0  0  0  0  0  0
  -27.6344  -14.2804   19.5126 H   0  0  0  0  0  0
  -28.6829  -12.2010   21.4709 H   0  0  0  0  0  0
  -28.3949  -13.8817   21.8072 H   0  0  0  0  0  0
  -25.2772   -9.5666   22.4778 H   0  0  0  0  0  0
  -23.9989   -7.4628   22.7481 H   0  0  0  0  0  0
  -21.0852   -8.8818   19.8946 H   0  0  0  0  0  0
  -22.3734  -10.9698   19.6171 H   0  0  0  0  0  0
  -21.2057   -7.6155   23.9731 H   0  0  0  0  0  0
  -21.1472   -6.0521   25.9091 H   0  0  0  0  0  0
  -22.0588   -2.7588   23.2850 H   0  0  0  0  0  0
  -22.4038  -11.9959   22.4857 H   0  0  0  0  0  0
  -21.1038  -13.1274   22.2622 H   0  0  0  0  0  0
  -24.6415  -15.8369   20.5171 H   0  0  0  0  0  0
  -26.2796  -15.6386   20.1316 H   0  0  0  0  0  0
  -26.7244  -32.5435   23.1023 H   0  0  0  0  0  0
  -25.0013  -33.9615   25.0313 H   0  0  0  0  0  0
  -22.7238  -31.2967   21.3957 H   0  0  0  0  0  0
  -23.3727  -35.9629   23.3336 H   0  0  0  0  0  0
  -24.3526  -36.8892   22.2049 H   0  0  0  0  0  0
  -23.7216  -37.6503   23.6639 H   0  0  0  0  0  0
  -26.0935  -31.5050   20.5914 H   0  0  0  0  0  0
  -26.8573  -30.8211   22.0035 H   0  0  0  0  0  0
  -28.1124  -28.9185   21.2111 H   0  0  0  0  0  0
  -25.9483  -25.9259   18.9481 H   0  0  0  0  0  0
  -23.9783  -27.2994   18.9860 H   0  0  0  0  0  0
  -23.7457  -30.5589   19.3956 H   0  0  0  0  0  0
  -22.7591  -29.2136   19.8848 H   0  0  0  0  0  0
  -25.1273  -36.1903   25.0832 H   0  0  0  0  0  0
  -21.0129  -28.3072   24.1572 H   0  0  0  0  0  0
  -20.5353  -26.2335   23.3558 H   0  0  0  0  0  0
  -21.6725  -26.7281   22.1509 H   0  0  0  0  0  0
  -19.7135  -25.7153   21.0325 H   0  0  0  0  0  0
  -19.7215  -27.4353   20.7068 H   0  0  0  0  0  0
  -17.4643  -26.7389   21.3243 H   0  0  0  0  0  0
  -18.0200  -26.0227   22.8254 H   0  0  0  0  0  0
  -19.8000  -30.6964   24.2984 H   0  0  0  0  0  0
  -17.5062  -31.6128   24.5434 H   0  0  0  0  0  0
  -15.5519  -30.3182   23.7210 H   0  0  0  0  0  0
  -15.8800  -28.1040   22.6645 H   0  0  0  0  0  0
  -24.5818  -30.7151   25.7736 H   0  0  0  0  0  0
  -24.8848  -32.2978   26.4735 H   0  0  0  0  0  0
  -25.7891  -30.8997   27.0229 H   0  0  0  0  0  0
  -26.2931  -29.6760   24.1198 H   0  0  0  0  0  0
  -27.3950  -29.7208   25.4766 H   0  0  0  0  0  0
  -27.8826  -30.4285   23.9531 H   0  0  0  0  0  0
  -27.2695  -33.3650   26.1973 H   0  0  0  0  0  0
  -28.3912  -32.6770   25.0336 H   0  0  0  0  0  0
  -28.0650  -31.8450   26.5477 H   0  0  0  0  0  0
  -28.2615  -38.0089   24.7488 H   0  0  0  0  0  0
  -28.1013  -36.2613   24.6308 H   0  0  0  0  0  0
  -27.2284  -37.1506   25.8879 H   0  0  0  0  0  0
  -20.9309  -29.9588   21.7803 H   0  0  0  0  0  0
  -26.0152  -38.2881   24.1342 H   0  0  0  0  0  0
  -29.3600  -16.9196   19.2800 H   0  0  0  0  0  0
  -27.7971  -22.4310   18.4259 H   0  0  0  0  0  0
  -28.6012  -21.0833   17.6645 H   0  0  0  0  0  0
  -26.6280  -19.9633   17.9774 H   0  0  0  0  0  0
  -26.0394  -21.1095   19.1428 H   0  0  0  0  0  0
  -29.0509  -19.2418   18.9816 H   0  0  0  0  0  0
  -30.1011  -21.2978   19.3988 H   0  0  0  0  0  0
  -31.3854  -14.5960   23.1113 H   0  0  0  0  0  0
  -31.4253  -15.8592   24.3135 H   0  0  0  0  0  0
  -29.8995  -15.0504   23.9515 H   0  0  0  0  0  0
  -31.9661  -18.4331   24.1106 H   0  0  0  0  0  0
  -30.5823  -17.7872   25.0233 H   0  0  0  0  0  0
  -30.5252  -19.4056   24.3403 H   0  0  0  0  0  0
  -26.0395  -18.0980   22.7230 H   0  0  0  0  0  0
  -27.2485  -17.4572   21.6059 H   0  0  0  0  0  0
  -25.5857  -17.6962   21.0891 H   0  0  0  0  0  0
  -24.9421  -20.2369   22.3565 H   0  0  0  0  0  0
  -24.6835  -20.1540   20.6308 H   0  0  0  0  0  0
  -25.6431  -21.4640   21.3563 H   0  0  0  0  0  0
  -30.0756  -23.7451   19.7564 H   0  0  0  0  0  0
  -29.6000  -24.2135   21.3660 H   0  0  0  0  0  0
  -27.1558  -24.5183   20.0084 H   0  0  0  0  0  0
  -28.2865  -24.8538   18.7560 H   0  0  0  0  0  0
  -27.4179  -19.9457   21.9520 H   0  0  0  0  0  0
  -29.5069  -22.0479   21.5101 H   0  0  0  0  0  0
  -27.9476  -22.2832   21.2186 H   0  0  0  0  0  0
  1 25  1  0  0  0
  1 30  2  0  0  0
  1 72  1  0  0  0
  2  3  1  0  0  0
  2 25  1  0  0  0
  2 90  1  0  0  0
  2 91  1  0  0  0
  3  4  1  0  0  0
  3 92  1  0  0  0
  3 93  1  0  0  0
  4  5  1  0  0  0
  4 94  1  0  0  0
  4 95  1  0  0  0
  5  6  1  0  0  0
  5 26  1  0  0  0
  5 96  1  0  0  0
  6 25  1  0  0  0
  6 97  1  0  0  0
  6 98  1  0  0  0
  7  8  2  0  0  0
  7 26  1  0  0  0
  7 29  1  0  0  0
  8  9  1  0  0  0
  8 22  1  0  0  0
  9 10  1  0  0  0
  9 27  2  0  0  0
 10 11  2  0  0  0
 10 15  1  0  0  0
 11 12  1  0  0  0
 11 99  1  0  0  0
 12 13  2  0  0  0
 12100  1  0  0  0
 13 14  1  0  0  0
 13 31  1  0  0  0
 14 15  2  0  0  0
 14101  1  0  0  0
 15102  1  0  0  0
 16 17  2  0  0  0
 16 21  1  0  0  0
 16 31  1  0  0  0
 17 18  1  0  0  0
 17103  1  0  0  0
 18 19  2  0  0  0
 18104  1  0  0  0
 19 20  1  0  0  0
 19 24  1  0  0  0
 20 21  2  0  0  0
 20105  1  0  0  0
 21 23  1  0  0  0
 22 28  1  0  0  0
 22 32  2  0  0  0
 26 27  1  0  0  0
 28106  1  0  0  0
 28107  1  0  0  0
 29108  1  0  0  0
 29109  1  0  0  0
 33 34  1  0  0  0
 33 66  1  0  0  0
 33 70  2  0  0  0
 34 36  1  0  0  0
 34 59  1  0  0  0
 34110  1  0  0  0
 35 44  2  0  0  0
 35 45  1  0  0  0
 35 68  1  0  0  0
 36 56  1  0  0  0
 36111  1  0  0  0
 37 39  1  0  0  0
 37 47  1  0  0  0
 37 66  1  0  0  0
 37112  1  0  0  0
 38 43  2  0  0  0
 38 46  1  0  0  0
 38 47  1  0  0  0
 39 64  1  0  0  0
 39 67  2  0  0  0
 40 52  1  0  0  0
 40 53  2  0  0  0
 40 58  1  0  0  0
 41113  1  0  0  0
 41114  1  0  0  0
 41115  1  0  0  0
 41 48  1  0  0  0
 42 43  1  0  0  0
 42 66  1  0  0  0
 42116  1  0  0  0
 42117  1  0  0  0
 43 44  1  0  0  0
 44118  1  0  0  0
 45 46  2  0  0  0
 45119  1  0  0  0
 46120  1  0  0  0
 47121  1  0  0  0
 47122  1  0  0  0
 48 56  1  0  0  0
 48 65  1  0  0  0
 48123  1  0  0  0
 49 50  1  0  0  0
 49 53  1  0  0  0
 49 64  1  0  0  0
 49124  1  0  0  0
 50 51  1  0  0  0
 50125  1  0  0  0
 50126  1  0  0  0
 51 52  1  0  0  0
 51127  1  0  0  0
 51128  1  0  0  0
 52129  1  0  0  0
 52130  1  0  0  0
 53 54  1  0  0  0
 54 55  2  0  0  0
 54131  1  0  0  0
 55 57  1  0  0  0
 55132  1  0  0  0
 56 69  2  0  0  0
 57 58  2  0  0  0
 57133  1  0  0  0
 58134  1  0  0  0
 59 60  1  0  0  0
 59 61  1  0  0  0
 59 62  1  0  0  0
 60135  1  0  0  0
 60136  1  0  0  0
 60137  1  0  0  0
 61138  1  0  0  0
 61139  1  0  0  0
 61140  1  0  0  0
 62141  1  0  0  0
 62142  1  0  0  0
 62143  1  0  0  0
 63 65  1  0  0  0
 63144  1  0  0  0
 63145  1  0  0  0
 63146  1  0  0  0
 64147  1  0  0  0
 65148  1  0  0  0
 68 85  1  0  0  0
 71 72  2  0  0  0
 71 74  1  0  0  0
 71149  1  0  0  0
 72 73  1  0  0  0
 73 75  2  0  0  0
 73 80  1  0  0  0
 74 87  2  0  0  0
 74 78  1  0  0  0
 75 81  1  0  0  0
 75 87  1  0  0  0
 76 77  1  0  0  0
 76 79  1  0  0  0
 76150  1  0  0  0
 76151  1  0  0  0
 77 88  1  0  0  0
 77152  1  0  0  0
 77153  1  0  0  0
 78 79  1  0  0  0
 78 88  1  0  0  0
 78154  1  0  0  0
 79 89  1  0  0  0
 79155  1  0  0  0
 80156  1  0  0  0
 80157  1  0  0  0
 80158  1  0  0  0
 81159  1  0  0  0
 81160  1  0  0  0
 81161  1  0  0  0
 82162  1  0  0  0
 82163  1  0  0  0
 82164  1  0  0  0
 82 86  1  0  0  0
 83 86  1  0  0  0
 83165  1  0  0  0
 83166  1  0  0  0
 83167  1  0  0  0
 84 85  1  0  0  0
 84 89  1  0  0  0
 84168  1  0  0  0
 84169  1  0  0  0
 85170  1  0  0  0
 85171  1  0  0  0
 86 88  1  0  0  0
 86172  1  0  0  0
 89173  1  0  0  0
 89174  1  0  0  0
M  CHG  1  89   1
M  ISO  4   1 100  68 101  72 100  85 101
M  END
> <chiral flag>
0

> <version>
0

> <s_m_source_file>
/data/baiqing/PycharmProjects/Reinvent-master-3.2/result/LINK_invent/BTK/process_docking_weight1_custom_sum_contain_oxygen_bond_distance_aromatic_linkinvent_7_9_3/rearranged_h_0183.sdf

> <i_m_source_file_index>
2

> <r_mmod_Potential_Energy-OPLS-2005>
194.321701049805

> <r_mmod_Stretch_Energy-OPLS-2005>
131.138977050781

> <r_mmod_Bend_Energy-OPLS-2005>
294.782623291016

> <r_mmod_Torsional_Energy-OPLS-2005>
327.065551757812

> <r_mmod_Improper_Torsional_Energy-OPLS-2005>
5.38097858428955

> <r_mmod_Van_der_Waal_Energy-OPLS-2005>
145.966522216797

> <r_mmod_Electrostatic_Energy-OPLS-2005>
-378.053741455078

> <r_mmod_Solvation_Energy-OPLS-2005>
-415.33203125

> <b_mmod_Minimization_Converged-OPLS-2005>
0

> <r_mmod_RMS_Derivative-OPLS-2005>
13.0359401702881

$$$$
2
                    3D
 Structure written by MMmdl.
166175  0  0  1  0            999 V2000
  -30.6512  -14.5752   20.4252 C   0  0  0  0  0  0
  -30.4348  -12.3281   19.4455 C   0  0  0  0  0  0
  -29.5044  -12.4494   18.2181 C   0  0  0  0  0  0
  -28.0235  -12.3227   18.6316 C   0  0  0  0  0  0
  -27.6521  -13.2049   19.8538 C   0  0  2  0  0  0
  -28.7036  -13.0845   20.9813 C   0  0  0  0  0  0
  -25.2597  -13.8144   20.5683 C   0  0  0  0  0  0
  -24.1844  -13.0437   20.9188 C   0  0  0  0  0  0
  -24.6395  -11.6901   20.8753 C   0  0  0  0  0  0
  -23.9065  -10.4285   21.0407 C   0  0  0  0  0  0
  -24.3625   -9.4198   21.9174 C   0  0  0  0  0  0
  -23.6302   -8.2232   22.0749 C   0  0  0  0  0  0
  -22.4278   -8.0280   21.3545 C   0  0  0  0  0  0
  -21.9915   -9.0248   20.4641 C   0  0  0  0  0  0
  -22.7245  -10.2124   20.3051 C   0  0  0  0  0  0
  -21.6845   -6.0739   22.5282 C   0  0  0  0  0  0
  -21.4001   -6.5644   23.8214 C   0  0  0  0  0  0
  -21.3661   -5.6796   24.9178 C   0  0  0  0  0  0
  -21.6051   -4.3062   24.7220 C   0  0  0  0  0  0
  -21.8824   -3.8151   23.4340 C   0  0  0  0  0  0
  -21.9190   -4.6968   22.3399 C   0  0  0  0  0  0
  -22.7869  -13.5237   21.1857 C   0  0  0  0  0  0
  -22.1664   -4.2162   21.0973 F   0  0  0  0  0  0
  -21.5635   -3.4537   25.7726 F   0  0  0  0  0  0
  -30.0234  -13.3667   20.4019 N   0  0  0  0  0  0
  -26.2998  -12.9295   20.3309 N   0  0  0  0  0  0
  -25.9317  -11.6474   20.5780 N   0  0  0  0  0  0
  -22.0514  -12.8221   22.0406 N   0  0  0  0  0  0
  -25.4364  -15.1855   20.4111 N   0  0  0  0  0  0
  -31.8644  -14.6908   20.2402 O   0  0  0  0  0  0
  -21.6645   -6.8874   21.4240 O   0  0  0  0  0  0
  -22.3557  -14.5546   20.6708 O   0  0  0  0  0  0
  -24.6211  -31.8642   23.2069 C   0  0  0  0  0  0
  -25.9093  -32.4794   23.8379 C   0  0  1  0  0  0
  -27.2249  -27.3756   20.1068 C   0  0  0  0  0  0
  -25.5927  -33.8591   24.2306 N   0  0  0  0  0  0
  -23.4118  -30.4909   21.5478 C   0  0  2  0  0  0
  -24.8567  -28.9575   20.1095 C   0  0  0  0  0  0
  -22.7451  -29.4654   22.4945 C   0  0  0  0  0  0
  -18.0282  -28.1384   22.8486 C   0  0  0  0  0  0
  -24.1486  -36.7307   23.2640 C   0  0  0  0  0  0
  -25.9486  -30.8139   21.3696 C   0  0  0  0  0  0
  -26.0232  -29.4468   20.7104 C   0  0  0  0  0  0
  -27.2112  -28.6672   20.7005 C   0  0  0  0  0  0
  -26.0355  -26.9279   19.4817 C   0  0  0  0  0  0
  -24.8620  -27.7009   19.4869 C   0  0  0  0  0  0
  -23.6227  -29.8306   20.1609 C   0  0  0  0  0  0
  -25.4108  -36.3091   24.0334 C   0  0  1  0  0  0
  -20.5881  -28.3687   23.1287 C   0  0  2  0  0  0
  -20.6769  -26.9410   22.5412 C   0  0  0  0  0  0
  -19.5748  -26.6385   21.5210 C   0  0  0  0  0  0
  -18.1927  -26.7930   22.1616 C   0  0  0  0  0  0
  -19.1536  -28.8850   23.2883 C   0  0  0  0  0  0
  -18.9460  -30.1452   23.8901 C   0  0  0  0  0  0
  -17.6460  -30.6583   24.0568 C   0  0  0  0  0  0
  -25.9044  -34.9458   23.5115 C   0  0  0  0  0  0
  -16.5352  -29.9084   23.6326 C   0  0  0  0  0  0
  -16.7274  -28.6504   23.0343 C   0  0  0  0  0  0
  -26.4499  -31.6580   25.0725 C   0  0  0  0  0  0
  -25.3762  -31.3705   26.1473 C   0  0  0  0  0  0
  -27.0332  -30.3007   24.6143 C   0  0  0  0  0  0
  -27.6066  -32.4307   25.7495 C   0  0  0  0  0  0
  -27.5578  -37.1806   24.8461 C   0  0  0  0  0  0
  -21.4169  -29.3047   22.3687 N   0  0  0  0  0  0
  -26.4285  -37.3781   23.9413 N   0  0  0  0  0  0
  -24.6794  -31.0712   22.0991 N   0  0  0  0  0  0
  -23.4201  -28.8194   23.3002 O   0  0  0  0  0  0
  -28.3571  -26.5623   20.1604 O   0  0  0  0  0  0
  -26.5605  -34.8919   22.4676 O   0  0  0  0  0  0
  -23.5396  -32.1414   23.7437 O   0  0  0  0  0  0
  -29.4296  -20.3587   21.0617 C   0  0  0  0  0  0
  -30.3395  -19.3115   20.7225 C   0  0  0  0  0  0
  -29.6884  -21.6486   20.5180 C   0  0  0  0  0  0
  -31.5229  -20.8094   19.4445 C   0  0  0  0  0  0
  -28.8606  -17.1331   19.0992 C   0  0  0  0  0  0
  -30.0388  -16.2573   18.7019 C   0  0  0  0  0  0
  -29.2978  -16.8629   20.5395 C   0  0  2  0  0  0
  -32.7073  -21.0702   18.5408 C   0  0  0  0  0  0
  -28.5224  -20.3511   23.4407 C   0  0  0  0  0  0
  -28.2230  -20.0977   21.9574 C   0  0  0  0  0  0
  -30.2893  -17.8451   21.2460 C   0  0  0  0  0  0
  -29.2893  -24.1801   20.5493 C   0  0  0  0  0  0
  -28.1161  -25.1228   20.1307 C   0  0  0  0  0  0
  -31.3736  -19.5716   19.8997 N   0  0  0  0  0  0
  -30.7410  -21.8476   19.7148 N   0  0  0  0  0  0
  -29.8367  -15.5756   19.9871 N   0  0  0  0  0  0
  -28.8661  -22.7716   20.7663 N   0  0  0  0  0  0
  -31.4781  -12.4347   19.1427 H   0  0  0  0  0  0
  -30.3482  -11.3402   19.9011 H   0  0  0  0  0  0
  -29.7521  -11.6793   17.4864 H   0  0  0  0  0  0
  -29.6655  -13.4018   17.7159 H   0  0  0  0  0  0
  -27.8424  -11.2730   18.8665 H   0  0  0  0  0  0
  -27.3750  -12.5604   17.7874 H   0  0  0  0  0  0
  -27.6564  -14.2309   19.4931 H   0  0  0  0  0  0
  -28.6914  -12.0859   21.4199 H   0  0  0  0  0  0
  -28.4806  -13.7831   21.7900 H   0  0  0  0  0  0
  -25.2765   -9.5677   22.4752 H   0  0  0  0  0  0
  -24.0024   -7.4612   22.7454 H   0  0  0  0  0  0
  -21.0852   -8.8762   19.8933 H   0  0  0  0  0  0
  -22.3707  -10.9668   19.6165 H   0  0  0  0  0  0
  -21.1993   -7.6151   23.9728 H   0  0  0  0  0  0
  -21.1480   -6.0517   25.9083 H   0  0  0  0  0  0
  -22.0603   -2.7617   23.2830 H   0  0  0  0  0  0
  -22.4132  -11.9883   22.4783 H   0  0  0  0  0  0
  -21.1131  -13.1236   22.2606 H   0  0  0  0  0  0
  -24.6794  -15.8507   20.5236 H   0  0  0  0  0  0
  -26.3049  -15.6143   20.1167 H   0  0  0  0  0  0
  -26.7168  -32.5484   23.1142 H   0  0  0  0  0  0
  -25.0082  -33.9731   25.0455 H   0  0  0  0  0  0
  -22.7045  -31.3111   21.4091 H   0  0  0  0  0  0
  -23.3741  -35.9645   23.3293 H   0  0  0  0  0  0
  -24.3589  -36.8932   22.2057 H   0  0  0  0  0  0
  -23.7239  -37.6509   23.6664 H   0  0  0  0  0  0
  -26.0751  -31.5809   20.6045 H   0  0  0  0  0  0
  -26.8312  -30.8591   21.9960 H   0  0  0  0  0  0
  -28.1072  -29.0386   21.1783 H   0  0  0  0  0  0
  -25.9828  -25.9709   18.9853 H   0  0  0  0  0  0
  -23.9695  -27.3209   19.0091 H   0  0  0  0  0  0
  -23.7380  -30.6089   19.4053 H   0  0  0  0  0  0
  -22.7446  -29.2568   19.8587 H   0  0  0  0  0  0
  -25.1284  -36.1945   25.0824 H   0  0  0  0  0  0
  -20.9979  -28.3257   24.1404 H   0  0  0  0  0  0
  -20.5654  -26.2301   23.3614 H   0  0  0  0  0  0
  -21.6639  -26.7435   22.1210 H   0  0  0  0  0  0
  -19.6907  -25.6296   21.1234 H   0  0  0  0  0  0
  -19.6686  -27.3200   20.6745 H   0  0  0  0  0  0
  -17.4200  -26.6689   21.4010 H   0  0  0  0  0  0
  -18.0321  -26.0064   22.9003 H   0  0  0  0  0  0
  -19.7939  -30.7264   24.2265 H   0  0  0  0  0  0
  -17.5019  -31.6260   24.5175 H   0  0  0  0  0  0
  -15.5354  -30.2990   23.7646 H   0  0  0  0  0  0
  -15.8672  -28.0829   22.7044 H   0  0  0  0  0  0
  -24.5931  -30.7047   25.7825 H   0  0  0  0  0  0
  -24.8962  -32.2864   26.4924 H   0  0  0  0  0  0
  -25.8115  -30.8880   27.0232 H   0  0  0  0  0  0
  -26.2884  -29.6754   24.1203 H   0  0  0  0  0  0
  -27.4084  -29.7259   25.4620 H   0  0  0  0  0  0
  -27.8732  -30.4298   23.9316 H   0  0  0  0  0  0
  -27.2669  -33.3595   26.2090 H   0  0  0  0  0  0
  -28.3869  -32.6879   25.0322 H   0  0  0  0  0  0
  -28.0740  -31.8421   26.5398 H   0  0  0  0  0  0
  -28.2593  -38.0105   24.7507 H   0  0  0  0  0  0
  -28.1074  -36.2638   24.6278 H   0  0  0  0  0  0
  -27.2306  -37.1442   25.8866 H   0  0  0  0  0  0
  -20.9337  -29.8798   21.6928 H   0  0  0  0  0  0
  -26.0170  -38.2856   24.1414 H   0  0  0  0  0  0
  -27.8954  -16.6904   18.8445 H   0  0  0  0  0  0
  -28.9239  -18.1654   18.7541 H   0  0  0  0  0  0
  -30.9881  -16.7932   18.6223 H   0  0  0  0  0  0
  -29.8498  -15.6554   17.8137 H   0  0  0  0  0  0
  -28.4051  -16.7088   21.1468 H   0  0  0  0  0  0
  -33.3021  -20.1687   18.3895 H   0  0  0  0  0  0
  -33.3556  -21.8300   18.9770 H   0  0  0  0  0  0
  -32.3710  -21.4231   17.5659 H   0  0  0  0  0  0
  -27.6301  -20.1932   24.0484 H   0  0  0  0  0  0
  -28.8600  -21.3742   23.6111 H   0  0  0  0  0  0
  -29.2943  -19.6781   23.8149 H   0  0  0  0  0  0
  -27.8755  -19.0731   21.8217 H   0  0  0  0  0  0
  -27.3877  -20.7211   21.6373 H   0  0  0  0  0  0
  -30.0683  -17.8795   22.3128 H   0  0  0  0  0  0
  -31.3022  -17.4436   21.1984 H   0  0  0  0  0  0
  -29.7197  -24.5395   21.4842 H   0  0  0  0  0  0
  -30.0810  -24.2487   19.8032 H   0  0  0  0  0  0
  -27.2724  -24.9067   20.7893 H   0  0  0  0  0  0
  -27.8169  -24.8342   19.1228 H   0  0  0  0  0  0
  -28.1157  -22.6249   21.4306 H   0  0  0  0  0  0
  1 25  1  0  0  0
  1 30  2  0  0  0
  1 86  1  0  0  0
  2  3  1  0  0  0
  2 25  1  0  0  0
  2 88  1  0  0  0
  2 89  1  0  0  0
  3  4  1  0  0  0
  3 90  1  0  0  0
  3 91  1  0  0  0
  4  5  1  0  0  0
  4 92  1  0  0  0
  4 93  1  0  0  0
  5  6  1  0  0  0
  5 26  1  0  0  0
  5 94  1  0  0  0
  6 25  1  0  0  0
  6 95  1  0  0  0
  6 96  1  0  0  0
  7  8  2  0  0  0
  7 26  1  0  0  0
  7 29  1  0  0  0
  8  9  1  0  0  0
  8 22  1  0  0  0
  9 10  1  0  0  0
  9 27  2  0  0  0
 10 11  2  0  0  0
 10 15  1  0  0  0
 11 12  1  0  0  0
 11 97  1  0  0  0
 12 13  2  0  0  0
 12 98  1  0  0  0
 13 14  1  0  0  0
 13 31  1  0  0  0
 14 15  2  0  0  0
 14 99  1  0  0  0
 15100  1  0  0  0
 16 17  2  0  0  0
 16 21  1  0  0  0
 16 31  1  0  0  0
 17 18  1  0  0  0
 17101  1  0  0  0
 18 19  2  0  0  0
 18102  1  0  0  0
 19 20  1  0  0  0
 19 24  1  0  0  0
 20 21  2  0  0  0
 20103  1  0  0  0
 21 23  1  0  0  0
 22 28  1  0  0  0
 22 32  2  0  0  0
 26 27  1  0  0  0
 28104  1  0  0  0
 28105  1  0  0  0
 29106  1  0  0  0
 29107  1  0  0  0
 33 34  1  0  0  0
 33 66  1  0  0  0
 33 70  2  0  0  0
 34 36  1  0  0  0
 34 59  1  0  0  0
 34108  1  0  0  0
 35 44  2  0  0  0
 35 45  1  0  0  0
 35 68  1  0  0  0
 36 56  1  0  0  0
 36109  1  0  0  0
 37 39  1  0  0  0
 37 47  1  0  0  0
 37 66  1  0  0  0
 37110  1  0  0  0
 38 43  2  0  0  0
 38 46  1  0  0  0
 38 47  1  0  0  0
 39 64  1  0  0  0
 39 67  2  0  0  0
 40 52  1  0  0  0
 40 53  2  0  0  0
 40 58  1  0  0  0
 41111  1  0  0  0
 41112  1  0  0  0
 41113  1  0  0  0
 41 48  1  0  0  0
 42 43  1  0  0  0
 42 66  1  0  0  0
 42114  1  0  0  0
 42115  1  0  0  0
 43 44  1  0  0  0
 44116  1  0  0  0
 45 46  2  0  0  0
 45117  1  0  0  0
 46118  1  0  0  0
 47119  1  0  0  0
 47120  1  0  0  0
 48 56  1  0  0  0
 48 65  1  0  0  0
 48121  1  0  0  0
 49 50  1  0  0  0
 49 53  1  0  0  0
 49 64  1  0  0  0
 49122  1  0  0  0
 50 51  1  0  0  0
 50123  1  0  0  0
 50124  1  0  0  0
 51 52  1  0  0  0
 51125  1  0  0  0
 51126  1  0  0  0
 52127  1  0  0  0
 52128  1  0  0  0
 53 54  1  0  0  0
 54 55  2  0  0  0
 54129  1  0  0  0
 55 57  1  0  0  0
 55130  1  0  0  0
 56 69  2  0  0  0
 57 58  2  0  0  0
 57131  1  0  0  0
 58132  1  0  0  0
 59 60  1  0  0  0
 59 61  1  0  0  0
 59 62  1  0  0  0
 60133  1  0  0  0
 60134  1  0  0  0
 60135  1  0  0  0
 61136  1  0  0  0
 61137  1  0  0  0
 61138  1  0  0  0
 62139  1  0  0  0
 62140  1  0  0  0
 62141  1  0  0  0
 63 65  1  0  0  0
 63142  1  0  0  0
 63143  1  0  0  0
 63144  1  0  0  0
 64145  1  0  0  0
 65146  1  0  0  0
 68 83  1  0  0  0
 71 72  2  0  0  0
 71 73  1  0  0  0
 71 80  1  0  0  0
 72 81  1  0  0  0
 72 84  1  0  0  0
 73 85  2  0  0  0
 73 87  1  0  0  0
 74 78  1  0  0  0
 74 84  2  0  0  0
 74 85  1  0  0  0
 75 76  1  0  0  0
 75 77  1  0  0  0
 75147  1  0  0  0
 75148  1  0  0  0
 76 86  1  0  0  0
 76149  1  0  0  0
 76150  1  0  0  0
 77 81  1  0  0  0
 77 86  1  0  0  0
 77151  1  0  0  0
 78152  1  0  0  0
 78153  1  0  0  0
 78154  1  0  0  0
 79 80  1  0  0  0
 79155  1  0  0  0
 79156  1  0  0  0
 79157  1  0  0  0
 80158  1  0  0  0
 80159  1  0  0  0
 81160  1  0  0  0
 81161  1  0  0  0
 82 83  1  0  0  0
 82 87  1  0  0  0
 82162  1  0  0  0
 82163  1  0  0  0
 83164  1  0  0  0
 83165  1  0  0  0
 87166  1  0  0  0
M  ISO  4   1 100  68 101  83 101  86 100
M  END
> <chiral flag>
0

> <version>
0

> <s_m_source_file>
/data/baiqing/PycharmProjects/Reinvent-master-3.2/result/LINK_invent/BTK/process_docking_weight1_custom_sum_contain_oxygen_bond_distance_aromatic_linkinvent_7_9_3/rearranged_h_0183.sdf

> <i_m_source_file_index>
3

> <r_mmod_Potential_Energy-OPLS-2005>
-273.553131103516

> <r_mmod_Stretch_Energy-OPLS-2005>
54.7235107421875

> <r_mmod_Bend_Energy-OPLS-2005>
146.178497314453

> <r_mmod_Torsional_Energy-OPLS-2005>
290.13134765625

> <r_mmod_Improper_Torsional_Energy-OPLS-2005>
30.4416351318359

> <r_mmod_Van_der_Waal_Energy-OPLS-2005>
151.624450683594

> <r_mmod_Electrostatic_Energy-OPLS-2005>
-757.939758300781

> <r_mmod_Solvation_Energy-OPLS-2005>
-227.486373901367

> <b_mmod_Minimization_Converged-OPLS-2005>
0

> <r_mmod_RMS_Derivative-OPLS-2005>
1.54862034320831

$$$$
3
                    3D
 Structure written by MMmdl.
157166  0  0  1  0            999 V2000
  -30.5058  -15.0896   20.3374 C   0  0  0  0  0  0
  -30.4403  -12.6749   19.4958 C   0  0  0  0  0  0
  -29.5241  -12.5048   18.2608 C   0  0  0  0  0  0
  -28.0615  -12.2797   18.6930 C   0  0  0  0  0  0
  -27.6120  -13.2403   19.8244 C   0  0  2  0  0  0
  -28.6621  -13.3731   20.9461 C   0  0  0  0  0  0
  -25.2442  -13.8168   20.5788 C   0  0  0  0  0  0
  -24.1746  -13.0407   20.9269 C   0  0  0  0  0  0
  -24.6358  -11.6892   20.8788 C   0  0  0  0  0  0
  -23.9049  -10.4273   21.0429 C   0  0  0  0  0  0
  -24.3610   -9.4191   21.9201 C   0  0  0  0  0  0
  -23.6289   -8.2226   22.0758 C   0  0  0  0  0  0
  -22.4273   -8.0268   21.3543 C   0  0  0  0  0  0
  -21.9911   -9.0240   20.4642 C   0  0  0  0  0  0
  -22.7237  -10.2118   20.3059 C   0  0  0  0  0  0
  -21.6847   -6.0735   22.5284 C   0  0  0  0  0  0
  -21.4008   -6.5639   23.8217 C   0  0  0  0  0  0
  -21.3659   -5.6793   24.9180 C   0  0  0  0  0  0
  -21.6041   -4.3056   24.7229 C   0  0  0  0  0  0
  -21.8819   -3.8148   23.4350 C   0  0  0  0  0  0
  -21.9189   -4.6964   22.3407 C   0  0  0  0  0  0
  -22.7771  -13.5195   21.1909 C   0  0  0  0  0  0
  -22.1658   -4.2151   21.0985 F   0  0  0  0  0  0
  -21.5630   -3.4539   25.7740 F   0  0  0  0  0  0
  -29.9117  -13.8140   20.3084 N   0  0  0  0  0  0
  -26.2826  -12.9360   20.3287 N   0  0  0  0  0  0
  -25.9285  -11.6506   20.5775 N   0  0  0  0  0  0
  -22.0411  -12.8185   22.0455 N   0  0  0  0  0  0
  -25.4154  -15.1903   20.4275 N   0  0  0  0  0  0
  -31.7417  -15.0907   20.2664 O   0  0  0  0  0  0
  -21.6632   -6.8873   21.4242 O   0  0  0  0  0  0
  -22.3472  -14.5503   20.6744 O   0  0  0  0  0  0
  -24.6513  -31.8363   23.1815 C   0  0  0  0  0  0
  -25.9256  -32.4654   23.8232 C   0  0  1  0  0  0
  -27.2187  -27.0614   20.1655 C   0  0  0  0  0  0
  -25.5982  -33.8465   24.2150 N   0  0  0  0  0  0
  -23.4584  -30.4528   21.5280 C   0  0  2  0  0  0
  -24.9091  -28.8627   20.1111 C   0  0  0  0  0  0
  -22.7609  -29.4515   22.4834 C   0  0  0  0  0  0
  -18.0313  -28.1414   22.8479 C   0  0  0  0  0  0
  -24.1485  -36.7222   23.2645 C   0  0  0  0  0  0
  -26.0190  -30.6869   21.3896 C   0  0  0  0  0  0
  -26.0885  -29.2896   20.7338 C   0  0  0  0  0  0
  -27.2428  -28.4076   20.7383 C   0  0  0  0  0  0
  -26.0138  -26.7536   19.4981 C   0  0  0  0  0  0
  -24.8887  -27.6115   19.4749 C   0  0  0  0  0  0
  -23.6892  -29.7751   20.1501 C   0  0  0  0  0  0
  -25.4119  -36.2998   24.0310 C   0  0  1  0  0  0
  -20.5932  -28.3742   23.1222 C   0  0  2  0  0  0
  -20.6796  -26.9439   22.5402 C   0  0  0  0  0  0
  -19.5765  -26.6393   21.5218 C   0  0  0  0  0  0
  -18.1946  -26.7956   22.1621 C   0  0  0  0  0  0
  -19.1572  -28.8895   23.2842 C   0  0  0  0  0  0
  -18.9483  -30.1493   23.8869 C   0  0  0  0  0  0
  -17.6478  -30.6606   24.0564 C   0  0  0  0  0  0
  -25.9082  -34.9384   23.5033 C   0  0  0  0  0  0
  -16.5369  -29.9096   23.6345 C   0  0  0  0  0  0
  -16.7294  -28.6516   23.0364 C   0  0  0  0  0  0
  -26.4561  -31.6554   25.0704 C   0  0  0  0  0  0
  -25.3730  -31.3753   26.1385 C   0  0  0  0  0  0
  -27.0451  -30.2949   24.6331 C   0  0  0  0  0  0
  -27.6071  -32.4344   25.7500 C   0  0  0  0  0  0
  -27.5559  -37.1768   24.8471 C   0  0  0  0  0  0
  -21.4291  -29.3054   22.3586 N   0  0  0  0  0  0
  -26.4269  -37.3727   23.9416 N   0  0  0  0  0  0
  -24.7301  -31.0154   22.0876 N   0  0  0  0  0  0
  -23.4220  -28.8070   23.3017 O   0  0  0  0  0  0
  -28.2620  -26.0421   20.2221 O   0  0  0  0  0  0
  -26.5664  -34.8899   22.4613 O   0  0  0  0  0  0
  -23.5614  -32.1266   23.6994 O   0  0  0  0  0  0
  -29.7662  -17.3224   17.9387 C   0  0  0  0  0  0
  -30.7572  -18.0633   18.8276 C   0  0  0  0  0  0
  -28.5470  -23.3341   19.2528 C   0  0  0  0  0  0
  -28.7629  -23.4273   21.2484 C   0  0  0  0  0  0
  -29.0280  -16.3488   18.8746 C   0  0  0  0  0  0
  -28.4948  -22.1207   20.3299 C   0  0  2  0  0  0
  -28.0044  -24.4688   20.2719 C   0  0  1  0  0  0
  -30.1381  -17.9064   20.2141 C   0  0  1  0  0  0
  -29.0643  -19.2645   20.4060 C   0  0  0  0  0  0
  -29.7475  -16.3305   20.1610 N   0  0  0  0  0  0
  -29.4788  -20.8267   20.2934 N   0  3  0  0  0  0
  -31.4665  -12.8544   19.1711 H   0  0  0  0  0  0
  -30.4690  -11.7577   20.0861 H   0  0  0  0  0  0
  -29.8635  -11.6645   17.6538 H   0  0  0  0  0  0
  -29.5950  -13.3815   17.6176 H   0  0  0  0  0  0
  -27.9869  -11.2501   19.0444 H   0  0  0  0  0  0
  -27.3920  -12.3557   17.8354 H   0  0  0  0  0  0
  -27.5137  -14.2095   19.3494 H   0  0  0  0  0  0
  -28.7934  -12.4326   21.4828 H   0  0  0  0  0  0
  -28.3395  -14.1129   21.6807 H   0  0  0  0  0  0
  -25.2746   -9.5669   22.4790 H   0  0  0  0  0  0
  -23.9993   -7.4611   22.7475 H   0  0  0  0  0  0
  -21.0847   -8.8759   19.8941 H   0  0  0  0  0  0
  -22.3703  -10.9663   19.6170 H   0  0  0  0  0  0
  -21.2001   -7.6148   23.9719 H   0  0  0  0  0  0
  -21.1479   -6.0526   25.9082 H   0  0  0  0  0  0
  -22.0599   -2.7611   23.2850 H   0  0  0  0  0  0
  -22.4023  -11.9848   22.4849 H   0  0  0  0  0  0
  -21.1019  -13.1192   22.2643 H   0  0  0  0  0  0
  -24.6551  -15.8480   20.5605 H   0  0  0  0  0  0
  -26.2813  -15.6346   20.1518 H   0  0  0  0  0  0
  -26.7323  -32.5234   23.0953 H   0  0  0  0  0  0
  -25.0150  -33.9578   25.0314 H   0  0  0  0  0  0
  -22.7647  -31.2810   21.3673 H   0  0  0  0  0  0
  -23.3760  -35.9540   23.3289 H   0  0  0  0  0  0
  -24.3561  -36.8873   22.2062 H   0  0  0  0  0  0
  -23.7232  -37.6405   23.6701 H   0  0  0  0  0  0
  -26.1822  -31.4359   20.6132 H   0  0  0  0  0  0
  -26.8873  -30.7410   22.0345 H   0  0  0  0  0  0
  -28.1409  -28.7328   21.2437 H   0  0  0  0  0  0
  -25.9172  -25.7995   19.0008 H   0  0  0  0  0  0
  -23.9911  -27.2816   18.9710 H   0  0  0  0  0  0
  -23.8340  -30.5478   19.3941 H   0  0  0  0  0  0
  -22.8018  -29.2225   19.8359 H   0  0  0  0  0  0
  -25.1315  -36.1799   25.0800 H   0  0  0  0  0  0
  -21.0020  -28.3332   24.1344 H   0  0  0  0  0  0
  -20.5708  -26.2353   23.3627 H   0  0  0  0  0  0
  -21.6656  -26.7452   22.1182 H   0  0  0  0  0  0
  -19.6926  -25.6299   21.1261 H   0  0  0  0  0  0
  -19.6702  -27.3196   20.6744 H   0  0  0  0  0  0
  -17.4220  -26.6719   21.4021 H   0  0  0  0  0  0
  -18.0325  -26.0107   22.9019 H   0  0  0  0  0  0
  -19.7956  -30.7324   24.2219 H   0  0  0  0  0  0
  -17.5028  -31.6283   24.5173 H   0  0  0  0  0  0
  -15.5370  -30.2986   23.7694 H   0  0  0  0  0  0
  -15.8693  -28.0828   22.7092 H   0  0  0  0  0  0
  -24.5925  -30.7090   25.7697 H   0  0  0  0  0  0
  -24.8910  -32.2939   26.4740 H   0  0  0  0  0  0
  -25.8003  -30.8969   27.0207 H   0  0  0  0  0  0
  -26.3096  -29.6655   24.1311 H   0  0  0  0  0  0
  -27.4030  -29.7270   25.4929 H   0  0  0  0  0  0
  -27.9014  -30.4191   23.9697 H   0  0  0  0  0  0
  -27.2658  -33.3690   26.1965 H   0  0  0  0  0  0
  -28.3944  -32.6829   25.0370 H   0  0  0  0  0  0
  -28.0673  -31.8542   26.5506 H   0  0  0  0  0  0
  -28.2565  -38.0075   24.7508 H   0  0  0  0  0  0
  -28.1062  -36.2599   24.6301 H   0  0  0  0  0  0
  -27.2275  -37.1415   25.8874 H   0  0  0  0  0  0
  -20.9519  -29.8736   21.6725 H   0  0  0  0  0  0
  -26.0116  -38.2782   24.1436 H   0  0  0  0  0  0
  -30.2856  -16.7979   17.1351 H   0  0  0  0  0  0
  -29.0573  -18.0084   17.4726 H   0  0  0  0  0  0
  -30.9188  -19.0952   18.5173 H   0  0  0  0  0  0
  -31.7283  -17.5649   18.7988 H   0  0  0  0  0  0
  -27.8937  -23.1777   18.3937 H   0  0  0  0  0  0
  -29.5591  -23.5469   18.9005 H   0  0  0  0  0  0
  -29.8253  -23.6619   21.3496 H   0  0  0  0  0  0
  -28.3155  -23.3619   22.2405 H   0  0  0  0  0  0
  -28.9701  -15.3892   18.3666 H   0  0  0  0  0  0
  -28.0017  -16.6764   19.0454 H   0  0  0  0  0  0
  -27.4667  -21.7789   20.4577 H   0  0  0  0  0  0
  -26.9326  -24.3199   20.4121 H   0  0  0  0  0  0
  -30.9223  -18.0111   20.9656 H   0  0  0  0  0  0
  -28.5888  -19.1579   21.3808 H   0  0  0  0  0  0
  -28.2516  -19.1363   19.6915 H   0  0  0  0  0  0
  -30.1593  -20.9670   21.0221 H   0  0  0  0  0  0
  -29.9979  -20.9013   19.4349 H   0  0  0  0  0  0
  1 25  1  0  0  0
  1 30  2  0  0  0
  1 80  1  0  0  0
  2  3  1  0  0  0
  2 25  1  0  0  0
  2 82  1  0  0  0
  2 83  1  0  0  0
  3  4  1  0  0  0
  3 84  1  0  0  0
  3 85  1  0  0  0
  4  5  1  0  0  0
  4 86  1  0  0  0
  4 87  1  0  0  0
  5  6  1  0  0  0
  5 26  1  0  0  0
  5 88  1  0  0  0
  6 25  1  0  0  0
  6 89  1  0  0  0
  6 90  1  0  0  0
  7  8  2  0  0  0
  7 26  1  0  0  0
  7 29  1  0  0  0
  8  9  1  0  0  0
  8 22  1  0  0  0
  9 10  1  0  0  0
  9 27  2  0  0  0
 10 11  2  0  0  0
 10 15  1  0  0  0
 11 12  1  0  0  0
 11 91  1  0  0  0
 12 13  2  0  0  0
 12 92  1  0  0  0
 13 14  1  0  0  0
 13 31  1  0  0  0
 14 15  2  0  0  0
 14 93  1  0  0  0
 15 94  1  0  0  0
 16 17  2  0  0  0
 16 21  1  0  0  0
 16 31  1  0  0  0
 17 18  1  0  0  0
 17 95  1  0  0  0
 18 19  2  0  0  0
 18 96  1  0  0  0
 19 20  1  0  0  0
 19 24  1  0  0  0
 20 21  2  0  0  0
 20 97  1  0  0  0
 21 23  1  0  0  0
 22 28  1  0  0  0
 22 32  2  0  0  0
 26 27  1  0  0  0
 28 98  1  0  0  0
 28 99  1  0  0  0
 29100  1  0  0  0
 29101  1  0  0  0
 33 34  1  0  0  0
 33 66  1  0  0  0
 33 70  2  0  0  0
 34 36  1  0  0  0
 34 59  1  0  0  0
 34102  1  0  0  0
 35 44  2  0  0  0
 35 45  1  0  0  0
 35 68  1  0  0  0
 36 56  1  0  0  0
 36103  1  0  0  0
 37 39  1  0  0  0
 37 47  1  0  0  0
 37 66  1  0  0  0
 37104  1  0  0  0
 38 43  2  0  0  0
 38 46  1  0  0  0
 38 47  1  0  0  0
 39 64  1  0  0  0
 39 67  2  0  0  0
 40 52  1  0  0  0
 40 53  2  0  0  0
 40 58  1  0  0  0
 41105  1  0  0  0
 41106  1  0  0  0
 41107  1  0  0  0
 41 48  1  0  0  0
 42 43  1  0  0  0
 42 66  1  0  0  0
 42108  1  0  0  0
 42109  1  0  0  0
 43 44  1  0  0  0
 44110  1  0  0  0
 45 46  2  0  0  0
 45111  1  0  0  0
 46112  1  0  0  0
 47113  1  0  0  0
 47114  1  0  0  0
 48 56  1  0  0  0
 48 65  1  0  0  0
 48115  1  0  0  0
 49 50  1  0  0  0
 49 53  1  0  0  0
 49 64  1  0  0  0
 49116  1  0  0  0
 50 51  1  0  0  0
 50117  1  0  0  0
 50118  1  0  0  0
 51 52  1  0  0  0
 51119  1  0  0  0
 51120  1  0  0  0
 52121  1  0  0  0
 52122  1  0  0  0
 53 54  1  0  0  0
 54 55  2  0  0  0
 54123  1  0  0  0
 55 57  1  0  0  0
 55124  1  0  0  0
 56 69  2  0  0  0
 57 58  2  0  0  0
 57125  1  0  0  0
 58126  1  0  0  0
 59 60  1  0  0  0
 59 61  1  0  0  0
 59 62  1  0  0  0
 60127  1  0  0  0
 60128  1  0  0  0
 60129  1  0  0  0
 61130  1  0  0  0
 61131  1  0  0  0
 61132  1  0  0  0
 62133  1  0  0  0
 62134  1  0  0  0
 62135  1  0  0  0
 63 65  1  0  0  0
 63136  1  0  0  0
 63137  1  0  0  0
 63138  1  0  0  0
 64139  1  0  0  0
 65140  1  0  0  0
 68 77  1  0  0  0
 71 72  1  0  0  0
 71 75  1  0  0  0
 71141  1  0  0  0
 71142  1  0  0  0
 72 78  1  0  0  0
 72143  1  0  0  0
 72144  1  0  0  0
 73 76  1  0  0  0
 73 77  1  0  0  0
 73145  1  0  0  0
 73146  1  0  0  0
 74 76  1  0  0  0
 74 77  1  0  0  0
 74147  1  0  0  0
 74148  1  0  0  0
 75 80  1  0  0  0
 75149  1  0  0  0
 75150  1  0  0  0
 76 81  1  0  0  0
 76151  1  0  0  0
 77152  1  0  0  0
 78 79  1  0  0  0
 78 80  1  0  0  0
 78153  1  0  0  0
 79 81  1  0  0  0
 79154  1  0  0  0
 79155  1  0  0  0
 81156  1  0  0  0
 81157  1  0  0  0
M  CHG  1  81   1
M  ISO  4   1 100  68 101  77 101  80 100
M  END
> <chiral flag>
0

> <version>
0

> <s_m_source_file>
/data/baiqing/PycharmProjects/Reinvent-master-3.2/result/LINK_invent/BTK/process_docking_weight1_custom_sum_contain_oxygen_bond_distance_aromatic_linkinvent_7_9_3/rearranged_h_0183.sdf

> <i_m_source_file_index>
4

> <r_mmod_Potential_Energy-OPLS-2005>
901.816528320312

> <r_mmod_Stretch_Energy-OPLS-2005>
360.267944335938

> <r_mmod_Bend_Energy-OPLS-2005>
400.273712158203

> <r_mmod_Torsional_Energy-OPLS-2005>
385.308349609375

> <r_mmod_Improper_Torsional_Energy-OPLS-2005>
11.8693723678589

> <r_mmod_Van_der_Waal_Energy-OPLS-2005>
113.464477539062

> <r_mmod_Electrostatic_Energy-OPLS-2005>
-175.855560302734

> <r_mmod_Solvation_Energy-OPLS-2005>
-484.630310058594

> <b_mmod_Minimization_Converged-OPLS-2005>
0

> <r_mmod_RMS_Derivative-OPLS-2005>
0.984935641288757

$$$$
4
                    3D
 Structure written by MMmdl.
158168  0  0  1  0            999 V2000
  -30.5956  -14.7913   20.4434 C   0  0  0  0  0  0
  -30.4198  -12.4690   19.5029 C   0  0  0  0  0  0
  -29.5161  -12.5018   18.2514 C   0  0  0  0  0  0
  -28.0352  -12.3310   18.6507 C   0  0  0  0  0  0
  -27.6356  -13.2335   19.8525 C   0  0  2  0  0  0
  -28.6780  -13.1740   20.9876 C   0  0  0  0  0  0
  -25.2486  -13.8190   20.5708 C   0  0  0  0  0  0
  -24.1778  -13.0459   20.9216 C   0  0  0  0  0  0
  -24.6336  -11.6940   20.8791 C   0  0  0  0  0  0
  -23.9012  -10.4319   21.0433 C   0  0  0  0  0  0
  -24.3584   -9.4219   21.9177 C   0  0  0  0  0  0
  -23.6298   -8.2234   22.0749 C   0  0  0  0  0  0
  -22.4270   -8.0264   21.3553 C   0  0  0  0  0  0
  -21.9889   -9.0228   20.4649 C   0  0  0  0  0  0
  -22.7200  -10.2119   20.3062 C   0  0  0  0  0  0
  -21.6855   -6.0721   22.5286 C   0  0  0  0  0  0
  -21.3990   -6.5615   23.8215 C   0  0  0  0  0  0
  -21.3670   -5.6769   24.9171 C   0  0  0  0  0  0
  -21.6051   -4.3032   24.7215 C   0  0  0  0  0  0
  -21.8821   -3.8132   23.4342 C   0  0  0  0  0  0
  -21.9192   -4.6959   22.3394 C   0  0  0  0  0  0
  -22.7766  -13.5219   21.1892 C   0  0  0  0  0  0
  -22.1671   -4.2147   21.0976 F   0  0  0  0  0  0
  -21.5662   -3.4513   25.7722 F   0  0  0  0  0  0
  -29.9670  -13.5583   20.4055 N   0  0  0  0  0  0
  -26.2894  -12.9397   20.3279 N   0  0  0  0  0  0
  -25.9266  -11.6562   20.5779 N   0  0  0  0  0  0
  -22.0400  -12.8248   22.0457 N   0  0  0  0  0  0
  -25.4196  -15.1922   20.4095 N   0  0  0  0  0  0
  -31.7784  -14.8487   20.0893 O   0  0  0  0  0  0
  -21.6649   -6.8867   21.4245 O   0  0  0  0  0  0
  -22.3451  -14.5507   20.6720 O   0  0  0  0  0  0
  -24.6397  -31.8473   23.1887 C   0  0  0  0  0  0
  -25.9187  -32.4724   23.8295 C   0  0  1  0  0  0
  -27.2155  -27.1678   20.1655 C   0  0  0  0  0  0
  -25.5948  -33.8530   24.2191 N   0  0  0  0  0  0
  -23.4435  -30.4643   21.5341 C   0  0  2  0  0  0
  -24.8858  -28.8829   20.1233 C   0  0  0  0  0  0
  -22.7562  -29.4571   22.4886 C   0  0  0  0  0  0
  -18.0301  -28.1402   22.8467 C   0  0  0  0  0  0
  -24.1479  -36.7257   23.2643 C   0  0  0  0  0  0
  -25.9950  -30.7300   21.3803 C   0  0  0  0  0  0
  -26.0657  -29.3426   20.7261 C   0  0  0  0  0  0
  -27.2345  -28.5022   20.7176 C   0  0  0  0  0  0
  -26.0092  -26.7828   19.5454 C   0  0  0  0  0  0
  -24.8690  -27.6150   19.5188 C   0  0  0  0  0  0
  -23.6676  -29.7860   20.1570 C   0  0  0  0  0  0
  -25.4114  -36.3038   24.0309 C   0  0  1  0  0  0
  -20.5900  -28.3721   23.1237 C   0  0  2  0  0  0
  -20.6773  -26.9431   22.5398 C   0  0  0  0  0  0
  -19.5750  -26.6381   21.5206 C   0  0  0  0  0  0
  -18.1931  -26.7943   22.1611 C   0  0  0  0  0  0
  -19.1544  -28.8879   23.2837 C   0  0  0  0  0  0
  -18.9480  -30.1489   23.8861 C   0  0  0  0  0  0
  -17.6484  -30.6598   24.0564 C   0  0  0  0  0  0
  -25.9062  -34.9430   23.5055 C   0  0  0  0  0  0
  -16.5371  -29.9092   23.6334 C   0  0  0  0  0  0
  -16.7286  -28.6509   23.0370 C   0  0  0  0  0  0
  -26.4480  -31.6613   25.0763 C   0  0  0  0  0  0
  -25.3657  -31.3859   26.1460 C   0  0  0  0  0  0
  -27.0343  -30.3010   24.6389 C   0  0  0  0  0  0
  -27.5990  -32.4406   25.7539 C   0  0  0  0  0  0
  -27.5568  -37.1794   24.8460 C   0  0  0  0  0  0
  -21.4237  -29.3046   22.3611 N   0  0  0  0  0  0
  -26.4278  -37.3759   23.9408 N   0  0  0  0  0  0
  -24.7114  -31.0364   22.0890 N   0  0  0  0  0  0
  -23.4194  -28.8129   23.3033 O   0  0  0  0  0  0
  -28.3066  -26.2488   20.1572 O   0  0  0  0  0  0
  -26.5659  -34.8920   22.4635 O   0  0  0  0  0  0
  -23.5516  -32.1338   23.7124 O   0  0  0  0  0  0
  -28.5257  -20.6827   20.2929 C   0  0  0  0  0  0
  -29.5212  -19.7460   20.6484 C   0  0  0  0  0  0
  -30.6134  -20.6721   20.8675 C   0  0  0  0  0  0
  -33.2116  -20.9227   20.5820 C   0  0  0  0  0  0
  -33.0777  -19.4770   20.9531 C   0  0  0  0  0  0
  -29.1568  -16.9320   19.9114 C   0  0  0  0  0  0
  -30.6636  -17.2028   21.2314 C   0  0  0  0  0  0
  -29.4528  -18.1308   20.8955 C   0  0  0  0  0  0
  -32.0224  -20.4779   21.4128 C   0  0  0  0  0  0
  -28.3861  -23.4000   19.7945 C   0  0  0  0  0  0
  -28.2097  -24.7977   20.6705 C   0  0  0  0  0  0
  -30.2852  -21.9629   20.6458 N   0  0  0  0  0  0
  -28.9765  -22.0441   20.3116 N   0  0  0  0  0  0
  -29.9153  -15.9715   20.8024 N   0  0  0  0  0  0
  -31.4738  -12.5562   19.2322 H   0  0  0  0  0  0
  -30.3343  -11.5031   20.0032 H   0  0  0  0  0  0
  -29.8073  -11.7174   17.5519 H   0  0  0  0  0  0
  -29.6512  -13.4522   17.7393 H   0  0  0  0  0  0
  -27.8822  -11.2824   18.9084 H   0  0  0  0  0  0
  -27.3846  -12.5208   17.7969 H   0  0  0  0  0  0
  -27.6227  -14.2546   19.4724 H   0  0  0  0  0  0
  -28.7360  -12.1587   21.3855 H   0  0  0  0  0  0
  -28.4130  -13.8200   21.8236 H   0  0  0  0  0  0
  -25.2726   -9.5710   22.4752 H   0  0  0  0  0  0
  -24.0052   -7.4601   22.7415 H   0  0  0  0  0  0
  -21.0847   -8.8686   19.8941 H   0  0  0  0  0  0
  -22.3632  -10.9636   19.6177 H   0  0  0  0  0  0
  -21.1939   -7.6116   23.9715 H   0  0  0  0  0  0
  -21.1521   -6.0496   25.9085 H   0  0  0  0  0  0
  -22.0600   -2.7601   23.2831 H   0  0  0  0  0  0
  -22.4017  -11.9936   22.4914 H   0  0  0  0  0  0
  -21.0980  -13.1276   22.2591 H   0  0  0  0  0  0
  -24.6604  -15.8514   20.5293 H   0  0  0  0  0  0
  -26.2660  -15.6234   20.0672 H   0  0  0  0  0  0
  -26.7272  -32.5325   23.1029 H   0  0  0  0  0  0
  -25.0073  -33.9652   25.0331 H   0  0  0  0  0  0
  -22.7456  -31.2900   21.3745 H   0  0  0  0  0  0
  -23.3748  -35.9588   23.3320 H   0  0  0  0  0  0
  -24.3541  -36.8889   22.2058 H   0  0  0  0  0  0
  -23.7234  -37.6458   23.6673 H   0  0  0  0  0  0
  -26.1503  -31.4890   20.6112 H   0  0  0  0  0  0
  -26.8621  -30.7761   22.0285 H   0  0  0  0  0  0
  -28.1436  -28.8529   21.1882 H   0  0  0  0  0  0
  -25.9415  -25.8034   19.0927 H   0  0  0  0  0  0
  -23.9605  -27.2559   19.0520 H   0  0  0  0  0  0
  -23.8135  -30.5558   19.3978 H   0  0  0  0  0  0
  -22.7807  -29.2298   19.8433 H   0  0  0  0  0  0
  -25.1304  -36.1869   25.0810 H   0  0  0  0  0  0
  -20.9993  -28.3327   24.1355 H   0  0  0  0  0  0
  -20.5667  -26.2358   23.3617 H   0  0  0  0  0  0
  -21.6654  -26.7441   22.1208 H   0  0  0  0  0  0
  -19.6932  -25.6273   21.1277 H   0  0  0  0  0  0
  -19.6708  -27.3150   20.6702 H   0  0  0  0  0  0
  -17.4209  -26.6683   21.4018 H   0  0  0  0  0  0
  -18.0349  -26.0093   22.9015 H   0  0  0  0  0  0
  -19.7979  -30.7307   24.2219 H   0  0  0  0  0  0
  -17.5048  -31.6286   24.5173 H   0  0  0  0  0  0
  -15.5372  -30.3001   23.7687 H   0  0  0  0  0  0
  -15.8681  -28.0820   22.7124 H   0  0  0  0  0  0
  -24.5794  -30.7246   25.7793 H   0  0  0  0  0  0
  -24.8880  -32.3084   26.4804 H   0  0  0  0  0  0
  -25.7908  -30.9087   27.0298 H   0  0  0  0  0  0
  -26.3014  -29.6768   24.1275 H   0  0  0  0  0  0
  -27.3797  -29.7272   25.4992 H   0  0  0  0  0  0
  -27.8962  -30.4207   23.9814 H   0  0  0  0  0  0
  -27.2554  -33.3700   26.2092 H   0  0  0  0  0  0
  -28.3812  -32.7028   25.0401 H   0  0  0  0  0  0
  -28.0675  -31.8604   26.5502 H   0  0  0  0  0  0
  -28.2585  -38.0085   24.7491 H   0  0  0  0  0  0
  -28.1056  -36.2619   24.6288 H   0  0  0  0  0  0
  -27.2294  -37.1462   25.8865 H   0  0  0  0  0  0
  -20.9463  -29.8744   21.6750 H   0  0  0  0  0  0
  -26.0140  -38.2829   24.1435 H   0  0  0  0  0  0
  -27.4964  -20.4734   20.0324 H   0  0  0  0  0  0
  -33.0509  -21.1541   19.5323 H   0  0  0  0  0  0
  -34.0016  -21.4921   21.0663 H   0  0  0  0  0  0
  -33.7541  -19.0928   21.7156 H   0  0  0  0  0  0
  -32.9401  -18.8252   20.0980 H   0  0  0  0  0  0
  -28.0905  -16.7073   19.8286 H   0  0  0  0  0  0
  -29.5886  -17.0692   18.9163 H   0  0  0  0  0  0
  -31.5354  -17.3819   20.6029 H   0  0  0  0  0  0
  -30.9436  -17.2315   22.2863 H   0  0  0  0  0  0
  -28.7451  -18.0016   21.7192 H   0  0  0  0  0  0
  -32.0536  -20.7764   22.4601 H   0  0  0  0  0  0
  -29.0180  -23.6598   18.9487 H   0  0  0  0  0  0
  -27.4176  -23.1611   19.3527 H   0  0  0  0  0  0
  -28.9795  -24.7438   21.4400 H   0  0  0  0  0  0
  -27.2765  -24.7129   21.2273 H   0  0  0  0  0  0
  1 25  1  0  0  0
  1 30  2  0  0  0
  1 84  1  0  0  0
  2  3  1  0  0  0
  2 25  1  0  0  0
  2 85  1  0  0  0
  2 86  1  0  0  0
  3  4  1  0  0  0
  3 87  1  0  0  0
  3 88  1  0  0  0
  4  5  1  0  0  0
  4 89  1  0  0  0
  4 90  1  0  0  0
  5  6  1  0  0  0
  5 26  1  0  0  0
  5 91  1  0  0  0
  6 25  1  0  0  0
  6 92  1  0  0  0
  6 93  1  0  0  0
  7  8  2  0  0  0
  7 26  1  0  0  0
  7 29  1  0  0  0
  8  9  1  0  0  0
  8 22  1  0  0  0
  9 10  1  0  0  0
  9 27  2  0  0  0
 10 11  2  0  0  0
 10 15  1  0  0  0
 11 12  1  0  0  0
 11 94  1  0  0  0
 12 13  2  0  0  0
 12 95  1  0  0  0
 13 14  1  0  0  0
 13 31  1  0  0  0
 14 15  2  0  0  0
 14 96  1  0  0  0
 15 97  1  0  0  0
 16 17  2  0  0  0
 16 21  1  0  0  0
 16 31  1  0  0  0
 17 18  1  0  0  0
 17 98  1  0  0  0
 18 19  2  0  0  0
 18 99  1  0  0  0
 19 20  1  0  0  0
 19 24  1  0  0  0
 20 21  2  0  0  0
 20100  1  0  0  0
 21 23  1  0  0  0
 22 28  1  0  0  0
 22 32  2  0  0  0
 26 27  1  0  0  0
 28101  1  0  0  0
 28102  1  0  0  0
 29103  1  0  0  0
 29104  1  0  0  0
 33 34  1  0  0  0
 33 66  1  0  0  0
 33 70  2  0  0  0
 34 36  1  0  0  0
 34 59  1  0  0  0
 34105  1  0  0  0
 35 44  2  0  0  0
 35 45  1  0  0  0
 35 68  1  0  0  0
 36 56  1  0  0  0
 36106  1  0  0  0
 37 39  1  0  0  0
 37 47  1  0  0  0
 37 66  1  0  0  0
 37107  1  0  0  0
 38 43  2  0  0  0
 38 46  1  0  0  0
 38 47  1  0  0  0
 39 64  1  0  0  0
 39 67  2  0  0  0
 40 52  1  0  0  0
 40 53  2  0  0  0
 40 58  1  0  0  0
 41108  1  0  0  0
 41109  1  0  0  0
 41110  1  0  0  0
 41 48  1  0  0  0
 42 43  1  0  0  0
 42 66  1  0  0  0
 42111  1  0  0  0
 42112  1  0  0  0
 43 44  1  0  0  0
 44113  1  0  0  0
 45 46  2  0  0  0
 45114  1  0  0  0
 46115  1  0  0  0
 47116  1  0  0  0
 47117  1  0  0  0
 48 56  1  0  0  0
 48 65  1  0  0  0
 48118  1  0  0  0
 49 50  1  0  0  0
 49 53  1  0  0  0
 49 64  1  0  0  0
 49119  1  0  0  0
 50 51  1  0  0  0
 50120  1  0  0  0
 50121  1  0  0  0
 51 52  1  0  0  0
 51122  1  0  0  0
 51123  1  0  0  0
 52124  1  0  0  0
 52125  1  0  0  0
 53 54  1  0  0  0
 54 55  2  0  0  0
 54126  1  0  0  0
 55 57  1  0  0  0
 55127  1  0  0  0
 56 69  2  0  0  0
 57 58  2  0  0  0
 57128  1  0  0  0
 58129  1  0  0  0
 59 60  1  0  0  0
 59 61  1  0  0  0
 59 62  1  0  0  0
 60130  1  0  0  0
 60131  1  0  0  0
 60132  1  0  0  0
 61133  1  0  0  0
 61134  1  0  0  0
 61135  1  0  0  0
 62136  1  0  0  0
 62137  1  0  0  0
 62138  1  0  0  0
 63 65  1  0  0  0
 63139  1  0  0  0
 63140  1  0  0  0
 63141  1  0  0  0
 64142  1  0  0  0
 65143  1  0  0  0
 68 81  1  0  0  0
 71 72  2  0  0  0
 71 83  1  0  0  0
 71144  1  0  0  0
 72 73  1  0  0  0
 72 78  1  0  0  0
 73 82  2  0  0  0
 73 79  1  0  0  0
 74 75  1  0  0  0
 74 79  1  0  0  0
 74145  1  0  0  0
 74146  1  0  0  0
 75 79  1  0  0  0
 75147  1  0  0  0
 75148  1  0  0  0
 76 78  1  0  0  0
 76 84  1  0  0  0
 76149  1  0  0  0
 76150  1  0  0  0
 77 78  1  0  0  0
 77 84  1  0  0  0
 77151  1  0  0  0
 77152  1  0  0  0
 78153  1  0  0  0
 79154  1  0  0  0
 80 81  1  0  0  0
 80 83  1  0  0  0
 80155  1  0  0  0
 80156  1  0  0  0
 81157  1  0  0  0
 81158  1  0  0  0
 82 83  1  0  0  0
M  ISO  4   1 100  68 101  81 101  84 100
M  END
> <chiral flag>
0

> <version>
0

> <s_m_source_file>
/data/baiqing/PycharmProjects/Reinvent-master-3.2/result/LINK_invent/BTK/process_docking_weight1_custom_sum_contain_oxygen_bond_distance_aromatic_linkinvent_7_9_3/rearranged_h_0183.sdf

> <i_m_source_file_index>
5

> <r_mmod_Potential_Energy-OPLS-2005>
393.143890380859

> <r_mmod_Stretch_Energy-OPLS-2005>
175.140075683594

> <r_mmod_Bend_Energy-OPLS-2005>
245.750289916992

> <r_mmod_Torsional_Energy-OPLS-2005>
303.789703369141

> <r_mmod_Improper_Torsional_Energy-OPLS-2005>
11.6672630310059

> <r_mmod_Van_der_Waal_Energy-OPLS-2005>
107.784645080566

> <r_mmod_Electrostatic_Energy-OPLS-2005>
-349.376831054688

> <r_mmod_Solvation_Energy-OPLS-2005>
-223.162796020508

> <b_mmod_Minimization_Converged-OPLS-2005>
0

> <r_mmod_RMS_Derivative-OPLS-2005>
6.06797361373901

$$$$
5
                    3D
 Structure written by MMmdl.
155164  0  0  1  0            999 V2000
  -30.5334  -14.9804   20.3732 C   0  0  0  0  0  0
  -30.4410  -12.6021   19.5009 C   0  0  0  0  0  0
  -29.5297  -12.5433   18.2539 C   0  0  0  0  0  0
  -28.0546  -12.3486   18.6561 C   0  0  0  0  0  0
  -27.6318  -13.2614   19.8394 C   0  0  2  0  0  0
  -28.6763  -13.2891   20.9758 C   0  0  0  0  0  0
  -25.2457  -13.8223   20.5692 C   0  0  0  0  0  0
  -24.1806  -13.0438   20.9231 C   0  0  0  0  0  0
  -24.6446  -11.6944   20.8747 C   0  0  0  0  0  0
  -23.9137  -10.4315   21.0414 C   0  0  0  0  0  0
  -24.3674   -9.4200   21.9195 C   0  0  0  0  0  0
  -23.6334   -8.2244   22.0756 C   0  0  0  0  0  0
  -22.4306   -8.0283   21.3546 C   0  0  0  0  0  0
  -21.9953   -9.0262   20.4646 C   0  0  0  0  0  0
  -22.7298  -10.2137   20.3065 C   0  0  0  0  0  0
  -21.6850   -6.0751   22.5301 C   0  0  0  0  0  0
  -21.3996   -6.5646   23.8227 C   0  0  0  0  0  0
  -21.3667   -5.6791   24.9187 C   0  0  0  0  0  0
  -21.6070   -4.3061   24.7227 C   0  0  0  0  0  0
  -21.8815   -3.8151   23.4344 C   0  0  0  0  0  0
  -21.9183   -4.6983   22.3404 C   0  0  0  0  0  0
  -22.7822  -13.5199   21.1863 C   0  0  0  0  0  0
  -22.1655   -4.2188   21.0990 F   0  0  0  0  0  0
  -21.5648   -3.4541   25.7730 F   0  0  0  0  0  0
  -29.9504  -13.7098   20.3743 N   0  0  0  0  0  0
  -26.2922  -12.9519   20.3245 N   0  0  0  0  0  0
  -25.9388  -11.6630   20.5715 N   0  0  0  0  0  0
  -22.0486  -12.8189   22.0430 N   0  0  0  0  0  0
  -25.4061  -15.1965   20.4104 N   0  0  0  0  0  0
  -31.7329  -15.0350   20.0863 O   0  0  0  0  0  0
  -21.6643   -6.8881   21.4254 O   0  0  0  0  0  0
  -22.3533  -14.5524   20.6713 O   0  0  0  0  0  0
  -24.6512  -31.8417   23.1842 C   0  0  0  0  0  0
  -25.9259  -32.4671   23.8271 C   0  0  1  0  0  0
  -27.2188  -27.0868   20.1571 C   0  0  0  0  0  0
  -25.5971  -33.8483   24.2170 N   0  0  0  0  0  0
  -23.4568  -30.4585   21.5327 C   0  0  2  0  0  0
  -24.9046  -28.8759   20.1178 C   0  0  0  0  0  0
  -22.7637  -29.4556   22.4866 C   0  0  0  0  0  0
  -18.0326  -28.1421   22.8475 C   0  0  0  0  0  0
  -24.1503  -36.7239   23.2633 C   0  0  0  0  0  0
  -26.0177  -30.6916   21.3955 C   0  0  0  0  0  0
  -26.0855  -29.3008   20.7367 C   0  0  0  0  0  0
  -27.2454  -28.4293   20.7307 C   0  0  0  0  0  0
  -26.0027  -26.7723   19.5067 C   0  0  0  0  0  0
  -24.8787  -27.6282   19.4832 C   0  0  0  0  0  0
  -23.6871  -29.7885   20.1541 C   0  0  0  0  0  0
  -25.4156  -36.3029   24.0298 C   0  0  1  0  0  0
  -20.5940  -28.3777   23.1229 C   0  0  2  0  0  0
  -20.6821  -26.9469   22.5415 C   0  0  0  0  0  0
  -19.5795  -26.6385   21.5231 C   0  0  0  0  0  0
  -18.1969  -26.7955   22.1617 C   0  0  0  0  0  0
  -19.1576  -28.8922   23.2826 C   0  0  0  0  0  0
  -18.9479  -30.1502   23.8876 C   0  0  0  0  0  0
  -17.6471  -30.6609   24.0575 C   0  0  0  0  0  0
  -25.9104  -34.9396   23.5050 C   0  0  0  0  0  0
  -16.5367  -29.9096   23.6350 C   0  0  0  0  0  0
  -16.7308  -28.6518   23.0366 C   0  0  0  0  0  0
  -26.4520  -31.6580   25.0770 C   0  0  0  0  0  0
  -25.3664  -31.3802   26.1447 C   0  0  0  0  0  0
  -27.0384  -30.2968   24.6424 C   0  0  0  0  0  0
  -27.6051  -32.4355   25.7543 C   0  0  0  0  0  0
  -27.5581  -37.1808   24.8473 C   0  0  0  0  0  0
  -21.4310  -29.3078   22.3584 N   0  0  0  0  0  0
  -26.4309  -37.3747   23.9373 N   0  0  0  0  0  0
  -24.7281  -31.0257   22.0886 N   0  0  0  0  0  0
  -23.4259  -28.8099   23.3049 O   0  0  0  0  0  0
  -28.2681  -26.0805   20.1958 O   0  0  0  0  0  0
  -26.5701  -34.8873   22.4632 O   0  0  0  0  0  0
  -23.5629  -32.1255   23.7063 O   0  0  0  0  0  0
  -30.3101  -23.5258   19.6184 C   0  0  0  0  0  0
  -29.6545  -20.7956   20.0760 C   0  0  0  0  0  0
  -29.0161  -23.2589   20.0969 C   0  0  0  0  0  0
  -30.8986  -21.2333   19.5227 C   0  0  0  0  0  0
  -28.7605  -18.3095   19.3792 C   0  0  0  0  0  0
  -29.3591  -19.1824   20.4313 C   0  0  1  0  0  0
  -29.9966  -17.6566   19.9918 C   0  0  1  0  0  0
  -31.8810  -19.9538   17.5431 C   0  0  0  0  0  0
  -31.9933  -20.2869   19.0438 C   0  0  0  0  0  0
  -27.9521  -24.5323   20.2145 C   0  0  0  0  0  0
  -31.2090  -22.5463   19.3252 N   0  0  0  0  0  0
  -28.7247  -21.8656   20.3295 N   0  0  0  0  0  0
  -29.7467  -16.1735   20.4599 N   0  0  0  0  0  0
  -31.4779  -12.7460   19.1944 H   0  0  0  0  0  0
  -30.4218  -11.6521   20.0351 H   0  0  0  0  0  0
  -29.8497  -11.7377   17.5906 H   0  0  0  0  0  0
  -29.6356  -13.4669   17.6808 H   0  0  0  0  0  0
  -27.9258  -11.2999   18.9282 H   0  0  0  0  0  0
  -27.4061  -12.5238   17.7989 H   0  0  0  0  0  0
  -27.5936  -14.2724   19.4320 H   0  0  0  0  0  0
  -28.7674  -12.3106   21.4532 H   0  0  0  0  0  0
  -28.3735  -13.9906   21.7535 H   0  0  0  0  0  0
  -25.2826   -9.5674   22.4773 H   0  0  0  0  0  0
  -24.0042   -7.4645   22.7476 H   0  0  0  0  0  0
  -21.0891   -8.8774   19.8974 H   0  0  0  0  0  0
  -22.3749  -10.9672   19.6175 H   0  0  0  0  0  0
  -21.1962   -7.6164   23.9733 H   0  0  0  0  0  0
  -21.1512   -6.0532   25.9092 H   0  0  0  0  0  0
  -22.0583   -2.7635   23.2827 H   0  0  0  0  0  0
  -22.4057  -11.9830   22.4849 H   0  0  0  0  0  0
  -21.1110  -13.1194   22.2648 H   0  0  0  0  0  0
  -24.6231  -15.8285   20.5247 H   0  0  0  0  0  0
  -26.2240  -15.6428   20.0287 H   0  0  0  0  0  0
  -26.7347  -32.5234   23.1000 H   0  0  0  0  0  0
  -25.0167  -33.9633   25.0345 H   0  0  0  0  0  0
  -22.7620  -31.2868   21.3822 H   0  0  0  0  0  0
  -23.3747  -35.9602   23.3390 H   0  0  0  0  0  0
  -24.3544  -36.8780   22.2029 H   0  0  0  0  0  0
  -23.7300  -37.6467   23.6626 H   0  0  0  0  0  0
  -26.1995  -31.4396   20.6261 H   0  0  0  0  0  0
  -26.8754  -30.7309   22.0510 H   0  0  0  0  0  0
  -28.1459  -28.7685   21.2222 H   0  0  0  0  0  0
  -25.8746  -25.8209   19.0163 H   0  0  0  0  0  0
  -23.9787  -27.3017   18.9794 H   0  0  0  0  0  0
  -23.8392  -30.5617   19.4009 H   0  0  0  0  0  0
  -22.7975  -29.2381   19.8396 H   0  0  0  0  0  0
  -25.1355  -36.1850   25.0800 H   0  0  0  0  0  0
  -21.0003  -28.3362   24.1366 H   0  0  0  0  0  0
  -20.5768  -26.2391   23.3648 H   0  0  0  0  0  0
  -21.6684  -26.7525   22.1178 H   0  0  0  0  0  0
  -19.6972  -25.6274   21.1315 H   0  0  0  0  0  0
  -19.6719  -27.3165   20.6738 H   0  0  0  0  0  0
  -17.4252  -26.6720   21.3999 H   0  0  0  0  0  0
  -18.0343  -26.0091   22.9013 H   0  0  0  0  0  0
  -19.7956  -30.7326   24.2223 H   0  0  0  0  0  0
  -17.5038  -31.6285   24.5172 H   0  0  0  0  0  0
  -15.5379  -30.3005   23.7686 H   0  0  0  0  0  0
  -15.8702  -28.0828   22.7129 H   0  0  0  0  0  0
  -24.5856  -30.7155   25.7721 H   0  0  0  0  0  0
  -24.8838  -32.3011   26.4772 H   0  0  0  0  0  0
  -25.7892  -30.9008   27.0297 H   0  0  0  0  0  0
  -26.3034  -29.6696   24.1397 H   0  0  0  0  0  0
  -27.3905  -29.7286   25.5033 H   0  0  0  0  0  0
  -27.8972  -30.4158   23.9823 H   0  0  0  0  0  0
  -27.2661  -33.3674   26.2078 H   0  0  0  0  0  0
  -28.3874  -32.6906   25.0384 H   0  0  0  0  0  0
  -28.0732  -31.8538   26.5493 H   0  0  0  0  0  0
  -28.2641  -38.0053   24.7466 H   0  0  0  0  0  0
  -28.1032  -36.2600   24.6394 H   0  0  0  0  0  0
  -27.2292  -37.1564   25.8867 H   0  0  0  0  0  0
  -20.9572  -29.8713   21.6635 H   0  0  0  0  0  0
  -26.0174  -38.2816   24.1327 H   0  0  0  0  0  0
  -30.6231  -24.5429   19.4336 H   0  0  0  0  0  0
  -28.8607  -18.6521   18.3497 H   0  0  0  0  0  0
  -27.7836  -17.8907   19.6121 H   0  0  0  0  0  0
  -28.8750  -19.1829   21.4063 H   0  0  0  0  0  0
  -30.8521  -17.6923   19.3234 H   0  0  0  0  0  0
  -32.7065  -19.3171   17.2158 H   0  0  0  0  0  0
  -31.9071  -20.8584   16.9306 H   0  0  0  0  0  0
  -30.9477  -19.4407   17.3072 H   0  0  0  0  0  0
  -32.0274  -19.3874   19.6514 H   0  0  0  0  0  0
  -32.9624  -20.7582   19.2141 H   0  0  0  0  0  0
  -27.3601  -24.3477   21.1115 H   0  0  0  0  0  0
  -27.2828  -24.3300   19.3828 H   0  0  0  0  0  0
  -28.7926  -15.9863   20.7271 H   0  0  0  0  0  0
  1 25  1  0  0  0
  1 30  2  0  0  0
  1 83  1  0  0  0
  2  3  1  0  0  0
  2 25  1  0  0  0
  2 84  1  0  0  0
  2 85  1  0  0  0
  3  4  1  0  0  0
  3 86  1  0  0  0
  3 87  1  0  0  0
  4  5  1  0  0  0
  4 88  1  0  0  0
  4 89  1  0  0  0
  5  6  1  0  0  0
  5 26  1  0  0  0
  5 90  1  0  0  0
  6 25  1  0  0  0
  6 91  1  0  0  0
  6 92  1  0  0  0
  7  8  2  0  0  0
  7 26  1  0  0  0
  7 29  1  0  0  0
  8  9  1  0  0  0
  8 22  1  0  0  0
  9 10  1  0  0  0
  9 27  2  0  0  0
 10 11  2  0  0  0
 10 15  1  0  0  0
 11 12  1  0  0  0
 11 93  1  0  0  0
 12 13  2  0  0  0
 12 94  1  0  0  0
 13 14  1  0  0  0
 13 31  1  0  0  0
 14 15  2  0  0  0
 14 95  1  0  0  0
 15 96  1  0  0  0
 16 17  2  0  0  0
 16 21  1  0  0  0
 16 31  1  0  0  0
 17 18  1  0  0  0
 17 97  1  0  0  0
 18 19  2  0  0  0
 18 98  1  0  0  0
 19 20  1  0  0  0
 19 24  1  0  0  0
 20 21  2  0  0  0
 20 99  1  0  0  0
 21 23  1  0  0  0
 22 28  1  0  0  0
 22 32  2  0  0  0
 26 27  1  0  0  0
 28100  1  0  0  0
 28101  1  0  0  0
 29102  1  0  0  0
 29103  1  0  0  0
 33 34  1  0  0  0
 33 66  1  0  0  0
 33 70  2  0  0  0
 34 36  1  0  0  0
 34 59  1  0  0  0
 34104  1  0  0  0
 35 44  2  0  0  0
 35 45  1  0  0  0
 35 68  1  0  0  0
 36 56  1  0  0  0
 36105  1  0  0  0
 37 39  1  0  0  0
 37 47  1  0  0  0
 37 66  1  0  0  0
 37106  1  0  0  0
 38 43  2  0  0  0
 38 46  1  0  0  0
 38 47  1  0  0  0
 39 64  1  0  0  0
 39 67  2  0  0  0
 40 52  1  0  0  0
 40 53  2  0  0  0
 40 58  1  0  0  0
 41107  1  0  0  0
 41108  1  0  0  0
 41109  1  0  0  0
 41 48  1  0  0  0
 42 43  1  0  0  0
 42 66  1  0  0  0
 42110  1  0  0  0
 42111  1  0  0  0
 43 44  1  0  0  0
 44112  1  0  0  0
 45 46  2  0  0  0
 45113  1  0  0  0
 46114  1  0  0  0
 47115  1  0  0  0
 47116  1  0  0  0
 48 56  1  0  0  0
 48 65  1  0  0  0
 48117  1  0  0  0
 49 50  1  0  0  0
 49 53  1  0  0  0
 49 64  1  0  0  0
 49118  1  0  0  0
 50 51  1  0  0  0
 50119  1  0  0  0
 50120  1  0  0  0
 51 52  1  0  0  0
 51121  1  0  0  0
 51122  1  0  0  0
 52123  1  0  0  0
 52124  1  0  0  0
 53 54  1  0  0  0
 54 55  2  0  0  0
 54125  1  0  0  0
 55 57  1  0  0  0
 55126  1  0  0  0
 56 69  2  0  0  0
 57 58  2  0  0  0
 57127  1  0  0  0
 58128  1  0  0  0
 59 60  1  0  0  0
 59 61  1  0  0  0
 59 62  1  0  0  0
 60129  1  0  0  0
 60130  1  0  0  0
 60131  1  0  0  0
 61132  1  0  0  0
 61133  1  0  0  0
 61134  1  0  0  0
 62135  1  0  0  0
 62136  1  0  0  0
 62137  1  0  0  0
 63 65  1  0  0  0
 63138  1  0  0  0
 63139  1  0  0  0
 63140  1  0  0  0
 64141  1  0  0  0
 65142  1  0  0  0
 68 80  1  0  0  0
 71 73  2  0  0  0
 71 81  1  0  0  0
 71143  1  0  0  0
 72 74  1  0  0  0
 72 82  2  0  0  0
 72 76  1  0  0  0
 73 80  1  0  0  0
 73 82  1  0  0  0
 74 79  1  0  0  0
 74 81  2  0  0  0
 75 76  1  0  0  0
 75 77  1  0  0  0
 75144  1  0  0  0
 75145  1  0  0  0
 76 77  1  0  0  0
 76146  1  0  0  0
 77 83  1  0  0  0
 77147  1  0  0  0
 78 79  1  0  0  0
 78148  1  0  0  0
 78149  1  0  0  0
 78150  1  0  0  0
 79151  1  0  0  0
 79152  1  0  0  0
 80153  1  0  0  0
 80154  1  0  0  0
 83155  1  0  0  0
M  ISO  4   1 100  68 101  80 101  83 100
M  END
> <chiral flag>
0

> <version>
0

> <s_m_source_file>
/data/baiqing/PycharmProjects/Reinvent-master-3.2/result/LINK_invent/BTK/process_docking_weight1_custom_sum_contain_oxygen_bond_distance_aromatic_linkinvent_7_9_3/rearranged_h_0183.sdf

> <i_m_source_file_index>
6

> <r_mmod_Potential_Energy-OPLS-2005>
704.430908203125

> <r_mmod_Stretch_Energy-OPLS-2005>
326.846954345703

> <r_mmod_Bend_Energy-OPLS-2005>
272.713073730469

> <r_mmod_Torsional_Energy-OPLS-2005>
256.5810546875

> <r_mmod_Improper_Torsional_Energy-OPLS-2005>
6.08254289627075

> <r_mmod_Van_der_Waal_Energy-OPLS-2005>
128.809326171875

> <r_mmod_Electrostatic_Energy-OPLS-2005>
-280.312530517578

> <r_mmod_Solvation_Energy-OPLS-2005>
-229.699356079102

> <b_mmod_Minimization_Converged-OPLS-2005>
0

> <r_mmod_RMS_Derivative-OPLS-2005>
6.03655338287354

$$$$
6
                    3D
 Structure written by MMmdl.
156165  0  0  1  0            999 V2000
  -30.6291  -14.6743   20.4742 C   0  0  0  0  0  0
  -30.4299  -12.4095   19.4643 C   0  0  0  0  0  0
  -29.5031  -12.4895   18.2322 C   0  0  0  0  0  0
  -28.0288  -12.3291   18.6498 C   0  0  0  0  0  0
  -27.6451  -13.2235   19.8595 C   0  0  2  0  0  0
  -28.6891  -13.1293   20.9924 C   0  0  0  0  0  0
  -25.2507  -13.8177   20.5681 C   0  0  0  0  0  0
  -24.1793  -13.0434   20.9206 C   0  0  0  0  0  0
  -24.6375  -11.6914   20.8753 C   0  0  0  0  0  0
  -23.9053  -10.4298   21.0402 C   0  0  0  0  0  0
  -24.3603   -9.4213   21.9180 C   0  0  0  0  0  0
  -23.6283   -8.2246   22.0740 C   0  0  0  0  0  0
  -22.4269   -8.0278   21.3530 C   0  0  0  0  0  0
  -21.9912   -9.0248   20.4630 C   0  0  0  0  0  0
  -22.7227  -10.2138   20.3047 C   0  0  0  0  0  0
  -21.6855   -6.0735   22.5268 C   0  0  0  0  0  0
  -21.4013   -6.5639   23.8200 C   0  0  0  0  0  0
  -21.3666   -5.6790   24.9166 C   0  0  0  0  0  0
  -21.6041   -4.3048   24.7216 C   0  0  0  0  0  0
  -21.8817   -3.8147   23.4332 C   0  0  0  0  0  0
  -21.9194   -4.6966   22.3390 C   0  0  0  0  0  0
  -22.7819  -13.5215   21.1874 C   0  0  0  0  0  0
  -22.1661   -4.2152   21.0965 F   0  0  0  0  0  0
  -21.5639   -3.4533   25.7729 F   0  0  0  0  0  0
  -29.9962  -13.4586   20.4096 N   0  0  0  0  0  0
  -26.2939  -12.9375   20.3334 N   0  0  0  0  0  0
  -25.9305  -11.6526   20.5790 N   0  0  0  0  0  0
  -22.0473  -12.8205   22.0438 N   0  0  0  0  0  0
  -25.4184  -15.1890   20.4018 N   0  0  0  0  0  0
  -31.8189  -14.7814   20.1644 O   0  0  0  0  0  0
  -21.6629   -6.8878   21.4229 O   0  0  0  0  0  0
  -22.3508  -14.5522   20.6730 O   0  0  0  0  0  0
  -24.6281  -31.8585   23.1999 C   0  0  0  0  0  0
  -25.9140  -32.4754   23.8330 C   0  0  1  0  0  0
  -27.2097  -27.2850   20.1182 C   0  0  0  0  0  0
  -25.5945  -33.8556   24.2262 N   0  0  0  0  0  0
  -23.4221  -30.4815   21.5436 C   0  0  2  0  0  0
  -24.8652  -28.9371   20.1038 C   0  0  0  0  0  0
  -22.7476  -29.4587   22.4896 C   0  0  0  0  0  0
  -18.0276  -28.1374   22.8462 C   0  0  0  0  0  0
  -24.1506  -36.7295   23.2638 C   0  0  0  0  0  0
  -25.9649  -30.7769   21.3775 C   0  0  0  0  0  0
  -26.0356  -29.4034   20.7146 C   0  0  0  0  0  0
  -27.2105  -28.5873   20.7156 C   0  0  0  0  0  0
  -26.0172  -26.8812   19.4758 C   0  0  0  0  0  0
  -24.8589  -27.6817   19.4758 C   0  0  0  0  0  0
  -23.6360  -29.8248   20.1551 C   0  0  0  0  0  0
  -25.4118  -36.3063   24.0325 C   0  0  1  0  0  0
  -20.5878  -28.3691   23.1268 C   0  0  2  0  0  0
  -20.6791  -26.9418   22.5407 C   0  0  0  0  0  0
  -19.5764  -26.6378   21.5200 C   0  0  0  0  0  0
  -18.1937  -26.7922   22.1603 C   0  0  0  0  0  0
  -19.1532  -28.8845   23.2869 C   0  0  0  0  0  0
  -18.9472  -30.1443   23.8898 C   0  0  0  0  0  0
  -17.6476  -30.6594   24.0548 C   0  0  0  0  0  0
  -25.9048  -34.9434   23.5085 C   0  0  0  0  0  0
  -16.5360  -29.9092   23.6330 C   0  0  0  0  0  0
  -16.7274  -28.6496   23.0346 C   0  0  0  0  0  0
  -26.4521  -31.6567   25.0708 C   0  0  0  0  0  0
  -25.3742  -31.3734   26.1428 C   0  0  0  0  0  0
  -27.0364  -30.2971   24.6182 C   0  0  0  0  0  0
  -27.6069  -32.4301   25.7494 C   0  0  0  0  0  0
  -27.5585  -37.1797   24.8460 C   0  0  0  0  0  0
  -21.4180  -29.3049   22.3670 N   0  0  0  0  0  0
  -26.4313  -37.3743   23.9388 N   0  0  0  0  0  0
  -24.6897  -31.0562   22.0978 N   0  0  0  0  0  0
  -23.4204  -28.8084   23.2942 O   0  0  0  0  0  0
  -28.3131  -26.4101   20.1803 O   0  0  0  0  0  0
  -26.5636  -34.8920   22.4662 O   0  0  0  0  0  0
  -23.5446  -32.1427   23.7309 O   0  0  0  0  0  0
  -30.0956  -21.6302   19.6432 C   0  0  0  0  0  0
  -30.1618  -20.2058   19.6774 C   0  0  0  0  0  0
  -29.1570  -22.3562   20.4298 C   0  0  0  0  0  0
  -29.2911  -19.4610   20.5080 C   0  0  0  0  0  0
  -28.3062  -21.5277   21.2154 C   0  0  0  0  0  0
  -29.7643  -16.8452   19.5430 C   0  0  0  0  0  0
  -30.1373  -16.9579   21.5205 C   0  0  0  0  0  0
  -29.2851  -17.8705   20.5992 C   0  0  0  0  0  0
  -27.2305  -22.1339   22.0952 C   0  0  0  0  0  0
  -29.2358  -23.9457   20.5415 C   0  0  0  0  0  0
  -28.0909  -24.9393   20.0289 C   0  0  0  0  0  0
  -28.3798  -20.1554   21.2504 N   0  0  0  0  0  0
  -29.8388  -15.8009   20.6149 N   0  0  0  0  0  0
  -31.4708  -12.5311   19.1603 H   0  0  0  0  0  0
  -30.3665  -11.4274   19.9354 H   0  0  0  0  0  0
  -29.7706  -11.7186   17.5086 H   0  0  0  0  0  0
  -29.6384  -13.4472   17.7260 H   0  0  0  0  0  0
  -27.8783  -11.2798   18.9095 H   0  0  0  0  0  0
  -27.3684  -12.5293   17.8055 H   0  0  0  0  0  0
  -27.6528  -14.2510   19.4958 H   0  0  0  0  0  0
  -28.7029  -12.1275   21.4253 H   0  0  0  0  0  0
  -28.4367  -13.8127   21.8054 H   0  0  0  0  0  0
  -25.2745   -9.5705   22.4757 H   0  0  0  0  0  0
  -23.9997   -7.4643   22.7460 H   0  0  0  0  0  0
  -21.0853   -8.8758   19.8926 H   0  0  0  0  0  0
  -22.3670  -10.9675   19.6163 H   0  0  0  0  0  0
  -21.1990   -7.6145   23.9710 H   0  0  0  0  0  0
  -21.1497   -6.0515   25.9073 H   0  0  0  0  0  0
  -22.0588   -2.7610   23.2820 H   0  0  0  0  0  0
  -22.4108  -11.9880   22.4839 H   0  0  0  0  0  0
  -21.1076  -13.1208   22.2620 H   0  0  0  0  0  0
  -24.6443  -15.8387   20.4855 H   0  0  0  0  0  0
  -26.2656  -15.6228   20.0573 H   0  0  0  0  0  0
  -26.7208  -32.5417   23.1078 H   0  0  0  0  0  0
  -25.0092  -33.9699   25.0401 H   0  0  0  0  0  0
  -22.7177  -31.3038   21.4051 H   0  0  0  0  0  0
  -23.3762  -35.9636   23.3284 H   0  0  0  0  0  0
  -24.3607  -36.8941   22.2057 H   0  0  0  0  0  0
  -23.7270  -37.6491   23.6684 H   0  0  0  0  0  0
  -26.1002  -31.5431   20.6122 H   0  0  0  0  0  0
  -26.8431  -30.8196   22.0095 H   0  0  0  0  0  0
  -28.1037  -28.9324   21.2191 H   0  0  0  0  0  0
  -25.9509  -25.9251   18.9781 H   0  0  0  0  0  0
  -23.9618  -27.3191   18.9920 H   0  0  0  0  0  0
  -23.7620  -30.6089   19.4060 H   0  0  0  0  0  0
  -22.7536  -29.2614   19.8489 H   0  0  0  0  0  0
  -25.1294  -36.1932   25.0823 H   0  0  0  0  0  0
  -20.9960  -28.3303   24.1388 H   0  0  0  0  0  0
  -20.5704  -26.2309   23.3614 H   0  0  0  0  0  0
  -21.6656  -26.7482   22.1176 H   0  0  0  0  0  0
  -19.6968  -25.6279   21.1260 H   0  0  0  0  0  0
  -19.6727  -27.3181   20.6719 H   0  0  0  0  0  0
  -17.4209  -26.6662   21.4002 H   0  0  0  0  0  0
  -18.0326  -26.0077   22.9010 H   0  0  0  0  0  0
  -19.7963  -30.7220   24.2301 H   0  0  0  0  0  0
  -17.5051  -31.6284   24.5137 H   0  0  0  0  0  0
  -15.5362  -30.2995   23.7656 H   0  0  0  0  0  0
  -15.8664  -28.0828   22.7060 H   0  0  0  0  0  0
  -24.5938  -30.7051   25.7782 H   0  0  0  0  0  0
  -24.8912  -32.2914   26.4791 H   0  0  0  0  0  0
  -25.8062  -30.8983   27.0240 H   0  0  0  0  0  0
  -26.2944  -29.6690   24.1234 H   0  0  0  0  0  0
  -27.4073  -29.7263   25.4705 H   0  0  0  0  0  0
  -27.8815  -30.4227   23.9399 H   0  0  0  0  0  0
  -27.2680  -33.3639   26.1989 H   0  0  0  0  0  0
  -28.3923  -32.6781   25.0345 H   0  0  0  0  0  0
  -28.0663  -31.8460   26.5474 H   0  0  0  0  0  0
  -28.2573  -38.0121   24.7477 H   0  0  0  0  0  0
  -28.1112  -36.2633   24.6314 H   0  0  0  0  0  0
  -27.2296  -37.1449   25.8868 H   0  0  0  0  0  0
  -20.9352  -29.8828   21.6924 H   0  0  0  0  0  0
  -26.0204  -38.2827   24.1389 H   0  0  0  0  0  0
  -30.8035  -22.1651   19.0255 H   0  0  0  0  0  0
  -30.8985  -19.6943   19.0718 H   0  0  0  0  0  0
  -30.7309  -17.0944   19.0978 H   0  0  0  0  0  0
  -29.0319  -16.6481   18.7599 H   0  0  0  0  0  0
  -29.7408  -16.8706   22.5326 H   0  0  0  0  0  0
  -31.1942  -17.2347   21.5511 H   0  0  0  0  0  0
  -28.2372  -17.6394   20.8037 H   0  0  0  0  0  0
  -26.3795  -22.4332   21.4826 H   0  0  0  0  0  0
  -27.5933  -23.0112   22.6292 H   0  0  0  0  0  0
  -26.8722  -21.4237   22.8407 H   0  0  0  0  0  0
  -30.1583  -24.2494   20.0462 H   0  0  0  0  0  0
  -29.4061  -24.1674   21.5961 H   0  0  0  0  0  0
  -27.1702  -24.6749   20.5515 H   0  0  0  0  0  0
  -27.9159  -24.7316   18.9723 H   0  0  0  0  0  0
  1 25  1  0  0  0
  1 30  2  0  0  0
  1 83  1  0  0  0
  2  3  1  0  0  0
  2 25  1  0  0  0
  2 84  1  0  0  0
  2 85  1  0  0  0
  3  4  1  0  0  0
  3 86  1  0  0  0
  3 87  1  0  0  0
  4  5  1  0  0  0
  4 88  1  0  0  0
  4 89  1  0  0  0
  5  6  1  0  0  0
  5 26  1  0  0  0
  5 90  1  0  0  0
  6 25  1  0  0  0
  6 91  1  0  0  0
  6 92  1  0  0  0
  7  8  2  0  0  0
  7 26  1  0  0  0
  7 29  1  0  0  0
  8  9  1  0  0  0
  8 22  1  0  0  0
  9 10  1  0  0  0
  9 27  2  0  0  0
 10 11  2  0  0  0
 10 15  1  0  0  0
 11 12  1  0  0  0
 11 93  1  0  0  0
 12 13  2  0  0  0
 12 94  1  0  0  0
 13 14  1  0  0  0
 13 31  1  0  0  0
 14 15  2  0  0  0
 14 95  1  0  0  0
 15 96  1  0  0  0
 16 17  2  0  0  0
 16 21  1  0  0  0
 16 31  1  0  0  0
 17 18  1  0  0  0
 17 97  1  0  0  0
 18 19  2  0  0  0
 18 98  1  0  0  0
 19 20  1  0  0  0
 19 24  1  0  0  0
 20 21  2  0  0  0
 20 99  1  0  0  0
 21 23  1  0  0  0
 22 28  1  0  0  0
 22 32  2  0  0  0
 26 27  1  0  0  0
 28100  1  0  0  0
 28101  1  0  0  0
 29102  1  0  0  0
 29103  1  0  0  0
 33 34  1  0  0  0
 33 66  1  0  0  0
 33 70  2  0  0  0
 34 36  1  0  0  0
 34 59  1  0  0  0
 34104  1  0  0  0
 35 44  2  0  0  0
 35 45  1  0  0  0
 35 68  1  0  0  0
 36 56  1  0  0  0
 36105  1  0  0  0
 37 39  1  0  0  0
 37 47  1  0  0  0
 37 66  1  0  0  0
 37106  1  0  0  0
 38 43  2  0  0  0
 38 46  1  0  0  0
 38 47  1  0  0  0
 39 64  1  0  0  0
 39 67  2  0  0  0
 40 52  1  0  0  0
 40 53  2  0  0  0
 40 58  1  0  0  0
 41107  1  0  0  0
 41108  1  0  0  0
 41109  1  0  0  0
 41 48  1  0  0  0
 42 43  1  0  0  0
 42 66  1  0  0  0
 42110  1  0  0  0
 42111  1  0  0  0
 43 44  1  0  0  0
 44112  1  0  0  0
 45 46  2  0  0  0
 45113  1  0  0  0
 46114  1  0  0  0
 47115  1  0  0  0
 47116  1  0  0  0
 48 56  1  0  0  0
 48 65  1  0  0  0
 48117  1  0  0  0
 49 50  1  0  0  0
 49 53  1  0  0  0
 49 64  1  0  0  0
 49118  1  0  0  0
 50 51  1  0  0  0
 50119  1  0  0  0
 50120  1  0  0  0
 51 52  1  0  0  0
 51121  1  0  0  0
 51122  1  0  0  0
 52123  1  0  0  0
 52124  1  0  0  0
 53 54  1  0  0  0
 54 55  2  0  0  0
 54125  1  0  0  0
 55 57  1  0  0  0
 55126  1  0  0  0
 56 69  2  0  0  0
 57 58  2  0  0  0
 57127  1  0  0  0
 58128  1  0  0  0
 59 60  1  0  0  0
 59 61  1  0  0  0
 59 62  1  0  0  0
 60129  1  0  0  0
 60130  1  0  0  0
 60131  1  0  0  0
 61132  1  0  0  0
 61133  1  0  0  0
 61134  1  0  0  0
 62135  1  0  0  0
 62136  1  0  0  0
 62137  1  0  0  0
 63 65  1  0  0  0
 63138  1  0  0  0
 63139  1  0  0  0
 63140  1  0  0  0
 64141  1  0  0  0
 65142  1  0  0  0
 68 81  1  0  0  0
 71 72  2  0  0  0
 71 73  1  0  0  0
 71143  1  0  0  0
 72 74  1  0  0  0
 72144  1  0  0  0
 73 75  2  0  0  0
 73 80  1  0  0  0
 74 82  2  0  0  0
 74 78  1  0  0  0
 75 79  1  0  0  0
 75 82  1  0  0  0
 76 78  1  0  0  0
 76 83  1  0  0  0
 76145  1  0  0  0
 76146  1  0  0  0
 77 78  1  0  0  0
 77 83  1  0  0  0
 77147  1  0  0  0
 77148  1  0  0  0
 78149  1  0  0  0
 79150  1  0  0  0
 79151  1  0  0  0
 79152  1  0  0  0
 80 81  1  0  0  0
 80153  1  0  0  0
 80154  1  0  0  0
 81155  1  0  0  0
 81156  1  0  0  0
M  ISO  4   1 100  68 101  81 101  83 100
M  END
> <chiral flag>
0

> <version>
0

> <s_m_source_file>
/data/baiqing/PycharmProjects/Reinvent-master-3.2/result/LINK_invent/BTK/process_docking_weight1_custom_sum_contain_oxygen_bond_distance_aromatic_linkinvent_7_9_3/rearranged_h_0183.sdf

> <i_m_source_file_index>
7

> <r_mmod_Potential_Energy-OPLS-2005>
25.15749168396

> <r_mmod_Stretch_Energy-OPLS-2005>
94.4860687255859

> <r_mmod_Bend_Energy-OPLS-2005>
156.800247192383

> <r_mmod_Torsional_Energy-OPLS-2005>
256.223358154297

> <r_mmod_Improper_Torsional_Energy-OPLS-2005>
15.1959886550903

> <r_mmod_Van_der_Waal_Energy-OPLS-2005>
140.063858032227

> <r_mmod_Electrostatic_Energy-OPLS-2005>
-492.338256835938

> <r_mmod_Solvation_Energy-OPLS-2005>
-210.746841430664

> <b_mmod_Minimization_Converged-OPLS-2005>
0

> <r_mmod_RMS_Derivative-OPLS-2005>
2.79990935325623

$$$$
7
                    3D
 Structure written by MMmdl.
156165  0  0  1  0            999 V2000
  -30.4173  -15.3022   20.3755 C   0  0  0  0  0  0
  -30.4476  -12.8283   19.5465 C   0  0  0  0  0  0
  -29.5561  -12.5821   18.3011 C   0  0  0  0  0  0
  -28.0845  -12.3279   18.6763 C   0  0  0  0  0  0
  -27.6101  -13.2627   19.8105 C   0  0  2  0  0  0
  -28.6405  -13.4257   20.9482 C   0  0  0  0  0  0
  -25.2303  -13.8143   20.5606 C   0  0  0  0  0  0
  -24.1703  -13.0339   20.9111 C   0  0  0  0  0  0
  -24.6400  -11.6850   20.8658 C   0  0  0  0  0  0
  -23.9092  -10.4241   21.0330 C   0  0  0  0  0  0
  -24.3670   -9.4175   21.9108 C   0  0  0  0  0  0
  -23.6339   -8.2226   22.0730 C   0  0  0  0  0  0
  -22.4303   -8.0264   21.3550 C   0  0  0  0  0  0
  -21.9898   -9.0230   20.4672 C   0  0  0  0  0  0
  -22.7221  -10.2097   20.3040 C   0  0  0  0  0  0
  -21.6856   -6.0749   22.5303 C   0  0  0  0  0  0
  -21.3985   -6.5653   23.8227 C   0  0  0  0  0  0
  -21.3622   -5.6803   24.9188 C   0  0  0  0  0  0
  -21.6036   -4.3065   24.7239 C   0  0  0  0  0  0
  -21.8821   -3.8163   23.4360 C   0  0  0  0  0  0
  -21.9199   -4.6981   22.3421 C   0  0  0  0  0  0
  -22.7731  -13.5080   21.1831 C   0  0  0  0  0  0
  -22.1661   -4.2166   21.0993 F   0  0  0  0  0  0
  -21.5632   -3.4547   25.7745 F   0  0  0  0  0  0
  -29.8800  -13.9720   20.3614 N   0  0  0  0  0  0
  -26.2794  -12.9453   20.3092 N   0  0  0  0  0  0
  -25.9344  -11.6568   20.5639 N   0  0  0  0  0  0
  -22.0494  -12.8084   22.0464 N   0  0  0  0  0  0
  -25.3698  -15.1894   20.4071 N   0  0  0  0  0  0
  -31.6230  -15.2644   20.0809 O   0  0  0  0  0  0
  -21.6642   -6.8890   21.4267 O   0  0  0  0  0  0
  -22.3368  -14.5389   20.6693 O   0  0  0  0  0  0
  -24.6570  -31.8274   23.1746 C   0  0  0  0  0  0
  -25.9243  -32.4633   23.8204 C   0  0  1  0  0  0
  -27.2276  -26.9640   20.1793 C   0  0  0  0  0  0
  -25.5910  -33.8450   24.2065 N   0  0  0  0  0  0
  -23.4706  -30.4381   21.5257 C   0  0  2  0  0  0
  -24.9276  -28.8358   20.1170 C   0  0  0  0  0  0
  -22.7649  -29.4419   22.4815 C   0  0  0  0  0  0
  -18.0303  -28.1397   22.8482 C   0  0  0  0  0  0
  -24.1468  -36.7252   23.2637 C   0  0  0  0  0  0
  -26.0362  -30.6503   21.3949 C   0  0  0  0  0  0
  -26.1115  -29.2408   20.7473 C   0  0  0  0  0  0
  -27.2580  -28.3276   20.7518 C   0  0  0  0  0  0
  -26.0092  -26.7098   19.5065 C   0  0  0  0  0  0
  -24.9011  -27.5910   19.4739 C   0  0  0  0  0  0
  -23.7104  -29.7568   20.1514 C   0  0  0  0  0  0
  -25.4104  -36.2999   24.0280 C   0  0  1  0  0  0
  -20.5930  -28.3717   23.1205 C   0  0  2  0  0  0
  -20.6760  -26.9397   22.5418 C   0  0  0  0  0  0
  -19.5739  -26.6348   21.5224 C   0  0  0  0  0  0
  -18.1924  -26.7920   22.1641 C   0  0  0  0  0  0
  -19.1566  -28.8876   23.2826 C   0  0  0  0  0  0
  -18.9494  -30.1474   23.8858 C   0  0  0  0  0  0
  -17.6489  -30.6600   24.0546 C   0  0  0  0  0  0
  -25.9069  -34.9382   23.4998 C   0  0  0  0  0  0
  -16.5376  -29.9094   23.6347 C   0  0  0  0  0  0
  -16.7286  -28.6509   23.0370 C   0  0  0  0  0  0
  -26.4485  -31.6588   25.0738 C   0  0  0  0  0  0
  -25.3615  -31.3911   26.1414 C   0  0  0  0  0  0
  -27.0304  -30.2937   24.6428 C   0  0  0  0  0  0
  -27.5962  -32.4394   25.7579 C   0  0  0  0  0  0
  -27.5545  -37.1789   24.8453 C   0  0  0  0  0  0
  -21.4320  -29.3012   22.3574 N   0  0  0  0  0  0
  -26.4252  -37.3734   23.9406 N   0  0  0  0  0  0
  -24.7430  -30.9966   22.0875 N   0  0  0  0  0  0
  -23.4208  -28.7968   23.3018 O   0  0  0  0  0  0
  -28.2353  -25.8647   20.2284 O   0  0  0  0  0  0
  -26.5725  -34.8915   22.4622 O   0  0  0  0  0  0
  -23.5638  -32.1207   23.6858 O   0  0  0  0  0  0
  -28.9367  -21.7248   21.2105 C   0  0  0  0  0  0
  -28.8029  -22.0042   18.9140 C   0  0  0  0  0  0
  -28.6539  -22.7300   20.1519 C   0  0  0  0  0  0
  -29.2768  -20.2642   21.0145 C   0  0  0  0  0  0
  -29.3412  -19.7264   19.7121 C   0  0  0  0  0  0
  -29.6558  -18.1180   19.4147 C   0  0  0  0  0  0
  -30.2020  -17.9035   21.7836 C   0  0  1  0  0  0
  -29.6777  -16.9213   20.5980 C   0  0  1  0  0  0
  -31.7113  -18.1755   21.7119 C   0  0  0  0  0  0
  -28.1949  -16.6932   20.9178 C   0  0  0  0  0  0
  -27.8470  -24.2772   20.2311 C   0  0  0  0  0  0
  -29.1131  -20.6462   18.7069 N   0  0  0  0  0  0
  -29.5002  -19.2522   22.0158 N   0  0  0  0  0  0
  -31.4636  -13.0336   19.2067 H   0  0  0  0  0  0
  -30.5411  -11.9292   20.1530 H   0  0  0  0  0  0
  -29.9394  -11.7350   17.7323 H   0  0  0  0  0  0
  -29.6183  -13.4515   17.6448 H   0  0  0  0  0  0
  -27.9782  -11.2842   18.9652 H   0  0  0  0  0  0
  -27.4529  -12.4644   17.7966 H   0  0  0  0  0  0
  -27.5169  -14.2132   19.2956 H   0  0  0  0  0  0
  -28.8172  -12.4706   21.4439 H   0  0  0  0  0  0
  -28.2593  -14.0926   21.7173 H   0  0  0  0  0  0
  -25.2875   -9.5639   22.4580 H   0  0  0  0  0  0
  -24.0052   -7.4635   22.7459 H   0  0  0  0  0  0
  -21.0798   -8.8771   19.9044 H   0  0  0  0  0  0
  -22.3672  -10.9628   19.6143 H   0  0  0  0  0  0
  -21.1947   -7.6158   23.9726 H   0  0  0  0  0  0
  -21.1426   -6.0541   25.9087 H   0  0  0  0  0  0
  -22.0634   -2.7633   23.2876 H   0  0  0  0  0  0
  -22.4182  -11.9721   22.4758 H   0  0  0  0  0  0
  -21.1148  -13.1082   22.2817 H   0  0  0  0  0  0
  -24.5922  -15.8262   20.5453 H   0  0  0  0  0  0
  -26.2383  -15.6659   20.2111 H   0  0  0  0  0  0
  -26.7321  -32.5189   23.0941 H   0  0  0  0  0  0
  -24.9916  -33.9537   25.0117 H   0  0  0  0  0  0
  -22.7825  -31.2689   21.3571 H   0  0  0  0  0  0
  -23.3709  -35.9609   23.3287 H   0  0  0  0  0  0
  -24.3542  -36.8927   22.2057 H   0  0  0  0  0  0
  -23.7248  -37.6447   23.6706 H   0  0  0  0  0  0
  -26.1859  -31.3859   20.6039 H   0  0  0  0  0  0
  -26.9085  -30.7305   22.0314 H   0  0  0  0  0  0
  -28.1565  -28.6411   21.2640 H   0  0  0  0  0  0
  -25.8701  -25.7678   19.0011 H   0  0  0  0  0  0
  -24.0076  -27.2796   18.9508 H   0  0  0  0  0  0
  -23.8576  -30.5247   19.3899 H   0  0  0  0  0  0
  -22.8240  -29.2034   19.8372 H   0  0  0  0  0  0
  -25.1289  -36.1805   25.0768 H   0  0  0  0  0  0
  -21.0002  -28.3313   24.1331 H   0  0  0  0  0  0
  -20.5576  -26.2356   23.3660 H   0  0  0  0  0  0
  -21.6630  -26.7332   22.1264 H   0  0  0  0  0  0
  -19.6872  -25.6234   21.1308 H   0  0  0  0  0  0
  -19.6667  -27.3115   20.6713 H   0  0  0  0  0  0
  -17.4174  -26.6645   21.4065 H   0  0  0  0  0  0
  -18.0339  -26.0078   22.9059 H   0  0  0  0  0  0
  -19.7969  -30.7297   24.2212 H   0  0  0  0  0  0
  -17.5046  -31.6288   24.5131 H   0  0  0  0  0  0
  -15.5376  -30.2989   23.7672 H   0  0  0  0  0  0
  -15.8689  -28.0812   22.7109 H   0  0  0  0  0  0
  -24.5803  -30.7217   25.7798 H   0  0  0  0  0  0
  -24.8786  -32.3151   26.4620 H   0  0  0  0  0  0
  -25.7849  -30.9286   27.0337 H   0  0  0  0  0  0
  -26.2939  -29.6740   24.1301 H   0  0  0  0  0  0
  -27.3661  -29.7195   25.5065 H   0  0  0  0  0  0
  -27.8963  -30.4076   23.9906 H   0  0  0  0  0  0
  -27.2475  -33.3717   26.2037 H   0  0  0  0  0  0
  -28.3876  -32.6930   25.0519 H   0  0  0  0  0  0
  -28.0499  -31.8611   26.5634 H   0  0  0  0  0  0
  -28.2548  -38.0091   24.7456 H   0  0  0  0  0  0
  -28.1041  -36.2612   24.6300 H   0  0  0  0  0  0
  -27.2280  -37.1488   25.8865 H   0  0  0  0  0  0
  -20.9552  -29.8773   21.6791 H   0  0  0  0  0  0
  -26.0083  -38.2782   24.1468 H   0  0  0  0  0  0
  -28.8426  -22.0834   22.2236 H   0  0  0  0  0  0
  -28.5803  -22.5393   18.0026 H   0  0  0  0  0  0
  -30.6202  -18.0958   18.9122 H   0  0  0  0  0  0
  -28.9472  -17.8046   18.6482 H   0  0  0  0  0  0
  -30.0521  -17.3414   22.7089 H   0  0  0  0  0  0
  -31.9714  -18.9217   20.9614 H   0  0  0  0  0  0
  -32.2747  -17.2784   21.4758 H   0  0  0  0  0  0
  -32.0771  -18.5294   22.6760 H   0  0  0  0  0  0
  -28.0431  -16.2542   21.9012 H   0  0  0  0  0  0
  -27.6249  -17.6242   20.9028 H   0  0  0  0  0  0
  -27.7623  -16.0545   20.1651 H   0  0  0  0  0  0
  -27.1349  -24.1676   21.0493 H   0  0  0  0  0  0
  -27.2306  -24.1979   19.3399 H   0  0  0  0  0  0
  -29.3869  -19.5252   22.9917 H   0  0  0  0  0  0
  1 25  1  0  0  0
  1 30  2  0  0  0
  1 78  1  0  0  0
  2  3  1  0  0  0
  2 25  1  0  0  0
  2 84  1  0  0  0
  2 85  1  0  0  0
  3  4  1  0  0  0
  3 86  1  0  0  0
  3 87  1  0  0  0
  4  5  1  0  0  0
  4 88  1  0  0  0
  4 89  1  0  0  0
  5  6  1  0  0  0
  5 26  1  0  0  0
  5 90  1  0  0  0
  6 25  1  0  0  0
  6 91  1  0  0  0
  6 92  1  0  0  0
  7  8  2  0  0  0
  7 26  1  0  0  0
  7 29  1  0  0  0
  8  9  1  0  0  0
  8 22  1  0  0  0
  9 10  1  0  0  0
  9 27  2  0  0  0
 10 11  2  0  0  0
 10 15  1  0  0  0
 11 12  1  0  0  0
 11 93  1  0  0  0
 12 13  2  0  0  0
 12 94  1  0  0  0
 13 14  1  0  0  0
 13 31  1  0  0  0
 14 15  2  0  0  0
 14 95  1  0  0  0
 15 96  1  0  0  0
 16 17  2  0  0  0
 16 21  1  0  0  0
 16 31  1  0  0  0
 17 18  1  0  0  0
 17 97  1  0  0  0
 18 19  2  0  0  0
 18 98  1  0  0  0
 19 20  1  0  0  0
 19 24  1  0  0  0
 20 21  2  0  0  0
 20 99  1  0  0  0
 21 23  1  0  0  0
 22 28  1  0  0  0
 22 32  2  0  0  0
 26 27  1  0  0  0
 28100  1  0  0  0
 28101  1  0  0  0
 29102  1  0  0  0
 29103  1  0  0  0
 33 34  1  0  0  0
 33 66  1  0  0  0
 33 70  2  0  0  0
 34 36  1  0  0  0
 34 59  1  0  0  0
 34104  1  0  0  0
 35 44  2  0  0  0
 35 45  1  0  0  0
 35 68  1  0  0  0
 36 56  1  0  0  0
 36105  1  0  0  0
 37 39  1  0  0  0
 37 47  1  0  0  0
 37 66  1  0  0  0
 37106  1  0  0  0
 38 43  2  0  0  0
 38 46  1  0  0  0
 38 47  1  0  0  0
 39 64  1  0  0  0
 39 67  2  0  0  0
 40 52  1  0  0  0
 40 53  2  0  0  0
 40 58  1  0  0  0
 41107  1  0  0  0
 41108  1  0  0  0
 41109  1  0  0  0
 41 48  1  0  0  0
 42 43  1  0  0  0
 42 66  1  0  0  0
 42110  1  0  0  0
 42111  1  0  0  0
 43 44  1  0  0  0
 44112  1  0  0  0
 45 46  2  0  0  0
 45113  1  0  0  0
 46114  1  0  0  0
 47115  1  0  0  0
 47116  1  0  0  0
 48 56  1  0  0  0
 48 65  1  0  0  0
 48117  1  0  0  0
 49 50  1  0  0  0
 49 53  1  0  0  0
 49 64  1  0  0  0
 49118  1  0  0  0
 50 51  1  0  0  0
 50119  1  0  0  0
 50120  1  0  0  0
 51 52  1  0  0  0
 51121  1  0  0  0
 51122  1  0  0  0
 52123  1  0  0  0
 52124  1  0  0  0
 53 54  1  0  0  0
 54 55  2  0  0  0
 54125  1  0  0  0
 55 57  1  0  0  0
 55126  1  0  0  0
 56 69  2  0  0  0
 57 58  2  0  0  0
 57127  1  0  0  0
 58128  1  0  0  0
 59 60  1  0  0  0
 59 61  1  0  0  0
 59 62  1  0  0  0
 60129  1  0  0  0
 60130  1  0  0  0
 60131  1  0  0  0
 61132  1  0  0  0
 61133  1  0  0  0
 61134  1  0  0  0
 62135  1  0  0  0
 62136  1  0  0  0
 62137  1  0  0  0
 63 65  1  0  0  0
 63138  1  0  0  0
 63139  1  0  0  0
 63140  1  0  0  0
 64141  1  0  0  0
 65142  1  0  0  0
 68 81  1  0  0  0
 71 73  2  0  0  0
 71 74  1  0  0  0
 71143  1  0  0  0
 72 73  1  0  0  0
 72 82  2  0  0  0
 72144  1  0  0  0
 73 81  1  0  0  0
 74 75  2  0  0  0
 74 83  1  0  0  0
 75 76  1  0  0  0
 75 82  1  0  0  0
 76 78  1  0  0  0
 76145  1  0  0  0
 76146  1  0  0  0
 77 78  1  0  0  0
 77 79  1  0  0  0
 77 83  1  0  0  0
 77147  1  0  0  0
 78 80  1  0  0  0
 79148  1  0  0  0
 79149  1  0  0  0
 79150  1  0  0  0
 80151  1  0  0  0
 80152  1  0  0  0
 80153  1  0  0  0
 81154  1  0  0  0
 81155  1  0  0  0
 83156  1  0  0  0
M  ISO  4   1 100  68 101  78 100  81 101
M  END
> <chiral flag>
0

> <version>
0

> <s_m_source_file>
/data/baiqing/PycharmProjects/Reinvent-master-3.2/result/LINK_invent/BTK/process_docking_weight1_custom_sum_contain_oxygen_bond_distance_aromatic_linkinvent_7_9_3/rearranged_h_0183.sdf

> <i_m_source_file_index>
8

> <r_mmod_Potential_Energy-OPLS-2005>
1132.16589355469

> <r_mmod_Stretch_Energy-OPLS-2005>
497.286468505859

> <r_mmod_Bend_Energy-OPLS-2005>
437.627868652344

> <r_mmod_Torsional_Energy-OPLS-2005>
225.579711914062

> <r_mmod_Improper_Torsional_Energy-OPLS-2005>
7.16770219802856

> <r_mmod_Van_der_Waal_Energy-OPLS-2005>
145.696929931641

> <r_mmod_Electrostatic_Energy-OPLS-2005>
-412.151916503906

> <r_mmod_Solvation_Energy-OPLS-2005>
-214.451873779297

> <b_mmod_Minimization_Converged-OPLS-2005>
0

> <r_mmod_RMS_Derivative-OPLS-2005>
5.09705209732056

$$$$
8
                    3D
 Structure written by MMmdl.
158168  0  0  1  0            999 V2000
  -30.5535  -15.1057   20.3777 C   0  0  0  0  0  0
  -30.4135  -12.7040   19.5154 C   0  0  0  0  0  0
  -29.5165  -12.5432   18.2715 C   0  0  0  0  0  0
  -28.0636  -12.2938   18.7027 C   0  0  0  0  0  0
  -27.6096  -13.2658   19.8224 C   0  0  2  0  0  0
  -28.6443  -13.4216   20.9553 C   0  0  0  0  0  0
  -25.2386  -13.8226   20.5740 C   0  0  0  0  0  0
  -24.1739  -13.0425   20.9275 C   0  0  0  0  0  0
  -24.6388  -11.6914   20.8777 C   0  0  0  0  0  0
  -23.9092  -10.4276   21.0425 C   0  0  0  0  0  0
  -24.3641   -9.4183   21.9204 C   0  0  0  0  0  0
  -23.6285   -8.2235   22.0764 C   0  0  0  0  0  0
  -22.4263   -8.0309   21.3555 C   0  0  0  0  0  0
  -21.9917   -9.0281   20.4646 C   0  0  0  0  0  0
  -22.7261  -10.2147   20.3060 C   0  0  0  0  0  0
  -21.6843   -6.0751   22.5297 C   0  0  0  0  0  0
  -21.4010   -6.5652   23.8241 C   0  0  0  0  0  0
  -21.3647   -5.6799   24.9199 C   0  0  0  0  0  0
  -21.6039   -4.3067   24.7224 C   0  0  0  0  0  0
  -21.8817   -3.8157   23.4347 C   0  0  0  0  0  0
  -21.9176   -4.6974   22.3399 C   0  0  0  0  0  0
  -22.7765  -13.5197   21.1897 C   0  0  0  0  0  0
  -22.1650   -4.2168   21.0970 F   0  0  0  0  0  0
  -21.5614   -3.4541   25.7735 F   0  0  0  0  0  0
  -29.8935  -13.8612   20.3229 N   0  0  0  0  0  0
  -26.2803  -12.9497   20.3228 N   0  0  0  0  0  0
  -25.9320  -11.6621   20.5748 N   0  0  0  0  0  0
  -22.0394  -12.8211   22.0452 N   0  0  0  0  0  0
  -25.4010  -15.1955   20.4130 N   0  0  0  0  0  0
  -31.7727  -15.0076   20.1718 O   0  0  0  0  0  0
  -21.6625   -6.8907   21.4269 O   0  0  0  0  0  0
  -22.3477  -14.5503   20.6742 O   0  0  0  0  0  0
  -24.6539  -31.8404   23.1783 C   0  0  0  0  0  0
  -25.9277  -32.4677   23.8209 C   0  0  1  0  0  0
  -27.1996  -27.0385   20.1597 C   0  0  0  0  0  0
  -25.5999  -33.8494   24.2142 N   0  0  0  0  0  0
  -23.4581  -30.4542   21.5308 C   0  0  2  0  0  0
  -24.8988  -28.8571   20.1164 C   0  0  0  0  0  0
  -22.7600  -29.4531   22.4864 C   0  0  0  0  0  0
  -18.0313  -28.1428   22.8466 C   0  0  0  0  0  0
  -24.1488  -36.7209   23.2634 C   0  0  0  0  0  0
  -26.0187  -30.6805   21.3843 C   0  0  0  0  0  0
  -26.0843  -29.2781   20.7336 C   0  0  0  0  0  0
  -27.2369  -28.3907   20.7271 C   0  0  0  0  0  0
  -25.9830  -26.7303   19.5201 C   0  0  0  0  0  0
  -24.8678  -27.5997   19.4919 C   0  0  0  0  0  0
  -23.6823  -29.7746   20.1534 C   0  0  0  0  0  0
  -25.4135  -36.3018   24.0300 C   0  0  1  0  0  0
  -20.5923  -28.3773   23.1212 C   0  0  2  0  0  0
  -20.6804  -26.9470   22.5399 C   0  0  0  0  0  0
  -19.5780  -26.6398   21.5219 C   0  0  0  0  0  0
  -18.1962  -26.7962   22.1634 C   0  0  0  0  0  0
  -19.1574  -28.8923   23.2826 C   0  0  0  0  0  0
  -18.9492  -30.1512   23.8857 C   0  0  0  0  0  0
  -17.6493  -30.6621   24.0571 C   0  0  0  0  0  0
  -25.9099  -34.9401   23.5024 C   0  0  0  0  0  0
  -16.5380  -29.9109   23.6349 C   0  0  0  0  0  0
  -16.7304  -28.6534   23.0355 C   0  0  0  0  0  0
  -26.4545  -31.6579   25.0681 C   0  0  0  0  0  0
  -25.3681  -31.3840   26.1343 C   0  0  0  0  0  0
  -27.0414  -30.2963   24.6307 C   0  0  0  0  0  0
  -27.6056  -32.4363   25.7496 C   0  0  0  0  0  0
  -27.5573  -37.1773   24.8474 C   0  0  0  0  0  0
  -21.4298  -29.3071   22.3582 N   0  0  0  0  0  0
  -26.4287  -37.3745   23.9409 N   0  0  0  0  0  0
  -24.7317  -31.0145   22.0863 N   0  0  0  0  0  0
  -23.4212  -28.8098   23.3069 O   0  0  0  0  0  0
  -28.2525  -26.0292   20.1127 O   0  0  0  0  0  0
  -26.5681  -34.8918   22.4592 O   0  0  0  0  0  0
  -23.5640  -32.1349   23.6919 O   0  0  0  0  0  0
  -30.2785  -21.4406   20.9300 C   0  0  0  0  0  0
  -30.9699  -20.2260   21.2471 C   0  0  0  0  0  0
  -30.3842  -18.9707   20.9294 C   0  0  0  0  0  0
  -29.1779  -18.9622   20.2829 C   0  0  0  0  0  0
  -29.0216  -21.4890   20.2703 C   0  0  0  0  0  0
  -30.9263  -17.5230   21.1611 C   0  0  0  0  0  0
  -28.8721  -17.3796   20.0654 C   0  0  0  0  0  0
  -32.6568  -19.8342   23.2395 C   0  0  0  0  0  0
  -32.6779  -21.3100   22.9143 C   0  0  0  0  0  0
  -32.3440  -20.3034   21.8364 C   0  0  0  0  0  0
  -28.1516  -24.4839   20.5351 C   0  0  0  0  0  0
  -28.4930  -23.0031   19.6940 C   0  0  1  0  0  0
  -28.5043  -20.1845   19.9416 N   0  0  0  0  0  0
  -30.0032  -16.4410   20.6272 N   0  0  0  0  0  0
  -29.4092  -23.4443   18.7008 O   0  0  0  0  0  0
  -31.4420  -12.8476   19.1878 H   0  0  0  0  0  0
  -30.4240  -11.7922   20.1134 H   0  0  0  0  0  0
  -29.8763  -11.7225   17.6499 H   0  0  0  0  0  0
  -29.5776  -13.4440   17.6591 H   0  0  0  0  0  0
  -28.0063  -11.2639   19.0636 H   0  0  0  0  0  0
  -27.3922  -12.3602   17.8463 H   0  0  0  0  0  0
  -27.5334  -14.2369   19.3346 H   0  0  0  0  0  0
  -28.7744  -12.4952   21.5155 H   0  0  0  0  0  0
  -28.3109  -14.1749   21.6703 H   0  0  0  0  0  0
  -25.2790   -9.5656   22.4788 H   0  0  0  0  0  0
  -23.9973   -7.4627   22.7487 H   0  0  0  0  0  0
  -21.0841   -8.8824   19.8952 H   0  0  0  0  0  0
  -22.3728  -10.9715   19.6176 H   0  0  0  0  0  0
  -21.2038   -7.6163   23.9758 H   0  0  0  0  0  0
  -21.1458   -6.0522   25.9107 H   0  0  0  0  0  0
  -22.0593   -2.7609   23.2847 H   0  0  0  0  0  0
  -22.3971  -11.9871   22.4879 H   0  0  0  0  0  0
  -21.1026  -13.1320   22.2619 H   0  0  0  0  0  0
  -24.6291  -15.8417   20.5324 H   0  0  0  0  0  0
  -26.2419  -15.6428   20.0732 H   0  0  0  0  0  0
  -26.7341  -32.5253   23.0929 H   0  0  0  0  0  0
  -25.0182  -33.9635   25.0321 H   0  0  0  0  0  0
  -22.7682  -31.2845   21.3715 H   0  0  0  0  0  0
  -23.3766  -35.9516   23.3300 H   0  0  0  0  0  0
  -24.3546  -36.8862   22.2043 H   0  0  0  0  0  0
  -23.7232  -37.6398   23.6677 H   0  0  0  0  0  0
  -26.1803  -31.4239   20.6004 H   0  0  0  0  0  0
  -26.8843  -30.7352   22.0318 H   0  0  0  0  0  0
  -28.1472  -28.7190   21.2092 H   0  0  0  0  0  0
  -25.8829  -25.7653   19.0423 H   0  0  0  0  0  0
  -23.9628  -27.2808   18.9948 H   0  0  0  0  0  0
  -23.8270  -30.5452   19.3960 H   0  0  0  0  0  0
  -22.7901  -29.2293   19.8410 H   0  0  0  0  0  0
  -25.1319  -36.1815   25.0791 H   0  0  0  0  0  0
  -21.0036  -28.3386   24.1327 H   0  0  0  0  0  0
  -20.5739  -26.2397   23.3648 H   0  0  0  0  0  0
  -21.6675  -26.7499   22.1190 H   0  0  0  0  0  0
  -19.6950  -25.6291   21.1300 H   0  0  0  0  0  0
  -19.6703  -27.3181   20.6722 H   0  0  0  0  0  0
  -17.4237  -26.6709   21.4034 H   0  0  0  0  0  0
  -18.0346  -26.0113   22.9038 H   0  0  0  0  0  0
  -19.7972  -30.7331   24.2226 H   0  0  0  0  0  0
  -17.5046  -31.6298   24.5181 H   0  0  0  0  0  0
  -15.5386  -30.3001   23.7698 H   0  0  0  0  0  0
  -15.8700  -28.0847   22.7073 H   0  0  0  0  0  0
  -24.5848  -30.7213   25.7660 H   0  0  0  0  0  0
  -24.8863  -32.3055   26.4616 H   0  0  0  0  0  0
  -25.7882  -30.9113   27.0229 H   0  0  0  0  0  0
  -26.3056  -29.6685   24.1273 H   0  0  0  0  0  0
  -27.3986  -29.7266   25.4898 H   0  0  0  0  0  0
  -27.8972  -30.4189   23.9665 H   0  0  0  0  0  0
  -27.2642  -33.3705   26.1964 H   0  0  0  0  0  0
  -28.3925  -32.6882   25.0373 H   0  0  0  0  0  0
  -28.0644  -31.8561   26.5522 H   0  0  0  0  0  0
  -28.2600  -38.0067   24.7504 H   0  0  0  0  0  0
  -28.1075  -36.2592   24.6317 H   0  0  0  0  0  0
  -27.2280  -37.1431   25.8884 H   0  0  0  0  0  0
  -20.9557  -29.8752   21.6703 H   0  0  0  0  0  0
  -26.0131  -38.2807   24.1420 H   0  0  0  0  0  0
  -30.7670  -22.3855   21.1348 H   0  0  0  0  0  0
  -31.9125  -17.4578   20.7000 H   0  0  0  0  0  0
  -31.0706  -17.3637   22.2303 H   0  0  0  0  0  0
  -27.9429  -17.1463   20.5883 H   0  0  0  0  0  0
  -28.7008  -17.1761   19.0083 H   0  0  0  0  0  0
  -31.8430  -19.4809   23.8690 H   0  0  0  0  0  0
  -33.6208  -19.3612   23.4121 H   0  0  0  0  0  0
  -33.6513  -21.7963   22.8672 H   0  0  0  0  0  0
  -31.8671  -21.9092   23.3256 H   0  0  0  0  0  0
  -33.0929  -20.1299   21.0664 H   0  0  0  0  0  0
  -28.8244  -24.4519   21.3917 H   0  0  0  0  0  0
  -27.1671  -24.3547   20.9833 H   0  0  0  0  0  0
  -27.5802  -22.7646   19.1465 H   0  0  0  0  0  0
  -29.0423  -24.2415   18.3310 H   0  0  0  0  0  0
  1 25  1  0  0  0
  1 30  2  0  0  0
  1 84  1  0  0  0
  2  3  1  0  0  0
  2 25  1  0  0  0
  2 86  1  0  0  0
  2 87  1  0  0  0
  3  4  1  0  0  0
  3 88  1  0  0  0
  3 89  1  0  0  0
  4  5  1  0  0  0
  4 90  1  0  0  0
  4 91  1  0  0  0
  5  6  1  0  0  0
  5 26  1  0  0  0
  5 92  1  0  0  0
  6 25  1  0  0  0
  6 93  1  0  0  0
  6 94  1  0  0  0
  7  8  2  0  0  0
  7 26  1  0  0  0
  7 29  1  0  0  0
  8  9  1  0  0  0
  8 22  1  0  0  0
  9 10  1  0  0  0
  9 27  2  0  0  0
 10 11  2  0  0  0
 10 15  1  0  0  0
 11 12  1  0  0  0
 11 95  1  0  0  0
 12 13  2  0  0  0
 12 96  1  0  0  0
 13 14  1  0  0  0
 13 31  1  0  0  0
 14 15  2  0  0  0
 14 97  1  0  0  0
 15 98  1  0  0  0
 16 17  2  0  0  0
 16 21  1  0  0  0
 16 31  1  0  0  0
 17 18  1  0  0  0
 17 99  1  0  0  0
 18 19  2  0  0  0
 18100  1  0  0  0
 19 20  1  0  0  0
 19 24  1  0  0  0
 20 21  2  0  0  0
 20101  1  0  0  0
 21 23  1  0  0  0
 22 28  1  0  0  0
 22 32  2  0  0  0
 26 27  1  0  0  0
 28102  1  0  0  0
 28103  1  0  0  0
 29104  1  0  0  0
 29105  1  0  0  0
 33 34  1  0  0  0
 33 66  1  0  0  0
 33 70  2  0  0  0
 34 36  1  0  0  0
 34 59  1  0  0  0
 34106  1  0  0  0
 35 44  2  0  0  0
 35 45  1  0  0  0
 35 68  1  0  0  0
 36 56  1  0  0  0
 36107  1  0  0  0
 37 39  1  0  0  0
 37 47  1  0  0  0
 37 66  1  0  0  0
 37108  1  0  0  0
 38 43  2  0  0  0
 38 46  1  0  0  0
 38 47  1  0  0  0
 39 64  1  0  0  0
 39 67  2  0  0  0
 40 52  1  0  0  0
 40 53  2  0  0  0
 40 58  1  0  0  0
 41109  1  0  0  0
 41110  1  0  0  0
 41111  1  0  0  0
 41 48  1  0  0  0
 42 43  1  0  0  0
 42 66  1  0  0  0
 42112  1  0  0  0
 42113  1  0  0  0
 43 44  1  0  0  0
 44114  1  0  0  0
 45 46  2  0  0  0
 45115  1  0  0  0
 46116  1  0  0  0
 47117  1  0  0  0
 47118  1  0  0  0
 48 56  1  0  0  0
 48 65  1  0  0  0
 48119  1  0  0  0
 49 50  1  0  0  0
 49 53  1  0  0  0
 49 64  1  0  0  0
 49120  1  0  0  0
 50 51  1  0  0  0
 50121  1  0  0  0
 50122  1  0  0  0
 51 52  1  0  0  0
 51123  1  0  0  0
 51124  1  0  0  0
 52125  1  0  0  0
 52126  1  0  0  0
 53 54  1  0  0  0
 54 55  2  0  0  0
 54127  1  0  0  0
 55 57  1  0  0  0
 55128  1  0  0  0
 56 69  2  0  0  0
 57 58  2  0  0  0
 57129  1  0  0  0
 58130  1  0  0  0
 59 60  1  0  0  0
 59 61  1  0  0  0
 59 62  1  0  0  0
 60131  1  0  0  0
 60132  1  0  0  0
 60133  1  0  0  0
 61134  1  0  0  0
 61135  1  0  0  0
 61136  1  0  0  0
 62137  1  0  0  0
 62138  1  0  0  0
 62139  1  0  0  0
 63 65  1  0  0  0
 63140  1  0  0  0
 63141  1  0  0  0
 63142  1  0  0  0
 64143  1  0  0  0
 65144  1  0  0  0
 68 81  1  0  0  0
 71 72  2  0  0  0
 71 75  1  0  0  0
 71145  1  0  0  0
 72 73  1  0  0  0
 72 80  1  0  0  0
 73 74  2  0  0  0
 73 76  1  0  0  0
 74 77  1  0  0  0
 74 83  1  0  0  0
 75 82  1  0  0  0
 75 83  2  0  0  0
 76 84  1  0  0  0
 76146  1  0  0  0
 76147  1  0  0  0
 77 84  1  0  0  0
 77148  1  0  0  0
 77149  1  0  0  0
 78 79  1  0  0  0
 78 80  1  0  0  0
 78150  1  0  0  0
 78151  1  0  0  0
 79 80  1  0  0  0
 79152  1  0  0  0
 79153  1  0  0  0
 80154  1  0  0  0
 81 82  1  0  0  0
 81155  1  0  0  0
 81156  1  0  0  0
 82 85  1  0  0  0
 82157  1  0  0  0
 85158  1  0  0  0
M  ISO  4   1 100  68 101  81 101  84 100
M  END
> <chiral flag>
0

> <version>
0

> <s_m_source_file>
/data/baiqing/PycharmProjects/Reinvent-master-3.2/result/LINK_invent/BTK/process_docking_weight1_custom_sum_contain_oxygen_bond_distance_aromatic_linkinvent_7_9_3/rearranged_h_0183.sdf

> <i_m_source_file_index>
9

> <r_mmod_Potential_Energy-OPLS-2005>
790.212463378906

> <r_mmod_Stretch_Energy-OPLS-2005>
361.293914794922

> <r_mmod_Bend_Energy-OPLS-2005>
415.647064208984

> <r_mmod_Torsional_Energy-OPLS-2005>
333.421356201172

> <r_mmod_Improper_Torsional_Energy-OPLS-2005>
5.76626014709473

> <r_mmod_Van_der_Waal_Energy-OPLS-2005>
119.710960388184

> <r_mmod_Electrostatic_Energy-OPLS-2005>
-491.116638183594

> <r_mmod_Solvation_Energy-OPLS-2005>
-251.979568481445

> <b_mmod_Minimization_Converged-OPLS-2005>
0

> <r_mmod_RMS_Derivative-OPLS-2005>
3.97121572494507

$$$$
9
                    3D
 Structure written by MMmdl.
152161  0  0  1  0            999 V2000
  -30.5754  -15.1597   20.3817 C   0  0  0  0  0  0
  -30.4178  -12.7484   19.5020 C   0  0  0  0  0  0
  -29.5089  -12.5465   18.2688 C   0  0  0  0  0  0
  -28.0628  -12.2847   18.7179 C   0  0  0  0  0  0
  -27.6084  -13.2767   19.8180 C   0  0  2  0  0  0
  -28.6543  -13.4677   20.9403 C   0  0  0  0  0  0
  -25.2370  -13.8285   20.5749 C   0  0  0  0  0  0
  -24.1722  -13.0463   20.9278 C   0  0  0  0  0  0
  -24.6389  -11.6958   20.8812 C   0  0  0  0  0  0
  -23.9090  -10.4310   21.0434 C   0  0  0  0  0  0
  -24.3632   -9.4215   21.9202 C   0  0  0  0  0  0
  -23.6307   -8.2260   22.0764 C   0  0  0  0  0  0
  -22.4288   -8.0291   21.3545 C   0  0  0  0  0  0
  -21.9932   -9.0267   20.4657 C   0  0  0  0  0  0
  -22.7268  -10.2150   20.3078 C   0  0  0  0  0  0
  -21.6852   -6.0736   22.5276 C   0  0  0  0  0  0
  -21.4002   -6.5647   23.8211 C   0  0  0  0  0  0
  -21.3662   -5.6797   24.9169 C   0  0  0  0  0  0
  -21.6049   -4.3064   24.7226 C   0  0  0  0  0  0
  -21.8813   -3.8152   23.4343 C   0  0  0  0  0  0
  -21.9179   -4.6967   22.3400 C   0  0  0  0  0  0
  -22.7741  -13.5209   21.1897 C   0  0  0  0  0  0
  -22.1656   -4.2145   21.0978 F   0  0  0  0  0  0
  -21.5628   -3.4548   25.7746 F   0  0  0  0  0  0
  -29.8940  -13.9220   20.2894 N   0  0  0  0  0  0
  -26.2812  -12.9561   20.3276 N   0  0  0  0  0  0
  -25.9334  -11.6669   20.5808 N   0  0  0  0  0  0
  -22.0390  -12.8200   22.0466 N   0  0  0  0  0  0
  -25.3977  -15.1995   20.4116 N   0  0  0  0  0  0
  -31.7993  -15.0403   20.2351 O   0  0  0  0  0  0
  -21.6643   -6.8888   21.4250 O   0  0  0  0  0  0
  -22.3427  -14.5506   20.6732 O   0  0  0  0  0  0
  -24.6566  -31.8320   23.1753 C   0  0  0  0  0  0
  -25.9289  -32.4628   23.8181 C   0  0  1  0  0  0
  -27.2240  -27.0053   20.1855 C   0  0  0  0  0  0
  -25.5998  -33.8434   24.2106 N   0  0  0  0  0  0
  -23.4660  -30.4429   21.5248 C   0  0  2  0  0  0
  -24.9197  -28.8413   20.1117 C   0  0  0  0  0  0
  -22.7651  -29.4468   22.4830 C   0  0  0  0  0  0
  -18.0318  -28.1379   22.8425 C   0  0  0  0  0  0
  -24.1497  -36.7210   23.2644 C   0  0  0  0  0  0
  -26.0308  -30.6633   21.3931 C   0  0  0  0  0  0
  -26.1016  -29.2616   20.7367 C   0  0  0  0  0  0
  -27.2519  -28.3646   20.7467 C   0  0  0  0  0  0
  -26.0181  -26.7207   19.5052 C   0  0  0  0  0  0
  -24.8996  -27.5888   19.4744 C   0  0  0  0  0  0
  -23.7018  -29.7593   20.1492 C   0  0  0  0  0  0
  -25.4132  -36.2994   24.0319 C   0  0  1  0  0  0
  -20.5936  -28.3726   23.1182 C   0  0  2  0  0  0
  -20.6793  -26.9416   22.5382 C   0  0  0  0  0  0
  -19.5777  -26.6364   21.5179 C   0  0  0  0  0  0
  -18.1953  -26.7906   22.1585 C   0  0  0  0  0  0
  -19.1579  -28.8873   23.2775 C   0  0  0  0  0  0
  -18.9503  -30.1445   23.8830 C   0  0  0  0  0  0
  -17.6506  -30.6579   24.0521 C   0  0  0  0  0  0
  -25.9101  -34.9383   23.5025 C   0  0  0  0  0  0
  -16.5389  -29.9074   23.6324 C   0  0  0  0  0  0
  -16.7301  -28.6483   23.0349 C   0  0  0  0  0  0
  -26.4556  -31.6550   25.0686 C   0  0  0  0  0  0
  -25.3706  -31.3755   26.1344 C   0  0  0  0  0  0
  -27.0442  -30.2939   24.6351 C   0  0  0  0  0  0
  -27.6062  -32.4353   25.7475 C   0  0  0  0  0  0
  -27.5573  -37.1725   24.8467 C   0  0  0  0  0  0
  -21.4328  -29.3043   22.3564 N   0  0  0  0  0  0
  -26.4274  -37.3732   23.9448 N   0  0  0  0  0  0
  -24.7389  -31.0039   22.0863 N   0  0  0  0  0  0
  -23.4230  -28.8029   23.3047 O   0  0  0  0  0  0
  -28.2514  -25.9500   20.2550 O   0  0  0  0  0  0
  -26.5709  -34.8932   22.4621 O   0  0  0  0  0  0
  -23.5668  -32.1284   23.6907 O   0  0  0  0  0  0
  -28.4077  -21.2747   20.5805 C   0  0  0  0  0  0
  -28.7749  -23.8033   21.4861 C   0  0  0  0  0  0
  -28.2973  -18.6495   20.8935 C   0  0  0  0  0  0
  -30.3377  -19.3424   19.9676 C   0  0  0  0  0  0
  -28.6312  -17.1202   20.3457 C   0  0  0  0  0  0
  -30.8671  -17.8256   20.4452 C   0  0  0  0  0  0
  -28.9058  -22.8644   20.2947 C   0  0  2  0  0  0
  -27.9762  -24.3530   20.3246 C   0  0  1  0  0  0
  -29.0180  -19.9306   20.4456 N   0  0  0  0  0  0
  -30.0215  -16.5334   20.4198 N   0  0  0  0  0  0
  -27.2594  -21.2518   21.0352 O   0  0  0  0  0  0
  -31.4442  -12.8985   19.1649 H   0  0  0  0  0  0
  -30.4417  -11.8484   20.1187 H   0  0  0  0  0  0
  -29.8687  -11.7153   17.6603 H   0  0  0  0  0  0
  -29.5432  -13.4342   17.6355 H   0  0  0  0  0  0
  -28.0248  -11.2674   19.1102 H   0  0  0  0  0  0
  -27.3820  -12.3069   17.8666 H   0  0  0  0  0  0
  -27.5206  -14.2363   19.3088 H   0  0  0  0  0  0
  -28.8084  -12.5527   21.5133 H   0  0  0  0  0  0
  -28.3170  -14.2261   21.6485 H   0  0  0  0  0  0
  -25.2759   -9.5685   22.4794 H   0  0  0  0  0  0
  -23.9988   -7.4651   22.7493 H   0  0  0  0  0  0
  -21.0850   -8.8808   19.8970 H   0  0  0  0  0  0
  -22.3718  -10.9698   19.6204 H   0  0  0  0  0  0
  -21.2001   -7.6152   23.9706 H   0  0  0  0  0  0
  -21.1488   -6.0534   25.9069 H   0  0  0  0  0  0
  -22.0585   -2.7615   23.2851 H   0  0  0  0  0  0
  -22.3999  -11.9857   22.4845 H   0  0  0  0  0  0
  -21.1033  -13.1262   22.2699 H   0  0  0  0  0  0
  -24.6236  -15.8471   20.5106 H   0  0  0  0  0  0
  -26.2367  -15.6394   20.0594 H   0  0  0  0  0  0
  -26.7357  -32.5195   23.0906 H   0  0  0  0  0  0
  -25.0089  -33.9515   25.0207 H   0  0  0  0  0  0
  -22.7742  -31.2699   21.3572 H   0  0  0  0  0  0
  -23.3807  -35.9478   23.3274 H   0  0  0  0  0  0
  -24.3557  -36.8897   22.2058 H   0  0  0  0  0  0
  -23.7218  -37.6372   23.6732 H   0  0  0  0  0  0
  -26.1951  -31.4114   20.6165 H   0  0  0  0  0  0
  -26.8983  -30.7191   22.0404 H   0  0  0  0  0  0
  -28.1543  -28.6855   21.2508 H   0  0  0  0  0  0
  -25.9123  -25.7667   19.0086 H   0  0  0  0  0  0
  -24.0016  -27.2625   18.9659 H   0  0  0  0  0  0
  -23.8538  -30.5319   19.3940 H   0  0  0  0  0  0
  -22.8163  -29.2079   19.8300 H   0  0  0  0  0  0
  -25.1312  -36.1772   25.0807 H   0  0  0  0  0  0
  -20.9954  -28.3337   24.1331 H   0  0  0  0  0  0
  -20.5672  -26.2353   23.3620 H   0  0  0  0  0  0
  -21.6659  -26.7403   22.1178 H   0  0  0  0  0  0
  -19.6966  -25.6265   21.1247 H   0  0  0  0  0  0
  -19.6738  -27.3123   20.6664 H   0  0  0  0  0  0
  -17.4217  -26.6627   21.3995 H   0  0  0  0  0  0
  -18.0356  -26.0052   22.8992 H   0  0  0  0  0  0
  -19.8014  -30.7214   24.2226 H   0  0  0  0  0  0
  -17.5106  -31.6268   24.5119 H   0  0  0  0  0  0
  -15.5401  -30.2963   23.7712 H   0  0  0  0  0  0
  -15.8690  -28.0786   22.7133 H   0  0  0  0  0  0
  -24.5909  -30.7101   25.7628 H   0  0  0  0  0  0
  -24.8864  -32.2929   26.4684 H   0  0  0  0  0  0
  -25.7923  -30.8955   27.0188 H   0  0  0  0  0  0
  -26.3069  -29.6630   24.1385 H   0  0  0  0  0  0
  -27.4047  -29.7272   25.4952 H   0  0  0  0  0  0
  -27.8990  -30.4159   23.9704 H   0  0  0  0  0  0
  -27.2655  -33.3736   26.1874 H   0  0  0  0  0  0
  -28.3937  -32.6791   25.0326 H   0  0  0  0  0  0
  -28.0681  -31.8611   26.5516 H   0  0  0  0  0  0
  -28.2517  -38.0083   24.7577 H   0  0  0  0  0  0
  -28.1133  -36.2614   24.6212 H   0  0  0  0  0  0
  -27.2300  -37.1273   25.8865 H   0  0  0  0  0  0
  -20.9616  -29.8749   21.6673 H   0  0  0  0  0  0
  -26.0137  -38.2781   24.1511 H   0  0  0  0  0  0
  -29.6742  -24.3465   21.7725 H   0  0  0  0  0  0
  -28.2029  -23.4524   22.3436 H   0  0  0  0  0  0
  -28.3774  -18.6388   21.9813 H   0  0  0  0  0  0
  -27.2359  -18.7927   20.6887 H   0  0  0  0  0  0
  -30.2973  -19.3477   18.8770 H   0  0  0  0  0  0
  -31.1183  -20.0664   20.2112 H   0  0  0  0  0  0
  -28.3199  -17.0542   19.3017 H   0  0  0  0  0  0
  -27.9766  -16.4378   20.8883 H   0  0  0  0  0  0
  -31.2130  -17.9180   21.4766 H   0  0  0  0  0  0
  -31.7787  -17.6280   19.8754 H   0  0  0  0  0  0
  -29.8494  -22.9178   19.7544 H   0  0  0  0  0  0
  -26.9001  -24.1963   20.3821 H   0  0  0  0  0  0
  1 25  1  0  0  0
  1 30  2  0  0  0
  1 80  1  0  0  0
  2  3  1  0  0  0
  2 25  1  0  0  0
  2 82  1  0  0  0
  2 83  1  0  0  0
  3  4  1  0  0  0
  3 84  1  0  0  0
  3 85  1  0  0  0
  4  5  1  0  0  0
  4 86  1  0  0  0
  4 87  1  0  0  0
  5  6  1  0  0  0
  5 26  1  0  0  0
  5 88  1  0  0  0
  6 25  1  0  0  0
  6 89  1  0  0  0
  6 90  1  0  0  0
  7  8  2  0  0  0
  7 26  1  0  0  0
  7 29  1  0  0  0
  8  9  1  0  0  0
  8 22  1  0  0  0
  9 10  1  0  0  0
  9 27  2  0  0  0
 10 11  2  0  0  0
 10 15  1  0  0  0
 11 12  1  0  0  0
 11 91  1  0  0  0
 12 13  2  0  0  0
 12 92  1  0  0  0
 13 14  1  0  0  0
 13 31  1  0  0  0
 14 15  2  0  0  0
 14 93  1  0  0  0
 15 94  1  0  0  0
 16 17  2  0  0  0
 16 21  1  0  0  0
 16 31  1  0  0  0
 17 18  1  0  0  0
 17 95  1  0  0  0
 18 19  2  0  0  0
 18 96  1  0  0  0
 19 20  1  0  0  0
 19 24  1  0  0  0
 20 21  2  0  0  0
 20 97  1  0  0  0
 21 23  1  0  0  0
 22 28  1  0  0  0
 22 32  2  0  0  0
 26 27  1  0  0  0
 28 98  1  0  0  0
 28 99  1  0  0  0
 29100  1  0  0  0
 29101  1  0  0  0
 33 34  1  0  0  0
 33 66  1  0  0  0
 33 70  2  0  0  0
 34 36  1  0  0  0
 34 59  1  0  0  0
 34102  1  0  0  0
 35 44  2  0  0  0
 35 45  1  0  0  0
 35 68  1  0  0  0
 36 56  1  0  0  0
 36103  1  0  0  0
 37 39  1  0  0  0
 37 47  1  0  0  0
 37 66  1  0  0  0
 37104  1  0  0  0
 38 43  2  0  0  0
 38 46  1  0  0  0
 38 47  1  0  0  0
 39 64  1  0  0  0
 39 67  2  0  0  0
 40 52  1  0  0  0
 40 53  2  0  0  0
 40 58  1  0  0  0
 41105  1  0  0  0
 41106  1  0  0  0
 41107  1  0  0  0
 41 48  1  0  0  0
 42 43  1  0  0  0
 42 66  1  0  0  0
 42108  1  0  0  0
 42109  1  0  0  0
 43 44  1  0  0  0
 44110  1  0  0  0
 45 46  2  0  0  0
 45111  1  0  0  0
 46112  1  0  0  0
 47113  1  0  0  0
 47114  1  0  0  0
 48 56  1  0  0  0
 48 65  1  0  0  0
 48115  1  0  0  0
 49 50  1  0  0  0
 49 53  1  0  0  0
 49 64  1  0  0  0
 49116  1  0  0  0
 50 51  1  0  0  0
 50117  1  0  0  0
 50118  1  0  0  0
 51 52  1  0  0  0
 51119  1  0  0  0
 51120  1  0  0  0
 52121  1  0  0  0
 52122  1  0  0  0
 53 54  1  0  0  0
 54 55  2  0  0  0
 54123  1  0  0  0
 55 57  1  0  0  0
 55124  1  0  0  0
 56 69  2  0  0  0
 57 58  2  0  0  0
 57125  1  0  0  0
 58126  1  0  0  0
 59 60  1  0  0  0
 59 61  1  0  0  0
 59 62  1  0  0  0
 60127  1  0  0  0
 60128  1  0  0  0
 60129  1  0  0  0
 61130  1  0  0  0
 61131  1  0  0  0
 61132  1  0  0  0
 62133  1  0  0  0
 62134  1  0  0  0
 62135  1  0  0  0
 63 65  1  0  0  0
 63136  1  0  0  0
 63137  1  0  0  0
 63138  1  0  0  0
 64139  1  0  0  0
 65140  1  0  0  0
 68 78  1  0  0  0
 71 79  1  0  0  0
 71 81  2  0  0  0
 71 77  1  0  0  0
 72 77  1  0  0  0
 72 78  1  0  0  0
 72141  1  0  0  0
 72142  1  0  0  0
 73 75  1  0  0  0
 73 79  1  0  0  0
 73143  1  0  0  0
 73144  1  0  0  0
 74 76  1  0  0  0
 74 79  1  0  0  0
 74145  1  0  0  0
 74146  1  0  0  0
 75 80  1  0  0  0
 75147  1  0  0  0
 75148  1  0  0  0
 76 80  1  0  0  0
 76149  1  0  0  0
 76150  1  0  0  0
 77 78  1  0  0  0
 77151  1  0  0  0
 78152  1  0  0  0
M  ISO  4   1 100  68 101  78 101  80 100
M  END
> <chiral flag>
0

> <version>
0

> <s_m_source_file>
/data/baiqing/PycharmProjects/Reinvent-master-3.2/result/LINK_invent/BTK/process_docking_weight1_custom_sum_contain_oxygen_bond_distance_aromatic_linkinvent_7_9_3/rearranged_h_0183.sdf

> <i_m_source_file_index>
10

> <r_mmod_Potential_Energy-OPLS-2005>
1217.16870117188

> <r_mmod_Stretch_Energy-OPLS-2005>
440.422882080078

> <r_mmod_Bend_Energy-OPLS-2005>
450.660034179688

> <r_mmod_Torsional_Energy-OPLS-2005>
380.071228027344

> <r_mmod_Improper_Torsional_Energy-OPLS-2005>
4.59774923324585

> <r_mmod_Van_der_Waal_Energy-OPLS-2005>
120.694320678711

> <r_mmod_Electrostatic_Energy-OPLS-2005>
-297.319610595703

> <r_mmod_Solvation_Energy-OPLS-2005>
-235.991546630859

> <b_mmod_Minimization_Converged-OPLS-2005>
0

> <r_mmod_RMS_Derivative-OPLS-2005>
3.65854573249817

$$$$
10
                    3D
 Structure written by MMmdl.
153162  0  0  1  0            999 V2000
  -30.6365  -14.7959   20.4337 C   0  0  0  0  0  0
  -30.4342  -12.4857   19.4761 C   0  0  0  0  0  0
  -29.5056  -12.4820   18.2418 C   0  0  0  0  0  0
  -28.0444  -12.2836   18.6851 C   0  0  0  0  0  0
  -27.6398  -13.2310   19.8412 C   0  0  2  0  0  0
  -28.6895  -13.2353   20.9754 C   0  0  0  0  0  0
  -25.2522  -13.8181   20.5731 C   0  0  0  0  0  0
  -24.1819  -13.0469   20.9219 C   0  0  0  0  0  0
  -24.6396  -11.6904   20.8755 C   0  0  0  0  0  0
  -23.9079  -10.4296   21.0438 C   0  0  0  0  0  0
  -24.3615   -9.4206   21.9205 C   0  0  0  0  0  0
  -23.6287   -8.2233   22.0767 C   0  0  0  0  0  0
  -22.4275   -8.0280   21.3546 C   0  0  0  0  0  0
  -21.9929   -9.0261   20.4643 C   0  0  0  0  0  0
  -22.7263  -10.2137   20.3070 C   0  0  0  0  0  0
  -21.6843   -6.0747   22.5283 C   0  0  0  0  0  0
  -21.3999   -6.5648   23.8207 C   0  0  0  0  0  0
  -21.3640   -5.6790   24.9170 C   0  0  0  0  0  0
  -21.6045   -4.3057   24.7210 C   0  0  0  0  0  0
  -21.8816   -3.8159   23.4326 C   0  0  0  0  0  0
  -21.9192   -4.6985   22.3401 C   0  0  0  0  0  0
  -22.7827  -13.5227   21.1861 C   0  0  0  0  0  0
  -22.1668   -4.2170   21.0965 F   0  0  0  0  0  0
  -21.5630   -3.4540   25.7728 F   0  0  0  0  0  0
  -29.9884  -13.5771   20.3777 N   0  0  0  0  0  0
  -26.2952  -12.9389   20.3299 N   0  0  0  0  0  0
  -25.9330  -11.6561   20.5808 N   0  0  0  0  0  0
  -22.0461  -12.8211   22.0419 N   0  0  0  0  0  0
  -25.4273  -15.1904   20.4135 N   0  0  0  0  0  0
  -31.8310  -14.8559   20.1341 O   0  0  0  0  0  0
  -21.6629   -6.8886   21.4238 O   0  0  0  0  0  0
  -22.3525  -14.5565   20.6743 O   0  0  0  0  0  0
  -24.6412  -31.8488   23.1876 C   0  0  0  0  0  0
  -25.9199  -32.4754   23.8256 C   0  0  1  0  0  0
  -27.2124  -27.1951   20.1018 C   0  0  0  0  0  0
  -25.5887  -33.8538   24.2153 N   0  0  0  0  0  0
  -23.4385  -30.4669   21.5355 C   0  0  2  0  0  0
  -24.8794  -28.9051   20.1115 C   0  0  0  0  0  0
  -22.7571  -29.4559   22.4914 C   0  0  0  0  0  0
  -18.0299  -28.1425   22.8478 C   0  0  0  0  0  0
  -24.1473  -36.7240   23.2656 C   0  0  0  0  0  0
  -25.9931  -30.7362   21.3803 C   0  0  0  0  0  0
  -26.0607  -29.3514   20.7194 C   0  0  0  0  0  0
  -27.2302  -28.5105   20.7017 C   0  0  0  0  0  0
  -26.0114  -26.8407   19.4535 C   0  0  0  0  0  0
  -24.8644  -27.6597   19.4688 C   0  0  0  0  0  0
  -23.6517  -29.7963   20.1579 C   0  0  0  0  0  0
  -25.4122  -36.3055   24.0309 C   0  0  1  0  0  0
  -20.5913  -28.3732   23.1270 C   0  0  2  0  0  0
  -20.6785  -26.9454   22.5393 C   0  0  0  0  0  0
  -19.5723  -26.6395   21.5236 C   0  0  0  0  0  0
  -18.1913  -26.7958   22.1633 C   0  0  0  0  0  0
  -19.1577  -28.8879   23.2863 C   0  0  0  0  0  0
  -18.9486  -30.1479   23.8886 C   0  0  0  0  0  0
  -17.6516  -30.6615   24.0588 C   0  0  0  0  0  0
  -25.9083  -34.9438   23.5058 C   0  0  0  0  0  0
  -16.5394  -29.9127   23.6374 C   0  0  0  0  0  0
  -16.7298  -28.6545   23.0368 C   0  0  0  0  0  0
  -26.4506  -31.6611   25.0701 C   0  0  0  0  0  0
  -25.3677  -31.3770   26.1386 C   0  0  0  0  0  0
  -27.0400  -30.3035   24.6218 C   0  0  0  0  0  0
  -27.6005  -32.4408   25.7486 C   0  0  0  0  0  0
  -27.5558  -37.1777   24.8478 C   0  0  0  0  0  0
  -21.4274  -29.3055   22.3677 N   0  0  0  0  0  0
  -26.4273  -37.3771   23.9443 N   0  0  0  0  0  0
  -24.7112  -31.0349   22.0900 N   0  0  0  0  0  0
  -23.4228  -28.8087   23.3073 O   0  0  0  0  0  0
  -28.2817  -26.2487   20.0953 O   0  0  0  0  0  0
  -26.5723  -34.8942   22.4677 O   0  0  0  0  0  0
  -23.5536  -32.1368   23.7067 O   0  0  0  0  0  0
  -29.8961  -22.5018   18.1191 C   0  0  0  0  0  0
  -28.8396  -23.4995   19.8401 C   0  0  0  0  0  0
  -29.3922  -21.2151   19.8534 C   0  0  0  0  0  0
  -30.6031  -18.1699   21.7994 C   0  0  0  0  0  0
  -30.5442  -19.6893   21.4697 C   0  0  0  0  0  0
  -29.3935  -18.5574   19.7856 C   0  0  0  0  0  0
  -30.3411  -17.4468   20.4676 C   0  0  2  0  0  0
  -27.9891  -24.7695   20.4077 C   0  0  0  0  0  0
  -29.3942  -23.6327   18.6305 N   0  0  0  0  0  0
  -29.9139  -21.2797   18.6475 N   0  0  0  0  0  0
  -28.8475  -22.2884   20.5073 N   0  0  0  0  0  0
  -29.4976  -19.9051   20.4715 N   0  0  0  0  0  0
  -29.9038  -15.9687   20.6003 N   0  0  0  0  0  0
  -31.4727  -12.6099   19.1577 H   0  0  0  0  0  0
  -30.3907  -11.5272   19.9960 H   0  0  0  0  0  0
  -29.7974  -11.6817   17.5581 H   0  0  0  0  0  0
  -29.6027  -13.4121   17.6817 H   0  0  0  0  0  0
  -27.9586  -11.2496   19.0211 H   0  0  0  0  0  0
  -27.3613  -12.3835   17.8388 H   0  0  0  0  0  0
  -27.6116  -14.2316   19.4102 H   0  0  0  0  0  0
  -28.7352  -12.2689   21.4744 H   0  0  0  0  0  0
  -28.4131  -13.9657   21.7378 H   0  0  0  0  0  0
  -25.2754   -9.5692   22.4807 H   0  0  0  0  0  0
  -23.9996   -7.4630   22.7484 H   0  0  0  0  0  0
  -21.0875   -8.8770   19.8938 H   0  0  0  0  0  0
  -22.3723  -10.9683   19.6183 H   0  0  0  0  0  0
  -21.1963   -7.6155   23.9726 H   0  0  0  0  0  0
  -21.1466   -6.0515   25.9065 H   0  0  0  0  0  0
  -22.0607   -2.7631   23.2816 H   0  0  0  0  0  0
  -22.4044  -11.9812   22.4724 H   0  0  0  0  0  0
  -21.1070  -13.1236   22.2625 H   0  0  0  0  0  0
  -24.6625  -15.8506   20.4963 H   0  0  0  0  0  0
  -26.2863  -15.6218   20.0975 H   0  0  0  0  0  0
  -26.7227  -32.5368   23.0949 H   0  0  0  0  0  0
  -24.9946  -33.9634   25.0246 H   0  0  0  0  0  0
  -22.7384  -31.2936   21.3831 H   0  0  0  0  0  0
  -23.3762  -35.9544   23.3321 H   0  0  0  0  0  0
  -24.3510  -36.8885   22.2048 H   0  0  0  0  0  0
  -23.7177  -37.6420   23.6700 H   0  0  0  0  0  0
  -26.1449  -31.4829   20.6011 H   0  0  0  0  0  0
  -26.8690  -30.7804   22.0149 H   0  0  0  0  0  0
  -28.1366  -28.8539   21.1805 H   0  0  0  0  0  0
  -25.9412  -25.9112   18.9085 H   0  0  0  0  0  0
  -23.9694  -27.3198   18.9689 H   0  0  0  0  0  0
  -23.7649  -30.5684   19.3974 H   0  0  0  0  0  0
  -22.7700  -29.2205   19.8659 H   0  0  0  0  0  0
  -25.1262  -36.1859   25.0783 H   0  0  0  0  0  0
  -20.9979  -28.3314   24.1400 H   0  0  0  0  0  0
  -20.5767  -26.2333   23.3586 H   0  0  0  0  0  0
  -21.6622  -26.7495   22.1131 H   0  0  0  0  0  0
  -19.6943  -25.6357   21.1181 H   0  0  0  0  0  0
  -19.6664  -27.3255   20.6834 H   0  0  0  0  0  0
  -17.4189  -26.6736   21.4042 H   0  0  0  0  0  0
  -18.0301  -26.0114   22.8990 H   0  0  0  0  0  0
  -19.8004  -30.7275   24.2197 H   0  0  0  0  0  0
  -17.5090  -31.6274   24.5199 H   0  0  0  0  0  0
  -15.5410  -30.3017   23.7738 H   0  0  0  0  0  0
  -15.8671  -28.0865   22.7100 H   0  0  0  0  0  0
  -24.5815  -30.7167   25.7684 H   0  0  0  0  0  0
  -24.8904  -32.2947   26.4839 H   0  0  0  0  0  0
  -25.7908  -30.8893   27.0178 H   0  0  0  0  0  0
  -26.3031  -29.6748   24.1206 H   0  0  0  0  0  0
  -27.4112  -29.7288   25.4714 H   0  0  0  0  0  0
  -27.8852  -30.4340   23.9480 H   0  0  0  0  0  0
  -27.2544  -33.3762   26.1914 H   0  0  0  0  0  0
  -28.3873  -32.6914   25.0347 H   0  0  0  0  0  0
  -28.0595  -31.8639   26.5523 H   0  0  0  0  0  0
  -28.2559  -38.0098   24.7527 H   0  0  0  0  0  0
  -28.1063  -36.2599   24.6282 H   0  0  0  0  0  0
  -27.2242  -37.1359   25.8882 H   0  0  0  0  0  0
  -20.9509  -29.8733   21.6815 H   0  0  0  0  0  0
  -26.0137  -38.2846   24.1494 H   0  0  0  0  0  0
  -30.3300  -22.5712   17.1295 H   0  0  0  0  0  0
  -29.8194  -17.9215   22.5159 H   0  0  0  0  0  0
  -31.5558  -17.8841   22.2537 H   0  0  0  0  0  0
  -31.4904  -20.0131   21.0308 H   0  0  0  0  0  0
  -30.3876  -20.3011   22.3601 H   0  0  0  0  0  0
  -28.3522  -18.2337   19.8308 H   0  0  0  0  0  0
  -29.6350  -18.6490   18.7229 H   0  0  0  0  0  0
  -31.2801  -17.4482   19.9095 H   0  0  0  0  0  0
  -27.9818  -24.6898   21.4977 H   0  0  0  0  0  0
  -26.9624  -24.5348   20.1381 H   0  0  0  0  0  0
  -28.9266  -15.8222   20.8018 H   0  0  0  0  0  0
  1 25  1  0  0  0
  1 30  2  0  0  0
  1 83  1  0  0  0
  2  3  1  0  0  0
  2 25  1  0  0  0
  2 84  1  0  0  0
  2 85  1  0  0  0
  3  4  1  0  0  0
  3 86  1  0  0  0
  3 87  1  0  0  0
  4  5  1  0  0  0
  4 88  1  0  0  0
  4 89  1  0  0  0
  5  6  1  0  0  0
  5 26  1  0  0  0
  5 90  1  0  0  0
  6 25  1  0  0  0
  6 91  1  0  0  0
  6 92  1  0  0  0
  7  8  2  0  0  0
  7 26  1  0  0  0
  7 29  1  0  0  0
  8  9  1  0  0  0
  8 22  1  0  0  0
  9 10  1  0  0  0
  9 27  2  0  0  0
 10 11  2  0  0  0
 10 15  1  0  0  0
 11 12  1  0  0  0
 11 93  1  0  0  0
 12 13  2  0  0  0
 12 94  1  0  0  0
 13 14  1  0  0  0
 13 31  1  0  0  0
 14 15  2  0  0  0
 14 95  1  0  0  0
 15 96  1  0  0  0
 16 17  2  0  0  0
 16 21  1  0  0  0
 16 31  1  0  0  0
 17 18  1  0  0  0
 17 97  1  0  0  0
 18 19  2  0  0  0
 18 98  1  0  0  0
 19 20  1  0  0  0
 19 24  1  0  0  0
 20 21  2  0  0  0
 20 99  1  0  0  0
 21 23  1  0  0  0
 22 28  1  0  0  0
 22 32  2  0  0  0
 26 27  1  0  0  0
 28100  1  0  0  0
 28101  1  0  0  0
 29102  1  0  0  0
 29103  1  0  0  0
 33 34  1  0  0  0
 33 66  1  0  0  0
 33 70  2  0  0  0
 34 36  1  0  0  0
 34 59  1  0  0  0
 34104  1  0  0  0
 35 44  2  0  0  0
 35 45  1  0  0  0
 35 68  1  0  0  0
 36 56  1  0  0  0
 36105  1  0  0  0
 37 39  1  0  0  0
 37 47  1  0  0  0
 37 66  1  0  0  0
 37106  1  0  0  0
 38 43  2  0  0  0
 38 46  1  0  0  0
 38 47  1  0  0  0
 39 64  1  0  0  0
 39 67  2  0  0  0
 40 52  1  0  0  0
 40 53  2  0  0  0
 40 58  1  0  0  0
 41107  1  0  0  0
 41108  1  0  0  0
 41109  1  0  0  0
 41 48  1  0  0  0
 42 43  1  0  0  0
 42 66  1  0  0  0
 42110  1  0  0  0
 42111  1  0  0  0
 43 44  1  0  0  0
 44112  1  0  0  0
 45 46  2  0  0  0
 45113  1  0  0  0
 46114  1  0  0  0
 47115  1  0  0  0
 47116  1  0  0  0
 48 56  1  0  0  0
 48 65  1  0  0  0
 48117  1  0  0  0
 49 50  1  0  0  0
 49 53  1  0  0  0
 49 64  1  0  0  0
 49118  1  0  0  0
 50 51  1  0  0  0
 50119  1  0  0  0
 50120  1  0  0  0
 51 52  1  0  0  0
 51121  1  0  0  0
 51122  1  0  0  0
 52123  1  0  0  0
 52124  1  0  0  0
 53 54  1  0  0  0
 54 55  2  0  0  0
 54125  1  0  0  0
 55 57  1  0  0  0
 55126  1  0  0  0
 56 69  2  0  0  0
 57 58  2  0  0  0
 57127  1  0  0  0
 58128  1  0  0  0
 59 60  1  0  0  0
 59 61  1  0  0  0
 59 62  1  0  0  0
 60129  1  0  0  0
 60130  1  0  0  0
 60131  1  0  0  0
 61132  1  0  0  0
 61133  1  0  0  0
 61134  1  0  0  0
 62135  1  0  0  0
 62136  1  0  0  0
 62137  1  0  0  0
 63 65  1  0  0  0
 63138  1  0  0  0
 63139  1  0  0  0
 63140  1  0  0  0
 64141  1  0  0  0
 65142  1  0  0  0
 68 78  1  0  0  0
 71 79  2  0  0  0
 71 80  1  0  0  0
 71143  1  0  0  0
 72 78  1  0  0  0
 72 79  1  0  0  0
 72 81  2  0  0  0
 73 80  2  0  0  0
 73 81  1  0  0  0
 73 82  1  0  0  0
 74 75  1  0  0  0
 74 77  1  0  0  0
 74144  1  0  0  0
 74145  1  0  0  0
 75 82  1  0  0  0
 75146  1  0  0  0
 75147  1  0  0  0
 76 77  1  0  0  0
 76 82  1  0  0  0
 76148  1  0  0  0
 76149  1  0  0  0
 77 83  1  0  0  0
 77150  1  0  0  0
 78151  1  0  0  0
 78152  1  0  0  0
 83153  1  0  0  0
M  ISO  4   1 100  68 101  78 101  83 100
M  END
> <chiral flag>
0

> <version>
0

> <s_m_source_file>
/data/baiqing/PycharmProjects/Reinvent-master-3.2/result/LINK_invent/BTK/process_docking_weight1_custom_sum_contain_oxygen_bond_distance_aromatic_linkinvent_7_9_3/rearranged_h_0183.sdf

> <i_m_source_file_index>
11

> <r_mmod_Potential_Energy-OPLS-2005>
-474.420867919922

> <r_mmod_Stretch_Energy-OPLS-2005>
152.114974975586

> <r_mmod_Bend_Energy-OPLS-2005>
203.614822387695

> <r_mmod_Torsional_Energy-OPLS-2005>
278.428924560547

> <r_mmod_Improper_Torsional_Energy-OPLS-2005>
9.427565574646

> <r_mmod_Van_der_Waal_Energy-OPLS-2005>
152.133773803711

> <r_mmod_Electrostatic_Energy-OPLS-2005>
-1135.56225585938

> <r_mmod_Solvation_Energy-OPLS-2005>
-256.172698974609

> <b_mmod_Minimization_Converged-OPLS-2005>
0

> <r_mmod_RMS_Derivative-OPLS-2005>
8.12048530578613

$$$$
11
                    3D
 Structure written by MMmdl.
159169  0  0  1  0            999 V2000
  -30.5381  -14.9547   20.4144 C   0  0  0  0  0  0
  -30.4414  -12.5903   19.5005 C   0  0  0  0  0  0
  -29.5231  -12.5309   18.2576 C   0  0  0  0  0  0
  -28.0564  -12.3143   18.6754 C   0  0  0  0  0  0
  -27.6303  -13.2477   19.8386 C   0  0  2  0  0  0
  -28.6726  -13.2785   20.9769 C   0  0  0  0  0  0
  -25.2463  -13.8213   20.5705 C   0  0  0  0  0  0
  -24.1780  -13.0437   20.9226 C   0  0  0  0  0  0
  -24.6395  -11.6923   20.8752 C   0  0  0  0  0  0
  -23.9078  -10.4292   21.0405 C   0  0  0  0  0  0
  -24.3625   -9.4206   21.9184 C   0  0  0  0  0  0
  -23.6296   -8.2243   22.0755 C   0  0  0  0  0  0
  -22.4278   -8.0281   21.3545 C   0  0  0  0  0  0
  -21.9915   -9.0256   20.4648 C   0  0  0  0  0  0
  -22.7248  -10.2133   20.3056 C   0  0  0  0  0  0
  -21.6855   -6.0734   22.5278 C   0  0  0  0  0  0
  -21.4017   -6.5638   23.8211 C   0  0  0  0  0  0
  -21.3660   -5.6791   24.9174 C   0  0  0  0  0  0
  -21.6043   -4.3054   24.7226 C   0  0  0  0  0  0
  -21.8817   -3.8145   23.4346 C   0  0  0  0  0  0
  -21.9194   -4.6961   22.3402 C   0  0  0  0  0  0
  -22.7798  -13.5209   21.1876 C   0  0  0  0  0  0
  -22.1661   -4.2146   21.0980 F   0  0  0  0  0  0
  -21.5628   -3.4539   25.7739 F   0  0  0  0  0  0
  -29.9485  -13.6908   20.3783 N   0  0  0  0  0  0
  -26.2887  -12.9446   20.3239 N   0  0  0  0  0  0
  -25.9327  -11.6575   20.5736 N   0  0  0  0  0  0
  -22.0448  -12.8201   22.0434 N   0  0  0  0  0  0
  -25.4122  -15.1943   20.4118 N   0  0  0  0  0  0
  -31.7429  -15.0206   20.1476 O   0  0  0  0  0  0
  -21.6642   -6.8877   21.4240 O   0  0  0  0  0  0
  -22.3482  -14.5514   20.6720 O   0  0  0  0  0  0
  -24.6457  -31.8429   23.1878 C   0  0  0  0  0  0
  -25.9221  -32.4689   23.8270 C   0  0  1  0  0  0
  -27.2136  -27.1178   20.1493 C   0  0  0  0  0  0
  -25.5962  -33.8495   24.2185 N   0  0  0  0  0  0
  -23.4498  -30.4634   21.5341 C   0  0  2  0  0  0
  -24.8991  -28.8908   20.1090 C   0  0  0  0  0  0
  -22.7579  -29.4544   22.4853 C   0  0  0  0  0  0
  -18.0308  -28.1397   22.8475 C   0  0  0  0  0  0
  -24.1494  -36.7254   23.2642 C   0  0  0  0  0  0
  -26.0082  -30.7106   21.3901 C   0  0  0  0  0  0
  -26.0785  -29.3211   20.7301 C   0  0  0  0  0  0
  -27.2365  -28.4512   20.7338 C   0  0  0  0  0  0
  -26.0072  -26.8002   19.4833 C   0  0  0  0  0  0
  -24.8778  -27.6443   19.4696 C   0  0  0  0  0  0
  -23.6770  -29.7949   20.1530 C   0  0  0  0  0  0
  -25.4126  -36.3029   24.0313 C   0  0  1  0  0  0
  -20.5922  -28.3727   23.1229 C   0  0  2  0  0  0
  -20.6793  -26.9428   22.5401 C   0  0  0  0  0  0
  -19.5766  -26.6382   21.5211 C   0  0  0  0  0  0
  -18.1947  -26.7935   22.1623 C   0  0  0  0  0  0
  -19.1564  -28.8880   23.2844 C   0  0  0  0  0  0
  -18.9479  -30.1475   23.8872 C   0  0  0  0  0  0
  -17.6474  -30.6592   24.0559 C   0  0  0  0  0  0
  -25.9077  -34.9404   23.5058 C   0  0  0  0  0  0
  -16.5366  -29.9083   23.6337 C   0  0  0  0  0  0
  -16.7292  -28.6503   23.0356 C   0  0  0  0  0  0
  -26.4531  -31.6561   25.0719 C   0  0  0  0  0  0
  -25.3706  -31.3757   26.1407 C   0  0  0  0  0  0
  -27.0398  -30.2954   24.6317 C   0  0  0  0  0  0
  -27.6057  -32.4329   25.7508 C   0  0  0  0  0  0
  -27.5574  -37.1788   24.8466 C   0  0  0  0  0  0
  -21.4269  -29.3050   22.3600 N   0  0  0  0  0  0
  -26.4290  -37.3741   23.9402 N   0  0  0  0  0  0
  -24.7214  -31.0271   22.0922 N   0  0  0  0  0  0
  -23.4215  -28.8089   23.3008 O   0  0  0  0  0  0
  -28.2457  -26.1038   20.2312 O   0  0  0  0  0  0
  -26.5662  -34.8903   22.4637 O   0  0  0  0  0  0
  -23.5571  -32.1313   23.7088 O   0  0  0  0  0  0
  -28.4218  -21.8159   20.1566 C   0  0  0  0  0  0
  -29.3514  -20.6960   20.4373 C   0  0  0  0  0  0
  -28.8190  -23.2409   20.2967 C   0  0  0  0  0  0
  -30.8837  -22.3889   20.9177 C   0  0  0  0  0  0
  -26.6877  -20.5352   18.6417 C   0  0  0  0  0  0
  -26.3978  -22.0056   18.4788 C   0  0  0  0  0  0
  -29.3598  -18.3041   19.1621 C   0  0  0  0  0  0
  -27.0067  -21.4949   19.7668 C   0  0  0  0  0  0
  -29.1046  -19.0478   20.4476 C   0  0  1  0  0  0
  -30.0640  -17.6568   20.3315 C   0  0  1  0  0  0
  -32.2950  -22.7151   21.3564 C   0  0  0  0  0  0
  -27.8903  -24.5919   20.0252 C   0  0  0  0  0  0
  -30.5837  -21.0860   20.8224 N   0  0  0  0  0  0
  -30.0940  -23.4440   20.6845 N   0  0  0  0  0  0
  -29.7447  -16.1347   20.5193 N   0  0  0  0  0  0
  -31.4753  -12.7481   19.1897 H   0  0  0  0  0  0
  -30.4337  -11.6391   20.0353 H   0  0  0  0  0  0
  -29.8440  -11.7339   17.5854 H   0  0  0  0  0  0
  -29.6096  -13.4612   17.6940 H   0  0  0  0  0  0
  -27.9545  -11.2737   18.9853 H   0  0  0  0  0  0
  -27.3930  -12.4436   17.8195 H   0  0  0  0  0  0
  -27.5930  -14.2489   19.4087 H   0  0  0  0  0  0
  -28.7597  -12.3036   21.4590 H   0  0  0  0  0  0
  -28.3717  -13.9825   21.7543 H   0  0  0  0  0  0
  -25.2766   -9.5685   22.4763 H   0  0  0  0  0  0
  -24.0004   -7.4635   22.7476 H   0  0  0  0  0  0
  -21.0845   -8.8777   19.8955 H   0  0  0  0  0  0
  -22.3702  -10.9673   19.6168 H   0  0  0  0  0  0
  -21.2012   -7.6147   23.9713 H   0  0  0  0  0  0
  -21.1483   -6.0523   25.9076 H   0  0  0  0  0  0
  -22.0597   -2.7608   23.2848 H   0  0  0  0  0  0
  -22.4071  -11.9872   22.4833 H   0  0  0  0  0  0
  -21.1061  -13.1223   22.2632 H   0  0  0  0  0  0
  -24.6380  -15.8412   20.5159 H   0  0  0  0  0  0
  -26.2460  -15.6339   20.0455 H   0  0  0  0  0  0
  -26.7287  -32.5290   23.0997 H   0  0  0  0  0  0
  -25.0086  -33.9607   25.0317 H   0  0  0  0  0  0
  -22.7532  -31.2902   21.3800 H   0  0  0  0  0  0
  -23.3757  -35.9585   23.3301 H   0  0  0  0  0  0
  -24.3575  -36.8889   22.2057 H   0  0  0  0  0  0
  -23.7252  -37.6451   23.6681 H   0  0  0  0  0  0
  -26.1668  -31.4646   20.6178 H   0  0  0  0  0  0
  -26.8776  -30.7603   22.0340 H   0  0  0  0  0  0
  -28.1317  -28.7743   21.2464 H   0  0  0  0  0  0
  -25.8892  -25.8521   18.9821 H   0  0  0  0  0  0
  -23.9786  -27.3110   18.9698 H   0  0  0  0  0  0
  -23.8154  -30.5702   19.3987 H   0  0  0  0  0  0
  -22.7911  -29.2388   19.8412 H   0  0  0  0  0  0
  -25.1317  -36.1855   25.0806 H   0  0  0  0  0  0
  -21.0012  -28.3318   24.1351 H   0  0  0  0  0  0
  -20.5688  -26.2341   23.3623 H   0  0  0  0  0  0
  -21.6659  -26.7434   22.1199 H   0  0  0  0  0  0
  -19.6928  -25.6286   21.1259 H   0  0  0  0  0  0
  -19.6703  -27.3177   20.6728 H   0  0  0  0  0  0
  -17.4216  -26.6676   21.4027 H   0  0  0  0  0  0
  -18.0349  -26.0084   22.9027 H   0  0  0  0  0  0
  -19.7954  -30.7299   24.2230 H   0  0  0  0  0  0
  -17.5027  -31.6269   24.5165 H   0  0  0  0  0  0
  -15.5365  -30.2977   23.7675 H   0  0  0  0  0  0
  -15.8692  -28.0813   22.7085 H   0  0  0  0  0  0
  -24.5898  -30.7092   25.7724 H   0  0  0  0  0  0
  -24.8881  -32.2941   26.4761 H   0  0  0  0  0  0
  -25.7981  -30.8977   27.0230 H   0  0  0  0  0  0
  -26.3021  -29.6672   24.1312 H   0  0  0  0  0  0
  -27.3987  -29.7259   25.4900 H   0  0  0  0  0  0
  -27.8940  -30.4181   23.9655 H   0  0  0  0  0  0
  -27.2650  -33.3652   26.2022 H   0  0  0  0  0  0
  -28.3903  -32.6850   25.0362 H   0  0  0  0  0  0
  -28.0686  -31.8495   26.5477 H   0  0  0  0  0  0
  -28.2592  -38.0082   24.7497 H   0  0  0  0  0  0
  -28.1070  -36.2611   24.6314 H   0  0  0  0  0  0
  -27.2288  -37.1462   25.8868 H   0  0  0  0  0  0
  -20.9484  -29.8764   21.6776 H   0  0  0  0  0  0
  -26.0156  -38.2813   24.1391 H   0  0  0  0  0  0
  -27.5023  -20.1354   18.0414 H   0  0  0  0  0  0
  -25.8295  -19.8761   18.7610 H   0  0  0  0  0  0
  -25.3500  -22.3015   18.4900 H   0  0  0  0  0  0
  -27.0270  -22.5452   17.7734 H   0  0  0  0  0  0
  -30.0056  -18.7848   18.4297 H   0  0  0  0  0  0
  -28.5027  -17.7925   18.7294 H   0  0  0  0  0  0
  -26.3654  -21.4638   20.6466 H   0  0  0  0  0  0
  -28.1397  -18.8840   20.9229 H   0  0  0  0  0  0
  -31.1225  -17.8846   20.4455 H   0  0  0  0  0  0
  -32.8797  -21.8127   21.5362 H   0  0  0  0  0  0
  -32.2811  -23.2953   22.2789 H   0  0  0  0  0  0
  -32.8051  -23.3004   20.5915 H   0  0  0  0  0  0
  -26.9720  -24.4134   20.5855 H   0  0  0  0  0  0
  -27.6166  -24.5086   18.9747 H   0  0  0  0  0  0
  -28.7747  -15.9388   20.7162 H   0  0  0  0  0  0
  1 25  1  0  0  0
  1 30  2  0  0  0
  1 85  1  0  0  0
  2  3  1  0  0  0
  2 25  1  0  0  0
  2 86  1  0  0  0
  2 87  1  0  0  0
  3  4  1  0  0  0
  3 88  1  0  0  0
  3 89  1  0  0  0
  4  5  1  0  0  0
  4 90  1  0  0  0
  4 91  1  0  0  0
  5  6  1  0  0  0
  5 26  1  0  0  0
  5 92  1  0  0  0
  6 25  1  0  0  0
  6 93  1  0  0  0
  6 94  1  0  0  0
  7  8  2  0  0  0
  7 26  1  0  0  0
  7 29  1  0  0  0
  8  9  1  0  0  0
  8 22  1  0  0  0
  9 10  1  0  0  0
  9 27  2  0  0  0
 10 11  2  0  0  0
 10 15  1  0  0  0
 11 12  1  0  0  0
 11 95  1  0  0  0
 12 13  2  0  0  0
 12 96  1  0  0  0
 13 14  1  0  0  0
 13 31  1  0  0  0
 14 15  2  0  0  0
 14 97  1  0  0  0
 15 98  1  0  0  0
 16 17  2  0  0  0
 16 21  1  0  0  0
 16 31  1  0  0  0
 17 18  1  0  0  0
 17 99  1  0  0  0
 18 19  2  0  0  0
 18100  1  0  0  0
 19 20  1  0  0  0
 19 24  1  0  0  0
 20 21  2  0  0  0
 20101  1  0  0  0
 21 23  1  0  0  0
 22 28  1  0  0  0
 22 32  2  0  0  0
 26 27  1  0  0  0
 28102  1  0  0  0
 28103  1  0  0  0
 29104  1  0  0  0
 29105  1  0  0  0
 33 34  1  0  0  0
 33 66  1  0  0  0
 33 70  2  0  0  0
 34 36  1  0  0  0
 34 59  1  0  0  0
 34106  1  0  0  0
 35 44  2  0  0  0
 35 45  1  0  0  0
 35 68  1  0  0  0
 36 56  1  0  0  0
 36107  1  0  0  0
 37 39  1  0  0  0
 37 47  1  0  0  0
 37 66  1  0  0  0
 37108  1  0  0  0
 38 43  2  0  0  0
 38 46  1  0  0  0
 38 47  1  0  0  0
 39 64  1  0  0  0
 39 67  2  0  0  0
 40 52  1  0  0  0
 40 53  2  0  0  0
 40 58  1  0  0  0
 41109  1  0  0  0
 41110  1  0  0  0
 41111  1  0  0  0
 41 48  1  0  0  0
 42 43  1  0  0  0
 42 66  1  0  0  0
 42112  1  0  0  0
 42113  1  0  0  0
 43 44  1  0  0  0
 44114  1  0  0  0
 45 46  2  0  0  0
 45115  1  0  0  0
 46116  1  0  0  0
 47117  1  0  0  0
 47118  1  0  0  0
 48 56  1  0  0  0
 48 65  1  0  0  0
 48119  1  0  0  0
 49 50  1  0  0  0
 49 53  1  0  0  0
 49 64  1  0  0  0
 49120  1  0  0  0
 50 51  1  0  0  0
 50121  1  0  0  0
 50122  1  0  0  0
 51 52  1  0  0  0
 51123  1  0  0  0
 51124  1  0  0  0
 52125  1  0  0  0
 52126  1  0  0  0
 53 54  1  0  0  0
 54 55  2  0  0  0
 54127  1  0  0  0
 55 57  1  0  0  0
 55128  1  0  0  0
 56 69  2  0  0  0
 57 58  2  0  0  0
 57129  1  0  0  0
 58130  1  0  0  0
 59 60  1  0  0  0
 59 61  1  0  0  0
 59 62  1  0  0  0
 60131  1  0  0  0
 60132  1  0  0  0
 60133  1  0  0  0
 61134  1  0  0  0
 61135  1  0  0  0
 61136  1  0  0  0
 62137  1  0  0  0
 62138  1  0  0  0
 62139  1  0  0  0
 63 65  1  0  0  0
 63140  1  0  0  0
 63141  1  0  0  0
 63142  1  0  0  0
 64143  1  0  0  0
 65144  1  0  0  0
 68 82  1  0  0  0
 71 72  2  0  0  0
 71 73  1  0  0  0
 71 78  1  0  0  0
 72 83  1  0  0  0
 72 79  1  0  0  0
 73 82  1  0  0  0
 73 84  2  0  0  0
 74 81  1  0  0  0
 74 83  2  0  0  0
 74 84  1  0  0  0
 75 76  1  0  0  0
 75 78  1  0  0  0
 75145  1  0  0  0
 75146  1  0  0  0
 76 78  1  0  0  0
 76147  1  0  0  0
 76148  1  0  0  0
 77 79  1  0  0  0
 77 80  1  0  0  0
 77149  1  0  0  0
 77150  1  0  0  0
 78151  1  0  0  0
 79 80  1  0  0  0
 79152  1  0  0  0
 80 85  1  0  0  0
 80153  1  0  0  0
 81154  1  0  0  0
 81155  1  0  0  0
 81156  1  0  0  0
 82157  1  0  0  0
 82158  1  0  0  0
 85159  1  0  0  0
M  ISO  4   1 100  68 101  82 101  85 100
M  END
> <chiral flag>
0

> <version>
0

> <s_m_source_file>
/data/baiqing/PycharmProjects/Reinvent-master-3.2/result/LINK_invent/BTK/process_docking_weight1_custom_sum_contain_oxygen_bond_distance_aromatic_linkinvent_7_9_3/rearranged_h_0183.sdf

> <i_m_source_file_index>
12

> <r_mmod_Potential_Energy-OPLS-2005>
219.497177124023

> <r_mmod_Stretch_Energy-OPLS-2005>
278.691375732422

> <r_mmod_Bend_Energy-OPLS-2005>
242.547378540039

> <r_mmod_Torsional_Energy-OPLS-2005>
284.720123291016

> <r_mmod_Improper_Torsional_Energy-OPLS-2005>
5.4073314666748

> <r_mmod_Van_der_Waal_Energy-OPLS-2005>
130.754333496094

> <r_mmod_Electrostatic_Energy-OPLS-2005>
-677.57763671875

> <r_mmod_Solvation_Energy-OPLS-2005>
-250.554824829102

> <b_mmod_Minimization_Converged-OPLS-2005>
0

> <r_mmod_RMS_Derivative-OPLS-2005>
0.369525134563446

$$$$
12
                    3D
 Structure written by MMmdl.
164173  0  0  1  0            999 V2000
  -30.5828  -14.7691   20.4697 C   0  0  0  0  0  0
  -30.4399  -12.4753   19.4685 C   0  0  0  0  0  0
  -29.5110  -12.5110   18.2338 C   0  0  0  0  0  0
  -28.0378  -12.3269   18.6491 C   0  0  0  0  0  0
  -27.6401  -13.2268   19.8484 C   0  0  2  0  0  0
  -28.6853  -13.1586   20.9825 C   0  0  0  0  0  0
  -25.2510  -13.8178   20.5690 C   0  0  0  0  0  0
  -24.1801  -13.0436   20.9216 C   0  0  0  0  0  0
  -24.6382  -11.6910   20.8745 C   0  0  0  0  0  0
  -23.9060  -10.4288   21.0398 C   0  0  0  0  0  0
  -24.3614   -9.4204   21.9176 C   0  0  0  0  0  0
  -23.6291   -8.2238   22.0752 C   0  0  0  0  0  0
  -22.4277   -8.0270   21.3536 C   0  0  0  0  0  0
  -21.9906   -9.0242   20.4643 C   0  0  0  0  0  0
  -22.7231  -10.2123   20.3048 C   0  0  0  0  0  0
  -21.6852   -6.0727   22.5277 C   0  0  0  0  0  0
  -21.4012   -6.5637   23.8207 C   0  0  0  0  0  0
  -21.3657   -5.6790   24.9170 C   0  0  0  0  0  0
  -21.6047   -4.3054   24.7224 C   0  0  0  0  0  0
  -21.8822   -3.8142   23.4347 C   0  0  0  0  0  0
  -21.9193   -4.6955   22.3401 C   0  0  0  0  0  0
  -22.7827  -13.5219   21.1874 C   0  0  0  0  0  0
  -22.1664   -4.2141   21.0979 F   0  0  0  0  0  0
  -21.5630   -3.4538   25.7736 F   0  0  0  0  0  0
  -29.9806  -13.5308   20.4000 N   0  0  0  0  0  0
  -26.2923  -12.9371   20.3257 N   0  0  0  0  0  0
  -25.9306  -11.6525   20.5742 N   0  0  0  0  0  0
  -22.0471  -12.8200   22.0429 N   0  0  0  0  0  0
  -25.4210  -15.1900   20.4083 N   0  0  0  0  0  0
  -31.7757  -14.8862   20.1755 O   0  0  0  0  0  0
  -21.6639   -6.8867   21.4238 O   0  0  0  0  0  0
  -22.3517  -14.5521   20.6718 O   0  0  0  0  0  0
  -24.6352  -31.8527   23.1970 C   0  0  0  0  0  0
  -25.9173  -32.4743   23.8322 C   0  0  1  0  0  0
  -27.2188  -27.2342   20.1514 C   0  0  0  0  0  0
  -25.5980  -33.8549   24.2255 N   0  0  0  0  0  0
  -23.4311  -30.4748   21.5399 C   0  0  2  0  0  0
  -24.8779  -28.9067   20.1238 C   0  0  0  0  0  0
  -22.7501  -29.4604   22.4905 C   0  0  0  0  0  0
  -18.0283  -28.1376   22.8489 C   0  0  0  0  0  0
  -24.1481  -36.7256   23.2639 C   0  0  0  0  0  0
  -25.9783  -30.7565   21.3801 C   0  0  0  0  0  0
  -26.0494  -29.3713   20.7356 C   0  0  0  0  0  0
  -27.2231  -28.5475   20.7379 C   0  0  0  0  0  0
  -26.0265  -26.8406   19.5127 C   0  0  0  0  0  0
  -24.8706  -27.6474   19.5027 C   0  0  0  0  0  0
  -23.6519  -29.8004   20.1600 C   0  0  0  0  0  0
  -25.4121  -36.3068   24.0323 C   0  0  1  0  0  0
  -20.5892  -28.3696   23.1254 C   0  0  2  0  0  0
  -20.6776  -26.9408   22.5408 C   0  0  0  0  0  0
  -19.5759  -26.6372   21.5208 C   0  0  0  0  0  0
  -18.1932  -26.7925   22.1610 C   0  0  0  0  0  0
  -19.1538  -28.8847   23.2867 C   0  0  0  0  0  0
  -18.9464  -30.1451   23.8880 C   0  0  0  0  0  0
  -17.6467  -30.6585   24.0556 C   0  0  0  0  0  0
  -25.9070  -34.9440   23.5088 C   0  0  0  0  0  0
  -16.5353  -29.9086   23.6343 C   0  0  0  0  0  0
  -16.7271  -28.6495   23.0378 C   0  0  0  0  0  0
  -26.4539  -31.6592   25.0727 C   0  0  0  0  0  0
  -25.3766  -31.3743   26.1447 C   0  0  0  0  0  0
  -27.0400  -30.3008   24.6241 C   0  0  0  0  0  0
  -27.6078  -32.4352   25.7509 C   0  0  0  0  0  0
  -27.5573  -37.1789   24.8469 C   0  0  0  0  0  0
  -21.4203  -29.3048   22.3634 N   0  0  0  0  0  0
  -26.4284  -37.3782   23.9422 N   0  0  0  0  0  0
  -24.7007  -31.0481   22.0951 N   0  0  0  0  0  0
  -23.4189  -28.8142   23.3009 O   0  0  0  0  0  0
  -28.3354  -26.3655   20.0792 O   0  0  0  0  0  0
  -26.5616  -34.8917   22.4642 O   0  0  0  0  0  0
  -23.5503  -32.1350   23.7269 O   0  0  0  0  0  0
  -28.3473  -23.7527   19.8942 C   0  0  0  0  0  0
  -28.7023  -22.5199   20.5949 C   0  0  0  0  0  0
  -28.4097  -25.0259   20.6016 C   0  0  0  0  0  0
  -29.1056  -23.8202   22.4534 C   0  0  0  0  0  0
  -30.9590  -18.0697   19.7553 C   0  0  0  0  0  0
  -30.7529  -19.6181   19.9255 C   0  0  0  0  0  0
  -28.8797  -18.4657   20.7768 C   0  0  0  0  0  0
  -30.0674  -17.3938   20.8099 C   0  0  1  0  0  0
  -29.5217  -23.8610   23.9067 C   0  0  0  0  0  0
  -26.5060  -23.1440   18.2215 C   0  0  0  0  0  0
  -28.5840  -21.0106   20.0582 C   0  0  0  0  0  0
  -27.9302  -23.6883   18.4258 C   0  0  1  0  0  0
  -29.0879  -22.6153   21.8814 N   0  0  0  0  0  0
  -28.7964  -24.9887   21.8921 N   0  0  0  0  0  0
  -29.7737  -15.8831   20.6771 N   0  0  0  0  0  0
  -29.4608  -19.8697   20.6258 N   0  3  2  0  0  0
  -28.0177  -24.8816   17.8423 F   0  0  0  0  0  0
  -31.4768  -12.6219   19.1623 H   0  0  0  0  0  0
  -30.4043  -11.4981   19.9526 H   0  0  0  0  0  0
  -29.7974  -11.7360   17.5214 H   0  0  0  0  0  0
  -29.6277  -13.4635   17.7141 H   0  0  0  0  0  0
  -27.9012  -11.2790   18.9170 H   0  0  0  0  0  0
  -27.3776  -12.5128   17.8014 H   0  0  0  0  0  0
  -27.6332  -14.2474   19.4660 H   0  0  0  0  0  0
  -28.7308  -12.1555   21.4097 H   0  0  0  0  0  0
  -28.4148  -13.8273   21.8008 H   0  0  0  0  0  0
  -25.2757   -9.5687   22.4753 H   0  0  0  0  0  0
  -24.0000   -7.4628   22.7474 H   0  0  0  0  0  0
  -21.0834   -8.8759   19.8947 H   0  0  0  0  0  0
  -22.3683  -10.9661   19.6161 H   0  0  0  0  0  0
  -21.2004   -7.6146   23.9707 H   0  0  0  0  0  0
  -21.1478   -6.0521   25.9071 H   0  0  0  0  0  0
  -22.0601   -2.7606   23.2843 H   0  0  0  0  0  0
  -22.4101  -11.9857   22.4796 H   0  0  0  0  0  0
  -21.1084  -13.1210   22.2640 H   0  0  0  0  0  0
  -24.6450  -15.8365   20.5007 H   0  0  0  0  0  0
  -26.2496  -15.6208   20.0215 H   0  0  0  0  0  0
  -26.7235  -32.5386   23.1056 H   0  0  0  0  0  0
  -25.0267  -33.9681   25.0497 H   0  0  0  0  0  0
  -22.7316  -31.2992   21.3888 H   0  0  0  0  0  0
  -23.3766  -35.9562   23.3304 H   0  0  0  0  0  0
  -24.3570  -36.8873   22.2051 H   0  0  0  0  0  0
  -23.7196  -37.6443   23.6660 H   0  0  0  0  0  0
  -26.1207  -31.5077   20.6018 H   0  0  0  0  0  0
  -26.8575  -30.8110   22.0112 H   0  0  0  0  0  0
  -28.1288  -28.9098   21.2048 H   0  0  0  0  0  0
  -25.9864  -25.8875   19.0126 H   0  0  0  0  0  0
  -23.9763  -27.2873   19.0132 H   0  0  0  0  0  0
  -23.7828  -30.5713   19.3997 H   0  0  0  0  0  0
  -22.7701  -29.2343   19.8547 H   0  0  0  0  0  0
  -25.1303  -36.1914   25.0814 H   0  0  0  0  0  0
  -20.9989  -28.3279   24.1373 H   0  0  0  0  0  0
  -20.5683  -26.2300   23.3616 H   0  0  0  0  0  0
  -21.6641  -26.7449   22.1189 H   0  0  0  0  0  0
  -19.6930  -25.6283   21.1243 H   0  0  0  0  0  0
  -19.6709  -27.3168   20.6729 H   0  0  0  0  0  0
  -17.4219  -26.6682   21.3993 H   0  0  0  0  0  0
  -18.0324  -26.0050   22.8988 H   0  0  0  0  0  0
  -19.7944  -30.7260   24.2237 H   0  0  0  0  0  0
  -17.5035  -31.6269   24.5150 H   0  0  0  0  0  0
  -15.5361  -30.2994   23.7676 H   0  0  0  0  0  0
  -15.8665  -28.0810   22.7129 H   0  0  0  0  0  0
  -24.5956  -30.7067   25.7789 H   0  0  0  0  0  0
  -24.8944  -32.2909   26.4858 H   0  0  0  0  0  0
  -25.8099  -30.8956   27.0237 H   0  0  0  0  0  0
  -26.2990  -29.6733   24.1272 H   0  0  0  0  0  0
  -27.4078  -29.7306   25.4784 H   0  0  0  0  0  0
  -27.8876  -30.4282   23.9499 H   0  0  0  0  0  0
  -27.2675  -33.3676   26.2030 H   0  0  0  0  0  0
  -28.3925  -32.6872   25.0362 H   0  0  0  0  0  0
  -28.0706  -31.8518   26.5480 H   0  0  0  0  0  0
  -28.2597  -38.0083   24.7542 H   0  0  0  0  0  0
  -28.1057  -36.2620   24.6272 H   0  0  0  0  0  0
  -27.2285  -37.1397   25.8866 H   0  0  0  0  0  0
  -20.9383  -29.8770   21.6834 H   0  0  0  0  0  0
  -26.0154  -38.2845   24.1460 H   0  0  0  0  0  0
  -32.0079  -17.7886   19.8551 H   0  0  0  0  0  0
  -30.6397  -17.7700   18.7557 H   0  0  0  0  0  0
  -30.7974  -20.1120   18.9546 H   0  0  0  0  0  0
  -31.5559  -20.0432   20.5289 H   0  0  0  0  0  0
  -28.2520  -18.4037   21.6666 H   0  0  0  0  0  0
  -28.2347  -18.2629   19.9205 H   0  0  0  0  0  0
  -30.5659  -17.5039   21.7743 H   0  0  0  0  0  0
  -30.3122  -23.1366   24.1047 H   0  0  0  0  0  0
  -28.6710  -23.6216   24.5444 H   0  0  0  0  0  0
  -29.8951  -24.8469   24.1856 H   0  0  0  0  0  0
  -26.4019  -22.1189   18.5745 H   0  0  0  0  0  0
  -26.2432  -23.1427   17.1639 H   0  0  0  0  0  0
  -25.7578  -23.7396   18.7433 H   0  0  0  0  0  0
  -28.6510  -20.9961   18.9722 H   0  0  0  0  0  0
  -27.5540  -20.7290   20.2748 H   0  0  0  0  0  0
  -28.6443  -23.0667   17.8832 H   0  0  0  0  0  0
  -28.8098  -15.6346   20.8435 H   0  0  0  0  0  0
  -29.6873  -20.1956   21.5553 H   0  0  0  0  0  0
  1 25  1  0  0  0
  1 30  2  0  0  0
  1 85  1  0  0  0
  2  3  1  0  0  0
  2 25  1  0  0  0
  2 88  1  0  0  0
  2 89  1  0  0  0
  3  4  1  0  0  0
  3 90  1  0  0  0
  3 91  1  0  0  0
  4  5  1  0  0  0
  4 92  1  0  0  0
  4 93  1  0  0  0
  5  6  1  0  0  0
  5 26  1  0  0  0
  5 94  1  0  0  0
  6 25  1  0  0  0
  6 95  1  0  0  0
  6 96  1  0  0  0
  7  8  2  0  0  0
  7 26  1  0  0  0
  7 29  1  0  0  0
  8  9  1  0  0  0
  8 22  1  0  0  0
  9 10  1  0  0  0
  9 27  2  0  0  0
 10 11  2  0  0  0
 10 15  1  0  0  0
 11 12  1  0  0  0
 11 97  1  0  0  0
 12 13  2  0  0  0
 12 98  1  0  0  0
 13 14  1  0  0  0
 13 31  1  0  0  0
 14 15  2  0  0  0
 14 99  1  0  0  0
 15100  1  0  0  0
 16 17  2  0  0  0
 16 21  1  0  0  0
 16 31  1  0  0  0
 17 18  1  0  0  0
 17101  1  0  0  0
 18 19  2  0  0  0
 18102  1  0  0  0
 19 20  1  0  0  0
 19 24  1  0  0  0
 20 21  2  0  0  0
 20103  1  0  0  0
 21 23  1  0  0  0
 22 28  1  0  0  0
 22 32  2  0  0  0
 26 27  1  0  0  0
 28104  1  0  0  0
 28105  1  0  0  0
 29106  1  0  0  0
 29107  1  0  0  0
 33 34  1  0  0  0
 33 66  1  0  0  0
 33 70  2  0  0  0
 34 36  1  0  0  0
 34 59  1  0  0  0
 34108  1  0  0  0
 35 44  2  0  0  0
 35 45  1  0  0  0
 35 68  1  0  0  0
 36 56  1  0  0  0
 36109  1  0  0  0
 37 39  1  0  0  0
 37 47  1  0  0  0
 37 66  1  0  0  0
 37110  1  0  0  0
 38 43  2  0  0  0
 38 46  1  0  0  0
 38 47  1  0  0  0
 39 64  1  0  0  0
 39 67  2  0  0  0
 40 52  1  0  0  0
 40 53  2  0  0  0
 40 58  1  0  0  0
 41111  1  0  0  0
 41112  1  0  0  0
 41113  1  0  0  0
 41 48  1  0  0  0
 42 43  1  0  0  0
 42 66  1  0  0  0
 42114  1  0  0  0
 42115  1  0  0  0
 43 44  1  0  0  0
 44116  1  0  0  0
 45 46  2  0  0  0
 45117  1  0  0  0
 46118  1  0  0  0
 47119  1  0  0  0
 47120  1  0  0  0
 48 56  1  0  0  0
 48 65  1  0  0  0
 48121  1  0  0  0
 49 50  1  0  0  0
 49 53  1  0  0  0
 49 64  1  0  0  0
 49122  1  0  0  0
 50 51  1  0  0  0
 50123  1  0  0  0
 50124  1  0  0  0
 51 52  1  0  0  0
 51125  1  0  0  0
 51126  1  0  0  0
 52127  1  0  0  0
 52128  1  0  0  0
 53 54  1  0  0  0
 54 55  2  0  0  0
 54129  1  0  0  0
 55 57  1  0  0  0
 55130  1  0  0  0
 56 69  2  0  0  0
 57 58  2  0  0  0
 57131  1  0  0  0
 58132  1  0  0  0
 59 60  1  0  0  0
 59 61  1  0  0  0
 59 62  1  0  0  0
 60133  1  0  0  0
 60134  1  0  0  0
 60135  1  0  0  0
 61136  1  0  0  0
 61137  1  0  0  0
 61138  1  0  0  0
 62139  1  0  0  0
 62140  1  0  0  0
 62141  1  0  0  0
 63 65  1  0  0  0
 63142  1  0  0  0
 63143  1  0  0  0
 63144  1  0  0  0
 64145  1  0  0  0
 65146  1  0  0  0
 68 73  1  0  0  0
 71 72  2  0  0  0
 71 73  1  0  0  0
 71 82  1  0  0  0
 72 81  1  0  0  0
 72 83  1  0  0  0
 73 84  2  0  0  0
 74 79  1  0  0  0
 74 83  2  0  0  0
 74 84  1  0  0  0
 75 76  1  0  0  0
 75 78  1  0  0  0
 75147  1  0  0  0
 75148  1  0  0  0
 76 86  1  0  0  0
 76149  1  0  0  0
 76150  1  0  0  0
 77 78  1  0  0  0
 77 86  1  0  0  0
 77151  1  0  0  0
 77152  1  0  0  0
 78 85  1  0  0  0
 78153  1  0  0  0
 79154  1  0  0  0
 79155  1  0  0  0
 79156  1  0  0  0
 80157  1  0  0  0
 80158  1  0  0  0
 80159  1  0  0  0
 80 82  1  0  0  0
 81160  1  0  0  0
 81161  1  0  0  0
 81 86  1  0  0  0
 82 87  1  0  0  0
 82162  1  0  0  0
 85163  1  0  0  0
 86164  1  0  0  0
M  CHG  1  86   1
M  ISO  4   1 100  68 101  73 101  85 100
M  END
> <chiral flag>
0

> <version>
0

> <s_m_source_file>
/data/baiqing/PycharmProjects/Reinvent-master-3.2/result/LINK_invent/BTK/process_docking_weight1_custom_sum_contain_oxygen_bond_distance_aromatic_linkinvent_7_9_3/rearranged_h_0183.sdf

> <i_m_source_file_index>
13

> <r_mmod_Potential_Energy-OPLS-2005>
-390.214080810547

> <r_mmod_Stretch_Energy-OPLS-2005>
123.967643737793

> <r_mmod_Bend_Energy-OPLS-2005>
208.900894165039

> <r_mmod_Torsional_Energy-OPLS-2005>
278.671722412109

> <r_mmod_Improper_Torsional_Energy-OPLS-2005>
5.91341876983643

> <r_mmod_Van_der_Waal_Energy-OPLS-2005>
129.160278320312

> <r_mmod_Electrostatic_Energy-OPLS-2005>
-741.584899902344

> <r_mmod_Solvation_Energy-OPLS-2005>
-488.579467773438

> <b_mmod_Minimization_Converged-OPLS-2005>
0

> <r_mmod_RMS_Derivative-OPLS-2005>
1.5542243719101

$$$$
13
                    3D
 Structure written by MMmdl.
163173  0  0  1  0            999 V2000
  -30.6678  -14.6966   20.4968 C   0  0  0  0  0  0
  -30.4266  -12.4397   19.4557 C   0  0  0  0  0  0
  -29.5023  -12.5018   18.2216 C   0  0  0  0  0  0
  -28.0323  -12.2888   18.6421 C   0  0  0  0  0  0
  -27.6421  -13.1707   19.8514 C   0  0  2  0  0  0
  -28.7007  -13.1091   20.9817 C   0  0  0  0  0  0
  -25.2556  -13.8033   20.5620 C   0  0  0  0  0  0
  -24.1845  -13.0371   20.9185 C   0  0  0  0  0  0
  -24.6374  -11.6852   20.8807 C   0  0  0  0  0  0
  -23.9066  -10.4256   21.0420 C   0  0  0  0  0  0
  -24.3613   -9.4163   21.9174 C   0  0  0  0  0  0
  -23.6280   -8.2198   22.0750 C   0  0  0  0  0  0
  -22.4267   -8.0268   21.3541 C   0  0  0  0  0  0
  -21.9909   -9.0256   20.4650 C   0  0  0  0  0  0
  -22.7247  -10.2114   20.3045 C   0  0  0  0  0  0
  -21.6838   -6.0749   22.5262 C   0  0  0  0  0  0
  -21.4021   -6.5642   23.8196 C   0  0  0  0  0  0
  -21.3665   -5.6792   24.9171 C   0  0  0  0  0  0
  -21.6033   -4.3053   24.7226 C   0  0  0  0  0  0
  -21.8842   -3.8146   23.4347 C   0  0  0  0  0  0
  -21.9211   -4.6965   22.3400 C   0  0  0  0  0  0
  -22.7881  -13.5215   21.1856 C   0  0  0  0  0  0
  -22.1652   -4.2137   21.0960 F   0  0  0  0  0  0
  -21.5610   -3.4559   25.7740 F   0  0  0  0  0  0
  -29.9862  -13.5008   20.3938 N   0  0  0  0  0  0
  -26.2950  -12.9126   20.3349 N   0  0  0  0  0  0
  -25.9283  -11.6357   20.5908 N   0  0  0  0  0  0
  -22.0553  -12.8189   22.0393 N   0  0  0  0  0  0
  -25.4283  -15.1719   20.3866 N   0  0  0  0  0  0
  -31.8585  -14.7293   20.1665 O   0  0  0  0  0  0
  -21.6627   -6.8881   21.4206 O   0  0  0  0  0  0
  -22.3617  -14.5574   20.6756 O   0  0  0  0  0  0
  -24.6244  -31.8562   23.2029 C   0  0  0  0  0  0
  -25.9088  -32.4760   23.8351 C   0  0  1  0  0  0
  -27.1958  -27.2701   20.1669 C   0  0  0  0  0  0
  -25.5898  -33.8562   24.2258 N   0  0  0  0  0  0
  -23.4217  -30.4827   21.5393 C   0  0  2  0  0  0
  -24.8707  -28.9344   20.1037 C   0  0  0  0  0  0
  -22.7509  -29.4597   22.4870 C   0  0  0  0  0  0
  -18.0317  -28.1339   22.8521 C   0  0  0  0  0  0
  -24.1489  -36.7314   23.2637 C   0  0  0  0  0  0
  -25.9609  -30.7695   21.3891 C   0  0  0  0  0  0
  -26.0316  -29.3914   20.7439 C   0  0  0  0  0  0
  -27.1924  -28.5652   20.7759 C   0  0  0  0  0  0
  -26.0586  -26.9214   19.4169 C   0  0  0  0  0  0
  -24.8908  -27.7079   19.4219 C   0  0  0  0  0  0
  -23.6421  -29.8194   20.1540 C   0  0  0  0  0  0
  -25.4117  -36.3089   24.0314 C   0  0  1  0  0  0
  -20.5963  -28.3645   23.1265 C   0  0  2  0  0  0
  -20.6849  -26.9424   22.5281 C   0  0  0  0  0  0
  -19.5786  -26.6530   21.5115 C   0  0  0  0  0  0
  -18.1962  -26.7898   22.1625 C   0  0  0  0  0  0
  -19.1601  -28.8804   23.2929 C   0  0  0  0  0  0
  -18.9533  -30.1384   23.8999 C   0  0  0  0  0  0
  -17.6537  -30.6570   24.0558 C   0  0  0  0  0  0
  -25.9063  -34.9447   23.5093 C   0  0  0  0  0  0
  -16.5412  -29.9102   23.6306 C   0  0  0  0  0  0
  -16.7299  -28.6491   23.0410 C   0  0  0  0  0  0
  -26.4468  -31.6578   25.0738 C   0  0  0  0  0  0
  -25.3705  -31.3742   26.1468 C   0  0  0  0  0  0
  -27.0327  -30.2995   24.6263 C   0  0  0  0  0  0
  -27.6023  -32.4318   25.7495 C   0  0  0  0  0  0
  -27.5577  -37.1801   24.8455 C   0  0  0  0  0  0
  -21.4219  -29.3057   22.3678 N   0  0  0  0  0  0
  -26.4312  -37.3778   23.9388 N   0  0  0  0  0  0
  -24.6858  -31.0563   22.0991 N   0  0  0  0  0  0
  -23.4277  -28.8111   23.2889 O   0  0  0  0  0  0
  -28.3060  -26.4155   20.1941 O   0  0  0  0  0  0
  -26.5661  -34.8906   22.4686 O   0  0  0  0  0  0
  -23.5408  -32.1328   23.7372 O   0  0  0  0  0  0
  -27.8332  -22.6705   21.0638 C   0  0  0  0  0  0
  -30.0718  -23.4278   21.1702 C   0  0  0  0  0  0
  -27.3908  -23.9986   20.7423 C   0  0  0  0  0  0
  -29.1858  -22.3324   21.2898 C   0  0  0  0  0  0
  -28.3899  -25.0448   20.6131 C   0  0  0  0  0  0
  -28.4353  -17.7938   20.8720 C   0  0  0  0  0  0
  -28.6077  -16.2628   20.7750 C   0  0  0  0  0  0
  -30.7462  -17.2313   20.7833 C   0  0  0  0  0  0
  -24.8902  -24.7855   21.4299 C   0  0  0  0  0  0
  -25.8873  -24.1385   20.4775 C   0  0  2  0  0  0
  -29.7769  -18.3542   21.3088 C   0  0  1  0  0  0
  -29.6221  -20.9106   21.8301 C   0  0  0  0  0  0
  -29.6934  -24.6978   20.8328 N   0  0  0  0  0  0
  -30.0400  -15.9072   20.7994 N   0  0  0  0  0  0
  -25.0006  -23.3524   21.3414 N   0  3  0  0  0  0
  -30.0030  -19.7962   20.8708 N   0  3  0  0  0  0
  -31.4672  -12.5526   19.1474 H   0  0  0  0  0  0
  -30.3641  -11.4582   19.9298 H   0  0  0  0  0  0
  -29.8013  -11.7484   17.4905 H   0  0  0  0  0  0
  -29.6099  -13.4699   17.7274 H   0  0  0  0  0  0
  -27.8973  -11.2346   18.8993 H   0  0  0  0  0  0
  -27.3726  -12.4888   17.7968 H   0  0  0  0  0  0
  -27.6093  -14.1598   19.4267 H   0  0  0  0  0  0
  -28.7653  -12.0961   21.3846 H   0  0  0  0  0  0
  -28.4476  -13.7332   21.8346 H   0  0  0  0  0  0
  -25.2744   -9.5638   22.4793 H   0  0  0  0  0  0
  -23.9984   -7.4592   22.7478 H   0  0  0  0  0  0
  -21.0836   -8.8806   19.8983 H   0  0  0  0  0  0
  -22.3688  -10.9681   19.6187 H   0  0  0  0  0  0
  -21.1973   -7.6147   23.9687 H   0  0  0  0  0  0
  -21.1441   -6.0528   25.9074 H   0  0  0  0  0  0
  -22.0616   -2.7609   23.2844 H   0  0  0  0  0  0
  -22.4180  -11.9783   22.4693 H   0  0  0  0  0  0
  -21.1196  -13.1209   22.2689 H   0  0  0  0  0  0
  -24.6741  -15.8382   20.5098 H   0  0  0  0  0  0
  -26.2849  -15.6024   20.0645 H   0  0  0  0  0  0
  -26.7141  -32.5415   23.1082 H   0  0  0  0  0  0
  -24.9964  -33.9717   25.0346 H   0  0  0  0  0  0
  -22.7153  -31.3049   21.4013 H   0  0  0  0  0  0
  -23.3755  -35.9655   23.3344 H   0  0  0  0  0  0
  -24.3570  -36.8906   22.2042 H   0  0  0  0  0  0
  -23.7250  -37.6519   23.6661 H   0  0  0  0  0  0
  -26.1050  -31.5223   20.6137 H   0  0  0  0  0  0
  -26.8412  -30.8235   22.0165 H   0  0  0  0  0  0
  -28.0793  -28.9032   21.2975 H   0  0  0  0  0  0
  -26.0744  -26.0286   18.8086 H   0  0  0  0  0  0
  -24.0197  -27.3841   18.8637 H   0  0  0  0  0  0
  -23.7545  -30.5947   19.3996 H   0  0  0  0  0  0
  -22.7657  -29.2493   19.8463 H   0  0  0  0  0  0
  -25.1299  -36.1934   25.0812 H   0  0  0  0  0  0
  -21.0110  -28.3157   24.1358 H   0  0  0  0  0  0
  -20.5940  -26.2254   23.3436 H   0  0  0  0  0  0
  -21.6662  -26.7624   22.0889 H   0  0  0  0  0  0
  -19.7007  -25.6559   21.0899 H   0  0  0  0  0  0
  -19.6645  -27.3493   20.6766 H   0  0  0  0  0  0
  -17.4195  -26.6657   21.4060 H   0  0  0  0  0  0
  -18.0531  -25.9912   22.8936 H   0  0  0  0  0  0
  -19.8019  -30.7127   24.2482 H   0  0  0  0  0  0
  -17.5165  -31.6277   24.5146 H   0  0  0  0  0  0
  -15.5448  -30.3098   23.7572 H   0  0  0  0  0  0
  -15.8683  -28.0804   22.7231 H   0  0  0  0  0  0
  -24.5857  -30.7136   25.7776 H   0  0  0  0  0  0
  -24.8968  -32.2934   26.4905 H   0  0  0  0  0  0
  -25.8017  -30.8854   27.0216 H   0  0  0  0  0  0
  -26.2920  -29.6727   24.1295 H   0  0  0  0  0  0
  -27.3979  -29.7266   25.4792 H   0  0  0  0  0  0
  -27.8814  -30.4275   23.9559 H   0  0  0  0  0  0
  -27.2632  -33.3588   26.2128 H   0  0  0  0  0  0
  -28.3800  -32.6913   25.0311 H   0  0  0  0  0  0
  -28.0763  -31.8427   26.5342 H   0  0  0  0  0  0
  -28.2596  -38.0089   24.7477 H   0  0  0  0  0  0
  -28.1054  -36.2604   24.6319 H   0  0  0  0  0  0
  -27.2294  -37.1508   25.8860 H   0  0  0  0  0  0
  -20.9341  -29.8768   21.6913 H   0  0  0  0  0  0
  -26.0179  -38.2857   24.1389 H   0  0  0  0  0  0
  -27.1185  -21.8670   21.1686 H   0  0  0  0  0  0
  -31.1269  -23.2941   21.3659 H   0  0  0  0  0  0
  -27.6207  -18.0802   21.5400 H   0  0  0  0  0  0
  -28.1768  -18.1773   19.8820 H   0  0  0  0  0  0
  -28.2020  -16.0127   19.8029 H   0  0  0  0  0  0
  -28.0332  -15.7774   21.5596 H   0  0  0  0  0  0
  -31.6504  -17.1863   21.3912 H   0  0  0  0  0  0
  -31.0644  -17.4347   19.7609 H   0  0  0  0  0  0
  -23.9040  -25.0708   21.0696 H   0  0  0  0  0  0
  -25.1552  -25.0709   22.4472 H   0  0  0  0  0  0
  -25.6206  -23.9151   19.4437 H   0  0  0  0  0  0
  -29.8407  -18.3198   22.3932 H   0  0  0  0  0  0
  -28.8206  -20.5522   22.4768 H   0  0  0  0  0  0
  -30.4710  -21.0529   22.5050 H   0  0  0  0  0  0
  -24.1838  -22.9369   20.9181 H   0  0  0  0  0  0
  -25.3221  -22.9651   22.2133 H   0  0  0  0  0  0
  -29.5181  -19.9377   20.0024 H   0  0  0  0  0  0
  -30.9877  -19.9049   20.6832 H   0  0  0  0  0  0
  1 25  1  0  0  0
  1 30  2  0  0  0
  1 84  1  0  0  0
  2  3  1  0  0  0
  2 25  1  0  0  0
  2 87  1  0  0  0
  2 88  1  0  0  0
  3  4  1  0  0  0
  3 89  1  0  0  0
  3 90  1  0  0  0
  4  5  1  0  0  0
  4 91  1  0  0  0
  4 92  1  0  0  0
  5  6  1  0  0  0
  5 26  1  0  0  0
  5 93  1  0  0  0
  6 25  1  0  0  0
  6 94  1  0  0  0
  6 95  1  0  0  0
  7  8  2  0  0  0
  7 26  1  0  0  0
  7 29  1  0  0  0
  8  9  1  0  0  0
  8 22  1  0  0  0
  9 10  1  0  0  0
  9 27  2  0  0  0
 10 11  2  0  0  0
 10 15  1  0  0  0
 11 12  1  0  0  0
 11 96  1  0  0  0
 12 13  2  0  0  0
 12 97  1  0  0  0
 13 14  1  0  0  0
 13 31  1  0  0  0
 14 15  2  0  0  0
 14 98  1  0  0  0
 15 99  1  0  0  0
 16 17  2  0  0  0
 16 21  1  0  0  0
 16 31  1  0  0  0
 17 18  1  0  0  0
 17100  1  0  0  0
 18 19  2  0  0  0
 18101  1  0  0  0
 19 20  1  0  0  0
 19 24  1  0  0  0
 20 21  2  0  0  0
 20102  1  0  0  0
 21 23  1  0  0  0
 22 28  1  0  0  0
 22 32  2  0  0  0
 26 27  1  0  0  0
 28103  1  0  0  0
 28104  1  0  0  0
 29105  1  0  0  0
 29106  1  0  0  0
 33 34  1  0  0  0
 33 66  1  0  0  0
 33 70  2  0  0  0
 34 36  1  0  0  0
 34 59  1  0  0  0
 34107  1  0  0  0
 35 44  2  0  0  0
 35 45  1  0  0  0
 35 68  1  0  0  0
 36 56  1  0  0  0
 36108  1  0  0  0
 37 39  1  0  0  0
 37 47  1  0  0  0
 37 66  1  0  0  0
 37109  1  0  0  0
 38 43  2  0  0  0
 38 46  1  0  0  0
 38 47  1  0  0  0
 39 64  1  0  0  0
 39 67  2  0  0  0
 40 52  1  0  0  0
 40 53  2  0  0  0
 40 58  1  0  0  0
 41110  1  0  0  0
 41111  1  0  0  0
 41112  1  0  0  0
 41 48  1  0  0  0
 42 43  1  0  0  0
 42 66  1  0  0  0
 42113  1  0  0  0
 42114  1  0  0  0
 43 44  1  0  0  0
 44115  1  0  0  0
 45 46  2  0  0  0
 45116  1  0  0  0
 46117  1  0  0  0
 47118  1  0  0  0
 47119  1  0  0  0
 48 56  1  0  0  0
 48 65  1  0  0  0
 48120  1  0  0  0
 49 50  1  0  0  0
 49 53  1  0  0  0
 49 64  1  0  0  0
 49121  1  0  0  0
 50 51  1  0  0  0
 50122  1  0  0  0
 50123  1  0  0  0
 51 52  1  0  0  0
 51124  1  0  0  0
 51125  1  0  0  0
 52126  1  0  0  0
 52127  1  0  0  0
 53 54  1  0  0  0
 54 55  2  0  0  0
 54128  1  0  0  0
 55 57  1  0  0  0
 55129  1  0  0  0
 56 69  2  0  0  0
 57 58  2  0  0  0
 57130  1  0  0  0
 58131  1  0  0  0
 59 60  1  0  0  0
 59 61  1  0  0  0
 59 62  1  0  0  0
 60132  1  0  0  0
 60133  1  0  0  0
 60134  1  0  0  0
 61135  1  0  0  0
 61136  1  0  0  0
 61137  1  0  0  0
 62138  1  0  0  0
 62139  1  0  0  0
 62140  1  0  0  0
 63 65  1  0  0  0
 63141  1  0  0  0
 63142  1  0  0  0
 63143  1  0  0  0
 64144  1  0  0  0
 65145  1  0  0  0
 68 75  1  0  0  0
 71 73  2  0  0  0
 71 74  1  0  0  0
 71146  1  0  0  0
 72 74  2  0  0  0
 72 83  1  0  0  0
 72147  1  0  0  0
 73 75  1  0  0  0
 73 80  1  0  0  0
 74 82  1  0  0  0
 75 83  2  0  0  0
 76 77  1  0  0  0
 76 81  1  0  0  0
 76148  1  0  0  0
 76149  1  0  0  0
 77 84  1  0  0  0
 77150  1  0  0  0
 77151  1  0  0  0
 78 81  1  0  0  0
 78 84  1  0  0  0
 78152  1  0  0  0
 78153  1  0  0  0
 79 80  1  0  0  0
 79 85  1  0  0  0
 79154  1  0  0  0
 79155  1  0  0  0
 80 85  1  0  0  0
 80156  1  0  0  0
 81 86  1  0  0  0
 81157  1  0  0  0
 82 86  1  0  0  0
 82158  1  0  0  0
 82159  1  0  0  0
 85160  1  0  0  0
 85161  1  0  0  0
 86162  1  0  0  0
 86163  1  0  0  0
M  CHG  2  85   1  86   1
M  ISO  4   1 100  68 101  75 101  84 100
M  END
> <chiral flag>
0

> <version>
0

> <s_m_source_file>
/data/baiqing/PycharmProjects/Reinvent-master-3.2/result/LINK_invent/BTK/process_docking_weight1_custom_sum_contain_oxygen_bond_distance_aromatic_linkinvent_7_9_3/rearranged_h_0183.sdf

> <i_m_source_file_index>
14

> <r_mmod_Potential_Energy-OPLS-2005>
-125.192794799805

> <r_mmod_Stretch_Energy-OPLS-2005>
93.1431579589844

> <r_mmod_Bend_Energy-OPLS-2005>
240.126342773438

> <r_mmod_Torsional_Energy-OPLS-2005>
362.116851806641

> <r_mmod_Improper_Torsional_Energy-OPLS-2005>
5.78200054168701

> <r_mmod_Van_der_Waal_Energy-OPLS-2005>
143.669403076172

> <r_mmod_Electrostatic_Energy-OPLS-2005>
-38.9782371520996

> <r_mmod_Solvation_Energy-OPLS-2005>
-1002.97509765625

> <b_mmod_Minimization_Converged-OPLS-2005>
0

> <r_mmod_RMS_Derivative-OPLS-2005>
7.02301549911499

$$$$
14
                    3D
 Structure written by MMmdl.
153162  0  0  1  0            999 V2000
  -30.6097  -14.8129   20.4337 C   0  0  0  0  0  0
  -30.4264  -12.4983   19.4856 C   0  0  0  0  0  0
  -29.5099  -12.5046   18.2428 C   0  0  0  0  0  0
  -28.0390  -12.3193   18.6604 C   0  0  0  0  0  0
  -27.6334  -13.2398   19.8426 C   0  0  2  0  0  0
  -28.6775  -13.2278   20.9791 C   0  0  0  0  0  0
  -25.2478  -13.8209   20.5712 C   0  0  0  0  0  0
  -24.1780  -13.0445   20.9225 C   0  0  0  0  0  0
  -24.6383  -11.6926   20.8754 C   0  0  0  0  0  0
  -23.9063  -10.4299   21.0415 C   0  0  0  0  0  0
  -24.3617   -9.4214   21.9187 C   0  0  0  0  0  0
  -23.6299   -8.2243   22.0749 C   0  0  0  0  0  0
  -22.4278   -8.0280   21.3544 C   0  0  0  0  0  0
  -21.9916   -9.0252   20.4644 C   0  0  0  0  0  0
  -22.7239  -10.2138   20.3061 C   0  0  0  0  0  0
  -21.6855   -6.0736   22.5282 C   0  0  0  0  0  0
  -21.4011   -6.5639   23.8214 C   0  0  0  0  0  0
  -21.3658   -5.6790   24.9174 C   0  0  0  0  0  0
  -21.6051   -4.3054   24.7227 C   0  0  0  0  0  0
  -21.8817   -3.8148   23.4345 C   0  0  0  0  0  0
  -21.9197   -4.6965   22.3403 C   0  0  0  0  0  0
  -22.7805  -13.5222   21.1889 C   0  0  0  0  0  0
  -22.1665   -4.2149   21.0981 F   0  0  0  0  0  0
  -21.5633   -3.4538   25.7739 F   0  0  0  0  0  0
  -29.9684  -13.5891   20.3842 N   0  0  0  0  0  0
  -26.2900  -12.9430   20.3270 N   0  0  0  0  0  0
  -25.9315  -11.6568   20.5754 N   0  0  0  0  0  0
  -22.0454  -12.8204   22.0439 N   0  0  0  0  0  0
  -25.4162  -15.1930   20.4120 N   0  0  0  0  0  0
  -31.8101  -14.8583   20.1530 O   0  0  0  0  0  0
  -21.6643   -6.8875   21.4240 O   0  0  0  0  0  0
  -22.3496  -14.5531   20.6737 O   0  0  0  0  0  0
  -24.6370  -31.8510   23.1938 C   0  0  0  0  0  0
  -25.9173  -32.4727   23.8301 C   0  0  1  0  0  0
  -27.2132  -27.1978   20.1258 C   0  0  0  0  0  0
  -25.5945  -33.8532   24.2225 N   0  0  0  0  0  0
  -23.4371  -30.4732   21.5382 C   0  0  2  0  0  0
  -24.8827  -28.9151   20.1051 C   0  0  0  0  0  0
  -22.7543  -29.4578   22.4874 C   0  0  0  0  0  0
  -18.0299  -28.1399   22.8490 C   0  0  0  0  0  0
  -24.1489  -36.7249   23.2644 C   0  0  0  0  0  0
  -25.9889  -30.7421   21.3847 C   0  0  0  0  0  0
  -26.0568  -29.3612   20.7221 C   0  0  0  0  0  0
  -27.2191  -28.5142   20.7245 C   0  0  0  0  0  0
  -26.0058  -26.8364   19.4832 C   0  0  0  0  0  0
  -24.8660  -27.6634   19.4760 C   0  0  0  0  0  0
  -23.6584  -29.8096   20.1538 C   0  0  0  0  0  0
  -25.4125  -36.3053   24.0328 C   0  0  1  0  0  0
  -20.5912  -28.3714   23.1246 C   0  0  2  0  0  0
  -20.6787  -26.9421   22.5408 C   0  0  0  0  0  0
  -19.5761  -26.6390   21.5219 C   0  0  0  0  0  0
  -18.1941  -26.7937   22.1633 C   0  0  0  0  0  0
  -19.1558  -28.8875   23.2858 C   0  0  0  0  0  0
  -18.9478  -30.1472   23.8888 C   0  0  0  0  0  0
  -17.6478  -30.6599   24.0565 C   0  0  0  0  0  0
  -25.9071  -34.9429   23.5081 C   0  0  0  0  0  0
  -16.5366  -29.9101   23.6339 C   0  0  0  0  0  0
  -16.7287  -28.6515   23.0366 C   0  0  0  0  0  0
  -26.4519  -31.6579   25.0716 C   0  0  0  0  0  0
  -25.3726  -31.3751   26.1417 C   0  0  0  0  0  0
  -27.0361  -30.2982   24.6245 C   0  0  0  0  0  0
  -27.6059  -32.4328   25.7493 C   0  0  0  0  0  0
  -27.5566  -37.1788   24.8479 C   0  0  0  0  0  0
  -21.4240  -29.3050   22.3624 N   0  0  0  0  0  0
  -26.4289  -37.3759   23.9411 N   0  0  0  0  0  0
  -24.7072  -31.0417   22.0948 N   0  0  0  0  0  0
  -23.4218  -28.8119   23.2991 O   0  0  0  0  0  0
  -28.2923  -26.2653   20.2353 O   0  0  0  0  0  0
  -26.5643  -34.8917   22.4654 O   0  0  0  0  0  0
  -23.5505  -32.1352   23.7203 O   0  0  0  0  0  0
  -28.2620  -23.1562   21.5430 C   0  0  0  0  0  0
  -28.4056  -21.8365   22.0861 C   0  0  0  0  0  0
  -29.0950  -22.3233   19.4405 C   0  0  0  0  0  0
  -28.6033  -23.4655   20.1994 C   0  0  0  0  0  0
  -29.2598  -20.9702   19.9594 C   0  0  0  0  0  0
  -28.9011  -20.7491   21.3116 C   0  0  0  0  0  0
  -29.7119  -18.8197   20.4204 C   0  0  0  0  0  0
  -28.9980  -18.6816   22.8251 C   0  0  0  0  0  0
  -28.3579  -24.9196   19.5187 C   0  0  0  0  0  0
  -30.4913  -17.4146   20.3637 C   0  0  0  0  0  0
  -29.7377  -19.7449   19.4156 N   0  0  0  0  0  0
  -29.1816  -19.3704   21.5602 N   0  0  0  0  0  0
  -29.8921  -16.0081   20.5661 N   0  0  0  0  0  0
  -31.4668  -12.6194   19.1812 H   0  0  0  0  0  0
  -30.3780  -11.5358   19.9976 H   0  0  0  0  0  0
  -29.8048  -11.7135   17.5516 H   0  0  0  0  0  0
  -29.6243  -13.4457   17.7023 H   0  0  0  0  0  0
  -27.9111  -11.2747   18.9473 H   0  0  0  0  0  0
  -27.3782  -12.4826   17.8082 H   0  0  0  0  0  0
  -27.6120  -14.2503   19.4347 H   0  0  0  0  0  0
  -28.7297  -12.2469   21.4540 H   0  0  0  0  0  0
  -28.4025  -13.9359   21.7624 H   0  0  0  0  0  0
  -25.2759   -9.5695   22.4765 H   0  0  0  0  0  0
  -24.0016   -7.4631   22.7462 H   0  0  0  0  0  0
  -21.0852   -8.8767   19.8941 H   0  0  0  0  0  0
  -22.3694  -10.9675   19.6172 H   0  0  0  0  0  0
  -21.1990   -7.6146   23.9713 H   0  0  0  0  0  0
  -21.1487   -6.0522   25.9076 H   0  0  0  0  0  0
  -22.0597   -2.7612   23.2846 H   0  0  0  0  0  0
  -22.4086  -11.9867   22.4817 H   0  0  0  0  0  0
  -21.1068  -13.1214   22.2645 H   0  0  0  0  0  0
  -24.6431  -15.8423   20.5100 H   0  0  0  0  0  0
  -26.2585  -15.6309   20.0628 H   0  0  0  0  0  0
  -26.7233  -32.5347   23.1025 H   0  0  0  0  0  0
  -25.0099  -33.9668   25.0374 H   0  0  0  0  0  0
  -22.7360  -31.2972   21.3891 H   0  0  0  0  0  0
  -23.3756  -35.9575   23.3349 H   0  0  0  0  0  0
  -24.3562  -36.8834   22.2047 H   0  0  0  0  0  0
  -23.7245  -37.6463   23.6643 H   0  0  0  0  0  0
  -26.1410  -31.5016   20.6168 H   0  0  0  0  0  0
  -26.8621  -30.7854   22.0242 H   0  0  0  0  0  0
  -28.1115  -28.8482   21.2345 H   0  0  0  0  0  0
  -25.8713  -25.8766   19.0149 H   0  0  0  0  0  0
  -23.9640  -27.3134   18.9931 H   0  0  0  0  0  0
  -23.7901  -30.5880   19.4008 H   0  0  0  0  0  0
  -22.7743  -29.2492   19.8439 H   0  0  0  0  0  0
  -25.1316  -36.1887   25.0819 H   0  0  0  0  0  0
  -21.0008  -28.3302   24.1367 H   0  0  0  0  0  0
  -20.5687  -26.2330   23.3628 H   0  0  0  0  0  0
  -21.6649  -26.7446   22.1192 H   0  0  0  0  0  0
  -19.6925  -25.6305   21.1245 H   0  0  0  0  0  0
  -19.6691  -27.3204   20.6751 H   0  0  0  0  0  0
  -17.4209  -26.6689   21.4038 H   0  0  0  0  0  0
  -18.0339  -26.0085   22.9033 H   0  0  0  0  0  0
  -19.7956  -30.7290   24.2252 H   0  0  0  0  0  0
  -17.5035  -31.6274   24.5174 H   0  0  0  0  0  0
  -15.5366  -30.3001   23.7670 H   0  0  0  0  0  0
  -15.8688  -28.0828   22.7101 H   0  0  0  0  0  0
  -24.5903  -30.7105   25.7745 H   0  0  0  0  0  0
  -24.8905  -32.2925   26.4806 H   0  0  0  0  0  0
  -25.8012  -30.8950   27.0222 H   0  0  0  0  0  0
  -26.2953  -29.6726   24.1248 H   0  0  0  0  0  0
  -27.4001  -29.7256   25.4786 H   0  0  0  0  0  0
  -27.8862  -30.4247   23.9539 H   0  0  0  0  0  0
  -27.2667  -33.3648   26.2031 H   0  0  0  0  0  0
  -28.3883  -32.6854   25.0328 H   0  0  0  0  0  0
  -28.0707  -31.8475   26.5440 H   0  0  0  0  0  0
  -28.2615  -38.0048   24.7472 H   0  0  0  0  0  0
  -28.1019  -36.2574   24.6376 H   0  0  0  0  0  0
  -27.2268  -37.1533   25.8878 H   0  0  0  0  0  0
  -20.9440  -29.8756   21.6806 H   0  0  0  0  0  0
  -26.0161  -38.2834   24.1392 H   0  0  0  0  0  0
  -27.8683  -23.9448   22.1741 H   0  0  0  0  0  0
  -28.1353  -21.6594   23.1178 H   0  0  0  0  0  0
  -29.3585  -22.4797   18.4041 H   0  0  0  0  0  0
  -28.9401  -19.3995   23.6434 H   0  0  0  0  0  0
  -29.8316  -18.0062   23.0186 H   0  0  0  0  0  0
  -28.0736  -18.1039   22.7958 H   0  0  0  0  0  0
  -27.5350  -24.7786   18.8263 H   0  0  0  0  0  0
  -29.2081  -25.0409   18.8477 H   0  0  0  0  0  0
  -31.3084  -17.4984   21.0817 H   0  0  0  0  0  0
  -30.9920  -17.3882   19.3947 H   0  0  0  0  0  0
  -28.9003  -15.9506   20.7351 H   0  0  0  0  0  0
  1 25  1  0  0  0
  1 30  2  0  0  0
  1 83  1  0  0  0
  2  3  1  0  0  0
  2 25  1  0  0  0
  2 84  1  0  0  0
  2 85  1  0  0  0
  3  4  1  0  0  0
  3 86  1  0  0  0
  3 87  1  0  0  0
  4  5  1  0  0  0
  4 88  1  0  0  0
  4 89  1  0  0  0
  5  6  1  0  0  0
  5 26  1  0  0  0
  5 90  1  0  0  0
  6 25  1  0  0  0
  6 91  1  0  0  0
  6 92  1  0  0  0
  7  8  2  0  0  0
  7 26  1  0  0  0
  7 29  1  0  0  0
  8  9  1  0  0  0
  8 22  1  0  0  0
  9 10  1  0  0  0
  9 27  2  0  0  0
 10 11  2  0  0  0
 10 15  1  0  0  0
 11 12  1  0  0  0
 11 93  1  0  0  0
 12 13  2  0  0  0
 12 94  1  0  0  0
 13 14  1  0  0  0
 13 31  1  0  0  0
 14 15  2  0  0  0
 14 95  1  0  0  0
 15 96  1  0  0  0
 16 17  2  0  0  0
 16 21  1  0  0  0
 16 31  1  0  0  0
 17 18  1  0  0  0
 17 97  1  0  0  0
 18 19  2  0  0  0
 18 98  1  0  0  0
 19 20  1  0  0  0
 19 24  1  0  0  0
 20 21  2  0  0  0
 20 99  1  0  0  0
 21 23  1  0  0  0
 22 28  1  0  0  0
 22 32  2  0  0  0
 26 27  1  0  0  0
 28100  1  0  0  0
 28101  1  0  0  0
 29102  1  0  0  0
 29103  1  0  0  0
 33 34  1  0  0  0
 33 66  1  0  0  0
 33 70  2  0  0  0
 34 36  1  0  0  0
 34 59  1  0  0  0
 34104  1  0  0  0
 35 44  2  0  0  0
 35 45  1  0  0  0
 35 68  1  0  0  0
 36 56  1  0  0  0
 36105  1  0  0  0
 37 39  1  0  0  0
 37 47  1  0  0  0
 37 66  1  0  0  0
 37106  1  0  0  0
 38 43  2  0  0  0
 38 46  1  0  0  0
 38 47  1  0  0  0
 39 64  1  0  0  0
 39 67  2  0  0  0
 40 52  1  0  0  0
 40 53  2  0  0  0
 40 58  1  0  0  0
 41107  1  0  0  0
 41108  1  0  0  0
 41109  1  0  0  0
 41 48  1  0  0  0
 42 43  1  0  0  0
 42 66  1  0  0  0
 42110  1  0  0  0
 42111  1  0  0  0
 43 44  1  0  0  0
 44112  1  0  0  0
 45 46  2  0  0  0
 45113  1  0  0  0
 46114  1  0  0  0
 47115  1  0  0  0
 47116  1  0  0  0
 48 56  1  0  0  0
 48 65  1  0  0  0
 48117  1  0  0  0
 49 50  1  0  0  0
 49 53  1  0  0  0
 49 64  1  0  0  0
 49118  1  0  0  0
 50 51  1  0  0  0
 50119  1  0  0  0
 50120  1  0  0  0
 51 52  1  0  0  0
 51121  1  0  0  0
 51122  1  0  0  0
 52123  1  0  0  0
 52124  1  0  0  0
 53 54  1  0  0  0
 54 55  2  0  0  0
 54125  1  0  0  0
 55 57  1  0  0  0
 55126  1  0  0  0
 56 69  2  0  0  0
 57 58  2  0  0  0
 57127  1  0  0  0
 58128  1  0  0  0
 59 60  1  0  0  0
 59 61  1  0  0  0
 59 62  1  0  0  0
 60129  1  0  0  0
 60130  1  0  0  0
 60131  1  0  0  0
 61132  1  0  0  0
 61133  1  0  0  0
 61134  1  0  0  0
 62135  1  0  0  0
 62136  1  0  0  0
 62137  1  0  0  0
 63 65  1  0  0  0
 63138  1  0  0  0
 63139  1  0  0  0
 63140  1  0  0  0
 64141  1  0  0  0
 65142  1  0  0  0
 68 79  1  0  0  0
 71 72  2  0  0  0
 71 74  1  0  0  0
 71143  1  0  0  0
 72 76  1  0  0  0
 72144  1  0  0  0
 73 74  2  0  0  0
 73 75  1  0  0  0
 73145  1  0  0  0
 74 79  1  0  0  0
 75 76  2  0  0  0
 75 81  1  0  0  0
 76 82  1  0  0  0
 77 80  1  0  0  0
 77 81  2  0  0  0
 77 82  1  0  0  0
 78 82  1  0  0  0
 78146  1  0  0  0
 78147  1  0  0  0
 78148  1  0  0  0
 79149  1  0  0  0
 79150  1  0  0  0
 80 83  1  0  0  0
 80151  1  0  0  0
 80152  1  0  0  0
 83153  1  0  0  0
M  ISO  4   1 100  68 101  79 101  83 100
M  END
> <chiral flag>
0

> <version>
0

> <s_m_source_file>
/data/baiqing/PycharmProjects/Reinvent-master-3.2/result/LINK_invent/BTK/process_docking_weight1_custom_sum_contain_oxygen_bond_distance_aromatic_linkinvent_7_9_3/rearranged_h_0183.sdf

> <i_m_source_file_index>
15

> <r_mmod_Potential_Energy-OPLS-2005>
166.9677734375

> <r_mmod_Stretch_Energy-OPLS-2005>
151.108581542969

> <r_mmod_Bend_Energy-OPLS-2005>
214.6611328125

> <r_mmod_Torsional_Energy-OPLS-2005>
214.123123168945

> <r_mmod_Improper_Torsional_Energy-OPLS-2005>
7.29686498641968

> <r_mmod_Van_der_Waal_Energy-OPLS-2005>
131.485946655273

> <r_mmod_Electrostatic_Energy-OPLS-2005>
-450.44873046875

> <r_mmod_Solvation_Energy-OPLS-2005>
-226.576553344727

> <b_mmod_Minimization_Converged-OPLS-2005>
0

> <r_mmod_RMS_Derivative-OPLS-2005>
1.39402222633362

$$$$
15
                    3D
 Structure written by MMmdl.
159168  0  0  1  0            999 V2000
  -30.6974  -14.6219   20.4994 C   0  0  0  0  0  0
  -30.4146  -12.3922   19.4493 C   0  0  0  0  0  0
  -29.5018  -12.5069   18.2119 C   0  0  0  0  0  0
  -28.0216  -12.3602   18.6164 C   0  0  0  0  0  0
  -27.6433  -13.2326   19.8450 C   0  0  2  0  0  0
  -28.6878  -13.1215   20.9747 C   0  0  0  0  0  0
  -25.2517  -13.8214   20.5679 C   0  0  0  0  0  0
  -24.1815  -13.0453   20.9204 C   0  0  0  0  0  0
  -24.6396  -11.6929   20.8722 C   0  0  0  0  0  0
  -23.9077  -10.4308   21.0388 C   0  0  0  0  0  0
  -24.3642   -9.4223   21.9158 C   0  0  0  0  0  0
  -23.6331   -8.2243   22.0733 C   0  0  0  0  0  0
  -22.4304   -8.0284   21.3537 C   0  0  0  0  0  0
  -21.9931   -9.0244   20.4623 C   0  0  0  0  0  0
  -22.7251  -10.2129   20.3027 C   0  0  0  0  0  0
  -21.6854   -6.0751   22.5283 C   0  0  0  0  0  0
  -21.4009   -6.5644   23.8222 C   0  0  0  0  0  0
  -21.3664   -5.6789   24.9180 C   0  0  0  0  0  0
  -21.6048   -4.3057   24.7219 C   0  0  0  0  0  0
  -21.8817   -3.8152   23.4338 C   0  0  0  0  0  0
  -21.9199   -4.6977   22.3402 C   0  0  0  0  0  0
  -22.7836  -13.5221   21.1878 C   0  0  0  0  0  0
  -22.1670   -4.2167   21.0979 F   0  0  0  0  0  0
  -21.5643   -3.4528   25.7730 F   0  0  0  0  0  0
  -29.9964  -13.4479   20.3959 N   0  0  0  0  0  0
  -26.2943  -12.9422   20.3240 N   0  0  0  0  0  0
  -25.9328  -11.6565   20.5695 N   0  0  0  0  0  0
  -22.0481  -12.8206   22.0433 N   0  0  0  0  0  0
  -25.4203  -15.1934   20.4151 N   0  0  0  0  0  0
  -31.8907  -14.6478   20.1796 O   0  0  0  0  0  0
  -21.6653   -6.8890   21.4244 O   0  0  0  0  0  0
  -22.3511  -14.5519   20.6716 O   0  0  0  0  0  0
  -24.6227  -31.8622   23.2051 C   0  0  0  0  0  0
  -25.9074  -32.4787   23.8377 C   0  0  1  0  0  0
  -27.2143  -27.3445   20.1219 C   0  0  0  0  0  0
  -25.5905  -33.8592   24.2305 N   0  0  0  0  0  0
  -23.4162  -30.4868   21.5462 C   0  0  2  0  0  0
  -24.8635  -28.9488   20.1053 C   0  0  0  0  0  0
  -22.7472  -29.4627   22.4937 C   0  0  0  0  0  0
  -18.0281  -28.1384   22.8494 C   0  0  0  0  0  0
  -24.1492  -36.7305   23.2643 C   0  0  0  0  0  0
  -25.9548  -30.8010   21.3738 C   0  0  0  0  0  0
  -26.0297  -29.4311   20.7155 C   0  0  0  0  0  0
  -27.2136  -28.6397   20.7156 C   0  0  0  0  0  0
  -26.0375  -26.9146   19.4740 C   0  0  0  0  0  0
  -24.8692  -27.6972   19.4703 C   0  0  0  0  0  0
  -23.6289  -29.8242   20.1593 C   0  0  0  0  0  0
  -25.4110  -36.3098   24.0343 C   0  0  1  0  0  0
  -20.5882  -28.3687   23.1292 C   0  0  2  0  0  0
  -20.6762  -26.9413   22.5410 C   0  0  0  0  0  0
  -19.5738  -26.6388   21.5216 C   0  0  0  0  0  0
  -18.1922  -26.7927   22.1633 C   0  0  0  0  0  0
  -19.1534  -28.8854   23.2882 C   0  0  0  0  0  0
  -18.9448  -30.1456   23.8901 C   0  0  0  0  0  0
  -17.6443  -30.6581   24.0570 C   0  0  0  0  0  0
  -25.9046  -34.9460   23.5125 C   0  0  0  0  0  0
  -16.5341  -29.9083   23.6331 C   0  0  0  0  0  0
  -16.7264  -28.6506   23.0349 C   0  0  0  0  0  0
  -26.4475  -31.6576   25.0727 C   0  0  0  0  0  0
  -25.3726  -31.3670   26.1458 C   0  0  0  0  0  0
  -27.0304  -30.3007   24.6141 C   0  0  0  0  0  0
  -27.6054  -32.4303   25.7472 C   0  0  0  0  0  0
  -27.5585  -37.1807   24.8464 C   0  0  0  0  0  0
  -21.4184  -29.3042   22.3686 N   0  0  0  0  0  0
  -26.4297  -37.3783   23.9411 N   0  0  0  0  0  0
  -24.6827  -31.0668   22.0984 N   0  0  0  0  0  0
  -23.4215  -28.8174   23.3000 O   0  0  0  0  0  0
  -28.2970  -26.4687   20.1676 O   0  0  0  0  0  0
  -26.5623  -34.8925   22.4697 O   0  0  0  0  0  0
  -23.5392  -32.1396   23.7402 O   0  0  0  0  0  0
  -28.3795  -22.5959   20.9658 C   0  0  0  0  0  0
  -28.9726  -21.4082   20.4504 C   0  0  0  0  0  0
  -28.6329  -23.8517   20.3420 C   0  0  0  0  0  0
  -29.9529  -22.7339   18.8357 C   0  0  0  0  0  0
  -28.9948  -18.7397   20.7639 C   0  0  0  0  0  0
  -28.7364  -20.0535   21.0943 C   0  0  0  0  0  0
  -28.5444  -17.5779   21.6612 C   0  0  0  0  0  0
  -29.6099  -18.1832   19.4799 C   0  0  0  0  0  0
  -29.5861  -16.4241   21.8198 C   0  0  0  0  0  0
  -30.5330  -16.9325   19.6839 C   0  0  0  0  0  0
  -30.8629  -22.8015   17.6299 C   0  0  0  0  0  0
  -28.0172  -25.1941   20.8623 C   0  0  0  0  0  0
  -29.7532  -21.5224   19.3595 N   0  0  0  0  0  0
  -29.4377  -23.8873   19.2616 N   0  0  0  0  0  0
  -30.0067  -15.8228   20.5368 N   0  0  0  0  0  0
  -31.4608  -12.4787   19.1498 H   0  0  0  0  0  0
  -30.3204  -11.4083   19.9101 H   0  0  0  0  0  0
  -29.7703  -11.7491   17.4744 H   0  0  0  0  0  0
  -29.6577  -13.4737   17.7289 H   0  0  0  0  0  0
  -27.8461  -11.3071   18.8386 H   0  0  0  0  0  0
  -27.3758  -12.6028   17.7712 H   0  0  0  0  0  0
  -27.6501  -14.2660   19.4970 H   0  0  0  0  0  0
  -28.7017  -12.1149   21.3932 H   0  0  0  0  0  0
  -28.4275  -13.7851   21.7965 H   0  0  0  0  0  0
  -25.2792   -9.5716   22.4715 H   0  0  0  0  0  0
  -24.0067   -7.4627   22.7428 H   0  0  0  0  0  0
  -21.0872   -8.8732   19.8919 H   0  0  0  0  0  0
  -22.3703  -10.9651   19.6119 H   0  0  0  0  0  0
  -21.1979   -7.6147   23.9743 H   0  0  0  0  0  0
  -21.1497   -6.0508   25.9094 H   0  0  0  0  0  0
  -22.0594   -2.7615   23.2820 H   0  0  0  0  0  0
  -22.4143  -11.9912   22.4863 H   0  0  0  0  0  0
  -21.1044  -13.1141   22.2530 H   0  0  0  0  0  0
  -24.6541  -15.8474   20.5331 H   0  0  0  0  0  0
  -26.2802  -15.6370   20.1173 H   0  0  0  0  0  0
  -26.7145  -32.5472   23.1136 H   0  0  0  0  0  0
  -25.0032  -33.9742   25.0436 H   0  0  0  0  0  0
  -22.7082  -31.3060   21.4062 H   0  0  0  0  0  0
  -23.3754  -35.9637   23.3296 H   0  0  0  0  0  0
  -24.3594  -36.8932   22.2063 H   0  0  0  0  0  0
  -23.7243  -37.6507   23.6659 H   0  0  0  0  0  0
  -26.0854  -31.5653   20.6069 H   0  0  0  0  0  0
  -26.8368  -30.8494   22.0003 H   0  0  0  0  0  0
  -28.1075  -29.0006   21.2054 H   0  0  0  0  0  0
  -26.0152  -25.9521   18.9833 H   0  0  0  0  0  0
  -23.9813  -27.3292   18.9742 H   0  0  0  0  0  0
  -23.7424  -30.6018   19.4034 H   0  0  0  0  0  0
  -22.7505  -29.2498   19.8590 H   0  0  0  0  0  0
  -25.1288  -36.1961   25.0838 H   0  0  0  0  0  0
  -20.9982  -28.3252   24.1411 H   0  0  0  0  0  0
  -20.5663  -26.2302   23.3611 H   0  0  0  0  0  0
  -21.6625  -26.7438   22.1200 H   0  0  0  0  0  0
  -19.6894  -25.6300   21.1238 H   0  0  0  0  0  0
  -19.6671  -27.3210   20.6756 H   0  0  0  0  0  0
  -17.4192  -26.6684   21.4033 H   0  0  0  0  0  0
  -18.0316  -26.0060   22.9024 H   0  0  0  0  0  0
  -19.7916  -30.7272   24.2275 H   0  0  0  0  0  0
  -17.4992  -31.6262   24.5168 H   0  0  0  0  0  0
  -15.5338  -30.2984   23.7638 H   0  0  0  0  0  0
  -15.8668  -28.0825   22.7056 H   0  0  0  0  0  0
  -24.5919  -30.7003   25.7770 H   0  0  0  0  0  0
  -24.8887  -32.2811   26.4911 H   0  0  0  0  0  0
  -25.8071  -30.8826   27.0214 H   0  0  0  0  0  0
  -26.2851  -29.6766   24.1197 H   0  0  0  0  0  0
  -27.4046  -29.7251   25.4615 H   0  0  0  0  0  0
  -27.8705  -30.4301   23.9317 H   0  0  0  0  0  0
  -27.2684  -33.3619   26.2031 H   0  0  0  0  0  0
  -28.3850  -32.6838   25.0275 H   0  0  0  0  0  0
  -28.0723  -31.8431   26.5391 H   0  0  0  0  0  0
  -28.2589  -38.0116   24.7529 H   0  0  0  0  0  0
  -28.1098  -36.2653   24.6266 H   0  0  0  0  0  0
  -27.2314  -37.1418   25.8869 H   0  0  0  0  0  0
  -20.9359  -29.8783   21.6916 H   0  0  0  0  0  0
  -26.0185  -38.2864   24.1401 H   0  0  0  0  0  0
  -27.7352  -22.5504   21.8349 H   0  0  0  0  0  0
  -28.2464  -20.1701   22.0498 H   0  0  0  0  0  0
  -27.6305  -17.1690   21.2279 H   0  0  0  0  0  0
  -28.2675  -17.9578   22.6459 H   0  0  0  0  0  0
  -30.1597  -18.9599   18.9494 H   0  0  0  0  0  0
  -28.7848  -17.8985   18.8273 H   0  0  0  0  0  0
  -29.1799  -15.6668   22.4882 H   0  0  0  0  0  0
  -30.4726  -16.8094   22.3285 H   0  0  0  0  0  0
  -31.4799  -17.2713   20.1087 H   0  0  0  0  0  0
  -30.7809  -16.5372   18.6972 H   0  0  0  0  0  0
  -31.6995  -22.1129   17.7454 H   0  0  0  0  0  0
  -31.2710  -23.8034   17.4955 H   0  0  0  0  0  0
  -30.3135  -22.5295   16.7294 H   0  0  0  0  0  0
  -28.3674  -25.3228   21.8868 H   0  0  0  0  0  0
  -26.9455  -25.0163   20.9618 H   0  0  0  0  0  0
  1 25  1  0  0  0
  1 30  2  0  0  0
  1 85  1  0  0  0
  2  3  1  0  0  0
  2 25  1  0  0  0
  2 86  1  0  0  0
  2 87  1  0  0  0
  3  4  1  0  0  0
  3 88  1  0  0  0
  3 89  1  0  0  0
  4  5  1  0  0  0
  4 90  1  0  0  0
  4 91  1  0  0  0
  5  6  1  0  0  0
  5 26  1  0  0  0
  5 92  1  0  0  0
  6 25  1  0  0  0
  6 93  1  0  0  0
  6 94  1  0  0  0
  7  8  2  0  0  0
  7 26  1  0  0  0
  7 29  1  0  0  0
  8  9  1  0  0  0
  8 22  1  0  0  0
  9 10  1  0  0  0
  9 27  2  0  0  0
 10 11  2  0  0  0
 10 15  1  0  0  0
 11 12  1  0  0  0
 11 95  1  0  0  0
 12 13  2  0  0  0
 12 96  1  0  0  0
 13 14  1  0  0  0
 13 31  1  0  0  0
 14 15  2  0  0  0
 14 97  1  0  0  0
 15 98  1  0  0  0
 16 17  2  0  0  0
 16 21  1  0  0  0
 16 31  1  0  0  0
 17 18  1  0  0  0
 17 99  1  0  0  0
 18 19  2  0  0  0
 18100  1  0  0  0
 19 20  1  0  0  0
 19 24  1  0  0  0
 20 21  2  0  0  0
 20101  1  0  0  0
 21 23  1  0  0  0
 22 28  1  0  0  0
 22 32  2  0  0  0
 26 27  1  0  0  0
 28102  1  0  0  0
 28103  1  0  0  0
 29104  1  0  0  0
 29105  1  0  0  0
 33 34  1  0  0  0
 33 66  1  0  0  0
 33 70  2  0  0  0
 34 36  1  0  0  0
 34 59  1  0  0  0
 34106  1  0  0  0
 35 44  2  0  0  0
 35 45  1  0  0  0
 35 68  1  0  0  0
 36 56  1  0  0  0
 36107  1  0  0  0
 37 39  1  0  0  0
 37 47  1  0  0  0
 37 66  1  0  0  0
 37108  1  0  0  0
 38 43  2  0  0  0
 38 46  1  0  0  0
 38 47  1  0  0  0
 39 64  1  0  0  0
 39 67  2  0  0  0
 40 52  1  0  0  0
 40 53  2  0  0  0
 40 58  1  0  0  0
 41109  1  0  0  0
 41110  1  0  0  0
 41111  1  0  0  0
 41 48  1  0  0  0
 42 43  1  0  0  0
 42 66  1  0  0  0
 42112  1  0  0  0
 42113  1  0  0  0
 43 44  1  0  0  0
 44114  1  0  0  0
 45 46  2  0  0  0
 45115  1  0  0  0
 46116  1  0  0  0
 47117  1  0  0  0
 47118  1  0  0  0
 48 56  1  0  0  0
 48 65  1  0  0  0
 48119  1  0  0  0
 49 50  1  0  0  0
 49 53  1  0  0  0
 49 64  1  0  0  0
 49120  1  0  0  0
 50 51  1  0  0  0
 50121  1  0  0  0
 50122  1  0  0  0
 51 52  1  0  0  0
 51123  1  0  0  0
 51124  1  0  0  0
 52125  1  0  0  0
 52126  1  0  0  0
 53 54  1  0  0  0
 54 55  2  0  0  0
 54127  1  0  0  0
 55 57  1  0  0  0
 55128  1  0  0  0
 56 69  2  0  0  0
 57 58  2  0  0  0
 57129  1  0  0  0
 58130  1  0  0  0
 59 60  1  0  0  0
 59 61  1  0  0  0
 59 62  1  0  0  0
 60131  1  0  0  0
 60132  1  0  0  0
 60133  1  0  0  0
 61134  1  0  0  0
 61135  1  0  0  0
 61136  1  0  0  0
 62137  1  0  0  0
 62138  1  0  0  0
 62139  1  0  0  0
 63 65  1  0  0  0
 63140  1  0  0  0
 63141  1  0  0  0
 63142  1  0  0  0
 64143  1  0  0  0
 65144  1  0  0  0
 68 82  1  0  0  0
 71 72  2  0  0  0
 71 73  1  0  0  0
 71145  1  0  0  0
 72 76  1  0  0  0
 72 83  1  0  0  0
 73 82  1  0  0  0
 73 84  2  0  0  0
 74 81  1  0  0  0
 74 83  2  0  0  0
 74 84  1  0  0  0
 75 76  2  0  0  0
 75 77  1  0  0  0
 75 78  1  0  0  0
 76146  1  0  0  0
 77 79  1  0  0  0
 77147  1  0  0  0
 77148  1  0  0  0
 78 80  1  0  0  0
 78149  1  0  0  0
 78150  1  0  0  0
 79 85  1  0  0  0
 79151  1  0  0  0
 79152  1  0  0  0
 80 85  1  0  0  0
 80153  1  0  0  0
 80154  1  0  0  0
 81155  1  0  0  0
 81156  1  0  0  0
 81157  1  0  0  0
 82158  1  0  0  0
 82159  1  0  0  0
M  ISO  4   1 100  68 101  82 101  85 100
M  END
> <chiral flag>
0

> <version>
0

> <s_m_source_file>
/data/baiqing/PycharmProjects/Reinvent-master-3.2/result/LINK_invent/BTK/process_docking_weight1_custom_sum_contain_oxygen_bond_distance_aromatic_linkinvent_7_9_3/rearranged_h_0183.sdf

> <i_m_source_file_index>
16

> <r_mmod_Potential_Energy-OPLS-2005>
-118.818618774414

> <r_mmod_Stretch_Energy-OPLS-2005>
69.985237121582

> <r_mmod_Bend_Energy-OPLS-2005>
152.988311767578

> <r_mmod_Torsional_Energy-OPLS-2005>
327.053344726562

> <r_mmod_Improper_Torsional_Energy-OPLS-2005>
16.4756240844727

> <r_mmod_Van_der_Waal_Energy-OPLS-2005>
158.085922241211

> <r_mmod_Electrostatic_Energy-OPLS-2005>
-672.566284179688

> <r_mmod_Solvation_Energy-OPLS-2005>
-219.401275634766

> <b_mmod_Minimization_Converged-OPLS-2005>
0

> <r_mmod_RMS_Derivative-OPLS-2005>
1.92826414108276

$$$$
16
                    3D
 Structure written by MMmdl.
153162  0  0  1  0            999 V2000
  -30.3893  -15.4009   20.4390 C   0  0  0  0  0  0
  -30.4212  -12.9397   19.5355 C   0  0  0  0  0  0
  -29.5259  -12.5967   18.3131 C   0  0  0  0  0  0
  -28.1008  -12.2583   18.7757 C   0  0  0  0  0  0
  -27.5928  -13.2718   19.8258 C   0  0  2  0  0  0
  -28.6176  -13.5280   20.9539 C   0  0  0  0  0  0
  -25.2239  -13.8177   20.5765 C   0  0  0  0  0  0
  -24.1614  -13.0457   20.9224 C   0  0  0  0  0  0
  -24.6224  -11.6899   20.8810 C   0  0  0  0  0  0
  -23.8916  -10.4291   21.0392 C   0  0  0  0  0  0
  -24.3492   -9.4217   21.9166 C   0  0  0  0  0  0
  -23.6213   -8.2226   22.0767 C   0  0  0  0  0  0
  -22.4210   -8.0215   21.3522 C   0  0  0  0  0  0
  -21.9787   -9.0178   20.4620 C   0  0  0  0  0  0
  -22.7081  -10.2080   20.3030 C   0  0  0  0  0  0
  -21.6850   -6.0652   22.5254 C   0  0  0  0  0  0
  -21.4021   -6.5574   23.8180 C   0  0  0  0  0  0
  -21.3651   -5.6735   24.9147 C   0  0  0  0  0  0
  -21.6031   -4.3010   24.7189 C   0  0  0  0  0  0
  -21.8824   -3.8076   23.4340 C   0  0  0  0  0  0
  -21.9199   -4.6884   22.3400 C   0  0  0  0  0  0
  -22.7613  -13.5201   21.1854 C   0  0  0  0  0  0
  -22.1679   -4.2057   21.0969 F   0  0  0  0  0  0
  -21.5641   -3.4516   25.7733 F   0  0  0  0  0  0
  -29.7997  -14.1000   20.2974 N   0  0  0  0  0  0
  -26.2687  -12.9464   20.3259 N   0  0  0  0  0  0
  -25.9178  -11.6586   20.5794 N   0  0  0  0  0  0
  -22.0262  -12.8270   22.0401 N   0  0  0  0  0  0
  -25.3875  -15.1950   20.4227 N   0  0  0  0  0  0
  -31.6251  -15.3030   20.3436 O   0  0  0  0  0  0
  -21.6613   -6.8812   21.4226 O   0  0  0  0  0  0
  -22.3327  -14.5509   20.6617 O   0  0  0  0  0  0
  -24.6551  -31.8204   23.1763 C   0  0  0  0  0  0
  -25.9230  -32.4581   23.8213 C   0  0  1  0  0  0
  -27.1424  -26.8668   20.3185 C   0  0  0  0  0  0
  -25.5921  -33.8415   24.2111 N   0  0  0  0  0  0
  -23.4661  -30.4397   21.5176 C   0  0  2  0  0  0
  -24.9248  -28.8216   20.1140 C   0  0  0  0  0  0
  -22.7592  -29.4414   22.4713 C   0  0  0  0  0  0
  -18.0299  -28.1346   22.8431 C   0  0  0  0  0  0
  -24.1485  -36.7177   23.2627 C   0  0  0  0  0  0
  -26.0370  -30.6205   21.4127 C   0  0  0  0  0  0
  -26.0967  -29.2022   20.7754 C   0  0  0  0  0  0
  -27.2036  -28.2472   20.8564 C   0  0  0  0  0  0
  -25.9740  -26.6591   19.5497 C   0  0  0  0  0  0
  -24.8947  -27.5785   19.4636 C   0  0  0  0  0  0
  -23.7140  -29.7563   20.1409 C   0  0  0  0  0  0
  -25.4143  -36.2971   24.0304 C   0  0  1  0  0  0
  -20.5913  -28.3689   23.1147 C   0  0  2  0  0  0
  -20.6778  -26.9377   22.5365 C   0  0  0  0  0  0
  -19.5793  -26.6332   21.5133 C   0  0  0  0  0  0
  -18.1962  -26.7885   22.1551 C   0  0  0  0  0  0
  -19.1558  -28.8842   23.2766 C   0  0  0  0  0  0
  -18.9483  -30.1431   23.8824 C   0  0  0  0  0  0
  -17.6494  -30.6568   24.0522 C   0  0  0  0  0  0
  -25.9080  -34.9352   23.5025 C   0  0  0  0  0  0
  -16.5377  -29.9066   23.6330 C   0  0  0  0  0  0
  -16.7286  -28.6453   23.0385 C   0  0  0  0  0  0
  -26.4537  -31.6546   25.0735 C   0  0  0  0  0  0
  -25.3678  -31.3808   26.1389 C   0  0  0  0  0  0
  -27.0418  -30.2923   24.6504 C   0  0  0  0  0  0
  -27.6085  -32.4322   25.7496 C   0  0  0  0  0  0
  -27.5575  -37.1767   24.8479 C   0  0  0  0  0  0
  -21.4265  -29.3000   22.3495 N   0  0  0  0  0  0
  -26.4285  -37.3724   23.9401 N   0  0  0  0  0  0
  -24.7406  -30.9907   22.0863 N   0  0  0  0  0  0
  -23.4167  -28.7927   23.2901 O   0  0  0  0  0  0
  -28.0746  -25.7189   20.5381 O   0  0  0  0  0  0
  -26.5684  -34.8849   22.4618 O   0  0  0  0  0  0
  -23.5641  -32.1124   23.6885 O   0  0  0  0  0  0
  -29.2318  -19.6363   20.5383 C   0  0  0  0  0  0
  -27.2341  -18.8603   22.0952 C   0  0  0  0  0  0
  -28.4292  -20.8369   21.1139 C   0  0  0  0  0  0
  -27.4479  -20.2611   21.9707 C   0  0  0  0  0  0
  -29.0562  -18.0976   20.7822 C   0  0  0  0  0  0
  -26.8209  -21.1313   23.0435 C   0  0  0  0  0  0
  -27.9716  -21.8476   23.7507 C   0  0  0  0  0  0
  -28.6105  -22.9340   22.8423 C   0  0  0  0  0  0
  -28.6099  -22.6134   21.2627 C   0  0  2  0  0  0
  -27.7853  -24.0718   20.5036 C   0  0  0  0  0  0
  -27.9877  -17.8570   21.5715 N   0  0  0  0  0  0
  -29.7924  -16.7696   20.1778 N   0  0  0  0  0  0
  -31.4227  -13.1837   19.1847 H   0  0  0  0  0  0
  -30.5580  -12.0752   20.1863 H   0  0  0  0  0  0
  -29.9449  -11.7647   17.7453 H   0  0  0  0  0  0
  -29.4913  -13.4501   17.6317 H   0  0  0  0  0  0
  -28.1344  -11.2706   19.2395 H   0  0  0  0  0  0
  -27.4201  -12.1805   17.9296 H   0  0  0  0  0  0
  -27.4817  -14.2081   19.2740 H   0  0  0  0  0  0
  -28.8617  -12.6211   21.5162 H   0  0  0  0  0  0
  -28.2277  -14.2467   21.6744 H   0  0  0  0  0  0
  -25.2629   -9.5734   22.4749 H   0  0  0  0  0  0
  -23.9902   -7.4641   22.7540 H   0  0  0  0  0  0
  -21.0684   -8.8633   19.8983 H   0  0  0  0  0  0
  -22.3464  -10.9587   19.6153 H   0  0  0  0  0  0
  -21.2041   -7.6088   23.9642 H   0  0  0  0  0  0
  -21.1490   -6.0484   25.9028 H   0  0  0  0  0  0
  -22.0625   -2.7529   23.2862 H   0  0  0  0  0  0
  -22.3903  -11.9982   22.4867 H   0  0  0  0  0  0
  -21.0867  -13.1305   22.2631 H   0  0  0  0  0  0
  -24.6248  -15.8460   20.5744 H   0  0  0  0  0  0
  -26.2402  -15.6464   20.1203 H   0  0  0  0  0  0
  -26.7249  -32.5143   23.0882 H   0  0  0  0  0  0
  -25.0188  -33.9552   25.0341 H   0  0  0  0  0  0
  -22.7686  -31.2648   21.3505 H   0  0  0  0  0  0
  -23.3781  -35.9471   23.3306 H   0  0  0  0  0  0
  -24.3531  -36.8785   22.2025 H   0  0  0  0  0  0
  -23.7186  -37.6362   23.6658 H   0  0  0  0  0  0
  -26.2218  -31.3459   20.6195 H   0  0  0  0  0  0
  -26.8915  -30.6806   22.0718 H   0  0  0  0  0  0
  -28.0736  -28.5292   21.4343 H   0  0  0  0  0  0
  -25.8435  -25.7061   19.0576 H   0  0  0  0  0  0
  -24.0049  -27.2929   18.9206 H   0  0  0  0  0  0
  -23.8711  -30.5190   19.3777 H   0  0  0  0  0  0
  -22.8218  -29.2118   19.8286 H   0  0  0  0  0  0
  -25.1354  -36.1794   25.0811 H   0  0  0  0  0  0
  -20.9987  -28.3306   24.1268 H   0  0  0  0  0  0
  -20.5541  -26.2336   23.3603 H   0  0  0  0  0  0
  -21.6669  -26.7312   22.1256 H   0  0  0  0  0  0
  -19.6964  -25.6214   21.1211 H   0  0  0  0  0  0
  -19.6769  -27.3094   20.6622 H   0  0  0  0  0  0
  -17.4228  -26.6558   21.3978 H   0  0  0  0  0  0
  -18.0440  -26.0035   22.8970 H   0  0  0  0  0  0
  -19.7979  -30.7227   24.2176 H   0  0  0  0  0  0
  -17.5079  -31.6252   24.5104 H   0  0  0  0  0  0
  -15.5383  -30.2974   23.7705 H   0  0  0  0  0  0
  -15.8653  -28.0748   22.7222 H   0  0  0  0  0  0
  -24.5924  -30.7071   25.7706 H   0  0  0  0  0  0
  -24.8772  -32.3018   26.4600 H   0  0  0  0  0  0
  -25.7912  -30.9130   27.0293 H   0  0  0  0  0  0
  -26.3097  -29.6602   24.1481 H   0  0  0  0  0  0
  -27.3884  -29.7314   25.5186 H   0  0  0  0  0  0
  -27.9081  -30.4093   23.9990 H   0  0  0  0  0  0
  -27.2741  -33.3680   26.2003 H   0  0  0  0  0  0
  -28.3958  -32.6766   25.0344 H   0  0  0  0  0  0
  -28.0712  -31.8474   26.5461 H   0  0  0  0  0  0
  -28.2634  -38.0019   24.7519 H   0  0  0  0  0  0
  -28.1024  -36.2569   24.6370 H   0  0  0  0  0  0
  -27.2267  -37.1501   25.8864 H   0  0  0  0  0  0
  -20.9453  -29.8712   21.6693 H   0  0  0  0  0  0
  -26.0137  -38.2777   24.1438 H   0  0  0  0  0  0
  -30.0641  -19.9339   19.9141 H   0  0  0  0  0  0
  -26.4569  -18.5292   22.7670 H   0  0  0  0  0  0
  -26.2816  -20.5187   23.7712 H   0  0  0  0  0  0
  -26.0997  -21.8520   22.6541 H   0  0  0  0  0  0
  -28.7216  -21.1153   24.0821 H   0  0  0  0  0  0
  -27.5745  -22.2968   24.6614 H   0  0  0  0  0  0
  -29.6336  -23.0807   23.2233 H   0  0  0  0  0  0
  -28.0974  -23.8778   23.1004 H   0  0  0  0  0  0
  -29.6530  -22.7465   20.9640 H   0  0  0  0  0  0
  -27.8462  -23.8511   19.4319 H   0  0  0  0  0  0
  -26.7060  -23.9970   20.7269 H   0  0  0  0  0  0
  -30.4179  -17.1374   19.4764 H   0  0  0  0  0  0
  1 25  1  0  0  0
  1 30  2  0  0  0
  1 82  1  0  0  0
  2  3  1  0  0  0
  2 25  1  0  0  0
  2 83  1  0  0  0
  2 84  1  0  0  0
  3  4  1  0  0  0
  3 85  1  0  0  0
  3 86  1  0  0  0
  4  5  1  0  0  0
  4 87  1  0  0  0
  4 88  1  0  0  0
  5  6  1  0  0  0
  5 26  1  0  0  0
  5 89  1  0  0  0
  6 25  1  0  0  0
  6 90  1  0  0  0
  6 91  1  0  0  0
  7  8  2  0  0  0
  7 26  1  0  0  0
  7 29  1  0  0  0
  8  9  1  0  0  0
  8 22  1  0  0  0
  9 10  1  0  0  0
  9 27  2  0  0  0
 10 11  2  0  0  0
 10 15  1  0  0  0
 11 12  1  0  0  0
 11 92  1  0  0  0
 12 13  2  0  0  0
 12 93  1  0  0  0
 13 14  1  0  0  0
 13 31  1  0  0  0
 14 15  2  0  0  0
 14 94  1  0  0  0
 15 95  1  0  0  0
 16 17  2  0  0  0
 16 21  1  0  0  0
 16 31  1  0  0  0
 17 18  1  0  0  0
 17 96  1  0  0  0
 18 19  2  0  0  0
 18 97  1  0  0  0
 19 20  1  0  0  0
 19 24  1  0  0  0
 20 21  2  0  0  0
 20 98  1  0  0  0
 21 23  1  0  0  0
 22 28  1  0  0  0
 22 32  2  0  0  0
 26 27  1  0  0  0
 28 99  1  0  0  0
 28100  1  0  0  0
 29101  1  0  0  0
 29102  1  0  0  0
 33 34  1  0  0  0
 33 66  1  0  0  0
 33 70  2  0  0  0
 34 36  1  0  0  0
 34 59  1  0  0  0
 34103  1  0  0  0
 35 44  2  0  0  0
 35 45  1  0  0  0
 35 68  1  0  0  0
 36 56  1  0  0  0
 36104  1  0  0  0
 37 39  1  0  0  0
 37 47  1  0  0  0
 37 66  1  0  0  0
 37105  1  0  0  0
 38 43  2  0  0  0
 38 46  1  0  0  0
 38 47  1  0  0  0
 39 64  1  0  0  0
 39 67  2  0  0  0
 40 52  1  0  0  0
 40 53  2  0  0  0
 40 58  1  0  0  0
 41106  1  0  0  0
 41107  1  0  0  0
 41108  1  0  0  0
 41 48  1  0  0  0
 42 43  1  0  0  0
 42 66  1  0  0  0
 42109  1  0  0  0
 42110  1  0  0  0
 43 44  1  0  0  0
 44111  1  0  0  0
 45 46  2  0  0  0
 45112  1  0  0  0
 46113  1  0  0  0
 47114  1  0  0  0
 47115  1  0  0  0
 48 56  1  0  0  0
 48 65  1  0  0  0
 48116  1  0  0  0
 49 50  1  0  0  0
 49 53  1  0  0  0
 49 64  1  0  0  0
 49117  1  0  0  0
 50 51  1  0  0  0
 50118  1  0  0  0
 50119  1  0  0  0
 51 52  1  0  0  0
 51120  1  0  0  0
 51121  1  0  0  0
 52122  1  0  0  0
 52123  1  0  0  0
 53 54  1  0  0  0
 54 55  2  0  0  0
 54124  1  0  0  0
 55 57  1  0  0  0
 55125  1  0  0  0
 56 69  2  0  0  0
 57 58  2  0  0  0
 57126  1  0  0  0
 58127  1  0  0  0
 59 60  1  0  0  0
 59 61  1  0  0  0
 59 62  1  0  0  0
 60128  1  0  0  0
 60129  1  0  0  0
 60130  1  0  0  0
 61131  1  0  0  0
 61132  1  0  0  0
 61133  1  0  0  0
 62134  1  0  0  0
 62135  1  0  0  0
 62136  1  0  0  0
 63 65  1  0  0  0
 63137  1  0  0  0
 63138  1  0  0  0
 63139  1  0  0  0
 64140  1  0  0  0
 65141  1  0  0  0
 68 80  1  0  0  0
 71 73  2  0  0  0
 71 75  1  0  0  0
 71142  1  0  0  0
 72 74  2  0  0  0
 72 81  1  0  0  0
 72143  1  0  0  0
 73 74  1  0  0  0
 73 79  1  0  0  0
 74 76  1  0  0  0
 75 81  2  0  0  0
 75 82  1  0  0  0
 76 77  1  0  0  0
 76144  1  0  0  0
 76145  1  0  0  0
 77 78  1  0  0  0
 77146  1  0  0  0
 77147  1  0  0  0
 78 79  1  0  0  0
 78148  1  0  0  0
 78149  1  0  0  0
 79 80  1  0  0  0
 79150  1  0  0  0
 80151  1  0  0  0
 80152  1  0  0  0
 82153  1  0  0  0
M  ISO  4   1 100  68 101  80 101  82 100
M  END
> <chiral flag>
0

> <version>
0

> <s_m_source_file>
/data/baiqing/PycharmProjects/Reinvent-master-3.2/result/LINK_invent/BTK/process_docking_weight1_custom_sum_contain_oxygen_bond_distance_aromatic_linkinvent_7_9_3/rearranged_h_0183.sdf

> <i_m_source_file_index>
17

> <r_mmod_Potential_Energy-OPLS-2005>
1583.77978515625

> <r_mmod_Stretch_Energy-OPLS-2005>
686.5908203125

> <r_mmod_Bend_Energy-OPLS-2005>
513.984130859375

> <r_mmod_Torsional_Energy-OPLS-2005>
304.195709228516

> <r_mmod_Improper_Torsional_Energy-OPLS-2005>
27.2454929351807

> <r_mmod_Van_der_Waal_Energy-OPLS-2005>
134.602752685547

> <r_mmod_Electrostatic_Energy-OPLS-2005>
-496.936462402344

> <r_mmod_Solvation_Energy-OPLS-2005>
-209.85661315918

> <b_mmod_Minimization_Converged-OPLS-2005>
0

> <r_mmod_RMS_Derivative-OPLS-2005>
13.6479711532593

$$$$
17
                    3D
 Structure written by MMmdl.
154162  0  0  1  0            999 V2000
  -30.5253  -14.9801   20.3762 C   0  0  0  0  0  0
  -30.4274  -12.6056   19.4762 C   0  0  0  0  0  0
  -29.5102  -12.5404   18.2339 C   0  0  0  0  0  0
  -28.0362  -12.3490   18.6432 C   0  0  0  0  0  0
  -27.6174  -13.2634   19.8242 C   0  0  2  0  0  0
  -28.6670  -13.2996   20.9540 C   0  0  0  0  0  0
  -25.2407  -13.8253   20.5729 C   0  0  0  0  0  0
  -24.1762  -13.0445   20.9285 C   0  0  0  0  0  0
  -24.6403  -11.6941   20.8789 C   0  0  0  0  0  0
  -23.9104  -10.4314   21.0432 C   0  0  0  0  0  0
  -24.3673   -9.4218   21.9175 C   0  0  0  0  0  0
  -23.6359   -8.2242   22.0697 C   0  0  0  0  0  0
  -22.4329   -8.0293   21.3517 C   0  0  0  0  0  0
  -21.9987   -9.0257   20.4610 C   0  0  0  0  0  0
  -22.7304  -10.2142   20.3043 C   0  0  0  0  0  0
  -21.6861   -6.0777   22.5286 C   0  0  0  0  0  0
  -21.4004   -6.5667   23.8226 C   0  0  0  0  0  0
  -21.3673   -5.6812   24.9186 C   0  0  0  0  0  0
  -21.6042   -4.3075   24.7223 C   0  0  0  0  0  0
  -21.8829   -3.8175   23.4346 C   0  0  0  0  0  0
  -21.9195   -4.7002   22.3408 C   0  0  0  0  0  0
  -22.7789  -13.5167   21.1994 C   0  0  0  0  0  0
  -22.1665   -4.2197   21.0989 F   0  0  0  0  0  0
  -21.5635   -3.4546   25.7733 F   0  0  0  0  0  0
  -29.9343  -13.7169   20.3397 N   0  0  0  0  0  0
  -26.2831  -12.9502   20.3194 N   0  0  0  0  0  0
  -25.9325  -11.6624   20.5711 N   0  0  0  0  0  0
  -22.0468  -12.8079   22.0533 N   0  0  0  0  0  0
  -25.4079  -15.1993   20.4165 N   0  0  0  0  0  0
  -31.7424  -15.0315   20.1661 O   0  0  0  0  0  0
  -21.6648   -6.8922   21.4250 O   0  0  0  0  0  0
  -22.3453  -14.5479   20.6874 O   0  0  0  0  0  0
  -24.6516  -31.8387   23.1851 C   0  0  0  0  0  0
  -25.9244  -32.4675   23.8275 C   0  0  1  0  0  0
  -27.2093  -27.0830   20.1502 C   0  0  0  0  0  0
  -25.5973  -33.8489   24.2159 N   0  0  0  0  0  0
  -23.4556  -30.4587   21.5317 C   0  0  2  0  0  0
  -24.9027  -28.8721   20.1120 C   0  0  0  0  0  0
  -22.7607  -29.4522   22.4851 C   0  0  0  0  0  0
  -18.0315  -28.1399   22.8461 C   0  0  0  0  0  0
  -24.1504  -36.7239   23.2645 C   0  0  0  0  0  0
  -26.0185  -30.6920   21.3933 C   0  0  0  0  0  0
  -26.0816  -29.2976   20.7367 C   0  0  0  0  0  0
  -27.2349  -28.4175   20.7421 C   0  0  0  0  0  0
  -26.0041  -26.7703   19.4872 C   0  0  0  0  0  0
  -24.8783  -27.6248   19.4712 C   0  0  0  0  0  0
  -23.6816  -29.7816   20.1536 C   0  0  0  0  0  0
  -25.4132  -36.3015   24.0314 C   0  0  1  0  0  0
  -20.5931  -28.3723   23.1211 C   0  0  2  0  0  0
  -20.6798  -26.9421   22.5381 C   0  0  0  0  0  0
  -19.5769  -26.6373   21.5200 C   0  0  0  0  0  0
  -18.1960  -26.7931   22.1621 C   0  0  0  0  0  0
  -19.1575  -28.8879   23.2834 C   0  0  0  0  0  0
  -18.9491  -30.1483   23.8843 C   0  0  0  0  0  0
  -17.6482  -30.6587   24.0552 C   0  0  0  0  0  0
  -25.9084  -34.9390   23.5044 C   0  0  0  0  0  0
  -16.5368  -29.9064   23.6357 C   0  0  0  0  0  0
  -16.7298  -28.6500   23.0349 C   0  0  0  0  0  0
  -26.4515  -31.6579   25.0759 C   0  0  0  0  0  0
  -25.3644  -31.3764   26.1417 C   0  0  0  0  0  0
  -27.0410  -30.2984   24.6413 C   0  0  0  0  0  0
  -27.6100  -32.4308   25.7499 C   0  0  0  0  0  0
  -27.5572  -37.1778   24.8460 C   0  0  0  0  0  0
  -21.4296  -29.3040   22.3585 N   0  0  0  0  0  0
  -26.4270  -37.3740   23.9410 N   0  0  0  0  0  0
  -24.7287  -31.0202   22.0892 N   0  0  0  0  0  0
  -23.4244  -28.8057   23.3009 O   0  0  0  0  0  0
  -28.2391  -26.0611   20.2252 O   0  0  0  0  0  0
  -26.5691  -34.8887   22.4637 O   0  0  0  0  0  0
  -23.5619  -32.1260   23.7050 O   0  0  0  0  0  0
  -27.9289  -21.2097   18.6343 C   0  0  0  0  0  0
  -28.5198  -18.9209   18.6962 C   0  0  0  0  0  0
  -28.6990  -21.5368   19.7916 C   0  0  0  0  0  0
  -29.2679  -19.0523   19.8945 C   0  0  0  0  0  0
  -27.1380  -22.2256   17.8280 C   0  0  0  0  0  0
  -28.4724  -17.6213   17.9104 C   0  0  0  0  0  0
  -28.9087  -23.1359   20.2746 C   0  0  0  0  0  0
  -30.1005  -17.7304   20.4919 C   0  0  0  0  0  0
  -27.9670  -24.5325   19.9371 C   0  0  0  0  0  0
  -27.8568  -19.9532   18.1197 N   0  0  0  0  0  0
  -29.3466  -20.4002   20.3986 N   0  0  0  0  0  0
  -29.7418  -16.1749   20.4341 N   0  0  0  0  0  0
  -31.4599  -12.7678   19.1635 H   0  0  0  0  0  0
  -30.4173  -11.6537   20.0087 H   0  0  0  0  0  0
  -29.8158  -11.7365   17.5642 H   0  0  0  0  0  0
  -29.6152  -13.4627   17.6632 H   0  0  0  0  0  0
  -27.8985  -11.3037   18.9174 H   0  0  0  0  0  0
  -27.3839  -12.5247   17.7851 H   0  0  0  0  0  0
  -27.5710  -14.2693   19.4061 H   0  0  0  0  0  0
  -28.7609  -12.3259   21.4384 H   0  0  0  0  0  0
  -28.3750  -14.0138   21.7275 H   0  0  0  0  0  0
  -25.2825   -9.5691   22.4736 H   0  0  0  0  0  0
  -24.0110   -7.4612   22.7356 H   0  0  0  0  0  0
  -21.0937   -8.8787   19.8888 H   0  0  0  0  0  0
  -22.3789  -10.9690   19.6155 H   0  0  0  0  0  0
  -21.1975   -7.6167   23.9754 H   0  0  0  0  0  0
  -21.1486   -6.0523   25.9095 H   0  0  0  0  0  0
  -22.0595   -2.7637   23.2821 H   0  0  0  0  0  0
  -22.4139  -11.9754   22.4918 H   0  0  0  0  0  0
  -21.1027  -13.0953   22.2683 H   0  0  0  0  0  0
  -24.6457  -15.8592   20.5246 H   0  0  0  0  0  0
  -26.2522  -15.6316   20.0669 H   0  0  0  0  0  0
  -26.7331  -32.5242   23.1024 H   0  0  0  0  0  0
  -25.0072  -33.9595   25.0280 H   0  0  0  0  0  0
  -22.7636  -31.2898   21.3743 H   0  0  0  0  0  0
  -23.3768  -35.9570   23.3277 H   0  0  0  0  0  0
  -24.3571  -36.8903   22.2058 H   0  0  0  0  0  0
  -23.7253  -37.6418   23.6710 H   0  0  0  0  0  0
  -26.1891  -31.4341   20.6125 H   0  0  0  0  0  0
  -26.8883  -30.7431   22.0387 H   0  0  0  0  0  0
  -28.1265  -28.7301   21.2653 H   0  0  0  0  0  0
  -25.8884  -25.8141   18.9999 H   0  0  0  0  0  0
  -23.9776  -27.2885   18.9776 H   0  0  0  0  0  0
  -23.8149  -30.5527   19.3945 H   0  0  0  0  0  0
  -22.7978  -29.2210   19.8427 H   0  0  0  0  0  0
  -25.1323  -36.1823   25.0805 H   0  0  0  0  0  0
  -21.0058  -28.3306   24.1317 H   0  0  0  0  0  0
  -20.5694  -26.2338   23.3607 H   0  0  0  0  0  0
  -21.6662  -26.7400   22.1178 H   0  0  0  0  0  0
  -19.6927  -25.6274   21.1254 H   0  0  0  0  0  0
  -19.6714  -27.3169   20.6726 H   0  0  0  0  0  0
  -17.4223  -26.6677   21.4030 H   0  0  0  0  0  0
  -18.0366  -26.0075   22.9025 H   0  0  0  0  0  0
  -19.7953  -30.7335   24.2196 H   0  0  0  0  0  0
  -17.5012  -31.6265   24.5151 H   0  0  0  0  0  0
  -15.5363  -30.2944   23.7719 H   0  0  0  0  0  0
  -15.8707  -28.0812   22.7081 H   0  0  0  0  0  0
  -24.5875  -30.7092   25.7662 H   0  0  0  0  0  0
  -24.8753  -32.2922   26.4741 H   0  0  0  0  0  0
  -25.7842  -30.8957   27.0265 H   0  0  0  0  0  0
  -26.3052  -29.6702   24.1393 H   0  0  0  0  0  0
  -27.3964  -29.7328   25.5033 H   0  0  0  0  0  0
  -27.8986  -30.4219   23.9803 H   0  0  0  0  0  0
  -27.2803  -33.3689   26.1965 H   0  0  0  0  0  0
  -28.3929  -32.6713   25.0295 H   0  0  0  0  0  0
  -28.0752  -31.8471   26.5452 H   0  0  0  0  0  0
  -28.2577  -38.0090   24.7514 H   0  0  0  0  0  0
  -28.1075  -36.2617   24.6265 H   0  0  0  0  0  0
  -27.2279  -37.1373   25.8858 H   0  0  0  0  0  0
  -20.9558  -29.8744   21.6721 H   0  0  0  0  0  0
  -26.0136  -38.2813   24.1388 H   0  0  0  0  0  0
  -26.3909  -22.7163   18.4524 H   0  0  0  0  0  0
  -26.6020  -21.7685   16.9932 H   0  0  0  0  0  0
  -27.8036  -22.9707   17.3940 H   0  0  0  0  0  0
  -29.4744  -17.2058   17.7967 H   0  0  0  0  0  0
  -28.0821  -17.7847   16.9052 H   0  0  0  0  0  0
  -27.8379  -16.8878   18.4072 H   0  0  0  0  0  0
  -29.9135  -23.3717   19.9251 H   0  0  0  0  0  0
  -28.9981  -23.0990   21.3614 H   0  0  0  0  0  0
  -30.2797  -17.9385   21.5474 H   0  0  0  0  0  0
  -31.0829  -17.8096   20.0257 H   0  0  0  0  0  0
  -26.9879  -24.3117   20.3665 H   0  0  0  0  0  0
  -27.8091  -24.5448   18.8630 H   0  0  0  0  0  0
  -28.7544  -15.9901   20.5209 H   0  0  0  0  0  0
  1 25  1  0  0  0
  1 30  2  0  0  0
  1 82  1  0  0  0
  2  3  1  0  0  0
  2 25  1  0  0  0
  2 83  1  0  0  0
  2 84  1  0  0  0
  3  4  1  0  0  0
  3 85  1  0  0  0
  3 86  1  0  0  0
  4  5  1  0  0  0
  4 87  1  0  0  0
  4 88  1  0  0  0
  5  6  1  0  0  0
  5 26  1  0  0  0
  5 89  1  0  0  0
  6 25  1  0  0  0
  6 90  1  0  0  0
  6 91  1  0  0  0
  7  8  2  0  0  0
  7 26  1  0  0  0
  7 29  1  0  0  0
  8  9  1  0  0  0
  8 22  1  0  0  0
  9 10  1  0  0  0
  9 27  2  0  0  0
 10 11  2  0  0  0
 10 15  1  0  0  0
 11 12  1  0  0  0
 11 92  1  0  0  0
 12 13  2  0  0  0
 12 93  1  0  0  0
 13 14  1  0  0  0
 13 31  1  0  0  0
 14 15  2  0  0  0
 14 94  1  0  0  0
 15 95  1  0  0  0
 16 17  2  0  0  0
 16 21  1  0  0  0
 16 31  1  0  0  0
 17 18  1  0  0  0
 17 96  1  0  0  0
 18 19  2  0  0  0
 18 97  1  0  0  0
 19 20  1  0  0  0
 19 24  1  0  0  0
 20 21  2  0  0  0
 20 98  1  0  0  0
 21 23  1  0  0  0
 22 28  1  0  0  0
 22 32  2  0  0  0
 26 27  1  0  0  0
 28 99  1  0  0  0
 28100  1  0  0  0
 29101  1  0  0  0
 29102  1  0  0  0
 33 34  1  0  0  0
 33 66  1  0  0  0
 33 70  2  0  0  0
 34 36  1  0  0  0
 34 59  1  0  0  0
 34103  1  0  0  0
 35 44  2  0  0  0
 35 45  1  0  0  0
 35 68  1  0  0  0
 36 56  1  0  0  0
 36104  1  0  0  0
 37 39  1  0  0  0
 37 47  1  0  0  0
 37 66  1  0  0  0
 37105  1  0  0  0
 38 43  2  0  0  0
 38 46  1  0  0  0
 38 47  1  0  0  0
 39 64  1  0  0  0
 39 67  2  0  0  0
 40 52  1  0  0  0
 40 53  2  0  0  0
 40 58  1  0  0  0
 41106  1  0  0  0
 41107  1  0  0  0
 41108  1  0  0  0
 41 48  1  0  0  0
 42 43  1  0  0  0
 42 66  1  0  0  0
 42109  1  0  0  0
 42110  1  0  0  0
 43 44  1  0  0  0
 44111  1  0  0  0
 45 46  2  0  0  0
 45112  1  0  0  0
 46113  1  0  0  0
 47114  1  0  0  0
 47115  1  0  0  0
 48 56  1  0  0  0
 48 65  1  0  0  0
 48116  1  0  0  0
 49 50  1  0  0  0
 49 53  1  0  0  0
 49 64  1  0  0  0
 49117  1  0  0  0
 50 51  1  0  0  0
 50118  1  0  0  0
 50119  1  0  0  0
 51 52  1  0  0  0
 51120  1  0  0  0
 51121  1  0  0  0
 52122  1  0  0  0
 52123  1  0  0  0
 53 54  1  0  0  0
 54 55  2  0  0  0
 54124  1  0  0  0
 55 57  1  0  0  0
 55125  1  0  0  0
 56 69  2  0  0  0
 57 58  2  0  0  0
 57126  1  0  0  0
 58127  1  0  0  0
 59 60  1  0  0  0
 59 61  1  0  0  0
 59 62  1  0  0  0
 60128  1  0  0  0
 60129  1  0  0  0
 60130  1  0  0  0
 61131  1  0  0  0
 61132  1  0  0  0
 61133  1  0  0  0
 62134  1  0  0  0
 62135  1  0  0  0
 62136  1  0  0  0
 63 65  1  0  0  0
 63137  1  0  0  0
 63138  1  0  0  0
 63139  1  0  0  0
 64140  1  0  0  0
 65141  1  0  0  0
 68 79  1  0  0  0
 71 73  2  0  0  0
 71 75  1  0  0  0
 71 80  1  0  0  0
 72 74  1  0  0  0
 72 76  1  0  0  0
 72 80  2  0  0  0
 73 77  1  0  0  0
 73 81  1  0  0  0
 74 78  1  0  0  0
 74 81  2  0  0  0
 75142  1  0  0  0
 75143  1  0  0  0
 75144  1  0  0  0
 76145  1  0  0  0
 76146  1  0  0  0
 76147  1  0  0  0
 77 79  1  0  0  0
 77148  1  0  0  0
 77149  1  0  0  0
 78 82  1  0  0  0
 78150  1  0  0  0
 78151  1  0  0  0
 79152  1  0  0  0
 79153  1  0  0  0
 82154  1  0  0  0
M  ISO  4   1 100  68 101  79 101  82 100
M  END
> <chiral flag>
0

> <version>
0

> <s_m_source_file>
/data/baiqing/PycharmProjects/Reinvent-master-3.2/result/LINK_invent/BTK/process_docking_weight1_custom_sum_contain_oxygen_bond_distance_aromatic_linkinvent_7_9_3/rearranged_h_0183.sdf

> <i_m_source_file_index>
18

> <r_mmod_Potential_Energy-OPLS-2005>
555.33544921875

> <r_mmod_Stretch_Energy-OPLS-2005>
317.766876220703

> <r_mmod_Bend_Energy-OPLS-2005>
288.959136962891

> <r_mmod_Torsional_Energy-OPLS-2005>
203.608688354492

> <r_mmod_Improper_Torsional_Energy-OPLS-2005>
5.55963611602783

> <r_mmod_Van_der_Waal_Energy-OPLS-2005>
131.663589477539

> <r_mmod_Electrostatic_Energy-OPLS-2005>
-389.808532714844

> <r_mmod_Solvation_Energy-OPLS-2005>
-235.077270507812

> <b_mmod_Minimization_Converged-OPLS-2005>
0

> <r_mmod_RMS_Derivative-OPLS-2005>
4.22625255584717

$$$$
18
                    3D
 Structure written by MMmdl.
166175  0  0  1  0            999 V2000
  -30.6250  -14.7882   20.4848 C   0  0  0  0  0  0
  -30.4338  -12.4968   19.4719 C   0  0  0  0  0  0
  -29.5076  -12.5147   18.2356 C   0  0  0  0  0  0
  -28.0351  -12.3273   18.6509 C   0  0  0  0  0  0
  -27.6382  -13.2270   19.8500 C   0  0  2  0  0  0
  -28.6879  -13.1535   20.9809 C   0  0  0  0  0  0
  -25.2444  -13.8159   20.5618 C   0  0  0  0  0  0
  -24.1766  -13.0405   20.9200 C   0  0  0  0  0  0
  -24.6383  -11.6899   20.8761 C   0  0  0  0  0  0
  -23.9066  -10.4280   21.0415 C   0  0  0  0  0  0
  -24.3618   -9.4202   21.9193 C   0  0  0  0  0  0
  -23.6291   -8.2241   22.0759 C   0  0  0  0  0  0
  -22.4276   -8.0280   21.3546 C   0  0  0  0  0  0
  -21.9914   -9.0255   20.4646 C   0  0  0  0  0  0
  -22.7245  -10.2128   20.3059 C   0  0  0  0  0  0
  -21.6857   -6.0737   22.5278 C   0  0  0  0  0  0
  -21.4012   -6.5641   23.8209 C   0  0  0  0  0  0
  -21.3654   -5.6795   24.9172 C   0  0  0  0  0  0
  -21.6045   -4.3057   24.7223 C   0  0  0  0  0  0
  -21.8818   -3.8150   23.4346 C   0  0  0  0  0  0
  -21.9192   -4.6965   22.3399 C   0  0  0  0  0  0
  -22.7792  -13.5192   21.1860 C   0  0  0  0  0  0
  -22.1666   -4.2149   21.0978 F   0  0  0  0  0  0
  -21.5635   -3.4542   25.7738 F   0  0  0  0  0  0
  -29.9721  -13.5663   20.3969 N   0  0  0  0  0  0
  -26.2907  -12.9380   20.3281 N   0  0  0  0  0  0
  -25.9316  -11.6530   20.5797 N   0  0  0  0  0  0
  -22.0447  -12.8182   22.0422 N   0  0  0  0  0  0
  -25.3985  -15.1869   20.3895 N   0  0  0  0  0  0
  -31.8117  -14.8300   20.1420 O   0  0  0  0  0  0
  -21.6644   -6.8878   21.4239 O   0  0  0  0  0  0
  -22.3479  -14.5502   20.6723 O   0  0  0  0  0  0
  -24.6324  -31.8524   23.1959 C   0  0  0  0  0  0
  -25.9142  -32.4742   23.8312 C   0  0  1  0  0  0
  -27.2253  -27.2567   20.1398 C   0  0  0  0  0  0
  -25.5935  -33.8544   24.2246 N   0  0  0  0  0  0
  -23.4296  -30.4720   21.5396 C   0  0  2  0  0  0
  -24.8784  -28.9086   20.1188 C   0  0  0  0  0  0
  -22.7494  -29.4587   22.4915 C   0  0  0  0  0  0
  -18.0286  -28.1387   22.8487 C   0  0  0  0  0  0
  -24.1488  -36.7275   23.2642 C   0  0  0  0  0  0
  -25.9742  -30.7657   21.3730 C   0  0  0  0  0  0
  -26.0503  -29.3833   20.7237 C   0  0  0  0  0  0
  -27.2304  -28.5714   20.7179 C   0  0  0  0  0  0
  -26.0319  -26.8397   19.5190 C   0  0  0  0  0  0
  -24.8733  -27.6443   19.5055 C   0  0  0  0  0  0
  -23.6489  -29.7968   20.1597 C   0  0  0  0  0  0
  -25.4117  -36.3062   24.0325 C   0  0  1  0  0  0
  -20.5888  -28.3696   23.1276 C   0  0  2  0  0  0
  -20.6771  -26.9414   22.5411 C   0  0  0  0  0  0
  -19.5749  -26.6387   21.5210 C   0  0  0  0  0  0
  -18.1926  -26.7934   22.1618 C   0  0  0  0  0  0
  -19.1539  -28.8857   23.2875 C   0  0  0  0  0  0
  -18.9463  -30.1457   23.8895 C   0  0  0  0  0  0
  -17.6462  -30.6589   24.0559 C   0  0  0  0  0  0
  -25.9054  -34.9434   23.5086 C   0  0  0  0  0  0
  -16.5353  -29.9083   23.6335 C   0  0  0  0  0  0
  -16.7273  -28.6498   23.0364 C   0  0  0  0  0  0
  -26.4512  -31.6569   25.0703 C   0  0  0  0  0  0
  -25.3740  -31.3699   26.1423 C   0  0  0  0  0  0
  -27.0370  -30.2999   24.6176 C   0  0  0  0  0  0
  -27.6062  -32.4308   25.7486 C   0  0  0  0  0  0
  -27.5576  -37.1794   24.8468 C   0  0  0  0  0  0
  -21.4201  -29.3037   22.3658 N   0  0  0  0  0  0
  -26.4291  -37.3763   23.9410 N   0  0  0  0  0  0
  -24.6980  -31.0482   22.0933 N   0  0  0  0  0  0
  -23.4185  -28.8128   23.3020 O   0  0  0  0  0  0
  -28.3241  -26.3736   20.1014 O   0  0  0  0  0  0
  -26.5614  -34.8916   22.4648 O   0  0  0  0  0  0
  -23.5475  -32.1335   23.7262 O   0  0  0  0  0  0
  -29.1576  -22.4741   20.8662 C   0  0  0  0  0  0
  -28.4882  -23.6303   20.2623 C   0  0  0  0  0  0
  -29.0499  -21.1754   20.2212 C   0  0  0  0  0  0
  -27.7629  -22.1904   18.6076 C   0  0  0  0  0  0
  -28.5687  -17.8458   21.5614 C   0  0  0  0  0  0
  -28.7407  -16.3041   21.4311 C   0  0  0  0  0  0
  -30.4190  -17.3793   20.1840 C   0  0  0  0  0  0
  -29.2956  -18.4998   20.3835 C   0  0  2  0  0  0
  -26.9524  -22.0186   17.3412 C   0  0  0  0  0  0
  -31.4470  -22.3466   22.0180 C   0  0  0  0  0  0
  -29.3167  -21.8232   23.3376 C   0  0  0  0  0  0
  -28.2766  -25.0987   20.8952 C   0  0  0  0  0  0
  -29.9410  -22.6228   22.1819 C   0  0  0  0  0  0
  -27.8083  -23.4203   19.1173 N   0  0  0  0  0  0
  -28.3295  -21.0866   19.0956 N   0  0  0  0  0  0
  -29.9280  -16.0072   20.6151 N   0  0  0  0  0  0
  -29.6879  -19.9455   20.6568 N   0  0  0  0  0  0
  -31.4683  -12.6340   19.1534 H   0  0  0  0  0  0
  -30.4088  -11.5231   19.9636 H   0  0  0  0  0  0
  -29.7994  -11.7345   17.5308 H   0  0  0  0  0  0
  -29.6234  -13.4627   17.7081 H   0  0  0  0  0  0
  -27.8984  -11.2785   18.9179 H   0  0  0  0  0  0
  -27.3753  -12.5145   17.8031 H   0  0  0  0  0  0
  -27.6286  -14.2434   19.4586 H   0  0  0  0  0  0
  -28.7544  -12.1373   21.3727 H   0  0  0  0  0  0
  -28.4054  -13.7649   21.8340 H   0  0  0  0  0  0
  -25.2764   -9.5680   22.4765 H   0  0  0  0  0  0
  -23.9998   -7.4633   22.7484 H   0  0  0  0  0  0
  -21.0847   -8.8780   19.8947 H   0  0  0  0  0  0
  -22.3716  -10.9672   19.6166 H   0  0  0  0  0  0
  -21.2006   -7.6148   23.9709 H   0  0  0  0  0  0
  -21.1474   -6.0528   25.9073 H   0  0  0  0  0  0
  -22.0596   -2.7612   23.2849 H   0  0  0  0  0  0
  -22.4085  -11.9856   22.4814 H   0  0  0  0  0  0
  -21.1060  -13.1202   22.2612 H   0  0  0  0  0  0
  -24.6203  -15.8283   20.4948 H   0  0  0  0  0  0
  -26.2328  -15.6324   20.0316 H   0  0  0  0  0  0
  -26.7205  -32.5403   23.1054 H   0  0  0  0  0  0
  -25.0109  -33.9670   25.0411 H   0  0  0  0  0  0
  -22.7283  -31.2949   21.3885 H   0  0  0  0  0  0
  -23.3759  -35.9597   23.3296 H   0  0  0  0  0  0
  -24.3581  -36.8905   22.2058 H   0  0  0  0  0  0
  -23.7231  -37.6470   23.6670 H   0  0  0  0  0  0
  -26.1067  -31.5218   20.5977 H   0  0  0  0  0  0
  -26.8542  -30.8236   22.0020 H   0  0  0  0  0  0
  -28.1348  -28.9359   21.1840 H   0  0  0  0  0  0
  -25.9968  -25.8680   19.0453 H   0  0  0  0  0  0
  -23.9754  -27.2751   19.0284 H   0  0  0  0  0  0
  -23.7713  -30.5673   19.3976 H   0  0  0  0  0  0
  -22.7685  -29.2257   19.8587 H   0  0  0  0  0  0
  -25.1303  -36.1903   25.0818 H   0  0  0  0  0  0
  -20.9977  -28.3276   24.1398 H   0  0  0  0  0  0
  -20.5667  -26.2301   23.3610 H   0  0  0  0  0  0
  -21.6641  -26.7429   22.1211 H   0  0  0  0  0  0
  -19.6906  -25.6296   21.1242 H   0  0  0  0  0  0
  -19.6697  -27.3193   20.6739 H   0  0  0  0  0  0
  -17.4195  -26.6687   21.4019 H   0  0  0  0  0  0
  -18.0322  -26.0075   22.9015 H   0  0  0  0  0  0
  -19.7938  -30.7270   24.2273 H   0  0  0  0  0  0
  -17.5014  -31.6274   24.5153 H   0  0  0  0  0  0
  -15.5351  -30.2980   23.7665 H   0  0  0  0  0  0
  -15.8675  -28.0806   22.7100 H   0  0  0  0  0  0
  -24.5961  -30.6989   25.7760 H   0  0  0  0  0  0
  -24.8874  -32.2851   26.4809 H   0  0  0  0  0  0
  -25.8077  -30.8929   27.0223 H   0  0  0  0  0  0
  -26.2956  -29.6744   24.1193 H   0  0  0  0  0  0
  -27.4062  -29.7260   25.4686 H   0  0  0  0  0  0
  -27.8822  -30.4294   23.9413 H   0  0  0  0  0  0
  -27.2685  -33.3640   26.2011 H   0  0  0  0  0  0
  -28.3913  -32.6811   25.0335 H   0  0  0  0  0  0
  -28.0682  -31.8454   26.5449 H   0  0  0  0  0  0
  -28.2591  -38.0095   24.7523 H   0  0  0  0  0  0
  -28.1077  -36.2625   24.6295 H   0  0  0  0  0  0
  -27.2287  -37.1442   25.8870 H   0  0  0  0  0  0
  -20.9376  -29.8756   21.6865 H   0  0  0  0  0  0
  -26.0168  -38.2833   24.1427 H   0  0  0  0  0  0
  -29.0303  -18.1640   22.4976 H   0  0  0  0  0  0
  -27.5199  -18.1426   21.6120 H   0  0  0  0  0  0
  -27.8628  -15.8897   20.9487 H   0  0  0  0  0  0
  -28.8234  -15.8558   22.4215 H   0  0  0  0  0  0
  -31.2970  -17.6182   20.7864 H   0  0  0  0  0  0
  -30.7527  -17.3490   19.1456 H   0  0  0  0  0  0
  -28.6365  -18.4754   19.5138 H   0  0  0  0  0  0
  -26.6838  -22.9814   16.9059 H   0  0  0  0  0  0
  -26.0314  -21.4755   17.5523 H   0  0  0  0  0  0
  -27.5176  -21.4596   16.5958 H   0  0  0  0  0  0
  -31.8837  -22.9834   21.2474 H   0  0  0  0  0  0
  -31.6665  -21.3140   21.7522 H   0  0  0  0  0  0
  -31.9824  -22.5541   22.9457 H   0  0  0  0  0  0
  -28.2758  -22.1088   23.4925 H   0  0  0  0  0  0
  -29.8437  -22.0182   24.2722 H   0  0  0  0  0  0
  -29.3435  -20.7469   23.1751 H   0  0  0  0  0  0
  -29.0170  -25.2733   21.6682 H   0  0  0  0  0  0
  -27.3266  -25.0624   21.4302 H   0  0  0  0  0  0
  -29.8913  -23.6527   22.5155 H   0  0  0  0  0  0
  -30.2734  -20.0774   21.4719 H   0  0  0  0  0  0
  1 25  1  0  0  0
  1 30  2  0  0  0
  1 86  1  0  0  0
  2  3  1  0  0  0
  2 25  1  0  0  0
  2 88  1  0  0  0
  2 89  1  0  0  0
  3  4  1  0  0  0
  3 90  1  0  0  0
  3 91  1  0  0  0
  4  5  1  0  0  0
  4 92  1  0  0  0
  4 93  1  0  0  0
  5  6  1  0  0  0
  5 26  1  0  0  0
  5 94  1  0  0  0
  6 25  1  0  0  0
  6 95  1  0  0  0
  6 96  1  0  0  0
  7  8  2  0  0  0
  7 26  1  0  0  0
  7 29  1  0  0  0
  8  9  1  0  0  0
  8 22  1  0  0  0
  9 10  1  0  0  0
  9 27  2  0  0  0
 10 11  2  0  0  0
 10 15  1  0  0  0
 11 12  1  0  0  0
 11 97  1  0  0  0
 12 13  2  0  0  0
 12 98  1  0  0  0
 13 14  1  0  0  0
 13 31  1  0  0  0
 14 15  2  0  0  0
 14 99  1  0  0  0
 15100  1  0  0  0
 16 17  2  0  0  0
 16 21  1  0  0  0
 16 31  1  0  0  0
 17 18  1  0  0  0
 17101  1  0  0  0
 18 19  2  0  0  0
 18102  1  0  0  0
 19 20  1  0  0  0
 19 24  1  0  0  0
 20 21  2  0  0  0
 20103  1  0  0  0
 21 23  1  0  0  0
 22 28  1  0  0  0
 22 32  2  0  0  0
 26 27  1  0  0  0
 28104  1  0  0  0
 28105  1  0  0  0
 29106  1  0  0  0
 29107  1  0  0  0
 33 34  1  0  0  0
 33 66  1  0  0  0
 33 70  2  0  0  0
 34 36  1  0  0  0
 34 59  1  0  0  0
 34108  1  0  0  0
 35 44  2  0  0  0
 35 45  1  0  0  0
 35 68  1  0  0  0
 36 56  1  0  0  0
 36109  1  0  0  0
 37 39  1  0  0  0
 37 47  1  0  0  0
 37 66  1  0  0  0
 37110  1  0  0  0
 38 43  2  0  0  0
 38 46  1  0  0  0
 38 47  1  0  0  0
 39 64  1  0  0  0
 39 67  2  0  0  0
 40 52  1  0  0  0
 40 53  2  0  0  0
 40 58  1  0  0  0
 41111  1  0  0  0
 41112  1  0  0  0
 41113  1  0  0  0
 41 48  1  0  0  0
 42 43  1  0  0  0
 42 66  1  0  0  0
 42114  1  0  0  0
 42115  1  0  0  0
 43 44  1  0  0  0
 44116  1  0  0  0
 45 46  2  0  0  0
 45117  1  0  0  0
 46118  1  0  0  0
 47119  1  0  0  0
 47120  1  0  0  0
 48 56  1  0  0  0
 48 65  1  0  0  0
 48121  1  0  0  0
 49 50  1  0  0  0
 49 53  1  0  0  0
 49 64  1  0  0  0
 49122  1  0  0  0
 50 51  1  0  0  0
 50123  1  0  0  0
 50124  1  0  0  0
 51 52  1  0  0  0
 51125  1  0  0  0
 51126  1  0  0  0
 52127  1  0  0  0
 52128  1  0  0  0
 53 54  1  0  0  0
 54 55  2  0  0  0
 54129  1  0  0  0
 55 57  1  0  0  0
 55130  1  0  0  0
 56 69  2  0  0  0
 57 58  2  0  0  0
 57131  1  0  0  0
 58132  1  0  0  0
 59 60  1  0  0  0
 59 61  1  0  0  0
 59 62  1  0  0  0
 60133  1  0  0  0
 60134  1  0  0  0
 60135  1  0  0  0
 61136  1  0  0  0
 61137  1  0  0  0
 61138  1  0  0  0
 62139  1  0  0  0
 62140  1  0  0  0
 62141  1  0  0  0
 63 65  1  0  0  0
 63142  1  0  0  0
 63143  1  0  0  0
 63144  1  0  0  0
 64145  1  0  0  0
 65146  1  0  0  0
 68 82  1  0  0  0
 71 72  2  0  0  0
 71 73  1  0  0  0
 71 83  1  0  0  0
 72 82  1  0  0  0
 72 84  1  0  0  0
 73 85  2  0  0  0
 73 87  1  0  0  0
 74 79  1  0  0  0
 74 84  2  0  0  0
 74 85  1  0  0  0
 75 76  1  0  0  0
 75 78  1  0  0  0
 75147  1  0  0  0
 75148  1  0  0  0
 76 86  1  0  0  0
 76149  1  0  0  0
 76150  1  0  0  0
 77 78  1  0  0  0
 77 86  1  0  0  0
 77151  1  0  0  0
 77152  1  0  0  0
 78 87  1  0  0  0
 78153  1  0  0  0
 79154  1  0  0  0
 79155  1  0  0  0
 79156  1  0  0  0
 80157  1  0  0  0
 80158  1  0  0  0
 80159  1  0  0  0
 80 83  1  0  0  0
 81 83  1  0  0  0
 81160  1  0  0  0
 81161  1  0  0  0
 81162  1  0  0  0
 82163  1  0  0  0
 82164  1  0  0  0
 83165  1  0  0  0
 87166  1  0  0  0
M  ISO  4   1 100  68 101  82 101  86 100
M  END
> <chiral flag>
0

> <version>
0

> <s_m_source_file>
/data/baiqing/PycharmProjects/Reinvent-master-3.2/result/LINK_invent/BTK/process_docking_weight1_custom_sum_contain_oxygen_bond_distance_aromatic_linkinvent_7_9_3/rearranged_h_0183.sdf

> <i_m_source_file_index>
19

> <r_mmod_Potential_Energy-OPLS-2005>
-58.6796493530273

> <r_mmod_Stretch_Energy-OPLS-2005>
128.247222900391

> <r_mmod_Bend_Energy-OPLS-2005>
223.15087890625

> <r_mmod_Torsional_Energy-OPLS-2005>
329.850341796875

> <r_mmod_Improper_Torsional_Energy-OPLS-2005>
11.0222320556641

> <r_mmod_Van_der_Waal_Energy-OPLS-2005>
140.253128051758

> <r_mmod_Electrostatic_Energy-OPLS-2005>
-753.928955078125

> <r_mmod_Solvation_Energy-OPLS-2005>
-227.956405639648

> <b_mmod_Minimization_Converged-OPLS-2005>
0

> <r_mmod_RMS_Derivative-OPLS-2005>
0.955230534076691

$$$$
19
                    3D
 Structure written by MMmdl.
154163  0  0  1  0            999 V2000
  -30.6301  -14.7462   20.4608 C   0  0  0  0  0  0
  -30.4338  -12.4518   19.4877 C   0  0  0  0  0  0
  -29.5182  -12.5033   18.2450 C   0  0  0  0  0  0
  -28.0415  -12.3331   18.6539 C   0  0  0  0  0  0
  -27.6452  -13.2365   19.8533 C   0  0  2  0  0  0
  -28.6888  -13.1795   20.9915 C   0  0  0  0  0  0
  -25.2513  -13.8205   20.5709 C   0  0  0  0  0  0
  -24.1805  -13.0440   20.9204 C   0  0  0  0  0  0
  -24.6409  -11.6922   20.8740 C   0  0  0  0  0  0
  -23.9095  -10.4289   21.0393 C   0  0  0  0  0  0
  -24.3639   -9.4197   21.9172 C   0  0  0  0  0  0
  -23.6304   -8.2239   22.0755 C   0  0  0  0  0  0
  -22.4281   -8.0286   21.3546 C   0  0  0  0  0  0
  -21.9914   -9.0264   20.4646 C   0  0  0  0  0  0
  -22.7258  -10.2133   20.3051 C   0  0  0  0  0  0
  -21.6850   -6.0738   22.5279 C   0  0  0  0  0  0
  -21.4015   -6.5639   23.8213 C   0  0  0  0  0  0
  -21.3658   -5.6791   24.9178 C   0  0  0  0  0  0
  -21.6041   -4.3055   24.7223 C   0  0  0  0  0  0
  -21.8816   -3.8143   23.4344 C   0  0  0  0  0  0
  -21.9187   -4.6965   22.3396 C   0  0  0  0  0  0
  -22.7816  -13.5218   21.1853 C   0  0  0  0  0  0
  -22.1651   -4.2151   21.0972 F   0  0  0  0  0  0
  -21.5629   -3.4541   25.7736 F   0  0  0  0  0  0
  -29.9935  -13.5241   20.4130 N   0  0  0  0  0  0
  -26.2959  -12.9432   20.3299 N   0  0  0  0  0  0
  -25.9347  -11.6566   20.5758 N   0  0  0  0  0  0
  -22.0458  -12.8219   22.0415 N   0  0  0  0  0  0
  -25.4181  -15.1926   20.4131 N   0  0  0  0  0  0
  -31.8062  -14.8320   20.1011 O   0  0  0  0  0  0
  -21.6641   -6.8886   21.4243 O   0  0  0  0  0  0
  -22.3502  -14.5515   20.6686 O   0  0  0  0  0  0
  -24.6325  -31.8534   23.1991 C   0  0  0  0  0  0
  -25.9143  -32.4743   23.8345 C   0  0  1  0  0  0
  -27.2197  -27.2469   20.1320 C   0  0  0  0  0  0
  -25.5931  -33.8546   24.2257 N   0  0  0  0  0  0
  -23.4305  -30.4776   21.5411 C   0  0  2  0  0  0
  -24.8805  -28.9287   20.1070 C   0  0  0  0  0  0
  -22.7511  -29.4589   22.4886 C   0  0  0  0  0  0
  -18.0291  -28.1382   22.8474 C   0  0  0  0  0  0
  -24.1491  -36.7283   23.2639 C   0  0  0  0  0  0
  -25.9788  -30.7629   21.3833 C   0  0  0  0  0  0
  -26.0524  -29.3859   20.7227 C   0  0  0  0  0  0
  -27.2242  -28.5578   20.7252 C   0  0  0  0  0  0
  -26.0276  -26.8759   19.4657 C   0  0  0  0  0  0
  -24.8750  -27.6830   19.4658 C   0  0  0  0  0  0
  -23.6514  -29.8153   20.1564 C   0  0  0  0  0  0
  -25.4113  -36.3058   24.0322 C   0  0  1  0  0  0
  -20.5897  -28.3693   23.1254 C   0  0  2  0  0  0
  -20.6778  -26.9405   22.5399 C   0  0  0  0  0  0
  -19.5755  -26.6373   21.5202 C   0  0  0  0  0  0
  -18.1935  -26.7924   22.1617 C   0  0  0  0  0  0
  -19.1546  -28.8853   23.2863 C   0  0  0  0  0  0
  -18.9469  -30.1453   23.8885 C   0  0  0  0  0  0
  -17.6468  -30.6584   24.0549 C   0  0  0  0  0  0
  -25.9048  -34.9428   23.5089 C   0  0  0  0  0  0
  -16.5358  -29.9075   23.6330 C   0  0  0  0  0  0
  -16.7277  -28.6493   23.0351 C   0  0  0  0  0  0
  -26.4514  -31.6579   25.0743 C   0  0  0  0  0  0
  -25.3741  -31.3729   26.1468 C   0  0  0  0  0  0
  -27.0358  -30.2990   24.6243 C   0  0  0  0  0  0
  -27.6056  -32.4334   25.7519 C   0  0  0  0  0  0
  -27.5574  -37.1794   24.8461 C   0  0  0  0  0  0
  -21.4213  -29.3042   22.3639 N   0  0  0  0  0  0
  -26.4285  -37.3761   23.9407 N   0  0  0  0  0  0
  -24.6994  -31.0496   22.0972 N   0  0  0  0  0  0
  -23.4205  -28.8117   23.2983 O   0  0  0  0  0  0
  -28.2949  -26.3200   20.2228 O   0  0  0  0  0  0
  -26.5621  -34.8903   22.4657 O   0  0  0  0  0  0
  -23.5470  -32.1353   23.7283 O   0  0  0  0  0  0
  -30.6812  -18.2028   21.5502 C   0  0  0  0  0  0
  -28.1871  -22.1763   20.8208 C   0  0  0  0  0  0
  -29.8353  -22.6822   19.7971 C   0  0  0  0  0  0
  -29.5015  -18.7008   20.7504 C   0  0  2  0  0  0
  -28.8528  -23.5919   20.6093 C   0  0  1  0  0  0
  -30.2731  -17.3241   20.3873 C   0  0  2  0  0  0
  -29.5901  -20.0926   19.9404 C   0  0  0  0  0  0
  -28.0053  -24.8476   20.0234 C   0  0  0  0  0  0
  -29.8922  -15.8995   20.7089 N   0  0  0  0  0  0
  -29.4864  -21.4796   20.6205 N   0  3  2  0  0  0
  -31.4790  -12.5553   19.1905 H   0  0  0  0  0  0
  -30.3649  -11.4798   19.9780 H   0  0  0  0  0  0
  -29.8023  -11.7247   17.5359 H   0  0  0  0  0  0
  -29.6530  -13.4530   17.7246 H   0  0  0  0  0  0
  -27.8929  -11.2859   18.9195 H   0  0  0  0  0  0
  -27.3895  -12.5239   17.8008 H   0  0  0  0  0  0
  -27.6397  -14.2571   19.4696 H   0  0  0  0  0  0
  -28.7202  -12.1872   21.4429 H   0  0  0  0  0  0
  -28.4264  -13.8723   21.7925 H   0  0  0  0  0  0
  -25.2782   -9.5662   22.4755 H   0  0  0  0  0  0
  -23.9999   -7.4623   22.7473 H   0  0  0  0  0  0
  -21.0841   -8.8793   19.8962 H   0  0  0  0  0  0
  -22.3721  -10.9673   19.6165 H   0  0  0  0  0  0
  -21.2018   -7.6151   23.9722 H   0  0  0  0  0  0
  -21.1481   -6.0521   25.9084 H   0  0  0  0  0  0
  -22.0599   -2.7607   23.2843 H   0  0  0  0  0  0
  -22.4073  -11.9905   22.4851 H   0  0  0  0  0  0
  -21.1073  -13.1246   22.2592 H   0  0  0  0  0  0
  -24.6507  -15.8456   20.5292 H   0  0  0  0  0  0
  -26.2626  -15.6345   20.0747 H   0  0  0  0  0  0
  -26.7202  -32.5393   23.1078 H   0  0  0  0  0  0
  -25.0080  -33.9686   25.0407 H   0  0  0  0  0  0
  -22.7270  -31.2998   21.3954 H   0  0  0  0  0  0
  -23.3745  -35.9624   23.3292 H   0  0  0  0  0  0
  -24.3583  -36.8917   22.2055 H   0  0  0  0  0  0
  -23.7256  -37.6484   23.6674 H   0  0  0  0  0  0
  -26.1214  -31.5244   20.6151 H   0  0  0  0  0  0
  -26.8539  -30.8103   22.0195 H   0  0  0  0  0  0
  -28.1166  -28.9001   21.2301 H   0  0  0  0  0  0
  -25.9466  -25.9301   18.9503 H   0  0  0  0  0  0
  -23.9809  -27.3326   18.9689 H   0  0  0  0  0  0
  -23.7760  -30.5928   19.4016 H   0  0  0  0  0  0
  -22.7705  -29.2486   19.8500 H   0  0  0  0  0  0
  -25.1296  -36.1897   25.0814 H   0  0  0  0  0  0
  -20.9995  -28.3276   24.1372 H   0  0  0  0  0  0
  -20.5667  -26.2300   23.3606 H   0  0  0  0  0  0
  -21.6646  -26.7416   22.1200 H   0  0  0  0  0  0
  -19.6913  -25.6279   21.1241 H   0  0  0  0  0  0
  -19.6700  -27.3171   20.6722 H   0  0  0  0  0  0
  -17.4202  -26.6655   21.4026 H   0  0  0  0  0  0
  -18.0348  -26.0075   22.9023 H   0  0  0  0  0  0
  -19.7942  -30.7267   24.2262 H   0  0  0  0  0  0
  -17.5017  -31.6268   24.5141 H   0  0  0  0  0  0
  -15.5357  -30.2968   23.7663 H   0  0  0  0  0  0
  -15.8677  -28.0802   22.7083 H   0  0  0  0  0  0
  -24.5920  -30.7064   25.7812 H   0  0  0  0  0  0
  -24.8933  -32.2896   26.4891 H   0  0  0  0  0  0
  -25.8074  -30.8922   27.0246 H   0  0  0  0  0  0
  -26.2942  -29.6737   24.1252 H   0  0  0  0  0  0
  -27.4006  -29.7260   25.4777 H   0  0  0  0  0  0
  -27.8844  -30.4255   23.9514 H   0  0  0  0  0  0
  -27.2649  -33.3638   26.2077 H   0  0  0  0  0  0
  -28.3883  -32.6882   25.0360 H   0  0  0  0  0  0
  -28.0707  -31.8473   26.5458 H   0  0  0  0  0  0
  -28.2577  -38.0103   24.7500 H   0  0  0  0  0  0
  -28.1079  -36.2625   24.6288 H   0  0  0  0  0  0
  -27.2288  -37.1447   25.8864 H   0  0  0  0  0  0
  -20.9395  -29.8780   21.6855 H   0  0  0  0  0  0
  -26.0152  -38.2828   24.1419 H   0  0  0  0  0  0
  -30.4740  -17.8374   22.5540 H   0  0  0  0  0  0
  -31.6254  -18.7357   21.4517 H   0  0  0  0  0  0
  -27.4551  -21.9267   20.0499 H   0  0  0  0  0  0
  -27.7654  -22.0215   21.8148 H   0  0  0  0  0  0
  -30.8849  -22.9694   19.8738 H   0  0  0  0  0  0
  -29.5443  -22.5693   18.7505 H   0  0  0  0  0  0
  -28.5282  -18.5652   21.2178 H   0  0  0  0  0  0
  -29.3280  -23.8816   21.5486 H   0  0  0  0  0  0
  -30.9069  -17.4088   19.5055 H   0  0  0  0  0  0
  -28.8504  -20.0595   19.1408 H   0  0  0  0  0  0
  -30.5540  -20.0868   19.4302 H   0  0  0  0  0  0
  -27.0070  -24.6928   20.4333 H   0  0  0  0  0  0
  -27.8956  -24.7006   18.9493 H   0  0  0  0  0  0
  -28.9323  -15.7437   20.9812 H   0  0  0  0  0  0
  -30.0304  -21.4967   21.4704 H   0  0  0  0  0  0
  1 25  1  0  0  0
  1 30  2  0  0  0
  1 79  1  0  0  0
  2  3  1  0  0  0
  2 25  1  0  0  0
  2 81  1  0  0  0
  2 82  1  0  0  0
  3  4  1  0  0  0
  3 83  1  0  0  0
  3 84  1  0  0  0
  4  5  1  0  0  0
  4 85  1  0  0  0
  4 86  1  0  0  0
  5  6  1  0  0  0
  5 26  1  0  0  0
  5 87  1  0  0  0
  6 25  1  0  0  0
  6 88  1  0  0  0
  6 89  1  0  0  0
  7  8  2  0  0  0
  7 26  1  0  0  0
  7 29  1  0  0  0
  8  9  1  0  0  0
  8 22  1  0  0  0
  9 10  1  0  0  0
  9 27  2  0  0  0
 10 11  2  0  0  0
 10 15  1  0  0  0
 11 12  1  0  0  0
 11 90  1  0  0  0
 12 13  2  0  0  0
 12 91  1  0  0  0
 13 14  1  0  0  0
 13 31  1  0  0  0
 14 15  2  0  0  0
 14 92  1  0  0  0
 15 93  1  0  0  0
 16 17  2  0  0  0
 16 21  1  0  0  0
 16 31  1  0  0  0
 17 18  1  0  0  0
 17 94  1  0  0  0
 18 19  2  0  0  0
 18 95  1  0  0  0
 19 20  1  0  0  0
 19 24  1  0  0  0
 20 21  2  0  0  0
 20 96  1  0  0  0
 21 23  1  0  0  0
 22 28  1  0  0  0
 22 32  2  0  0  0
 26 27  1  0  0  0
 28 97  1  0  0  0
 28 98  1  0  0  0
 29 99  1  0  0  0
 29100  1  0  0  0
 33 34  1  0  0  0
 33 66  1  0  0  0
 33 70  2  0  0  0
 34 36  1  0  0  0
 34 59  1  0  0  0
 34101  1  0  0  0
 35 44  2  0  0  0
 35 45  1  0  0  0
 35 68  1  0  0  0
 36 56  1  0  0  0
 36102  1  0  0  0
 37 39  1  0  0  0
 37 47  1  0  0  0
 37 66  1  0  0  0
 37103  1  0  0  0
 38 43  2  0  0  0
 38 46  1  0  0  0
 38 47  1  0  0  0
 39 64  1  0  0  0
 39 67  2  0  0  0
 40 52  1  0  0  0
 40 53  2  0  0  0
 40 58  1  0  0  0
 41104  1  0  0  0
 41105  1  0  0  0
 41106  1  0  0  0
 41 48  1  0  0  0
 42 43  1  0  0  0
 42 66  1  0  0  0
 42107  1  0  0  0
 42108  1  0  0  0
 43 44  1  0  0  0
 44109  1  0  0  0
 45 46  2  0  0  0
 45110  1  0  0  0
 46111  1  0  0  0
 47112  1  0  0  0
 47113  1  0  0  0
 48 56  1  0  0  0
 48 65  1  0  0  0
 48114  1  0  0  0
 49 50  1  0  0  0
 49 53  1  0  0  0
 49 64  1  0  0  0
 49115  1  0  0  0
 50 51  1  0  0  0
 50116  1  0  0  0
 50117  1  0  0  0
 51 52  1  0  0  0
 51118  1  0  0  0
 51119  1  0  0  0
 52120  1  0  0  0
 52121  1  0  0  0
 53 54  1  0  0  0
 54 55  2  0  0  0
 54122  1  0  0  0
 55 57  1  0  0  0
 55123  1  0  0  0
 56 69  2  0  0  0
 57 58  2  0  0  0
 57124  1  0  0  0
 58125  1  0  0  0
 59 60  1  0  0  0
 59 61  1  0  0  0
 59 62  1  0  0  0
 60126  1  0  0  0
 60127  1  0  0  0
 60128  1  0  0  0
 61129  1  0  0  0
 61130  1  0  0  0
 61131  1  0  0  0
 62132  1  0  0  0
 62133  1  0  0  0
 62134  1  0  0  0
 63 65  1  0  0  0
 63135  1  0  0  0
 63136  1  0  0  0
 63137  1  0  0  0
 64138  1  0  0  0
 65139  1  0  0  0
 68 78  1  0  0  0
 71 74  1  0  0  0
 71 76  1  0  0  0
 71140  1  0  0  0
 71141  1  0  0  0
 72 75  1  0  0  0
 72 80  1  0  0  0
 72142  1  0  0  0
 72143  1  0  0  0
 73 75  1  0  0  0
 73 80  1  0  0  0
 73144  1  0  0  0
 73145  1  0  0  0
 74 76  1  0  0  0
 74 77  1  0  0  0
 74146  1  0  0  0
 75 78  1  0  0  0
 75147  1  0  0  0
 76 79  1  0  0  0
 76148  1  0  0  0
 77149  1  0  0  0
 77150  1  0  0  0
 77 80  1  0  0  0
 78151  1  0  0  0
 78152  1  0  0  0
 79153  1  0  0  0
 80154  1  0  0  0
M  CHG  1  80   1
M  ISO  4   1 100  68 101  78 101  79 100
M  END
> <chiral flag>
0

> <version>
0

> <s_m_source_file>
/data/baiqing/PycharmProjects/Reinvent-master-3.2/result/LINK_invent/BTK/process_docking_weight1_custom_sum_contain_oxygen_bond_distance_aromatic_linkinvent_7_9_3/rearranged_h_0183.sdf

> <i_m_source_file_index>
20

> <r_mmod_Potential_Energy-OPLS-2005>
117.117790222168

> <r_mmod_Stretch_Energy-OPLS-2005>
134.611892700195

> <r_mmod_Bend_Energy-OPLS-2005>
195.287460327148

> <r_mmod_Torsional_Energy-OPLS-2005>
301.812042236328

> <r_mmod_Improper_Torsional_Energy-OPLS-2005>
4.87854671478271

> <r_mmod_Van_der_Waal_Energy-OPLS-2005>
124.231559753418

> <r_mmod_Electrostatic_Energy-OPLS-2005>
-257.065887451172

> <r_mmod_Solvation_Energy-OPLS-2005>
-479.2958984375

> <b_mmod_Minimization_Converged-OPLS-2005>
0

> <r_mmod_RMS_Derivative-OPLS-2005>
1.73471307754517

$$$$
20
                    3D
 Structure written by MMmdl.
154163  0  0  1  0            999 V2000
  -30.4308  -15.3190   20.3569 C   0  0  0  0  0  0
  -30.4350  -12.8499   19.5228 C   0  0  0  0  0  0
  -29.5344  -12.5814   18.2907 C   0  0  0  0  0  0
  -28.0885  -12.2919   18.7276 C   0  0  0  0  0  0
  -27.6081  -13.2791   19.8199 C   0  0  2  0  0  0
  -28.6409  -13.4868   20.9485 C   0  0  0  0  0  0
  -25.2385  -13.8253   20.5760 C   0  0  0  0  0  0
  -24.1737  -13.0439   20.9272 C   0  0  0  0  0  0
  -24.6396  -11.6940   20.8771 C   0  0  0  0  0  0
  -23.9093  -10.4296   21.0411 C   0  0  0  0  0  0
  -24.3635   -9.4208   21.9189 C   0  0  0  0  0  0
  -23.6304   -8.2247   22.0758 C   0  0  0  0  0  0
  -22.4286   -8.0286   21.3548 C   0  0  0  0  0  0
  -21.9927   -9.0263   20.4648 C   0  0  0  0  0  0
  -22.7264  -10.2138   20.3058 C   0  0  0  0  0  0
  -21.6856   -6.0738   22.5278 C   0  0  0  0  0  0
  -21.4016   -6.5642   23.8212 C   0  0  0  0  0  0
  -21.3654   -5.6793   24.9172 C   0  0  0  0  0  0
  -21.6044   -4.3058   24.7225 C   0  0  0  0  0  0
  -21.8817   -3.8149   23.4346 C   0  0  0  0  0  0
  -21.9193   -4.6964   22.3402 C   0  0  0  0  0  0
  -22.7749  -13.5189   21.1909 C   0  0  0  0  0  0
  -22.1661   -4.2148   21.0980 F   0  0  0  0  0  0
  -21.5627   -3.4542   25.7738 F   0  0  0  0  0  0
  -29.8609  -14.0089   20.3091 N   0  0  0  0  0  0
  -26.2809  -12.9532   20.3233 N   0  0  0  0  0  0
  -25.9332  -11.6633   20.5732 N   0  0  0  0  0  0
  -22.0403  -12.8175   22.0462 N   0  0  0  0  0  0
  -25.4022  -15.1984   20.4187 N   0  0  0  0  0  0
  -31.6571  -15.2904   20.1714 O   0  0  0  0  0  0
  -21.6646   -6.8885   21.4243 O   0  0  0  0  0  0
  -22.3434  -14.5493   20.6748 O   0  0  0  0  0  0
  -24.6663  -31.8191   23.1665 C   0  0  0  0  0  0
  -25.9325  -32.4565   23.8145 C   0  0  1  0  0  0
  -27.2232  -26.8939   20.1863 C   0  0  0  0  0  0
  -25.5977  -33.8381   24.2050 N   0  0  0  0  0  0
  -23.4827  -30.4283   21.5166 C   0  0  2  0  0  0
  -24.9360  -28.8059   20.1123 C   0  0  0  0  0  0
  -22.7681  -29.4416   22.4772 C   0  0  0  0  0  0
  -18.0327  -28.1414   22.8464 C   0  0  0  0  0  0
  -24.1494  -36.7201   23.2651 C   0  0  0  0  0  0
  -26.0532  -30.6148   21.4005 C   0  0  0  0  0  0
  -26.1206  -29.2005   20.7458 C   0  0  0  0  0  0
  -27.2567  -28.2674   20.7539 C   0  0  0  0  0  0
  -26.0080  -26.6576   19.5039 C   0  0  0  0  0  0
  -24.9071  -27.5562   19.4706 C   0  0  0  0  0  0
  -23.7235  -29.7382   20.1449 C   0  0  0  0  0  0
  -25.4138  -36.2954   24.0293 C   0  0  1  0  0  0
  -20.5951  -28.3763   23.1181 C   0  0  2  0  0  0
  -20.6797  -26.9439   22.5405 C   0  0  0  0  0  0
  -19.5772  -26.6376   21.5216 C   0  0  0  0  0  0
  -18.1956  -26.7943   22.1623 C   0  0  0  0  0  0
  -19.1589  -28.8911   23.2806 C   0  0  0  0  0  0
  -18.9497  -30.1498   23.8842 C   0  0  0  0  0  0
  -17.6493  -30.6601   24.0556 C   0  0  0  0  0  0
  -25.9104  -34.9336   23.5000 C   0  0  0  0  0  0
  -16.5381  -29.9086   23.6348 C   0  0  0  0  0  0
  -16.7307  -28.6509   23.0360 C   0  0  0  0  0  0
  -26.4563  -31.6528   25.0698 C   0  0  0  0  0  0
  -25.3679  -31.3790   26.1350 C   0  0  0  0  0  0
  -27.0471  -30.2888   24.6466 C   0  0  0  0  0  0
  -27.6040  -32.4355   25.7512 C   0  0  0  0  0  0
  -27.5563  -37.1768   24.8470 C   0  0  0  0  0  0
  -21.4348  -29.3039   22.3522 N   0  0  0  0  0  0
  -26.4284  -37.3687   23.9396 N   0  0  0  0  0  0
  -24.7558  -30.9820   22.0815 N   0  0  0  0  0  0
  -23.4209  -28.7995   23.3036 O   0  0  0  0  0  0
  -28.2369  -25.7884   20.2650 O   0  0  0  0  0  0
  -26.5722  -34.8878   22.4601 O   0  0  0  0  0  0
  -23.5727  -32.1180   23.6740 O   0  0  0  0  0  0
  -30.7107  -18.7741   19.0025 C   0  0  0  0  0  0
  -30.9879  -20.1301   19.7368 C   0  0  0  0  0  0
  -28.2995  -23.4014   18.7864 C   0  0  0  0  0  0
  -28.4105  -21.7824   18.8915 C   0  0  0  0  0  0
  -28.8899  -22.8015   20.9161 C   0  0  0  0  0  0
  -30.1600  -18.2428   20.3116 C   0  0  1  0  0  0
  -29.7296  -19.9937   20.6528 C   0  0  1  0  0  0
  -28.0699  -24.1224   20.1621 C   0  0  1  0  0  0
  -29.7005  -16.6275   20.4053 N   0  0  0  0  0  0
  -28.7382  -21.3165   20.2855 N   0  3  2  0  0  0
  -31.4483  -13.0625   19.1796 H   0  0  0  0  0  0
  -30.5208  -11.9574   20.1455 H   0  0  0  0  0  0
  -29.9250  -11.7474   17.7059 H   0  0  0  0  0  0
  -29.5494  -13.4517   17.6332 H   0  0  0  0  0  0
  -28.0636  -11.2746   19.1205 H   0  0  0  0  0  0
  -27.4156  -12.3064   17.8697 H   0  0  0  0  0  0
  -27.5127  -14.2353   19.3045 H   0  0  0  0  0  0
  -28.8269  -12.5625   21.4982 H   0  0  0  0  0  0
  -28.2705  -14.2129   21.6739 H   0  0  0  0  0  0
  -25.2770   -9.5681   22.4780 H   0  0  0  0  0  0
  -24.0001   -7.4635   22.7483 H   0  0  0  0  0  0
  -21.0859   -8.8790   19.8953 H   0  0  0  0  0  0
  -22.3723  -10.9682   19.6175 H   0  0  0  0  0  0
  -21.2008   -7.6150   23.9714 H   0  0  0  0  0  0
  -21.1477   -6.0527   25.9076 H   0  0  0  0  0  0
  -22.0598   -2.7612   23.2850 H   0  0  0  0  0  0
  -22.4028  -11.9844   22.4855 H   0  0  0  0  0  0
  -21.1011  -13.1184   22.2654 H   0  0  0  0  0  0
  -24.6321  -15.8493   20.5303 H   0  0  0  0  0  0
  -26.2422  -15.6376   20.0654 H   0  0  0  0  0  0
  -26.7401  -32.5085   23.0863 H   0  0  0  0  0  0
  -25.0051  -33.9449   25.0152 H   0  0  0  0  0  0
  -22.7982  -31.2609   21.3420 H   0  0  0  0  0  0
  -23.3757  -35.9531   23.3301 H   0  0  0  0  0  0
  -24.3560  -36.8864   22.2066 H   0  0  0  0  0  0
  -23.7257  -37.6387   23.6722 H   0  0  0  0  0  0
  -26.2369  -31.3538   20.6192 H   0  0  0  0  0  0
  -26.9118  -30.6724   22.0579 H   0  0  0  0  0  0
  -28.1549  -28.5715   21.2725 H   0  0  0  0  0  0
  -25.8770  -25.7046   19.0114 H   0  0  0  0  0  0
  -24.0079  -27.2490   18.9541 H   0  0  0  0  0  0
  -23.8803  -30.5044   19.3844 H   0  0  0  0  0  0
  -22.8324  -29.1933   19.8287 H   0  0  0  0  0  0
  -25.1343  -36.1748   25.0785 H   0  0  0  0  0  0
  -21.0038  -28.3375   24.1303 H   0  0  0  0  0  0
  -20.5675  -26.2383   23.3650 H   0  0  0  0  0  0
  -21.6661  -26.7403   22.1217 H   0  0  0  0  0  0
  -19.6932  -25.6272   21.1283 H   0  0  0  0  0  0
  -19.6715  -27.3155   20.6720 H   0  0  0  0  0  0
  -17.4224  -26.6687   21.4026 H   0  0  0  0  0  0
  -18.0350  -26.0099   22.9034 H   0  0  0  0  0  0
  -19.7970  -30.7330   24.2184 H   0  0  0  0  0  0
  -17.5039  -31.6272   24.5170 H   0  0  0  0  0  0
  -15.5377  -30.2969   23.7700 H   0  0  0  0  0  0
  -15.8706  -28.0807   22.7103 H   0  0  0  0  0  0
  -24.5879  -30.7120   25.7658 H   0  0  0  0  0  0
  -24.8852  -32.2998   26.4634 H   0  0  0  0  0  0
  -25.7905  -30.9052   27.0219 H   0  0  0  0  0  0
  -26.3153  -29.6550   24.1449 H   0  0  0  0  0  0
  -27.3957  -29.7270   25.5140 H   0  0  0  0  0  0
  -27.9106  -30.4054   23.9916 H   0  0  0  0  0  0
  -27.2584  -33.3690   26.1959 H   0  0  0  0  0  0
  -28.3919  -32.6861   25.0400 H   0  0  0  0  0  0
  -28.0633  -31.8577   26.5541 H   0  0  0  0  0  0
  -28.2583  -38.0057   24.7472 H   0  0  0  0  0  0
  -28.1057  -36.2579   24.6359 H   0  0  0  0  0  0
  -27.2271  -37.1480   25.8872 H   0  0  0  0  0  0
  -20.9617  -29.8713   21.6629 H   0  0  0  0  0  0
  -26.0130  -38.2753   24.1371 H   0  0  0  0  0  0
  -31.6079  -18.2668   18.6442 H   0  0  0  0  0  0
  -29.9524  -18.8447   18.2217 H   0  0  0  0  0  0
  -31.0282  -20.9952   19.0771 H   0  0  0  0  0  0
  -31.9168  -20.1054   20.3107 H   0  0  0  0  0  0
  -27.5360  -23.6898   18.0643 H   0  0  0  0  0  0
  -29.2413  -23.7724   18.3808 H   0  0  0  0  0  0
  -29.1160  -21.4080   18.1526 H   0  0  0  0  0  0
  -27.4516  -21.3380   18.6263 H   0  0  0  0  0  0
  -28.6311  -22.7627   21.9736 H   0  0  0  0  0  0
  -29.9563  -23.0291   20.8882 H   0  0  0  0  0  0
  -31.0248  -18.1690   20.9794 H   0  0  0  0  0  0
  -29.9865  -20.1603   21.7003 H   0  0  0  0  0  0
  -27.0211  -23.9688   20.4185 H   0  0  0  0  0  0
  -28.7036  -16.5003   20.5049 H   0  0  0  0  0  0
  -27.8415  -21.0099   20.6345 H   0  0  0  0  0  0
  1 25  1  0  0  0
  1 30  2  0  0  0
  1 79  1  0  0  0
  2  3  1  0  0  0
  2 25  1  0  0  0
  2 81  1  0  0  0
  2 82  1  0  0  0
  3  4  1  0  0  0
  3 83  1  0  0  0
  3 84  1  0  0  0
  4  5  1  0  0  0
  4 85  1  0  0  0
  4 86  1  0  0  0
  5  6  1  0  0  0
  5 26  1  0  0  0
  5 87  1  0  0  0
  6 25  1  0  0  0
  6 88  1  0  0  0
  6 89  1  0  0  0
  7  8  2  0  0  0
  7 26  1  0  0  0
  7 29  1  0  0  0
  8  9  1  0  0  0
  8 22  1  0  0  0
  9 10  1  0  0  0
  9 27  2  0  0  0
 10 11  2  0  0  0
 10 15  1  0  0  0
 11 12  1  0  0  0
 11 90  1  0  0  0
 12 13  2  0  0  0
 12 91  1  0  0  0
 13 14  1  0  0  0
 13 31  1  0  0  0
 14 15  2  0  0  0
 14 92  1  0  0  0
 15 93  1  0  0  0
 16 17  2  0  0  0
 16 21  1  0  0  0
 16 31  1  0  0  0
 17 18  1  0  0  0
 17 94  1  0  0  0
 18 19  2  0  0  0
 18 95  1  0  0  0
 19 20  1  0  0  0
 19 24  1  0  0  0
 20 21  2  0  0  0
 20 96  1  0  0  0
 21 23  1  0  0  0
 22 28  1  0  0  0
 22 32  2  0  0  0
 26 27  1  0  0  0
 28 97  1  0  0  0
 28 98  1  0  0  0
 29 99  1  0  0  0
 29100  1  0  0  0
 33 34  1  0  0  0
 33 66  1  0  0  0
 33 70  2  0  0  0
 34 36  1  0  0  0
 34 59  1  0  0  0
 34101  1  0  0  0
 35 44  2  0  0  0
 35 45  1  0  0  0
 35 68  1  0  0  0
 36 56  1  0  0  0
 36102  1  0  0  0
 37 39  1  0  0  0
 37 47  1  0  0  0
 37 66  1  0  0  0
 37103  1  0  0  0
 38 43  2  0  0  0
 38 46  1  0  0  0
 38 47  1  0  0  0
 39 64  1  0  0  0
 39 67  2  0  0  0
 40 52  1  0  0  0
 40 53  2  0  0  0
 40 58  1  0  0  0
 41104  1  0  0  0
 41105  1  0  0  0
 41106  1  0  0  0
 41 48  1  0  0  0
 42 43  1  0  0  0
 42 66  1  0  0  0
 42107  1  0  0  0
 42108  1  0  0  0
 43 44  1  0  0  0
 44109  1  0  0  0
 45 46  2  0  0  0
 45110  1  0  0  0
 46111  1  0  0  0
 47112  1  0  0  0
 47113  1  0  0  0
 48 56  1  0  0  0
 48 65  1  0  0  0
 48114  1  0  0  0
 49 50  1  0  0  0
 49 53  1  0  0  0
 49 64  1  0  0  0
 49115  1  0  0  0
 50 51  1  0  0  0
 50116  1  0  0  0
 50117  1  0  0  0
 51 52  1  0  0  0
 51118  1  0  0  0
 51119  1  0  0  0
 52120  1  0  0  0
 52121  1  0  0  0
 53 54  1  0  0  0
 54 55  2  0  0  0
 54122  1  0  0  0
 55 57  1  0  0  0
 55123  1  0  0  0
 56 69  2  0  0  0
 57 58  2  0  0  0
 57124  1  0  0  0
 58125  1  0  0  0
 59 60  1  0  0  0
 59 61  1  0  0  0
 59 62  1  0  0  0
 60126  1  0  0  0
 60127  1  0  0  0
 60128  1  0  0  0
 61129  1  0  0  0
 61130  1  0  0  0
 61131  1  0  0  0
 62132  1  0  0  0
 62133  1  0  0  0
 62134  1  0  0  0
 63 65  1  0  0  0
 63135  1  0  0  0
 63136  1  0  0  0
 63137  1  0  0  0
 64138  1  0  0  0
 65139  1  0  0  0
 68 78  1  0  0  0
 71 72  1  0  0  0
 71 76  1  0  0  0
 71140  1  0  0  0
 71141  1  0  0  0
 72142  1  0  0  0
 72143  1  0  0  0
 72 77  1  0  0  0
 73 74  1  0  0  0
 73 78  1  0  0  0
 73144  1  0  0  0
 73145  1  0  0  0
 74146  1  0  0  0
 74147  1  0  0  0
 74 80  1  0  0  0
 75 78  1  0  0  0
 75 80  1  0  0  0
 75148  1  0  0  0
 75149  1  0  0  0
 76 77  1  0  0  0
 76 79  1  0  0  0
 76150  1  0  0  0
 77 80  1  0  0  0
 77151  1  0  0  0
 78152  1  0  0  0
 79153  1  0  0  0
 80154  1  0  0  0
M  CHG  1  80   1
M  ISO  4   1 100  68 101  78 101  79 100
M  END
> <chiral flag>
0

> <version>
0

> <s_m_source_file>
/data/baiqing/PycharmProjects/Reinvent-master-3.2/result/LINK_invent/BTK/process_docking_weight1_custom_sum_contain_oxygen_bond_distance_aromatic_linkinvent_7_9_3/rearranged_h_0183.sdf

> <i_m_source_file_index>
21

> <r_mmod_Potential_Energy-OPLS-2005>
1570.14770507812

> <r_mmod_Stretch_Energy-OPLS-2005>
626.9599609375

> <r_mmod_Bend_Energy-OPLS-2005>
717.680114746094

> <r_mmod_Torsional_Energy-OPLS-2005>
327.203887939453

> <r_mmod_Improper_Torsional_Energy-OPLS-2005>
4.03333616256714

> <r_mmod_Van_der_Waal_Energy-OPLS-2005>
112.505096435547

> <r_mmod_Electrostatic_Energy-OPLS-2005>
-264.360015869141

> <r_mmod_Solvation_Energy-OPLS-2005>
-463.837493896484

> <b_mmod_Minimization_Converged-OPLS-2005>
0

> <r_mmod_RMS_Derivative-OPLS-2005>
1.02052450180054

$$$$
21
                    3D
 Structure written by MMmdl.
163172  0  0  1  0            999 V2000
  -30.6658  -14.6027   20.5066 C   0  0  0  0  0  0
  -30.4242  -12.3726   19.4504 C   0  0  0  0  0  0
  -29.5017  -12.5033   18.2196 C   0  0  0  0  0  0
  -28.0225  -12.3534   18.6287 C   0  0  0  0  0  0
  -27.6501  -13.2187   19.8632 C   0  0  2  0  0  0
  -28.6946  -13.0651   20.9898 C   0  0  0  0  0  0
  -25.2541  -13.8175   20.5691 C   0  0  0  0  0  0
  -24.1810  -13.0437   20.9190 C   0  0  0  0  0  0
  -24.6381  -11.6909   20.8737 C   0  0  0  0  0  0
  -23.9050  -10.4294   21.0405 C   0  0  0  0  0  0
  -24.3604   -9.4210   21.9184 C   0  0  0  0  0  0
  -23.6283   -8.2242   22.0752 C   0  0  0  0  0  0
  -22.4268   -8.0275   21.3541 C   0  0  0  0  0  0
  -21.9898   -9.0250   20.4647 C   0  0  0  0  0  0
  -22.7221  -10.2131   20.3056 C   0  0  0  0  0  0
  -21.6853   -6.0727   22.5273 C   0  0  0  0  0  0
  -21.4018   -6.5633   23.8205 C   0  0  0  0  0  0
  -21.3664   -5.6785   24.9169 C   0  0  0  0  0  0
  -21.6046   -4.3048   24.7225 C   0  0  0  0  0  0
  -21.8821   -3.8138   23.4347 C   0  0  0  0  0  0
  -21.9194   -4.6953   22.3400 C   0  0  0  0  0  0
  -22.7831  -13.5229   21.1853 C   0  0  0  0  0  0
  -22.1662   -4.2140   21.0979 F   0  0  0  0  0  0
  -21.5630   -3.4534   25.7738 F   0  0  0  0  0  0
  -30.0058  -13.4044   20.4210 N   0  0  0  0  0  0
  -26.2970  -12.9362   20.3325 N   0  0  0  0  0  0
  -25.9310  -11.6513   20.5750 N   0  0  0  0  0  0
  -22.0476  -12.8226   22.0415 N   0  0  0  0  0  0
  -25.4244  -15.1894   20.4103 N   0  0  0  0  0  0
  -31.8448  -14.6908   20.1476 O   0  0  0  0  0  0
  -21.6636   -6.8868   21.4235 O   0  0  0  0  0  0
  -22.3518  -14.5534   20.6699 O   0  0  0  0  0  0
  -24.6223  -31.8622   23.2048 C   0  0  0  0  0  0
  -25.9085  -32.4787   23.8361 C   0  0  1  0  0  0
  -27.2261  -27.3540   20.0987 C   0  0  0  0  0  0
  -25.5914  -33.8588   24.2291 N   0  0  0  0  0  0
  -23.4129  -30.4864   21.5475 C   0  0  2  0  0  0
  -24.8566  -28.9445   20.1119 C   0  0  0  0  0  0
  -22.7449  -29.4632   22.4961 C   0  0  0  0  0  0
  -18.0280  -28.1379   22.8489 C   0  0  0  0  0  0
  -24.1489  -36.7300   23.2640 C   0  0  0  0  0  0
  -25.9503  -30.8020   21.3702 C   0  0  0  0  0  0
  -26.0227  -29.4320   20.7131 C   0  0  0  0  0  0
  -27.2059  -28.6442   20.7034 C   0  0  0  0  0  0
  -26.0271  -26.8960   19.5044 C   0  0  0  0  0  0
  -24.8578  -27.6792   19.5050 C   0  0  0  0  0  0
  -23.6241  -29.8216   20.1619 C   0  0  0  0  0  0
  -25.4111  -36.3089   24.0332 C   0  0  1  0  0  0
  -20.5876  -28.3674   23.1302 C   0  0  2  0  0  0
  -20.6771  -26.9402   22.5416 C   0  0  0  0  0  0
  -19.5748  -26.6381   21.5213 C   0  0  0  0  0  0
  -18.1926  -26.7923   22.1624 C   0  0  0  0  0  0
  -19.1530  -28.8844   23.2892 C   0  0  0  0  0  0
  -18.9456  -30.1449   23.8905 C   0  0  0  0  0  0
  -17.6455  -30.6585   24.0564 C   0  0  0  0  0  0
  -25.9044  -34.9457   23.5113 C   0  0  0  0  0  0
  -16.5347  -29.9082   23.6329 C   0  0  0  0  0  0
  -16.7268  -28.6501   23.0350 C   0  0  0  0  0  0
  -26.4484  -31.6588   25.0720 C   0  0  0  0  0  0
  -25.3731  -31.3718   26.1459 C   0  0  0  0  0  0
  -27.0320  -30.3016   24.6145 C   0  0  0  0  0  0
  -27.6050  -32.4319   25.7485 C   0  0  0  0  0  0
  -27.5580  -37.1805   24.8464 C   0  0  0  0  0  0
  -21.4168  -29.3032   22.3700 N   0  0  0  0  0  0
  -26.4292  -37.3780   23.9407 N   0  0  0  0  0  0
  -24.6806  -31.0664   22.0982 N   0  0  0  0  0  0
  -23.4190  -28.8173   23.3026 O   0  0  0  0  0  0
  -28.3813  -26.5705   20.1516 O   0  0  0  0  0  0
  -26.5612  -34.8921   22.4676 O   0  0  0  0  0  0
  -23.5398  -32.1404   23.7404 O   0  0  0  0  0  0
  -28.2340  -22.8130   19.3554 C   0  0  0  0  0  0
  -28.7457  -23.9762   19.9797 C   0  0  0  0  0  0
  -29.5635  -23.7008   21.0968 C   0  0  0  0  0  0
  -29.3018  -21.4107   20.8260 C   0  0  0  0  0  0
  -29.3773  -17.7525   22.0167 C   0  0  0  0  0  0
  -30.2778  -18.1904   19.7730 C   0  0  0  0  0  0
  -29.1006  -16.2582   21.6424 C   0  0  0  0  0  0
  -29.9503  -16.7158   19.3798 C   0  0  0  0  0  0
  -29.3203  -18.7664   20.8391 C   0  0  0  0  0  0
  -29.3408  -25.2392   23.0943 C   0  0  0  0  0  0
  -28.5541  -25.3811   19.3190 C   0  0  0  0  0  0
  -30.2203  -24.7980   21.9176 C   0  0  0  0  0  0
  -28.5101  -21.5446   19.7720 N   0  0  0  0  0  0
  -29.8137  -22.4280   21.5087 N   0  0  0  0  0  0
  -29.8938  -15.7457   20.5041 N   0  0  0  0  0  0
  -29.6799  -20.1404   21.2806 N   0  0  0  0  0  0
  -31.4682  -12.4750   19.1498 H   0  0  0  0  0  0
  -30.3392  -11.3785   19.8916 H   0  0  0  0  0  0
  -29.7605  -11.7528   17.4713 H   0  0  0  0  0  0
  -29.6554  -13.4738   17.7449 H   0  0  0  0  0  0
  -27.8491  -11.2996   18.8505 H   0  0  0  0  0  0
  -27.3715  -12.5974   17.7885 H   0  0  0  0  0  0
  -27.6700  -14.2563   19.5303 H   0  0  0  0  0  0
  -28.7025  -12.0413   21.3663 H   0  0  0  0  0  0
  -28.4424  -13.6880   21.8453 H   0  0  0  0  0  0
  -25.2753   -9.5691   22.4752 H   0  0  0  0  0  0
  -23.9997   -7.4636   22.7473 H   0  0  0  0  0  0
  -21.0828   -8.8764   19.8955 H   0  0  0  0  0  0
  -22.3677  -10.9665   19.6160 H   0  0  0  0  0  0
  -21.2010   -7.6140   23.9705 H   0  0  0  0  0  0
  -21.1486   -6.0518   25.9071 H   0  0  0  0  0  0
  -22.0599   -2.7600   23.2848 H   0  0  0  0  0  0
  -22.4084  -11.9891   22.4812 H   0  0  0  0  0  0
  -21.1093  -13.1255   22.2617 H   0  0  0  0  0  0
  -24.6600  -15.8458   20.5247 H   0  0  0  0  0  0
  -26.2784  -15.6272   20.0894 H   0  0  0  0  0  0
  -26.7149  -32.5465   23.1109 H   0  0  0  0  0  0
  -25.0063  -33.9735   25.0438 H   0  0  0  0  0  0
  -22.7048  -31.3057   21.4075 H   0  0  0  0  0  0
  -23.3747  -35.9638   23.3312 H   0  0  0  0  0  0
  -24.3580  -36.8906   22.2052 H   0  0  0  0  0  0
  -23.7248  -37.6509   23.6652 H   0  0  0  0  0  0
  -26.0774  -31.5669   20.6030 H   0  0  0  0  0  0
  -26.8328  -30.8502   21.9965 H   0  0  0  0  0  0
  -28.1033  -29.0155   21.1782 H   0  0  0  0  0  0
  -25.9463  -25.9154   19.0633 H   0  0  0  0  0  0
  -23.9567  -27.2917   19.0502 H   0  0  0  0  0  0
  -23.7414  -30.5980   19.4052 H   0  0  0  0  0  0
  -22.7444  -29.2494   19.8615 H   0  0  0  0  0  0
  -25.1292  -36.1947   25.0826 H   0  0  0  0  0  0
  -20.9965  -28.3242   24.1425 H   0  0  0  0  0  0
  -20.5675  -26.2278   23.3606 H   0  0  0  0  0  0
  -21.6641  -26.7441   22.1208 H   0  0  0  0  0  0
  -19.6910  -25.6293   21.1239 H   0  0  0  0  0  0
  -19.6689  -27.3199   20.6747 H   0  0  0  0  0  0
  -17.4196  -26.6673   21.4024 H   0  0  0  0  0  0
  -18.0326  -26.0064   22.9020 H   0  0  0  0  0  0
  -19.7932  -30.7262   24.2278 H   0  0  0  0  0  0
  -17.5012  -31.6266   24.5160 H   0  0  0  0  0  0
  -15.5348  -30.2986   23.7652 H   0  0  0  0  0  0
  -15.8668  -28.0821   22.7063 H   0  0  0  0  0  0
  -24.5901  -30.7069   25.7795 H   0  0  0  0  0  0
  -24.8930  -32.2884   26.4897 H   0  0  0  0  0  0
  -25.8071  -30.8889   27.0225 H   0  0  0  0  0  0
  -26.2882  -29.6774   24.1181 H   0  0  0  0  0  0
  -27.4044  -29.7259   25.4629 H   0  0  0  0  0  0
  -27.8741  -30.4311   23.9342 H   0  0  0  0  0  0
  -27.2660  -33.3611   26.2077 H   0  0  0  0  0  0
  -28.3850  -32.6890   25.0307 H   0  0  0  0  0  0
  -28.0731  -31.8437   26.5389 H   0  0  0  0  0  0
  -28.2603  -38.0096   24.7505 H   0  0  0  0  0  0
  -28.1068  -36.2627   24.6297 H   0  0  0  0  0  0
  -27.2300  -37.1469   25.8868 H   0  0  0  0  0  0
  -20.9335  -29.8751   21.6918 H   0  0  0  0  0  0
  -26.0177  -38.2859   24.1400 H   0  0  0  0  0  0
  -27.6226  -22.8927   18.4688 H   0  0  0  0  0  0
  -30.3630  -17.8031   22.4828 H   0  0  0  0  0  0
  -28.6707  -18.0555   22.7909 H   0  0  0  0  0  0
  -30.2439  -18.8152   18.8795 H   0  0  0  0  0  0
  -31.3059  -18.2384   20.1357 H   0  0  0  0  0  0
  -28.0448  -16.1382   21.3984 H   0  0  0  0  0  0
  -29.2829  -15.6468   22.5275 H   0  0  0  0  0  0
  -30.6636  -16.3881   18.6209 H   0  0  0  0  0  0
  -28.9784  -16.6909   18.8854 H   0  0  0  0  0  0
  -28.3062  -18.7933   20.4364 H   0  0  0  0  0  0
  -29.8193  -26.0372   23.6617 H   0  0  0  0  0  0
  -29.1524  -24.4085   23.7745 H   0  0  0  0  0  0
  -28.3770  -25.6093   22.7444 H   0  0  0  0  0  0
  -27.8316  -25.3087   18.5093 H   0  0  0  0  0  0
  -29.4882  -25.5620   18.7865 H   0  0  0  0  0  0
  -30.4626  -25.6501   21.2839 H   0  0  0  0  0  0
  -31.1770  -24.4365   22.2967 H   0  0  0  0  0  0
  -30.2890  -20.1813   22.0876 H   0  0  0  0  0  0
  1 25  1  0  0  0
  1 30  2  0  0  0
  1 85  1  0  0  0
  2  3  1  0  0  0
  2 25  1  0  0  0
  2 87  1  0  0  0
  2 88  1  0  0  0
  3  4  1  0  0  0
  3 89  1  0  0  0
  3 90  1  0  0  0
  4  5  1  0  0  0
  4 91  1  0  0  0
  4 92  1  0  0  0
  5  6  1  0  0  0
  5 26  1  0  0  0
  5 93  1  0  0  0
  6 25  1  0  0  0
  6 94  1  0  0  0
  6 95  1  0  0  0
  7  8  2  0  0  0
  7 26  1  0  0  0
  7 29  1  0  0  0
  8  9  1  0  0  0
  8 22  1  0  0  0
  9 10  1  0  0  0
  9 27  2  0  0  0
 10 11  2  0  0  0
 10 15  1  0  0  0
 11 12  1  0  0  0
 11 96  1  0  0  0
 12 13  2  0  0  0
 12 97  1  0  0  0
 13 14  1  0  0  0
 13 31  1  0  0  0
 14 15  2  0  0  0
 14 98  1  0  0  0
 15 99  1  0  0  0
 16 17  2  0  0  0
 16 21  1  0  0  0
 16 31  1  0  0  0
 17 18  1  0  0  0
 17100  1  0  0  0
 18 19  2  0  0  0
 18101  1  0  0  0
 19 20  1  0  0  0
 19 24  1  0  0  0
 20 21  2  0  0  0
 20102  1  0  0  0
 21 23  1  0  0  0
 22 28  1  0  0  0
 22 32  2  0  0  0
 26 27  1  0  0  0
 28103  1  0  0  0
 28104  1  0  0  0
 29105  1  0  0  0
 29106  1  0  0  0
 33 34  1  0  0  0
 33 66  1  0  0  0
 33 70  2  0  0  0
 34 36  1  0  0  0
 34 59  1  0  0  0
 34107  1  0  0  0
 35 44  2  0  0  0
 35 45  1  0  0  0
 35 68  1  0  0  0
 36 56  1  0  0  0
 36108  1  0  0  0
 37 39  1  0  0  0
 37 47  1  0  0  0
 37 66  1  0  0  0
 37109  1  0  0  0
 38 43  2  0  0  0
 38 46  1  0  0  0
 38 47  1  0  0  0
 39 64  1  0  0  0
 39 67  2  0  0  0
 40 52  1  0  0  0
 40 53  2  0  0  0
 40 58  1  0  0  0
 41110  1  0  0  0
 41111  1  0  0  0
 41112  1  0  0  0
 41 48  1  0  0  0
 42 43  1  0  0  0
 42 66  1  0  0  0
 42113  1  0  0  0
 42114  1  0  0  0
 43 44  1  0  0  0
 44115  1  0  0  0
 45 46  2  0  0  0
 45116  1  0  0  0
 46117  1  0  0  0
 47118  1  0  0  0
 47119  1  0  0  0
 48 56  1  0  0  0
 48 65  1  0  0  0
 48120  1  0  0  0
 49 50  1  0  0  0
 49 53  1  0  0  0
 49 64  1  0  0  0
 49121  1  0  0  0
 50 51  1  0  0  0
 50122  1  0  0  0
 50123  1  0  0  0
 51 52  1  0  0  0
 51124  1  0  0  0
 51125  1  0  0  0
 52126  1  0  0  0
 52127  1  0  0  0
 53 54  1  0  0  0
 54 55  2  0  0  0
 54128  1  0  0  0
 55 57  1  0  0  0
 55129  1  0  0  0
 56 69  2  0  0  0
 57 58  2  0  0  0
 57130  1  0  0  0
 58131  1  0  0  0
 59 60  1  0  0  0
 59 61  1  0  0  0
 59 62  1  0  0  0
 60132  1  0  0  0
 60133  1  0  0  0
 60134  1  0  0  0
 61135  1  0  0  0
 61136  1  0  0  0
 61137  1  0  0  0
 62138  1  0  0  0
 62139  1  0  0  0
 62140  1  0  0  0
 63 65  1  0  0  0
 63141  1  0  0  0
 63142  1  0  0  0
 63143  1  0  0  0
 64144  1  0  0  0
 65145  1  0  0  0
 68 81  1  0  0  0
 71 72  2  0  0  0
 71 83  1  0  0  0
 71146  1  0  0  0
 72 73  1  0  0  0
 72 81  1  0  0  0
 73 82  1  0  0  0
 73 84  2  0  0  0
 74 83  2  0  0  0
 74 84  1  0  0  0
 74 86  1  0  0  0
 75 77  1  0  0  0
 75 79  1  0  0  0
 75147  1  0  0  0
 75148  1  0  0  0
 76 78  1  0  0  0
 76 79  1  0  0  0
 76149  1  0  0  0
 76150  1  0  0  0
 77 85  1  0  0  0
 77151  1  0  0  0
 77152  1  0  0  0
 78 85  1  0  0  0
 78153  1  0  0  0
 78154  1  0  0  0
 79 86  1  0  0  0
 79155  1  0  0  0
 80 82  1  0  0  0
 80156  1  0  0  0
 80157  1  0  0  0
 80158  1  0  0  0
 81159  1  0  0  0
 81160  1  0  0  0
 82161  1  0  0  0
 82162  1  0  0  0
 86163  1  0  0  0
M  ISO  4   1 100  68 101  81 101  85 100
M  END
> <chiral flag>
0

> <version>
0

> <s_m_source_file>
/data/baiqing/PycharmProjects/Reinvent-master-3.2/result/LINK_invent/BTK/process_docking_weight1_custom_sum_contain_oxygen_bond_distance_aromatic_linkinvent_7_9_3/rearranged_h_0183.sdf

> <i_m_source_file_index>
22

> <r_mmod_Potential_Energy-OPLS-2005>
-288.570770263672

> <r_mmod_Stretch_Energy-OPLS-2005>
60.0028877258301

> <r_mmod_Bend_Energy-OPLS-2005>
156.594100952148

> <r_mmod_Torsional_Energy-OPLS-2005>
312.493438720703

> <r_mmod_Improper_Torsional_Energy-OPLS-2005>
16.8115272521973

> <r_mmod_Van_der_Waal_Energy-OPLS-2005>
148.259689331055

> <r_mmod_Electrostatic_Energy-OPLS-2005>
-794.410339355469

> <r_mmod_Solvation_Energy-OPLS-2005>
-223.913345336914

> <b_mmod_Minimization_Converged-OPLS-2005>
0

> <r_mmod_RMS_Derivative-OPLS-2005>
0.678013324737549

$$$$
22
                    3D
 Structure written by MMmdl.
150159  0  0  1  0            999 V2000
  -30.4140  -15.3407   20.3964 C   0  0  0  0  0  0
  -30.4261  -12.8873   19.4854 C   0  0  0  0  0  0
  -29.5151  -12.6041   18.2658 C   0  0  0  0  0  0
  -28.0792  -12.2899   18.7201 C   0  0  0  0  0  0
  -27.5980  -13.2794   19.8073 C   0  0  2  0  0  0
  -28.6348  -13.5007   20.9253 C   0  0  0  0  0  0
  -25.2372  -13.8269   20.5830 C   0  0  0  0  0  0
  -24.1712  -13.0436   20.9206 C   0  0  0  0  0  0
  -24.6368  -11.6924   20.8672 C   0  0  0  0  0  0
  -23.9094  -10.4263   21.0357 C   0  0  0  0  0  0
  -24.3632   -9.4194   21.9150 C   0  0  0  0  0  0
  -23.6307   -8.2237   22.0749 C   0  0  0  0  0  0
  -22.4292   -8.0252   21.3531 C   0  0  0  0  0  0
  -21.9923   -9.0237   20.4647 C   0  0  0  0  0  0
  -22.7255  -10.2116   20.3034 C   0  0  0  0  0  0
  -21.6845   -6.0708   22.5259 C   0  0  0  0  0  0
  -21.4010   -6.5625   23.8191 C   0  0  0  0  0  0
  -21.3624   -5.6795   24.9172 C   0  0  0  0  0  0
  -21.6037   -4.3061   24.7232 C   0  0  0  0  0  0
  -21.8788   -3.8110   23.4358 C   0  0  0  0  0  0
  -21.9180   -4.6920   22.3399 C   0  0  0  0  0  0
  -22.7723  -13.5186   21.1889 C   0  0  0  0  0  0
  -22.1663   -4.2078   21.0994 F   0  0  0  0  0  0
  -21.5640   -3.4567   25.7763 F   0  0  0  0  0  0
  -29.8333  -14.0415   20.2619 N   0  0  0  0  0  0
  -26.2760  -12.9535   20.3187 N   0  0  0  0  0  0
  -25.9301  -11.6627   20.5624 N   0  0  0  0  0  0
  -22.0413  -12.8142   22.0457 N   0  0  0  0  0  0
  -25.4128  -15.2015   20.4575 N   0  0  0  0  0  0
  -31.6536  -15.2744   20.3162 O   0  0  0  0  0  0
  -21.6653   -6.8856   21.4222 O   0  0  0  0  0  0
  -22.3365  -14.5469   20.6746 O   0  0  0  0  0  0
  -24.6685  -31.8190   23.1656 C   0  0  0  0  0  0
  -25.9322  -32.4576   23.8148 C   0  0  1  0  0  0
  -27.2160  -26.8937   20.1986 C   0  0  0  0  0  0
  -25.5945  -33.8395   24.2047 N   0  0  0  0  0  0
  -23.4849  -30.4284   21.5219 C   0  0  2  0  0  0
  -24.9355  -28.8090   20.1166 C   0  0  0  0  0  0
  -22.7711  -29.4391   22.4799 C   0  0  0  0  0  0
  -18.0291  -28.1414   22.8449 C   0  0  0  0  0  0
  -24.1510  -36.7252   23.2664 C   0  0  0  0  0  0
  -26.0563  -30.6197   21.3983 C   0  0  0  0  0  0
  -26.1229  -29.2040   20.7443 C   0  0  0  0  0  0
  -27.2612  -28.2739   20.7457 C   0  0  0  0  0  0
  -25.9970  -26.6516   19.5259 C   0  0  0  0  0  0
  -24.9004  -27.5553   19.4822 C   0  0  0  0  0  0
  -23.7243  -29.7428   20.1500 C   0  0  0  0  0  0
  -25.4158  -36.2993   24.0297 C   0  0  1  0  0  0
  -20.5933  -28.3760   23.1185 C   0  0  2  0  0  0
  -20.6787  -26.9437   22.5403 C   0  0  0  0  0  0
  -19.5759  -26.6380   21.5224 C   0  0  0  0  0  0
  -18.1944  -26.7937   22.1637 C   0  0  0  0  0  0
  -19.1558  -28.8909   23.2807 C   0  0  0  0  0  0
  -18.9474  -30.1507   23.8825 C   0  0  0  0  0  0
  -17.6458  -30.6595   24.0550 C   0  0  0  0  0  0
  -25.9108  -34.9340   23.5012 C   0  0  0  0  0  0
  -16.5347  -29.9075   23.6333 C   0  0  0  0  0  0
  -16.7272  -28.6509   23.0335 C   0  0  0  0  0  0
  -26.4529  -31.6547   25.0707 C   0  0  0  0  0  0
  -25.3643  -31.3761   26.1367 C   0  0  0  0  0  0
  -27.0450  -30.2927   24.6439 C   0  0  0  0  0  0
  -27.6004  -32.4390   25.7492 C   0  0  0  0  0  0
  -27.5581  -37.1813   24.8464 C   0  0  0  0  0  0
  -21.4364  -29.3035   22.3566 N   0  0  0  0  0  0
  -26.4305  -37.3724   23.9373 N   0  0  0  0  0  0
  -24.7591  -30.9825   22.0820 N   0  0  0  0  0  0
  -23.4235  -28.7962   23.3071 O   0  0  0  0  0  0
  -28.2288  -25.7900   20.2297 O   0  0  0  0  0  0
  -26.5760  -34.8866   22.4637 O   0  0  0  0  0  0
  -23.5747  -32.1141   23.6749 O   0  0  0  0  0  0
  -28.1217  -20.5479   21.7893 C   0  0  0  0  0  0
  -29.3760  -19.5359   20.0418 C   0  0  0  0  0  0
  -28.7981  -20.8723   20.5898 C   0  0  0  0  0  0
  -28.0630  -19.2329   22.3375 C   0  0  0  0  0  0
  -29.3232  -18.1030   20.6395 C   0  0  0  0  0  0
  -27.7252  -23.2684   19.3228 C   0  0  0  0  0  0
  -28.8351  -22.5986   20.1329 C   0  0  1  0  0  0
  -28.0203  -24.1565   20.5166 C   0  0  1  0  0  0
  -27.2460  -19.0085   23.6047 C   0  0  0  0  0  0
  -28.6449  -18.1082   21.8173 N   0  0  0  0  0  0
  -29.7548  -16.6441   20.0539 N   0  0  0  0  0  0
  -31.4321  -13.1258   19.1364 H   0  0  0  0  0  0
  -30.5332  -11.9981   20.1061 H   0  0  0  0  0  0
  -29.9069  -11.7865   17.6611 H   0  0  0  0  0  0
  -29.5031  -13.4828   17.6184 H   0  0  0  0  0  0
  -28.0662  -11.2741   19.1181 H   0  0  0  0  0  0
  -27.3962  -12.2932   17.8721 H   0  0  0  0  0  0
  -27.4884  -14.2311   19.2856 H   0  0  0  0  0  0
  -28.8345  -12.5830   21.4792 H   0  0  0  0  0  0
  -28.2543  -14.2241   21.6466 H   0  0  0  0  0  0
  -25.2726   -9.5682   22.4799 H   0  0  0  0  0  0
  -23.9939   -7.4689   22.7559 H   0  0  0  0  0  0
  -21.0801   -8.8812   19.9042 H   0  0  0  0  0  0
  -22.3636  -10.9681   19.6209 H   0  0  0  0  0  0
  -21.2005   -7.6139   23.9637 H   0  0  0  0  0  0
  -21.1481   -6.0579   25.9075 H   0  0  0  0  0  0
  -22.0579   -2.7547   23.2943 H   0  0  0  0  0  0
  -22.4098  -11.9858   22.4867 H   0  0  0  0  0  0
  -21.0993  -13.1099   22.2585 H   0  0  0  0  0  0
  -24.6885  -15.8672   20.7061 H   0  0  0  0  0  0
  -26.3114  -15.6341   20.2815 H   0  0  0  0  0  0
  -26.7408  -32.5109   23.0889 H   0  0  0  0  0  0
  -24.9929  -33.9461   25.0077 H   0  0  0  0  0  0
  -22.7987  -31.2619   21.3501 H   0  0  0  0  0  0
  -23.3750  -35.9610   23.3334 H   0  0  0  0  0  0
  -24.3599  -36.8904   22.2079 H   0  0  0  0  0  0
  -23.7274  -37.6446   23.6713 H   0  0  0  0  0  0
  -26.2399  -31.3546   20.6146 H   0  0  0  0  0  0
  -26.9183  -30.6801   22.0513 H   0  0  0  0  0  0
  -28.1692  -28.5938   21.2379 H   0  0  0  0  0  0
  -25.8705  -25.6935   19.0414 H   0  0  0  0  0  0
  -23.9983  -27.2481   18.9711 H   0  0  0  0  0  0
  -23.8797  -30.5089   19.3894 H   0  0  0  0  0  0
  -22.8310  -29.2023   19.8338 H   0  0  0  0  0  0
  -25.1364  -36.1824   25.0790 H   0  0  0  0  0  0
  -20.9985  -28.3353   24.1326 H   0  0  0  0  0  0
  -20.5707  -26.2362   23.3654 H   0  0  0  0  0  0
  -21.6647  -26.7432   22.1194 H   0  0  0  0  0  0
  -19.6923  -25.6283   21.1286 H   0  0  0  0  0  0
  -19.6694  -27.3165   20.6742 H   0  0  0  0  0  0
  -17.4214  -26.6632   21.4048 H   0  0  0  0  0  0
  -18.0335  -26.0120   22.9074 H   0  0  0  0  0  0
  -19.7947  -30.7353   24.2171 H   0  0  0  0  0  0
  -17.4995  -31.6263   24.5188 H   0  0  0  0  0  0
  -15.5346  -30.2955   23.7720 H   0  0  0  0  0  0
  -15.8669  -28.0836   22.7055 H   0  0  0  0  0  0
  -24.5763  -30.7214   25.7609 H   0  0  0  0  0  0
  -24.8913  -32.2960   26.4814 H   0  0  0  0  0  0
  -25.7860  -30.8826   27.0142 H   0  0  0  0  0  0
  -26.3114  -29.6612   24.1413 H   0  0  0  0  0  0
  -27.3946  -29.7282   25.5096 H   0  0  0  0  0  0
  -27.9053  -30.4136   23.9861 H   0  0  0  0  0  0
  -27.2481  -33.3621   26.2110 H   0  0  0  0  0  0
  -28.3729  -32.7136   25.0289 H   0  0  0  0  0  0
  -28.0794  -31.8561   26.5378 H   0  0  0  0  0  0
  -28.2626  -38.0087   24.7462 H   0  0  0  0  0  0
  -28.1049  -36.2604   24.6351 H   0  0  0  0  0  0
  -27.2290  -37.1527   25.8873 H   0  0  0  0  0  0
  -20.9663  -29.8721   21.6661 H   0  0  0  0  0  0
  -26.0173  -38.2810   24.1307 H   0  0  0  0  0  0
  -27.6121  -21.3418   22.3234 H   0  0  0  0  0  0
  -29.9126  -19.6192   19.1013 H   0  0  0  0  0  0
  -26.7491  -22.7930   19.3414 H   0  0  0  0  0  0
  -28.0122  -23.6352   18.3386 H   0  0  0  0  0  0
  -29.8448  -22.7447   19.7559 H   0  0  0  0  0  0
  -27.3602  -24.0805   21.3802 H   0  0  0  0  0  0
  -27.5894  -18.1440   24.1744 H   0  0  0  0  0  0
  -26.1981  -18.8392   23.3531 H   0  0  0  0  0  0
  -27.2936  -19.8724   24.2720 H   0  0  0  0  0  0
  -29.8431  -16.7231   19.0461 H   0  0  0  0  0  0
  1 25  1  0  0  0
  1 30  2  0  0  0
  1 81  1  0  0  0
  2  3  1  0  0  0
  2 25  1  0  0  0
  2 82  1  0  0  0
  2 83  1  0  0  0
  3  4  1  0  0  0
  3 84  1  0  0  0
  3 85  1  0  0  0
  4  5  1  0  0  0
  4 86  1  0  0  0
  4 87  1  0  0  0
  5  6  1  0  0  0
  5 26  1  0  0  0
  5 88  1  0  0  0
  6 25  1  0  0  0
  6 89  1  0  0  0
  6 90  1  0  0  0
  7  8  2  0  0  0
  7 26  1  0  0  0
  7 29  1  0  0  0
  8  9  1  0  0  0
  8 22  1  0  0  0
  9 10  1  0  0  0
  9 27  2  0  0  0
 10 11  2  0  0  0
 10 15  1  0  0  0
 11 12  1  0  0  0
 11 91  1  0  0  0
 12 13  2  0  0  0
 12 92  1  0  0  0
 13 14  1  0  0  0
 13 31  1  0  0  0
 14 15  2  0  0  0
 14 93  1  0  0  0
 15 94  1  0  0  0
 16 17  2  0  0  0
 16 21  1  0  0  0
 16 31  1  0  0  0
 17 18  1  0  0  0
 17 95  1  0  0  0
 18 19  2  0  0  0
 18 96  1  0  0  0
 19 20  1  0  0  0
 19 24  1  0  0  0
 20 21  2  0  0  0
 20 97  1  0  0  0
 21 23  1  0  0  0
 22 28  1  0  0  0
 22 32  2  0  0  0
 26 27  1  0  0  0
 28 98  1  0  0  0
 28 99  1  0  0  0
 29100  1  0  0  0
 29101  1  0  0  0
 33 34  1  0  0  0
 33 66  1  0  0  0
 33 70  2  0  0  0
 34 36  1  0  0  0
 34 59  1  0  0  0
 34102  1  0  0  0
 35 44  2  0  0  0
 35 45  1  0  0  0
 35 68  1  0  0  0
 36 56  1  0  0  0
 36103  1  0  0  0
 37 39  1  0  0  0
 37 47  1  0  0  0
 37 66  1  0  0  0
 37104  1  0  0  0
 38 43  2  0  0  0
 38 46  1  0  0  0
 38 47  1  0  0  0
 39 64  1  0  0  0
 39 67  2  0  0  0
 40 52  1  0  0  0
 40 53  2  0  0  0
 40 58  1  0  0  0
 41105  1  0  0  0
 41106  1  0  0  0
 41107  1  0  0  0
 41 48  1  0  0  0
 42 43  1  0  0  0
 42 66  1  0  0  0
 42108  1  0  0  0
 42109  1  0  0  0
 43 44  1  0  0  0
 44110  1  0  0  0
 45 46  2  0  0  0
 45111  1  0  0  0
 46112  1  0  0  0
 47113  1  0  0  0
 47114  1  0  0  0
 48 56  1  0  0  0
 48 65  1  0  0  0
 48115  1  0  0  0
 49 50  1  0  0  0
 49 53  1  0  0  0
 49 64  1  0  0  0
 49116  1  0  0  0
 50 51  1  0  0  0
 50117  1  0  0  0
 50118  1  0  0  0
 51 52  1  0  0  0
 51119  1  0  0  0
 51120  1  0  0  0
 52121  1  0  0  0
 52122  1  0  0  0
 53 54  1  0  0  0
 54 55  2  0  0  0
 54123  1  0  0  0
 55 57  1  0  0  0
 55124  1  0  0  0
 56 69  2  0  0  0
 57 58  2  0  0  0
 57125  1  0  0  0
 58126  1  0  0  0
 59 60  1  0  0  0
 59 61  1  0  0  0
 59 62  1  0  0  0
 60127  1  0  0  0
 60128  1  0  0  0
 60129  1  0  0  0
 61130  1  0  0  0
 61131  1  0  0  0
 61132  1  0  0  0
 62133  1  0  0  0
 62134  1  0  0  0
 62135  1  0  0  0
 63 65  1  0  0  0
 63136  1  0  0  0
 63137  1  0  0  0
 63138  1  0  0  0
 64139  1  0  0  0
 65140  1  0  0  0
 68 78  1  0  0  0
 71 73  2  0  0  0
 71 74  1  0  0  0
 71141  1  0  0  0
 72 73  1  0  0  0
 72 75  2  0  0  0
 72142  1  0  0  0
 73 77  1  0  0  0
 74 79  1  0  0  0
 74 80  2  0  0  0
 75 80  1  0  0  0
 75 81  1  0  0  0
 76 77  1  0  0  0
 76 78  1  0  0  0
 76143  1  0  0  0
 76144  1  0  0  0
 77 78  1  0  0  0
 77145  1  0  0  0
 78146  1  0  0  0
 79147  1  0  0  0
 79148  1  0  0  0
 79149  1  0  0  0
 81150  1  0  0  0
M  ISO  4   1 100  68 101  78 101  81 100
M  END
> <chiral flag>
0

> <version>
0

> <s_m_source_file>
/data/baiqing/PycharmProjects/Reinvent-master-3.2/result/LINK_invent/BTK/process_docking_weight1_custom_sum_contain_oxygen_bond_distance_aromatic_linkinvent_7_9_3/rearranged_h_0183.sdf

> <i_m_source_file_index>
23

> <r_mmod_Potential_Energy-OPLS-2005>
1318.84265136719

> <r_mmod_Stretch_Energy-OPLS-2005>
638.880065917969

> <r_mmod_Bend_Energy-OPLS-2005>
441.062652587891

> <r_mmod_Torsional_Energy-OPLS-2005>
305.014038085938

> <r_mmod_Improper_Torsional_Energy-OPLS-2005>
23.6272754669189

> <r_mmod_Van_der_Waal_Energy-OPLS-2005>
121.625381469727

> <r_mmod_Electrostatic_Energy-OPLS-2005>
-519.854187011719

> <r_mmod_Solvation_Energy-OPLS-2005>
-219.839660644531

> <b_mmod_Minimization_Converged-OPLS-2005>
0

> <r_mmod_RMS_Derivative-OPLS-2005>
5.1167631149292

$$$$
23
                    3D
 Structure written by MMmdl.
151159  0  0  1  0            999 V2000
  -30.5453  -14.9721   20.4064 C   0  0  0  0  0  0
  -30.4382  -12.6038   19.4974 C   0  0  0  0  0  0
  -29.5176  -12.5318   18.2561 C   0  0  0  0  0  0
  -28.0496  -12.3232   18.6729 C   0  0  0  0  0  0
  -27.6276  -13.2541   19.8397 C   0  0  2  0  0  0
  -28.6739  -13.2965   20.9739 C   0  0  0  0  0  0
  -25.2460  -13.8227   20.5732 C   0  0  0  0  0  0
  -24.1777  -13.0442   20.9239 C   0  0  0  0  0  0
  -24.6406  -11.6929   20.8774 C   0  0  0  0  0  0
  -23.9094  -10.4294   21.0419 C   0  0  0  0  0  0
  -24.3637   -9.4200   21.9192 C   0  0  0  0  0  0
  -23.6310   -8.2237   22.0756 C   0  0  0  0  0  0
  -22.4291   -8.0286   21.3544 C   0  0  0  0  0  0
  -21.9931   -9.0263   20.4648 C   0  0  0  0  0  0
  -22.7274  -10.2136   20.3059 C   0  0  0  0  0  0
  -21.6849   -6.0752   22.5280 C   0  0  0  0  0  0
  -21.4016   -6.5658   23.8215 C   0  0  0  0  0  0
  -21.3651   -5.6812   24.9176 C   0  0  0  0  0  0
  -21.6033   -4.3071   24.7229 C   0  0  0  0  0  0
  -21.8812   -3.8163   23.4349 C   0  0  0  0  0  0
  -21.9190   -4.6978   22.3407 C   0  0  0  0  0  0
  -22.7790  -13.5193   21.1878 C   0  0  0  0  0  0
  -22.1662   -4.2161   21.0986 F   0  0  0  0  0  0
  -21.5624   -3.4557   25.7743 F   0  0  0  0  0  0
  -29.9454  -13.7115   20.3674 N   0  0  0  0  0  0
  -26.2889  -12.9470   20.3288 N   0  0  0  0  0  0
  -25.9343  -11.6591   20.5773 N   0  0  0  0  0  0
  -22.0458  -12.8170   22.0441 N   0  0  0  0  0  0
  -25.4130  -15.1949   20.4136 N   0  0  0  0  0  0
  -31.7513  -15.0230   20.1447 O   0  0  0  0  0  0
  -21.6640   -6.8890   21.4241 O   0  0  0  0  0  0
  -22.3452  -14.5484   20.6711 O   0  0  0  0  0  0
  -24.6488  -31.8398   23.1868 C   0  0  0  0  0  0
  -25.9254  -32.4656   23.8259 C   0  0  1  0  0  0
  -27.2160  -27.1046   20.1535 C   0  0  0  0  0  0
  -25.5989  -33.8466   24.2168 N   0  0  0  0  0  0
  -23.4523  -30.4613   21.5323 C   0  0  2  0  0  0
  -24.9017  -28.8856   20.1098 C   0  0  0  0  0  0
  -22.7593  -29.4524   22.4828 C   0  0  0  0  0  0
  -18.0312  -28.1390   22.8471 C   0  0  0  0  0  0
  -24.1489  -36.7230   23.2646 C   0  0  0  0  0  0
  -26.0128  -30.7024   21.3921 C   0  0  0  0  0  0
  -26.0821  -29.3133   20.7309 C   0  0  0  0  0  0
  -27.2398  -28.4416   20.7342 C   0  0  0  0  0  0
  -26.0045  -26.7882   19.4960 C   0  0  0  0  0  0
  -24.8776  -27.6359   19.4773 C   0  0  0  0  0  0
  -23.6819  -29.7942   20.1507 C   0  0  0  0  0  0
  -25.4118  -36.2988   24.0310 C   0  0  1  0  0  0
  -20.5932  -28.3719   23.1216 C   0  0  2  0  0  0
  -20.6799  -26.9414   22.5398 C   0  0  0  0  0  0
  -19.5770  -26.6372   21.5209 C   0  0  0  0  0  0
  -18.1948  -26.7929   22.1617 C   0  0  0  0  0  0
  -19.1574  -28.8874   23.2832 C   0  0  0  0  0  0
  -18.9494  -30.1473   23.8856 C   0  0  0  0  0  0
  -17.6490  -30.6588   24.0556 C   0  0  0  0  0  0
  -25.9081  -34.9379   23.5041 C   0  0  0  0  0  0
  -16.5377  -29.9075   23.6344 C   0  0  0  0  0  0
  -16.7297  -28.6498   23.0354 C   0  0  0  0  0  0
  -26.4555  -31.6553   25.0731 C   0  0  0  0  0  0
  -25.3736  -31.3761   26.1427 C   0  0  0  0  0  0
  -27.0443  -30.2938   24.6375 C   0  0  0  0  0  0
  -27.6053  -32.4348   25.7534 C   0  0  0  0  0  0
  -27.5556  -37.1762   24.8467 C   0  0  0  0  0  0
  -21.4280  -29.3041   22.3581 N   0  0  0  0  0  0
  -26.4264  -37.3725   23.9425 N   0  0  0  0  0  0
  -24.7243  -31.0234   22.0911 N   0  0  0  0  0  0
  -23.4223  -28.8054   23.2977 O   0  0  0  0  0  0
  -28.2512  -26.0882   20.2205 O   0  0  0  0  0  0
  -26.5653  -34.8888   22.4610 O   0  0  0  0  0  0
  -23.5603  -32.1288   23.7076 O   0  0  0  0  0  0
  -28.4391  -21.7988   20.3020 C   0  0  0  0  0  0
  -28.8555  -23.2172   20.2449 C   0  0  0  0  0  0
  -29.3824  -20.6600   20.3372 C   0  0  0  0  0  0
  -31.0078  -22.3323   20.2628 C   0  0  0  0  0  0
  -32.4908  -22.6343   20.2363 C   0  0  0  0  0  0
  -27.8841  -24.5620   20.1112 C   0  0  0  0  0  0
  -30.1499  -17.7220   20.4034 C   0  0  0  0  0  0
  -29.0519  -19.0223   20.4123 C   0  0  1  0  0  0
  -30.1939  -23.3997   20.2267 N   0  0  0  0  0  0
  -30.6805  -21.0314   20.3176 N   0  0  0  0  0  0
  -29.7802  -16.1710   20.5244 N   0  0  0  0  0  0
  -28.2906  -18.8351   21.4927 F   0  0  0  0  0  0
  -31.4715  -12.7600   19.1817 H   0  0  0  0  0  0
  -30.4363  -11.6588   20.0419 H   0  0  0  0  0  0
  -29.8361  -11.7252   17.5943 H   0  0  0  0  0  0
  -29.6049  -13.4539   17.6797 H   0  0  0  0  0  0
  -27.9384  -11.2815   18.9748 H   0  0  0  0  0  0
  -27.3875  -12.4644   17.8174 H   0  0  0  0  0  0
  -27.5852  -14.2546   19.4093 H   0  0  0  0  0  0
  -28.7670  -12.3270   21.4651 H   0  0  0  0  0  0
  -28.3726  -14.0066   21.7461 H   0  0  0  0  0  0
  -25.2776   -9.5661   22.4781 H   0  0  0  0  0  0
  -24.0015   -7.4622   22.7468 H   0  0  0  0  0  0
  -21.0859   -8.8784   19.8954 H   0  0  0  0  0  0
  -22.3742  -10.9680   19.6167 H   0  0  0  0  0  0
  -21.2020   -7.6167   23.9719 H   0  0  0  0  0  0
  -21.1472   -6.0550   25.9076 H   0  0  0  0  0  0
  -22.0598   -2.7627   23.2852 H   0  0  0  0  0  0
  -22.4124  -11.9856   22.4823 H   0  0  0  0  0  0
  -21.1061  -13.1145   22.2650 H   0  0  0  0  0  0
  -24.6454  -15.8479   20.5284 H   0  0  0  0  0  0
  -26.2521  -15.6320   20.0563 H   0  0  0  0  0  0
  -26.7320  -32.5241   23.0980 H   0  0  0  0  0  0
  -25.0160  -33.9566   25.0331 H   0  0  0  0  0  0
  -22.7562  -31.2884   21.3769 H   0  0  0  0  0  0
  -23.3746  -35.9563   23.3290 H   0  0  0  0  0  0
  -24.3567  -36.8889   22.2064 H   0  0  0  0  0  0
  -23.7251  -37.6420   23.6707 H   0  0  0  0  0  0
  -26.1808  -31.4567   20.6219 H   0  0  0  0  0  0
  -26.8794  -30.7438   22.0411 H   0  0  0  0  0  0
  -28.1346  -28.7664   21.2460 H   0  0  0  0  0  0
  -25.8780  -25.8375   19.0030 H   0  0  0  0  0  0
  -23.9776  -27.2989   18.9813 H   0  0  0  0  0  0
  -23.8260  -30.5730   19.3998 H   0  0  0  0  0  0
  -22.7948  -29.2433   19.8326 H   0  0  0  0  0  0
  -25.1303  -36.1787   25.0796 H   0  0  0  0  0  0
  -21.0026  -28.3316   24.1337 H   0  0  0  0  0  0
  -20.5699  -26.2325   23.3619 H   0  0  0  0  0  0
  -21.6657  -26.7411   22.1185 H   0  0  0  0  0  0
  -19.6929  -25.6277   21.1249 H   0  0  0  0  0  0
  -19.6717  -27.3175   20.6737 H   0  0  0  0  0  0
  -17.4218  -26.6682   21.4018 H   0  0  0  0  0  0
  -18.0335  -26.0068   22.9013 H   0  0  0  0  0  0
  -19.7973  -30.7296   24.2198 H   0  0  0  0  0  0
  -17.5046  -31.6266   24.5160 H   0  0  0  0  0  0
  -15.5377  -30.2961   23.7704 H   0  0  0  0  0  0
  -15.8696  -28.0816   22.7081 H   0  0  0  0  0  0
  -24.5909  -30.7106   25.7770 H   0  0  0  0  0  0
  -24.8940  -32.2953   26.4803 H   0  0  0  0  0  0
  -25.8019  -30.8977   27.0244 H   0  0  0  0  0  0
  -26.3091  -29.6627   24.1374 H   0  0  0  0  0  0
  -27.4017  -29.7276   25.4988 H   0  0  0  0  0  0
  -27.9007  -30.4156   23.9738 H   0  0  0  0  0  0
  -27.2614  -33.3675   26.2024 H   0  0  0  0  0  0
  -28.3917  -32.6876   25.0408 H   0  0  0  0  0  0
  -28.0665  -31.8543   26.5538 H   0  0  0  0  0  0
  -28.2550  -38.0080   24.7500 H   0  0  0  0  0  0
  -28.1064  -36.2597   24.6290 H   0  0  0  0  0  0
  -27.2270  -37.1404   25.8870 H   0  0  0  0  0  0
  -20.9490  -29.8772   21.6773 H   0  0  0  0  0  0
  -26.0103  -38.2772   24.1458 H   0  0  0  0  0  0
  -27.3790  -21.5799   20.3103 H   0  0  0  0  0  0
  -32.8357  -22.9056   21.2342 H   0  0  0  0  0  0
  -32.7091  -23.4606   19.5590 H   0  0  0  0  0  0
  -33.0658  -21.7716   19.8998 H   0  0  0  0  0  0
  -27.0628  -24.3938   20.8087 H   0  0  0  0  0  0
  -27.4534  -24.4305   19.1203 H   0  0  0  0  0  0
  -30.8613  -17.9157   21.2057 H   0  0  0  0  0  0
  -30.7377  -17.8209   19.4907 H   0  0  0  0  0  0
  -28.3779  -18.8531   19.5726 H   0  0  0  0  0  0
  -28.8008  -16.0023   20.6987 H   0  0  0  0  0  0
  1 25  1  0  0  0
  1 30  2  0  0  0
  1 81  1  0  0  0
  2  3  1  0  0  0
  2 25  1  0  0  0
  2 83  1  0  0  0
  2 84  1  0  0  0
  3  4  1  0  0  0
  3 85  1  0  0  0
  3 86  1  0  0  0
  4  5  1  0  0  0
  4 87  1  0  0  0
  4 88  1  0  0  0
  5  6  1  0  0  0
  5 26  1  0  0  0
  5 89  1  0  0  0
  6 25  1  0  0  0
  6 90  1  0  0  0
  6 91  1  0  0  0
  7  8  2  0  0  0
  7 26  1  0  0  0
  7 29  1  0  0  0
  8  9  1  0  0  0
  8 22  1  0  0  0
  9 10  1  0  0  0
  9 27  2  0  0  0
 10 11  2  0  0  0
 10 15  1  0  0  0
 11 12  1  0  0  0
 11 92  1  0  0  0
 12 13  2  0  0  0
 12 93  1  0  0  0
 13 14  1  0  0  0
 13 31  1  0  0  0
 14 15  2  0  0  0
 14 94  1  0  0  0
 15 95  1  0  0  0
 16 17  2  0  0  0
 16 21  1  0  0  0
 16 31  1  0  0  0
 17 18  1  0  0  0
 17 96  1  0  0  0
 18 19  2  0  0  0
 18 97  1  0  0  0
 19 20  1  0  0  0
 19 24  1  0  0  0
 20 21  2  0  0  0
 20 98  1  0  0  0
 21 23  1  0  0  0
 22 28  1  0  0  0
 22 32  2  0  0  0
 26 27  1  0  0  0
 28 99  1  0  0  0
 28100  1  0  0  0
 29101  1  0  0  0
 29102  1  0  0  0
 33 34  1  0  0  0
 33 66  1  0  0  0
 33 70  2  0  0  0
 34 36  1  0  0  0
 34 59  1  0  0  0
 34103  1  0  0  0
 35 44  2  0  0  0
 35 45  1  0  0  0
 35 68  1  0  0  0
 36 56  1  0  0  0
 36104  1  0  0  0
 37 39  1  0  0  0
 37 47  1  0  0  0
 37 66  1  0  0  0
 37105  1  0  0  0
 38 43  2  0  0  0
 38 46  1  0  0  0
 38 47  1  0  0  0
 39 64  1  0  0  0
 39 67  2  0  0  0
 40 52  1  0  0  0
 40 53  2  0  0  0
 40 58  1  0  0  0
 41106  1  0  0  0
 41107  1  0  0  0
 41108  1  0  0  0
 41 48  1  0  0  0
 42 43  1  0  0  0
 42 66  1  0  0  0
 42109  1  0  0  0
 42110  1  0  0  0
 43 44  1  0  0  0
 44111  1  0  0  0
 45 46  2  0  0  0
 45112  1  0  0  0
 46113  1  0  0  0
 47114  1  0  0  0
 47115  1  0  0  0
 48 56  1  0  0  0
 48 65  1  0  0  0
 48116  1  0  0  0
 49 50  1  0  0  0
 49 53  1  0  0  0
 49 64  1  0  0  0
 49117  1  0  0  0
 50 51  1  0  0  0
 50118  1  0  0  0
 50119  1  0  0  0
 51 52  1  0  0  0
 51120  1  0  0  0
 51121  1  0  0  0
 52122  1  0  0  0
 52123  1  0  0  0
 53 54  1  0  0  0
 54 55  2  0  0  0
 54124  1  0  0  0
 55 57  1  0  0  0
 55125  1  0  0  0
 56 69  2  0  0  0
 57 58  2  0  0  0
 57126  1  0  0  0
 58127  1  0  0  0
 59 60  1  0  0  0
 59 61  1  0  0  0
 59 62  1  0  0  0
 60128  1  0  0  0
 60129  1  0  0  0
 60130  1  0  0  0
 61131  1  0  0  0
 61132  1  0  0  0
 61133  1  0  0  0
 62134  1  0  0  0
 62135  1  0  0  0
 62136  1  0  0  0
 63 65  1  0  0  0
 63137  1  0  0  0
 63138  1  0  0  0
 63139  1  0  0  0
 64140  1  0  0  0
 65141  1  0  0  0
 68 76  1  0  0  0
 71 72  2  0  0  0
 71 73  1  0  0  0
 71142  1  0  0  0
 72 76  1  0  0  0
 72 79  1  0  0  0
 73 78  1  0  0  0
 73 80  2  0  0  0
 74 75  1  0  0  0
 74 79  2  0  0  0
 74 80  1  0  0  0
 75143  1  0  0  0
 75144  1  0  0  0
 75145  1  0  0  0
 76146  1  0  0  0
 76147  1  0  0  0
 77 78  1  0  0  0
 77 81  1  0  0  0
 77148  1  0  0  0
 77149  1  0  0  0
 78 82  1  0  0  0
 78150  1  0  0  0
 81151  1  0  0  0
M  ISO  4   1 100  68 101  76 101  81 100
M  END
> <chiral flag>
0

> <version>
0

> <s_m_source_file>
/data/baiqing/PycharmProjects/Reinvent-master-3.2/result/LINK_invent/BTK/process_docking_weight1_custom_sum_contain_oxygen_bond_distance_aromatic_linkinvent_7_9_3/rearranged_h_0183.sdf

> <i_m_source_file_index>
24

> <r_mmod_Potential_Energy-OPLS-2005>
130.27880859375

> <r_mmod_Stretch_Energy-OPLS-2005>
279.189910888672

> <r_mmod_Bend_Energy-OPLS-2005>
256.294891357422

> <r_mmod_Torsional_Energy-OPLS-2005>
214.103912353516

> <r_mmod_Improper_Torsional_Energy-OPLS-2005>
4.59922361373901

> <r_mmod_Van_der_Waal_Energy-OPLS-2005>
139.085510253906

> <r_mmod_Electrostatic_Energy-OPLS-2005>
-727.787902832031

> <r_mmod_Solvation_Energy-OPLS-2005>
-252.014938354492

> <b_mmod_Minimization_Converged-OPLS-2005>
0

> <r_mmod_RMS_Derivative-OPLS-2005>
1.5005795955658

$$$$
24
                    3D
 Structure written by MMmdl.
163172  0  0  1  0            999 V2000
  -29.6091  -14.5180   20.2636 C   0  0  0  0  0  0
  -30.5063  -12.5059   19.2651 C   0  0  0  0  0  0
  -29.4484  -12.4791   18.1489 C   0  0  0  0  0  0
  -28.1075  -11.9613   18.7242 C   0  0  0  0  0  0
  -27.7035  -12.2810   20.2296 C   0  0  2  0  0  0
  -28.9686  -12.3660   21.1227 C   0  0  0  0  0  0
  -25.7595  -14.2074   20.4943 C   0  0  0  0  0  0
  -24.4985  -13.4180   20.8993 C   0  0  0  0  0  0
  -24.6392  -11.9391   20.8917 C   0  0  0  0  0  0
  -23.8526  -10.6317   21.0742 C   0  0  0  0  0  0
  -24.3298   -9.5730   21.9134 C   0  0  0  0  0  0
  -23.6402   -8.3355   22.0597 C   0  0  0  0  0  0
  -22.4404   -8.0989   21.3537 C   0  0  0  0  0  0
  -21.9880   -9.1058   20.4766 C   0  0  0  0  0  0
  -22.6800  -10.3362   20.3335 C   0  0  0  0  0  0
  -21.7105   -6.1000   22.5202 C   0  0  0  0  0  0
  -21.4152   -6.5845   23.8125 C   0  0  0  0  0  0
  -21.3705   -5.6965   24.9074 C   0  0  0  0  0  0
  -21.6035   -4.3193   24.7165 C   0  0  0  0  0  0
  -21.8785   -3.8328   23.4268 C   0  0  0  0  0  0
  -21.9265   -4.7172   22.3359 C   0  0  0  0  0  0
  -23.0224  -13.7972   21.1740 C   0  0  0  0  0  0
  -22.1703   -4.2300   21.0948 F   0  0  0  0  0  0
  -21.5631   -3.4723   25.7690 F   0  0  0  0  0  0
  -29.8751  -13.2055   20.3876 N   0  0  0  0  0  0
  -26.4100  -12.8560   20.4202 N   0  0  0  0  0  0
  -25.8142  -11.6866   20.5850 N   0  0  0  0  0  0
  -22.2980  -13.0508   22.0158 N   0  0  0  0  0  0
  -26.5563  -16.3607   19.8246 N   0  0  0  0  0  0
  -30.6564  -15.2010   20.0786 O   0  0  0  0  0  0
  -21.7065   -6.9291   21.4154 O   0  0  0  0  0  0
  -22.4542  -14.7445   20.6395 O   0  0  0  0  0  0
  -24.6474  -31.8467   23.1928 C   0  0  0  0  0  0
  -25.9265  -32.4669   23.8300 C   0  0  1  0  0  0
  -26.9854  -26.9928   20.2239 C   0  0  0  0  0  0
  -25.6008  -33.8484   24.2198 N   0  0  0  0  0  0
  -23.4449  -30.4829   21.5404 C   0  0  2  0  0  0
  -24.8682  -28.9283   20.0891 C   0  0  0  0  0  0
  -22.7556  -29.4591   22.4797 C   0  0  0  0  0  0
  -18.0310  -28.1402   22.8471 C   0  0  0  0  0  0
  -24.1526  -36.7226   23.2638 C   0  0  0  0  0  0
  -26.0123  -30.6702   21.4289 C   0  0  0  0  0  0
  -26.0466  -29.2810   20.7623 C   0  0  0  0  0  0
  -27.1275  -28.3149   20.8317 C   0  0  0  0  0  0
  -25.9052  -26.8673   19.3434 C   0  0  0  0  0  0
  -24.8204  -27.7495   19.3478 C   0  0  0  0  0  0
  -23.6696  -29.8536   20.1459 C   0  0  0  0  0  0
  -25.4157  -36.3003   24.0304 C   0  0  1  0  0  0
  -20.5923  -28.3753   23.1193 C   0  0  2  0  0  0
  -20.6794  -26.9462   22.5379 C   0  0  0  0  0  0
  -19.5765  -26.6390   21.5184 C   0  0  0  0  0  0
  -18.1954  -26.7936   22.1615 C   0  0  0  0  0  0
  -19.1573  -28.8876   23.2837 C   0  0  0  0  0  0
  -18.9496  -30.1467   23.8863 C   0  0  0  0  0  0
  -17.6498  -30.6593   24.0563 C   0  0  0  0  0  0
  -25.9117  -34.9380   23.5060 C   0  0  0  0  0  0
  -16.5379  -29.9094   23.6350 C   0  0  0  0  0  0
  -16.7294  -28.6515   23.0357 C   0  0  0  0  0  0
  -26.4564  -31.6529   25.0751 C   0  0  0  0  0  0
  -25.3717  -31.3748   26.1415 C   0  0  0  0  0  0
  -27.0428  -30.2873   24.6454 C   0  0  0  0  0  0
  -27.6100  -32.4307   25.7507 C   0  0  0  0  0  0
  -27.5585  -37.1785   24.8464 C   0  0  0  0  0  0
  -21.4246  -29.3086   22.3549 N   0  0  0  0  0  0
  -26.4312  -37.3712   23.9390 N   0  0  0  0  0  0
  -24.7209  -31.0251   22.1038 N   0  0  0  0  0  0
  -23.4194  -28.8133   23.2958 O   0  0  0  0  0  0
  -27.6459  -25.7337   20.4876 O   0  0  0  0  0  0
  -26.5696  -34.8870   22.4637 O   0  0  0  0  0  0
  -23.5600  -32.1454   23.7082 O   0  0  0  0  0  0
  -25.3815  -19.0933   20.6350 C   0  0  0  0  0  0
  -25.8663  -20.2823   21.2777 C   0  0  0  0  0  0
  -25.9222  -19.7342   22.6081 C   0  0  0  0  0  0
  -26.8786  -22.8058   21.0795 C   0  0  0  0  0  0
  -26.8396  -14.6378   18.4834 C   0  0  0  0  0  0
  -27.1560  -15.5154   21.8160 C   0  0  0  0  0  0
  -24.6763  -15.5491   19.0257 C   0  0  1  0  0  0
  -24.9835  -16.2748   21.3404 C   0  0  1  0  0  0
  -26.2605  -20.4089   23.9027 C   0  0  0  0  0  0
  -26.6534  -24.4728   20.7226 C   0  0  0  0  0  0
  -24.1649  -16.6454   18.0599 C   0  0  0  0  0  0
  -25.5644  -18.4225   22.7064 N   0  0  0  0  0  0
  -26.0549  -21.7325   20.7925 N   0  0  0  0  0  0
  -25.1926  -17.9147   21.4993 N   0  0  0  0  0  0
  -28.1514  -14.8217   20.1628 N   0  0  0  0  0  0
  -22.7968  -17.0846   18.3884 N   0  3  0  0  0  0
  -31.4049  -13.0306   18.9330 H   0  0  0  0  0  0
  -30.8264  -11.5010   19.5288 H   0  0  0  0  0  0
  -29.7945  -11.8305   17.3437 H   0  0  0  0  0  0
  -29.3145  -13.4600   17.6930 H   0  0  0  0  0  0
  -28.3031  -10.8918   18.7890 H   0  0  0  0  0  0
  -27.2917  -11.8860   18.0084 H   0  0  0  0  0  0
  -27.6833  -12.9703   21.0337 H   0  0  0  0  0  0
  -29.3849  -11.3584   21.1583 H   0  0  0  0  0  0
  -28.9691  -12.6269   22.2037 H   0  0  0  0  0  0
  -25.2549   -9.7083   22.4568 H   0  0  0  0  0  0
  -24.0485   -7.5673   22.7045 H   0  0  0  0  0  0
  -21.0915   -8.9266   19.8990 H   0  0  0  0  0  0
  -22.2867  -11.0699   19.6452 H   0  0  0  0  0  0
  -21.2137   -7.6365   23.9673 H   0  0  0  0  0  0
  -21.1520   -6.0722   25.8994 H   0  0  0  0  0  0
  -22.0479   -2.7805   23.2771 H   0  0  0  0  0  0
  -22.7106  -12.2905   22.5383 H   0  0  0  0  0  0
  -21.3248  -13.2818   22.1531 H   0  0  0  0  0  0
  -26.0642  -17.2413   19.9124 H   0  0  0  0  0  0
  -27.5143  -16.4630   19.5338 H   0  0  0  0  0  0
  -26.7301  -32.5205   23.0996 H   0  0  0  0  0  0
  -25.0094  -33.9615   25.0293 H   0  0  0  0  0  0
  -22.7526  -31.3160   21.4034 H   0  0  0  0  0  0
  -23.3790  -35.9556   23.3280 H   0  0  0  0  0  0
  -24.3613  -36.8879   22.2059 H   0  0  0  0  0  0
  -23.7296  -37.6416   23.6694 H   0  0  0  0  0  0
  -26.2106  -31.4193   20.6630 H   0  0  0  0  0  0
  -26.8685  -30.6908   22.0879 H   0  0  0  0  0  0
  -27.9885  -28.5234   21.4539 H   0  0  0  0  0  0
  -25.8143  -26.0042   18.7028 H   0  0  0  0  0  0
  -23.9527  -27.5050   18.7523 H   0  0  0  0  0  0
  -23.8311  -30.6449   19.4140 H   0  0  0  0  0  0
  -22.7754  -29.3250   19.8144 H   0  0  0  0  0  0
  -25.1365  -36.1828   25.0796 H   0  0  0  0  0  0
  -21.0028  -28.3343   24.1302 H   0  0  0  0  0  0
  -20.5667  -26.2392   23.3619 H   0  0  0  0  0  0
  -21.6681  -26.7472   22.1207 H   0  0  0  0  0  0
  -19.6969  -25.6286   21.1254 H   0  0  0  0  0  0
  -19.6680  -27.3161   20.6678 H   0  0  0  0  0  0
  -17.4232  -26.6651   21.4025 H   0  0  0  0  0  0
  -18.0399  -26.0071   22.9011 H   0  0  0  0  0  0
  -19.7965  -30.7293   24.2224 H   0  0  0  0  0  0
  -17.5048  -31.6271   24.5187 H   0  0  0  0  0  0
  -15.5383  -30.3003   23.7650 H   0  0  0  0  0  0
  -15.8692  -28.0811   22.7097 H   0  0  0  0  0  0
  -24.5941  -30.7057   25.7716 H   0  0  0  0  0  0
  -24.8871  -32.2933   26.4713 H   0  0  0  0  0  0
  -25.7971  -30.9002   27.0263 H   0  0  0  0  0  0
  -26.3061  -29.6558   24.1478 H   0  0  0  0  0  0
  -27.3954  -29.7222   25.5092 H   0  0  0  0  0  0
  -27.9032  -30.4012   23.9861 H   0  0  0  0  0  0
  -27.2714  -33.3666   26.1953 H   0  0  0  0  0  0
  -28.3945  -32.6760   25.0337 H   0  0  0  0  0  0
  -28.0717  -31.8515   26.5513 H   0  0  0  0  0  0
  -28.2604  -38.0077   24.7485 H   0  0  0  0  0  0
  -28.1089  -36.2604   24.6346 H   0  0  0  0  0  0
  -27.2280  -37.1475   25.8859 H   0  0  0  0  0  0
  -20.9429  -29.8828   21.6757 H   0  0  0  0  0  0
  -26.0171  -38.2785   24.1338 H   0  0  0  0  0  0
  -25.1579  -18.9846   19.5907 H   0  0  0  0  0  0
  -27.7735  -22.6397   21.6859 H   0  0  0  0  0  0
  -27.2857  -15.2340   17.6827 H   0  0  0  0  0  0
  -26.6351  -13.7128   17.9775 H   0  0  0  0  0  0
  -27.1501  -14.7555   22.5995 H   0  0  0  0  0  0
  -27.7168  -16.3369   22.2671 H   0  0  0  0  0  0
  -23.9723  -14.7364   18.8414 H   0  0  0  0  0  0
  -24.2315  -15.9650   22.0672 H   0  0  0  0  0  0
  -26.4708  -21.4682   23.7736 H   0  0  0  0  0  0
  -27.1346  -19.9421   24.3635 H   0  0  0  0  0  0
  -25.4323  -20.3234   24.6122 H   0  0  0  0  0  0
  -26.0554  -24.8306   21.5642 H   0  0  0  0  0  0
  -25.9297  -24.4181   19.9158 H   0  0  0  0  0  0
  -24.1904  -16.2572   17.0405 H   0  0  0  0  0  0
  -24.8199  -17.5119   18.0533 H   0  0  0  0  0  0
  -22.1576  -16.3089   18.3979 H   0  0  0  0  0  0
  -22.4678  -17.7435   17.7062 H   0  0  0  0  0  0
  -22.7508  -17.5295   19.2907 H   0  0  0  0  0  0
  1 25  1  0  0  0
  1 30  2  0  0  0
  1 85  1  0  0  0
  2  3  1  0  0  0
  2 25  1  0  0  0
  2 87  1  0  0  0
  2 88  1  0  0  0
  3  4  1  0  0  0
  3 89  1  0  0  0
  3 90  1  0  0  0
  4  5  1  0  0  0
  4 91  1  0  0  0
  4 92  1  0  0  0
  5  6  1  0  0  0
  5 26  1  0  0  0
  5 93  1  0  0  0
  6 25  1  0  0  0
  6 94  1  0  0  0
  6 95  1  0  0  0
  7  8  2  0  0  0
  7 26  1  0  0  0
  7 29  1  0  0  0
  8  9  1  0  0  0
  8 22  1  0  0  0
  9 10  1  0  0  0
  9 27  2  0  0  0
 10 11  2  0  0  0
 10 15  1  0  0  0
 11 12  1  0  0  0
 11 96  1  0  0  0
 12 13  2  0  0  0
 12 97  1  0  0  0
 13 14  1  0  0  0
 13 31  1  0  0  0
 14 15  2  0  0  0
 14 98  1  0  0  0
 15 99  1  0  0  0
 16 17  2  0  0  0
 16 21  1  0  0  0
 16 31  1  0  0  0
 17 18  1  0  0  0
 17100  1  0  0  0
 18 19  2  0  0  0
 18101  1  0  0  0
 19 20  1  0  0  0
 19 24  1  0  0  0
 20 21  2  0  0  0
 20102  1  0  0  0
 21 23  1  0  0  0
 22 28  1  0  0  0
 22 32  2  0  0  0
 26 27  1  0  0  0
 28103  1  0  0  0
 28104  1  0  0  0
 29105  1  0  0  0
 29106  1  0  0  0
 33 34  1  0  0  0
 33 66  1  0  0  0
 33 70  2  0  0  0
 34 36  1  0  0  0
 34 59  1  0  0  0
 34107  1  0  0  0
 35 44  2  0  0  0
 35 45  1  0  0  0
 35 68  1  0  0  0
 36 56  1  0  0  0
 36108  1  0  0  0
 37 39  1  0  0  0
 37 47  1  0  0  0
 37 66  1  0  0  0
 37109  1  0  0  0
 38 43  2  0  0  0
 38 46  1  0  0  0
 38 47  1  0  0  0
 39 64  1  0  0  0
 39 67  2  0  0  0
 40 52  1  0  0  0
 40 53  2  0  0  0
 40 58  1  0  0  0
 41110  1  0  0  0
 41111  1  0  0  0
 41112  1  0  0  0
 41 48  1  0  0  0
 42 43  1  0  0  0
 42 66  1  0  0  0
 42113  1  0  0  0
 42114  1  0  0  0
 43 44  1  0  0  0
 44115  1  0  0  0
 45 46  2  0  0  0
 45116  1  0  0  0
 46117  1  0  0  0
 47118  1  0  0  0
 47119  1  0  0  0
 48 56  1  0  0  0
 48 65  1  0  0  0
 48120  1  0  0  0
 49 50  1  0  0  0
 49 53  1  0  0  0
 49 64  1  0  0  0
 49121  1  0  0  0
 50 51  1  0  0  0
 50122  1  0  0  0
 50123  1  0  0  0
 51 52  1  0  0  0
 51124  1  0  0  0
 51125  1  0  0  0
 52126  1  0  0  0
 52127  1  0  0  0
 53 54  1  0  0  0
 54 55  2  0  0  0
 54128  1  0  0  0
 55 57  1  0  0  0
 55129  1  0  0  0
 56 69  2  0  0  0
 57 58  2  0  0  0
 57130  1  0  0  0
 58131  1  0  0  0
 59 60  1  0  0  0
 59 61  1  0  0  0
 59 62  1  0  0  0
 60132  1  0  0  0
 60133  1  0  0  0
 60134  1  0  0  0
 61135  1  0  0  0
 61136  1  0  0  0
 61137  1  0  0  0
 62138  1  0  0  0
 62139  1  0  0  0
 62140  1  0  0  0
 63 65  1  0  0  0
 63141  1  0  0  0
 63142  1  0  0  0
 63143  1  0  0  0
 64144  1  0  0  0
 65145  1  0  0  0
 68 80  1  0  0  0
 71 72  2  0  0  0
 71 84  1  0  0  0
 71146  1  0  0  0
 72 73  1  0  0  0
 72 83  1  0  0  0
 73 79  1  0  0  0
 73 82  2  0  0  0
 74 80  1  0  0  0
 74 83  2  0  0  0
 74147  1  0  0  0
 75 77  1  0  0  0
 75 85  1  0  0  0
 75148  1  0  0  0
 75149  1  0  0  0
 76 78  1  0  0  0
 76 85  1  0  0  0
 76150  1  0  0  0
 76151  1  0  0  0
 77 78  1  0  0  0
 77 81  1  0  0  0
 77152  1  0  0  0
 78 84  1  0  0  0
 78153  1  0  0  0
 79154  1  0  0  0
 79155  1  0  0  0
 79156  1  0  0  0
 80157  1  0  0  0
 80158  1  0  0  0
 81 86  1  0  0  0
 81159  1  0  0  0
 81160  1  0  0  0
 82 84  1  0  0  0
 86161  1  0  0  0
 86162  1  0  0  0
 86163  1  0  0  0
M  CHG  1  86   1
M  ISO  4   1 100  68 101  80 101  85 100
M  END
> <chiral flag>
0

> <version>
0

> <s_m_source_file>
/data/baiqing/PycharmProjects/Reinvent-master-3.2/result/LINK_invent/BTK/process_docking_weight1_custom_sum_contain_oxygen_bond_distance_aromatic_linkinvent_7_9_3/rearranged_h_0183.sdf

> <i_m_source_file_index>
25

> <r_mmod_Potential_Energy-OPLS-2005>
10401.2880859375

> <r_mmod_Stretch_Energy-OPLS-2005>
6030.580078125

> <r_mmod_Bend_Energy-OPLS-2005>
963.13623046875

> <r_mmod_Torsional_Energy-OPLS-2005>
512.730773925781

> <r_mmod_Improper_Torsional_Energy-OPLS-2005>
14.8799324035645

> <r_mmod_Van_der_Waal_Energy-OPLS-2005>
2500.58203125

> <r_mmod_Electrostatic_Energy-OPLS-2005>
-313.929504394531

> <r_mmod_Solvation_Energy-OPLS-2005>
-479.571502685547

> <b_mmod_Minimization_Converged-OPLS-2005>
0

> <r_mmod_RMS_Derivative-OPLS-2005>
13.9805612564087

$$$$
25
                    3D
 Structure written by MMmdl.
159168  0  0  1  0            999 V2000
  -30.6009  -14.6135   20.5265 C   0  0  0  0  0  0
  -30.4457  -12.3839   19.4350 C   0  0  0  0  0  0
  -29.5058  -12.5001   18.2138 C   0  0  0  0  0  0
  -28.0290  -12.3332   18.6287 C   0  0  0  0  0  0
  -27.6536  -13.1991   19.8606 C   0  0  2  0  0  0
  -28.6972  -13.0271   20.9867 C   0  0  0  0  0  0
  -25.2571  -13.8120   20.5655 C   0  0  0  0  0  0
  -24.1826  -13.0412   20.9181 C   0  0  0  0  0  0
  -24.6370  -11.6879   20.8735 C   0  0  0  0  0  0
  -23.9035  -10.4277   21.0404 C   0  0  0  0  0  0
  -24.3603   -9.4201   21.9177 C   0  0  0  0  0  0
  -23.6288   -8.2235   22.0758 C   0  0  0  0  0  0
  -22.4268   -8.0268   21.3546 C   0  0  0  0  0  0
  -21.9896   -9.0232   20.4640 C   0  0  0  0  0  0
  -22.7217  -10.2114   20.3045 C   0  0  0  0  0  0
  -21.6851   -6.0728   22.5281 C   0  0  0  0  0  0
  -21.4010   -6.5638   23.8209 C   0  0  0  0  0  0
  -21.3656   -5.6796   24.9174 C   0  0  0  0  0  0
  -21.6046   -4.3055   24.7227 C   0  0  0  0  0  0
  -21.8818   -3.8145   23.4347 C   0  0  0  0  0  0
  -21.9194   -4.6961   22.3406 C   0  0  0  0  0  0
  -22.7856  -13.5221   21.1858 C   0  0  0  0  0  0
  -22.1661   -4.2145   21.0982 F   0  0  0  0  0  0
  -21.5630   -3.4542   25.7741 F   0  0  0  0  0  0
  -30.0121  -13.3833   20.4272 N   0  0  0  0  0  0
  -26.2972  -12.9267   20.3281 N   0  0  0  0  0  0
  -25.9285  -11.6441   20.5733 N   0  0  0  0  0  0
  -22.0493  -12.8202   22.0404 N   0  0  0  0  0  0
  -25.4287  -15.1846   20.4050 N   0  0  0  0  0  0
  -31.7592  -14.8257   20.1562 O   0  0  0  0  0  0
  -21.6637   -6.8864   21.4239 O   0  0  0  0  0  0
  -22.3552  -14.5538   20.6720 O   0  0  0  0  0  0
  -24.6234  -31.8597   23.2044 C   0  0  0  0  0  0
  -25.9100  -32.4782   23.8351 C   0  0  1  0  0  0
  -27.2342  -27.3439   20.1205 C   0  0  0  0  0  0
  -25.5938  -33.8578   24.2279 N   0  0  0  0  0  0
  -23.4151  -30.4820   21.5449 C   0  0  2  0  0  0
  -24.8627  -28.9263   20.1225 C   0  0  0  0  0  0
  -22.7440  -29.4635   22.4952 C   0  0  0  0  0  0
  -18.0273  -28.1404   22.8491 C   0  0  0  0  0  0
  -24.1489  -36.7276   23.2637 C   0  0  0  0  0  0
  -25.9521  -30.7946   21.3731 C   0  0  0  0  0  0
  -26.0260  -29.4186   20.7266 C   0  0  0  0  0  0
  -27.2120  -28.6354   20.7229 C   0  0  0  0  0  0
  -26.0526  -26.8863   19.5022 C   0  0  0  0  0  0
  -24.8743  -27.6608   19.5083 C   0  0  0  0  0  0
  -23.6302  -29.8064   20.1633 C   0  0  0  0  0  0
  -25.4109  -36.3071   24.0330 C   0  0  1  0  0  0
  -20.5872  -28.3689   23.1304 C   0  0  2  0  0  0
  -20.6760  -26.9419   22.5420 C   0  0  0  0  0  0
  -19.5741  -26.6398   21.5216 C   0  0  0  0  0  0
  -18.1913  -26.7964   22.1610 C   0  0  0  0  0  0
  -19.1532  -28.8864   23.2893 C   0  0  0  0  0  0
  -18.9452  -30.1464   23.8912 C   0  0  0  0  0  0
  -17.6453  -30.6601   24.0574 C   0  0  0  0  0  0
  -25.9044  -34.9449   23.5095 C   0  0  0  0  0  0
  -16.5339  -29.9095   23.6353 C   0  0  0  0  0  0
  -16.7265  -28.6520   23.0359 C   0  0  0  0  0  0
  -26.4512  -31.6598   25.0712 C   0  0  0  0  0  0
  -25.3768  -31.3710   26.1455 C   0  0  0  0  0  0
  -27.0371  -30.3041   24.6154 C   0  0  0  0  0  0
  -27.6068  -32.4347   25.7474 C   0  0  0  0  0  0
  -27.5583  -37.1781   24.8457 C   0  0  0  0  0  0
  -21.4167  -29.3042   22.3694 N   0  0  0  0  0  0
  -26.4277  -37.3776   23.9425 N   0  0  0  0  0  0
  -24.6821  -31.0623   22.0981 N   0  0  0  0  0  0
  -23.4177  -28.8159   23.3016 O   0  0  0  0  0  0
  -28.3966  -26.5787   20.0582 O   0  0  0  0  0  0
  -26.5587  -34.8929   22.4651 O   0  0  0  0  0  0
  -23.5402  -32.1371   23.7395 O   0  0  0  0  0  0
  -29.2591  -23.6768   21.6074 C   0  0  0  0  0  0
  -28.4796  -25.2640   20.5424 C   0  0  0  0  0  0
  -28.0346  -19.7285   18.8576 C   0  0  0  0  0  0
  -29.3581  -20.5571   20.6326 C   0  0  0  0  0  0
  -27.8877  -21.2743   18.8857 C   0  0  2  0  0  0
  -28.2900  -21.6746   20.3189 C   0  0  2  0  0  0
  -26.4875  -21.7302   18.4267 C   0  0  0  0  0  0
  -29.8807  -17.0956   21.0956 C   0  0  0  0  0  0
  -29.5864  -18.0248   19.8518 C   0  0  0  0  0  0
  -29.2483  -25.0144   21.6408 N   0  0  0  0  0  0
  -28.1096  -24.1833   19.8284 N   0  0  0  0  0  0
  -28.6318  -23.1223   20.5561 N   0  0  0  0  0  0
  -29.7488  -15.6146   20.8879 N   0  0  0  0  0  0
  -28.7725  -19.2925   20.0734 N   0  3  2  0  0  0
  -31.4827  -12.5342   19.1287 H   0  0  0  0  0  0
  -30.4011  -11.3812   19.8633 H   0  0  0  0  0  0
  -29.7685  -11.7523   17.4644 H   0  0  0  0  0  0
  -29.6430  -13.4707   17.7359 H   0  0  0  0  0  0
  -27.8669  -11.2791   18.8586 H   0  0  0  0  0  0
  -27.3714  -12.5627   17.7893 H   0  0  0  0  0  0
  -27.6778  -14.2355   19.5267 H   0  0  0  0  0  0
  -28.7094  -11.9960   21.3426 H   0  0  0  0  0  0
  -28.4411  -13.6327   21.8572 H   0  0  0  0  0  0
  -25.2751   -9.5689   22.4745 H   0  0  0  0  0  0
  -24.0007   -7.4628   22.7476 H   0  0  0  0  0  0
  -21.0835   -8.8727   19.8942 H   0  0  0  0  0  0
  -22.3667  -10.9641   19.6150 H   0  0  0  0  0  0
  -21.1995   -7.6147   23.9711 H   0  0  0  0  0  0
  -21.1479   -6.0525   25.9076 H   0  0  0  0  0  0
  -22.0601   -2.7608   23.2850 H   0  0  0  0  0  0
  -22.4110  -11.9849   22.4766 H   0  0  0  0  0  0
  -21.1095  -13.1200   22.2586 H   0  0  0  0  0  0
  -24.6524  -15.8306   20.4995 H   0  0  0  0  0  0
  -26.2603  -15.6187   20.0289 H   0  0  0  0  0  0
  -26.7160  -32.5458   23.1086 H   0  0  0  0  0  0
  -25.0175  -33.9737   25.0488 H   0  0  0  0  0  0
  -22.7095  -31.3026   21.3981 H   0  0  0  0  0  0
  -23.3769  -35.9590   23.3270 H   0  0  0  0  0  0
  -24.3590  -36.8927   22.2060 H   0  0  0  0  0  0
  -23.7228  -37.6462   23.6680 H   0  0  0  0  0  0
  -26.0745  -31.5539   20.5995 H   0  0  0  0  0  0
  -26.8366  -30.8501   21.9965 H   0  0  0  0  0  0
  -28.1126  -29.0144   21.1857 H   0  0  0  0  0  0
  -26.0422  -25.9231   19.0108 H   0  0  0  0  0  0
  -23.9820  -27.2773   19.0344 H   0  0  0  0  0  0
  -23.7497  -30.5787   19.4026 H   0  0  0  0  0  0
  -22.7503  -29.2358   19.8614 H   0  0  0  0  0  0
  -25.1288  -36.1901   25.0818 H   0  0  0  0  0  0
  -20.9968  -28.3260   24.1422 H   0  0  0  0  0  0
  -20.5680  -26.2288   23.3603 H   0  0  0  0  0  0
  -21.6615  -26.7461   22.1188 H   0  0  0  0  0  0
  -19.6886  -25.6307   21.1241 H   0  0  0  0  0  0
  -19.6689  -27.3220   20.6756 H   0  0  0  0  0  0
  -17.4186  -26.6751   21.4004 H   0  0  0  0  0  0
  -18.0272  -26.0105   22.8994 H   0  0  0  0  0  0
  -19.7924  -30.7287   24.2280 H   0  0  0  0  0  0
  -17.5005  -31.6298   24.5146 H   0  0  0  0  0  0
  -15.5342  -30.2984   23.7718 H   0  0  0  0  0  0
  -15.8657  -28.0855   22.7065 H   0  0  0  0  0  0
  -24.5958  -30.7040   25.7799 H   0  0  0  0  0  0
  -24.8942  -32.2866   26.4893 H   0  0  0  0  0  0
  -25.8125  -30.8895   27.0221 H   0  0  0  0  0  0
  -26.2933  -29.6761   24.1249 H   0  0  0  0  0  0
  -27.4172  -29.7330   25.4632 H   0  0  0  0  0  0
  -27.8755  -30.4347   23.9305 H   0  0  0  0  0  0
  -27.2683  -33.3667   26.2015 H   0  0  0  0  0  0
  -28.3900  -32.6881   25.0314 H   0  0  0  0  0  0
  -28.0725  -31.8503   26.5422 H   0  0  0  0  0  0
  -28.2550  -38.0124   24.7553 H   0  0  0  0  0  0
  -28.1123  -36.2657   24.6202 H   0  0  0  0  0  0
  -27.2312  -37.1329   25.8859 H   0  0  0  0  0  0
  -20.9326  -29.8765   21.6915 H   0  0  0  0  0  0
  -26.0150  -38.2838   24.1470 H   0  0  0  0  0  0
  -29.7201  -23.0804   22.3828 H   0  0  0  0  0  0
  -28.5614  -19.4323   17.9492 H   0  0  0  0  0  0
  -27.0663  -19.2269   18.8385 H   0  0  0  0  0  0
  -29.5603  -20.4637   21.7002 H   0  0  0  0  0  0
  -30.3018  -20.7768   20.1295 H   0  0  0  0  0  0
  -28.6284  -21.6939   18.2018 H   0  0  0  0  0  0
  -27.4359  -21.4742   20.9688 H   0  0  0  0  0  0
  -25.7105  -21.3794   19.1067 H   0  0  0  0  0  0
  -26.2582  -21.3371   17.4350 H   0  0  0  0  0  0
  -26.4071  -22.8150   18.3649 H   0  0  0  0  0  0
  -29.1819  -17.3446   21.8945 H   0  0  0  0  0  0
  -30.8701  -17.3197   21.4967 H   0  0  0  0  0  0
  -29.0252  -17.4169   19.1403 H   0  0  0  0  0  0
  -30.5175  -18.2735   19.3411 H   0  0  0  0  0  0
  -28.8320  -15.2588   21.1136 H   0  0  0  0  0  0
  -28.0426  -19.0313   20.7188 H   0  0  0  0  0  0
  1 25  1  0  0  0
  1 30  2  0  0  0
  1 83  1  0  0  0
  2  3  1  0  0  0
  2 25  1  0  0  0
  2 85  1  0  0  0
  2 86  1  0  0  0
  3  4  1  0  0  0
  3 87  1  0  0  0
  3 88  1  0  0  0
  4  5  1  0  0  0
  4 89  1  0  0  0
  4 90  1  0  0  0
  5  6  1  0  0  0
  5 26  1  0  0  0
  5 91  1  0  0  0
  6 25  1  0  0  0
  6 92  1  0  0  0
  6 93  1  0  0  0
  7  8  2  0  0  0
  7 26  1  0  0  0
  7 29  1  0  0  0
  8  9  1  0  0  0
  8 22  1  0  0  0
  9 10  1  0  0  0
  9 27  2  0  0  0
 10 11  2  0  0  0
 10 15  1  0  0  0
 11 12  1  0  0  0
 11 94  1  0  0  0
 12 13  2  0  0  0
 12 95  1  0  0  0
 13 14  1  0  0  0
 13 31  1  0  0  0
 14 15  2  0  0  0
 14 96  1  0  0  0
 15 97  1  0  0  0
 16 17  2  0  0  0
 16 21  1  0  0  0
 16 31  1  0  0  0
 17 18  1  0  0  0
 17 98  1  0  0  0
 18 19  2  0  0  0
 18 99  1  0  0  0
 19 20  1  0  0  0
 19 24  1  0  0  0
 20 21  2  0  0  0
 20100  1  0  0  0
 21 23  1  0  0  0
 22 28  1  0  0  0
 22 32  2  0  0  0
 26 27  1  0  0  0
 28101  1  0  0  0
 28102  1  0  0  0
 29103  1  0  0  0
 29104  1  0  0  0
 33 34  1  0  0  0
 33 66  1  0  0  0
 33 70  2  0  0  0
 34 36  1  0  0  0
 34 59  1  0  0  0
 34105  1  0  0  0
 35 44  2  0  0  0
 35 45  1  0  0  0
 35 68  1  0  0  0
 36 56  1  0  0  0
 36106  1  0  0  0
 37 39  1  0  0  0
 37 47  1  0  0  0
 37 66  1  0  0  0
 37107  1  0  0  0
 38 43  2  0  0  0
 38 46  1  0  0  0
 38 47  1  0  0  0
 39 64  1  0  0  0
 39 67  2  0  0  0
 40 52  1  0  0  0
 40 53  2  0  0  0
 40 58  1  0  0  0
 41108  1  0  0  0
 41109  1  0  0  0
 41110  1  0  0  0
 41 48  1  0  0  0
 42 43  1  0  0  0
 42 66  1  0  0  0
 42111  1  0  0  0
 42112  1  0  0  0
 43 44  1  0  0  0
 44113  1  0  0  0
 45 46  2  0  0  0
 45114  1  0  0  0
 46115  1  0  0  0
 47116  1  0  0  0
 47117  1  0  0  0
 48 56  1  0  0  0
 48 65  1  0  0  0
 48118  1  0  0  0
 49 50  1  0  0  0
 49 53  1  0  0  0
 49 64  1  0  0  0
 49119  1  0  0  0
 50 51  1  0  0  0
 50120  1  0  0  0
 50121  1  0  0  0
 51 52  1  0  0  0
 51122  1  0  0  0
 51123  1  0  0  0
 52124  1  0  0  0
 52125  1  0  0  0
 53 54  1  0  0  0
 54 55  2  0  0  0
 54126  1  0  0  0
 55 57  1  0  0  0
 55127  1  0  0  0
 56 69  2  0  0  0
 57 58  2  0  0  0
 57128  1  0  0  0
 58129  1  0  0  0
 59 60  1  0  0  0
 59 61  1  0  0  0
 59 62  1  0  0  0
 60130  1  0  0  0
 60131  1  0  0  0
 60132  1  0  0  0
 61133  1  0  0  0
 61134  1  0  0  0
 61135  1  0  0  0
 62136  1  0  0  0
 62137  1  0  0  0
 62138  1  0  0  0
 63 65  1  0  0  0
 63139  1  0  0  0
 63140  1  0  0  0
 63141  1  0  0  0
 64142  1  0  0  0
 65143  1  0  0  0
 68 72  1  0  0  0
 71 80  2  0  0  0
 71 82  1  0  0  0
 71144  1  0  0  0
 72 80  1  0  0  0
 72 81  2  0  0  0
 73 75  1  0  0  0
 73 84  1  0  0  0
 73145  1  0  0  0
 73146  1  0  0  0
 74 76  1  0  0  0
 74 84  1  0  0  0
 74147  1  0  0  0
 74148  1  0  0  0
 75 76  1  0  0  0
 75 77  1  0  0  0
 75149  1  0  0  0
 76 82  1  0  0  0
 76150  1  0  0  0
 77151  1  0  0  0
 77152  1  0  0  0
 77153  1  0  0  0
 78 79  1  0  0  0
 78 83  1  0  0  0
 78154  1  0  0  0
 78155  1  0  0  0
 79156  1  0  0  0
 79157  1  0  0  0
 79 84  1  0  0  0
 81 82  1  0  0  0
 83158  1  0  0  0
 84159  1  0  0  0
M  CHG  1  84   1
M  ISO  4   1 100  68 101  72 101  83 100
M  END
> <chiral flag>
0

> <version>
0

> <s_m_source_file>
/data/baiqing/PycharmProjects/Reinvent-master-3.2/result/LINK_invent/BTK/process_docking_weight1_custom_sum_contain_oxygen_bond_distance_aromatic_linkinvent_7_9_3/rearranged_h_0183.sdf

> <i_m_source_file_index>
26

> <r_mmod_Potential_Energy-OPLS-2005>
-18.4971313476562

> <r_mmod_Stretch_Energy-OPLS-2005>
64.2159194946289

> <r_mmod_Bend_Energy-OPLS-2005>
185.782348632812

> <r_mmod_Torsional_Energy-OPLS-2005>
324.761505126953

> <r_mmod_Improper_Torsional_Energy-OPLS-2005>
8.08690547943115

> <r_mmod_Van_der_Waal_Energy-OPLS-2005>
111.25528717041

> <r_mmod_Electrostatic_Energy-OPLS-2005>
-241.039154052734

> <r_mmod_Solvation_Energy-OPLS-2005>
-508.606506347656

> <b_mmod_Minimization_Converged-OPLS-2005>
0

> <r_mmod_RMS_Derivative-OPLS-2005>
1.81737458705902

$$$$
26
                    3D
 Structure written by MMmdl.
154163  0  0  1  0            999 V2000
  -30.4630  -15.0276   20.3819 C   0  0  0  0  0  0
  -30.4432  -12.6356   19.4899 C   0  0  0  0  0  0
  -29.5204  -12.5177   18.2537 C   0  0  0  0  0  0
  -28.0553  -12.2948   18.6758 C   0  0  0  0  0  0
  -27.6203  -13.2394   19.8252 C   0  0  2  0  0  0
  -28.6611  -13.2886   20.9617 C   0  0  0  0  0  0
  -25.2430  -13.8174   20.5700 C   0  0  0  0  0  0
  -24.1760  -13.0430   20.9242 C   0  0  0  0  0  0
  -24.6347  -11.6901   20.8753 C   0  0  0  0  0  0
  -23.9036  -10.4281   21.0394 C   0  0  0  0  0  0
  -24.3600   -9.4211   21.9190 C   0  0  0  0  0  0
  -23.6280   -8.2246   22.0762 C   0  0  0  0  0  0
  -22.4261   -8.0280   21.3555 C   0  0  0  0  0  0
  -21.9890   -9.0239   20.4649 C   0  0  0  0  0  0
  -22.7200  -10.2120   20.3046 C   0  0  0  0  0  0
  -21.6852   -6.0722   22.5273 C   0  0  0  0  0  0
  -21.4010   -6.5632   23.8205 C   0  0  0  0  0  0
  -21.3657   -5.6792   24.9172 C   0  0  0  0  0  0
  -21.6045   -4.3055   24.7239 C   0  0  0  0  0  0
  -21.8821   -3.8141   23.4364 C   0  0  0  0  0  0
  -21.9195   -4.6948   22.3410 C   0  0  0  0  0  0
  -22.7786  -13.5202   21.1930 C   0  0  0  0  0  0
  -22.1665   -4.2136   21.0986 F   0  0  0  0  0  0
  -21.5632   -3.4540   25.7750 F   0  0  0  0  0  0
  -29.9228  -13.7363   20.3575 N   0  0  0  0  0  0
  -26.2824  -12.9393   20.3166 N   0  0  0  0  0  0
  -25.9263  -11.6539   20.5696 N   0  0  0  0  0  0
  -22.0417  -12.8186   22.0449 N   0  0  0  0  0  0
  -25.4119  -15.1918   20.4121 N   0  0  0  0  0  0
  -31.6778  -15.1070   20.1492 O   0  0  0  0  0  0
  -21.6648   -6.8863   21.4233 O   0  0  0  0  0  0
  -22.3495  -14.5522   20.6763 O   0  0  0  0  0  0
  -24.6468  -31.8331   23.1750 C   0  0  0  0  0  0
  -25.9227  -32.4622   23.8141 C   0  0  1  0  0  0
  -27.2286  -27.0723   20.1443 C   0  0  0  0  0  0
  -25.5960  -33.8429   24.2056 N   0  0  0  0  0  0
  -23.4512  -30.4409   21.5244 C   0  0  2  0  0  0
  -24.9047  -28.8434   20.1062 C   0  0  0  0  0  0
  -22.7569  -29.4488   22.4876 C   0  0  0  0  0  0
  -18.0301  -28.1416   22.8372 C   0  0  0  0  0  0
  -24.1495  -36.7228   23.2642 C   0  0  0  0  0  0
  -26.0119  -30.6776   21.3876 C   0  0  0  0  0  0
  -26.0806  -29.2843   20.7264 C   0  0  0  0  0  0
  -27.2368  -28.4121   20.7278 C   0  0  0  0  0  0
  -26.0348  -26.7436   19.4778 C   0  0  0  0  0  0
  -24.8987  -27.5904   19.4650 C   0  0  0  0  0  0
  -23.6776  -29.7444   20.1526 C   0  0  0  0  0  0
  -25.4146  -36.2971   24.0281 C   0  0  1  0  0  0
  -20.5890  -28.3791   23.1271 C   0  0  2  0  0  0
  -20.6878  -26.9522   22.5376 C   0  0  0  0  0  0
  -19.5909  -26.6452   21.5132 C   0  0  0  0  0  0
  -18.2022  -26.8000   22.1449 C   0  0  0  0  0  0
  -19.1511  -28.8925   23.2822 C   0  0  0  0  0  0
  -18.9371  -30.1523   23.8845 C   0  0  0  0  0  0
  -17.6334  -30.6548   24.0558 C   0  0  0  0  0  0
  -25.9112  -34.9367   23.4988 C   0  0  0  0  0  0
  -16.5277  -29.9039   23.6227 C   0  0  0  0  0  0
  -16.7265  -28.6526   23.0120 C   0  0  0  0  0  0
  -26.4528  -31.6551   25.0642 C   0  0  0  0  0  0
  -25.3687  -31.3809   26.1317 C   0  0  0  0  0  0
  -27.0417  -30.2922   24.6336 C   0  0  0  0  0  0
  -27.6004  -32.4353   25.7470 C   0  0  0  0  0  0
  -27.5566  -37.1766   24.8464 C   0  0  0  0  0  0
  -21.4239  -29.3126   22.3684 N   0  0  0  0  0  0
  -26.4277  -37.3712   23.9401 N   0  0  0  0  0  0
  -24.7229  -31.0094   22.0828 N   0  0  0  0  0  0
  -23.4207  -28.8043   23.3027 O   0  0  0  0  0  0
  -28.2896  -26.0894   20.2716 O   0  0  0  0  0  0
  -26.5710  -34.8892   22.4567 O   0  0  0  0  0  0
  -23.5578  -32.1237   23.6967 O   0  0  0  0  0  0
  -28.6033  -18.6912   20.5120 C   0  0  0  0  0  0
  -30.3277  -19.8712   20.1180 C   0  0  0  0  0  0
  -29.6552  -17.7283   20.3516 C   0  0  0  0  0  0
  -26.6872  -21.2182   20.2964 C   0  0  0  0  0  0
  -26.7108  -22.5501   19.5477 C   0  0  0  0  0  0
  -28.1650  -21.4010   20.6799 C   0  0  1  0  0  0
  -27.8032  -23.1212   20.4712 C   0  0  2  0  0  0
  -27.2473  -23.7011   21.7847 C   0  0  0  0  0  0
  -28.4259  -24.5690   19.8129 C   0  0  0  0  0  0
  -30.7545  -18.5686   20.0859 N   0  0  0  0  0  0
  -29.0111  -20.0991   20.3515 N   0  0  0  0  0  0
  -29.5945  -16.1749   20.4702 N   0  0  0  0  0  0
  -31.4683  -12.8232   19.1668 H   0  0  0  0  0  0
  -30.4691  -11.6926   20.0374 H   0  0  0  0  0  0
  -29.8514  -11.6949   17.6183 H   0  0  0  0  0  0
  -29.5961  -13.4199   17.6440 H   0  0  0  0  0  0
  -27.9631  -11.2581   18.9999 H   0  0  0  0  0  0
  -27.3885  -12.4060   17.8196 H   0  0  0  0  0  0
  -27.5751  -14.2325   19.3795 H   0  0  0  0  0  0
  -28.7723  -12.3114   21.4324 H   0  0  0  0  0  0
  -28.3460  -13.9768   21.7479 H   0  0  0  0  0  0
  -25.2740   -9.5716   22.4785 H   0  0  0  0  0  0
  -24.0001   -7.4635   22.7480 H   0  0  0  0  0  0
  -21.0828   -8.8734   19.8954 H   0  0  0  0  0  0
  -22.3636  -10.9667   19.6174 H   0  0  0  0  0  0
  -21.1990   -7.6141   23.9710 H   0  0  0  0  0  0
  -21.1479   -6.0521   25.9075 H   0  0  0  0  0  0
  -22.0600   -2.7605   23.2864 H   0  0  0  0  0  0
  -22.4016  -11.9834   22.4855 H   0  0  0  0  0  0
  -21.1030  -13.1226   22.2638 H   0  0  0  0  0  0
  -24.6380  -15.8349   20.5342 H   0  0  0  0  0  0
  -26.2294  -15.6327   20.0148 H   0  0  0  0  0  0
  -26.7274  -32.5136   23.0825 H   0  0  0  0  0  0
  -25.0027  -33.9508   25.0144 H   0  0  0  0  0  0
  -22.7597  -31.2688   21.3531 H   0  0  0  0  0  0
  -23.3738  -35.9572   23.3297 H   0  0  0  0  0  0
  -24.3579  -36.8885   22.2060 H   0  0  0  0  0  0
  -23.7272  -37.6419   23.6719 H   0  0  0  0  0  0
  -26.1795  -31.4266   20.6144 H   0  0  0  0  0  0
  -26.8764  -30.7250   22.0373 H   0  0  0  0  0  0
  -28.1279  -28.7392   21.2451 H   0  0  0  0  0  0
  -25.9596  -25.7757   19.0042 H   0  0  0  0  0  0
  -24.0048  -27.2391   18.9678 H   0  0  0  0  0  0
  -23.8091  -30.5079   19.3892 H   0  0  0  0  0  0
  -22.7936  -29.1808   19.8474 H   0  0  0  0  0  0
  -25.1344  -36.1749   25.0772 H   0  0  0  0  0  0
  -20.9958  -28.3429   24.1417 H   0  0  0  0  0  0
  -20.5847  -26.2311   23.3510 H   0  0  0  0  0  0
  -21.6774  -26.7676   22.1167 H   0  0  0  0  0  0
  -19.7106  -25.6351   21.1171 H   0  0  0  0  0  0
  -19.6893  -27.3279   20.6645 H   0  0  0  0  0  0
  -17.4437  -26.6908   21.3679 H   0  0  0  0  0  0
  -18.0260  -26.0088   22.8758 H   0  0  0  0  0  0
  -19.7782  -30.7444   24.2215 H   0  0  0  0  0  0
  -17.4777  -31.6148   24.5302 H   0  0  0  0  0  0
  -15.5251  -30.2888   23.7538 H   0  0  0  0  0  0
  -15.8706  -28.0941   22.6559 H   0  0  0  0  0  0
  -24.5852  -30.7178   25.7642 H   0  0  0  0  0  0
  -24.8894  -32.3029   26.4627 H   0  0  0  0  0  0
  -25.7937  -30.9044   27.0154 H   0  0  0  0  0  0
  -26.3073  -29.6609   24.1327 H   0  0  0  0  0  0
  -27.3951  -29.7283   25.4976 H   0  0  0  0  0  0
  -27.9007  -30.4103   23.9726 H   0  0  0  0  0  0
  -27.2539  -33.3661   26.1965 H   0  0  0  0  0  0
  -28.3890  -32.6897   25.0385 H   0  0  0  0  0  0
  -28.0584  -31.8527   26.5465 H   0  0  0  0  0  0
  -28.2566  -38.0072   24.7494 H   0  0  0  0  0  0
  -28.1063  -36.2596   24.6304 H   0  0  0  0  0  0
  -27.2286  -37.1444   25.8864 H   0  0  0  0  0  0
  -20.9449  -29.8934   21.6932 H   0  0  0  0  0  0
  -26.0114  -38.2756   24.1399 H   0  0  0  0  0  0
  -27.5740  -18.4874   20.7736 H   0  0  0  0  0  0
  -31.0227  -20.6942   20.0217 H   0  0  0  0  0  0
  -26.4648  -20.3872   19.6274 H   0  0  0  0  0  0
  -26.0143  -21.1986   21.1555 H   0  0  0  0  0  0
  -25.7608  -23.0840   19.5632 H   0  0  0  0  0  0
  -27.0498  -22.4315   18.5164 H   0  0  0  0  0  0
  -28.2365  -21.3298   21.7660 H   0  0  0  0  0  0
  -26.8173  -22.9382   22.4303 H   0  0  0  0  0  0
  -26.4627  -24.4361   21.6005 H   0  0  0  0  0  0
  -28.0206  -24.1966   22.3686 H   0  0  0  0  0  0
  -28.1827  -24.5889   18.7518 H   0  0  0  0  0  0
  -29.5051  -24.4249   19.7972 H   0  0  0  0  0  0
  -28.6491  -15.8542   20.6159 H   0  0  0  0  0  0
  1 25  1  0  0  0
  1 30  2  0  0  0
  1 82  1  0  0  0
  2  3  1  0  0  0
  2 25  1  0  0  0
  2 83  1  0  0  0
  2 84  1  0  0  0
  3  4  1  0  0  0
  3 85  1  0  0  0
  3 86  1  0  0  0
  4  5  1  0  0  0
  4 87  1  0  0  0
  4 88  1  0  0  0
  5  6  1  0  0  0
  5 26  1  0  0  0
  5 89  1  0  0  0
  6 25  1  0  0  0
  6 90  1  0  0  0
  6 91  1  0  0  0
  7  8  2  0  0  0
  7 26  1  0  0  0
  7 29  1  0  0  0
  8  9  1  0  0  0
  8 22  1  0  0  0
  9 10  1  0  0  0
  9 27  2  0  0  0
 10 11  2  0  0  0
 10 15  1  0  0  0
 11 12  1  0  0  0
 11 92  1  0  0  0
 12 13  2  0  0  0
 12 93  1  0  0  0
 13 14  1  0  0  0
 13 31  1  0  0  0
 14 15  2  0  0  0
 14 94  1  0  0  0
 15 95  1  0  0  0
 16 17  2  0  0  0
 16 21  1  0  0  0
 16 31  1  0  0  0
 17 18  1  0  0  0
 17 96  1  0  0  0
 18 19  2  0  0  0
 18 97  1  0  0  0
 19 20  1  0  0  0
 19 24  1  0  0  0
 20 21  2  0  0  0
 20 98  1  0  0  0
 21 23  1  0  0  0
 22 28  1  0  0  0
 22 32  2  0  0  0
 26 27  1  0  0  0
 28 99  1  0  0  0
 28100  1  0  0  0
 29101  1  0  0  0
 29102  1  0  0  0
 33 34  1  0  0  0
 33 66  1  0  0  0
 33 70  2  0  0  0
 34 36  1  0  0  0
 34 59  1  0  0  0
 34103  1  0  0  0
 35 44  2  0  0  0
 35 45  1  0  0  0
 35 68  1  0  0  0
 36 56  1  0  0  0
 36104  1  0  0  0
 37 39  1  0  0  0
 37 47  1  0  0  0
 37 66  1  0  0  0
 37105  1  0  0  0
 38 43  2  0  0  0
 38 46  1  0  0  0
 38 47  1  0  0  0
 39 64  1  0  0  0
 39 67  2  0  0  0
 40 52  1  0  0  0
 40 53  2  0  0  0
 40 58  1  0  0  0
 41106  1  0  0  0
 41107  1  0  0  0
 41108  1  0  0  0
 41 48  1  0  0  0
 42 43  1  0  0  0
 42 66  1  0  0  0
 42109  1  0  0  0
 42110  1  0  0  0
 43 44  1  0  0  0
 44111  1  0  0  0
 45 46  2  0  0  0
 45112  1  0  0  0
 46113  1  0  0  0
 47114  1  0  0  0
 47115  1  0  0  0
 48 56  1  0  0  0
 48 65  1  0  0  0
 48116  1  0  0  0
 49 50  1  0  0  0
 49 53  1  0  0  0
 49 64  1  0  0  0
 49117  1  0  0  0
 50 51  1  0  0  0
 50118  1  0  0  0
 50119  1  0  0  0
 51 52  1  0  0  0
 51120  1  0  0  0
 51121  1  0  0  0
 52122  1  0  0  0
 52123  1  0  0  0
 53 54  1  0  0  0
 54 55  2  0  0  0
 54124  1  0  0  0
 55 57  1  0  0  0
 55125  1  0  0  0
 56 69  2  0  0  0
 57 58  2  0  0  0
 57126  1  0  0  0
 58127  1  0  0  0
 59 60  1  0  0  0
 59 61  1  0  0  0
 59 62  1  0  0  0
 60128  1  0  0  0
 60129  1  0  0  0
 60130  1  0  0  0
 61131  1  0  0  0
 61132  1  0  0  0
 61133  1  0  0  0
 62134  1  0  0  0
 62135  1  0  0  0
 62136  1  0  0  0
 63 65  1  0  0  0
 63137  1  0  0  0
 63138  1  0  0  0
 63139  1  0  0  0
 64140  1  0  0  0
 65141  1  0  0  0
 68 79  1  0  0  0
 71 73  2  0  0  0
 71 81  1  0  0  0
 71142  1  0  0  0
 72 80  2  0  0  0
 72 81  1  0  0  0
 72143  1  0  0  0
 73 80  1  0  0  0
 73 82  1  0  0  0
 74 75  1  0  0  0
 74 76  1  0  0  0
 74144  1  0  0  0
 74145  1  0  0  0
 75 77  1  0  0  0
 75146  1  0  0  0
 75147  1  0  0  0
 76 77  1  0  0  0
 76 81  1  0  0  0
 76148  1  0  0  0
 77 78  1  0  0  0
 77 79  1  0  0  0
 78149  1  0  0  0
 78150  1  0  0  0
 78151  1  0  0  0
 79152  1  0  0  0
 79153  1  0  0  0
 82154  1  0  0  0
M  ISO  4   1 100  68 101  79 101  82 100
M  END
> <chiral flag>
0

> <version>
0

> <s_m_source_file>
/data/baiqing/PycharmProjects/Reinvent-master-3.2/result/LINK_invent/BTK/process_docking_weight1_custom_sum_contain_oxygen_bond_distance_aromatic_linkinvent_7_9_3/rearranged_h_0183.sdf

> <i_m_source_file_index>
27

> <r_mmod_Potential_Energy-OPLS-2005>
862.682678222656

> <r_mmod_Stretch_Energy-OPLS-2005>
346.018371582031

> <r_mmod_Bend_Energy-OPLS-2005>
478.120788574219

> <r_mmod_Torsional_Energy-OPLS-2005>
250.460220336914

> <r_mmod_Improper_Torsional_Energy-OPLS-2005>
7.00147438049316

> <r_mmod_Van_der_Waal_Energy-OPLS-2005>
107.022521972656

> <r_mmod_Electrostatic_Energy-OPLS-2005>
-343.331268310547

> <r_mmod_Solvation_Energy-OPLS-2005>
-238.117294311523

> <b_mmod_Minimization_Converged-OPLS-2005>
0

> <r_mmod_RMS_Derivative-OPLS-2005>
4.33979368209839

$$$$
27
                    3D
 Structure written by MMmdl.
169178  0  0  1  0            999 V2000
  -30.7221  -14.6063   20.4818 C   0  0  0  0  0  0
  -30.3986  -12.3659   19.4754 C   0  0  0  0  0  0
  -29.4895  -12.4861   18.2372 C   0  0  0  0  0  0
  -28.0185  -12.3201   18.6522 C   0  0  0  0  0  0
  -27.6332  -13.2164   19.8553 C   0  0  2  0  0  0
  -28.6787  -13.1795   20.9931 C   0  0  0  0  0  0
  -25.2480  -13.8147   20.5691 C   0  0  0  0  0  0
  -24.1761  -13.0411   20.9220 C   0  0  0  0  0  0
  -24.6352  -11.6902   20.8775 C   0  0  0  0  0  0
  -23.9047  -10.4280   21.0437 C   0  0  0  0  0  0
  -24.3601   -9.4202   21.9211 C   0  0  0  0  0  0
  -23.6291   -8.2230   22.0754 C   0  0  0  0  0  0
  -22.4273   -8.0263   21.3538 C   0  0  0  0  0  0
  -21.9913   -9.0249   20.4650 C   0  0  0  0  0  0
  -22.7226  -10.2137   20.3089 C   0  0  0  0  0  0
  -21.6847   -6.0730   22.5272 C   0  0  0  0  0  0
  -21.4009   -6.5643   23.8197 C   0  0  0  0  0  0
  -21.3669   -5.6810   24.9176 C   0  0  0  0  0  0
  -21.6069   -4.3077   24.7233 C   0  0  0  0  0  0
  -21.8818   -3.8145   23.4351 C   0  0  0  0  0  0
  -21.9185   -4.6960   22.3396 C   0  0  0  0  0  0
  -22.7800  -13.5215   21.1902 C   0  0  0  0  0  0
  -22.1664   -4.2132   21.0984 F   0  0  0  0  0  0
  -21.5637   -3.4572   25.7750 F   0  0  0  0  0  0
  -30.0005  -13.4407   20.4107 N   0  0  0  0  0  0
  -26.2883  -12.9329   20.3348 N   0  0  0  0  0  0
  -25.9269  -11.6489   20.5793 N   0  0  0  0  0  0
  -22.0468  -12.8179   22.0478 N   0  0  0  0  0  0
  -25.4214  -15.1845   20.4016 N   0  0  0  0  0  0
  -31.8881  -14.6326   20.0853 O   0  0  0  0  0  0
  -21.6628   -6.8876   21.4227 O   0  0  0  0  0  0
  -22.3488  -14.5519   20.6760 O   0  0  0  0  0  0
  -24.6234  -31.8609   23.2040 C   0  0  0  0  0  0
  -25.9086  -32.4789   23.8369 C   0  0  1  0  0  0
  -27.2184  -27.3551   20.1322 C   0  0  0  0  0  0
  -25.5914  -33.8586   24.2301 N   0  0  0  0  0  0
  -23.4147  -30.4841   21.5441 C   0  0  2  0  0  0
  -24.8595  -28.9365   20.1177 C   0  0  0  0  0  0
  -22.7466  -29.4632   22.4950 C   0  0  0  0  0  0
  -18.0293  -28.1376   22.8477 C   0  0  0  0  0  0
  -24.1498  -36.7311   23.2635 C   0  0  0  0  0  0
  -25.9492  -30.8063   21.3671 C   0  0  0  0  0  0
  -26.0243  -29.4322   20.7184 C   0  0  0  0  0  0
  -27.2117  -28.6513   20.7162 C   0  0  0  0  0  0
  -26.0387  -26.8942   19.5142 C   0  0  0  0  0  0
  -24.8659  -27.6727   19.5043 C   0  0  0  0  0  0
  -23.6284  -29.8152   20.1604 C   0  0  0  0  0  0
  -25.4121  -36.3089   24.0333 C   0  0  1  0  0  0
  -20.5883  -28.3706   23.1290 C   0  0  2  0  0  0
  -20.6790  -26.9428   22.5422 C   0  0  0  0  0  0
  -19.5769  -26.6350   21.5232 C   0  0  0  0  0  0
  -18.1941  -26.7899   22.1642 C   0  0  0  0  0  0
  -19.1530  -28.8861   23.2861 C   0  0  0  0  0  0
  -18.9442  -30.1462   23.8877 C   0  0  0  0  0  0
  -17.6435  -30.6564   24.0545 C   0  0  0  0  0  0
  -25.9052  -34.9455   23.5114 C   0  0  0  0  0  0
  -16.5336  -29.9058   23.6296 C   0  0  0  0  0  0
  -16.7274  -28.6486   23.0324 C   0  0  0  0  0  0
  -26.4480  -31.6576   25.0719 C   0  0  0  0  0  0
  -25.3723  -31.3693   26.1458 C   0  0  0  0  0  0
  -27.0323  -30.3013   24.6109 C   0  0  0  0  0  0
  -27.6048  -32.4311   25.7478 C   0  0  0  0  0  0
  -27.5586  -37.1812   24.8463 C   0  0  0  0  0  0
  -21.4187  -29.3059   22.3695 N   0  0  0  0  0  0
  -26.4297  -37.3781   23.9401 N   0  0  0  0  0  0
  -24.6801  -31.0678   22.0961 N   0  0  0  0  0  0
  -23.4204  -28.8168   23.3017 O   0  0  0  0  0  0
  -28.3384  -26.5350   20.1456 O   0  0  0  0  0  0
  -26.5613  -34.8902   22.4671 O   0  0  0  0  0  0
  -23.5417  -32.1361   23.7416 O   0  0  0  0  0  0
  -29.0723  -16.5690   20.1170 C   0  0  0  0  0  0
  -30.3723  -18.2065   21.9342 C   0  0  0  0  0  0
  -30.1337  -15.9828   20.8566 C   0  0  0  0  0  0
  -29.2894  -18.7838   21.2244 C   0  0  0  0  0  0
  -28.6274  -17.9150   20.3005 C   0  0  0  0  0  0
  -30.7914  -16.8585   21.7712 C   0  0  0  0  0  0
  -27.8095  -20.1146   22.7631 C   0  0  0  0  0  0
  -26.7896  -21.3648   21.1618 C   0  0  0  0  0  0
  -28.8681  -20.2430   21.6501 C   0  0  2  0  0  0
  -28.2566  -21.3607   20.7026 C   0  0  2  0  0  0
  -27.4194  -18.3589   19.4925 C   0  0  0  0  0  0
  -32.0002  -16.4053   22.5774 C   0  0  0  0  0  0
  -25.6677  -21.0934   23.2945 C   0  0  0  0  0  0
  -28.3405  -23.9204   20.1479 C   0  0  0  0  0  0
  -28.2321  -25.2930   20.9176 C   0  0  0  0  0  0
  -26.9468  -21.2826   22.6135 N   0  0  0  0  0  0
  -28.7632  -22.7489   21.0118 N   0  3  0  0  0  0
  -31.4469  -12.4206   19.1793 H   0  0  0  0  0  0
  -30.2802  -11.3900   19.9492 H   0  0  0  0  0  0
  -29.7561  -11.7316   17.4981 H   0  0  0  0  0  0
  -29.6295  -13.4575   17.7599 H   0  0  0  0  0  0
  -27.8694  -11.2717   18.9124 H   0  0  0  0  0  0
  -27.3597  -12.5243   17.8078 H   0  0  0  0  0  0
  -27.6057  -14.2205   19.4533 H   0  0  0  0  0  0
  -28.6704  -12.2098   21.4923 H   0  0  0  0  0  0
  -28.4342  -13.9207   21.7567 H   0  0  0  0  0  0
  -25.2754   -9.5650   22.4792 H   0  0  0  0  0  0
  -23.9999   -7.4605   22.7454 H   0  0  0  0  0  0
  -21.0862   -8.8776   19.8937 H   0  0  0  0  0  0
  -22.3694  -10.9682   19.6196 H   0  0  0  0  0  0
  -21.2003   -7.6147   23.9707 H   0  0  0  0  0  0
  -21.1496   -6.0533   25.9083 H   0  0  0  0  0  0
  -22.0579   -2.7602   23.2836 H   0  0  0  0  0  0
  -22.4060  -11.9808   22.4816 H   0  0  0  0  0  0
  -21.1093  -13.1168   22.2740 H   0  0  0  0  0  0
  -24.6519  -15.8366   20.4924 H   0  0  0  0  0  0
  -26.2927  -15.6246   20.1376 H   0  0  0  0  0  0
  -26.7161  -32.5467   23.1141 H   0  0  0  0  0  0
  -25.0105  -33.9737   25.0472 H   0  0  0  0  0  0
  -22.7058  -31.3015   21.3993 H   0  0  0  0  0  0
  -23.3742  -35.9658   23.3304 H   0  0  0  0  0  0
  -24.3600  -36.8915   22.2045 H   0  0  0  0  0  0
  -23.7263  -37.6520   23.6660 H   0  0  0  0  0  0
  -26.0706  -31.5688   20.5957 H   0  0  0  0  0  0
  -26.8332  -30.8621   21.9896 H   0  0  0  0  0  0
  -28.1071  -29.0295   21.1866 H   0  0  0  0  0  0
  -26.0203  -25.9212   19.0474 H   0  0  0  0  0  0
  -23.9724  -27.2924   19.0295 H   0  0  0  0  0  0
  -23.7491  -30.5852   19.3968 H   0  0  0  0  0  0
  -22.7483  -29.2452   19.8601 H   0  0  0  0  0  0
  -25.1294  -36.1943   25.0827 H   0  0  0  0  0  0
  -20.9940  -28.3266   24.1423 H   0  0  0  0  0  0
  -20.5728  -26.2322   23.3622 H   0  0  0  0  0  0
  -21.6652  -26.7467   22.1213 H   0  0  0  0  0  0
  -19.6936  -25.6242   21.1320 H   0  0  0  0  0  0
  -19.6692  -27.3114   20.6720 H   0  0  0  0  0  0
  -17.4213  -26.6624   21.4042 H   0  0  0  0  0  0
  -18.0340  -26.0067   22.9056 H   0  0  0  0  0  0
  -19.7914  -30.7296   24.2229 H   0  0  0  0  0  0
  -17.4975  -31.6241   24.5147 H   0  0  0  0  0  0
  -15.5326  -30.2951   23.7616 H   0  0  0  0  0  0
  -15.8679  -28.0795   22.7022 H   0  0  0  0  0  0
  -24.5907  -30.7022   25.7804 H   0  0  0  0  0  0
  -24.8905  -32.2856   26.4886 H   0  0  0  0  0  0
  -25.8078  -30.8883   27.0223 H   0  0  0  0  0  0
  -26.2878  -29.6774   24.1152 H   0  0  0  0  0  0
  -27.4082  -29.7256   25.4572 H   0  0  0  0  0  0
  -27.8719  -30.4337   23.9279 H   0  0  0  0  0  0
  -27.2645  -33.3601   26.2065 H   0  0  0  0  0  0
  -28.3843  -32.6879   25.0289 H   0  0  0  0  0  0
  -28.0730  -31.8424   26.5375 H   0  0  0  0  0  0
  -28.2604  -38.0107   24.7495 H   0  0  0  0  0  0
  -28.1079  -36.2637   24.6311 H   0  0  0  0  0  0
  -27.2302  -37.1475   25.8864 H   0  0  0  0  0  0
  -20.9381  -29.8785   21.6897 H   0  0  0  0  0  0
  -26.0185  -38.2856   24.1388 H   0  0  0  0  0  0
  -28.6162  -15.9829   19.3369 H   0  0  0  0  0  0
  -30.9065  -18.8142   22.6531 H   0  0  0  0  0  0
  -28.2617  -20.0297   23.7522 H   0  0  0  0  0  0
  -27.2162  -19.2117   22.6049 H   0  0  0  0  0  0
  -26.2469  -20.5030   20.7775 H   0  0  0  0  0  0
  -26.2273  -22.2466   20.8561 H   0  0  0  0  0  0
  -29.7696  -20.6856   22.0813 H   0  0  0  0  0  0
  -28.4134  -21.1599   19.6451 H   0  0  0  0  0  0
  -27.5783  -19.3167   19.0076 H   0  0  0  0  0  0
  -26.5421  -18.4278   20.1352 H   0  0  0  0  0  0
  -27.1846  -17.6504   18.6979 H   0  0  0  0  0  0
  -32.2053  -17.0797   23.4112 H   0  0  0  0  0  0
  -32.8842  -16.3780   21.9377 H   0  0  0  0  0  0
  -31.8456  -15.4104   22.9916 H   0  0  0  0  0  0
  -25.1615  -20.1830   22.9680 H   0  0  0  0  0  0
  -24.9978  -21.9356   23.1076 H   0  0  0  0  0  0
  -25.8126  -21.0259   24.3761 H   0  0  0  0  0  0
  -27.3839  -23.7167   19.6701 H   0  0  0  0  0  0
  -29.0683  -24.0165   19.3437 H   0  0  0  0  0  0
  -29.0397  -25.3276   21.6489 H   0  0  0  0  0  0
  -27.3186  -25.2928   21.5156 H   0  0  0  0  0  0
  -29.7699  -22.7204   21.0410 H   0  0  0  0  0  0
  -28.4302  -22.9015   21.9550 H   0  0  0  0  0  0
  1 25  1  0  0  0
  1 30  2  0  0  0
  1 73  1  0  0  0
  2  3  1  0  0  0
  2 25  1  0  0  0
  2 88  1  0  0  0
  2 89  1  0  0  0
  3  4  1  0  0  0
  3 90  1  0  0  0
  3 91  1  0  0  0
  4  5  1  0  0  0
  4 92  1  0  0  0
  4 93  1  0  0  0
  5  6  1  0  0  0
  5 26  1  0  0  0
  5 94  1  0  0  0
  6 25  1  0  0  0
  6 95  1  0  0  0
  6 96  1  0  0  0
  7  8  2  0  0  0
  7 26  1  0  0  0
  7 29  1  0  0  0
  8  9  1  0  0  0
  8 22  1  0  0  0
  9 10  1  0  0  0
  9 27  2  0  0  0
 10 11  2  0  0  0
 10 15  1  0  0  0
 11 12  1  0  0  0
 11 97  1  0  0  0
 12 13  2  0  0  0
 12 98  1  0  0  0
 13 14  1  0  0  0
 13 31  1  0  0  0
 14 15  2  0  0  0
 14 99  1  0  0  0
 15100  1  0  0  0
 16 17  2  0  0  0
 16 21  1  0  0  0
 16 31  1  0  0  0
 17 18  1  0  0  0
 17101  1  0  0  0
 18 19  2  0  0  0
 18102  1  0  0  0
 19 20  1  0  0  0
 19 24  1  0  0  0
 20 21  2  0  0  0
 20103  1  0  0  0
 21 23  1  0  0  0
 22 28  1  0  0  0
 22 32  2  0  0  0
 26 27  1  0  0  0
 28104  1  0  0  0
 28105  1  0  0  0
 29106  1  0  0  0
 29107  1  0  0  0
 33 34  1  0  0  0
 33 66  1  0  0  0
 33 70  2  0  0  0
 34 36  1  0  0  0
 34 59  1  0  0  0
 34108  1  0  0  0
 35 44  2  0  0  0
 35 45  1  0  0  0
 35 68  1  0  0  0
 36 56  1  0  0  0
 36109  1  0  0  0
 37 39  1  0  0  0
 37 47  1  0  0  0
 37 66  1  0  0  0
 37110  1  0  0  0
 38 43  2  0  0  0
 38 46  1  0  0  0
 38 47  1  0  0  0
 39 64  1  0  0  0
 39 67  2  0  0  0
 40 52  1  0  0  0
 40 53  2  0  0  0
 40 58  1  0  0  0
 41111  1  0  0  0
 41112  1  0  0  0
 41113  1  0  0  0
 41 48  1  0  0  0
 42 43  1  0  0  0
 42 66  1  0  0  0
 42114  1  0  0  0
 42115  1  0  0  0
 43 44  1  0  0  0
 44116  1  0  0  0
 45 46  2  0  0  0
 45117  1  0  0  0
 46118  1  0  0  0
 47119  1  0  0  0
 47120  1  0  0  0
 48 56  1  0  0  0
 48 65  1  0  0  0
 48121  1  0  0  0
 49 50  1  0  0  0
 49 53  1  0  0  0
 49 64  1  0  0  0
 49122  1  0  0  0
 50 51  1  0  0  0
 50123  1  0  0  0
 50124  1  0  0  0
 51 52  1  0  0  0
 51125  1  0  0  0
 51126  1  0  0  0
 52127  1  0  0  0
 52128  1  0  0  0
 53 54  1  0  0  0
 54 55  2  0  0  0
 54129  1  0  0  0
 55 57  1  0  0  0
 55130  1  0  0  0
 56 69  2  0  0  0
 57 58  2  0  0  0
 57131  1  0  0  0
 58132  1  0  0  0
 59 60  1  0  0  0
 59 61  1  0  0  0
 59 62  1  0  0  0
 60133  1  0  0  0
 60134  1  0  0  0
 60135  1  0  0  0
 61136  1  0  0  0
 61137  1  0  0  0
 61138  1  0  0  0
 62139  1  0  0  0
 62140  1  0  0  0
 62141  1  0  0  0
 63 65  1  0  0  0
 63142  1  0  0  0
 63143  1  0  0  0
 63144  1  0  0  0
 64145  1  0  0  0
 65146  1  0  0  0
 68 85  1  0  0  0
 71 73  2  0  0  0
 71 75  1  0  0  0
 71147  1  0  0  0
 72 74  1  0  0  0
 72 76  2  0  0  0
 72148  1  0  0  0
 73 76  1  0  0  0
 74 75  2  0  0  0
 74 79  1  0  0  0
 75 81  1  0  0  0
 76 82  1  0  0  0
 77 79  1  0  0  0
 77 86  1  0  0  0
 77149  1  0  0  0
 77150  1  0  0  0
 78 80  1  0  0  0
 78 86  1  0  0  0
 78151  1  0  0  0
 78152  1  0  0  0
 79 80  1  0  0  0
 79153  1  0  0  0
 80 87  1  0  0  0
 80154  1  0  0  0
 81155  1  0  0  0
 81156  1  0  0  0
 81157  1  0  0  0
 82158  1  0  0  0
 82159  1  0  0  0
 82160  1  0  0  0
 83 86  1  0  0  0
 83161  1  0  0  0
 83162  1  0  0  0
 83163  1  0  0  0
 84 85  1  0  0  0
 84 87  1  0  0  0
 84164  1  0  0  0
 84165  1  0  0  0
 85166  1  0  0  0
 85167  1  0  0  0
 87168  1  0  0  0
 87169  1  0  0  0
M  CHG  1  87   1
M  ISO  4   1 100  68 101  73 100  85 101
M  END
> <chiral flag>
0

> <version>
0

> <s_m_source_file>
/data/baiqing/PycharmProjects/Reinvent-master-3.2/result/LINK_invent/BTK/process_docking_weight1_custom_sum_contain_oxygen_bond_distance_aromatic_linkinvent_7_9_3/rearranged_h_0183.sdf

> <i_m_source_file_index>
28

> <r_mmod_Potential_Energy-OPLS-2005>
148.387710571289

> <r_mmod_Stretch_Energy-OPLS-2005>
68.4869766235352

> <r_mmod_Bend_Energy-OPLS-2005>
186.167770385742

> <r_mmod_Torsional_Energy-OPLS-2005>
292.532012939453

> <r_mmod_Improper_Torsional_Energy-OPLS-2005>
5.43434906005859

> <r_mmod_Van_der_Waal_Energy-OPLS-2005>
145.264923095703

> <r_mmod_Electrostatic_Energy-OPLS-2005>
-184.596343994141

> <r_mmod_Solvation_Energy-OPLS-2005>
-408.559967041016

> <b_mmod_Minimization_Converged-OPLS-2005>
0

> <r_mmod_RMS_Derivative-OPLS-2005>
4.13678455352783

$$$$
28
                    3D
 Structure written by MMmdl.
157166  0  0  1  0            999 V2000
  -30.6549  -14.6948   20.4894 C   0  0  0  0  0  0
  -30.4265  -12.4336   19.4591 C   0  0  0  0  0  0
  -29.5016  -12.5144   18.2260 C   0  0  0  0  0  0
  -28.0254  -12.3507   18.6385 C   0  0  0  0  0  0
  -27.6461  -13.2274   19.8624 C   0  0  2  0  0  0
  -28.6964  -13.1087   20.9880 C   0  0  0  0  0  0
  -25.2507  -13.8176   20.5675 C   0  0  0  0  0  0
  -24.1802  -13.0427   20.9203 C   0  0  0  0  0  0
  -24.6401  -11.6909   20.8766 C   0  0  0  0  0  0
  -23.9075  -10.4291   21.0415 C   0  0  0  0  0  0
  -24.3619   -9.4200   21.9192 C   0  0  0  0  0  0
  -23.6291   -8.2238   22.0752 C   0  0  0  0  0  0
  -22.4274   -8.0284   21.3541 C   0  0  0  0  0  0
  -21.9917   -9.0258   20.4641 C   0  0  0  0  0  0
  -22.7250  -10.2137   20.3056 C   0  0  0  0  0  0
  -21.6846   -6.0742   22.5277 C   0  0  0  0  0  0
  -21.4007   -6.5648   23.8212 C   0  0  0  0  0  0
  -21.3659   -5.6794   24.9173 C   0  0  0  0  0  0
  -21.6043   -4.3059   24.7220 C   0  0  0  0  0  0
  -21.8814   -3.8154   23.4338 C   0  0  0  0  0  0
  -21.9189   -4.6969   22.3395 C   0  0  0  0  0  0
  -22.7823  -13.5213   21.1853 C   0  0  0  0  0  0
  -22.1658   -4.2160   21.0975 F   0  0  0  0  0  0
  -21.5630   -3.4543   25.7729 F   0  0  0  0  0  0
  -29.9917  -13.4871   20.4066 N   0  0  0  0  0  0
  -26.2961  -12.9388   20.3352 N   0  0  0  0  0  0
  -25.9338  -11.6531   20.5805 N   0  0  0  0  0  0
  -22.0473  -12.8206   22.0413 N   0  0  0  0  0  0
  -25.4147  -15.1893   20.4001 N   0  0  0  0  0  0
  -31.8348  -14.7522   20.1267 O   0  0  0  0  0  0
  -21.6631   -6.8887   21.4242 O   0  0  0  0  0  0
  -22.3504  -14.5522   20.6708 O   0  0  0  0  0  0
  -24.6287  -31.8583   23.2019 C   0  0  0  0  0  0
  -25.9133  -32.4766   23.8355 C   0  0  1  0  0  0
  -27.2200  -27.3030   20.1213 C   0  0  0  0  0  0
  -25.5948  -33.8568   24.2288 N   0  0  0  0  0  0
  -23.4242  -30.4820   21.5438 C   0  0  2  0  0  0
  -24.8732  -28.9363   20.1090 C   0  0  0  0  0  0
  -22.7488  -29.4621   22.4920 C   0  0  0  0  0  0
  -18.0289  -28.1385   22.8481 C   0  0  0  0  0  0
  -24.1483  -36.7273   23.2640 C   0  0  0  0  0  0
  -25.9676  -30.7824   21.3775 C   0  0  0  0  0  0
  -26.0436  -29.4093   20.7188 C   0  0  0  0  0  0
  -27.2247  -28.6042   20.7164 C   0  0  0  0  0  0
  -26.0346  -26.8931   19.4764 C   0  0  0  0  0  0
  -24.8712  -27.6837   19.4766 C   0  0  0  0  0  0
  -23.6418  -29.8178   20.1590 C   0  0  0  0  0  0
  -25.4111  -36.3072   24.0335 C   0  0  1  0  0  0
  -20.5890  -28.3692   23.1268 C   0  0  2  0  0  0
  -20.6775  -26.9410   22.5405 C   0  0  0  0  0  0
  -19.5757  -26.6383   21.5203 C   0  0  0  0  0  0
  -18.1935  -26.7935   22.1604 C   0  0  0  0  0  0
  -19.1542  -28.8853   23.2875 C   0  0  0  0  0  0
  -18.9466  -30.1450   23.8898 C   0  0  0  0  0  0
  -17.6466  -30.6585   24.0560 C   0  0  0  0  0  0
  -25.9052  -34.9446   23.5105 C   0  0  0  0  0  0
  -16.5356  -29.9082   23.6335 C   0  0  0  0  0  0
  -16.7273  -28.6498   23.0358 C   0  0  0  0  0  0
  -26.4517  -31.6575   25.0729 C   0  0  0  0  0  0
  -25.3746  -31.3702   26.1451 C   0  0  0  0  0  0
  -27.0361  -30.2999   24.6187 C   0  0  0  0  0  0
  -27.6077  -32.4310   25.7502 C   0  0  0  0  0  0
  -27.5579  -37.1791   24.8466 C   0  0  0  0  0  0
  -21.4198  -29.3045   22.3661 N   0  0  0  0  0  0
  -26.4283  -37.3777   23.9420 N   0  0  0  0  0  0
  -24.6921  -31.0579   22.0978 N   0  0  0  0  0  0
  -23.4201  -28.8162   23.3010 O   0  0  0  0  0  0
  -28.2868  -26.3888   20.1574 O   0  0  0  0  0  0
  -26.5610  -34.8920   22.4663 O   0  0  0  0  0  0
  -23.5446  -32.1386   23.7335 O   0  0  0  0  0  0
  -29.8884  -23.3137   20.9358 C   0  0  0  0  0  0
  -28.5953  -23.7082   20.5289 C   0  0  0  0  0  0
  -27.8283  -22.6095   20.0413 C   0  0  0  0  0  0
  -29.5114  -21.0610   20.4696 C   0  0  0  0  0  0
  -28.9425  -17.8049   21.7486 C   0  0  0  0  0  0
  -28.9571  -16.2572   21.6117 C   0  0  0  0  0  0
  -30.3734  -17.1915   19.9715 C   0  0  0  0  0  0
  -29.4191  -18.3735   20.4096 C   0  0  2  0  0  0
  -26.4069  -22.7937   19.5457 C   0  0  0  0  0  0
  -27.9850  -25.1309   20.8904 C   0  0  0  0  0  0
  -30.3300  -22.0200   20.8942 N   0  0  0  0  0  0
  -28.2848  -21.3147   20.0223 N   0  0  0  0  0  0
  -29.9378  -15.8869   20.5815 N   0  0  0  0  0  0
  -30.0356  -19.7408   20.5050 N   0  0  0  0  0  0
  -31.4676  -12.5440   19.1514 H   0  0  0  0  0  0
  -30.3649  -11.4483   19.9241 H   0  0  0  0  0  0
  -29.7734  -11.7514   17.4960 H   0  0  0  0  0  0
  -29.6387  -13.4750   17.7268 H   0  0  0  0  0  0
  -27.8635  -11.2982   18.8741 H   0  0  0  0  0  0
  -27.3694  -12.5768   17.7971 H   0  0  0  0  0  0
  -27.6529  -14.2597   19.5115 H   0  0  0  0  0  0
  -28.7349  -12.0852   21.3648 H   0  0  0  0  0  0
  -28.4347  -13.7189   21.8488 H   0  0  0  0  0  0
  -25.2756   -9.5678   22.4779 H   0  0  0  0  0  0
  -23.9997   -7.4624   22.7466 H   0  0  0  0  0  0
  -21.0854   -8.8778   19.8937 H   0  0  0  0  0  0
  -22.3710  -10.9680   19.6169 H   0  0  0  0  0  0
  -21.1997   -7.6152   23.9721 H   0  0  0  0  0  0
  -21.1485   -6.0522   25.9078 H   0  0  0  0  0  0
  -22.0594   -2.7616   23.2828 H   0  0  0  0  0  0
  -22.4087  -11.9857   22.4781 H   0  0  0  0  0  0
  -21.1094  -13.1231   22.2631 H   0  0  0  0  0  0
  -24.6373  -15.8354   20.4819 H   0  0  0  0  0  0
  -26.2586  -15.6277   20.0554 H   0  0  0  0  0  0
  -26.7203  -32.5431   23.1105 H   0  0  0  0  0  0
  -25.0141  -33.9710   25.0466 H   0  0  0  0  0  0
  -22.7196  -31.3035   21.3991 H   0  0  0  0  0  0
  -23.3757  -35.9589   23.3291 H   0  0  0  0  0  0
  -24.3581  -36.8896   22.2055 H   0  0  0  0  0  0
  -23.7219  -37.6467   23.6662 H   0  0  0  0  0  0
  -26.1032  -31.5449   20.6097 H   0  0  0  0  0  0
  -26.8465  -30.8308   22.0081 H   0  0  0  0  0  0
  -28.1201  -28.9577   21.2083 H   0  0  0  0  0  0
  -25.9985  -25.9298   18.9888 H   0  0  0  0  0  0
  -23.9776  -27.3176   18.9899 H   0  0  0  0  0  0
  -23.7646  -30.5958   19.4046 H   0  0  0  0  0  0
  -22.7611  -29.2500   19.8524 H   0  0  0  0  0  0
  -25.1292  -36.1916   25.0827 H   0  0  0  0  0  0
  -20.9981  -28.3264   24.1386 H   0  0  0  0  0  0
  -20.5656  -26.2303   23.3610 H   0  0  0  0  0  0
  -21.6645  -26.7431   22.1200 H   0  0  0  0  0  0
  -19.6913  -25.6291   21.1242 H   0  0  0  0  0  0
  -19.6703  -27.3188   20.6732 H   0  0  0  0  0  0
  -17.4206  -26.6686   21.4004 H   0  0  0  0  0  0
  -18.0327  -26.0072   22.8991 H   0  0  0  0  0  0
  -19.7943  -30.7266   24.2270 H   0  0  0  0  0  0
  -17.5023  -31.6272   24.5154 H   0  0  0  0  0  0
  -15.5360  -30.2983   23.7673 H   0  0  0  0  0  0
  -15.8667  -28.0820   22.7085 H   0  0  0  0  0  0
  -24.5962  -30.7002   25.7787 H   0  0  0  0  0  0
  -24.8890  -32.2849   26.4854 H   0  0  0  0  0  0
  -25.8083  -30.8916   27.0239 H   0  0  0  0  0  0
  -26.2931  -29.6740   24.1231 H   0  0  0  0  0  0
  -27.4082  -29.7270   25.4691 H   0  0  0  0  0  0
  -27.8795  -30.4288   23.9399 H   0  0  0  0  0  0
  -27.2705  -33.3631   26.2049 H   0  0  0  0  0  0
  -28.3909  -32.6828   25.0338 H   0  0  0  0  0  0
  -28.0718  -31.8444   26.5441 H   0  0  0  0  0  0
  -28.2582  -38.0102   24.7534 H   0  0  0  0  0  0
  -28.1089  -36.2639   24.6261 H   0  0  0  0  0  0
  -27.2304  -37.1391   25.8869 H   0  0  0  0  0  0
  -20.9381  -29.8767   21.6869 H   0  0  0  0  0  0
  -26.0158  -38.2842   24.1444 H   0  0  0  0  0  0
  -30.5638  -24.0322   21.3761 H   0  0  0  0  0  0
  -29.6369  -18.0947   22.5387 H   0  0  0  0  0  0
  -27.9604  -18.1854   22.0327 H   0  0  0  0  0  0
  -27.9715  -15.9123   21.3040 H   0  0  0  0  0  0
  -29.1912  -15.7898   22.5697 H   0  0  0  0  0  0
  -31.3921  -17.3937   20.3054 H   0  0  0  0  0  0
  -30.4096  -17.1065   18.8845 H   0  0  0  0  0  0
  -28.5713  -18.4180   19.7231 H   0  0  0  0  0  0
  -26.3703  -23.5669   18.7792 H   0  0  0  0  0  0
  -25.7460  -23.0811   20.3626 H   0  0  0  0  0  0
  -26.0149  -21.8759   19.1071 H   0  0  0  0  0  0
  -28.3123  -25.3265   21.9123 H   0  0  0  0  0  0
  -26.9098  -24.9995   21.0037 H   0  0  0  0  0  0
  -31.0002  -19.7273   20.8103 H   0  0  0  0  0  0
  1 25  1  0  0  0
  1 30  2  0  0  0
  1 83  1  0  0  0
  2  3  1  0  0  0
  2 25  1  0  0  0
  2 85  1  0  0  0
  2 86  1  0  0  0
  3  4  1  0  0  0
  3 87  1  0  0  0
  3 88  1  0  0  0
  4  5  1  0  0  0
  4 89  1  0  0  0
  4 90  1  0  0  0
  5  6  1  0  0  0
  5 26  1  0  0  0
  5 91  1  0  0  0
  6 25  1  0  0  0
  6 92  1  0  0  0
  6 93  1  0  0  0
  7  8  2  0  0  0
  7 26  1  0  0  0
  7 29  1  0  0  0
  8  9  1  0  0  0
  8 22  1  0  0  0
  9 10  1  0  0  0
  9 27  2  0  0  0
 10 11  2  0  0  0
 10 15  1  0  0  0
 11 12  1  0  0  0
 11 94  1  0  0  0
 12 13  2  0  0  0
 12 95  1  0  0  0
 13 14  1  0  0  0
 13 31  1  0  0  0
 14 15  2  0  0  0
 14 96  1  0  0  0
 15 97  1  0  0  0
 16 17  2  0  0  0
 16 21  1  0  0  0
 16 31  1  0  0  0
 17 18  1  0  0  0
 17 98  1  0  0  0
 18 19  2  0  0  0
 18 99  1  0  0  0
 19 20  1  0  0  0
 19 24  1  0  0  0
 20 21  2  0  0  0
 20100  1  0  0  0
 21 23  1  0  0  0
 22 28  1  0  0  0
 22 32  2  0  0  0
 26 27  1  0  0  0
 28101  1  0  0  0
 28102  1  0  0  0
 29103  1  0  0  0
 29104  1  0  0  0
 33 34  1  0  0  0
 33 66  1  0  0  0
 33 70  2  0  0  0
 34 36  1  0  0  0
 34 59  1  0  0  0
 34105  1  0  0  0
 35 44  2  0  0  0
 35 45  1  0  0  0
 35 68  1  0  0  0
 36 56  1  0  0  0
 36106  1  0  0  0
 37 39  1  0  0  0
 37 47  1  0  0  0
 37 66  1  0  0  0
 37107  1  0  0  0
 38 43  2  0  0  0
 38 46  1  0  0  0
 38 47  1  0  0  0
 39 64  1  0  0  0
 39 67  2  0  0  0
 40 52  1  0  0  0
 40 53  2  0  0  0
 40 58  1  0  0  0
 41108  1  0  0  0
 41109  1  0  0  0
 41110  1  0  0  0
 41 48  1  0  0  0
 42 43  1  0  0  0
 42 66  1  0  0  0
 42111  1  0  0  0
 42112  1  0  0  0
 43 44  1  0  0  0
 44113  1  0  0  0
 45 46  2  0  0  0
 45114  1  0  0  0
 46115  1  0  0  0
 47116  1  0  0  0
 47117  1  0  0  0
 48 56  1  0  0  0
 48 65  1  0  0  0
 48118  1  0  0  0
 49 50  1  0  0  0
 49 53  1  0  0  0
 49 64  1  0  0  0
 49119  1  0  0  0
 50 51  1  0  0  0
 50120  1  0  0  0
 50121  1  0  0  0
 51 52  1  0  0  0
 51122  1  0  0  0
 51123  1  0  0  0
 52124  1  0  0  0
 52125  1  0  0  0
 53 54  1  0  0  0
 54 55  2  0  0  0
 54126  1  0  0  0
 55 57  1  0  0  0
 55127  1  0  0  0
 56 69  2  0  0  0
 57 58  2  0  0  0
 57128  1  0  0  0
 58129  1  0  0  0
 59 60  1  0  0  0
 59 61  1  0  0  0
 59 62  1  0  0  0
 60130  1  0  0  0
 60131  1  0  0  0
 60132  1  0  0  0
 61133  1  0  0  0
 61134  1  0  0  0
 61135  1  0  0  0
 62136  1  0  0  0
 62137  1  0  0  0
 62138  1  0  0  0
 63 65  1  0  0  0
 63139  1  0  0  0
 63140  1  0  0  0
 63141  1  0  0  0
 64142  1  0  0  0
 65143  1  0  0  0
 68 80  1  0  0  0
 71 72  2  0  0  0
 71 81  1  0  0  0
 71144  1  0  0  0
 72 73  1  0  0  0
 72 80  1  0  0  0
 73 79  1  0  0  0
 73 82  2  0  0  0
 74 81  2  0  0  0
 74 82  1  0  0  0
 74 84  1  0  0  0
 75 76  1  0  0  0
 75 78  1  0  0  0
 75145  1  0  0  0
 75146  1  0  0  0
 76 83  1  0  0  0
 76147  1  0  0  0
 76148  1  0  0  0
 77 78  1  0  0  0
 77 83  1  0  0  0
 77149  1  0  0  0
 77150  1  0  0  0
 78 84  1  0  0  0
 78151  1  0  0  0
 79152  1  0  0  0
 79153  1  0  0  0
 79154  1  0  0  0
 80155  1  0  0  0
 80156  1  0  0  0
 84157  1  0  0  0
M  ISO  4   1 100  68 101  80 101  83 100
M  END
> <chiral flag>
0

> <version>
0

> <s_m_source_file>
/data/baiqing/PycharmProjects/Reinvent-master-3.2/result/LINK_invent/BTK/process_docking_weight1_custom_sum_contain_oxygen_bond_distance_aromatic_linkinvent_7_9_3/rearranged_h_0183.sdf

> <i_m_source_file_index>
29

> <r_mmod_Potential_Energy-OPLS-2005>
-214.688247680664

> <r_mmod_Stretch_Energy-OPLS-2005>
86.5154876708984

> <r_mmod_Bend_Energy-OPLS-2005>
190.556076049805

> <r_mmod_Torsional_Energy-OPLS-2005>
338.353942871094

> <r_mmod_Improper_Torsional_Energy-OPLS-2005>
15.0767135620117

> <r_mmod_Van_der_Waal_Energy-OPLS-2005>
142.029724121094

> <r_mmod_Electrostatic_Energy-OPLS-2005>
-818.404357910156

> <r_mmod_Solvation_Energy-OPLS-2005>
-233.702056884766

> <b_mmod_Minimization_Converged-OPLS-2005>
0

> <r_mmod_RMS_Derivative-OPLS-2005>
1.25563061237335

$$$$
29
                    3D
 Structure written by MMmdl.
152161  0  0  1  0            999 V2000
  -30.3683  -15.5479   20.3345 C   0  0  0  0  0  0
  -30.4195  -13.0106   19.5508 C   0  0  0  0  0  0
  -29.5474  -12.6350   18.3216 C   0  0  0  0  0  0
  -28.1132  -12.2984   18.7549 C   0  0  0  0  0  0
  -27.5923  -13.3076   19.8038 C   0  0  2  0  0  0
  -28.6042  -13.6282   20.9253 C   0  0  0  0  0  0
  -25.2318  -13.8294   20.5786 C   0  0  0  0  0  0
  -24.1706  -13.0442   20.9274 C   0  0  0  0  0  0
  -24.6404  -11.6953   20.8749 C   0  0  0  0  0  0
  -23.9110  -10.4299   21.0392 C   0  0  0  0  0  0
  -24.3648   -9.4213   21.9174 C   0  0  0  0  0  0
  -23.6312   -8.2252   22.0750 C   0  0  0  0  0  0
  -22.4293   -8.0288   21.3543 C   0  0  0  0  0  0
  -21.9936   -9.0262   20.4644 C   0  0  0  0  0  0
  -22.7275  -10.2135   20.3048 C   0  0  0  0  0  0
  -21.6861   -6.0741   22.5279 C   0  0  0  0  0  0
  -21.4022   -6.5641   23.8214 C   0  0  0  0  0  0
  -21.3664   -5.6791   24.9174 C   0  0  0  0  0  0
  -21.6046   -4.3054   24.7224 C   0  0  0  0  0  0
  -21.8816   -3.8149   23.4343 C   0  0  0  0  0  0
  -21.9193   -4.6967   22.3401 C   0  0  0  0  0  0
  -22.7721  -13.5173   21.1921 C   0  0  0  0  0  0
  -22.1661   -4.2152   21.0978 F   0  0  0  0  0  0
  -21.5627   -3.4537   25.7736 F   0  0  0  0  0  0
  -29.8066  -14.2047   20.2871 N   0  0  0  0  0  0
  -26.2749  -12.9623   20.3178 N   0  0  0  0  0  0
  -25.9344  -11.6696   20.5665 N   0  0  0  0  0  0
  -22.0388  -12.8150   22.0477 N   0  0  0  0  0  0
  -25.3944  -15.2036   20.4285 N   0  0  0  0  0  0
  -31.5972  -15.4239   20.1813 O   0  0  0  0  0  0
  -21.6650   -6.8888   21.4244 O   0  0  0  0  0  0
  -22.3392  -14.5469   20.6754 O   0  0  0  0  0  0
  -24.6797  -31.8046   23.1549 C   0  0  0  0  0  0
  -25.9397  -32.4489   23.8081 C   0  0  1  0  0  0
  -27.2192  -26.7452   20.2139 C   0  0  0  0  0  0
  -25.5991  -33.8313   24.1973 N   0  0  0  0  0  0
  -23.5028  -30.4088   21.5084 C   0  0  2  0  0  0
  -24.9572  -28.7561   20.1200 C   0  0  0  0  0  0
  -22.7744  -29.4343   22.4728 C   0  0  0  0  0  0
  -18.0336  -28.1420   22.8456 C   0  0  0  0  0  0
  -24.1497  -36.7165   23.2652 C   0  0  0  0  0  0
  -26.0813  -30.5526   21.4112 C   0  0  0  0  0  0
  -26.1465  -29.1214   20.7622 C   0  0  0  0  0  0
  -27.2665  -28.1438   20.7736 C   0  0  0  0  0  0
  -25.9964  -26.5751   19.5198 C   0  0  0  0  0  0
  -24.9184  -27.5079   19.4755 C   0  0  0  0  0  0
  -23.7534  -29.7081   20.1426 C   0  0  0  0  0  0
  -25.4146  -36.2909   24.0285 C   0  0  1  0  0  0
  -20.5969  -28.3776   23.1151 C   0  0  2  0  0  0
  -20.6805  -26.9440   22.5404 C   0  0  0  0  0  0
  -19.5781  -26.6371   21.5217 C   0  0  0  0  0  0
  -18.1963  -26.7948   22.1620 C   0  0  0  0  0  0
  -19.1601  -28.8922   23.2786 C   0  0  0  0  0  0
  -18.9506  -30.1506   23.8830 C   0  0  0  0  0  0
  -17.6496  -30.6602   24.0551 C   0  0  0  0  0  0
  -25.9120  -34.9297   23.4963 C   0  0  0  0  0  0
  -16.5386  -29.9085   23.6347 C   0  0  0  0  0  0
  -16.7317  -28.6507   23.0363 C   0  0  0  0  0  0
  -26.4589  -31.6505   25.0686 C   0  0  0  0  0  0
  -25.3666  -31.3808   26.1308 C   0  0  0  0  0  0
  -27.0514  -30.2849   24.6551 C   0  0  0  0  0  0
  -27.6045  -32.4357   25.7504 C   0  0  0  0  0  0
  -27.5566  -37.1744   24.8469 C   0  0  0  0  0  0
  -21.4397  -29.3032   22.3476 N   0  0  0  0  0  0
  -26.4278  -37.3663   23.9402 N   0  0  0  0  0  0
  -24.7778  -30.9538   22.0775 N   0  0  0  0  0  0
  -23.4211  -28.7938   23.3051 O   0  0  0  0  0  0
  -28.2050  -25.5621   20.2598 O   0  0  0  0  0  0
  -26.5756  -34.8866   22.4577 O   0  0  0  0  0  0
  -23.5827  -32.1099   23.6533 O   0  0  0  0  0  0
  -29.0444  -18.0408   19.4100 C   0  0  0  0  0  0
  -29.7554  -17.2016   20.4068 C   0  0  0  0  0  0
  -30.0661  -18.3070   21.3449 C   0  0  0  0  0  0
  -29.0520  -20.4506   20.3230 C   0  0  0  0  0  0
  -30.0957  -22.6105   18.9836 C   0  0  0  0  0  0
  -30.5554  -22.7627   20.3874 C   0  0  0  0  0  0
  -29.1231  -22.3121   20.1190 C   0  0  0  0  0  0
  -31.4584  -18.9776   23.2973 C   0  0  0  0  0  0
  -28.0251  -23.8256   20.3037 C   0  0  0  0  0  0
  -28.7509  -19.4756   19.3670 N   0  0  0  0  0  0
  -29.7370  -19.7248   21.2987 N   0  0  0  0  0  0
  -30.8142  -17.9562   22.4782 N   0  0  0  0  0  0
  -31.4284  -13.2301   19.2007 H   0  0  0  0  0  0
  -30.5344  -12.1551   20.2188 H   0  0  0  0  0  0
  -29.9865  -11.7944   17.7828 H   0  0  0  0  0  0
  -29.5306  -13.4741   17.6243 H   0  0  0  0  0  0
  -28.1232  -11.2968   19.1866 H   0  0  0  0  0  0
  -27.4485  -12.2559   17.8914 H   0  0  0  0  0  0
  -27.4611  -14.2332   19.2412 H   0  0  0  0  0  0
  -28.8321  -12.7467   21.5267 H   0  0  0  0  0  0
  -28.1830  -14.3662   21.6096 H   0  0  0  0  0  0
  -25.2788   -9.5689   22.4756 H   0  0  0  0  0  0
  -24.0014   -7.4647   22.7474 H   0  0  0  0  0  0
  -21.0865   -8.8789   19.8952 H   0  0  0  0  0  0
  -22.3731  -10.9674   19.6159 H   0  0  0  0  0  0
  -21.2019   -7.6149   23.9720 H   0  0  0  0  0  0
  -21.1488   -6.0520   25.9077 H   0  0  0  0  0  0
  -22.0590   -2.7611   23.2841 H   0  0  0  0  0  0
  -22.4025  -11.9826   22.4875 H   0  0  0  0  0  0
  -21.0995  -13.1148   22.2676 H   0  0  0  0  0  0
  -24.6279  -15.8552   20.5572 H   0  0  0  0  0  0
  -26.2498  -15.6509   20.1267 H   0  0  0  0  0  0
  -26.7476  -32.4976   23.0793 H   0  0  0  0  0  0
  -25.0053  -33.9360   25.0068 H   0  0  0  0  0  0
  -22.8257  -31.2451   21.3220 H   0  0  0  0  0  0
  -23.3771  -35.9484   23.3280 H   0  0  0  0  0  0
  -24.3560  -36.8859   22.2073 H   0  0  0  0  0  0
  -23.7249  -37.6335   23.6747 H   0  0  0  0  0  0
  -26.2794  -31.2800   20.6228 H   0  0  0  0  0  0
  -26.9341  -30.6183   22.0745 H   0  0  0  0  0  0
  -28.1670  -28.4309   21.2981 H   0  0  0  0  0  0
  -25.8390  -25.6295   19.0210 H   0  0  0  0  0  0
  -24.0196  -27.2206   18.9474 H   0  0  0  0  0  0
  -23.9273  -30.4688   19.3808 H   0  0  0  0  0  0
  -22.8583  -29.1740   19.8191 H   0  0  0  0  0  0
  -25.1356  -36.1680   25.0777 H   0  0  0  0  0  0
  -21.0055  -28.3400   24.1276 H   0  0  0  0  0  0
  -20.5672  -26.2400   23.3663 H   0  0  0  0  0  0
  -21.6667  -26.7390   22.1219 H   0  0  0  0  0  0
  -19.6937  -25.6264   21.1290 H   0  0  0  0  0  0
  -19.6722  -27.3145   20.6718 H   0  0  0  0  0  0
  -17.4232  -26.6691   21.4023 H   0  0  0  0  0  0
  -18.0352  -26.0108   22.9033 H   0  0  0  0  0  0
  -19.7981  -30.7340   24.2172 H   0  0  0  0  0  0
  -17.5045  -31.6274   24.5168 H   0  0  0  0  0  0
  -15.5382  -30.2963   23.7709 H   0  0  0  0  0  0
  -15.8719  -28.0802   22.7116 H   0  0  0  0  0  0
  -24.5871  -30.7138   25.7607 H   0  0  0  0  0  0
  -24.8832  -32.3026   26.4554 H   0  0  0  0  0  0
  -25.7851  -30.9086   27.0205 H   0  0  0  0  0  0
  -26.3218  -29.6473   24.1545 H   0  0  0  0  0  0
  -27.3961  -29.7280   25.5274 H   0  0  0  0  0  0
  -27.9192  -30.3983   24.0053 H   0  0  0  0  0  0
  -27.2589  -33.3721   26.1895 H   0  0  0  0  0  0
  -28.3953  -32.6818   25.0403 H   0  0  0  0  0  0
  -28.0608  -31.8610   26.5575 H   0  0  0  0  0  0
  -28.2565  -38.0055   24.7496 H   0  0  0  0  0  0
  -28.1079  -36.2575   24.6324 H   0  0  0  0  0  0
  -27.2275  -37.1415   25.8870 H   0  0  0  0  0  0
  -20.9694  -29.8690   21.6550 H   0  0  0  0  0  0
  -26.0110  -38.2717   24.1396 H   0  0  0  0  0  0
  -28.7258  -17.5350   18.5105 H   0  0  0  0  0  0
  -30.4758  -21.7633   18.4159 H   0  0  0  0  0  0
  -29.9307  -23.5165   18.4045 H   0  0  0  0  0  0
  -30.7004  -23.7722   20.7660 H   0  0  0  0  0  0
  -31.2545  -22.0225   20.7715 H   0  0  0  0  0  0
  -32.1309  -18.5153   24.0206 H   0  0  0  0  0  0
  -30.7173  -19.5586   23.8480 H   0  0  0  0  0  0
  -32.0459  -19.6625   22.6834 H   0  0  0  0  0  0
  -27.5532  -23.6743   21.2743 H   0  0  0  0  0  0
  -27.2165  -23.6451   19.5958 H   0  0  0  0  0  0
  -31.1958  -17.0162   22.5068 H   0  0  0  0  0  0
  1 25  1  0  0  0
  1 30  2  0  0  0
  1 72  1  0  0  0
  2  3  1  0  0  0
  2 25  1  0  0  0
  2 83  1  0  0  0
  2 84  1  0  0  0
  3  4  1  0  0  0
  3 85  1  0  0  0
  3 86  1  0  0  0
  4  5  1  0  0  0
  4 87  1  0  0  0
  4 88  1  0  0  0
  5  6  1  0  0  0
  5 26  1  0  0  0
  5 89  1  0  0  0
  6 25  1  0  0  0
  6 90  1  0  0  0
  6 91  1  0  0  0
  7  8  2  0  0  0
  7 26  1  0  0  0
  7 29  1  0  0  0
  8  9  1  0  0  0
  8 22  1  0  0  0
  9 10  1  0  0  0
  9 27  2  0  0  0
 10 11  2  0  0  0
 10 15  1  0  0  0
 11 12  1  0  0  0
 11 92  1  0  0  0
 12 13  2  0  0  0
 12 93  1  0  0  0
 13 14  1  0  0  0
 13 31  1  0  0  0
 14 15  2  0  0  0
 14 94  1  0  0  0
 15 95  1  0  0  0
 16 17  2  0  0  0
 16 21  1  0  0  0
 16 31  1  0  0  0
 17 18  1  0  0  0
 17 96  1  0  0  0
 18 19  2  0  0  0
 18 97  1  0  0  0
 19 20  1  0  0  0
 19 24  1  0  0  0
 20 21  2  0  0  0
 20 98  1  0  0  0
 21 23  1  0  0  0
 22 28  1  0  0  0
 22 32  2  0  0  0
 26 27  1  0  0  0
 28 99  1  0  0  0
 28100  1  0  0  0
 29101  1  0  0  0
 29102  1  0  0  0
 33 34  1  0  0  0
 33 66  1  0  0  0
 33 70  2  0  0  0
 34 36  1  0  0  0
 34 59  1  0  0  0
 34103  1  0  0  0
 35 44  2  0  0  0
 35 45  1  0  0  0
 35 68  1  0  0  0
 36 56  1  0  0  0
 36104  1  0  0  0
 37 39  1  0  0  0
 37 47  1  0  0  0
 37 66  1  0  0  0
 37105  1  0  0  0
 38 43  2  0  0  0
 38 46  1  0  0  0
 38 47  1  0  0  0
 39 64  1  0  0  0
 39 67  2  0  0  0
 40 52  1  0  0  0
 40 53  2  0  0  0
 40 58  1  0  0  0
 41106  1  0  0  0
 41107  1  0  0  0
 41108  1  0  0  0
 41 48  1  0  0  0
 42 43  1  0  0  0
 42 66  1  0  0  0
 42109  1  0  0  0
 42110  1  0  0  0
 43 44  1  0  0  0
 44111  1  0  0  0
 45 46  2  0  0  0
 45112  1  0  0  0
 46113  1  0  0  0
 47114  1  0  0  0
 47115  1  0  0  0
 48 56  1  0  0  0
 48 65  1  0  0  0
 48116  1  0  0  0
 49 50  1  0  0  0
 49 53  1  0  0  0
 49 64  1  0  0  0
 49117  1  0  0  0
 50 51  1  0  0  0
 50118  1  0  0  0
 50119  1  0  0  0
 51 52  1  0  0  0
 51120  1  0  0  0
 51121  1  0  0  0
 52122  1  0  0  0
 52123  1  0  0  0
 53 54  1  0  0  0
 54 55  2  0  0  0
 54124  1  0  0  0
 55 57  1  0  0  0
 55125  1  0  0  0
 56 69  2  0  0  0
 57 58  2  0  0  0
 57126  1  0  0  0
 58127  1  0  0  0
 59 60  1  0  0  0
 59 61  1  0  0  0
 59 62  1  0  0  0
 60128  1  0  0  0
 60129  1  0  0  0
 60130  1  0  0  0
 61131  1  0  0  0
 61132  1  0  0  0
 61133  1  0  0  0
 62134  1  0  0  0
 62135  1  0  0  0
 62136  1  0  0  0
 63 65  1  0  0  0
 63137  1  0  0  0
 63138  1  0  0  0
 63139  1  0  0  0
 64140  1  0  0  0
 65141  1  0  0  0
 68 79  1  0  0  0
 71 72  2  0  0  0
 71 80  1  0  0  0
 71142  1  0  0  0
 72 73  1  0  0  0
 73 81  2  0  0  0
 73 82  1  0  0  0
 74 77  1  0  0  0
 74 80  2  0  0  0
 74 81  1  0  0  0
 75 76  1  0  0  0
 75 77  1  0  0  0
 75143  1  0  0  0
 75144  1  0  0  0
 76 77  1  0  0  0
 76145  1  0  0  0
 76146  1  0  0  0
 77 79  1  0  0  0
 78 82  1  0  0  0
 78147  1  0  0  0
 78148  1  0  0  0
 78149  1  0  0  0
 79150  1  0  0  0
 79151  1  0  0  0
 82152  1  0  0  0
M  ISO  4   1 100  68 101  72 100  79 101
M  END
> <chiral flag>
0

> <version>
0

> <s_m_source_file>
/data/baiqing/PycharmProjects/Reinvent-master-3.2/result/LINK_invent/BTK/process_docking_weight1_custom_sum_contain_oxygen_bond_distance_aromatic_linkinvent_7_9_3/rearranged_h_0183.sdf

> <i_m_source_file_index>
30

> <r_mmod_Potential_Energy-OPLS-2005>
1763.31579589844

> <r_mmod_Stretch_Energy-OPLS-2005>
900.606140136719

> <r_mmod_Bend_Energy-OPLS-2005>
659.977355957031

> <r_mmod_Torsional_Energy-OPLS-2005>
221.567916870117

> <r_mmod_Improper_Torsional_Energy-OPLS-2005>
9.22826290130615

> <r_mmod_Van_der_Waal_Energy-OPLS-2005>
140.344345092773

> <r_mmod_Electrostatic_Energy-OPLS-2005>
-714.588623046875

> <r_mmod_Solvation_Energy-OPLS-2005>
-232.014846801758

> <b_mmod_Minimization_Converged-OPLS-2005>
0

> <r_mmod_RMS_Derivative-OPLS-2005>
0.389522433280945

$$$$
31
                    3D
 Structure written by MMmdl.
160170  0  0  1  0            999 V2000
  -30.5772  -14.9478   20.4077 C   0  0  0  0  0  0
  -30.4286  -12.5882   19.4957 C   0  0  0  0  0  0
  -29.5158  -12.5287   18.2513 C   0  0  0  0  0  0
  -28.0476  -12.3227   18.6682 C   0  0  0  0  0  0
  -27.6257  -13.2562   19.8351 C   0  0  2  0  0  0
  -28.6713  -13.3067   20.9686 C   0  0  0  0  0  0
  -25.2458  -13.8237   20.5732 C   0  0  0  0  0  0
  -24.1775  -13.0451   20.9226 C   0  0  0  0  0  0
  -24.6393  -11.6935   20.8751 C   0  0  0  0  0  0
  -23.9078  -10.4303   21.0395 C   0  0  0  0  0  0
  -24.3628   -9.4218   21.9180 C   0  0  0  0  0  0
  -23.6309   -8.2245   22.0747 C   0  0  0  0  0  0
  -22.4292   -8.0281   21.3540 C   0  0  0  0  0  0
  -21.9924   -9.0255   20.4640 C   0  0  0  0  0  0
  -22.7246  -10.2142   20.3048 C   0  0  0  0  0  0
  -21.6855   -6.0739   22.5280 C   0  0  0  0  0  0
  -21.4017   -6.5644   23.8214 C   0  0  0  0  0  0
  -21.3661   -5.6794   24.9175 C   0  0  0  0  0  0
  -21.6051   -4.3060   24.7223 C   0  0  0  0  0  0
  -21.8821   -3.8148   23.4344 C   0  0  0  0  0  0
  -21.9192   -4.6965   22.3401 C   0  0  0  0  0  0
  -22.7795  -13.5221   21.1888 C   0  0  0  0  0  0
  -22.1660   -4.2150   21.0979 F   0  0  0  0  0  0
  -21.5633   -3.4543   25.7734 F   0  0  0  0  0  0
  -29.9406  -13.7079   20.3520 N   0  0  0  0  0  0
  -26.2877  -12.9479   20.3263 N   0  0  0  0  0  0
  -25.9335  -11.6594   20.5740 N   0  0  0  0  0  0
  -22.0447  -12.8204   22.0437 N   0  0  0  0  0  0
  -25.4159  -15.1961   20.4184 N   0  0  0  0  0  0
  -31.7907  -14.9452   20.1682 O   0  0  0  0  0  0
  -21.6649   -6.8884   21.4243 O   0  0  0  0  0  0
  -22.3482  -14.5527   20.6738 O   0  0  0  0  0  0
  -24.6458  -31.8429   23.1878 C   0  0  0  0  0  0
  -25.9228  -32.4683   23.8263 C   0  0  1  0  0  0
  -27.2095  -27.1161   20.1458 C   0  0  0  0  0  0
  -25.5977  -33.8496   24.2183 N   0  0  0  0  0  0
  -23.4486  -30.4633   21.5356 C   0  0  2  0  0  0
  -24.8957  -28.8866   20.1141 C   0  0  0  0  0  0
  -22.7573  -29.4551   22.4872 C   0  0  0  0  0  0
  -18.0304  -28.1397   22.8475 C   0  0  0  0  0  0
  -24.1494  -36.7247   23.2637 C   0  0  0  0  0  0
  -26.0074  -30.7078   21.3910 C   0  0  0  0  0  0
  -26.0760  -29.3172   20.7332 C   0  0  0  0  0  0
  -27.2353  -28.4495   20.7305 C   0  0  0  0  0  0
  -26.0041  -26.7982   19.4814 C   0  0  0  0  0  0
  -24.8731  -27.6407   19.4737 C   0  0  0  0  0  0
  -23.6749  -29.7924   20.1557 C   0  0  0  0  0  0
  -25.4125  -36.3024   24.0312 C   0  0  1  0  0  0
  -20.5917  -28.3727   23.1236 C   0  0  2  0  0  0
  -20.6794  -26.9432   22.5405 C   0  0  0  0  0  0
  -19.5771  -26.6382   21.5214 C   0  0  0  0  0  0
  -18.1946  -26.7938   22.1617 C   0  0  0  0  0  0
  -19.1558  -28.8882   23.2844 C   0  0  0  0  0  0
  -18.9477  -30.1480   23.8871 C   0  0  0  0  0  0
  -17.6472  -30.6596   24.0555 C   0  0  0  0  0  0
  -25.9082  -34.9403   23.5051 C   0  0  0  0  0  0
  -16.5365  -29.9088   23.6336 C   0  0  0  0  0  0
  -16.7287  -28.6504   23.0360 C   0  0  0  0  0  0
  -26.4539  -31.6559   25.0713 C   0  0  0  0  0  0
  -25.3717  -31.3765   26.1404 C   0  0  0  0  0  0
  -27.0407  -30.2949   24.6319 C   0  0  0  0  0  0
  -27.6069  -32.4323   25.7508 C   0  0  0  0  0  0
  -27.5584  -37.1767   24.8452 C   0  0  0  0  0  0
  -21.4265  -29.3049   22.3609 N   0  0  0  0  0  0
  -26.4277  -37.3747   23.9422 N   0  0  0  0  0  0
  -24.7207  -31.0263   22.0926 N   0  0  0  0  0  0
  -23.4210  -28.8094   23.3021 O   0  0  0  0  0  0
  -28.2565  -26.1184   20.1677 O   0  0  0  0  0  0
  -26.5660  -34.8903   22.4627 O   0  0  0  0  0  0
  -23.5573  -32.1322   23.7088 O   0  0  0  0  0  0
  -30.7187  -22.6717   18.8317 C   0  0  0  0  0  0
  -28.9291  -23.3190   20.0051 C   0  0  0  0  0  0
  -29.6026  -21.0196   19.8876 C   0  0  0  0  0  0
  -31.5816  -23.7509   16.6064 C   0  0  0  0  0  0
  -32.0763  -22.3321   16.6038 C   0  0  0  0  0  0
  -30.5288  -18.6081   19.3806 C   0  0  0  0  0  0
  -28.8586  -18.6463   21.0591 C   0  0  0  0  0  0
  -30.0452  -17.1006   19.1142 C   0  0  0  0  0  0
  -29.4713  -17.1487   21.4011 C   0  0  0  0  0  0
  -31.8538  -23.0487   17.9238 C   0  0  0  0  0  0
  -27.9388  -24.5922   20.3693 C   0  0  0  0  0  0
  -29.9502  -23.6730   19.2374 N   0  0  0  0  0  0
  -30.6191  -21.3797   19.1223 N   0  0  0  0  0  0
  -28.7099  -21.9731   20.3641 N   0  0  0  0  0  0
  -29.5815  -19.5315   20.0876 N   0  0  0  0  0  0
  -29.8610  -16.1861   20.2924 N   0  0  0  0  0  0
  -31.4659  -12.7229   19.1843 H   0  0  0  0  0  0
  -30.4052  -11.6438   20.0417 H   0  0  0  0  0  0
  -29.8341  -11.7264   17.5849 H   0  0  0  0  0  0
  -29.6090  -13.4563   17.6840 H   0  0  0  0  0  0
  -27.9371  -11.2811   18.9713 H   0  0  0  0  0  0
  -27.3860  -12.4600   17.8124 H   0  0  0  0  0  0
  -27.5829  -14.2573   19.4039 H   0  0  0  0  0  0
  -28.7593  -12.3425   21.4706 H   0  0  0  0  0  0
  -28.3745  -14.0311   21.7291 H   0  0  0  0  0  0
  -25.2758   -9.5702   22.4774 H   0  0  0  0  0  0
  -24.0021   -7.4636   22.7462 H   0  0  0  0  0  0
  -21.0856   -8.8764   19.8952 H   0  0  0  0  0  0
  -22.3680  -10.9687   19.6167 H   0  0  0  0  0  0
  -21.2000   -7.6149   23.9722 H   0  0  0  0  0  0
  -21.1494   -6.0519   25.9086 H   0  0  0  0  0  0
  -22.0595   -2.7609   23.2833 H   0  0  0  0  0  0
  -22.4055  -11.9864   22.4829 H   0  0  0  0  0  0
  -21.1063  -13.1231   22.2643 H   0  0  0  0  0  0
  -24.6545  -15.8553   20.5365 H   0  0  0  0  0  0
  -26.2785  -15.6349   20.1227 H   0  0  0  0  0  0
  -26.7292  -32.5279   23.0986 H   0  0  0  0  0  0
  -25.0105  -33.9607   25.0316 H   0  0  0  0  0  0
  -22.7523  -31.2902   21.3804 H   0  0  0  0  0  0
  -23.3775  -35.9558   23.3253 H   0  0  0  0  0  0
  -24.3587  -36.8928   22.2062 H   0  0  0  0  0  0
  -23.7223  -37.6417   23.6708 H   0  0  0  0  0  0
  -26.1662  -31.4603   20.6170 H   0  0  0  0  0  0
  -26.8776  -30.7575   22.0341 H   0  0  0  0  0  0
  -28.1369  -28.7756   21.2305 H   0  0  0  0  0  0
  -25.9020  -25.8636   18.9527 H   0  0  0  0  0  0
  -23.9749  -27.3107   18.9693 H   0  0  0  0  0  0
  -23.8147  -30.5659   19.3999 H   0  0  0  0  0  0
  -22.7884  -29.2370   19.8434 H   0  0  0  0  0  0
  -25.1310  -36.1833   25.0801 H   0  0  0  0  0  0
  -21.0001  -28.3317   24.1360 H   0  0  0  0  0  0
  -20.5690  -26.2341   23.3626 H   0  0  0  0  0  0
  -21.6658  -26.7441   22.1200 H   0  0  0  0  0  0
  -19.6932  -25.6282   21.1268 H   0  0  0  0  0  0
  -19.6714  -27.3170   20.6729 H   0  0  0  0  0  0
  -17.4220  -26.6682   21.4016 H   0  0  0  0  0  0
  -18.0343  -26.0087   22.9018 H   0  0  0  0  0  0
  -19.7956  -30.7298   24.2230 H   0  0  0  0  0  0
  -17.5031  -31.6277   24.5151 H   0  0  0  0  0  0
  -15.5366  -30.2981   23.7689 H   0  0  0  0  0  0
  -15.8686  -28.0815   22.7099 H   0  0  0  0  0  0
  -24.5901  -30.7105   25.7720 H   0  0  0  0  0  0
  -24.8895  -32.2953   26.4754 H   0  0  0  0  0  0
  -25.7984  -30.8983   27.0227 H   0  0  0  0  0  0
  -26.3029  -29.6666   24.1311 H   0  0  0  0  0  0
  -27.3989  -29.7254   25.4903 H   0  0  0  0  0  0
  -27.8952  -30.4170   23.9661 H   0  0  0  0  0  0
  -27.2662  -33.3646   26.2027 H   0  0  0  0  0  0
  -28.3920  -32.6847   25.0367 H   0  0  0  0  0  0
  -28.0696  -31.8484   26.5472 H   0  0  0  0  0  0
  -28.2543  -38.0119   24.7568 H   0  0  0  0  0  0
  -28.1136  -36.2653   24.6185 H   0  0  0  0  0  0
  -27.2313  -37.1291   25.8851 H   0  0  0  0  0  0
  -20.9487  -29.8753   21.6773 H   0  0  0  0  0  0
  -26.0135  -38.2799   24.1476 H   0  0  0  0  0  0
  -30.5418  -23.9180   16.3328 H   0  0  0  0  0  0
  -32.2762  -24.5309   16.3007 H   0  0  0  0  0  0
  -33.1052  -22.1573   16.2958 H   0  0  0  0  0  0
  -31.3679  -21.5536   16.3266 H   0  0  0  0  0  0
  -30.7826  -19.0326   18.4083 H   0  0  0  0  0  0
  -31.4661  -18.5934   19.9389 H   0  0  0  0  0  0
  -28.7501  -19.2056   21.9894 H   0  0  0  0  0  0
  -27.8459  -18.5247   20.6749 H   0  0  0  0  0  0
  -30.7508  -16.6389   18.4204 H   0  0  0  0  0  0
  -29.0995  -17.1273   18.5706 H   0  0  0  0  0  0
  -28.7581  -16.6274   22.0412 H   0  0  0  0  0  0
  -30.3590  -17.2836   22.0210 H   0  0  0  0  0  0
  -32.7326  -23.3518   18.4899 H   0  0  0  0  0  0
  -27.6952  -24.4810   21.4260 H   0  0  0  0  0  0
  -27.0149  -24.3473   19.8511 H   0  0  0  0  0  0
  1 25  1  0  0  0
  1 30  2  0  0  0
  1 86  1  0  0  0
  2  3  1  0  0  0
  2 25  1  0  0  0
  2 87  1  0  0  0
  2 88  1  0  0  0
  3  4  1  0  0  0
  3 89  1  0  0  0
  3 90  1  0  0  0
  4  5  1  0  0  0
  4 91  1  0  0  0
  4 92  1  0  0  0
  5  6  1  0  0  0
  5 26  1  0  0  0
  5 93  1  0  0  0
  6 25  1  0  0  0
  6 94  1  0  0  0
  6 95  1  0  0  0
  7  8  2  0  0  0
  7 26  1  0  0  0
  7 29  1  0  0  0
  8  9  1  0  0  0
  8 22  1  0  0  0
  9 10  1  0  0  0
  9 27  2  0  0  0
 10 11  2  0  0  0
 10 15  1  0  0  0
 11 12  1  0  0  0
 11 96  1  0  0  0
 12 13  2  0  0  0
 12 97  1  0  0  0
 13 14  1  0  0  0
 13 31  1  0  0  0
 14 15  2  0  0  0
 14 98  1  0  0  0
 15 99  1  0  0  0
 16 17  2  0  0  0
 16 21  1  0  0  0
 16 31  1  0  0  0
 17 18  1  0  0  0
 17100  1  0  0  0
 18 19  2  0  0  0
 18101  1  0  0  0
 19 20  1  0  0  0
 19 24  1  0  0  0
 20 21  2  0  0  0
 20102  1  0  0  0
 21 23  1  0  0  0
 22 28  1  0  0  0
 22 32  2  0  0  0
 26 27  1  0  0  0
 28103  1  0  0  0
 28104  1  0  0  0
 29105  1  0  0  0
 29106  1  0  0  0
 33 34  1  0  0  0
 33 66  1  0  0  0
 33 70  2  0  0  0
 34 36  1  0  0  0
 34 59  1  0  0  0
 34107  1  0  0  0
 35 44  2  0  0  0
 35 45  1  0  0  0
 35 68  1  0  0  0
 36 56  1  0  0  0
 36108  1  0  0  0
 37 39  1  0  0  0
 37 47  1  0  0  0
 37 66  1  0  0  0
 37109  1  0  0  0
 38 43  2  0  0  0
 38 46  1  0  0  0
 38 47  1  0  0  0
 39 64  1  0  0  0
 39 67  2  0  0  0
 40 52  1  0  0  0
 40 53  2  0  0  0
 40 58  1  0  0  0
 41110  1  0  0  0
 41111  1  0  0  0
 41112  1  0  0  0
 41 48  1  0  0  0
 42 43  1  0  0  0
 42 66  1  0  0  0
 42113  1  0  0  0
 42114  1  0  0  0
 43 44  1  0  0  0
 44115  1  0  0  0
 45 46  2  0  0  0
 45116  1  0  0  0
 46117  1  0  0  0
 47118  1  0  0  0
 47119  1  0  0  0
 48 56  1  0  0  0
 48 65  1  0  0  0
 48120  1  0  0  0
 49 50  1  0  0  0
 49 53  1  0  0  0
 49 64  1  0  0  0
 49121  1  0  0  0
 50 51  1  0  0  0
 50122  1  0  0  0
 50123  1  0  0  0
 51 52  1  0  0  0
 51124  1  0  0  0
 51125  1  0  0  0
 52126  1  0  0  0
 52127  1  0  0  0
 53 54  1  0  0  0
 54 55  2  0  0  0
 54128  1  0  0  0
 55 57  1  0  0  0
 55129  1  0  0  0
 56 69  2  0  0  0
 57 58  2  0  0  0
 57130  1  0  0  0
 58131  1  0  0  0
 59 60  1  0  0  0
 59 61  1  0  0  0
 59 62  1  0  0  0
 60132  1  0  0  0
 60133  1  0  0  0
 60134  1  0  0  0
 61135  1  0  0  0
 61136  1  0  0  0
 61137  1  0  0  0
 62138  1  0  0  0
 62139  1  0  0  0
 62140  1  0  0  0
 63 65  1  0  0  0
 63141  1  0  0  0
 63142  1  0  0  0
 63143  1  0  0  0
 64144  1  0  0  0
 65145  1  0  0  0
 68 81  1  0  0  0
 71 82  2  0  0  0
 71 83  1  0  0  0
 71 80  1  0  0  0
 72 81  1  0  0  0
 72 82  1  0  0  0
 72 84  2  0  0  0
 73 83  2  0  0  0
 73 84  1  0  0  0
 73 85  1  0  0  0
 74 75  1  0  0  0
 74 80  1  0  0  0
 74146  1  0  0  0
 74147  1  0  0  0
 75 80  1  0  0  0
 75148  1  0  0  0
 75149  1  0  0  0
 76 78  1  0  0  0
 76 85  1  0  0  0
 76150  1  0  0  0
 76151  1  0  0  0
 77 79  1  0  0  0
 77 85  1  0  0  0
 77152  1  0  0  0
 77153  1  0  0  0
 78 86  1  0  0  0
 78154  1  0  0  0
 78155  1  0  0  0
 79 86  1  0  0  0
 79156  1  0  0  0
 79157  1  0  0  0
 80158  1  0  0  0
 81159  1  0  0  0
 81160  1  0  0  0
M  ISO  4   1 100  68 101  81 101  86 100
M  END
> <chiral flag>
0

> <version>
0

> <s_m_source_file>
/data/baiqing/PycharmProjects/Reinvent-master-3.2/result/LINK_invent/BTK/process_docking_weight1_custom_sum_contain_oxygen_bond_distance_aromatic_linkinvent_7_9_3/rearranged_h_0183.sdf

> <i_m_source_file_index>
31

> <r_mmod_Potential_Energy-OPLS-2005>
-36.2465553283691

> <r_mmod_Stretch_Energy-OPLS-2005>
243.443862915039

> <r_mmod_Bend_Energy-OPLS-2005>
277.092559814453

> <r_mmod_Torsional_Energy-OPLS-2005>
362.000610351562

> <r_mmod_Improper_Torsional_Energy-OPLS-2005>
15.8738679885864

> <r_mmod_Van_der_Waal_Energy-OPLS-2005>
163.291976928711

> <r_mmod_Electrostatic_Energy-OPLS-2005>
-1052.91223144531

> <r_mmod_Solvation_Energy-OPLS-2005>
-243.844192504883

> <b_mmod_Minimization_Converged-OPLS-2005>
0

> <r_mmod_RMS_Derivative-OPLS-2005>
1.54466676712036

$$$$
32
                    3D
 Structure written by MMmdl.
151160  0  0  1  0            999 V2000
  -30.2909  -15.6904   20.3462 C   0  0  0  0  0  0
  -30.4214  -13.1227   19.5450 C   0  0  0  0  0  0
  -29.5522  -12.6745   18.3327 C   0  0  0  0  0  0
  -28.1292  -12.3061   18.7760 C   0  0  0  0  0  0
  -27.5963  -13.3132   19.8188 C   0  0  2  0  0  0
  -28.6123  -13.6503   20.9376 C   0  0  0  0  0  0
  -25.2297  -13.8279   20.5785 C   0  0  0  0  0  0
  -24.1701  -13.0424   20.9290 C   0  0  0  0  0  0
  -24.6418  -11.6943   20.8772 C   0  0  0  0  0  0
  -23.9122  -10.4290   21.0399 C   0  0  0  0  0  0
  -24.3655   -9.4203   21.9183 C   0  0  0  0  0  0
  -23.6311   -8.2247   22.0756 C   0  0  0  0  0  0
  -22.4293   -8.0289   21.3546 C   0  0  0  0  0  0
  -21.9942   -9.0264   20.4645 C   0  0  0  0  0  0
  -22.7288  -10.2134   20.3050 C   0  0  0  0  0  0
  -21.6859   -6.0742   22.5280 C   0  0  0  0  0  0
  -21.4018   -6.5642   23.8214 C   0  0  0  0  0  0
  -21.3659   -5.6794   24.9175 C   0  0  0  0  0  0
  -21.6043   -4.3056   24.7225 C   0  0  0  0  0  0
  -21.8818   -3.8150   23.4346 C   0  0  0  0  0  0
  -21.9194   -4.6968   22.3402 C   0  0  0  0  0  0
  -22.7712  -13.5157   21.1916 C   0  0  0  0  0  0
  -22.1662   -4.2152   21.0980 F   0  0  0  0  0  0
  -21.5626   -3.4539   25.7737 F   0  0  0  0  0  0
  -29.7748  -14.3092   20.2852 N   0  0  0  0  0  0
  -26.2773  -12.9632   20.3264 N   0  0  0  0  0  0
  -25.9371  -11.6697   20.5722 N   0  0  0  0  0  0
  -22.0377  -12.8137   22.0469 N   0  0  0  0  0  0
  -25.3827  -15.2012   20.4176 N   0  0  0  0  0  0
  -31.5162  -15.6138   20.1160 O   0  0  0  0  0  0
  -21.6647   -6.8890   21.4244 O   0  0  0  0  0  0
  -22.3388  -14.5458   20.6754 O   0  0  0  0  0  0
  -24.6880  -31.7943   23.1465 C   0  0  0  0  0  0
  -25.9441  -32.4437   23.8026 C   0  0  1  0  0  0
  -27.2311  -26.6569   20.2178 C   0  0  0  0  0  0
  -25.6004  -33.8263   24.1912 N   0  0  0  0  0  0
  -23.5162  -30.3940   21.5012 C   0  0  2  0  0  0
  -24.9748  -28.7243   20.1175 C   0  0  0  0  0  0
  -22.7785  -29.4290   22.4690 C   0  0  0  0  0  0
  -18.0345  -28.1425   22.8454 C   0  0  0  0  0  0
  -24.1498  -36.7138   23.2655 C   0  0  0  0  0  0
  -26.0987  -30.5120   21.4177 C   0  0  0  0  0  0
  -26.1640  -29.0719   20.7684 C   0  0  0  0  0  0
  -27.2736  -28.0677   20.7844 C   0  0  0  0  0  0
  -26.0081  -26.5307   19.5065 C   0  0  0  0  0  0
  -24.9384  -27.4800   19.4628 C   0  0  0  0  0  0
  -23.7726  -29.6853   20.1389 C   0  0  0  0  0  0
  -25.4151  -36.2873   24.0277 C   0  0  1  0  0  0
  -20.5983  -28.3788   23.1132 C   0  0  2  0  0  0
  -20.6811  -26.9442   22.5403 C   0  0  0  0  0  0
  -19.5788  -26.6370   21.5219 C   0  0  0  0  0  0
  -18.1970  -26.7952   22.1619 C   0  0  0  0  0  0
  -19.1612  -28.8931   23.2775 C   0  0  0  0  0  0
  -18.9518  -30.1514   23.8822 C   0  0  0  0  0  0
  -17.6508  -30.6606   24.0551 C   0  0  0  0  0  0
  -25.9133  -34.9268   23.4933 C   0  0  0  0  0  0
  -16.5398  -29.9088   23.6354 C   0  0  0  0  0  0
  -16.7326  -28.6512   23.0369 C   0  0  0  0  0  0
  -26.4603  -31.6491   25.0669 C   0  0  0  0  0  0
  -25.3654  -31.3826   26.1273 C   0  0  0  0  0  0
  -27.0544  -30.2823   24.6604 C   0  0  0  0  0  0
  -27.6041  -32.4363   25.7489 C   0  0  0  0  0  0
  -27.5559  -37.1731   24.8471 C   0  0  0  0  0  0
  -21.4427  -29.3028   22.3444 N   0  0  0  0  0  0
  -26.4272  -37.3639   23.9402 N   0  0  0  0  0  0
  -24.7915  -30.9342   22.0743 N   0  0  0  0  0  0
  -23.4209  -28.7900   23.3057 O   0  0  0  0  0  0
  -28.1944  -25.4231   20.3065 O   0  0  0  0  0  0
  -26.5776  -34.8857   22.4553 O   0  0  0  0  0  0
  -23.5891  -32.1038   23.6396 O   0  0  0  0  0  0
  -28.0360  -18.5447   21.9160 C   0  0  0  0  0  0
  -28.9913  -20.2817   19.5520 C   0  0  0  0  0  0
  -28.4844  -17.0969   21.4893 C   0  0  0  0  0  0
  -29.7281  -18.8564   20.3659 C   0  0  1  0  0  0
  -29.1787  -19.5449   21.6704 C   0  0  1  0  0  0
  -28.9355  -21.8920   20.3469 C   0  0  1  0  0  0
  -28.0459  -23.6502   20.1145 C   0  0  0  0  0  0
  -29.5428  -17.0859   20.4536 N   0  0  0  0  0  0
  -28.7843  -21.0887   21.6468 N   0  3  0  0  0  0
  -31.4099  -13.3902   19.1703 H   0  0  0  0  0  0
  -30.6011  -12.2852   20.2213 H   0  0  0  0  0  0
  -30.0172  -11.8324   17.8183 H   0  0  0  0  0  0
  -29.5055  -13.4891   17.6084 H   0  0  0  0  0  0
  -28.1643  -11.3100   19.2192 H   0  0  0  0  0  0
  -27.4602  -12.2399   17.9173 H   0  0  0  0  0  0
  -27.4565  -14.2339   19.2505 H   0  0  0  0  0  0
  -28.8904  -12.7633   21.5087 H   0  0  0  0  0  0
  -28.1647  -14.3333   21.6580 H   0  0  0  0  0  0
  -25.2794   -9.5675   22.4770 H   0  0  0  0  0  0
  -24.0009   -7.4640   22.7483 H   0  0  0  0  0  0
  -21.0870   -8.8795   19.8953 H   0  0  0  0  0  0
  -22.3748  -10.9676   19.6163 H   0  0  0  0  0  0
  -21.2014   -7.6151   23.9719 H   0  0  0  0  0  0
  -21.1479   -6.0523   25.9077 H   0  0  0  0  0  0
  -22.0595   -2.7611   23.2846 H   0  0  0  0  0  0
  -22.4014  -11.9813   22.4866 H   0  0  0  0  0  0
  -21.0983  -13.1135   22.2663 H   0  0  0  0  0  0
  -24.6069  -15.8442   20.5322 H   0  0  0  0  0  0
  -26.2170  -15.6456   20.0585 H   0  0  0  0  0  0
  -26.7525  -32.4892   23.0736 H   0  0  0  0  0  0
  -25.0068  -33.9292   25.0009 H   0  0  0  0  0  0
  -22.8450  -31.2331   21.3067 H   0  0  0  0  0  0
  -23.3774  -35.9455   23.3276 H   0  0  0  0  0  0
  -24.3562  -36.8839   22.2077 H   0  0  0  0  0  0
  -23.7249  -37.6302   23.6761 H   0  0  0  0  0  0
  -26.3072  -31.2347   20.6277 H   0  0  0  0  0  0
  -26.9479  -30.5807   22.0853 H   0  0  0  0  0  0
  -28.1666  -28.3419   21.3282 H   0  0  0  0  0  0
  -25.8340  -25.5919   19.0002 H   0  0  0  0  0  0
  -24.0421  -27.2042   18.9241 H   0  0  0  0  0  0
  -23.9500  -30.4430   19.3748 H   0  0  0  0  0  0
  -22.8763  -29.1537   19.8145 H   0  0  0  0  0  0
  -25.1367  -36.1629   25.0768 H   0  0  0  0  0  0
  -21.0072  -28.3418   24.1256 H   0  0  0  0  0  0
  -20.5675  -26.2414   23.3669 H   0  0  0  0  0  0
  -21.6672  -26.7379   22.1222 H   0  0  0  0  0  0
  -19.6945  -25.6262   21.1296 H   0  0  0  0  0  0
  -19.6733  -27.3142   20.6720 H   0  0  0  0  0  0
  -17.4241  -26.6699   21.4020 H   0  0  0  0  0  0
  -18.0353  -26.0112   22.9030 H   0  0  0  0  0  0
  -19.7995  -30.7350   24.2154 H   0  0  0  0  0  0
  -17.5061  -31.6279   24.5166 H   0  0  0  0  0  0
  -15.5396  -30.2967   23.7723 H   0  0  0  0  0  0
  -15.8726  -28.0807   22.7127 H   0  0  0  0  0  0
  -24.5870  -30.7145   25.7566 H   0  0  0  0  0  0
  -24.8812  -32.3054   26.4474 H   0  0  0  0  0  0
  -25.7817  -30.9131   27.0195 H   0  0  0  0  0  0
  -26.3272  -29.6420   24.1603 H   0  0  0  0  0  0
  -27.3959  -29.7291   25.5364 H   0  0  0  0  0  0
  -27.9254  -30.3933   24.0145 H   0  0  0  0  0  0
  -27.2575  -33.3745   26.1835 H   0  0  0  0  0  0
  -28.3967  -32.6796   25.0401 H   0  0  0  0  0  0
  -28.0581  -31.8648   26.5594 H   0  0  0  0  0  0
  -28.2556  -38.0043   24.7492 H   0  0  0  0  0  0
  -28.1071  -36.2562   24.6333 H   0  0  0  0  0  0
  -27.2268  -37.1408   25.8872 H   0  0  0  0  0  0
  -20.9740  -29.8671   21.6492 H   0  0  0  0  0  0
  -26.0093  -38.2687   24.1401 H   0  0  0  0  0  0
  -27.7052  -18.5650   22.9550 H   0  0  0  0  0  0
  -27.1719  -18.8296   21.3144 H   0  0  0  0  0  0
  -27.9596  -20.0148   19.3160 H   0  0  0  0  0  0
  -29.4611  -20.3986   18.5752 H   0  0  0  0  0  0
  -27.6218  -16.5319   21.1429 H   0  0  0  0  0  0
  -28.8625  -16.5808   22.3737 H   0  0  0  0  0  0
  -30.8059  -19.0164   20.3203 H   0  0  0  0  0  0
  -29.9175  -19.4128   22.4626 H   0  0  0  0  0  0
  -29.9847  -22.1867   20.3194 H   0  0  0  0  0  0
  -27.0567  -23.4741   20.5363 H   0  0  0  0  0  0
  -27.8574  -23.6286   19.0413 H   0  0  0  0  0  0
  -29.3158  -21.5574   22.3646 H   0  0  0  0  0  0
  -27.8224  -21.1532   21.9401 H   0  0  0  0  0  0
  1 25  1  0  0  0
  1 30  2  0  0  0
  1 78  1  0  0  0
  2  3  1  0  0  0
  2 25  1  0  0  0
  2 80  1  0  0  0
  2 81  1  0  0  0
  3  4  1  0  0  0
  3 82  1  0  0  0
  3 83  1  0  0  0
  4  5  1  0  0  0
  4 84  1  0  0  0
  4 85  1  0  0  0
  5  6  1  0  0  0
  5 26  1  0  0  0
  5 86  1  0  0  0
  6 25  1  0  0  0
  6 87  1  0  0  0
  6 88  1  0  0  0
  7  8  2  0  0  0
  7 26  1  0  0  0
  7 29  1  0  0  0
  8  9  1  0  0  0
  8 22  1  0  0  0
  9 10  1  0  0  0
  9 27  2  0  0  0
 10 11  2  0  0  0
 10 15  1  0  0  0
 11 12  1  0  0  0
 11 89  1  0  0  0
 12 13  2  0  0  0
 12 90  1  0  0  0
 13 14  1  0  0  0
 13 31  1  0  0  0
 14 15  2  0  0  0
 14 91  1  0  0  0
 15 92  1  0  0  0
 16 17  2  0  0  0
 16 21  1  0  0  0
 16 31  1  0  0  0
 17 18  1  0  0  0
 17 93  1  0  0  0
 18 19  2  0  0  0
 18 94  1  0  0  0
 19 20  1  0  0  0
 19 24  1  0  0  0
 20 21  2  0  0  0
 20 95  1  0  0  0
 21 23  1  0  0  0
 22 28  1  0  0  0
 22 32  2  0  0  0
 26 27  1  0  0  0
 28 96  1  0  0  0
 28 97  1  0  0  0
 29 98  1  0  0  0
 29 99  1  0  0  0
 33 34  1  0  0  0
 33 66  1  0  0  0
 33 70  2  0  0  0
 34 36  1  0  0  0
 34 59  1  0  0  0
 34100  1  0  0  0
 35 44  2  0  0  0
 35 45  1  0  0  0
 35 68  1  0  0  0
 36 56  1  0  0  0
 36101  1  0  0  0
 37 39  1  0  0  0
 37 47  1  0  0  0
 37 66  1  0  0  0
 37102  1  0  0  0
 38 43  2  0  0  0
 38 46  1  0  0  0
 38 47  1  0  0  0
 39 64  1  0  0  0
 39 67  2  0  0  0
 40 52  1  0  0  0
 40 53  2  0  0  0
 40 58  1  0  0  0
 41103  1  0  0  0
 41104  1  0  0  0
 41105  1  0  0  0
 41 48  1  0  0  0
 42 43  1  0  0  0
 42 66  1  0  0  0
 42106  1  0  0  0
 42107  1  0  0  0
 43 44  1  0  0  0
 44108  1  0  0  0
 45 46  2  0  0  0
 45109  1  0  0  0
 46110  1  0  0  0
 47111  1  0  0  0
 47112  1  0  0  0
 48 56  1  0  0  0
 48 65  1  0  0  0
 48113  1  0  0  0
 49 50  1  0  0  0
 49 53  1  0  0  0
 49 64  1  0  0  0
 49114  1  0  0  0
 50 51  1  0  0  0
 50115  1  0  0  0
 50116  1  0  0  0
 51 52  1  0  0  0
 51117  1  0  0  0
 51118  1  0  0  0
 52119  1  0  0  0
 52120  1  0  0  0
 53 54  1  0  0  0
 54 55  2  0  0  0
 54121  1  0  0  0
 55 57  1  0  0  0
 55122  1  0  0  0
 56 69  2  0  0  0
 57 58  2  0  0  0
 57123  1  0  0  0
 58124  1  0  0  0
 59 60  1  0  0  0
 59 61  1  0  0  0
 59 62  1  0  0  0
 60125  1  0  0  0
 60126  1  0  0  0
 60127  1  0  0  0
 61128  1  0  0  0
 61129  1  0  0  0
 61130  1  0  0  0
 62131  1  0  0  0
 62132  1  0  0  0
 62133  1  0  0  0
 63 65  1  0  0  0
 63134  1  0  0  0
 63135  1  0  0  0
 63136  1  0  0  0
 64137  1  0  0  0
 65138  1  0  0  0
 68 77  1  0  0  0
 71 73  1  0  0  0
 71139  1  0  0  0
 71140  1  0  0  0
 71 75  1  0  0  0
 72 76  1  0  0  0
 72141  1  0  0  0
 72142  1  0  0  0
 72 74  1  0  0  0
 73 78  1  0  0  0
 73143  1  0  0  0
 73144  1  0  0  0
 74 75  1  0  0  0
 74 78  1  0  0  0
 74145  1  0  0  0
 75 79  1  0  0  0
 75146  1  0  0  0
 76 77  1  0  0  0
 76 79  1  0  0  0
 76147  1  0  0  0
 77148  1  0  0  0
 77149  1  0  0  0
 79150  1  0  0  0
 79151  1  0  0  0
M  CHG  1  79   1
M  ISO  4   1 100  68 101  77 101  78 100
M  END
> <chiral flag>
0

> <version>
0

> <s_m_source_file>
/data/baiqing/PycharmProjects/Reinvent-master-3.2/result/LINK_invent/BTK/process_docking_weight1_custom_sum_contain_oxygen_bond_distance_aromatic_linkinvent_7_9_3/rearranged_h_0183.sdf

> <i_m_source_file_index>
32

> <r_mmod_Potential_Energy-OPLS-2005>
2767.95678710938

> <r_mmod_Stretch_Energy-OPLS-2005>
1137.06677246094

> <r_mmod_Bend_Energy-OPLS-2005>
797.655822753906

> <r_mmod_Torsional_Energy-OPLS-2005>
387.337738037109

> <r_mmod_Improper_Torsional_Energy-OPLS-2005>
7.10671186447144

> <r_mmod_Van_der_Waal_Energy-OPLS-2005>
106.324638366699

> <r_mmod_Electrostatic_Energy-OPLS-2005>
-184.240798950195

> <r_mmod_Solvation_Energy-OPLS-2005>
-465.552551269531

> <b_mmod_Minimization_Converged-OPLS-2005>
0

> <r_mmod_RMS_Derivative-OPLS-2005>
0.444415986537933

$$$$
33
                    3D
 Structure written by MMmdl.
157166  0  0  1  0            999 V2000
  -30.5990  -14.8039   20.4430 C   0  0  0  0  0  0
  -30.4164  -12.4929   19.4834 C   0  0  0  0  0  0
  -29.5039  -12.5127   18.2391 C   0  0  0  0  0  0
  -28.0313  -12.3286   18.6537 C   0  0  0  0  0  0
  -27.6276  -13.2423   19.8421 C   0  0  2  0  0  0
  -28.6683  -13.2068   20.9786 C   0  0  0  0  0  0
  -25.2414  -13.8233   20.5682 C   0  0  0  0  0  0
  -24.1746  -13.0439   20.9215 C   0  0  0  0  0  0
  -24.6380  -11.6935   20.8768 C   0  0  0  0  0  0
  -23.9077  -10.4289   21.0414 C   0  0  0  0  0  0
  -24.3620   -9.4201   21.9185 C   0  0  0  0  0  0
  -23.6276   -8.2245   22.0759 C   0  0  0  0  0  0
  -22.4253   -8.0293   21.3551 C   0  0  0  0  0  0
  -21.9906   -9.0266   20.4641 C   0  0  0  0  0  0
  -22.7251  -10.2130   20.3048 C   0  0  0  0  0  0
  -21.6834   -6.0722   22.5272 C   0  0  0  0  0  0
  -21.3996   -6.5627   23.8210 C   0  0  0  0  0  0
  -21.3664   -5.6779   24.9173 C   0  0  0  0  0  0
  -21.6051   -4.3044   24.7207 C   0  0  0  0  0  0
  -21.8813   -3.8132   23.4329 C   0  0  0  0  0  0
  -21.9185   -4.6954   22.3386 C   0  0  0  0  0  0
  -22.7762  -13.5199   21.1857 C   0  0  0  0  0  0
  -22.1654   -4.2143   21.0961 F   0  0  0  0  0  0
  -21.5652   -3.4530   25.7730 F   0  0  0  0  0  0
  -29.9525  -13.5832   20.3805 N   0  0  0  0  0  0
  -26.2849  -12.9457   20.3247 N   0  0  0  0  0  0
  -25.9303  -11.6595   20.5759 N   0  0  0  0  0  0
  -22.0428  -12.8168   22.0425 N   0  0  0  0  0  0
  -25.4015  -15.1954   20.4057 N   0  0  0  0  0  0
  -31.8026  -14.8223   20.1599 O   0  0  0  0  0  0
  -21.6621   -6.8878   21.4235 O   0  0  0  0  0  0
  -22.3438  -14.5510   20.6717 O   0  0  0  0  0  0
  -24.6358  -31.8533   23.1963 C   0  0  0  0  0  0
  -25.9166  -32.4741   23.8324 C   0  0  1  0  0  0
  -27.2077  -27.2226   20.1389 C   0  0  0  0  0  0
  -25.5955  -33.8544   24.2237 N   0  0  0  0  0  0
  -23.4358  -30.4742   21.5416 C   0  0  2  0  0  0
  -24.8836  -28.9207   20.1083 C   0  0  0  0  0  0
  -22.7537  -29.4579   22.4894 C   0  0  0  0  0  0
  -18.0292  -28.1392   22.8478 C   0  0  0  0  0  0
  -24.1486  -36.7262   23.2644 C   0  0  0  0  0  0
  -25.9851  -30.7539   21.3835 C   0  0  0  0  0  0
  -26.0592  -29.3734   20.7243 C   0  0  0  0  0  0
  -27.2302  -28.5392   20.7253 C   0  0  0  0  0  0
  -26.0183  -26.8584   19.4743 C   0  0  0  0  0  0
  -24.8710  -27.6734   19.4676 C   0  0  0  0  0  0
  -23.6557  -29.8113   20.1578 C   0  0  0  0  0  0
  -25.4123  -36.3049   24.0310 C   0  0  1  0  0  0
  -20.5898  -28.3705   23.1252 C   0  0  2  0  0  0
  -20.6786  -26.9422   22.5396 C   0  0  0  0  0  0
  -19.5765  -26.6385   21.5199 C   0  0  0  0  0  0
  -18.1941  -26.7940   22.1606 C   0  0  0  0  0  0
  -19.1547  -28.8863   23.2854 C   0  0  0  0  0  0
  -18.9468  -30.1453   23.8879 C   0  0  0  0  0  0
  -17.6473  -30.6592   24.0544 C   0  0  0  0  0  0
  -25.9070  -34.9422   23.5070 C   0  0  0  0  0  0
  -16.5359  -29.9082   23.6330 C   0  0  0  0  0  0
  -16.7278  -28.6494   23.0362 C   0  0  0  0  0  0
  -26.4523  -31.6588   25.0732 C   0  0  0  0  0  0
  -25.3719  -31.3719   26.1421 C   0  0  0  0  0  0
  -27.0403  -30.3008   24.6249 C   0  0  0  0  0  0
  -27.6062  -32.4347   25.7514 C   0  0  0  0  0  0
  -27.5568  -37.1788   24.8466 C   0  0  0  0  0  0
  -21.4240  -29.3047   22.3639 N   0  0  0  0  0  0
  -26.4285  -37.3759   23.9412 N   0  0  0  0  0  0
  -24.7051  -31.0462   22.0960 N   0  0  0  0  0  0
  -23.4208  -28.8128   23.3019 O   0  0  0  0  0  0
  -28.2402  -26.2458   20.1874 O   0  0  0  0  0  0
  -26.5649  -34.8903   22.4645 O   0  0  0  0  0  0
  -23.5486  -32.1379   23.7218 O   0  0  0  0  0  0
  -28.9659  -22.6510   21.6538 C   0  0  0  0  0  0
  -28.4565  -21.3737   19.3667 C   0  0  0  0  0  0
  -28.4765  -23.4441   20.5621 C   0  0  0  0  0  0
  -28.9025  -20.5735   20.4812 C   0  0  0  0  0  0
  -29.3713  -18.3516   19.2496 C   0  0  0  0  0  0
  -30.3594  -17.1301   19.4780 C   0  0  0  0  0  0
  -28.9360  -16.6044   21.3558 C   0  0  0  0  0  0
  -29.0039  -18.1915   21.6632 C   0  0  2  0  0  0
  -27.8315  -18.5290   22.6083 C   0  0  0  0  0  0
  -27.8516  -24.9165   20.8180 C   0  0  0  0  0  0
  -28.2348  -22.7471   19.4029 N   0  0  0  0  0  0
  -29.1751  -21.2832   21.6184 N   0  0  0  0  0  0
  -29.0503  -19.1053   20.4761 N   0  0  0  0  0  0
  -29.8782  -16.0160   20.3544 N   0  0  0  0  0  0
  -31.4587  -12.6094   19.1812 H   0  0  0  0  0  0
  -30.3616  -11.5275   19.9903 H   0  0  0  0  0  0
  -29.7980  -11.7297   17.5384 H   0  0  0  0  0  0
  -29.6216  -13.4605   17.7112 H   0  0  0  0  0  0
  -27.8995  -11.2835   18.9341 H   0  0  0  0  0  0
  -27.3729  -12.4987   17.8008 H   0  0  0  0  0  0
  -27.6125  -14.2577   19.4483 H   0  0  0  0  0  0
  -28.7201  -12.2148   21.4320 H   0  0  0  0  0  0
  -28.3914  -13.8916   21.7793 H   0  0  0  0  0  0
  -25.2760   -9.5676   22.4759 H   0  0  0  0  0  0
  -23.9982   -7.4626   22.7478 H   0  0  0  0  0  0
  -21.0850   -8.8790   19.8924 H   0  0  0  0  0  0
  -22.3730  -10.9668   19.6154 H   0  0  0  0  0  0
  -21.1974   -7.6129   23.9707 H   0  0  0  0  0  0
  -21.1495   -6.0503   25.9079 H   0  0  0  0  0  0
  -22.0580   -2.7591   23.2824 H   0  0  0  0  0  0
  -22.4059  -11.9832   22.4792 H   0  0  0  0  0  0
  -21.1053  -13.1178   22.2671 H   0  0  0  0  0  0
  -24.6241  -15.8380   20.5137 H   0  0  0  0  0  0
  -26.2391  -15.6427   20.0571 H   0  0  0  0  0  0
  -26.7241  -32.5385   23.1076 H   0  0  0  0  0  0
  -25.0096  -33.9686   25.0374 H   0  0  0  0  0  0
  -22.7320  -31.2960   21.3966 H   0  0  0  0  0  0
  -23.3753  -35.9584   23.3297 H   0  0  0  0  0  0
  -24.3565  -36.8917   22.2065 H   0  0  0  0  0  0
  -23.7219  -37.6442   23.6698 H   0  0  0  0  0  0
  -26.1284  -31.5133   20.6141 H   0  0  0  0  0  0
  -26.8606  -30.8058   22.0187 H   0  0  0  0  0  0
  -28.1287  -28.8763   21.2237 H   0  0  0  0  0  0
  -25.9601  -25.9016   18.9753 H   0  0  0  0  0  0
  -23.9764  -27.3269   18.9694 H   0  0  0  0  0  0
  -23.7812  -30.5897   19.4032 H   0  0  0  0  0  0
  -22.7733  -29.2479   19.8526 H   0  0  0  0  0  0
  -25.1297  -36.1894   25.0796 H   0  0  0  0  0  0
  -20.9980  -28.3302   24.1376 H   0  0  0  0  0  0
  -20.5701  -26.2310   23.3598 H   0  0  0  0  0  0
  -21.6657  -26.7469   22.1188 H   0  0  0  0  0  0
  -19.6930  -25.6291   21.1244 H   0  0  0  0  0  0
  -19.6704  -27.3167   20.6711 H   0  0  0  0  0  0
  -17.4217  -26.6670   21.3999 H   0  0  0  0  0  0
  -18.0336  -26.0074   22.8994 H   0  0  0  0  0  0
  -19.7952  -30.7257   24.2257 H   0  0  0  0  0  0
  -17.5036  -31.6274   24.5149 H   0  0  0  0  0  0
  -15.5354  -30.2980   23.7676 H   0  0  0  0  0  0
  -15.8671  -28.0794   22.7113 H   0  0  0  0  0  0
  -24.5903  -30.7082   25.7717 H   0  0  0  0  0  0
  -24.8893  -32.2871   26.4851 H   0  0  0  0  0  0
  -25.8009  -30.8875   27.0201 H   0  0  0  0  0  0
  -26.3009  -29.6722   24.1278 H   0  0  0  0  0  0
  -27.4096  -29.7310   25.4793 H   0  0  0  0  0  0
  -27.8882  -30.4306   23.9518 H   0  0  0  0  0  0
  -27.2693  -33.3703   26.1994 H   0  0  0  0  0  0
  -28.3925  -32.6815   25.0367 H   0  0  0  0  0  0
  -28.0672  -31.8525   26.5509 H   0  0  0  0  0  0
  -28.2577  -38.0098   24.7535 H   0  0  0  0  0  0
  -28.1073  -36.2618   24.6289 H   0  0  0  0  0  0
  -27.2266  -37.1446   25.8863 H   0  0  0  0  0  0
  -20.9426  -29.8762   21.6840 H   0  0  0  0  0  0
  -26.0150  -38.2818   24.1443 H   0  0  0  0  0  0
  -29.1132  -23.1071   22.6217 H   0  0  0  0  0  0
  -28.2134  -20.8987   18.4276 H   0  0  0  0  0  0
  -28.4396  -17.9910   18.8085 H   0  0  0  0  0  0
  -29.8063  -19.0268   18.5131 H   0  0  0  0  0  0
  -31.2994  -17.5069   19.8846 H   0  0  0  0  0  0
  -30.6067  -16.7108   18.4998 H   0  0  0  0  0  0
  -27.9318  -16.3642   21.0040 H   0  0  0  0  0  0
  -29.0475  -16.0598   22.2948 H   0  0  0  0  0  0
  -29.9296  -18.3709   22.2119 H   0  0  0  0  0  0
  -26.8702  -18.4324   22.1021 H   0  0  0  0  0  0
  -27.8875  -19.5319   23.0253 H   0  0  0  0  0  0
  -27.8116  -17.8492   23.4612 H   0  0  0  0  0  0
  -27.9880  -25.0971   21.8835 H   0  0  0  0  0  0
  -26.7781  -24.7642   20.7264 H   0  0  0  0  0  0
  1 25  1  0  0  0
  1 30  2  0  0  0
  1 84  1  0  0  0
  2  3  1  0  0  0
  2 25  1  0  0  0
  2 85  1  0  0  0
  2 86  1  0  0  0
  3  4  1  0  0  0
  3 87  1  0  0  0
  3 88  1  0  0  0
  4  5  1  0  0  0
  4 89  1  0  0  0
  4 90  1  0  0  0
  5  6  1  0  0  0
  5 26  1  0  0  0
  5 91  1  0  0  0
  6 25  1  0  0  0
  6 92  1  0  0  0
  6 93  1  0  0  0
  7  8  2  0  0  0
  7 26  1  0  0  0
  7 29  1  0  0  0
  8  9  1  0  0  0
  8 22  1  0  0  0
  9 10  1  0  0  0
  9 27  2  0  0  0
 10 11  2  0  0  0
 10 15  1  0  0  0
 11 12  1  0  0  0
 11 94  1  0  0  0
 12 13  2  0  0  0
 12 95  1  0  0  0
 13 14  1  0  0  0
 13 31  1  0  0  0
 14 15  2  0  0  0
 14 96  1  0  0  0
 15 97  1  0  0  0
 16 17  2  0  0  0
 16 21  1  0  0  0
 16 31  1  0  0  0
 17 18  1  0  0  0
 17 98  1  0  0  0
 18 19  2  0  0  0
 18 99  1  0  0  0
 19 20  1  0  0  0
 19 24  1  0  0  0
 20 21  2  0  0  0
 20100  1  0  0  0
 21 23  1  0  0  0
 22 28  1  0  0  0
 22 32  2  0  0  0
 26 27  1  0  0  0
 28101  1  0  0  0
 28102  1  0  0  0
 29103  1  0  0  0
 29104  1  0  0  0
 33 34  1  0  0  0
 33 66  1  0  0  0
 33 70  2  0  0  0
 34 36  1  0  0  0
 34 59  1  0  0  0
 34105  1  0  0  0
 35 44  2  0  0  0
 35 45  1  0  0  0
 35 68  1  0  0  0
 36 56  1  0  0  0
 36106  1  0  0  0
 37 39  1  0  0  0
 37 47  1  0  0  0
 37 66  1  0  0  0
 37107  1  0  0  0
 38 43  2  0  0  0
 38 46  1  0  0  0
 38 47  1  0  0  0
 39 64  1  0  0  0
 39 67  2  0  0  0
 40 52  1  0  0  0
 40 53  2  0  0  0
 40 58  1  0  0  0
 41108  1  0  0  0
 41109  1  0  0  0
 41110  1  0  0  0
 41 48  1  0  0  0
 42 43  1  0  0  0
 42 66  1  0  0  0
 42111  1  0  0  0
 42112  1  0  0  0
 43 44  1  0  0  0
 44113  1  0  0  0
 45 46  2  0  0  0
 45114  1  0  0  0
 46115  1  0  0  0
 47116  1  0  0  0
 47117  1  0  0  0
 48 56  1  0  0  0
 48 65  1  0  0  0
 48118  1  0  0  0
 49 50  1  0  0  0
 49 53  1  0  0  0
 49 64  1  0  0  0
 49119  1  0  0  0
 50 51  1  0  0  0
 50120  1  0  0  0
 50121  1  0  0  0
 51 52  1  0  0  0
 51122  1  0  0  0
 51123  1  0  0  0
 52124  1  0  0  0
 52125  1  0  0  0
 53 54  1  0  0  0
 54 55  2  0  0  0
 54126  1  0  0  0
 55 57  1  0  0  0
 55127  1  0  0  0
 56 69  2  0  0  0
 57 58  2  0  0  0
 57128  1  0  0  0
 58129  1  0  0  0
 59 60  1  0  0  0
 59 61  1  0  0  0
 59 62  1  0  0  0
 60130  1  0  0  0
 60131  1  0  0  0
 60132  1  0  0  0
 61133  1  0  0  0
 61134  1  0  0  0
 61135  1  0  0  0
 62136  1  0  0  0
 62137  1  0  0  0
 62138  1  0  0  0
 63 65  1  0  0  0
 63139  1  0  0  0
 63140  1  0  0  0
 63141  1  0  0  0
 64142  1  0  0  0
 65143  1  0  0  0
 68 80  1  0  0  0
 71 73  2  0  0  0
 71 82  1  0  0  0
 71144  1  0  0  0
 72 74  1  0  0  0
 72 81  2  0  0  0
 72145  1  0  0  0
 73 80  1  0  0  0
 73 81  1  0  0  0
 74 82  2  0  0  0
 74 83  1  0  0  0
 75 76  1  0  0  0
 75 83  1  0  0  0
 75146  1  0  0  0
 75147  1  0  0  0
 76 84  1  0  0  0
 76148  1  0  0  0
 76149  1  0  0  0
 77 78  1  0  0  0
 77 84  1  0  0  0
 77150  1  0  0  0
 77151  1  0  0  0
 78 79  1  0  0  0
 78 83  1  0  0  0
 78152  1  0  0  0
 79153  1  0  0  0
 79154  1  0  0  0
 79155  1  0  0  0
 80156  1  0  0  0
 80157  1  0  0  0
M  ISO  4   1 100  68 101  80 101  84 100
M  END
> <chiral flag>
0

> <version>
0

> <s_m_source_file>
/data/baiqing/PycharmProjects/Reinvent-master-3.2/result/LINK_invent/BTK/process_docking_weight1_custom_sum_contain_oxygen_bond_distance_aromatic_linkinvent_7_9_3/rearranged_h_0183.sdf

> <i_m_source_file_index>
33

> <r_mmod_Potential_Energy-OPLS-2005>
554.190063476562

> <r_mmod_Stretch_Energy-OPLS-2005>
150.625137329102

> <r_mmod_Bend_Energy-OPLS-2005>
224.181594848633

> <r_mmod_Torsional_Energy-OPLS-2005>
371.268737792969

> <r_mmod_Improper_Torsional_Energy-OPLS-2005>
18.8238830566406

> <r_mmod_Van_der_Waal_Energy-OPLS-2005>
149.955200195312

> <r_mmod_Electrostatic_Energy-OPLS-2005>
-256.425445556641

> <r_mmod_Solvation_Energy-OPLS-2005>
-222.9697265625

> <b_mmod_Minimization_Converged-OPLS-2005>
0

> <r_mmod_RMS_Derivative-OPLS-2005>
2.36100912094116

$$$$
34
                    3D
 Structure written by MMmdl.
158167  0  0  1  0            999 V2000
  -30.5399  -15.0391   20.4185 C   0  0  0  0  0  0
  -30.4343  -12.6524   19.5174 C   0  0  0  0  0  0
  -29.5293  -12.5430   18.2691 C   0  0  0  0  0  0
  -28.0627  -12.3116   18.6802 C   0  0  0  0  0  0
  -27.6205  -13.2540   19.8300 C   0  0  2  0  0  0
  -28.6607  -13.3139   20.9709 C   0  0  0  0  0  0
  -25.2369  -13.8212   20.5602 C   0  0  0  0  0  0
  -24.1755  -13.0440   20.9270 C   0  0  0  0  0  0
  -24.6395  -11.6935   20.8796 C   0  0  0  0  0  0
  -23.9076  -10.4313   21.0432 C   0  0  0  0  0  0
  -24.3633   -9.4216   21.9180 C   0  0  0  0  0  0
  -23.6318   -8.2239   22.0740 C   0  0  0  0  0  0
  -22.4302   -8.0272   21.3529 C   0  0  0  0  0  0
  -21.9930   -9.0256   20.4641 C   0  0  0  0  0  0
  -22.7257  -10.2144   20.3070 C   0  0  0  0  0  0
  -21.6862   -6.0738   22.5285 C   0  0  0  0  0  0
  -21.4019   -6.5639   23.8217 C   0  0  0  0  0  0
  -21.3673   -5.6784   24.9179 C   0  0  0  0  0  0
  -21.6046   -4.3047   24.7216 C   0  0  0  0  0  0
  -21.8820   -3.8144   23.4335 C   0  0  0  0  0  0
  -21.9196   -4.6972   22.3400 C   0  0  0  0  0  0
  -22.7768  -13.5215   21.1896 C   0  0  0  0  0  0
  -22.1665   -4.2173   21.0975 F   0  0  0  0  0  0
  -21.5634   -3.4517   25.7716 F   0  0  0  0  0  0
  -29.9176  -13.7767   20.3635 N   0  0  0  0  0  0
  -26.2821  -12.9462   20.3169 N   0  0  0  0  0  0
  -25.9327  -11.6602   20.5747 N   0  0  0  0  0  0
  -22.0394  -12.8230   22.0449 N   0  0  0  0  0  0
  -25.3859  -15.1918   20.3744 N   0  0  0  0  0  0
  -31.7462  -15.0314   20.1466 O   0  0  0  0  0  0
  -21.6646   -6.8876   21.4235 O   0  0  0  0  0  0
  -22.3480  -14.5491   20.6677 O   0  0  0  0  0  0
  -24.6487  -31.8372   23.1845 C   0  0  0  0  0  0
  -25.9255  -32.4655   23.8218 C   0  0  1  0  0  0
  -27.2044  -27.0620   20.1827 C   0  0  0  0  0  0
  -25.5984  -33.8455   24.2145 N   0  0  0  0  0  0
  -23.4548  -30.4568   21.5302 C   0  0  2  0  0  0
  -24.9038  -28.8661   20.1173 C   0  0  0  0  0  0
  -22.7584  -29.4541   22.4851 C   0  0  0  0  0  0
  -18.0307  -28.1424   22.8466 C   0  0  0  0  0  0
  -24.1502  -36.7244   23.2630 C   0  0  0  0  0  0
  -26.0138  -30.6928   21.3880 C   0  0  0  0  0  0
  -26.0854  -29.2939   20.7387 C   0  0  0  0  0  0
  -27.2391  -28.4100   20.7489 C   0  0  0  0  0  0
  -25.9989  -26.7540   19.5159 C   0  0  0  0  0  0
  -24.8772  -27.6133   19.4883 C   0  0  0  0  0  0
  -23.6858  -29.7788   20.1527 C   0  0  0  0  0  0
  -25.4132  -36.3000   24.0301 C   0  0  1  0  0  0
  -20.5916  -28.3753   23.1234 C   0  0  2  0  0  0
  -20.6819  -26.9456   22.5414 C   0  0  0  0  0  0
  -19.5800  -26.6402   21.5225 C   0  0  0  0  0  0
  -18.1972  -26.7965   22.1620 C   0  0  0  0  0  0
  -19.1563  -28.8916   23.2838 C   0  0  0  0  0  0
  -18.9476  -30.1502   23.8873 C   0  0  0  0  0  0
  -17.6474  -30.6620   24.0562 C   0  0  0  0  0  0
  -25.9079  -34.9385   23.5030 C   0  0  0  0  0  0
  -16.5364  -29.9110   23.6338 C   0  0  0  0  0  0
  -16.7289  -28.6535   23.0349 C   0  0  0  0  0  0
  -26.4554  -31.6545   25.0692 C   0  0  0  0  0  0
  -25.3725  -31.3764   26.1384 C   0  0  0  0  0  0
  -27.0400  -30.2922   24.6324 C   0  0  0  0  0  0
  -27.6072  -32.4309   25.7501 C   0  0  0  0  0  0
  -27.5580  -37.1766   24.8454 C   0  0  0  0  0  0
  -21.4276  -29.3054   22.3584 N   0  0  0  0  0  0
  -26.4282  -37.3734   23.9414 N   0  0  0  0  0  0
  -24.7269  -31.0169   22.0909 N   0  0  0  0  0  0
  -23.4190  -28.8089   23.3031 O   0  0  0  0  0  0
  -28.2349  -26.0304   20.2004 O   0  0  0  0  0  0
  -26.5667  -34.8906   22.4603 O   0  0  0  0  0  0
  -23.5605  -32.1287   23.7031 O   0  0  0  0  0  0
  -29.2294  -23.2169   18.7090 C   0  0  0  0  0  0
  -29.2500  -20.6180   19.9021 C   0  0  0  0  0  0
  -28.6747  -23.1198   19.9939 C   0  0  0  0  0  0
  -29.7422  -20.9118   18.5912 C   0  0  0  0  0  0
  -30.3164  -17.7555   20.0474 C   0  0  0  0  0  0
  -28.5607  -16.6800   21.0850 C   0  0  0  0  0  0
  -29.3610  -19.0413   20.5467 C   0  0  2  0  0  0
  -28.1069  -18.1356   20.6198 C   0  0  2  0  0  0
  -30.2962  -19.8687   17.6386 C   0  0  0  0  0  0
  -27.9588  -24.5145   20.6017 C   0  0  0  0  0  0
  -29.7377  -22.1552   18.0376 N   0  0  0  0  0  0
  -28.6997  -21.7834   20.5680 N   0  0  0  0  0  0
  -29.8494  -16.3195   20.4668 N   0  0  0  0  0  0
  -27.0097  -18.6883   21.4347 N   0  3  0  0  0  0
  -31.4700  -12.8045   19.2090 H   0  0  0  0  0  0
  -30.4327  -11.7124   20.0757 H   0  0  0  0  0  0
  -29.8719  -11.7362   17.6217 H   0  0  0  0  0  0
  -29.6044  -13.4608   17.6849 H   0  0  0  0  0  0
  -27.9694  -11.2720   18.9992 H   0  0  0  0  0  0
  -27.4047  -12.4206   17.8169 H   0  0  0  0  0  0
  -27.5700  -14.2444   19.3795 H   0  0  0  0  0  0
  -28.7765  -12.3360   21.4405 H   0  0  0  0  0  0
  -28.3420  -13.9847   21.7691 H   0  0  0  0  0  0
  -25.2776   -9.5685   22.4755 H   0  0  0  0  0  0
  -24.0041   -7.4622   22.7439 H   0  0  0  0  0  0
  -21.0864   -8.8780   19.8948 H   0  0  0  0  0  0
  -22.3708  -10.9682   19.6184 H   0  0  0  0  0  0
  -21.2010   -7.6145   23.9738 H   0  0  0  0  0  0
  -21.1497   -6.0502   25.9086 H   0  0  0  0  0  0
  -22.0586   -2.7609   23.2825 H   0  0  0  0  0  0
  -22.4004  -11.9953   22.4929 H   0  0  0  0  0  0
  -21.0980  -13.1227   22.2567 H   0  0  0  0  0  0
  -24.5243  -15.7252   20.3167 H   0  0  0  0  0  0
  -26.0713  -15.5000   19.6982 H   0  0  0  0  0  0
  -26.7319  -32.5261   23.0930 H   0  0  0  0  0  0
  -25.0078  -33.9536   25.0264 H   0  0  0  0  0  0
  -22.7622  -31.2864   21.3697 H   0  0  0  0  0  0
  -23.3774  -35.9563   23.3240 H   0  0  0  0  0  0
  -24.3584  -36.8933   22.2055 H   0  0  0  0  0  0
  -23.7256  -37.6422   23.6703 H   0  0  0  0  0  0
  -26.1677  -31.4418   20.6081 H   0  0  0  0  0  0
  -26.8833  -30.7495   22.0325 H   0  0  0  0  0  0
  -28.1392  -28.7337   21.2533 H   0  0  0  0  0  0
  -25.9031  -25.7962   19.0245 H   0  0  0  0  0  0
  -23.9773  -27.2859   18.9866 H   0  0  0  0  0  0
  -23.8307  -30.5484   19.3929 H   0  0  0  0  0  0
  -22.7983  -29.2243   19.8389 H   0  0  0  0  0  0
  -25.1327  -36.1783   25.0791 H   0  0  0  0  0  0
  -20.9998  -28.3367   24.1363 H   0  0  0  0  0  0
  -20.5766  -26.2360   23.3629 H   0  0  0  0  0  0
  -21.6683  -26.7531   22.1178 H   0  0  0  0  0  0
  -19.6977  -25.6304   21.1283 H   0  0  0  0  0  0
  -19.6755  -27.3190   20.6741 H   0  0  0  0  0  0
  -17.4253  -26.6694   21.4010 H   0  0  0  0  0  0
  -18.0377  -26.0116   22.9024 H   0  0  0  0  0  0
  -19.7948  -30.7325   24.2243 H   0  0  0  0  0  0
  -17.5029  -31.6294   24.5167 H   0  0  0  0  0  0
  -15.5367  -30.3007   23.7706 H   0  0  0  0  0  0
  -15.8683  -28.0857   22.7078 H   0  0  0  0  0  0
  -24.5899  -30.7123   25.7712 H   0  0  0  0  0  0
  -24.8935  -32.2961   26.4749 H   0  0  0  0  0  0
  -25.7995  -30.8971   27.0204 H   0  0  0  0  0  0
  -26.3021  -29.6641   24.1336 H   0  0  0  0  0  0
  -27.3967  -29.7238   25.4922 H   0  0  0  0  0  0
  -27.8951  -30.4112   23.9673 H   0  0  0  0  0  0
  -27.2647  -33.3604   26.2058 H   0  0  0  0  0  0
  -28.3916  -32.6875   25.0370 H   0  0  0  0  0  0
  -28.0713  -31.8453   26.5447 H   0  0  0  0  0  0
  -28.2569  -38.0091   24.7524 H   0  0  0  0  0  0
  -28.1099  -36.2618   24.6237 H   0  0  0  0  0  0
  -27.2288  -37.1361   25.8852 H   0  0  0  0  0  0
  -20.9520  -29.8673   21.6668 H   0  0  0  0  0  0
  -26.0126  -38.2788   24.1448 H   0  0  0  0  0  0
  -29.2337  -24.1655   18.1916 H   0  0  0  0  0  0
  -31.3598  -17.9126   20.3268 H   0  0  0  0  0  0
  -30.3058  -17.6796   18.9641 H   0  0  0  0  0  0
  -27.7971  -15.9538   20.8361 H   0  0  0  0  0  0
  -28.7051  -16.6408   22.1652 H   0  0  0  0  0  0
  -29.6677  -19.2271   21.5766 H   0  0  0  0  0  0
  -27.7145  -18.0414   19.6048 H   0  0  0  0  0  0
  -31.2127  -19.4211   18.0217 H   0  0  0  0  0  0
  -30.5547  -20.3090   16.6741 H   0  0  0  0  0  0
  -29.5523  -19.0955   17.4390 H   0  0  0  0  0  0
  -28.1535  -24.4751   21.6742 H   0  0  0  0  0  0
  -26.8853  -24.3371   20.5228 H   0  0  0  0  0  0
  -27.2936  -18.8411   22.3868 H   0  0  0  0  0  0
  -26.2254  -18.0611   21.4331 H   0  0  0  0  0  0
  -26.7040  -19.5678   21.0555 H   0  0  0  0  0  0
  1 25  1  0  0  0
  1 30  2  0  0  0
  1 83  1  0  0  0
  2  3  1  0  0  0
  2 25  1  0  0  0
  2 85  1  0  0  0
  2 86  1  0  0  0
  3  4  1  0  0  0
  3 87  1  0  0  0
  3 88  1  0  0  0
  4  5  1  0  0  0
  4 89  1  0  0  0
  4 90  1  0  0  0
  5  6  1  0  0  0
  5 26  1  0  0  0
  5 91  1  0  0  0
  6 25  1  0  0  0
  6 92  1  0  0  0
  6 93  1  0  0  0
  7  8  2  0  0  0
  7 26  1  0  0  0
  7 29  1  0  0  0
  8  9  1  0  0  0
  8 22  1  0  0  0
  9 10  1  0  0  0
  9 27  2  0  0  0
 10 11  2  0  0  0
 10 15  1  0  0  0
 11 12  1  0  0  0
 11 94  1  0  0  0
 12 13  2  0  0  0
 12 95  1  0  0  0
 13 14  1  0  0  0
 13 31  1  0  0  0
 14 15  2  0  0  0
 14 96  1  0  0  0
 15 97  1  0  0  0
 16 17  2  0  0  0
 16 21  1  0  0  0
 16 31  1  0  0  0
 17 18  1  0  0  0
 17 98  1  0  0  0
 18 19  2  0  0  0
 18 99  1  0  0  0
 19 20  1  0  0  0
 19 24  1  0  0  0
 20 21  2  0  0  0
 20100  1  0  0  0
 21 23  1  0  0  0
 22 28  1  0  0  0
 22 32  2  0  0  0
 26 27  1  0  0  0
 28101  1  0  0  0
 28102  1  0  0  0
 29103  1  0  0  0
 29104  1  0  0  0
 33 34  1  0  0  0
 33 66  1  0  0  0
 33 70  2  0  0  0
 34 36  1  0  0  0
 34 59  1  0  0  0
 34105  1  0  0  0
 35 44  2  0  0  0
 35 45  1  0  0  0
 35 68  1  0  0  0
 36 56  1  0  0  0
 36106  1  0  0  0
 37 39  1  0  0  0
 37 47  1  0  0  0
 37 66  1  0  0  0
 37107  1  0  0  0
 38 43  2  0  0  0
 38 46  1  0  0  0
 38 47  1  0  0  0
 39 64  1  0  0  0
 39 67  2  0  0  0
 40 52  1  0  0  0
 40 53  2  0  0  0
 40 58  1  0  0  0
 41108  1  0  0  0
 41109  1  0  0  0
 41110  1  0  0  0
 41 48  1  0  0  0
 42 43  1  0  0  0
 42 66  1  0  0  0
 42111  1  0  0  0
 42112  1  0  0  0
 43 44  1  0  0  0
 44113  1  0  0  0
 45 46  2  0  0  0
 45114  1  0  0  0
 46115  1  0  0  0
 47116  1  0  0  0
 47117  1  0  0  0
 48 56  1  0  0  0
 48 65  1  0  0  0
 48118  1  0  0  0
 49 50  1  0  0  0
 49 53  1  0  0  0
 49 64  1  0  0  0
 49119  1  0  0  0
 50 51  1  0  0  0
 50120  1  0  0  0
 50121  1  0  0  0
 51 52  1  0  0  0
 51122  1  0  0  0
 51123  1  0  0  0
 52124  1  0  0  0
 52125  1  0  0  0
 53 54  1  0  0  0
 54 55  2  0  0  0
 54126  1  0  0  0
 55 57  1  0  0  0
 55127  1  0  0  0
 56 69  2  0  0  0
 57 58  2  0  0  0
 57128  1  0  0  0
 58129  1  0  0  0
 59 60  1  0  0  0
 59 61  1  0  0  0
 59 62  1  0  0  0
 60130  1  0  0  0
 60131  1  0  0  0
 60132  1  0  0  0
 61133  1  0  0  0
 61134  1  0  0  0
 61135  1  0  0  0
 62136  1  0  0  0
 62137  1  0  0  0
 62138  1  0  0  0
 63 65  1  0  0  0
 63139  1  0  0  0
 63140  1  0  0  0
 63141  1  0  0  0
 64142  1  0  0  0
 65143  1  0  0  0
 68 80  1  0  0  0
 71 73  2  0  0  0
 71 81  1  0  0  0
 71144  1  0  0  0
 72 74  1  0  0  0
 72 82  2  0  0  0
 72 77  1  0  0  0
 73 80  1  0  0  0
 73 82  1  0  0  0
 74 79  1  0  0  0
 74 81  2  0  0  0
 75 77  1  0  0  0
 75 83  1  0  0  0
 75145  1  0  0  0
 75146  1  0  0  0
 76 78  1  0  0  0
 76 83  1  0  0  0
 76147  1  0  0  0
 76148  1  0  0  0
 77 78  1  0  0  0
 77149  1  0  0  0
 78 84  1  0  0  0
 78150  1  0  0  0
 79151  1  0  0  0
 79152  1  0  0  0
 79153  1  0  0  0
 80154  1  0  0  0
 80155  1  0  0  0
 84156  1  0  0  0
 84157  1  0  0  0
 84158  1  0  0  0
M  CHG  1  84   1
M  ISO  4   1 100  68 101  80 101  83 100
M  END
> <chiral flag>
0

> <version>
0

> <s_m_source_file>
/data/baiqing/PycharmProjects/Reinvent-master-3.2/result/LINK_invent/BTK/process_docking_weight1_custom_sum_contain_oxygen_bond_distance_aromatic_linkinvent_7_9_3/rearranged_h_0183.sdf

> <i_m_source_file_index>
34

> <r_mmod_Potential_Energy-OPLS-2005>
671.1826171875

> <r_mmod_Stretch_Energy-OPLS-2005>
347.771026611328

> <r_mmod_Bend_Energy-OPLS-2005>
348.444305419922

> <r_mmod_Torsional_Energy-OPLS-2005>
332.154052734375

> <r_mmod_Improper_Torsional_Energy-OPLS-2005>
11.733099937439

> <r_mmod_Van_der_Waal_Energy-OPLS-2005>
127.357460021973

> <r_mmod_Electrostatic_Energy-OPLS-2005>
-234.977493286133

> <r_mmod_Solvation_Energy-OPLS-2005>
-518.768127441406

> <b_mmod_Minimization_Converged-OPLS-2005>
0

> <r_mmod_RMS_Derivative-OPLS-2005>
3.6084988117218

$$$$
35
                    3D
 Structure written by MMmdl.
148156  0  0  1  0            999 V2000
  -30.5302  -14.9496   20.4175 C   0  0  0  0  0  0
  -30.4407  -12.5896   19.4895 C   0  0  0  0  0  0
  -29.5172  -12.5240   18.2507 C   0  0  0  0  0  0
  -28.0497  -12.3140   18.6697 C   0  0  0  0  0  0
  -27.6302  -13.2434   19.8380 C   0  0  2  0  0  0
  -28.6741  -13.2658   20.9744 C   0  0  0  0  0  0
  -25.2473  -13.8197   20.5690 C   0  0  0  0  0  0
  -24.1791  -13.0440   20.9224 C   0  0  0  0  0  0
  -24.6401  -11.6920   20.8762 C   0  0  0  0  0  0
  -23.9079  -10.4301   21.0415 C   0  0  0  0  0  0
  -24.3626   -9.4212   21.9188 C   0  0  0  0  0  0
  -23.6310   -8.2249   22.0752 C   0  0  0  0  0  0
  -22.4284   -8.0285   21.3550 C   0  0  0  0  0  0
  -21.9925   -9.0262   20.4644 C   0  0  0  0  0  0
  -22.7254  -10.2142   20.3062 C   0  0  0  0  0  0
  -21.6854   -6.0740   22.5284 C   0  0  0  0  0  0
  -21.4014   -6.5644   23.8217 C   0  0  0  0  0  0
  -21.3661   -5.6799   24.9183 C   0  0  0  0  0  0
  -21.6043   -4.3065   24.7234 C   0  0  0  0  0  0
  -21.8818   -3.8151   23.4357 C   0  0  0  0  0  0
  -21.9198   -4.6968   22.3408 C   0  0  0  0  0  0
  -22.7817  -13.5220   21.1883 C   0  0  0  0  0  0
  -22.1659   -4.2157   21.0981 F   0  0  0  0  0  0
  -21.5638   -3.4542   25.7741 F   0  0  0  0  0  0
  -29.9466  -13.6842   20.3733 N   0  0  0  0  0  0
  -26.2894  -12.9423   20.3248 N   0  0  0  0  0  0
  -25.9329  -11.6559   20.5748 N   0  0  0  0  0  0
  -22.0463  -12.8214   22.0429 N   0  0  0  0  0  0
  -25.4138  -15.1924   20.4042 N   0  0  0  0  0  0
  -31.7328  -15.0246   20.1418 O   0  0  0  0  0  0
  -21.6644   -6.8884   21.4242 O   0  0  0  0  0  0
  -22.3508  -14.5538   20.6738 O   0  0  0  0  0  0
  -24.6453  -31.8417   23.1865 C   0  0  0  0  0  0
  -25.9223  -32.4684   23.8257 C   0  0  1  0  0  0
  -27.2217  -27.1275   20.1557 C   0  0  0  0  0  0
  -25.5961  -33.8488   24.2185 N   0  0  0  0  0  0
  -23.4506  -30.4600   21.5320 C   0  0  2  0  0  0
  -24.9008  -28.8843   20.1103 C   0  0  0  0  0  0
  -22.7584  -29.4541   22.4858 C   0  0  0  0  0  0
  -18.0314  -28.1392   22.8487 C   0  0  0  0  0  0
  -24.1494  -36.7245   23.2642 C   0  0  0  0  0  0
  -26.0075  -30.7112   21.3897 C   0  0  0  0  0  0
  -26.0779  -29.3231   20.7292 C   0  0  0  0  0  0
  -27.2394  -28.4627   20.7315 C   0  0  0  0  0  0
  -26.0183  -26.7901   19.4974 C   0  0  0  0  0  0
  -24.8846  -27.6320   19.4772 C   0  0  0  0  0  0
  -23.6771  -29.7860   20.1529 C   0  0  0  0  0  0
  -25.4128  -36.3032   24.0320 C   0  0  1  0  0  0
  -20.5931  -28.3725   23.1229 C   0  0  2  0  0  0
  -20.6806  -26.9427   22.5402 C   0  0  0  0  0  0
  -19.5769  -26.6377   21.5222 C   0  0  0  0  0  0
  -18.1950  -26.7933   22.1629 C   0  0  0  0  0  0
  -19.1572  -28.8879   23.2846 C   0  0  0  0  0  0
  -18.9484  -30.1480   23.8864 C   0  0  0  0  0  0
  -17.6477  -30.6589   24.0562 C   0  0  0  0  0  0
  -25.9072  -34.9404   23.5060 C   0  0  0  0  0  0
  -16.5370  -29.9078   23.6341 C   0  0  0  0  0  0
  -16.7297  -28.6496   23.0363 C   0  0  0  0  0  0
  -26.4527  -31.6563   25.0710 C   0  0  0  0  0  0
  -25.3705  -31.3749   26.1401 C   0  0  0  0  0  0
  -27.0408  -30.2960   24.6322 C   0  0  0  0  0  0
  -27.6053  -32.4337   25.7488 C   0  0  0  0  0  0
  -27.5578  -37.1776   24.8464 C   0  0  0  0  0  0
  -21.4278  -29.3036   22.3595 N   0  0  0  0  0  0
  -26.4291  -37.3746   23.9406 N   0  0  0  0  0  0
  -24.7209  -31.0276   22.0899 N   0  0  0  0  0  0
  -23.4218  -28.8088   23.3016 O   0  0  0  0  0  0
  -28.2747  -26.1407   20.2328 O   0  0  0  0  0  0
  -26.5654  -34.8909   22.4637 O   0  0  0  0  0  0
  -23.5567  -32.1291   23.7076 O   0  0  0  0  0  0
  -29.6022  -20.6378   20.4276 C   0  0  0  0  0  0
  -29.4758  -18.3808   21.7551 C   0  0  0  0  0  0
  -29.1347  -19.0661   20.4596 C   0  0  2  0  0  0
  -30.0698  -17.6513   20.5717 C   0  0  2  0  0  0
  -29.0753  -23.3286   20.4039 C   0  0  0  0  0  0
  -28.0008  -24.6045   20.1195 C   0  0  0  0  0  0
  -28.7457  -21.7724   20.3456 N   0  0  0  0  0  0
  -29.7364  -16.1219   20.5808 N   0  0  0  0  0  0
  -30.8091  -20.8683   20.5114 O   0  0  0  0  0  0
  -31.4702  -12.7564   19.1694 H   0  0  0  0  0  0
  -30.4440  -11.6370   20.0220 H   0  0  0  0  0  0
  -29.8360  -11.7209   17.5843 H   0  0  0  0  0  0
  -29.6045  -13.4492   17.6788 H   0  0  0  0  0  0
  -27.9419  -11.2723   18.9730 H   0  0  0  0  0  0
  -27.3866  -12.4535   17.8151 H   0  0  0  0  0  0
  -27.5950  -14.2472   19.4146 H   0  0  0  0  0  0
  -28.7653  -12.2871   21.4472 H   0  0  0  0  0  0
  -28.3754  -13.9624   21.7592 H   0  0  0  0  0  0
  -25.2762   -9.5707   22.4768 H   0  0  0  0  0  0
  -24.0024   -7.4640   22.7469 H   0  0  0  0  0  0
  -21.0860   -8.8783   19.8945 H   0  0  0  0  0  0
  -22.3704  -10.9686   19.6183 H   0  0  0  0  0  0
  -21.1989   -7.6153   23.9725 H   0  0  0  0  0  0
  -21.1483   -6.0523   25.9083 H   0  0  0  0  0  0
  -22.0594   -2.7613   23.2850 H   0  0  0  0  0  0
  -22.4084  -11.9884   22.4830 H   0  0  0  0  0  0
  -21.1080  -13.1237   22.2627 H   0  0  0  0  0  0
  -24.6376  -15.8383   20.4966 H   0  0  0  0  0  0
  -26.2449  -15.6250   20.0225 H   0  0  0  0  0  0
  -26.7287  -32.5288   23.0976 H   0  0  0  0  0  0
  -25.0127  -33.9595   25.0347 H   0  0  0  0  0  0
  -22.7544  -31.2856   21.3740 H   0  0  0  0  0  0
  -23.3776  -35.9558   23.3300 H   0  0  0  0  0  0
  -24.3573  -36.8875   22.2055 H   0  0  0  0  0  0
  -23.7232  -37.6431   23.6678 H   0  0  0  0  0  0
  -26.1767  -31.4644   20.6194 H   0  0  0  0  0  0
  -26.8738  -30.7515   22.0382 H   0  0  0  0  0  0
  -28.1352  -28.7960   21.2365 H   0  0  0  0  0  0
  -25.9209  -25.8321   19.0087 H   0  0  0  0  0  0
  -23.9862  -27.2912   18.9805 H   0  0  0  0  0  0
  -23.8130  -30.5567   19.3932 H   0  0  0  0  0  0
  -22.7926  -29.2233   19.8483 H   0  0  0  0  0  0
  -25.1324  -36.1854   25.0813 H   0  0  0  0  0  0
  -21.0030  -28.3317   24.1348 H   0  0  0  0  0  0
  -20.5730  -26.2334   23.3623 H   0  0  0  0  0  0
  -21.6668  -26.7449   22.1175 H   0  0  0  0  0  0
  -19.6944  -25.6285   21.1258 H   0  0  0  0  0  0
  -19.6707  -27.3188   20.6754 H   0  0  0  0  0  0
  -17.4232  -26.6699   21.4021 H   0  0  0  0  0  0
  -18.0335  -26.0073   22.9017 H   0  0  0  0  0  0
  -19.7955  -30.7314   24.2212 H   0  0  0  0  0  0
  -17.5023  -31.6269   24.5163 H   0  0  0  0  0  0
  -15.5366  -30.2962   23.7687 H   0  0  0  0  0  0
  -15.8701  -28.0801   22.7092 H   0  0  0  0  0  0
  -24.5877  -30.7122   25.7694 H   0  0  0  0  0  0
  -24.8912  -32.2934   26.4791 H   0  0  0  0  0  0
  -25.7969  -30.8912   27.0198 H   0  0  0  0  0  0
  -26.3041  -29.6661   24.1327 H   0  0  0  0  0  0
  -27.4009  -29.7280   25.4905 H   0  0  0  0  0  0
  -27.8953  -30.4192   23.9670 H   0  0  0  0  0  0
  -27.2645  -33.3652   26.2015 H   0  0  0  0  0  0
  -28.3874  -32.6874   25.0324 H   0  0  0  0  0  0
  -28.0725  -31.8510   26.5431 H   0  0  0  0  0  0
  -28.2591  -38.0075   24.7520 H   0  0  0  0  0  0
  -28.1080  -36.2607   24.6296 H   0  0  0  0  0  0
  -27.2288  -37.1427   25.8863 H   0  0  0  0  0  0
  -20.9511  -29.8690   21.6712 H   0  0  0  0  0  0
  -26.0165  -38.2818   24.1399 H   0  0  0  0  0  0
  -28.6370  -17.9191   22.2731 H   0  0  0  0  0  0
  -30.1793  -18.8738   22.4238 H   0  0  0  0  0  0
  -28.1218  -18.9154   20.0936 H   0  0  0  0  0  0
  -31.1236  -17.8476   20.3802 H   0  0  0  0  0  0
  -29.4936  -23.4957   21.3981 H   0  0  0  0  0  0
  -29.9169  -23.4787   19.7267 H   0  0  0  0  0  0
  -27.1363  -24.4171   20.7574 H   0  0  0  0  0  0
  -27.6431  -24.4503   19.1017 H   0  0  0  0  0  0
  -27.7602  -21.5481   20.2972 H   0  0  0  0  0  0
  -28.7640  -15.9085   20.7467 H   0  0  0  0  0  0
  1 25  1  0  0  0
  1 30  2  0  0  0
  1 78  1  0  0  0
  2  3  1  0  0  0
  2 25  1  0  0  0
  2 80  1  0  0  0
  2 81  1  0  0  0
  3  4  1  0  0  0
  3 82  1  0  0  0
  3 83  1  0  0  0
  4  5  1  0  0  0
  4 84  1  0  0  0
  4 85  1  0  0  0
  5  6  1  0  0  0
  5 26  1  0  0  0
  5 86  1  0  0  0
  6 25  1  0  0  0
  6 87  1  0  0  0
  6 88  1  0  0  0
  7  8  2  0  0  0
  7 26  1  0  0  0
  7 29  1  0  0  0
  8  9  1  0  0  0
  8 22  1  0  0  0
  9 10  1  0  0  0
  9 27  2  0  0  0
 10 11  2  0  0  0
 10 15  1  0  0  0
 11 12  1  0  0  0
 11 89  1  0  0  0
 12 13  2  0  0  0
 12 90  1  0  0  0
 13 14  1  0  0  0
 13 31  1  0  0  0
 14 15  2  0  0  0
 14 91  1  0  0  0
 15 92  1  0  0  0
 16 17  2  0  0  0
 16 21  1  0  0  0
 16 31  1  0  0  0
 17 18  1  0  0  0
 17 93  1  0  0  0
 18 19  2  0  0  0
 18 94  1  0  0  0
 19 20  1  0  0  0
 19 24  1  0  0  0
 20 21  2  0  0  0
 20 95  1  0  0  0
 21 23  1  0  0  0
 22 28  1  0  0  0
 22 32  2  0  0  0
 26 27  1  0  0  0
 28 96  1  0  0  0
 28 97  1  0  0  0
 29 98  1  0  0  0
 29 99  1  0  0  0
 33 34  1  0  0  0
 33 66  1  0  0  0
 33 70  2  0  0  0
 34 36  1  0  0  0
 34 59  1  0  0  0
 34100  1  0  0  0
 35 44  2  0  0  0
 35 45  1  0  0  0
 35 68  1  0  0  0
 36 56  1  0  0  0
 36101  1  0  0  0
 37 39  1  0  0  0
 37 47  1  0  0  0
 37 66  1  0  0  0
 37102  1  0  0  0
 38 43  2  0  0  0
 38 46  1  0  0  0
 38 47  1  0  0  0
 39 64  1  0  0  0
 39 67  2  0  0  0
 40 52  1  0  0  0
 40 53  2  0  0  0
 40 58  1  0  0  0
 41103  1  0  0  0
 41104  1  0  0  0
 41105  1  0  0  0
 41 48  1  0  0  0
 42 43  1  0  0  0
 42 66  1  0  0  0
 42106  1  0  0  0
 42107  1  0  0  0
 43 44  1  0  0  0
 44108  1  0  0  0
 45 46  2  0  0  0
 45109  1  0  0  0
 46110  1  0  0  0
 47111  1  0  0  0
 47112  1  0  0  0
 48 56  1  0  0  0
 48 65  1  0  0  0
 48113  1  0  0  0
 49 50  1  0  0  0
 49 53  1  0  0  0
 49 64  1  0  0  0
 49114  1  0  0  0
 50 51  1  0  0  0
 50115  1  0  0  0
 50116  1  0  0  0
 51 52  1  0  0  0
 51117  1  0  0  0
 51118  1  0  0  0
 52119  1  0  0  0
 52120  1  0  0  0
 53 54  1  0  0  0
 54 55  2  0  0  0
 54121  1  0  0  0
 55 57  1  0  0  0
 55122  1  0  0  0
 56 69  2  0  0  0
 57 58  2  0  0  0
 57123  1  0  0  0
 58124  1  0  0  0
 59 60  1  0  0  0
 59 61  1  0  0  0
 59 62  1  0  0  0
 60125  1  0  0  0
 60126  1  0  0  0
 60127  1  0  0  0
 61128  1  0  0  0
 61129  1  0  0  0
 61130  1  0  0  0
 62131  1  0  0  0
 62132  1  0  0  0
 62133  1  0  0  0
 63 65  1  0  0  0
 63134  1  0  0  0
 63135  1  0  0  0
 63136  1  0  0  0
 64137  1  0  0  0
 65138  1  0  0  0
 68 76  1  0  0  0
 71 77  1  0  0  0
 71 79  2  0  0  0
 71 73  1  0  0  0
 72 73  1  0  0  0
 72 74  1  0  0  0
 72139  1  0  0  0
 72140  1  0  0  0
 73 74  1  0  0  0
 73141  1  0  0  0
 74 78  1  0  0  0
 74142  1  0  0  0
 75 76  1  0  0  0
 75 77  1  0  0  0
 75143  1  0  0  0
 75144  1  0  0  0
 76145  1  0  0  0
 76146  1  0  0  0
 77147  1  0  0  0
 78148  1  0  0  0
M  ISO  4   1 100  68 101  76 101  78 100
M  END
> <chiral flag>
0

> <version>
0

> <s_m_source_file>
/data/baiqing/PycharmProjects/Reinvent-master-3.2/result/LINK_invent/BTK/process_docking_weight1_custom_sum_contain_oxygen_bond_distance_aromatic_linkinvent_7_9_3/rearranged_h_0183.sdf

> <i_m_source_file_index>
35

> <r_mmod_Potential_Energy-OPLS-2005>
457.894500732422

> <r_mmod_Stretch_Energy-OPLS-2005>
286.251556396484

> <r_mmod_Bend_Energy-OPLS-2005>
254.848373413086

> <r_mmod_Torsional_Energy-OPLS-2005>
240.766159057617

> <r_mmod_Improper_Torsional_Energy-OPLS-2005>
4.25596332550049

> <r_mmod_Van_der_Waal_Energy-OPLS-2005>
114.208358764648

> <r_mmod_Electrostatic_Energy-OPLS-2005>
-386.132354736328

> <r_mmod_Solvation_Energy-OPLS-2005>
-253.337860107422

> <b_mmod_Minimization_Converged-OPLS-2005>
0

> <r_mmod_RMS_Derivative-OPLS-2005>
1.97870254516602

$$$$
36
                    3D
 Structure written by MMmdl.
161170  0  0  1  0            999 V2000
  -30.7141  -14.5889   20.4340 C   0  0  0  0  0  0
  -30.4168  -12.3361   19.4603 C   0  0  0  0  0  0
  -29.5031  -12.4175   18.2190 C   0  0  0  0  0  0
  -28.0193  -12.3022   18.6296 C   0  0  0  0  0  0
  -27.6382  -13.1969   19.8397 C   0  0  2  0  0  0
  -28.6940  -13.1433   20.9688 C   0  0  0  0  0  0
  -25.2550  -13.8089   20.5710 C   0  0  0  0  0  0
  -24.1810  -13.0388   20.9219 C   0  0  0  0  0  0
  -24.6361  -11.6847   20.8776 C   0  0  0  0  0  0
  -23.9040  -10.4233   21.0413 C   0  0  0  0  0  0
  -24.3593   -9.4140   21.9181 C   0  0  0  0  0  0
  -23.6253   -8.2193   22.0759 C   0  0  0  0  0  0
  -22.4237   -8.0236   21.3544 C   0  0  0  0  0  0
  -21.9874   -9.0216   20.4646 C   0  0  0  0  0  0
  -22.7222  -10.2084   20.3049 C   0  0  0  0  0  0
  -21.6838   -6.0701   22.5287 C   0  0  0  0  0  0
  -21.4011   -6.5619   23.8214 C   0  0  0  0  0  0
  -21.3665   -5.6790   24.9186 C   0  0  0  0  0  0
  -21.6044   -4.3048   24.7255 C   0  0  0  0  0  0
  -21.8814   -3.8120   23.4377 C   0  0  0  0  0  0
  -21.9185   -4.6927   22.3420 C   0  0  0  0  0  0
  -22.7840  -13.5194   21.1876 C   0  0  0  0  0  0
  -22.1650   -4.2101   21.1004 F   0  0  0  0  0  0
  -21.5625   -3.4543   25.7773 F   0  0  0  0  0  0
  -30.0086  -13.4171   20.3742 N   0  0  0  0  0  0
  -26.2927  -12.9229   20.3284 N   0  0  0  0  0  0
  -25.9278  -11.6411   20.5797 N   0  0  0  0  0  0
  -22.0475  -12.8196   22.0428 N   0  0  0  0  0  0
  -25.4312  -15.1811   20.4147 N   0  0  0  0  0  0
  -31.9312  -14.6096   20.2504 O   0  0  0  0  0  0
  -21.6607   -6.8832   21.4239 O   0  0  0  0  0  0
  -22.3554  -14.5518   20.6724 O   0  0  0  0  0  0
  -24.6180  -31.8651   23.2073 C   0  0  0  0  0  0
  -25.9048  -32.4815   23.8384 C   0  0  1  0  0  0
  -27.2259  -27.3878   20.1187 C   0  0  0  0  0  0
  -25.5909  -33.8623   24.2317 N   0  0  0  0  0  0
  -23.4103  -30.4894   21.5469 C   0  0  2  0  0  0
  -24.8563  -28.9590   20.1066 C   0  0  0  0  0  0
  -22.7452  -29.4633   22.4942 C   0  0  0  0  0  0
  -18.0290  -28.1365   22.8508 C   0  0  0  0  0  0
  -24.1489  -36.7307   23.2639 C   0  0  0  0  0  0
  -25.9432  -30.8184   21.3680 C   0  0  0  0  0  0
  -26.0183  -29.4517   20.7132 C   0  0  0  0  0  0
  -27.2048  -28.6754   20.7157 C   0  0  0  0  0  0
  -26.0484  -26.9411   19.4694 C   0  0  0  0  0  0
  -24.8706  -27.7065   19.4748 C   0  0  0  0  0  0
  -23.6209  -29.8275   20.1590 C   0  0  0  0  0  0
  -25.4107  -36.3116   24.0342 C   0  0  1  0  0  0
  -20.5891  -28.3656   23.1302 C   0  0  2  0  0  0
  -20.6776  -26.9385   22.5411 C   0  0  0  0  0  0
  -19.5747  -26.6370   21.5216 C   0  0  0  0  0  0
  -18.1926  -26.7912   22.1630 C   0  0  0  0  0  0
  -19.1549  -28.8832   23.2895 C   0  0  0  0  0  0
  -18.9468  -30.1440   23.8903 C   0  0  0  0  0  0
  -17.6464  -30.6573   24.0571 C   0  0  0  0  0  0
  -25.9048  -34.9486   23.5127 C   0  0  0  0  0  0
  -16.5358  -29.9074   23.6322 C   0  0  0  0  0  0
  -16.7276  -28.6490   23.0351 C   0  0  0  0  0  0
  -26.4454  -31.6612   25.0734 C   0  0  0  0  0  0
  -25.3721  -31.3731   26.1487 C   0  0  0  0  0  0
  -27.0273  -30.3056   24.6105 C   0  0  0  0  0  0
  -27.6028  -32.4327   25.7500 C   0  0  0  0  0  0
  -27.5579  -37.1804   24.8455 C   0  0  0  0  0  0
  -21.4174  -29.3029   22.3711 N   0  0  0  0  0  0
  -26.4277  -37.3805   23.9422 N   0  0  0  0  0  0
  -24.6757  -31.0735   22.0982 N   0  0  0  0  0  0
  -23.4212  -28.8152   23.2986 O   0  0  0  0  0  0
  -28.3554  -26.5817   20.2120 O   0  0  0  0  0  0
  -26.5601  -34.8932   22.4684 O   0  0  0  0  0  0
  -23.5360  -32.1407   23.7443 O   0  0  0  0  0  0
  -30.8413  -22.5315   22.1033 C   0  0  0  0  0  0
  -30.3613  -24.6617   21.3278 C   0  0  0  0  0  0
  -29.6253  -22.0388   21.5702 C   0  0  0  0  0  0
  -29.1303  -24.2043   20.8045 C   0  0  0  0  0  0
  -29.9454  -17.3549   18.5064 C   0  0  0  0  0  0
  -31.1374  -17.6346   19.3956 C   0  0  0  0  0  0
  -29.3305  -16.0868   19.1186 C   0  0  0  0  0  0
  -30.6621  -17.0850   20.7475 C   0  0  1  0  0  0
  -29.1710  -20.5731   21.7886 C   0  0  0  0  0  0
  -28.1307  -25.1472   20.1059 C   0  0  0  0  0  0
  -29.6834  -18.1026   21.4510 C   0  0  0  0  0  0
  -31.2175  -23.8290   21.9750 N   0  0  0  0  0  0
  -28.7717  -22.8872   20.9202 N   0  0  0  0  0  0
  -30.0155  -15.7761   20.3985 N   0  0  0  0  0  0
  -30.1825  -19.5177   21.4756 N   0  3  0  0  0  0
  -31.4647  -12.4050   19.1644 H   0  0  0  0  0  0
  -30.3083  -11.3677   19.9533 H   0  0  0  0  0  0
  -29.7530  -11.6216   17.5165 H   0  0  0  0  0  0
  -29.6833  -13.3385   17.6700 H   0  0  0  0  0  0
  -27.8313  -11.2552   18.8752 H   0  0  0  0  0  0
  -27.3791  -12.5327   17.7763 H   0  0  0  0  0  0
  -27.6070  -14.2035   19.4438 H   0  0  0  0  0  0
  -28.6937  -12.1669   21.4555 H   0  0  0  0  0  0
  -28.4643  -13.8782   21.7430 H   0  0  0  0  0  0
  -25.2736   -9.5590   22.4770 H   0  0  0  0  0  0
  -23.9933   -7.4579   22.7495 H   0  0  0  0  0  0
  -21.0794   -8.8756   19.8960 H   0  0  0  0  0  0
  -22.3694  -10.9628   19.6154 H   0  0  0  0  0  0
  -21.2001   -7.6130   23.9703 H   0  0  0  0  0  0
  -21.1501   -6.0526   25.9093 H   0  0  0  0  0  0
  -22.0590   -2.7575   23.2913 H   0  0  0  0  0  0
  -22.4081  -11.9841   22.4796 H   0  0  0  0  0  0
  -21.1103  -13.1240   22.2680 H   0  0  0  0  0  0
  -24.6725  -15.8436   20.5316 H   0  0  0  0  0  0
  -26.2950  -15.6146   20.1202 H   0  0  0  0  0  0
  -26.7126  -32.5509   23.1148 H   0  0  0  0  0  0
  -25.0095  -33.9801   25.0488 H   0  0  0  0  0  0
  -22.7002  -31.3062   21.4076 H   0  0  0  0  0  0
  -23.3756  -35.9634   23.3300 H   0  0  0  0  0  0
  -24.3583  -36.8909   22.2053 H   0  0  0  0  0  0
  -23.7227  -37.6511   23.6641 H   0  0  0  0  0  0
  -26.0650  -31.5837   20.6011 H   0  0  0  0  0  0
  -26.8295  -30.8692   21.9888 H   0  0  0  0  0  0
  -28.0950  -29.0418   21.2074 H   0  0  0  0  0  0
  -26.0106  -25.9895   18.9592 H   0  0  0  0  0  0
  -23.9836  -27.3286   18.9856 H   0  0  0  0  0  0
  -23.7352  -30.6043   19.4014 H   0  0  0  0  0  0
  -22.7451  -29.2489   19.8591 H   0  0  0  0  0  0
  -25.1283  -36.1969   25.0831 H   0  0  0  0  0  0
  -20.9998  -28.3206   24.1416 H   0  0  0  0  0  0
  -20.5666  -26.2266   23.3596 H   0  0  0  0  0  0
  -21.6639  -26.7405   22.1203 H   0  0  0  0  0  0
  -19.6899  -25.6288   21.1221 H   0  0  0  0  0  0
  -19.6670  -27.3206   20.6766 H   0  0  0  0  0  0
  -17.4196  -26.6680   21.4024 H   0  0  0  0  0  0
  -18.0308  -26.0035   22.9010 H   0  0  0  0  0  0
  -19.7951  -30.7258   24.2248 H   0  0  0  0  0  0
  -17.5029  -31.6250   24.5170 H   0  0  0  0  0  0
  -15.5360  -30.2981   23.7637 H   0  0  0  0  0  0
  -15.8676  -28.0809   22.7047 H   0  0  0  0  0  0
  -24.5900  -30.7059   25.7842 H   0  0  0  0  0  0
  -24.8915  -32.2904   26.4916 H   0  0  0  0  0  0
  -25.8095  -30.8931   27.0254 H   0  0  0  0  0  0
  -26.2825  -29.6850   24.1113 H   0  0  0  0  0  0
  -27.4001  -29.7246   25.4545 H   0  0  0  0  0  0
  -27.8679  -30.4378   23.9284 H   0  0  0  0  0  0
  -27.2644  -33.3618   26.2086 H   0  0  0  0  0  0
  -28.3842  -32.6883   25.0341 H   0  0  0  0  0  0
  -28.0680  -31.8444   26.5412 H   0  0  0  0  0  0
  -28.2574  -38.0130   24.7553 H   0  0  0  0  0  0
  -28.1096  -36.2663   24.6208 H   0  0  0  0  0  0
  -27.2306  -37.1361   25.8858 H   0  0  0  0  0  0
  -20.9315  -29.8803   21.6987 H   0  0  0  0  0  0
  -26.0162  -38.2869   24.1462 H   0  0  0  0  0  0
  -31.5182  -21.8836   22.6411 H   0  0  0  0  0  0
  -30.6576  -25.6972   21.2387 H   0  0  0  0  0  0
  -30.2357  -17.2322   17.4626 H   0  0  0  0  0  0
  -29.2343  -18.1817   18.5470 H   0  0  0  0  0  0
  -31.4491  -18.6789   19.3949 H   0  0  0  0  0  0
  -31.9972  -17.0608   19.0445 H   0  0  0  0  0  0
  -29.4191  -15.2910   18.3835 H   0  0  0  0  0  0
  -28.2669  -16.2470   19.2895 H   0  0  0  0  0  0
  -31.5260  -16.9274   21.3981 H   0  0  0  0  0  0
  -28.2887  -20.4037   21.1693 H   0  0  0  0  0  0
  -28.8442  -20.4608   22.8233 H   0  0  0  0  0  0
  -27.1625  -24.8858   20.5363 H   0  0  0  0  0  0
  -28.0978  -24.8775   19.0504 H   0  0  0  0  0  0
  -29.4889  -17.7779   22.4740 H   0  0  0  0  0  0
  -28.7166  -18.0872   20.9478 H   0  0  0  0  0  0
  -30.9475  -19.5853   22.1266 H   0  0  0  0  0  0
  -30.5389  -19.7276   20.5579 H   0  0  0  0  0  0
  1 25  1  0  0  0
  1 30  2  0  0  0
  1 84  1  0  0  0
  2  3  1  0  0  0
  2 25  1  0  0  0
  2 86  1  0  0  0
  2 87  1  0  0  0
  3  4  1  0  0  0
  3 88  1  0  0  0
  3 89  1  0  0  0
  4  5  1  0  0  0
  4 90  1  0  0  0
  4 91  1  0  0  0
  5  6  1  0  0  0
  5 26  1  0  0  0
  5 92  1  0  0  0
  6 25  1  0  0  0
  6 93  1  0  0  0
  6 94  1  0  0  0
  7  8  2  0  0  0
  7 26  1  0  0  0
  7 29  1  0  0  0
  8  9  1  0  0  0
  8 22  1  0  0  0
  9 10  1  0  0  0
  9 27  2  0  0  0
 10 11  2  0  0  0
 10 15  1  0  0  0
 11 12  1  0  0  0
 11 95  1  0  0  0
 12 13  2  0  0  0
 12 96  1  0  0  0
 13 14  1  0  0  0
 13 31  1  0  0  0
 14 15  2  0  0  0
 14 97  1  0  0  0
 15 98  1  0  0  0
 16 17  2  0  0  0
 16 21  1  0  0  0
 16 31  1  0  0  0
 17 18  1  0  0  0
 17 99  1  0  0  0
 18 19  2  0  0  0
 18100  1  0  0  0
 19 20  1  0  0  0
 19 24  1  0  0  0
 20 21  2  0  0  0
 20101  1  0  0  0
 21 23  1  0  0  0
 22 28  1  0  0  0
 22 32  2  0  0  0
 26 27  1  0  0  0
 28102  1  0  0  0
 28103  1  0  0  0
 29104  1  0  0  0
 29105  1  0  0  0
 33 34  1  0  0  0
 33 66  1  0  0  0
 33 70  2  0  0  0
 34 36  1  0  0  0
 34 59  1  0  0  0
 34106  1  0  0  0
 35 44  2  0  0  0
 35 45  1  0  0  0
 35 68  1  0  0  0
 36 56  1  0  0  0
 36107  1  0  0  0
 37 39  1  0  0  0
 37 47  1  0  0  0
 37 66  1  0  0  0
 37108  1  0  0  0
 38 43  2  0  0  0
 38 46  1  0  0  0
 38 47  1  0  0  0
 39 64  1  0  0  0
 39 67  2  0  0  0
 40 52  1  0  0  0
 40 53  2  0  0  0
 40 58  1  0  0  0
 41109  1  0  0  0
 41110  1  0  0  0
 41111  1  0  0  0
 41 48  1  0  0  0
 42 43  1  0  0  0
 42 66  1  0  0  0
 42112  1  0  0  0
 42113  1  0  0  0
 43 44  1  0  0  0
 44114  1  0  0  0
 45 46  2  0  0  0
 45115  1  0  0  0
 46116  1  0  0  0
 47117  1  0  0  0
 47118  1  0  0  0
 48 56  1  0  0  0
 48 65  1  0  0  0
 48119  1  0  0  0
 49 50  1  0  0  0
 49 53  1  0  0  0
 49 64  1  0  0  0
 49120  1  0  0  0
 50 51  1  0  0  0
 50121  1  0  0  0
 50122  1  0  0  0
 51 52  1  0  0  0
 51123  1  0  0  0
 51124  1  0  0  0
 52125  1  0  0  0
 52126  1  0  0  0
 53 54  1  0  0  0
 54 55  2  0  0  0
 54127  1  0  0  0
 55 57  1  0  0  0
 55128  1  0  0  0
 56 69  2  0  0  0
 57 58  2  0  0  0
 57129  1  0  0  0
 58130  1  0  0  0
 59 60  1  0  0  0
 59 61  1  0  0  0
 59 62  1  0  0  0
 60131  1  0  0  0
 60132  1  0  0  0
 60133  1  0  0  0
 61134  1  0  0  0
 61135  1  0  0  0
 61136  1  0  0  0
 62137  1  0  0  0
 62138  1  0  0  0
 62139  1  0  0  0
 63 65  1  0  0  0
 63140  1  0  0  0
 63141  1  0  0  0
 63142  1  0  0  0
 64143  1  0  0  0
 65144  1  0  0  0
 68 80  1  0  0  0
 71 73  2  0  0  0
 71 82  1  0  0  0
 71145  1  0  0  0
 72 74  1  0  0  0
 72 82  2  0  0  0
 72146  1  0  0  0
 73 79  1  0  0  0
 73 83  1  0  0  0
 74 80  1  0  0  0
 74 83  2  0  0  0
 75 76  1  0  0  0
 75 77  1  0  0  0
 75147  1  0  0  0
 75148  1  0  0  0
 76 78  1  0  0  0
 76149  1  0  0  0
 76150  1  0  0  0
 77 84  1  0  0  0
 77151  1  0  0  0
 77152  1  0  0  0
 78 81  1  0  0  0
 78 84  1  0  0  0
 78153  1  0  0  0
 79 85  1  0  0  0
 79154  1  0  0  0
 79155  1  0  0  0
 80156  1  0  0  0
 80157  1  0  0  0
 81 85  1  0  0  0
 81158  1  0  0  0
 81159  1  0  0  0
 85160  1  0  0  0
 85161  1  0  0  0
M  CHG  1  85   1
M  ISO  4   1 100  68 101  80 101  84 100
M  END
> <chiral flag>
0

> <version>
0

> <s_m_source_file>
/data/baiqing/PycharmProjects/Reinvent-master-3.2/result/LINK_invent/BTK/process_docking_weight1_custom_sum_contain_oxygen_bond_distance_aromatic_linkinvent_7_9_3/rearranged_h_0183.sdf

> <i_m_source_file_index>
36

> <r_mmod_Potential_Energy-OPLS-2005>
157.573883056641

> <r_mmod_Stretch_Energy-OPLS-2005>
59.2892150878906

> <r_mmod_Bend_Energy-OPLS-2005>
144.219284057617

> <r_mmod_Torsional_Energy-OPLS-2005>
362.115203857422

> <r_mmod_Improper_Torsional_Energy-OPLS-2005>
12.6001605987549

> <r_mmod_Van_der_Waal_Energy-OPLS-2005>
162.498504638672

> <r_mmod_Electrostatic_Energy-OPLS-2005>
-140.926422119141

> <r_mmod_Solvation_Energy-OPLS-2005>
-488.699829101562

> <b_mmod_Minimization_Converged-OPLS-2005>
0

> <r_mmod_RMS_Derivative-OPLS-2005>
2.57685327529907

$$$$
37
                    3D
 Structure written by MMmdl.
156165  0  0  1  0            999 V2000
  -30.5810  -14.8856   20.4174 C   0  0  0  0  0  0
  -30.4321  -12.5406   19.5025 C   0  0  0  0  0  0
  -29.5182  -12.5020   18.2588 C   0  0  0  0  0  0
  -28.0498  -12.2985   18.6770 C   0  0  0  0  0  0
  -27.6296  -13.2411   19.8363 C   0  0  2  0  0  0
  -28.6711  -13.2659   20.9752 C   0  0  0  0  0  0
  -25.2456  -13.8199   20.5676 C   0  0  0  0  0  0
  -24.1768  -13.0432   20.9208 C   0  0  0  0  0  0
  -24.6383  -11.6919   20.8747 C   0  0  0  0  0  0
  -23.9073  -10.4296   21.0408 C   0  0  0  0  0  0
  -24.3634   -9.4214   21.9180 C   0  0  0  0  0  0
  -23.6305   -8.2251   22.0754 C   0  0  0  0  0  0
  -22.4283   -8.0286   21.3549 C   0  0  0  0  0  0
  -21.9913   -9.0256   20.4656 C   0  0  0  0  0  0
  -22.7241  -10.2134   20.3068 C   0  0  0  0  0  0
  -21.6858   -6.0733   22.5275 C   0  0  0  0  0  0
  -21.4028   -6.5634   23.8209 C   0  0  0  0  0  0
  -21.3675   -5.6783   24.9169 C   0  0  0  0  0  0
  -21.6056   -4.3044   24.7214 C   0  0  0  0  0  0
  -21.8820   -3.8142   23.4328 C   0  0  0  0  0  0
  -21.9195   -4.6962   22.3387 C   0  0  0  0  0  0
  -22.7794  -13.5216   21.1854 C   0  0  0  0  0  0
  -22.1652   -4.2151   21.0958 F   0  0  0  0  0  0
  -21.5639   -3.4529   25.7723 F   0  0  0  0  0  0
  -29.9558  -13.6457   20.3779 N   0  0  0  0  0  0
  -26.2877  -12.9421   20.3219 N   0  0  0  0  0  0
  -25.9317  -11.6560   20.5735 N   0  0  0  0  0  0
  -22.0442  -12.8248   22.0442 N   0  0  0  0  0  0
  -25.4126  -15.1928   20.4079 N   0  0  0  0  0  0
  -31.7826  -14.9290   20.1409 O   0  0  0  0  0  0
  -21.6655   -6.8876   21.4240 O   0  0  0  0  0  0
  -22.3484  -14.5511   20.6675 O   0  0  0  0  0  0
  -24.6405  -31.8460   23.1910 C   0  0  0  0  0  0
  -25.9188  -32.4707   23.8289 C   0  0  1  0  0  0
  -27.2171  -27.1632   20.1564 C   0  0  0  0  0  0
  -25.5954  -33.8516   24.2220 N   0  0  0  0  0  0
  -23.4437  -30.4640   21.5348 C   0  0  2  0  0  0
  -24.8930  -28.8912   20.1141 C   0  0  0  0  0  0
  -22.7556  -29.4547   22.4876 C   0  0  0  0  0  0
  -18.0306  -28.1392   22.8468 C   0  0  0  0  0  0
  -24.1494  -36.7261   23.2641 C   0  0  0  0  0  0
  -25.9971  -30.7283   21.3845 C   0  0  0  0  0  0
  -26.0679  -29.3400   20.7314 C   0  0  0  0  0  0
  -27.2341  -28.4925   20.7318 C   0  0  0  0  0  0
  -26.0212  -26.8064   19.5005 C   0  0  0  0  0  0
  -24.8810  -27.6377   19.4827 C   0  0  0  0  0  0
  -23.6700  -29.7918   20.1543 C   0  0  0  0  0  0
  -25.4125  -36.3044   24.0322 C   0  0  1  0  0  0
  -20.5911  -28.3713   23.1253 C   0  0  2  0  0  0
  -20.6789  -26.9419   22.5413 C   0  0  0  0  0  0
  -19.5771  -26.6380   21.5210 C   0  0  0  0  0  0
  -18.1948  -26.7935   22.1605 C   0  0  0  0  0  0
  -19.1556  -28.8871   23.2853 C   0  0  0  0  0  0
  -18.9465  -30.1463   23.8882 C   0  0  0  0  0  0
  -17.6465  -30.6585   24.0561 C   0  0  0  0  0  0
  -25.9063  -34.9418   23.5076 C   0  0  0  0  0  0
  -16.5357  -29.9076   23.6342 C   0  0  0  0  0  0
  -16.7285  -28.6499   23.0344 C   0  0  0  0  0  0
  -26.4532  -31.6561   25.0711 C   0  0  0  0  0  0
  -25.3727  -31.3707   26.1406 C   0  0  0  0  0  0
  -27.0404  -30.2975   24.6252 C   0  0  0  0  0  0
  -27.6082  -32.4306   25.7483 C   0  0  0  0  0  0
  -27.5592  -37.1773   24.8453 C   0  0  0  0  0  0
  -21.4253  -29.3039   22.3623 N   0  0  0  0  0  0
  -26.4284  -37.3761   23.9423 N   0  0  0  0  0  0
  -24.7136  -31.0335   22.0927 N   0  0  0  0  0  0
  -23.4212  -28.8100   23.3018 O   0  0  0  0  0  0
  -28.2944  -26.2189   20.1805 O   0  0  0  0  0  0
  -26.5648  -34.8905   22.4654 O   0  0  0  0  0  0
  -23.5524  -32.1329   23.7142 O   0  0  0  0  0  0
  -29.6470  -21.3835   21.2806 C   0  0  0  0  0  0
  -28.6678  -20.8770   19.2269 C   0  0  0  0  0  0
  -29.0196  -21.9441   20.1257 C   0  0  0  0  0  0
  -29.9570  -19.9713   21.4255 C   0  0  0  0  0  0
  -29.6484  -19.0015   20.4117 C   0  0  0  0  0  0
  -29.2167  -23.8360   18.2436 C   0  0  0  0  0  0
  -30.3350  -24.0488   19.2124 C   0  0  0  0  0  0
  -28.9954  -23.5422   19.7220 C   0  0  0  0  0  0
  -30.7237  -19.5326   22.6624 C   0  0  0  0  0  0
  -30.3805  -17.5308   20.2850 C   0  0  0  0  0  0
  -28.0925  -24.7040   20.4466 C   0  0  0  0  0  0
  -28.9705  -19.5221   19.3435 N   0  0  0  0  0  0
  -29.8503  -16.0865   20.5398 N   0  0  0  0  0  0
  -31.4704  -12.6718   19.1944 H   0  0  0  0  0  0
  -30.4004  -11.5878   20.0350 H   0  0  0  0  0  0
  -29.8306  -11.7017   17.5865 H   0  0  0  0  0  0
  -29.6159  -13.4329   17.6985 H   0  0  0  0  0  0
  -27.9477  -11.2599   18.9951 H   0  0  0  0  0  0
  -27.3884  -12.4212   17.8182 H   0  0  0  0  0  0
  -27.5969  -14.2417   19.4042 H   0  0  0  0  0  0
  -28.7392  -12.2952   21.4673 H   0  0  0  0  0  0
  -28.3796  -13.9836   21.7430 H   0  0  0  0  0  0
  -25.2780   -9.5693   22.4749 H   0  0  0  0  0  0
  -24.0025   -7.4651   22.7480 H   0  0  0  0  0  0
  -21.0838   -8.8769   19.8966 H   0  0  0  0  0  0
  -22.3685  -10.9675   19.6188 H   0  0  0  0  0  0
  -21.2015   -7.6142   23.9712 H   0  0  0  0  0  0
  -21.1505   -6.0507   25.9072 H   0  0  0  0  0  0
  -22.0583   -2.7609   23.2817 H   0  0  0  0  0  0
  -22.4051  -11.9931   22.4875 H   0  0  0  0  0  0
  -21.1058  -13.1292   22.2609 H   0  0  0  0  0  0
  -24.6406  -15.8409   20.5156 H   0  0  0  0  0  0
  -26.2493  -15.6369   20.0531 H   0  0  0  0  0  0
  -26.7253  -32.5317   23.1019 H   0  0  0  0  0  0
  -25.0089  -33.9642   25.0356 H   0  0  0  0  0  0
  -22.7443  -31.2888   21.3797 H   0  0  0  0  0  0
  -23.3778  -35.9562   23.3239 H   0  0  0  0  0  0
  -24.3599  -36.8954   22.2068 H   0  0  0  0  0  0
  -23.7204  -37.6422   23.6714 H   0  0  0  0  0  0
  -26.1451  -31.4816   20.6098 H   0  0  0  0  0  0
  -26.8715  -30.7824   22.0215 H   0  0  0  0  0  0
  -28.1331  -28.8335   21.2252 H   0  0  0  0  0  0
  -25.9513  -25.8519   18.9980 H   0  0  0  0  0  0
  -23.9875  -27.2929   18.9809 H   0  0  0  0  0  0
  -23.8087  -30.5653   19.3976 H   0  0  0  0  0  0
  -22.7860  -29.2318   19.8442 H   0  0  0  0  0  0
  -25.1303  -36.1879   25.0811 H   0  0  0  0  0  0
  -20.9997  -28.3292   24.1376 H   0  0  0  0  0  0
  -20.5679  -26.2318   23.3621 H   0  0  0  0  0  0
  -21.6660  -26.7429   22.1208 H   0  0  0  0  0  0
  -19.6933  -25.6286   21.1253 H   0  0  0  0  0  0
  -19.6725  -27.3179   20.6732 H   0  0  0  0  0  0
  -17.4228  -26.6691   21.3999 H   0  0  0  0  0  0
  -18.0330  -26.0082   22.8999 H   0  0  0  0  0  0
  -19.7936  -30.7289   24.2246 H   0  0  0  0  0  0
  -17.5006  -31.6262   24.5162 H   0  0  0  0  0  0
  -15.5353  -30.2960   23.7675 H   0  0  0  0  0  0
  -15.8685  -28.0812   22.7062 H   0  0  0  0  0  0
  -24.5900  -30.7081   25.7694 H   0  0  0  0  0  0
  -24.8917  -32.2864   26.4849 H   0  0  0  0  0  0
  -25.8006  -30.8841   27.0177 H   0  0  0  0  0  0
  -26.3009  -29.6674   24.1293 H   0  0  0  0  0  0
  -27.4090  -29.7293   25.4802 H   0  0  0  0  0  0
  -27.8883  -30.4251   23.9521 H   0  0  0  0  0  0
  -27.2709  -33.3604   26.2077 H   0  0  0  0  0  0
  -28.3882  -32.6864   25.0299 H   0  0  0  0  0  0
  -28.0775  -31.8416   26.5377 H   0  0  0  0  0  0
  -28.2554  -38.0120   24.7568 H   0  0  0  0  0  0
  -28.1136  -36.2657   24.6182 H   0  0  0  0  0  0
  -27.2323  -37.1306   25.8851 H   0  0  0  0  0  0
  -20.9459  -29.8745   21.6799 H   0  0  0  0  0  0
  -26.0150  -38.2816   24.1462 H   0  0  0  0  0  0
  -29.9879  -22.0682   22.0441 H   0  0  0  0  0  0
  -28.2003  -21.1308   18.2882 H   0  0  0  0  0  0
  -29.3191  -23.0093   17.5449 H   0  0  0  0  0  0
  -28.7553  -24.7313   17.8286 H   0  0  0  0  0  0
  -30.6098  -25.0830   19.4127 H   0  0  0  0  0  0
  -31.1679  -23.3495   19.1744 H   0  0  0  0  0  0
  -30.7298  -20.3055   23.4327 H   0  0  0  0  0  0
  -31.7616  -19.3101   22.4142 H   0  0  0  0  0  0
  -30.2749  -18.6376   23.0954 H   0  0  0  0  0  0
  -31.2905  -17.5988   20.8806 H   0  0  0  0  0  0
  -30.7587  -17.5072   19.2619 H   0  0  0  0  0  0
  -28.2510  -24.5841   21.5194 H   0  0  0  0  0  0
  -27.0481  -24.4352   20.2941 H   0  0  0  0  0  0
  -28.8628  -16.0051   20.7259 H   0  0  0  0  0  0
  1 25  1  0  0  0
  1 30  2  0  0  0
  1 83  1  0  0  0
  2  3  1  0  0  0
  2 25  1  0  0  0
  2 84  1  0  0  0
  2 85  1  0  0  0
  3  4  1  0  0  0
  3 86  1  0  0  0
  3 87  1  0  0  0
  4  5  1  0  0  0
  4 88  1  0  0  0
  4 89  1  0  0  0
  5  6  1  0  0  0
  5 26  1  0  0  0
  5 90  1  0  0  0
  6 25  1  0  0  0
  6 91  1  0  0  0
  6 92  1  0  0  0
  7  8  2  0  0  0
  7 26  1  0  0  0
  7 29  1  0  0  0
  8  9  1  0  0  0
  8 22  1  0  0  0
  9 10  1  0  0  0
  9 27  2  0  0  0
 10 11  2  0  0  0
 10 15  1  0  0  0
 11 12  1  0  0  0
 11 93  1  0  0  0
 12 13  2  0  0  0
 12 94  1  0  0  0
 13 14  1  0  0  0
 13 31  1  0  0  0
 14 15  2  0  0  0
 14 95  1  0  0  0
 15 96  1  0  0  0
 16 17  2  0  0  0
 16 21  1  0  0  0
 16 31  1  0  0  0
 17 18  1  0  0  0
 17 97  1  0  0  0
 18 19  2  0  0  0
 18 98  1  0  0  0
 19 20  1  0  0  0
 19 24  1  0  0  0
 20 21  2  0  0  0
 20 99  1  0  0  0
 21 23  1  0  0  0
 22 28  1  0  0  0
 22 32  2  0  0  0
 26 27  1  0  0  0
 28100  1  0  0  0
 28101  1  0  0  0
 29102  1  0  0  0
 29103  1  0  0  0
 33 34  1  0  0  0
 33 66  1  0  0  0
 33 70  2  0  0  0
 34 36  1  0  0  0
 34 59  1  0  0  0
 34104  1  0  0  0
 35 44  2  0  0  0
 35 45  1  0  0  0
 35 68  1  0  0  0
 36 56  1  0  0  0
 36105  1  0  0  0
 37 39  1  0  0  0
 37 47  1  0  0  0
 37 66  1  0  0  0
 37106  1  0  0  0
 38 43  2  0  0  0
 38 46  1  0  0  0
 38 47  1  0  0  0
 39 64  1  0  0  0
 39 67  2  0  0  0
 40 52  1  0  0  0
 40 53  2  0  0  0
 40 58  1  0  0  0
 41107  1  0  0  0
 41108  1  0  0  0
 41109  1  0  0  0
 41 48  1  0  0  0
 42 43  1  0  0  0
 42 66  1  0  0  0
 42110  1  0  0  0
 42111  1  0  0  0
 43 44  1  0  0  0
 44112  1  0  0  0
 45 46  2  0  0  0
 45113  1  0  0  0
 46114  1  0  0  0
 47115  1  0  0  0
 47116  1  0  0  0
 48 56  1  0  0  0
 48 65  1  0  0  0
 48117  1  0  0  0
 49 50  1  0  0  0
 49 53  1  0  0  0
 49 64  1  0  0  0
 49118  1  0  0  0
 50 51  1  0  0  0
 50119  1  0  0  0
 50120  1  0  0  0
 51 52  1  0  0  0
 51121  1  0  0  0
 51122  1  0  0  0
 52123  1  0  0  0
 52124  1  0  0  0
 53 54  1  0  0  0
 54 55  2  0  0  0
 54125  1  0  0  0
 55 57  1  0  0  0
 55126  1  0  0  0
 56 69  2  0  0  0
 57 58  2  0  0  0
 57127  1  0  0  0
 58128  1  0  0  0
 59 60  1  0  0  0
 59 61  1  0  0  0
 59 62  1  0  0  0
 60129  1  0  0  0
 60130  1  0  0  0
 60131  1  0  0  0
 61132  1  0  0  0
 61133  1  0  0  0
 61134  1  0  0  0
 62135  1  0  0  0
 62136  1  0  0  0
 62137  1  0  0  0
 63 65  1  0  0  0
 63138  1  0  0  0
 63139  1  0  0  0
 63140  1  0  0  0
 64141  1  0  0  0
 65142  1  0  0  0
 68 81  1  0  0  0
 71 73  2  0  0  0
 71 74  1  0  0  0
 71143  1  0  0  0
 72 73  1  0  0  0
 72 82  2  0  0  0
 72144  1  0  0  0
 73 78  1  0  0  0
 74 75  2  0  0  0
 74 79  1  0  0  0
 75 80  1  0  0  0
 75 82  1  0  0  0
 76 77  1  0  0  0
 76 78  1  0  0  0
 76145  1  0  0  0
 76146  1  0  0  0
 77 78  1  0  0  0
 77147  1  0  0  0
 77148  1  0  0  0
 78 81  1  0  0  0
 79149  1  0  0  0
 79150  1  0  0  0
 79151  1  0  0  0
 80 83  1  0  0  0
 80152  1  0  0  0
 80153  1  0  0  0
 81154  1  0  0  0
 81155  1  0  0  0
 83156  1  0  0  0
M  ISO  4   1 100  68 101  81 101  83 100
M  END
> <chiral flag>
0

> <version>
0

> <s_m_source_file>
/data/baiqing/PycharmProjects/Reinvent-master-3.2/result/LINK_invent/BTK/process_docking_weight1_custom_sum_contain_oxygen_bond_distance_aromatic_linkinvent_7_9_3/rearranged_h_0183.sdf

> <i_m_source_file_index>
37

> <r_mmod_Potential_Energy-OPLS-2005>
196.709594726562

> <r_mmod_Stretch_Energy-OPLS-2005>
205.934783935547

> <r_mmod_Bend_Energy-OPLS-2005>
240.584716796875

> <r_mmod_Torsional_Energy-OPLS-2005>
267.7138671875

> <r_mmod_Improper_Torsional_Energy-OPLS-2005>
9.90617561340332

> <r_mmod_Van_der_Waal_Energy-OPLS-2005>
133.15234375

> <r_mmod_Electrostatic_Energy-OPLS-2005>
-599.110229492188

> <r_mmod_Solvation_Energy-OPLS-2005>
-218.422729492188

> <b_mmod_Minimization_Converged-OPLS-2005>
0

> <r_mmod_RMS_Derivative-OPLS-2005>
2.26534485816956

$$$$
38
                    3D
 Structure written by MMmdl.
160169  0  0  1  0            999 V2000
  -30.6403  -14.6435   20.4862 C   0  0  0  0  0  0
  -30.4279  -12.3988   19.4610 C   0  0  0  0  0  0
  -29.5086  -12.5087   18.2253 C   0  0  0  0  0  0
  -28.0315  -12.3419   18.6320 C   0  0  0  0  0  0
  -27.6451  -13.2218   19.8530 C   0  0  2  0  0  0
  -28.6863  -13.1124   20.9881 C   0  0  0  0  0  0
  -25.2520  -13.8177   20.5690 C   0  0  0  0  0  0
  -24.1786  -13.0434   20.9192 C   0  0  0  0  0  0
  -24.6385  -11.6915   20.8750 C   0  0  0  0  0  0
  -23.9059  -10.4279   21.0410 C   0  0  0  0  0  0
  -24.3609   -9.4205   21.9203 C   0  0  0  0  0  0
  -23.6292   -8.2232   22.0769 C   0  0  0  0  0  0
  -22.4287   -8.0276   21.3544 C   0  0  0  0  0  0
  -21.9908   -9.0235   20.4638 C   0  0  0  0  0  0
  -22.7232  -10.2120   20.3056 C   0  0  0  0  0  0
  -21.6851   -6.0725   22.5282 C   0  0  0  0  0  0
  -21.3997   -6.5639   23.8211 C   0  0  0  0  0  0
  -21.3663   -5.6803   24.9181 C   0  0  0  0  0  0
  -21.6049   -4.3062   24.7231 C   0  0  0  0  0  0
  -21.8825   -3.8149   23.4353 C   0  0  0  0  0  0
  -21.9187   -4.6952   22.3402 C   0  0  0  0  0  0
  -22.7805  -13.5226   21.1845 C   0  0  0  0  0  0
  -22.1670   -4.2155   21.0972 F   0  0  0  0  0  0
  -21.5636   -3.4544   25.7738 F   0  0  0  0  0  0
  -29.9972  -13.4387   20.4135 N   0  0  0  0  0  0
  -26.2933  -12.9360   20.3241 N   0  0  0  0  0  0
  -25.9313  -11.6522   20.5737 N   0  0  0  0  0  0
  -22.0460  -12.8208   22.0407 N   0  0  0  0  0  0
  -25.4218  -15.1889   20.4092 N   0  0  0  0  0  0
  -31.8337  -14.7456   20.1899 O   0  0  0  0  0  0
  -21.6639   -6.8879   21.4258 O   0  0  0  0  0  0
  -22.3519  -14.5545   20.6734 O   0  0  0  0  0  0
  -24.6321  -31.8585   23.2026 C   0  0  0  0  0  0
  -25.9137  -32.4776   23.8355 C   0  0  1  0  0  0
  -27.2176  -27.2888   20.1004 C   0  0  0  0  0  0
  -25.5938  -33.8573   24.2269 N   0  0  0  0  0  0
  -23.4230  -30.4864   21.5474 C   0  0  2  0  0  0
  -24.8643  -28.9380   20.1106 C   0  0  0  0  0  0
  -22.7450  -29.4668   22.4940 C   0  0  0  0  0  0
  -18.0279  -28.1403   22.8500 C   0  0  0  0  0  0
  -24.1485  -36.7265   23.2634 C   0  0  0  0  0  0
  -25.9672  -30.7812   21.3708 C   0  0  0  0  0  0
  -26.0394  -29.4059   20.7116 C   0  0  0  0  0  0
  -27.2145  -28.5910   20.7009 C   0  0  0  0  0  0
  -26.0038  -26.8740   19.5061 C   0  0  0  0  0  0
  -24.8509  -27.6779   19.5018 C   0  0  0  0  0  0
  -23.6356  -29.8222   20.1624 C   0  0  0  0  0  0
  -25.4107  -36.3075   24.0331 C   0  0  1  0  0  0
  -20.5877  -28.3748   23.1287 C   0  0  2  0  0  0
  -20.6769  -26.9477   22.5426 C   0  0  0  0  0  0
  -19.5756  -26.6423   21.5219 C   0  0  0  0  0  0
  -18.1929  -26.7949   22.1623 C   0  0  0  0  0  0
  -19.1530  -28.8885   23.2883 C   0  0  0  0  0  0
  -18.9443  -30.1455   23.8941 C   0  0  0  0  0  0
  -17.6446  -30.6602   24.0594 C   0  0  0  0  0  0
  -25.9074  -34.9456   23.5105 C   0  0  0  0  0  0
  -16.5338  -29.9122   23.6337 C   0  0  0  0  0  0
  -16.7256  -28.6525   23.0394 C   0  0  0  0  0  0
  -26.4491  -31.6568   25.0733 C   0  0  0  0  0  0
  -25.3698  -31.3663   26.1433 C   0  0  0  0  0  0
  -27.0312  -30.2991   24.6171 C   0  0  0  0  0  0
  -27.6095  -32.4233   25.7494 C   0  0  0  0  0  0
  -27.5570  -37.1773   24.8452 C   0  0  0  0  0  0
  -21.4166  -29.3108   22.3670 N   0  0  0  0  0  0
  -26.4269  -37.3791   23.9428 N   0  0  0  0  0  0
  -24.6939  -31.0592   22.0972 N   0  0  0  0  0  0
  -23.4145  -28.8207   23.3026 O   0  0  0  0  0  0
  -28.3328  -26.4243   20.1647 O   0  0  0  0  0  0
  -26.5654  -34.8928   22.4668 O   0  0  0  0  0  0
  -23.5480  -32.1413   23.7351 O   0  0  0  0  0  0
  -30.1126  -23.2144   19.5486 C   0  0  0  0  0  0
  -28.8359  -23.7797   19.8100 C   0  0  0  0  0  0
  -28.1401  -21.5793   20.3845 C   0  0  0  0  0  0
  -29.4306  -21.0064   20.0943 C   0  0  0  0  0  0
  -29.1574  -18.3427   20.5214 C   0  0  0  0  0  0
  -31.1753  -19.2461   19.6521 C   0  0  0  0  0  0
  -30.2702  -17.2322   20.7459 C   0  0  2  0  0  0
  -31.3058  -17.7047   19.7078 C   0  0  2  0  0  0
  -26.9627  -20.7374   20.8334 C   0  0  0  0  0  0
  -28.4617  -25.2300   19.2829 C   0  0  0  0  0  0
  -30.3949  -21.8826   19.6943 N   0  0  0  0  0  0
  -27.8582  -22.9265   20.2444 N   0  0  0  0  0  0
  -29.8465  -19.6124   20.1437 N   0  0  0  0  0  0
  -29.8732  -15.7672   20.6748 N   0  0  0  0  0  0
  -32.6799  -17.2712   19.9987 N   0  3  0  0  0  0
  -31.4722  -12.5130   19.1659 H   0  0  0  0  0  0
  -30.3472  -11.4094   19.9166 H   0  0  0  0  0  0
  -29.7814  -11.7611   17.4795 H   0  0  0  0  0  0
  -29.6496  -13.4809   17.7487 H   0  0  0  0  0  0
  -27.8753  -11.2900   18.8701 H   0  0  0  0  0  0
  -27.3807  -12.5628   17.7857 H   0  0  0  0  0  0
  -27.6524  -14.2523   19.4980 H   0  0  0  0  0  0
  -28.6932  -12.1052   21.4091 H   0  0  0  0  0  0
  -28.4326  -13.7805   21.8118 H   0  0  0  0  0  0
  -25.2755   -9.5673   22.4762 H   0  0  0  0  0  0
  -24.0008   -7.4630   22.7503 H   0  0  0  0  0  0
  -21.0852   -8.8736   19.8930 H   0  0  0  0  0  0
  -22.3702  -10.9653   19.6144 H   0  0  0  0  0  0
  -21.1986   -7.6150   23.9718 H   0  0  0  0  0  0
  -21.1491   -6.0531   25.9089 H   0  0  0  0  0  0
  -22.0596   -2.7614   23.2859 H   0  0  0  0  0  0
  -22.4102  -11.9864   22.4750 H   0  0  0  0  0  0
  -21.1077  -13.1228   22.2626 H   0  0  0  0  0  0
  -24.6454  -15.8353   20.4931 H   0  0  0  0  0  0
  -26.2623  -15.6265   20.0559 H   0  0  0  0  0  0
  -26.7206  -32.5443   23.1106 H   0  0  0  0  0  0
  -25.0064  -33.9725   25.0401 H   0  0  0  0  0  0
  -22.7195  -31.3099   21.4041 H   0  0  0  0  0  0
  -23.3801  -35.9544   23.3241 H   0  0  0  0  0  0
  -24.3565  -36.8952   22.2057 H   0  0  0  0  0  0
  -23.7178  -37.6417   23.6706 H   0  0  0  0  0  0
  -26.0889  -31.5401   20.5968 H   0  0  0  0  0  0
  -26.8512  -30.8407   21.9930 H   0  0  0  0  0  0
  -28.1136  -28.9476   21.1822 H   0  0  0  0  0  0
  -25.8751  -25.8965   19.0721 H   0  0  0  0  0  0
  -23.9438  -27.3046   19.0489 H   0  0  0  0  0  0
  -23.7511  -30.5989   19.4057 H   0  0  0  0  0  0
  -22.7534  -29.2556   19.8618 H   0  0  0  0  0  0
  -25.1279  -36.1921   25.0828 H   0  0  0  0  0  0
  -20.9942  -28.3363   24.1421 H   0  0  0  0  0  0
  -20.5708  -26.2372   23.3630 H   0  0  0  0  0  0
  -21.6647  -26.7543   22.1222 H   0  0  0  0  0  0
  -19.6959  -25.6334   21.1256 H   0  0  0  0  0  0
  -19.6691  -27.3235   20.6741 H   0  0  0  0  0  0
  -17.4201  -26.6705   21.4018 H   0  0  0  0  0  0
  -18.0333  -26.0077   22.9007 H   0  0  0  0  0  0
  -19.7904  -30.7239   24.2382 H   0  0  0  0  0  0
  -17.5011  -31.6297   24.5171 H   0  0  0  0  0  0
  -15.5350  -30.3060   23.7617 H   0  0  0  0  0  0
  -15.8638  -28.0829   22.7165 H   0  0  0  0  0  0
  -24.5940  -30.6949   25.7702 H   0  0  0  0  0  0
  -24.8826  -32.2828   26.4795 H   0  0  0  0  0  0
  -25.8031  -30.8866   27.0227 H   0  0  0  0  0  0
  -26.2873  -29.6742   24.1229 H   0  0  0  0  0  0
  -27.4030  -29.7226   25.4643 H   0  0  0  0  0  0
  -27.8735  -30.4237   23.9362 H   0  0  0  0  0  0
  -27.2796  -33.3569   26.2041 H   0  0  0  0  0  0
  -28.3947  -32.6684   25.0331 H   0  0  0  0  0  0
  -28.0711  -31.8340   26.5434 H   0  0  0  0  0  0
  -28.2552  -38.0110   24.7599 H   0  0  0  0  0  0
  -28.1109  -36.2655   24.6167 H   0  0  0  0  0  0
  -27.2301  -37.1270   25.8854 H   0  0  0  0  0  0
  -20.9333  -29.8816   21.6873 H   0  0  0  0  0  0
  -26.0151  -38.2845   24.1531 H   0  0  0  0  0  0
  -30.9023  -23.8144   19.1250 H   0  0  0  0  0  0
  -28.5536  -18.4420   21.4207 H   0  0  0  0  0  0
  -28.4978  -18.0550   19.7008 H   0  0  0  0  0  0
  -31.3178  -19.5935   18.6286 H   0  0  0  0  0  0
  -31.9338  -19.7323   20.2683 H   0  0  0  0  0  0
  -30.6771  -17.3970   21.7439 H   0  0  0  0  0  0
  -31.0211  -17.3002   18.7351 H   0  0  0  0  0  0
  -26.1314  -21.3617   21.1637 H   0  0  0  0  0  0
  -27.2356  -20.1088   21.6774 H   0  0  0  0  0  0
  -26.6052  -20.1070   20.0171 H   0  0  0  0  0  0
  -27.6326  -25.0909   18.5986 H   0  0  0  0  0  0
  -29.2678  -25.5084   18.6035 H   0  0  0  0  0  0
  -28.8974  -15.5772   20.8466 H   0  0  0  0  0  0
  -33.0132  -17.6543   20.8657 H   0  0  0  0  0  0
  -33.3060  -17.5315   19.2560 H   0  0  0  0  0  0
  -32.6596  -16.2574   20.0755 H   0  0  0  0  0  0
  1 25  1  0  0  0
  1 30  2  0  0  0
  1 84  1  0  0  0
  2  3  1  0  0  0
  2 25  1  0  0  0
  2 86  1  0  0  0
  2 87  1  0  0  0
  3  4  1  0  0  0
  3 88  1  0  0  0
  3 89  1  0  0  0
  4  5  1  0  0  0
  4 90  1  0  0  0
  4 91  1  0  0  0
  5  6  1  0  0  0
  5 26  1  0  0  0
  5 92  1  0  0  0
  6 25  1  0  0  0
  6 93  1  0  0  0
  6 94  1  0  0  0
  7  8  2  0  0  0
  7 26  1  0  0  0
  7 29  1  0  0  0
  8  9  1  0  0  0
  8 22  1  0  0  0
  9 10  1  0  0  0
  9 27  2  0  0  0
 10 11  2  0  0  0
 10 15  1  0  0  0
 11 12  1  0  0  0
 11 95  1  0  0  0
 12 13  2  0  0  0
 12 96  1  0  0  0
 13 14  1  0  0  0
 13 31  1  0  0  0
 14 15  2  0  0  0
 14 97  1  0  0  0
 15 98  1  0  0  0
 16 17  2  0  0  0
 16 21  1  0  0  0
 16 31  1  0  0  0
 17 18  1  0  0  0
 17 99  1  0  0  0
 18 19  2  0  0  0
 18100  1  0  0  0
 19 20  1  0  0  0
 19 24  1  0  0  0
 20 21  2  0  0  0
 20101  1  0  0  0
 21 23  1  0  0  0
 22 28  1  0  0  0
 22 32  2  0  0  0
 26 27  1  0  0  0
 28102  1  0  0  0
 28103  1  0  0  0
 29104  1  0  0  0
 29105  1  0  0  0
 33 34  1  0  0  0
 33 66  1  0  0  0
 33 70  2  0  0  0
 34 36  1  0  0  0
 34 59  1  0  0  0
 34106  1  0  0  0
 35 44  2  0  0  0
 35 45  1  0  0  0
 35 68  1  0  0  0
 36 56  1  0  0  0
 36107  1  0  0  0
 37 39  1  0  0  0
 37 47  1  0  0  0
 37 66  1  0  0  0
 37108  1  0  0  0
 38 43  2  0  0  0
 38 46  1  0  0  0
 38 47  1  0  0  0
 39 64  1  0  0  0
 39 67  2  0  0  0
 40 52  1  0  0  0
 40 53  2  0  0  0
 40 58  1  0  0  0
 41109  1  0  0  0
 41110  1  0  0  0
 41111  1  0  0  0
 41 48  1  0  0  0
 42 43  1  0  0  0
 42 66  1  0  0  0
 42112  1  0  0  0
 42113  1  0  0  0
 43 44  1  0  0  0
 44114  1  0  0  0
 45 46  2  0  0  0
 45115  1  0  0  0
 46116  1  0  0  0
 47117  1  0  0  0
 47118  1  0  0  0
 48 56  1  0  0  0
 48 65  1  0  0  0
 48119  1  0  0  0
 49 50  1  0  0  0
 49 53  1  0  0  0
 49 64  1  0  0  0
 49120  1  0  0  0
 50 51  1  0  0  0
 50121  1  0  0  0
 50122  1  0  0  0
 51 52  1  0  0  0
 51123  1  0  0  0
 51124  1  0  0  0
 52125  1  0  0  0
 52126  1  0  0  0
 53 54  1  0  0  0
 54 55  2  0  0  0
 54127  1  0  0  0
 55 57  1  0  0  0
 55128  1  0  0  0
 56 69  2  0  0  0
 57 58  2  0  0  0
 57129  1  0  0  0
 58130  1  0  0  0
 59 60  1  0  0  0
 59 61  1  0  0  0
 59 62  1  0  0  0
 60131  1  0  0  0
 60132  1  0  0  0
 60133  1  0  0  0
 61134  1  0  0  0
 61135  1  0  0  0
 61136  1  0  0  0
 62137  1  0  0  0
 62138  1  0  0  0
 62139  1  0  0  0
 63 65  1  0  0  0
 63140  1  0  0  0
 63141  1  0  0  0
 63142  1  0  0  0
 64143  1  0  0  0
 65144  1  0  0  0
 68 80  1  0  0  0
 71 72  2  0  0  0
 71 81  1  0  0  0
 71145  1  0  0  0
 72 80  1  0  0  0
 72 82  1  0  0  0
 73 74  1  0  0  0
 73 79  1  0  0  0
 73 82  2  0  0  0
 74 81  2  0  0  0
 74 83  1  0  0  0
 75 77  1  0  0  0
 75 83  1  0  0  0
 75146  1  0  0  0
 75147  1  0  0  0
 76 78  1  0  0  0
 76 83  1  0  0  0
 76148  1  0  0  0
 76149  1  0  0  0
 77 78  1  0  0  0
 77 84  1  0  0  0
 77150  1  0  0  0
 78 85  1  0  0  0
 78151  1  0  0  0
 79152  1  0  0  0
 79153  1  0  0  0
 79154  1  0  0  0
 80155  1  0  0  0
 80156  1  0  0  0
 84157  1  0  0  0
 85158  1  0  0  0
 85159  1  0  0  0
 85160  1  0  0  0
M  CHG  1  85   1
M  ISO  4   1 100  68 101  80 101  84 100
M  END
> <chiral flag>
0

> <version>
0

> <s_m_source_file>
/data/baiqing/PycharmProjects/Reinvent-master-3.2/result/LINK_invent/BTK/process_docking_weight1_custom_sum_contain_oxygen_bond_distance_aromatic_linkinvent_7_9_3/rearranged_h_0183.sdf

> <i_m_source_file_index>
38

> <r_mmod_Potential_Energy-OPLS-2005>
-126.812881469727

> <r_mmod_Stretch_Energy-OPLS-2005>
95.1015319824219

> <r_mmod_Bend_Energy-OPLS-2005>
225.188186645508

> <r_mmod_Torsional_Energy-OPLS-2005>
290.382232666016

> <r_mmod_Improper_Torsional_Energy-OPLS-2005>
7.70796298980713

> <r_mmod_Van_der_Waal_Energy-OPLS-2005>
164.148513793945

> <r_mmod_Electrostatic_Energy-OPLS-2005>
-493.288665771484

> <r_mmod_Solvation_Energy-OPLS-2005>
-474.663360595703

> <b_mmod_Minimization_Converged-OPLS-2005>
0

> <r_mmod_RMS_Derivative-OPLS-2005>
4.33707809448242

$$$$
39
                    3D
 Structure written by MMmdl.
151160  0  0  1  0            999 V2000
  -30.4486  -15.2193   20.3749 C   0  0  0  0  0  0
  -30.4397  -12.7756   19.5208 C   0  0  0  0  0  0
  -29.5335  -12.5688   18.2816 C   0  0  0  0  0  0
  -28.0785  -12.3032   18.7071 C   0  0  0  0  0  0
  -27.6138  -13.2707   19.8246 C   0  0  2  0  0  0
  -28.6496  -13.4218   20.9590 C   0  0  0  0  0  0
  -25.2392  -13.8241   20.5736 C   0  0  0  0  0  0
  -24.1744  -13.0435   20.9258 C   0  0  0  0  0  0
  -24.6394  -11.6930   20.8763 C   0  0  0  0  0  0
  -23.9088  -10.4291   21.0410 C   0  0  0  0  0  0
  -24.3634   -9.4204   21.9186 C   0  0  0  0  0  0
  -23.6302   -8.2243   22.0756 C   0  0  0  0  0  0
  -22.4284   -8.0283   21.3547 C   0  0  0  0  0  0
  -21.9924   -9.0257   20.4648 C   0  0  0  0  0  0
  -22.7260  -10.2133   20.3057 C   0  0  0  0  0  0
  -21.6856   -6.0737   22.5278 C   0  0  0  0  0  0
  -21.4017   -6.5639   23.8211 C   0  0  0  0  0  0
  -21.3661   -5.6791   24.9173 C   0  0  0  0  0  0
  -21.6044   -4.3054   24.7224 C   0  0  0  0  0  0
  -21.8818   -3.8146   23.4345 C   0  0  0  0  0  0
  -21.9192   -4.6963   22.3401 C   0  0  0  0  0  0
  -22.7761  -13.5189   21.1902 C   0  0  0  0  0  0
  -22.1661   -4.2148   21.0979 F   0  0  0  0  0  0
  -21.5629   -3.4538   25.7737 F   0  0  0  0  0  0
  -29.8871  -13.9159   20.3357 N   0  0  0  0  0  0
  -26.2820  -12.9509   20.3215 N   0  0  0  0  0  0
  -25.9331  -11.6619   20.5723 N   0  0  0  0  0  0
  -22.0416  -12.8174   22.0458 N   0  0  0  0  0  0
  -25.4014  -15.1977   20.4155 N   0  0  0  0  0  0
  -31.6682  -15.2340   20.1555 O   0  0  0  0  0  0
  -21.6645   -6.8882   21.4241 O   0  0  0  0  0  0
  -22.3442  -14.5488   20.6736 O   0  0  0  0  0  0
  -24.6600  -31.8263   23.1722 C   0  0  0  0  0  0
  -25.9292  -32.4603   23.8179 C   0  0  1  0  0  0
  -27.2189  -26.9564   20.1841 C   0  0  0  0  0  0
  -25.5968  -33.8416   24.2084 N   0  0  0  0  0  0
  -23.4731  -30.4381   21.5211 C   0  0  2  0  0  0
  -24.9258  -28.8277   20.1136 C   0  0  0  0  0  0
  -22.7651  -29.4453   22.4793 C   0  0  0  0  0  0
  -18.0320  -28.1405   22.8467 C   0  0  0  0  0  0
  -24.1493  -36.7216   23.2647 C   0  0  0  0  0  0
  -26.0400  -30.6425   21.3972 C   0  0  0  0  0  0
  -26.1088  -29.2344   20.7431 C   0  0  0  0  0  0
  -27.2518  -28.3202   20.7511 C   0  0  0  0  0  0
  -26.0076  -26.6932   19.5073 C   0  0  0  0  0  0
  -24.8986  -27.5770   19.4756 C   0  0  0  0  0  0
  -23.7111  -29.7530   20.1473 C   0  0  0  0  0  0
  -25.4134  -36.2976   24.0300 C   0  0  1  0  0  0
  -20.5941  -28.3747   23.1196 C   0  0  2  0  0  0
  -20.6795  -26.9431   22.5403 C   0  0  0  0  0  0
  -19.5770  -26.6376   21.5213 C   0  0  0  0  0  0
  -18.1952  -26.7939   22.1622 C   0  0  0  0  0  0
  -19.1580  -28.8897   23.2819 C   0  0  0  0  0  0
  -18.9491  -30.1487   23.8853 C   0  0  0  0  0  0
  -17.6484  -30.6596   24.0555 C   0  0  0  0  0  0
  -25.9095  -34.9358   23.5013 C   0  0  0  0  0  0
  -16.5375  -29.9083   23.6342 C   0  0  0  0  0  0
  -16.7302  -28.6503   23.0361 C   0  0  0  0  0  0
  -26.4551  -31.6540   25.0700 C   0  0  0  0  0  0
  -25.3683  -31.3785   26.1360 C   0  0  0  0  0  0
  -27.0446  -30.2911   24.6415 C   0  0  0  0  0  0
  -27.6044  -32.4348   25.7504 C   0  0  0  0  0  0
  -27.5571  -37.1767   24.8466 C   0  0  0  0  0  0
  -21.4324  -29.3041   22.3546 N   0  0  0  0  0  0
  -26.4282  -37.3709   23.9405 N   0  0  0  0  0  0
  -24.7455  -30.9954   22.0840 N   0  0  0  0  0  0
  -23.4212  -28.8024   23.3025 O   0  0  0  0  0  0
  -28.2402  -25.8794   20.2455 O   0  0  0  0  0  0
  -26.5706  -34.8889   22.4610 O   0  0  0  0  0  0
  -23.5676  -32.1217   23.6833 O   0  0  0  0  0  0
  -28.6102  -23.0874   19.2651 C   0  0  0  0  0  0
  -28.6788  -23.1360   21.2561 C   0  0  0  0  0  0
  -29.2934  -19.2674   21.3370 C   0  0  0  0  0  0
  -29.1589  -19.1827   19.3947 C   0  0  0  0  0  0
  -29.9296  -18.1197   20.3646 C   0  0  2  0  0  0
  -28.4713  -21.8176   20.3006 C   0  0  2  0  0  0
  -28.0061  -24.2534   20.2544 C   0  0  1  0  0  0
  -29.6712  -16.4735   20.4593 N   0  0  0  0  0  0
  -29.3932  -20.4246   20.3027 N   0  3  1  0  0  0
  -31.4605  -12.9748   19.1922 H   0  0  0  0  0  0
  -30.4975  -11.8632   20.1167 H   0  0  0  0  0  0
  -29.9041  -11.7443   17.6711 H   0  0  0  0  0  0
  -29.5724  -13.4589   17.6517 H   0  0  0  0  0  0
  -28.0236  -11.2753   19.0676 H   0  0  0  0  0  0
  -27.4113  -12.3613   17.8463 H   0  0  0  0  0  0
  -27.5361  -14.2437   19.3382 H   0  0  0  0  0  0
  -28.8065  -12.4795   21.4861 H   0  0  0  0  0  0
  -28.2985  -14.1394   21.7022 H   0  0  0  0  0  0
  -25.2779   -9.5677   22.4762 H   0  0  0  0  0  0
  -24.0007   -7.4634   22.7478 H   0  0  0  0  0  0
  -21.0855   -8.8780   19.8954 H   0  0  0  0  0  0
  -22.3720  -10.9671   19.6165 H   0  0  0  0  0  0
  -21.2011   -7.6148   23.9713 H   0  0  0  0  0  0
  -21.1484   -6.0523   25.9076 H   0  0  0  0  0  0
  -22.0596   -2.7608   23.2845 H   0  0  0  0  0  0
  -22.4049  -11.9846   22.4853 H   0  0  0  0  0  0
  -21.1025  -13.1179   22.2653 H   0  0  0  0  0  0
  -24.6249  -15.8419   20.5213 H   0  0  0  0  0  0
  -26.2307  -15.6379   20.0404 H   0  0  0  0  0  0
  -26.7363  -32.5150   23.0897 H   0  0  0  0  0  0
  -25.0059  -33.9498   25.0197 H   0  0  0  0  0  0
  -22.7847  -31.2686   21.3516 H   0  0  0  0  0  0
  -23.3763  -35.9538   23.3284 H   0  0  0  0  0  0
  -24.3569  -36.8888   22.2067 H   0  0  0  0  0  0
  -23.7245  -37.6395   23.6719 H   0  0  0  0  0  0
  -26.2158  -31.3847   20.6175 H   0  0  0  0  0  0
  -26.9020  -30.6999   22.0501 H   0  0  0  0  0  0
  -28.1505  -28.6313   21.2648 H   0  0  0  0  0  0
  -25.8903  -25.7396   19.0133 H   0  0  0  0  0  0
  -23.9997  -27.2611   18.9641 H   0  0  0  0  0  0
  -23.8647  -30.5211   19.3885 H   0  0  0  0  0  0
  -22.8212  -29.2059   19.8311 H   0  0  0  0  0  0
  -25.1332  -36.1776   25.0792 H   0  0  0  0  0  0
  -21.0030  -28.3353   24.1319 H   0  0  0  0  0  0
  -20.5673  -26.2366   23.3641 H   0  0  0  0  0  0
  -21.6659  -26.7409   22.1212 H   0  0  0  0  0  0
  -19.6928  -25.6275   21.1273 H   0  0  0  0  0  0
  -19.6708  -27.3160   20.6723 H   0  0  0  0  0  0
  -17.4220  -26.6680   21.4028 H   0  0  0  0  0  0
  -18.0350  -26.0093   22.9031 H   0  0  0  0  0  0
  -19.7966  -30.7315   24.2204 H   0  0  0  0  0  0
  -17.5036  -31.6271   24.5165 H   0  0  0  0  0  0
  -15.5372  -30.2970   23.7691 H   0  0  0  0  0  0
  -15.8703  -28.0807   22.7101 H   0  0  0  0  0  0
  -24.5874  -30.7125   25.7669 H   0  0  0  0  0  0
  -24.8861  -32.2985   26.4673 H   0  0  0  0  0  0
  -25.7917  -30.9025   27.0213 H   0  0  0  0  0  0
  -26.3106  -29.6590   24.1405 H   0  0  0  0  0  0
  -27.3969  -29.7272   25.5063 H   0  0  0  0  0  0
  -27.9050  -30.4099   23.9827 H   0  0  0  0  0  0
  -27.2608  -33.3686   26.1968 H   0  0  0  0  0  0
  -28.3914  -32.6852   25.0379 H   0  0  0  0  0  0
  -28.0646  -31.8553   26.5516 H   0  0  0  0  0  0
  -28.2573  -38.0077   24.7506 H   0  0  0  0  0  0
  -28.1081  -36.2601   24.6301 H   0  0  0  0  0  0
  -27.2285  -37.1420   25.8868 H   0  0  0  0  0  0
  -20.9572  -29.8731   21.6679 H   0  0  0  0  0  0
  -26.0131  -38.2769   24.1406 H   0  0  0  0  0  0
  -28.0255  -22.9575   18.3540 H   0  0  0  0  0  0
  -29.6482  -23.2861   18.9877 H   0  0  0  0  0  0
  -29.7335  -23.3462   21.4496 H   0  0  0  0  0  0
  -28.1604  -23.0533   22.2118 H   0  0  0  0  0  0
  -29.8924  -19.4629   22.2263 H   0  0  0  0  0  0
  -28.2608  -19.0681   21.6357 H   0  0  0  0  0  0
  -28.0960  -18.9644   19.2603 H   0  0  0  0  0  0
  -29.6273  -19.2967   18.4172 H   0  0  0  0  0  0
  -31.0029  -18.3013   20.2818 H   0  0  0  0  0  0
  -27.4268  -21.5082   20.3471 H   0  0  0  0  0  0
  -26.9258  -24.1134   20.3073 H   0  0  0  0  0  0
  -28.6947  -16.2587   20.5984 H   0  0  0  0  0  0
  -30.3636  -20.6876   20.2263 H   0  0  0  0  0  0
  1 25  1  0  0  0
  1 30  2  0  0  0
  1 78  1  0  0  0
  2  3  1  0  0  0
  2 25  1  0  0  0
  2 80  1  0  0  0
  2 81  1  0  0  0
  3  4  1  0  0  0
  3 82  1  0  0  0
  3 83  1  0  0  0
  4  5  1  0  0  0
  4 84  1  0  0  0
  4 85  1  0  0  0
  5  6  1  0  0  0
  5 26  1  0  0  0
  5 86  1  0  0  0
  6 25  1  0  0  0
  6 87  1  0  0  0
  6 88  1  0  0  0
  7  8  2  0  0  0
  7 26  1  0  0  0
  7 29  1  0  0  0
  8  9  1  0  0  0
  8 22  1  0  0  0
  9 10  1  0  0  0
  9 27  2  0  0  0
 10 11  2  0  0  0
 10 15  1  0  0  0
 11 12  1  0  0  0
 11 89  1  0  0  0
 12 13  2  0  0  0
 12 90  1  0  0  0
 13 14  1  0  0  0
 13 31  1  0  0  0
 14 15  2  0  0  0
 14 91  1  0  0  0
 15 92  1  0  0  0
 16 17  2  0  0  0
 16 21  1  0  0  0
 16 31  1  0  0  0
 17 18  1  0  0  0
 17 93  1  0  0  0
 18 19  2  0  0  0
 18 94  1  0  0  0
 19 20  1  0  0  0
 19 24  1  0  0  0
 20 21  2  0  0  0
 20 95  1  0  0  0
 21 23  1  0  0  0
 22 28  1  0  0  0
 22 32  2  0  0  0
 26 27  1  0  0  0
 28 96  1  0  0  0
 28 97  1  0  0  0
 29 98  1  0  0  0
 29 99  1  0  0  0
 33 34  1  0  0  0
 33 66  1  0  0  0
 33 70  2  0  0  0
 34 36  1  0  0  0
 34 59  1  0  0  0
 34100  1  0  0  0
 35 44  2  0  0  0
 35 45  1  0  0  0
 35 68  1  0  0  0
 36 56  1  0  0  0
 36101  1  0  0  0
 37 39  1  0  0  0
 37 47  1  0  0  0
 37 66  1  0  0  0
 37102  1  0  0  0
 38 43  2  0  0  0
 38 46  1  0  0  0
 38 47  1  0  0  0
 39 64  1  0  0  0
 39 67  2  0  0  0
 40 52  1  0  0  0
 40 53  2  0  0  0
 40 58  1  0  0  0
 41103  1  0  0  0
 41104  1  0  0  0
 41105  1  0  0  0
 41 48  1  0  0  0
 42 43  1  0  0  0
 42 66  1  0  0  0
 42106  1  0  0  0
 42107  1  0  0  0
 43 44  1  0  0  0
 44108  1  0  0  0
 45 46  2  0  0  0
 45109  1  0  0  0
 46110  1  0  0  0
 47111  1  0  0  0
 47112  1  0  0  0
 48 56  1  0  0  0
 48 65  1  0  0  0
 48113  1  0  0  0
 49 50  1  0  0  0
 49 53  1  0  0  0
 49 64  1  0  0  0
 49114  1  0  0  0
 50 51  1  0  0  0
 50115  1  0  0  0
 50116  1  0  0  0
 51 52  1  0  0  0
 51117  1  0  0  0
 51118  1  0  0  0
 52119  1  0  0  0
 52120  1  0  0  0
 53 54  1  0  0  0
 54 55  2  0  0  0
 54121  1  0  0  0
 55 57  1  0  0  0
 55122  1  0  0  0
 56 69  2  0  0  0
 57 58  2  0  0  0
 57123  1  0  0  0
 58124  1  0  0  0
 59 60  1  0  0  0
 59 61  1  0  0  0
 59 62  1  0  0  0
 60125  1  0  0  0
 60126  1  0  0  0
 60127  1  0  0  0
 61128  1  0  0  0
 61129  1  0  0  0
 61130  1  0  0  0
 62131  1  0  0  0
 62132  1  0  0  0
 62133  1  0  0  0
 63 65  1  0  0  0
 63134  1  0  0  0
 63135  1  0  0  0
 63136  1  0  0  0
 64137  1  0  0  0
 65138  1  0  0  0
 68 77  1  0  0  0
 71 77  1  0  0  0
 71139  1  0  0  0
 71140  1  0  0  0
 71 76  1  0  0  0
 72 76  1  0  0  0
 72 77  1  0  0  0
 72141  1  0  0  0
 72142  1  0  0  0
 73 75  1  0  0  0
 73143  1  0  0  0
 73144  1  0  0  0
 73 79  1  0  0  0
 74 75  1  0  0  0
 74 79  1  0  0  0
 74145  1  0  0  0
 74146  1  0  0  0
 75 78  1  0  0  0
 75147  1  0  0  0
 76 79  1  0  0  0
 76148  1  0  0  0
 77149  1  0  0  0
 78150  1  0  0  0
 79151  1  0  0  0
M  CHG  1  79   1
M  ISO  4   1 100  68 101  77 101  78 100
M  END
> <chiral flag>
0

> <version>
0

> <s_m_source_file>
/data/baiqing/PycharmProjects/Reinvent-master-3.2/result/LINK_invent/BTK/process_docking_weight1_custom_sum_contain_oxygen_bond_distance_aromatic_linkinvent_7_9_3/rearranged_h_0183.sdf

> <i_m_source_file_index>
39

> <r_mmod_Potential_Energy-OPLS-2005>
960.183776855469

> <r_mmod_Stretch_Energy-OPLS-2005>
459.834381103516

> <r_mmod_Bend_Energy-OPLS-2005>
487.502166748047

> <r_mmod_Torsional_Energy-OPLS-2005>
247.547637939453

> <r_mmod_Improper_Torsional_Energy-OPLS-2005>
3.99944090843201

> <r_mmod_Van_der_Waal_Energy-OPLS-2005>
115.388343811035

> <r_mmod_Electrostatic_Energy-OPLS-2005>
-262.648559570312

> <r_mmod_Solvation_Energy-OPLS-2005>
-502.236358642578

> <b_mmod_Minimization_Converged-OPLS-2005>
0

> <r_mmod_RMS_Derivative-OPLS-2005>
0.234214499592781

$$$$
40
                    3D
 Structure written by MMmdl.
164173  0  0  1  0            999 V2000
  -30.7058  -14.5993   20.5223 C   0  0  0  0  0  0
  -30.4120  -12.3804   19.4586 C   0  0  0  0  0  0
  -29.5000  -12.5181   18.2229 C   0  0  0  0  0  0
  -28.0167  -12.3760   18.6223 C   0  0  0  0  0  0
  -27.6488  -13.2227   19.8717 C   0  0  2  0  0  0
  -28.6934  -13.0161   20.9855 C   0  0  0  0  0  0
  -25.2513  -13.8201   20.5675 C   0  0  0  0  0  0
  -24.1797  -13.0458   20.9207 C   0  0  0  0  0  0
  -24.6380  -11.6940   20.8748 C   0  0  0  0  0  0
  -23.9054  -10.4313   21.0399 C   0  0  0  0  0  0
  -24.3603   -9.4241   21.9190 C   0  0  0  0  0  0
  -23.6294   -8.2268   22.0757 C   0  0  0  0  0  0
  -22.4279   -8.0289   21.3556 C   0  0  0  0  0  0
  -21.9916   -9.0252   20.4651 C   0  0  0  0  0  0
  -22.7223  -10.2143   20.3070 C   0  0  0  0  0  0
  -21.6860   -6.0744   22.5281 C   0  0  0  0  0  0
  -21.4015   -6.5648   23.8212 C   0  0  0  0  0  0
  -21.3658   -5.6793   24.9172 C   0  0  0  0  0  0
  -21.6050   -4.3056   24.7228 C   0  0  0  0  0  0
  -21.8817   -3.8155   23.4348 C   0  0  0  0  0  0
  -21.9195   -4.6972   22.3405 C   0  0  0  0  0  0
  -22.7806  -13.5233   21.1839 C   0  0  0  0  0  0
  -22.1664   -4.2159   21.0975 F   0  0  0  0  0  0
  -21.5629   -3.4542   25.7737 F   0  0  0  0  0  0
  -29.9938  -13.4193   20.4346 N   0  0  0  0  0  0
  -26.2953  -12.9403   20.3368 N   0  0  0  0  0  0
  -25.9303  -11.6548   20.5759 N   0  0  0  0  0  0
  -22.0451  -12.8216   22.0383 N   0  0  0  0  0  0
  -25.4144  -15.1919   20.3950 N   0  0  0  0  0  0
  -31.8895  -14.5613   20.1795 O   0  0  0  0  0  0
  -21.6659   -6.8884   21.4244 O   0  0  0  0  0  0
  -22.3491  -14.5527   20.6672 O   0  0  0  0  0  0
  -24.6194  -31.8627   23.2061 C   0  0  0  0  0  0
  -25.9063  -32.4793   23.8369 C   0  0  1  0  0  0
  -27.2206  -27.3746   20.0967 C   0  0  0  0  0  0
  -25.5894  -33.8592   24.2285 N   0  0  0  0  0  0
  -23.4092  -30.4871   21.5491 C   0  0  2  0  0  0
  -24.8515  -28.9474   20.1116 C   0  0  0  0  0  0
  -22.7419  -29.4620   22.4967 C   0  0  0  0  0  0
  -18.0282  -28.1364   22.8501 C   0  0  0  0  0  0
  -24.1493  -36.7327   23.2635 C   0  0  0  0  0  0
  -25.9437  -30.8110   21.3666 C   0  0  0  0  0  0
  -26.0156  -29.4431   20.7091 C   0  0  0  0  0  0
  -27.2007  -28.6641   20.6952 C   0  0  0  0  0  0
  -26.0331  -26.9069   19.4905 C   0  0  0  0  0  0
  -24.8591  -27.6844   19.4970 C   0  0  0  0  0  0
  -23.6177  -29.8216   20.1633 C   0  0  0  0  0  0
  -25.4120  -36.3091   24.0310 C   0  0  1  0  0  0
  -20.5866  -28.3665   23.1318 C   0  0  2  0  0  0
  -20.6766  -26.9398   22.5433 C   0  0  0  0  0  0
  -19.5755  -26.6377   21.5219 C   0  0  0  0  0  0
  -18.1931  -26.7914   22.1618 C   0  0  0  0  0  0
  -19.1521  -28.8832   23.2911 C   0  0  0  0  0  0
  -18.9434  -30.1428   23.8941 C   0  0  0  0  0  0
  -17.6439  -30.6575   24.0572 C   0  0  0  0  0  0
  -25.9046  -34.9457   23.5098 C   0  0  0  0  0  0
  -16.5334  -29.9076   23.6325 C   0  0  0  0  0  0
  -16.7258  -28.6480   23.0371 C   0  0  0  0  0  0
  -26.4458  -31.6579   25.0726 C   0  0  0  0  0  0
  -25.3686  -31.3714   26.1445 C   0  0  0  0  0  0
  -27.0282  -30.3011   24.6130 C   0  0  0  0  0  0
  -27.6032  -32.4294   25.7488 C   0  0  0  0  0  0
  -27.5586  -37.1815   24.8448 C   0  0  0  0  0  0
  -21.4137  -29.3035   22.3721 N   0  0  0  0  0  0
  -26.4306  -37.3784   23.9384 N   0  0  0  0  0  0
  -24.6766  -31.0677   22.0996 N   0  0  0  0  0  0
  -23.4175  -28.8136   23.3000 O   0  0  0  0  0  0
  -28.3883  -26.6212   20.1342 O   0  0  0  0  0  0
  -26.5622  -34.8907   22.4669 O   0  0  0  0  0  0
  -23.5370  -32.1386   23.7427 O   0  0  0  0  0  0
  -29.7364  -19.5481   19.7752 C   0  0  0  0  0  0
  -28.8226  -17.7450   21.1084 C   0  0  0  0  0  0
  -29.7573  -18.2030   20.2225 C   0  0  0  0  0  0
  -28.7099  -20.3990   20.2682 C   0  0  0  0  0  0
  -27.8288  -18.6373   21.5772 C   0  0  0  0  0  0
  -29.0842  -16.2976   21.4161 C   0  0  0  0  0  0
  -30.6833  -17.0545   19.8707 C   0  0  0  0  0  0
  -26.7232  -18.2165   22.5274 C   0  0  0  0  0  0
  -32.1129  -17.4564   20.3203 C   0  0  0  0  0  0
  -30.6124  -16.8291   18.3449 C   0  0  0  0  0  0
  -28.5211  -21.8544   19.7669 C   0  0  0  0  0  0
  -27.7899  -24.1755   20.6638 C   0  0  0  0  0  0
  -28.4369  -25.2289   19.7000 C   0  0  0  0  0  0
  -27.7941  -19.9434   21.1695 N   0  0  0  0  0  0
  -30.1199  -15.8582   20.6276 N   0  0  0  0  0  0
  -28.5144  -22.8639   20.8603 N   0  3  0  0  0  0
  -28.4753  -15.7119   22.3076 O   0  0  0  0  0  0
  -31.4575  -12.4543   19.1572 H   0  0  0  0  0  0
  -30.3214  -11.3822   19.8905 H   0  0  0  0  0  0
  -29.7618  -11.7672   17.4763 H   0  0  0  0  0  0
  -29.6630  -13.4878   17.7503 H   0  0  0  0  0  0
  -27.8325  -11.3192   18.8210 H   0  0  0  0  0  0
  -27.3741  -12.6406   17.7820 H   0  0  0  0  0  0
  -27.6779  -14.2684   19.5640 H   0  0  0  0  0  0
  -28.7151  -11.9614   21.2632 H   0  0  0  0  0  0
  -28.4308  -13.4875   21.9206 H   0  0  0  0  0  0
  -25.2747   -9.5724   22.4768 H   0  0  0  0  0  0
  -24.0016   -7.4654   22.7468 H   0  0  0  0  0  0
  -21.0878   -8.8751   19.8929 H   0  0  0  0  0  0
  -22.3682  -10.9675   19.6177 H   0  0  0  0  0  0
  -21.2004   -7.6159   23.9725 H   0  0  0  0  0  0
  -21.1479   -6.0524   25.9076 H   0  0  0  0  0  0
  -22.0599   -2.7622   23.2840 H   0  0  0  0  0  0
  -22.4069  -11.9875   22.4767 H   0  0  0  0  0  0
  -21.1062  -13.1223   22.2592 H   0  0  0  0  0  0
  -24.6382  -15.8368   20.4935 H   0  0  0  0  0  0
  -26.2394  -15.6221   20.0003 H   0  0  0  0  0  0
  -26.7130  -32.5464   23.1109 H   0  0  0  0  0  0
  -25.0005  -33.9762   25.0402 H   0  0  0  0  0  0
  -22.7007  -31.3072   21.4094 H   0  0  0  0  0  0
  -23.3743  -35.9681   23.3299 H   0  0  0  0  0  0
  -24.3599  -36.8962   22.2059 H   0  0  0  0  0  0
  -23.7253  -37.6529   23.6664 H   0  0  0  0  0  0
  -26.0616  -31.5750   20.5975 H   0  0  0  0  0  0
  -26.8303  -30.8619   21.9882 H   0  0  0  0  0  0
  -28.1008  -29.0428   21.1595 H   0  0  0  0  0  0
  -25.9854  -25.9411   19.0125 H   0  0  0  0  0  0
  -23.9635  -27.3044   19.0263 H   0  0  0  0  0  0
  -23.7251  -30.5973   19.4045 H   0  0  0  0  0  0
  -22.7382  -29.2466   19.8690 H   0  0  0  0  0  0
  -25.1295  -36.1970   25.0807 H   0  0  0  0  0  0
  -20.9968  -28.3245   24.1430 H   0  0  0  0  0  0
  -20.5689  -26.2272   23.3630 H   0  0  0  0  0  0
  -21.6635  -26.7456   22.1217 H   0  0  0  0  0  0
  -19.6944  -25.6292   21.1236 H   0  0  0  0  0  0
  -19.6698  -27.3197   20.6761 H   0  0  0  0  0  0
  -17.4209  -26.6683   21.4007 H   0  0  0  0  0  0
  -18.0337  -26.0027   22.8987 H   0  0  0  0  0  0
  -19.7906  -30.7239   24.2336 H   0  0  0  0  0  0
  -17.4979  -31.6255   24.5163 H   0  0  0  0  0  0
  -15.5331  -30.2989   23.7603 H   0  0  0  0  0  0
  -15.8663  -28.0788   22.7098 H   0  0  0  0  0  0
  -24.5867  -30.7055   25.7754 H   0  0  0  0  0  0
  -24.8867  -32.2886   26.4841 H   0  0  0  0  0  0
  -25.8003  -30.8896   27.0222 H   0  0  0  0  0  0
  -26.2849  -29.6789   24.1136 H   0  0  0  0  0  0
  -27.3968  -29.7224   25.4599 H   0  0  0  0  0  0
  -27.8702  -30.4298   23.9336 H   0  0  0  0  0  0
  -27.2649  -33.3566   26.2108 H   0  0  0  0  0  0
  -28.3820  -32.6891   25.0312 H   0  0  0  0  0  0
  -28.0710  -31.8390   26.5365 H   0  0  0  0  0  0
  -28.2577  -38.0131   24.7503 H   0  0  0  0  0  0
  -28.1097  -36.2660   24.6258 H   0  0  0  0  0  0
  -27.2303  -37.1448   25.8847 H   0  0  0  0  0  0
  -20.9309  -29.8789   21.6965 H   0  0  0  0  0  0
  -26.0187  -38.2857   24.1398 H   0  0  0  0  0  0
  -30.4633  -19.9038   19.0571 H   0  0  0  0  0  0
  -27.1291  -17.9503   23.5027 H   0  0  0  0  0  0
  -26.1831  -17.3591   22.1286 H   0  0  0  0  0  0
  -25.9964  -19.0166   22.6702 H   0  0  0  0  0  0
  -32.3919  -18.4329   19.9234 H   0  0  0  0  0  0
  -32.8810  -16.7664   19.9736 H   0  0  0  0  0  0
  -32.1911  -17.5167   21.4070 H   0  0  0  0  0  0
  -30.9463  -17.7116   17.7983 H   0  0  0  0  0  0
  -29.5875  -16.6265   18.0313 H   0  0  0  0  0  0
  -31.2354  -15.9958   18.0202 H   0  0  0  0  0  0
  -27.5742  -21.8995   19.2283 H   0  0  0  0  0  0
  -29.3007  -22.1051   19.0466 H   0  0  0  0  0  0
  -26.7568  -23.9838   20.3724 H   0  0  0  0  0  0
  -27.7272  -24.6325   21.6511 H   0  0  0  0  0  0
  -28.0397  -25.1249   18.6888 H   0  0  0  0  0  0
  -29.4992  -25.0008   19.6026 H   0  0  0  0  0  0
  -29.4633  -23.0130   21.1625 H   0  0  0  0  0  0
  -28.0508  -22.3732   21.6119 H   0  0  0  0  0  0
  1 25  1  0  0  0
  1 30  2  0  0  0
  1 85  1  0  0  0
  2  3  1  0  0  0
  2 25  1  0  0  0
  2 88  1  0  0  0
  2 89  1  0  0  0
  3  4  1  0  0  0
  3 90  1  0  0  0
  3 91  1  0  0  0
  4  5  1  0  0  0
  4 92  1  0  0  0
  4 93  1  0  0  0
  5  6  1  0  0  0
  5 26  1  0  0  0
  5 94  1  0  0  0
  6 25  1  0  0  0
  6 95  1  0  0  0
  6 96  1  0  0  0
  7  8  2  0  0  0
  7 26  1  0  0  0
  7 29  1  0  0  0
  8  9  1  0  0  0
  8 22  1  0  0  0
  9 10  1  0  0  0
  9 27  2  0  0  0
 10 11  2  0  0  0
 10 15  1  0  0  0
 11 12  1  0  0  0
 11 97  1  0  0  0
 12 13  2  0  0  0
 12 98  1  0  0  0
 13 14  1  0  0  0
 13 31  1  0  0  0
 14 15  2  0  0  0
 14 99  1  0  0  0
 15100  1  0  0  0
 16 17  2  0  0  0
 16 21  1  0  0  0
 16 31  1  0  0  0
 17 18  1  0  0  0
 17101  1  0  0  0
 18 19  2  0  0  0
 18102  1  0  0  0
 19 20  1  0  0  0
 19 24  1  0  0  0
 20 21  2  0  0  0
 20103  1  0  0  0
 21 23  1  0  0  0
 22 28  1  0  0  0
 22 32  2  0  0  0
 26 27  1  0  0  0
 28104  1  0  0  0
 28105  1  0  0  0
 29106  1  0  0  0
 29107  1  0  0  0
 33 34  1  0  0  0
 33 66  1  0  0  0
 33 70  2  0  0  0
 34 36  1  0  0  0
 34 59  1  0  0  0
 34108  1  0  0  0
 35 44  2  0  0  0
 35 45  1  0  0  0
 35 68  1  0  0  0
 36 56  1  0  0  0
 36109  1  0  0  0
 37 39  1  0  0  0
 37 47  1  0  0  0
 37 66  1  0  0  0
 37110  1  0  0  0
 38 43  2  0  0  0
 38 46  1  0  0  0
 38 47  1  0  0  0
 39 64  1  0  0  0
 39 67  2  0  0  0
 40 52  1  0  0  0
 40 53  2  0  0  0
 40 58  1  0  0  0
 41111  1  0  0  0
 41112  1  0  0  0
 41113  1  0  0  0
 41 48  1  0  0  0
 42 43  1  0  0  0
 42 66  1  0  0  0
 42114  1  0  0  0
 42115  1  0  0  0
 43 44  1  0  0  0
 44116  1  0  0  0
 45 46  2  0  0  0
 45117  1  0  0  0
 46118  1  0  0  0
 47119  1  0  0  0
 47120  1  0  0  0
 48 56  1  0  0  0
 48 65  1  0  0  0
 48121  1  0  0  0
 49 50  1  0  0  0
 49 53  1  0  0  0
 49 64  1  0  0  0
 49122  1  0  0  0
 50 51  1  0  0  0
 50123  1  0  0  0
 50124  1  0  0  0
 51 52  1  0  0  0
 51125  1  0  0  0
 51126  1  0  0  0
 52127  1  0  0  0
 52128  1  0  0  0
 53 54  1  0  0  0
 54 55  2  0  0  0
 54129  1  0  0  0
 55 57  1  0  0  0
 55130  1  0  0  0
 56 69  2  0  0  0
 57 58  2  0  0  0
 57131  1  0  0  0
 58132  1  0  0  0
 59 60  1  0  0  0
 59 61  1  0  0  0
 59 62  1  0  0  0
 60133  1  0  0  0
 60134  1  0  0  0
 60135  1  0  0  0
 61136  1  0  0  0
 61137  1  0  0  0
 61138  1  0  0  0
 62139  1  0  0  0
 62140  1  0  0  0
 62141  1  0  0  0
 63 65  1  0  0  0
 63142  1  0  0  0
 63143  1  0  0  0
 63144  1  0  0  0
 64145  1  0  0  0
 65146  1  0  0  0
 68 83  1  0  0  0
 71 73  2  0  0  0
 71 74  1  0  0  0
 71147  1  0  0  0
 72 73  1  0  0  0
 72 75  2  0  0  0
 72 76  1  0  0  0
 73 77  1  0  0  0
 74 81  1  0  0  0
 74 84  2  0  0  0
 75 78  1  0  0  0
 75 84  1  0  0  0
 76 85  1  0  0  0
 76 87  2  0  0  0
 77 79  1  0  0  0
 77 80  1  0  0  0
 77 85  1  0  0  0
 78148  1  0  0  0
 78149  1  0  0  0
 78150  1  0  0  0
 79151  1  0  0  0
 79152  1  0  0  0
 79153  1  0  0  0
 80154  1  0  0  0
 80155  1  0  0  0
 80156  1  0  0  0
 81 86  1  0  0  0
 81157  1  0  0  0
 81158  1  0  0  0
 82 83  1  0  0  0
 82 86  1  0  0  0
 82159  1  0  0  0
 82160  1  0  0  0
 83161  1  0  0  0
 83162  1  0  0  0
 86163  1  0  0  0
 86164  1  0  0  0
M  CHG  1  86   1
M  ISO  4   1 100  68 101  83 101  85 100
M  END
> <chiral flag>
0

> <version>
0

> <s_m_source_file>
/data/baiqing/PycharmProjects/Reinvent-master-3.2/result/LINK_invent/BTK/process_docking_weight1_custom_sum_contain_oxygen_bond_distance_aromatic_linkinvent_7_9_3/rearranged_h_0183.sdf

> <i_m_source_file_index>
40

> <r_mmod_Potential_Energy-OPLS-2005>
-150.783554077148

> <r_mmod_Stretch_Energy-OPLS-2005>
71.6731643676758

> <r_mmod_Bend_Energy-OPLS-2005>
233.887405395508

> <r_mmod_Torsional_Energy-OPLS-2005>
234.15495300293

> <r_mmod_Improper_Torsional_Energy-OPLS-2005>
10.4901237487793

> <r_mmod_Van_der_Waal_Energy-OPLS-2005>
151.277648925781

> <r_mmod_Electrostatic_Energy-OPLS-2005>
-453.280090332031

> <r_mmod_Solvation_Energy-OPLS-2005>
-432.288757324219

> <b_mmod_Minimization_Converged-OPLS-2005>
0

> <r_mmod_RMS_Derivative-OPLS-2005>
2.70747518539429

$$$$
41
                    3D
 Structure written by MMmdl.
153162  0  0  1  0            999 V2000
  -30.6016  -14.9704   20.3741 C   0  0  0  0  0  0
  -30.4274  -12.6097   19.4730 C   0  0  0  0  0  0
  -29.5070  -12.5164   18.2386 C   0  0  0  0  0  0
  -28.0468  -12.2954   18.6735 C   0  0  0  0  0  0
  -27.6160  -13.2418   19.8232 C   0  0  2  0  0  0
  -28.6725  -13.3415   20.9441 C   0  0  0  0  0  0
  -25.2411  -13.8170   20.5764 C   0  0  0  0  0  0
  -24.1732  -13.0402   20.9259 C   0  0  0  0  0  0
  -24.6358  -11.6895   20.8781 C   0  0  0  0  0  0
  -23.9050  -10.4274   21.0424 C   0  0  0  0  0  0
  -24.3604   -9.4198   21.9201 C   0  0  0  0  0  0
  -23.6282   -8.2230   22.0767 C   0  0  0  0  0  0
  -22.4265   -8.0263   21.3549 C   0  0  0  0  0  0
  -21.9898   -9.0240   20.4658 C   0  0  0  0  0  0
  -22.7227  -10.2116   20.3072 C   0  0  0  0  0  0
  -21.6850   -6.0720   22.5276 C   0  0  0  0  0  0
  -21.4017   -6.5630   23.8207 C   0  0  0  0  0  0
  -21.3663   -5.6781   24.9168 C   0  0  0  0  0  0
  -21.6042   -4.3044   24.7222 C   0  0  0  0  0  0
  -21.8826   -3.8137   23.4346 C   0  0  0  0  0  0
  -21.9201   -4.6951   22.3402 C   0  0  0  0  0  0
  -22.7761  -13.5190   21.1895 C   0  0  0  0  0  0
  -22.1669   -4.2141   21.0979 F   0  0  0  0  0  0
  -21.5627   -3.4536   25.7735 F   0  0  0  0  0  0
  -29.9336  -13.7438   20.3059 N   0  0  0  0  0  0
  -26.2831  -12.9394   20.3275 N   0  0  0  0  0  0
  -25.9284  -11.6533   20.5760 N   0  0  0  0  0  0
  -22.0394  -12.8194   22.0441 N   0  0  0  0  0  0
  -25.4007  -15.1904   20.4217 N   0  0  0  0  0  0
  -31.8291  -14.9171   20.2471 O   0  0  0  0  0  0
  -21.6628   -6.8860   21.4239 O   0  0  0  0  0  0
  -22.3469  -14.5512   20.6746 O   0  0  0  0  0  0
  -24.6442  -31.8432   23.1845 C   0  0  0  0  0  0
  -25.9213  -32.4700   23.8235 C   0  0  1  0  0  0
  -27.2305  -27.1367   20.1575 C   0  0  0  0  0  0
  -25.5949  -33.8495   24.2168 N   0  0  0  0  0  0
  -23.4490  -30.4598   21.5310 C   0  0  2  0  0  0
  -24.9005  -28.8760   20.1172 C   0  0  0  0  0  0
  -22.7569  -29.4557   22.4860 C   0  0  0  0  0  0
  -18.0313  -28.1425   22.8495 C   0  0  0  0  0  0
  -24.1492  -36.7247   23.2640 C   0  0  0  0  0  0
  -26.0038  -30.7192   21.3805 C   0  0  0  0  0  0
  -26.0780  -29.3262   20.7284 C   0  0  0  0  0  0
  -27.2450  -28.4748   20.7247 C   0  0  0  0  0  0
  -26.0240  -26.7800   19.5192 C   0  0  0  0  0  0
  -24.8853  -27.6158   19.4982 C   0  0  0  0  0  0
  -23.6772  -29.7792   20.1537 C   0  0  0  0  0  0
  -25.4125  -36.3032   24.0317 C   0  0  1  0  0  0
  -20.5925  -28.3749   23.1247 C   0  0  2  0  0  0
  -20.6811  -26.9453   22.5416 C   0  0  0  0  0  0
  -19.5778  -26.6413   21.5230 C   0  0  0  0  0  0
  -18.1957  -26.7970   22.1637 C   0  0  0  0  0  0
  -19.1571  -28.8905   23.2866 C   0  0  0  0  0  0
  -18.9483  -30.1499   23.8898 C   0  0  0  0  0  0
  -17.6480  -30.6623   24.0568 C   0  0  0  0  0  0
  -25.9075  -34.9407   23.5051 C   0  0  0  0  0  0
  -16.5370  -29.9117   23.6338 C   0  0  0  0  0  0
  -16.7296  -28.6530   23.0368 C   0  0  0  0  0  0
  -26.4538  -31.6570   25.0674 C   0  0  0  0  0  0
  -25.3715  -31.3767   26.1363 C   0  0  0  0  0  0
  -27.0408  -30.2973   24.6247 C   0  0  0  0  0  0
  -27.6067  -32.4338   25.7458 C   0  0  0  0  0  0
  -27.5575  -37.1779   24.8466 C   0  0  0  0  0  0
  -21.4261  -29.3059   22.3604 N   0  0  0  0  0  0
  -26.4288  -37.3746   23.9412 N   0  0  0  0  0  0
  -24.7193  -31.0287   22.0876 N   0  0  0  0  0  0
  -23.4201  -28.8109   23.3030 O   0  0  0  0  0  0
  -28.3114  -26.1847   20.1559 O   0  0  0  0  0  0
  -26.5655  -34.8908   22.4633 O   0  0  0  0  0  0
  -23.5566  -32.1297   23.7072 O   0  0  0  0  0  0
  -30.6119  -20.1460   21.5068 C   0  0  0  0  0  0
  -30.1754  -21.4903   21.2493 C   0  0  0  0  0  0
  -30.0822  -19.0199   20.8116 C   0  0  0  0  0  0
  -29.0828  -19.3603   19.8881 C   0  0  0  0  0  0
  -29.1778  -21.8073   20.2855 C   0  0  0  0  0  0
  -30.6489  -17.5228   20.9856 C   0  0  0  0  0  0
  -28.5810  -18.1508   19.0721 C   0  0  0  0  0  0
  -28.7402  -16.6663   19.6723 C   0  0  0  0  0  0
  -28.9455  -23.3721   19.7717 C   0  0  0  0  0  0
  -28.1440  -24.6669   20.4948 C   0  0  0  0  0  0
  -28.6566  -20.6828   19.6275 N   0  0  0  0  0  0
  -29.9626  -16.2614   20.4389 N   0  0  0  0  0  0
  -31.4596  -12.7538   19.1475 H   0  0  0  0  0  0
  -30.4193  -11.6766   20.0389 H   0  0  0  0  0  0
  -29.8300  -11.7093   17.5790 H   0  0  0  0  0  0
  -29.5842  -13.4354   17.6551 H   0  0  0  0  0  0
  -27.9533  -11.2595   18.9999 H   0  0  0  0  0  0
  -27.3795  -12.4089   17.8187 H   0  0  0  0  0  0
  -27.5385  -14.2169   19.3551 H   0  0  0  0  0  0
  -28.7778  -12.3933   21.4743 H   0  0  0  0  0  0
  -28.3739  -14.0856   21.6838 H   0  0  0  0  0  0
  -25.2744   -9.5688   22.4785 H   0  0  0  0  0  0
  -23.9994   -7.4624   22.7491 H   0  0  0  0  0  0
  -21.0828   -8.8768   19.8960 H   0  0  0  0  0  0
  -22.3690  -10.9661   19.6190 H   0  0  0  0  0  0
  -21.2006   -7.6136   23.9714 H   0  0  0  0  0  0
  -21.1479   -6.0502   25.9069 H   0  0  0  0  0  0
  -22.0605   -2.7600   23.2845 H   0  0  0  0  0  0
  -22.3971  -11.9856   22.4850 H   0  0  0  0  0  0
  -21.1029  -13.1272   22.2646 H   0  0  0  0  0  0
  -24.6281  -15.8351   20.5503 H   0  0  0  0  0  0
  -26.2462  -15.6465   20.1096 H   0  0  0  0  0  0
  -26.7271  -32.5326   23.0955 H   0  0  0  0  0  0
  -25.0080  -33.9594   25.0304 H   0  0  0  0  0  0
  -22.7527  -31.2851   21.3706 H   0  0  0  0  0  0
  -23.3768  -35.9565   23.3296 H   0  0  0  0  0  0
  -24.3568  -36.8887   22.2055 H   0  0  0  0  0  0
  -23.7233  -37.6437   23.6681 H   0  0  0  0  0  0
  -26.1537  -31.4723   20.6054 H   0  0  0  0  0  0
  -26.8750  -30.7758   22.0212 H   0  0  0  0  0  0
  -28.1494  -28.8210   21.2045 H   0  0  0  0  0  0
  -25.9517  -25.8165   19.0351 H   0  0  0  0  0  0
  -23.9849  -27.2672   19.0104 H   0  0  0  0  0  0
  -23.8152  -30.5466   19.3917 H   0  0  0  0  0  0
  -22.7941  -29.2180   19.8460 H   0  0  0  0  0  0
  -25.1320  -36.1848   25.0809 H   0  0  0  0  0  0
  -21.0024  -28.3360   24.1365 H   0  0  0  0  0  0
  -20.5764  -26.2348   23.3629 H   0  0  0  0  0  0
  -21.6670  -26.7502   22.1172 H   0  0  0  0  0  0
  -19.6934  -25.6319   21.1279 H   0  0  0  0  0  0
  -19.6721  -27.3209   20.6749 H   0  0  0  0  0  0
  -17.4226  -26.6721   21.4039 H   0  0  0  0  0  0
  -18.0344  -26.0125   22.9044 H   0  0  0  0  0  0
  -19.7952  -30.7321   24.2273 H   0  0  0  0  0  0
  -17.5028  -31.6300   24.5177 H   0  0  0  0  0  0
  -15.5374  -30.3016   23.7675 H   0  0  0  0  0  0
  -15.8690  -28.0842   22.7102 H   0  0  0  0  0  0
  -24.5826  -30.7228   25.7631 H   0  0  0  0  0  0
  -24.9001  -32.2974   26.4813 H   0  0  0  0  0  0
  -25.7964  -30.8854   27.0122 H   0  0  0  0  0  0
  -26.3018  -29.6685   24.1274 H   0  0  0  0  0  0
  -27.4059  -29.7291   25.4811 H   0  0  0  0  0  0
  -27.8904  -30.4226   23.9528 H   0  0  0  0  0  0
  -27.2654  -33.3642   26.2001 H   0  0  0  0  0  0
  -28.3886  -32.6901   25.0297 H   0  0  0  0  0  0
  -28.0722  -31.8491   26.5401 H   0  0  0  0  0  0
  -28.2594  -38.0075   24.7527 H   0  0  0  0  0  0
  -28.1081  -36.2615   24.6296 H   0  0  0  0  0  0
  -27.2288  -37.1415   25.8864 H   0  0  0  0  0  0
  -20.9483  -29.8705   21.6711 H   0  0  0  0  0  0
  -26.0163  -38.2815   24.1430 H   0  0  0  0  0  0
  -31.4107  -19.9865   22.2175 H   0  0  0  0  0  0
  -30.6788  -22.2986   21.7628 H   0  0  0  0  0  0
  -30.7873  -17.3590   22.0554 H   0  0  0  0  0  0
  -31.6555  -17.5408   20.5652 H   0  0  0  0  0  0
  -29.1164  -18.1899   18.1221 H   0  0  0  0  0  0
  -27.5326  -18.3160   18.8186 H   0  0  0  0  0  0
  -28.6205  -15.9843   18.8312 H   0  0  0  0  0  0
  -27.9040  -16.4895   20.3459 H   0  0  0  0  0  0
  -28.5432  -23.2906   18.7622 H   0  0  0  0  0  0
  -29.9623  -23.7335   19.6202 H   0  0  0  0  0  0
  -28.4368  -24.6207   21.5436 H   0  0  0  0  0  0
  -27.0806  -24.4288   20.5081 H   0  0  0  0  0  0
  1 25  1  0  0  0
  1 30  2  0  0  0
  1 82  1  0  0  0
  2  3  1  0  0  0
  2 25  1  0  0  0
  2 83  1  0  0  0
  2 84  1  0  0  0
  3  4  1  0  0  0
  3 85  1  0  0  0
  3 86  1  0  0  0
  4  5  1  0  0  0
  4 87  1  0  0  0
  4 88  1  0  0  0
  5  6  1  0  0  0
  5 26  1  0  0  0
  5 89  1  0  0  0
  6 25  1  0  0  0
  6 90  1  0  0  0
  6 91  1  0  0  0
  7  8  2  0  0  0
  7 26  1  0  0  0
  7 29  1  0  0  0
  8  9  1  0  0  0
  8 22  1  0  0  0
  9 10  1  0  0  0
  9 27  2  0  0  0
 10 11  2  0  0  0
 10 15  1  0  0  0
 11 12  1  0  0  0
 11 92  1  0  0  0
 12 13  2  0  0  0
 12 93  1  0  0  0
 13 14  1  0  0  0
 13 31  1  0  0  0
 14 15  2  0  0  0
 14 94  1  0  0  0
 15 95  1  0  0  0
 16 17  2  0  0  0
 16 21  1  0  0  0
 16 31  1  0  0  0
 17 18  1  0  0  0
 17 96  1  0  0  0
 18 19  2  0  0  0
 18 97  1  0  0  0
 19 20  1  0  0  0
 19 24  1  0  0  0
 20 21  2  0  0  0
 20 98  1  0  0  0
 21 23  1  0  0  0
 22 28  1  0  0  0
 22 32  2  0  0  0
 26 27  1  0  0  0
 28 99  1  0  0  0
 28100  1  0  0  0
 29101  1  0  0  0
 29102  1  0  0  0
 33 34  1  0  0  0
 33 66  1  0  0  0
 33 70  2  0  0  0
 34 36  1  0  0  0
 34 59  1  0  0  0
 34103  1  0  0  0
 35 44  2  0  0  0
 35 45  1  0  0  0
 35 68  1  0  0  0
 36 56  1  0  0  0
 36104  1  0  0  0
 37 39  1  0  0  0
 37 47  1  0  0  0
 37 66  1  0  0  0
 37105  1  0  0  0
 38 43  2  0  0  0
 38 46  1  0  0  0
 38 47  1  0  0  0
 39 64  1  0  0  0
 39 67  2  0  0  0
 40 52  1  0  0  0
 40 53  2  0  0  0
 40 58  1  0  0  0
 41106  1  0  0  0
 41107  1  0  0  0
 41108  1  0  0  0
 41 48  1  0  0  0
 42 43  1  0  0  0
 42 66  1  0  0  0
 42109  1  0  0  0
 42110  1  0  0  0
 43 44  1  0  0  0
 44111  1  0  0  0
 45 46  2  0  0  0
 45112  1  0  0  0
 46113  1  0  0  0
 47114  1  0  0  0
 47115  1  0  0  0
 48 56  1  0  0  0
 48 65  1  0  0  0
 48116  1  0  0  0
 49 50  1  0  0  0
 49 53  1  0  0  0
 49 64  1  0  0  0
 49117  1  0  0  0
 50 51  1  0  0  0
 50118  1  0  0  0
 50119  1  0  0  0
 51 52  1  0  0  0
 51120  1  0  0  0
 51121  1  0  0  0
 52122  1  0  0  0
 52123  1  0  0  0
 53 54  1  0  0  0
 54 55  2  0  0  0
 54124  1  0  0  0
 55 57  1  0  0  0
 55125  1  0  0  0
 56 69  2  0  0  0
 57 58  2  0  0  0
 57126  1  0  0  0
 58127  1  0  0  0
 59 60  1  0  0  0
 59 61  1  0  0  0
 59 62  1  0  0  0
 60128  1  0  0  0
 60129  1  0  0  0
 60130  1  0  0  0
 61131  1  0  0  0
 61132  1  0  0  0
 61133  1  0  0  0
 62134  1  0  0  0
 62135  1  0  0  0
 62136  1  0  0  0
 63 65  1  0  0  0
 63137  1  0  0  0
 63138  1  0  0  0
 63139  1  0  0  0
 64140  1  0  0  0
 65141  1  0  0  0
 68 80  1  0  0  0
 71 72  2  0  0  0
 71 73  1  0  0  0
 71142  1  0  0  0
 72 75  1  0  0  0
 72143  1  0  0  0
 73 74  2  0  0  0
 73 76  1  0  0  0
 74 77  1  0  0  0
 74 81  1  0  0  0
 75 79  1  0  0  0
 75 81  2  0  0  0
 76 82  1  0  0  0
 76144  1  0  0  0
 76145  1  0  0  0
 77 78  1  0  0  0
 77146  1  0  0  0
 77147  1  0  0  0
 78 82  1  0  0  0
 78148  1  0  0  0
 78149  1  0  0  0
 79 80  1  0  0  0
 79150  1  0  0  0
 79151  1  0  0  0
 80152  1  0  0  0
 80153  1  0  0  0
M  ISO  4   1 100  68 101  80 101  82 100
M  END
> <chiral flag>
0

> <version>
0

> <s_m_source_file>
/data/baiqing/PycharmProjects/Reinvent-master-3.2/result/LINK_invent/BTK/process_docking_weight1_custom_sum_contain_oxygen_bond_distance_aromatic_linkinvent_7_9_3/rearranged_h_0183.sdf

> <i_m_source_file_index>
41

> <r_mmod_Potential_Energy-OPLS-2005>
511.697875976562

> <r_mmod_Stretch_Energy-OPLS-2005>
236.304901123047

> <r_mmod_Bend_Energy-OPLS-2005>
275.762786865234

> <r_mmod_Torsional_Energy-OPLS-2005>
300.50634765625

> <r_mmod_Improper_Torsional_Energy-OPLS-2005>
5.95411539077759

> <r_mmod_Van_der_Waal_Energy-OPLS-2005>
132.091049194336

> <r_mmod_Electrostatic_Energy-OPLS-2005>
-414.023376464844

> <r_mmod_Solvation_Energy-OPLS-2005>
-225.497955322266

> <b_mmod_Minimization_Converged-OPLS-2005>
0

> <r_mmod_RMS_Derivative-OPLS-2005>
1.97418248653412

$$$$
42
                    3D
 Structure written by MMmdl.
149158  0  0  1  0            999 V2000
  -30.2755  -15.7064   20.3234 C   0  0  0  0  0  0
  -30.4163  -13.1331   19.5469 C   0  0  0  0  0  0
  -29.5530  -12.6741   18.3348 C   0  0  0  0  0  0
  -28.1324  -12.3004   18.7805 C   0  0  0  0  0  0
  -27.5918  -13.3150   19.8121 C   0  0  2  0  0  0
  -28.6002  -13.6815   20.9286 C   0  0  0  0  0  0
  -25.2301  -13.8293   20.5801 C   0  0  0  0  0  0
  -24.1699  -13.0433   20.9293 C   0  0  0  0  0  0
  -24.6412  -11.6948   20.8763 C   0  0  0  0  0  0
  -23.9117  -10.4292   21.0393 C   0  0  0  0  0  0
  -24.3653   -9.4205   21.9176 C   0  0  0  0  0  0
  -23.6314   -8.2246   22.0750 C   0  0  0  0  0  0
  -22.4294   -8.0286   21.3542 C   0  0  0  0  0  0
  -21.9939   -9.0262   20.4643 C   0  0  0  0  0  0
  -22.7282  -10.2134   20.3048 C   0  0  0  0  0  0
  -21.6860   -6.0740   22.5278 C   0  0  0  0  0  0
  -21.4021   -6.5642   23.8211 C   0  0  0  0  0  0
  -21.3661   -5.6792   24.9172 C   0  0  0  0  0  0
  -21.6044   -4.3055   24.7222 C   0  0  0  0  0  0
  -21.8818   -3.8148   23.4343 C   0  0  0  0  0  0
  -21.9194   -4.6966   22.3400 C   0  0  0  0  0  0
  -22.7710  -13.5158   21.1926 C   0  0  0  0  0  0
  -22.1660   -4.2151   21.0977 F   0  0  0  0  0  0
  -21.5628   -3.4538   25.7734 F   0  0  0  0  0  0
  -29.7638  -14.3257   20.2702 N   0  0  0  0  0  0
  -26.2753  -12.9637   20.3237 N   0  0  0  0  0  0
  -25.9360  -11.6701   20.5695 N   0  0  0  0  0  0
  -22.0377  -12.8135   22.0479 N   0  0  0  0  0  0
  -25.3885  -15.2036   20.4245 N   0  0  0  0  0  0
  -31.5106  -15.6275   20.1615 O   0  0  0  0  0  0
  -21.6649   -6.8887   21.4242 O   0  0  0  0  0  0
  -22.3384  -14.5456   20.6760 O   0  0  0  0  0  0
  -24.6881  -31.7926   23.1460 C   0  0  0  0  0  0
  -25.9437  -32.4429   23.8028 C   0  0  1  0  0  0
  -27.2285  -26.6359   20.2294 C   0  0  0  0  0  0
  -25.5995  -33.8259   24.1910 N   0  0  0  0  0  0
  -23.5167  -30.3903   21.5009 C   0  0  2  0  0  0
  -24.9728  -28.7120   20.1225 C   0  0  0  0  0  0
  -22.7783  -29.4273   22.4698 C   0  0  0  0  0  0
  -18.0339  -28.1422   22.8453 C   0  0  0  0  0  0
  -24.1496  -36.7138   23.2654 C   0  0  0  0  0  0
  -26.0980  -30.5025   21.4208 C   0  0  0  0  0  0
  -26.1593  -29.0581   20.7778 C   0  0  0  0  0  0
  -27.2644  -28.0491   20.7973 C   0  0  0  0  0  0
  -26.0102  -26.5150   19.5075 C   0  0  0  0  0  0
  -24.9401  -27.4674   19.4654 C   0  0  0  0  0  0
  -23.7738  -29.6776   20.1398 C   0  0  0  0  0  0
  -25.4149  -36.2876   24.0277 C   0  0  1  0  0  0
  -20.5976  -28.3784   23.1134 C   0  0  2  0  0  0
  -20.6803  -26.9439   22.5406 C   0  0  0  0  0  0
  -19.5780  -26.6368   21.5217 C   0  0  0  0  0  0
  -18.1962  -26.7949   22.1619 C   0  0  0  0  0  0
  -19.1606  -28.8929   23.2773 C   0  0  0  0  0  0
  -18.9511  -30.1511   23.8822 C   0  0  0  0  0  0
  -17.6500  -30.6604   24.0549 C   0  0  0  0  0  0
  -25.9132  -34.9267   23.4939 C   0  0  0  0  0  0
  -16.5390  -29.9085   23.6350 C   0  0  0  0  0  0
  -16.7319  -28.6507   23.0369 C   0  0  0  0  0  0
  -26.4602  -31.6492   25.0677 C   0  0  0  0  0  0
  -25.3655  -31.3826   26.1284 C   0  0  0  0  0  0
  -27.0545  -30.2823   24.6622 C   0  0  0  0  0  0
  -27.6040  -32.4369   25.7497 C   0  0  0  0  0  0
  -27.5564  -37.1723   24.8465 C   0  0  0  0  0  0
  -21.4426  -29.3019   22.3448 N   0  0  0  0  0  0
  -26.4270  -37.3644   23.9409 N   0  0  0  0  0  0
  -24.7918  -30.9308   22.0747 N   0  0  0  0  0  0
  -23.4201  -28.7889   23.3071 O   0  0  0  0  0  0
  -28.2554  -25.4497   20.2773 O   0  0  0  0  0  0
  -26.5784  -34.8858   22.4564 O   0  0  0  0  0  0
  -23.5890  -32.1035   23.6376 O   0  0  0  0  0  0
  -28.9133  -20.5700   20.2409 C   0  0  0  0  0  0
  -29.6953  -21.6754   20.7431 C   0  0  0  0  0  0
  -27.7545  -21.3787   19.7400 C   0  0  0  0  0  0
  -28.3390  -23.8497   20.3087 C   0  0  0  0  0  0
  -30.9825  -21.0119   21.2335 C   0  0  0  0  0  0
  -30.8649  -19.4130   21.1792 C   0  0  0  0  0  0
  -29.7211  -18.8964   20.2434 C   0  0  1  0  0  0
  -26.6519  -20.6238   19.0312 C   0  0  0  0  0  0
  -29.4639  -23.1260   20.7717 N   0  0  0  0  0  0
  -27.5104  -22.8397   19.7816 N   0  0  0  0  0  0
  -29.5236  -17.0990   20.3732 N   0  0  0  0  0  0
  -31.4063  -13.4013   19.1771 H   0  0  0  0  0  0
  -30.5902  -12.3030   20.2338 H   0  0  0  0  0  0
  -30.0239  -11.8324   17.8250 H   0  0  0  0  0  0
  -29.5019  -13.4851   17.6068 H   0  0  0  0  0  0
  -28.1740  -11.3093   19.2343 H   0  0  0  0  0  0
  -27.4646  -12.2207   17.9218 H   0  0  0  0  0  0
  -27.4443  -14.2254   19.2294 H   0  0  0  0  0  0
  -28.8752  -12.8139   21.5304 H   0  0  0  0  0  0
  -28.1508  -14.3996   21.6160 H   0  0  0  0  0  0
  -25.2793   -9.5680   22.4759 H   0  0  0  0  0  0
  -24.0015   -7.4640   22.7477 H   0  0  0  0  0  0
  -21.0866   -8.8791   19.8954 H   0  0  0  0  0  0
  -22.3737  -10.9675   19.6160 H   0  0  0  0  0  0
  -21.2018   -7.6151   23.9716 H   0  0  0  0  0  0
  -21.1484   -6.0522   25.9075 H   0  0  0  0  0  0
  -22.0595   -2.7610   23.2841 H   0  0  0  0  0  0
  -22.4022  -11.9815   22.4878 H   0  0  0  0  0  0
  -21.0982  -13.1128   22.2675 H   0  0  0  0  0  0
  -24.6158  -15.8505   20.5387 H   0  0  0  0  0  0
  -26.2275  -15.6465   20.0745 H   0  0  0  0  0  0
  -26.7523  -32.4885   23.0740 H   0  0  0  0  0  0
  -25.0042  -33.9287   24.9996 H   0  0  0  0  0  0
  -22.8455  -31.2289   21.3044 H   0  0  0  0  0  0
  -23.3782  -35.9442   23.3255 H   0  0  0  0  0  0
  -24.3562  -36.8867   22.2081 H   0  0  0  0  0  0
  -23.7231  -37.6287   23.6776 H   0  0  0  0  0  0
  -26.3078  -31.2202   20.6267 H   0  0  0  0  0  0
  -26.9471  -30.5745   22.0879 H   0  0  0  0  0  0
  -28.1615  -28.3269   21.3326 H   0  0  0  0  0  0
  -25.8453  -25.5816   18.9874 H   0  0  0  0  0  0
  -24.0473  -27.1955   18.9190 H   0  0  0  0  0  0
  -23.9558  -30.4329   19.3746 H   0  0  0  0  0  0
  -22.8769  -29.1477   19.8148 H   0  0  0  0  0  0
  -25.1361  -36.1631   25.0766 H   0  0  0  0  0  0
  -21.0055  -28.3415   24.1262 H   0  0  0  0  0  0
  -20.5660  -26.2410   23.3672 H   0  0  0  0  0  0
  -21.6664  -26.7373   22.1228 H   0  0  0  0  0  0
  -19.6935  -25.6258   21.1298 H   0  0  0  0  0  0
  -19.6725  -27.3136   20.6714 H   0  0  0  0  0  0
  -17.4233  -26.6692   21.4022 H   0  0  0  0  0  0
  -18.0349  -26.0110   22.9033 H   0  0  0  0  0  0
  -19.7987  -30.7345   24.2160 H   0  0  0  0  0  0
  -17.5051  -31.6277   24.5166 H   0  0  0  0  0  0
  -15.5387  -30.2964   23.7716 H   0  0  0  0  0  0
  -15.8720  -28.0799   22.7129 H   0  0  0  0  0  0
  -24.5846  -30.7178   25.7571 H   0  0  0  0  0  0
  -24.8842  -32.3057   26.4523 H   0  0  0  0  0  0
  -25.7814  -30.9094   27.0188 H   0  0  0  0  0  0
  -26.3270  -29.6413   24.1634 H   0  0  0  0  0  0
  -27.3966  -29.7301   25.5385 H   0  0  0  0  0  0
  -27.9255  -30.3934   24.0162 H   0  0  0  0  0  0
  -27.2568  -33.3738   26.1864 H   0  0  0  0  0  0
  -28.3955  -32.6824   25.0403 H   0  0  0  0  0  0
  -28.0598  -31.8646   26.5586 H   0  0  0  0  0  0
  -28.2542  -38.0055   24.7525 H   0  0  0  0  0  0
  -28.1101  -36.2579   24.6279 H   0  0  0  0  0  0
  -27.2280  -37.1341   25.8866 H   0  0  0  0  0  0
  -20.9744  -29.8660   21.6494 H   0  0  0  0  0  0
  -26.0093  -38.2689   24.1428 H   0  0  0  0  0  0
  -31.2240  -21.3509   22.2409 H   0  0  0  0  0  0
  -31.7930  -21.3415   20.5834 H   0  0  0  0  0  0
  -30.6084  -19.0866   22.1874 H   0  0  0  0  0  0
  -31.8240  -18.9457   20.9540 H   0  0  0  0  0  0
  -30.1323  -18.9249   19.2334 H   0  0  0  0  0  0
  -26.8377  -19.5498   19.0466 H   0  0  0  0  0  0
  -26.5823  -20.9397   17.9906 H   0  0  0  0  0  0
  -25.6920  -20.8070   19.5136 H   0  0  0  0  0  0
  -28.5417  -16.8876   20.4834 H   0  0  0  0  0  0
  1 25  1  0  0  0
  1 30  2  0  0  0
  1 81  1  0  0  0
  2  3  1  0  0  0
  2 25  1  0  0  0
  2 82  1  0  0  0
  2 83  1  0  0  0
  3  4  1  0  0  0
  3 84  1  0  0  0
  3 85  1  0  0  0
  4  5  1  0  0  0
  4 86  1  0  0  0
  4 87  1  0  0  0
  5  6  1  0  0  0
  5 26  1  0  0  0
  5 88  1  0  0  0
  6 25  1  0  0  0
  6 89  1  0  0  0
  6 90  1  0  0  0
  7  8  2  0  0  0
  7 26  1  0  0  0
  7 29  1  0  0  0
  8  9  1  0  0  0
  8 22  1  0  0  0
  9 10  1  0  0  0
  9 27  2  0  0  0
 10 11  2  0  0  0
 10 15  1  0  0  0
 11 12  1  0  0  0
 11 91  1  0  0  0
 12 13  2  0  0  0
 12 92  1  0  0  0
 13 14  1  0  0  0
 13 31  1  0  0  0
 14 15  2  0  0  0
 14 93  1  0  0  0
 15 94  1  0  0  0
 16 17  2  0  0  0
 16 21  1  0  0  0
 16 31  1  0  0  0
 17 18  1  0  0  0
 17 95  1  0  0  0
 18 19  2  0  0  0
 18 96  1  0  0  0
 19 20  1  0  0  0
 19 24  1  0  0  0
 20 21  2  0  0  0
 20 97  1  0  0  0
 21 23  1  0  0  0
 22 28  1  0  0  0
 22 32  2  0  0  0
 26 27  1  0  0  0
 28 98  1  0  0  0
 28 99  1  0  0  0
 29100  1  0  0  0
 29101  1  0  0  0
 33 34  1  0  0  0
 33 66  1  0  0  0
 33 70  2  0  0  0
 34 36  1  0  0  0
 34 59  1  0  0  0
 34102  1  0  0  0
 35 44  2  0  0  0
 35 45  1  0  0  0
 35 68  1  0  0  0
 36 56  1  0  0  0
 36103  1  0  0  0
 37 39  1  0  0  0
 37 47  1  0  0  0
 37 66  1  0  0  0
 37104  1  0  0  0
 38 43  2  0  0  0
 38 46  1  0  0  0
 38 47  1  0  0  0
 39 64  1  0  0  0
 39 67  2  0  0  0
 40 52  1  0  0  0
 40 53  2  0  0  0
 40 58  1  0  0  0
 41105  1  0  0  0
 41106  1  0  0  0
 41107  1  0  0  0
 41 48  1  0  0  0
 42 43  1  0  0  0
 42 66  1  0  0  0
 42108  1  0  0  0
 42109  1  0  0  0
 43 44  1  0  0  0
 44110  1  0  0  0
 45 46  2  0  0  0
 45111  1  0  0  0
 46112  1  0  0  0
 47113  1  0  0  0
 47114  1  0  0  0
 48 56  1  0  0  0
 48 65  1  0  0  0
 48115  1  0  0  0
 49 50  1  0  0  0
 49 53  1  0  0  0
 49 64  1  0  0  0
 49116  1  0  0  0
 50 51  1  0  0  0
 50117  1  0  0  0
 50118  1  0  0  0
 51 52  1  0  0  0
 51119  1  0  0  0
 51120  1  0  0  0
 52121  1  0  0  0
 52122  1  0  0  0
 53 54  1  0  0  0
 54 55  2  0  0  0
 54123  1  0  0  0
 55 57  1  0  0  0
 55124  1  0  0  0
 56 69  2  0  0  0
 57 58  2  0  0  0
 57125  1  0  0  0
 58126  1  0  0  0
 59 60  1  0  0  0
 59 61  1  0  0  0
 59 62  1  0  0  0
 60127  1  0  0  0
 60128  1  0  0  0
 60129  1  0  0  0
 61130  1  0  0  0
 61131  1  0  0  0
 61132  1  0  0  0
 62133  1  0  0  0
 62134  1  0  0  0
 62135  1  0  0  0
 63 65  1  0  0  0
 63136  1  0  0  0
 63137  1  0  0  0
 63138  1  0  0  0
 64139  1  0  0  0
 65140  1  0  0  0
 68 74  1  0  0  0
 71 72  1  0  0  0
 71 73  2  0  0  0
 71 77  1  0  0  0
 72 75  1  0  0  0
 72 79  2  0  0  0
 73 78  1  0  0  0
 73 80  1  0  0  0
 74 79  1  0  0  0
 74 80  2  0  0  0
 75 76  1  0  0  0
 75141  1  0  0  0
 75142  1  0  0  0
 76 77  1  0  0  0
 76143  1  0  0  0
 76144  1  0  0  0
 77 81  1  0  0  0
 77145  1  0  0  0
 78146  1  0  0  0
 78147  1  0  0  0
 78148  1  0  0  0
 81149  1  0  0  0
M  ISO  4   1 100  68 101  74 101  81 100
M  END
> <chiral flag>
0

> <version>
0

> <s_m_source_file>
/data/baiqing/PycharmProjects/Reinvent-master-3.2/result/LINK_invent/BTK/process_docking_weight1_custom_sum_contain_oxygen_bond_distance_aromatic_linkinvent_7_9_3/rearranged_h_0183.sdf

> <i_m_source_file_index>
42

> <r_mmod_Potential_Energy-OPLS-2005>
2263.49780273438

> <r_mmod_Stretch_Energy-OPLS-2005>
983.167175292969

> <r_mmod_Bend_Energy-OPLS-2005>
827.128479003906

> <r_mmod_Torsional_Energy-OPLS-2005>
215.768493652344

> <r_mmod_Improper_Torsional_Energy-OPLS-2005>
6.12003087997437

> <r_mmod_Van_der_Waal_Energy-OPLS-2005>
129.635986328125

> <r_mmod_Electrostatic_Energy-OPLS-2005>
-662.748840332031

> <r_mmod_Solvation_Energy-OPLS-2005>
-241.654815673828

> <b_mmod_Minimization_Converged-OPLS-2005>
0

> <r_mmod_RMS_Derivative-OPLS-2005>
0.281016707420349

$$$$
43
                    3D
 Structure written by MMmdl.
158167  0  0  1  0            999 V2000
  -30.5900  -14.7192   20.3838 C   0  0  0  0  0  0
  -30.4471  -12.4066   19.4704 C   0  0  0  0  0  0
  -29.5176  -12.4196   18.2356 C   0  0  0  0  0  0
  -28.0348  -12.2937   18.6500 C   0  0  0  0  0  0
  -27.6405  -13.2058   19.8437 C   0  0  2  0  0  0
  -28.6944  -13.1559   20.9717 C   0  0  0  0  0  0
  -25.2505  -13.8085   20.5744 C   0  0  0  0  0  0
  -24.1776  -13.0365   20.9223 C   0  0  0  0  0  0
  -24.6358  -11.6850   20.8761 C   0  0  0  0  0  0
  -23.9034  -10.4251   21.0412 C   0  0  0  0  0  0
  -24.3595   -9.4180   21.9190 C   0  0  0  0  0  0
  -23.6282   -8.2212   22.0756 C   0  0  0  0  0  0
  -22.4264   -8.0257   21.3546 C   0  0  0  0  0  0
  -21.9891   -9.0225   20.4648 C   0  0  0  0  0  0
  -22.7210  -10.2105   20.3055 C   0  0  0  0  0  0
  -21.6844   -6.0723   22.5278 C   0  0  0  0  0  0
  -21.4008   -6.5633   23.8211 C   0  0  0  0  0  0
  -21.3658   -5.6786   24.9173 C   0  0  0  0  0  0
  -21.6049   -4.3050   24.7220 C   0  0  0  0  0  0
  -21.8821   -3.8140   23.4343 C   0  0  0  0  0  0
  -21.9191   -4.6954   22.3398 C   0  0  0  0  0  0
  -22.7806  -13.5187   21.1885 C   0  0  0  0  0  0
  -22.1664   -4.2141   21.0974 F   0  0  0  0  0  0
  -21.5630   -3.4535   25.7734 F   0  0  0  0  0  0
  -29.9962  -13.4816   20.3748 N   0  0  0  0  0  0
  -26.2929  -12.9269   20.3298 N   0  0  0  0  0  0
  -25.9284  -11.6438   20.5782 N   0  0  0  0  0  0
  -22.0439  -12.8192   22.0439 N   0  0  0  0  0  0
  -25.4136  -15.1800   20.4237 N   0  0  0  0  0  0
  -31.8064  -14.8429   20.2191 O   0  0  0  0  0  0
  -21.6628   -6.8859   21.4241 O   0  0  0  0  0  0
  -22.3504  -14.5497   20.6725 O   0  0  0  0  0  0
  -24.6258  -31.8592   23.2010 C   0  0  0  0  0  0
  -25.9111  -32.4767   23.8340 C   0  0  1  0  0  0
  -27.2331  -27.3059   20.1255 C   0  0  0  0  0  0
  -25.5925  -33.8570   24.2268 N   0  0  0  0  0  0
  -23.4193  -30.4805   21.5438 C   0  0  2  0  0  0
  -24.8656  -28.9241   20.1179 C   0  0  0  0  0  0
  -22.7468  -29.4621   22.4947 C   0  0  0  0  0  0
  -18.0289  -28.1386   22.8486 C   0  0  0  0  0  0
  -24.1493  -36.7291   23.2640 C   0  0  0  0  0  0
  -25.9590  -30.7833   21.3746 C   0  0  0  0  0  0
  -26.0301  -29.4054   20.7262 C   0  0  0  0  0  0
  -27.2101  -28.6064   20.7233 C   0  0  0  0  0  0
  -26.0446  -26.8793   19.4893 C   0  0  0  0  0  0
  -24.8739  -27.6652   19.4948 C   0  0  0  0  0  0
  -23.6350  -29.8084   20.1613 C   0  0  0  0  0  0
  -25.4116  -36.3076   24.0331 C   0  0  1  0  0  0
  -20.5884  -28.3687   23.1293 C   0  0  2  0  0  0
  -20.6776  -26.9412   22.5416 C   0  0  0  0  0  0
  -19.5754  -26.6387   21.5214 C   0  0  0  0  0  0
  -18.1932  -26.7932   22.1621 C   0  0  0  0  0  0
  -19.1538  -28.8853   23.2884 C   0  0  0  0  0  0
  -18.9463  -30.1455   23.8897 C   0  0  0  0  0  0
  -17.6463  -30.6586   24.0566 C   0  0  0  0  0  0
  -25.9050  -34.9447   23.5099 C   0  0  0  0  0  0
  -16.5354  -29.9084   23.6331 C   0  0  0  0  0  0
  -16.7276  -28.6505   23.0345 C   0  0  0  0  0  0
  -26.4500  -31.6581   25.0713 C   0  0  0  0  0  0
  -25.3742  -31.3726   26.1448 C   0  0  0  0  0  0
  -27.0346  -30.3005   24.6171 C   0  0  0  0  0  0
  -27.6061  -32.4321   25.7475 C   0  0  0  0  0  0
  -27.5581  -37.1797   24.8466 C   0  0  0  0  0  0
  -21.4184  -29.3039   22.3687 N   0  0  0  0  0  0
  -26.4292  -37.3773   23.9411 N   0  0  0  0  0  0
  -24.6867  -31.0593   22.0963 N   0  0  0  0  0  0
  -23.4195  -28.8169   23.3031 O   0  0  0  0  0  0
  -28.4174  -26.5470   20.1094 O   0  0  0  0  0  0
  -26.5623  -34.8919   22.4665 O   0  0  0  0  0  0
  -23.5424  -32.1399   23.7336 O   0  0  0  0  0  0
  -29.8558  -23.4226   21.0102 C   0  0  0  0  0  0
  -29.2067  -22.4507   20.2136 C   0  0  0  0  0  0
  -28.1228  -23.0007   19.4758 C   0  0  0  0  0  0
  -28.4974  -25.1660   20.2787 C   0  0  0  0  0  0
  -28.3552  -17.0173   19.2318 C   0  0  0  0  0  0
  -29.4432  -16.1244   18.6463 C   0  0  0  0  0  0
  -29.2359  -17.1320   20.4740 C   0  0  2  0  0  0
  -27.2916  -22.1491   18.5365 C   0  0  0  0  0  0
  -29.8399  -21.0036   19.9893 C   0  0  0  0  0  0
  -30.1319  -18.4450   20.4683 C   0  0  0  0  0  0
  -29.5165  -24.7425   21.0289 N   0  0  0  0  0  0
  -27.7942  -24.3288   19.5064 N   0  0  0  0  0  0
  -29.7430  -15.7559   20.0319 N   0  0  0  0  0  0
  -29.3481  -19.7443   20.6916 N   0  3  0  0  0  0
  -31.4866  -12.5390   19.1639 H   0  0  0  0  0  0
  -30.4003  -11.4427   19.9796 H   0  0  0  0  0  0
  -29.7788  -11.5947   17.5709 H   0  0  0  0  0  0
  -29.6792  -13.3227   17.6511 H   0  0  0  0  0  0
  -27.8707  -11.2515   18.9255 H   0  0  0  0  0  0
  -27.3838  -12.4840   17.7963 H   0  0  0  0  0  0
  -27.6164  -14.2148   19.4468 H   0  0  0  0  0  0
  -28.7208  -12.1716   21.4412 H   0  0  0  0  0  0
  -28.4454  -13.8712   21.7573 H   0  0  0  0  0  0
  -25.2739   -9.5670   22.4762 H   0  0  0  0  0  0
  -24.0000   -7.4609   22.7478 H   0  0  0  0  0  0
  -21.0817   -8.8732   19.8966 H   0  0  0  0  0  0
  -22.3664  -10.9640   19.6160 H   0  0  0  0  0  0
  -21.1996   -7.6140   23.9712 H   0  0  0  0  0  0
  -21.1484   -6.0514   25.9080 H   0  0  0  0  0  0
  -22.0604   -2.7605   23.2835 H   0  0  0  0  0  0
  -22.4049  -11.9859   22.4851 H   0  0  0  0  0  0
  -21.1069  -13.1245   22.2652 H   0  0  0  0  0  0
  -24.6461  -15.8330   20.5390 H   0  0  0  0  0  0
  -26.2730  -15.6215   20.1284 H   0  0  0  0  0  0
  -26.7172  -32.5435   23.1084 H   0  0  0  0  0  0
  -25.0083  -33.9709   25.0418 H   0  0  0  0  0  0
  -22.7135  -31.3009   21.3982 H   0  0  0  0  0  0
  -23.3751  -35.9626   23.3304 H   0  0  0  0  0  0
  -24.3586  -36.8907   22.2053 H   0  0  0  0  0  0
  -23.7248  -37.6494   23.6662 H   0  0  0  0  0  0
  -26.0919  -31.5420   20.6019 H   0  0  0  0  0  0
  -26.8391  -30.8346   22.0039 H   0  0  0  0  0  0
  -28.1090  -28.9826   21.1919 H   0  0  0  0  0  0
  -26.0017  -25.9318   18.9746 H   0  0  0  0  0  0
  -23.9830  -27.2931   19.0079 H   0  0  0  0  0  0
  -23.7582  -30.5816   19.4022 H   0  0  0  0  0  0
  -22.7535  -29.2397   19.8595 H   0  0  0  0  0  0
  -25.1294  -36.1925   25.0824 H   0  0  0  0  0  0
  -20.9980  -28.3262   24.1412 H   0  0  0  0  0  0
  -20.5682  -26.2295   23.3614 H   0  0  0  0  0  0
  -21.6648  -26.7447   22.1208 H   0  0  0  0  0  0
  -19.6918  -25.6299   21.1239 H   0  0  0  0  0  0
  -19.6693  -27.3202   20.6750 H   0  0  0  0  0  0
  -17.4206  -26.6687   21.4015 H   0  0  0  0  0  0
  -18.0325  -26.0069   22.9013 H   0  0  0  0  0  0
  -19.7937  -30.7275   24.2262 H   0  0  0  0  0  0
  -17.5015  -31.6264   24.5173 H   0  0  0  0  0  0
  -15.5352  -30.2983   23.7655 H   0  0  0  0  0  0
  -15.8678  -28.0827   22.7046 H   0  0  0  0  0  0
  -24.5907  -30.7082   25.7786 H   0  0  0  0  0  0
  -24.8944  -32.2895   26.4881 H   0  0  0  0  0  0
  -25.8073  -30.8901   27.0219 H   0  0  0  0  0  0
  -26.2917  -29.6741   24.1220 H   0  0  0  0  0  0
  -27.4070  -29.7276   25.4673 H   0  0  0  0  0  0
  -27.8775  -30.4290   23.9378 H   0  0  0  0  0  0
  -27.2673  -33.3619   26.2060 H   0  0  0  0  0  0
  -28.3861  -32.6892   25.0294 H   0  0  0  0  0  0
  -28.0749  -31.8449   26.5381 H   0  0  0  0  0  0
  -28.2602  -38.0091   24.7507 H   0  0  0  0  0  0
  -28.1071  -36.2620   24.6296 H   0  0  0  0  0  0
  -27.2304  -37.1456   25.8871 H   0  0  0  0  0  0
  -20.9368  -29.8750   21.6884 H   0  0  0  0  0  0
  -26.0173  -38.2849   24.1401 H   0  0  0  0  0  0
  -30.7282  -23.1566   21.5880 H   0  0  0  0  0  0
  -27.4152  -16.5009   19.4021 H   0  0  0  0  0  0
  -28.1956  -17.9396   18.6732 H   0  0  0  0  0  0
  -30.2511  -16.6572   18.1410 H   0  0  0  0  0  0
  -29.0388  -15.3396   18.0124 H   0  0  0  0  0  0
  -28.6358  -17.0574   21.3820 H   0  0  0  0  0  0
  -26.9730  -21.2317   19.0296 H   0  0  0  0  0  0
  -27.8650  -21.8841   17.6488 H   0  0  0  0  0  0
  -26.3940  -22.6776   18.2127 H   0  0  0  0  0  0
  -30.9042  -21.0894   20.2142 H   0  0  0  0  0  0
  -29.8060  -20.8047   18.9171 H   0  0  0  0  0  0
  -30.6605  -18.5309   19.5184 H   0  0  0  0  0  0
  -30.9132  -18.3768   21.2256 H   0  0  0  0  0  0
  -28.4008  -19.5747   20.3982 H   0  0  0  0  0  0
  -29.3191  -19.9065   21.6853 H   0  0  0  0  0  0
  1 25  1  0  0  0
  1 30  2  0  0  0
  1 83  1  0  0  0
  2  3  1  0  0  0
  2 25  1  0  0  0
  2 85  1  0  0  0
  2 86  1  0  0  0
  3  4  1  0  0  0
  3 87  1  0  0  0
  3 88  1  0  0  0
  4  5  1  0  0  0
  4 89  1  0  0  0
  4 90  1  0  0  0
  5  6  1  0  0  0
  5 26  1  0  0  0
  5 91  1  0  0  0
  6 25  1  0  0  0
  6 92  1  0  0  0
  6 93  1  0  0  0
  7  8  2  0  0  0
  7 26  1  0  0  0
  7 29  1  0  0  0
  8  9  1  0  0  0
  8 22  1  0  0  0
  9 10  1  0  0  0
  9 27  2  0  0  0
 10 11  2  0  0  0
 10 15  1  0  0  0
 11 12  1  0  0  0
 11 94  1  0  0  0
 12 13  2  0  0  0
 12 95  1  0  0  0
 13 14  1  0  0  0
 13 31  1  0  0  0
 14 15  2  0  0  0
 14 96  1  0  0  0
 15 97  1  0  0  0
 16 17  2  0  0  0
 16 21  1  0  0  0
 16 31  1  0  0  0
 17 18  1  0  0  0
 17 98  1  0  0  0
 18 19  2  0  0  0
 18 99  1  0  0  0
 19 20  1  0  0  0
 19 24  1  0  0  0
 20 21  2  0  0  0
 20100  1  0  0  0
 21 23  1  0  0  0
 22 28  1  0  0  0
 22 32  2  0  0  0
 26 27  1  0  0  0
 28101  1  0  0  0
 28102  1  0  0  0
 29103  1  0  0  0
 29104  1  0  0  0
 33 34  1  0  0  0
 33 66  1  0  0  0
 33 70  2  0  0  0
 34 36  1  0  0  0
 34 59  1  0  0  0
 34105  1  0  0  0
 35 44  2  0  0  0
 35 45  1  0  0  0
 35 68  1  0  0  0
 36 56  1  0  0  0
 36106  1  0  0  0
 37 39  1  0  0  0
 37 47  1  0  0  0
 37 66  1  0  0  0
 37107  1  0  0  0
 38 43  2  0  0  0
 38 46  1  0  0  0
 38 47  1  0  0  0
 39 64  1  0  0  0
 39 67  2  0  0  0
 40 52  1  0  0  0
 40 53  2  0  0  0
 40 58  1  0  0  0
 41108  1  0  0  0
 41109  1  0  0  0
 41110  1  0  0  0
 41 48  1  0  0  0
 42 43  1  0  0  0
 42 66  1  0  0  0
 42111  1  0  0  0
 42112  1  0  0  0
 43 44  1  0  0  0
 44113  1  0  0  0
 45 46  2  0  0  0
 45114  1  0  0  0
 46115  1  0  0  0
 47116  1  0  0  0
 47117  1  0  0  0
 48 56  1  0  0  0
 48 65  1  0  0  0
 48118  1  0  0  0
 49 50  1  0  0  0
 49 53  1  0  0  0
 49 64  1  0  0  0
 49119  1  0  0  0
 50 51  1  0  0  0
 50120  1  0  0  0
 50121  1  0  0  0
 51 52  1  0  0  0
 51122  1  0  0  0
 51123  1  0  0  0
 52124  1  0  0  0
 52125  1  0  0  0
 53 54  1  0  0  0
 54 55  2  0  0  0
 54126  1  0  0  0
 55 57  1  0  0  0
 55127  1  0  0  0
 56 69  2  0  0  0
 57 58  2  0  0  0
 57128  1  0  0  0
 58129  1  0  0  0
 59 60  1  0  0  0
 59 61  1  0  0  0
 59 62  1  0  0  0
 60130  1  0  0  0
 60131  1  0  0  0
 60132  1  0  0  0
 61133  1  0  0  0
 61134  1  0  0  0
 61135  1  0  0  0
 62136  1  0  0  0
 62137  1  0  0  0
 62138  1  0  0  0
 63 65  1  0  0  0
 63139  1  0  0  0
 63140  1  0  0  0
 63141  1  0  0  0
 64142  1  0  0  0
 65143  1  0  0  0
 68 74  1  0  0  0
 71 72  2  0  0  0
 71 81  1  0  0  0
 71144  1  0  0  0
 72 73  1  0  0  0
 72 79  1  0  0  0
 73 78  1  0  0  0
 73 82  2  0  0  0
 74 81  2  0  0  0
 74 82  1  0  0  0
 75 76  1  0  0  0
 75 77  1  0  0  0
 75145  1  0  0  0
 75146  1  0  0  0
 76 83  1  0  0  0
 76147  1  0  0  0
 76148  1  0  0  0
 77 80  1  0  0  0
 77 83  1  0  0  0
 77149  1  0  0  0
 78150  1  0  0  0
 78151  1  0  0  0
 78152  1  0  0  0
 79 84  1  0  0  0
 79153  1  0  0  0
 79154  1  0  0  0
 80 84  1  0  0  0
 80155  1  0  0  0
 80156  1  0  0  0
 84157  1  0  0  0
 84158  1  0  0  0
M  CHG  1  84   1
M  ISO  4   1 100  68 101  74 101  83 100
M  END
> <chiral flag>
0

> <version>
0

> <s_m_source_file>
/data/baiqing/PycharmProjects/Reinvent-master-3.2/result/LINK_invent/BTK/process_docking_weight1_custom_sum_contain_oxygen_bond_distance_aromatic_linkinvent_7_9_3/rearranged_h_0183.sdf

> <i_m_source_file_index>
43

> <r_mmod_Potential_Energy-OPLS-2005>
-212.288925170898

> <r_mmod_Stretch_Energy-OPLS-2005>
89.570442199707

> <r_mmod_Bend_Energy-OPLS-2005>
206.291595458984

> <r_mmod_Torsional_Energy-OPLS-2005>
333.584747314453

> <r_mmod_Improper_Torsional_Energy-OPLS-2005>
24.1663837432861

> <r_mmod_Van_der_Waal_Energy-OPLS-2005>
140.801284790039

> <r_mmod_Electrostatic_Energy-OPLS-2005>
-569.615539550781

> <r_mmod_Solvation_Energy-OPLS-2005>
-506.875854492188

> <b_mmod_Minimization_Converged-OPLS-2005>
0

> <r_mmod_RMS_Derivative-OPLS-2005>
1.17171967029572

$$$$
44
                    3D
 Structure written by MMmdl.
164174  0  0  1  0            999 V2000
  -30.6044  -14.6443   20.5151 C   0  0  0  0  0  0
  -30.4301  -12.3887   19.4793 C   0  0  0  0  0  0
  -29.5143  -12.5196   18.2423 C   0  0  0  0  0  0
  -28.0333  -12.3710   18.6422 C   0  0  0  0  0  0
  -27.6532  -13.2293   19.8789 C   0  0  2  0  0  0
  -28.6914  -13.0742   21.0128 C   0  0  0  0  0  0
  -25.2529  -13.8219   20.5713 C   0  0  0  0  0  0
  -24.1812  -13.0445   20.9216 C   0  0  0  0  0  0
  -24.6411  -11.6937   20.8762 C   0  0  0  0  0  0
  -23.9100  -10.4287   21.0407 C   0  0  0  0  0  0
  -24.3648   -9.4193   21.9194 C   0  0  0  0  0  0
  -23.6308   -8.2242   22.0757 C   0  0  0  0  0  0
  -22.4274   -8.0289   21.3558 C   0  0  0  0  0  0
  -21.9937   -9.0256   20.4640 C   0  0  0  0  0  0
  -22.7292  -10.2122   20.3068 C   0  0  0  0  0  0
  -21.6849   -6.0745   22.5286 C   0  0  0  0  0  0
  -21.3992   -6.5636   23.8214 C   0  0  0  0  0  0
  -21.3663   -5.6795   24.9170 C   0  0  0  0  0  0
  -21.6060   -4.3053   24.7218 C   0  0  0  0  0  0
  -21.8810   -3.8159   23.4327 C   0  0  0  0  0  0
  -21.9168   -4.6978   22.3399 C   0  0  0  0  0  0
  -22.7826  -13.5195   21.1912 C   0  0  0  0  0  0
  -22.1647   -4.2169   21.0983 F   0  0  0  0  0  0
  -21.5643   -3.4545   25.7735 F   0  0  0  0  0  0
  -30.0076  -13.4143   20.4600 N   0  0  0  0  0  0
  -26.2997  -12.9430   20.3398 N   0  0  0  0  0  0
  -25.9351  -11.6574   20.5806 N   0  0  0  0  0  0
  -22.0479  -12.8144   22.0417 N   0  0  0  0  0  0
  -25.4216  -15.1958   20.4156 N   0  0  0  0  0  0
  -31.7493  -14.8077   20.0813 O   0  0  0  0  0  0
  -21.6639   -6.8900   21.4249 O   0  0  0  0  0  0
  -22.3506  -14.5506   20.6764 O   0  0  0  0  0  0
  -24.6205  -31.8632   23.2025 C   0  0  0  0  0  0
  -25.9079  -32.4796   23.8345 C   0  0  1  0  0  0
  -27.2031  -27.3452   20.1476 C   0  0  0  0  0  0
  -25.5904  -33.8590   24.2312 N   0  0  0  0  0  0
  -23.4117  -30.4848   21.5450 C   0  0  2  0  0  0
  -24.8580  -28.9463   20.1081 C   0  0  0  0  0  0
  -22.7475  -29.4620   22.4959 C   0  0  0  0  0  0
  -18.0288  -28.1393   22.8438 C   0  0  0  0  0  0
  -24.1498  -36.7302   23.2651 C   0  0  0  0  0  0
  -25.9462  -30.8036   21.3684 C   0  0  0  0  0  0
  -26.0213  -29.4316   20.7189 C   0  0  0  0  0  0
  -27.2004  -28.6433   20.7315 C   0  0  0  0  0  0
  -26.0325  -26.8996   19.5052 C   0  0  0  0  0  0
  -24.8666  -27.6860   19.4875 C   0  0  0  0  0  0
  -23.6232  -29.8165   20.1575 C   0  0  0  0  0  0
  -25.4106  -36.3089   24.0385 C   0  0  1  0  0  0
  -20.5888  -28.3657   23.1314 C   0  0  2  0  0  0
  -20.6786  -26.9390   22.5411 C   0  0  0  0  0  0
  -19.5779  -26.6371   21.5232 C   0  0  0  0  0  0
  -18.1913  -26.7928   22.1603 C   0  0  0  0  0  0
  -19.1551  -28.8859   23.2857 C   0  0  0  0  0  0
  -18.9472  -30.1452   23.8875 C   0  0  0  0  0  0
  -17.6482  -30.6582   24.0579 C   0  0  0  0  0  0
  -25.9052  -34.9481   23.5134 C   0  0  0  0  0  0
  -16.5376  -29.9059   23.6356 C   0  0  0  0  0  0
  -16.7289  -28.6513   23.0309 C   0  0  0  0  0  0
  -26.4453  -31.6579   25.0721 C   0  0  0  0  0  0
  -25.3672  -31.3709   26.1439 C   0  0  0  0  0  0
  -27.0320  -30.3038   24.6114 C   0  0  0  0  0  0
  -27.6015  -32.4323   25.7459 C   0  0  0  0  0  0
  -27.5589  -37.1785   24.8468 C   0  0  0  0  0  0
  -21.4200  -29.3027   22.3753 N   0  0  0  0  0  0
  -26.4290  -37.3779   23.9429 N   0  0  0  0  0  0
  -24.6793  -31.0645   22.0964 N   0  0  0  0  0  0
  -23.4243  -28.8200   23.3043 O   0  0  0  0  0  0
  -28.2943  -26.4891   20.1785 O   0  0  0  0  0  0
  -26.5580  -34.8920   22.4694 O   0  0  0  0  0  0
  -23.5398  -32.1385   23.7427 O   0  0  0  0  0  0
  -26.8464  -23.3821   20.8422 C   0  0  0  0  0  0
  -28.0362  -24.0379   21.0673 C   0  0  0  0  0  0
  -28.3868  -21.7671   21.1214 C   0  0  0  0  0  0
  -24.6779  -21.1766   21.1728 C   0  0  0  0  0  0
  -25.6258  -20.2696   21.9258 C   0  0  0  0  0  0
  -28.6057  -19.0061   21.7906 C   0  0  0  0  0  0
  -29.1263  -20.3980   21.3038 C   0  0  1  0  0  0
  -26.0945  -20.9495   20.6587 C   0  0  0  0  0  0
  -29.7790  -18.4037   20.9679 C   0  0  1  0  0  0
  -30.6798  -20.1239   19.4269 C   0  0  0  0  0  0
  -28.3507  -25.5389   21.2960 C   0  0  0  0  0  0
  -29.7725  -17.0469   20.1496 C   0  0  0  0  0  0
  -27.0828  -22.0164   20.8873 N   0  0  0  0  0  0
  -28.9528  -22.9977   21.2138 N   0  3  0  0  0  0
  -29.5141  -19.6021   20.1212 N   0  0  0  0  0  0
  -29.8000  -15.7092   20.8452 N   0  0  0  0  0  0
  -31.4779  -12.4892   19.1928 H   0  0  0  0  0  0
  -30.3422  -11.3882   19.9105 H   0  0  0  0  0  0
  -29.7749  -11.7709   17.4940 H   0  0  0  0  0  0
  -29.6738  -13.4925   17.7757 H   0  0  0  0  0  0
  -27.8501  -11.3148   18.8540 H   0  0  0  0  0  0
  -27.3903  -12.6296   17.8000 H   0  0  0  0  0  0
  -27.6701  -14.2685   19.5501 H   0  0  0  0  0  0
  -28.6976  -12.0513   21.3911 H   0  0  0  0  0  0
  -28.4399  -13.7041   21.8682 H   0  0  0  0  0  0
  -25.2771   -9.5647   22.4782 H   0  0  0  0  0  0
  -23.9992   -7.4620   22.7483 H   0  0  0  0  0  0
  -21.0872   -8.8776   19.8941 H   0  0  0  0  0  0
  -22.3766  -10.9656   19.6176 H   0  0  0  0  0  0
  -21.1975   -7.6132   23.9726 H   0  0  0  0  0  0
  -21.1516   -6.0519   25.9081 H   0  0  0  0  0  0
  -22.0593   -2.7615   23.2832 H   0  0  0  0  0  0
  -22.4064  -11.9724   22.4702 H   0  0  0  0  0  0
  -21.1122  -13.1197   22.2732 H   0  0  0  0  0  0
  -24.6523  -15.8489   20.5225 H   0  0  0  0  0  0
  -26.2633  -15.6321   20.0664 H   0  0  0  0  0  0
  -26.7170  -32.5462   23.1104 H   0  0  0  0  0  0
  -25.0106  -33.9737   25.0487 H   0  0  0  0  0  0
  -22.7037  -31.3070   21.4037 H   0  0  0  0  0  0
  -23.3779  -35.9605   23.3293 H   0  0  0  0  0  0
  -24.3617  -36.8915   22.2066 H   0  0  0  0  0  0
  -23.7224  -37.6502   23.6669 H   0  0  0  0  0  0
  -26.0699  -31.5696   20.6031 H   0  0  0  0  0  0
  -26.8326  -30.8560   21.9890 H   0  0  0  0  0  0
  -28.0959  -29.0018   21.2183 H   0  0  0  0  0  0
  -26.0121  -25.9212   19.0454 H   0  0  0  0  0  0
  -23.9789  -27.3082   19.0014 H   0  0  0  0  0  0
  -23.7333  -30.5932   19.3986 H   0  0  0  0  0  0
  -22.7451  -29.2413   19.8532 H   0  0  0  0  0  0
  -25.1271  -36.1955   25.0887 H   0  0  0  0  0  0
  -20.9947  -28.3215   24.1462 H   0  0  0  0  0  0
  -20.5760  -26.2274   23.3593 H   0  0  0  0  0  0
  -21.6659  -26.7453   22.1180 H   0  0  0  0  0  0
  -19.6955  -25.6283   21.1252 H   0  0  0  0  0  0
  -19.6752  -27.3203   20.6787 H   0  0  0  0  0  0
  -17.4230  -26.6734   21.3958 H   0  0  0  0  0  0
  -18.0264  -26.0047   22.8952 H   0  0  0  0  0  0
  -19.7971  -30.7248   24.2262 H   0  0  0  0  0  0
  -17.5042  -31.6265   24.5128 H   0  0  0  0  0  0
  -15.5368  -30.2962   23.7711 H   0  0  0  0  0  0
  -15.8683  -28.0850   22.7030 H   0  0  0  0  0  0
  -24.5960  -30.6929   25.7765 H   0  0  0  0  0  0
  -24.8719  -32.2864   26.4712 H   0  0  0  0  0  0
  -25.7976  -30.9023   27.0294 H   0  0  0  0  0  0
  -26.2881  -29.6790   24.1158 H   0  0  0  0  0  0
  -27.4126  -29.7294   25.4563 H   0  0  0  0  0  0
  -27.8691  -30.4443   23.9264 H   0  0  0  0  0  0
  -27.2659  -33.3667   26.1954 H   0  0  0  0  0  0
  -28.3811  -32.6782   25.0248 H   0  0  0  0  0  0
  -28.0669  -31.8489   26.5403 H   0  0  0  0  0  0
  -28.2547  -38.0119   24.7531 H   0  0  0  0  0  0
  -28.1123  -36.2659   24.6249 H   0  0  0  0  0  0
  -27.2320  -37.1389   25.8862 H   0  0  0  0  0  0
  -20.9447  -29.8721   21.6895 H   0  0  0  0  0  0
  -26.0197  -38.2863   24.1402 H   0  0  0  0  0  0
  -25.8548  -23.7860   20.6947 H   0  0  0  0  0  0
  -24.4134  -22.1160   21.6526 H   0  0  0  0  0  0
  -23.8616  -20.6873   20.6405 H   0  0  0  0  0  0
  -25.4803  -19.1923   21.8536 H   0  0  0  0  0  0
  -26.0021  -20.6277   22.8822 H   0  0  0  0  0  0
  -27.6364  -18.7039   21.3958 H   0  0  0  0  0  0
  -28.6687  -18.8427   22.8634 H   0  0  0  0  0  0
  -30.0280  -20.6423   21.8726 H   0  0  0  0  0  0
  -26.2799  -20.3857   19.7445 H   0  0  0  0  0  0
  -30.7166  -18.5440   21.5121 H   0  0  0  0  0  0
  -30.4353  -21.0724   18.9449 H   0  0  0  0  0  0
  -30.9902  -19.4406   18.6358 H   0  0  0  0  0  0
  -31.5244  -20.2764   20.0965 H   0  0  0  0  0  0
  -29.3511  -25.6092   21.7187 H   0  0  0  0  0  0
  -27.7074  -25.8877   22.1040 H   0  0  0  0  0  0
  -30.6104  -17.0819   19.4489 H   0  0  0  0  0  0
  -28.8879  -17.0358   19.5109 H   0  0  0  0  0  0
  -29.9356  -23.1387   21.4132 H   0  0  0  0  0  0
  -28.9310  -15.4457   21.2854 H   0  0  0  0  0  0
  1 25  1  0  0  0
  1 30  2  0  0  0
  1 86  1  0  0  0
  2  3  1  0  0  0
  2 25  1  0  0  0
  2 87  1  0  0  0
  2 88  1  0  0  0
  3  4  1  0  0  0
  3 89  1  0  0  0
  3 90  1  0  0  0
  4  5  1  0  0  0
  4 91  1  0  0  0
  4 92  1  0  0  0
  5  6  1  0  0  0
  5 26  1  0  0  0
  5 93  1  0  0  0
  6 25  1  0  0  0
  6 94  1  0  0  0
  6 95  1  0  0  0
  7  8  2  0  0  0
  7 26  1  0  0  0
  7 29  1  0  0  0
  8  9  1  0  0  0
  8 22  1  0  0  0
  9 10  1  0  0  0
  9 27  2  0  0  0
 10 11  2  0  0  0
 10 15  1  0  0  0
 11 12  1  0  0  0
 11 96  1  0  0  0
 12 13  2  0  0  0
 12 97  1  0  0  0
 13 14  1  0  0  0
 13 31  1  0  0  0
 14 15  2  0  0  0
 14 98  1  0  0  0
 15 99  1  0  0  0
 16 17  2  0  0  0
 16 21  1  0  0  0
 16 31  1  0  0  0
 17 18  1  0  0  0
 17100  1  0  0  0
 18 19  2  0  0  0
 18101  1  0  0  0
 19 20  1  0  0  0
 19 24  1  0  0  0
 20 21  2  0  0  0
 20102  1  0  0  0
 21 23  1  0  0  0
 22 28  1  0  0  0
 22 32  2  0  0  0
 26 27  1  0  0  0
 28103  1  0  0  0
 28104  1  0  0  0
 29105  1  0  0  0
 29106  1  0  0  0
 33 34  1  0  0  0
 33 66  1  0  0  0
 33 70  2  0  0  0
 34 36  1  0  0  0
 34 59  1  0  0  0
 34107  1  0  0  0
 35 44  2  0  0  0
 35 45  1  0  0  0
 35 68  1  0  0  0
 36 56  1  0  0  0
 36108  1  0  0  0
 37 39  1  0  0  0
 37 47  1  0  0  0
 37 66  1  0  0  0
 37109  1  0  0  0
 38 43  2  0  0  0
 38 46  1  0  0  0
 38 47  1  0  0  0
 39 64  1  0  0  0
 39 67  2  0  0  0
 40 52  1  0  0  0
 40 53  2  0  0  0
 40 58  1  0  0  0
 41110  1  0  0  0
 41111  1  0  0  0
 41112  1  0  0  0
 41 48  1  0  0  0
 42 43  1  0  0  0
 42 66  1  0  0  0
 42113  1  0  0  0
 42114  1  0  0  0
 43 44  1  0  0  0
 44115  1  0  0  0
 45 46  2  0  0  0
 45116  1  0  0  0
 46117  1  0  0  0
 47118  1  0  0  0
 47119  1  0  0  0
 48 56  1  0  0  0
 48 65  1  0  0  0
 48120  1  0  0  0
 49 50  1  0  0  0
 49 53  1  0  0  0
 49 64  1  0  0  0
 49121  1  0  0  0
 50 51  1  0  0  0
 50122  1  0  0  0
 50123  1  0  0  0
 51 52  1  0  0  0
 51124  1  0  0  0
 51125  1  0  0  0
 52126  1  0  0  0
 52127  1  0  0  0
 53 54  1  0  0  0
 54 55  2  0  0  0
 54128  1  0  0  0
 55 57  1  0  0  0
 55129  1  0  0  0
 56 69  2  0  0  0
 57 58  2  0  0  0
 57130  1  0  0  0
 58131  1  0  0  0
 59 60  1  0  0  0
 59 61  1  0  0  0
 59 62  1  0  0  0
 60132  1  0  0  0
 60133  1  0  0  0
 60134  1  0  0  0
 61135  1  0  0  0
 61136  1  0  0  0
 61137  1  0  0  0
 62138  1  0  0  0
 62139  1  0  0  0
 62140  1  0  0  0
 63 65  1  0  0  0
 63141  1  0  0  0
 63142  1  0  0  0
 63143  1  0  0  0
 64144  1  0  0  0
 65145  1  0  0  0
 68 81  1  0  0  0
 71 72  2  0  0  0
 71 83  1  0  0  0
 71146  1  0  0  0
 72 81  1  0  0  0
 72 84  1  0  0  0
 73 83  1  0  0  0
 73 84  2  0  0  0
 73 77  1  0  0  0
 74 75  1  0  0  0
 74 78  1  0  0  0
 74147  1  0  0  0
 74148  1  0  0  0
 75 78  1  0  0  0
 75149  1  0  0  0
 75150  1  0  0  0
 76 77  1  0  0  0
 76 79  1  0  0  0
 76151  1  0  0  0
 76152  1  0  0  0
 77 85  1  0  0  0
 77153  1  0  0  0
 78 83  1  0  0  0
 78154  1  0  0  0
 79 82  1  0  0  0
 79 85  1  0  0  0
 79155  1  0  0  0
 80 85  1  0  0  0
 80156  1  0  0  0
 80157  1  0  0  0
 80158  1  0  0  0
 81159  1  0  0  0
 81160  1  0  0  0
 82 86  1  0  0  0
 82161  1  0  0  0
 82162  1  0  0  0
 84163  1  0  0  0
 86164  1  0  0  0
M  CHG  1  84   1
M  ISO  4   1 100  68 101  81 101  86 100
M  END
> <chiral flag>
0

> <version>
0

> <s_m_source_file>
/data/baiqing/PycharmProjects/Reinvent-master-3.2/result/LINK_invent/BTK/process_docking_weight1_custom_sum_contain_oxygen_bond_distance_aromatic_linkinvent_7_9_3/rearranged_h_0183.sdf

> <i_m_source_file_index>
44

> <r_mmod_Potential_Energy-OPLS-2005>
50.2265434265137

> <r_mmod_Stretch_Energy-OPLS-2005>
72.3176116943359

> <r_mmod_Bend_Energy-OPLS-2005>
172.218063354492

> <r_mmod_Torsional_Energy-OPLS-2005>
324.449737548828

> <r_mmod_Improper_Torsional_Energy-OPLS-2005>
7.91967487335205

> <r_mmod_Van_der_Waal_Energy-OPLS-2005>
114.427551269531

> <r_mmod_Electrostatic_Energy-OPLS-2005>
-274.453857421875

> <r_mmod_Solvation_Energy-OPLS-2005>
-413.521789550781

> <b_mmod_Minimization_Converged-OPLS-2005>
0

> <r_mmod_RMS_Derivative-OPLS-2005>
6.45651769638062

$$$$
45
                    3D
 Structure written by MMmdl.
154162  0  0  1  0            999 V2000
  -30.6762  -15.0114   20.3953 C   0  0  0  0  0  0
  -30.4003  -12.6596   19.4821 C   0  0  0  0  0  0
  -29.4919  -12.5421   18.2440 C   0  0  0  0  0  0
  -28.0356  -12.3255   18.6817 C   0  0  0  0  0  0
  -27.6131  -13.2776   19.8329 C   0  0  2  0  0  0
  -28.6751  -13.3981   20.9522 C   0  0  0  0  0  0
  -25.2247  -13.8191   20.5631 C   0  0  0  0  0  0
  -24.1673  -13.0376   20.9262 C   0  0  0  0  0  0
  -24.6399  -11.6913   20.8822 C   0  0  0  0  0  0
  -23.9106  -10.4273   21.0439 C   0  0  0  0  0  0
  -24.3653   -9.4187   21.9209 C   0  0  0  0  0  0
  -23.6317   -8.2226   22.0767 C   0  0  0  0  0  0
  -22.4299   -8.0277   21.3546 C   0  0  0  0  0  0
  -21.9954   -9.0257   20.4643 C   0  0  0  0  0  0
  -22.7294  -10.2127   20.3068 C   0  0  0  0  0  0
  -21.6859   -6.0738   22.5276 C   0  0  0  0  0  0
  -21.4015   -6.5643   23.8208 C   0  0  0  0  0  0
  -21.3657   -5.6797   24.9174 C   0  0  0  0  0  0
  -21.6045   -4.3061   24.7225 C   0  0  0  0  0  0
  -21.8826   -3.8153   23.4346 C   0  0  0  0  0  0
  -21.9202   -4.6970   22.3402 C   0  0  0  0  0  0
  -22.7694  -13.5131   21.1890 C   0  0  0  0  0  0
  -22.1672   -4.2161   21.0976 F   0  0  0  0  0  0
  -21.5632   -3.4542   25.7732 F   0  0  0  0  0  0
  -29.9190  -13.8295   20.2961 N   0  0  0  0  0  0
  -26.2824  -12.9565   20.3353 N   0  0  0  0  0  0
  -25.9365  -11.6656   20.5894 N   0  0  0  0  0  0
  -22.0377  -12.8110   22.0467 N   0  0  0  0  0  0
  -25.3515  -15.1875   20.3714 N   0  0  0  0  0  0
  -31.8843  -14.8047   20.2292 O   0  0  0  0  0  0
  -21.6651   -6.8880   21.4239 O   0  0  0  0  0  0
  -22.3365  -14.5443   20.6751 O   0  0  0  0  0  0
  -24.6461  -31.8395   23.1860 C   0  0  0  0  0  0
  -25.9215  -32.4681   23.8265 C   0  0  1  0  0  0
  -27.2062  -27.1041   20.1663 C   0  0  0  0  0  0
  -25.5935  -33.8486   24.2172 N   0  0  0  0  0  0
  -23.4488  -30.4603   21.5324 C   0  0  2  0  0  0
  -24.8963  -28.8747   20.1156 C   0  0  0  0  0  0
  -22.7562  -29.4527   22.4853 C   0  0  0  0  0  0
  -18.0294  -28.1404   22.8460 C   0  0  0  0  0  0
  -24.1486  -36.7265   23.2647 C   0  0  0  0  0  0
  -26.0058  -30.7069   21.3840 C   0  0  0  0  0  0
  -26.0761  -29.3120   20.7321 C   0  0  0  0  0  0
  -27.2358  -28.4448   20.7338 C   0  0  0  0  0  0
  -26.0005  -26.7658   19.5209 C   0  0  0  0  0  0
  -24.8728  -27.6154   19.4941 C   0  0  0  0  0  0
  -23.6781  -29.7873   20.1528 C   0  0  0  0  0  0
  -25.4120  -36.3029   24.0316 C   0  0  1  0  0  0
  -20.5914  -28.3715   23.1255 C   0  0  2  0  0  0
  -20.6758  -26.9395   22.5459 C   0  0  0  0  0  0
  -19.5777  -26.6407   21.5193 C   0  0  0  0  0  0
  -18.1927  -26.7981   22.1531 C   0  0  0  0  0  0
  -19.1554  -28.8870   23.2869 C   0  0  0  0  0  0
  -18.9480  -30.1460   23.8901 C   0  0  0  0  0  0
  -17.6475  -30.6580   24.0581 C   0  0  0  0  0  0
  -25.9071  -34.9406   23.5049 C   0  0  0  0  0  0
  -16.5374  -29.9084   23.6340 C   0  0  0  0  0  0
  -16.7277  -28.6516   23.0341 C   0  0  0  0  0  0
  -26.4524  -31.6568   25.0725 C   0  0  0  0  0  0
  -25.3706  -31.3758   26.1424 C   0  0  0  0  0  0
  -27.0384  -30.2964   24.6307 C   0  0  0  0  0  0
  -27.6035  -32.4352   25.7524 C   0  0  0  0  0  0
  -27.5567  -37.1794   24.8464 C   0  0  0  0  0  0
  -21.4246  -29.3047   22.3608 N   0  0  0  0  0  0
  -26.4278  -37.3747   23.9405 N   0  0  0  0  0  0
  -24.7211  -31.0250   22.0892 N   0  0  0  0  0  0
  -23.4194  -28.8066   23.3008 O   0  0  0  0  0  0
  -28.2615  -26.1167   20.1619 O   0  0  0  0  0  0
  -26.5675  -34.8897   22.4641 O   0  0  0  0  0  0
  -23.5582  -32.1268   23.7076 O   0  0  0  0  0  0
  -28.8864  -21.7155   20.6794 C   0  0  0  0  0  0
  -31.0200  -18.8652   20.3902 C   0  0  0  0  0  0
  -31.4160  -17.3862   20.6785 C   0  0  0  0  0  0
  -29.5443  -19.0292   20.7001 C   0  0  1  0  0  0
  -29.1338  -17.4574   20.3037 C   0  0  2  0  0  0
  -27.8593  -17.0588   21.0338 C   0  0  0  0  0  0
  -28.5453  -23.1517   19.8942 C   0  0  0  0  0  0
  -28.0659  -24.6236   20.6131 C   0  0  0  0  0  0
  -30.2872  -16.4172   20.5313 N   0  0  0  0  0  0
  -28.9672  -20.3996   20.1230 N   0  0  0  0  0  0
  -29.1389  -21.8257   21.8806 O   0  0  0  0  0  0
  -31.4318  -12.7613   19.1422 H   0  0  0  0  0  0
  -30.3803  -11.7394   20.0686 H   0  0  0  0  0  0
  -29.8183  -11.7188   17.6080 H   0  0  0  0  0  0
  -29.5674  -13.4490   17.6395 H   0  0  0  0  0  0
  -27.9405  -11.2874   19.0024 H   0  0  0  0  0  0
  -27.3626  -12.4435   17.8308 H   0  0  0  0  0  0
  -27.5424  -14.2617   19.3684 H   0  0  0  0  0  0
  -28.8056  -12.4497   21.4762 H   0  0  0  0  0  0
  -28.3795  -14.1202   21.7113 H   0  0  0  0  0  0
  -25.2796   -9.5679   22.4791 H   0  0  0  0  0  0
  -24.0027   -7.4627   22.7495 H   0  0  0  0  0  0
  -21.0884   -8.8791   19.8941 H   0  0  0  0  0  0
  -22.3767  -10.9672   19.6185 H   0  0  0  0  0  0
  -21.2001   -7.6153   23.9721 H   0  0  0  0  0  0
  -21.1469   -6.0515   25.9073 H   0  0  0  0  0  0
  -22.0606   -2.7611   23.2838 H   0  0  0  0  0  0
  -22.4029  -11.9772   22.4824 H   0  0  0  0  0  0
  -21.0994  -13.1098   22.2699 H   0  0  0  0  0  0
  -24.5628  -15.8168   20.4725 H   0  0  0  0  0  0
  -26.1827  -15.6458   20.0240 H   0  0  0  0  0  0
  -26.7275  -32.5286   23.0988 H   0  0  0  0  0  0
  -25.0033  -33.9603   25.0287 H   0  0  0  0  0  0
  -22.7524  -31.2869   21.3774 H   0  0  0  0  0  0
  -23.3741  -35.9599   23.3301 H   0  0  0  0  0  0
  -24.3563  -36.8915   22.2059 H   0  0  0  0  0  0
  -23.7247  -37.6459   23.6699 H   0  0  0  0  0  0
  -26.1574  -31.4550   20.6052 H   0  0  0  0  0  0
  -26.8781  -30.7654   22.0236 H   0  0  0  0  0  0
  -28.1400  -28.7804   21.2222 H   0  0  0  0  0  0
  -25.9166  -25.7994   19.0431 H   0  0  0  0  0  0
  -23.9726  -27.2743   19.0028 H   0  0  0  0  0  0
  -23.8250  -30.5607   19.3978 H   0  0  0  0  0  0
  -22.7893  -29.2391   19.8375 H   0  0  0  0  0  0
  -25.1311  -36.1845   25.0809 H   0  0  0  0  0  0
  -21.0014  -28.3314   24.1375 H   0  0  0  0  0  0
  -21.6642  -26.7326   22.1346 H   0  0  0  0  0  0
  -20.5541  -26.2329   23.3692 H   0  0  0  0  0  0
  -19.6823  -27.3217   20.6748 H   0  0  0  0  0  0
  -19.6907  -25.6322   21.1209 H   0  0  0  0  0  0
  -17.4262  -26.6797   21.3851 H   0  0  0  0  0  0
  -18.0227  -26.0085   22.8866 H   0  0  0  0  0  0
  -19.7953  -30.7263   24.2295 H   0  0  0  0  0  0
  -17.5030  -31.6243   24.5200 H   0  0  0  0  0  0
  -15.5388  -30.3004   23.7676 H   0  0  0  0  0  0
  -15.8680  -28.0836   22.7056 H   0  0  0  0  0  0
  -24.5894  -30.7088   25.7764 H   0  0  0  0  0  0
  -24.8883  -32.2937   26.4792 H   0  0  0  0  0  0
  -25.8000  -30.8984   27.0238 H   0  0  0  0  0  0
  -26.2992  -29.6695   24.1301 H   0  0  0  0  0  0
  -27.3978  -29.7264   25.4884 H   0  0  0  0  0  0
  -27.8916  -30.4212   23.9635 H   0  0  0  0  0  0
  -27.2603  -33.3667   26.2037 H   0  0  0  0  0  0
  -28.3888  -32.6882   25.0393 H   0  0  0  0  0  0
  -28.0651  -31.8518   26.5499 H   0  0  0  0  0  0
  -28.2583  -38.0091   24.7490 H   0  0  0  0  0  0
  -28.1063  -36.2614   24.6313 H   0  0  0  0  0  0
  -27.2289  -37.1479   25.8872 H   0  0  0  0  0  0
  -20.9455  -29.8812   21.6829 H   0  0  0  0  0  0
  -26.0140  -38.2813   24.1399 H   0  0  0  0  0  0
  -31.1862  -19.0748   19.3322 H   0  0  0  0  0  0
  -31.6377  -19.5692   20.9497 H   0  0  0  0  0  0
  -31.7896  -17.3071   21.6991 H   0  0  0  0  0  0
  -32.2544  -17.1553   20.0173 H   0  0  0  0  0  0
  -29.4538  -19.1069   21.7862 H   0  0  0  0  0  0
  -28.9307  -17.4209   19.2313 H   0  0  0  0  0  0
  -27.0059  -17.6279   20.6645 H   0  0  0  0  0  0
  -27.9375  -17.2310   22.1070 H   0  0  0  0  0  0
  -27.6581  -16.0084   20.8845 H   0  0  0  0  0  0
  -27.8098  -22.9123   19.1264 H   0  0  0  0  0  0
  -29.4567  -23.3708   19.3392 H   0  0  0  0  0  0
  -28.5432  -24.6150   21.5927 H   0  0  0  0  0  0
  -27.0092  -24.5078   20.8513 H   0  0  0  0  0  0
  -28.6846  -20.3497   19.1525 H   0  0  0  0  0  0
  1 25  1  0  0  0
  1 30  2  0  0  0
  1 79  1  0  0  0
  2  3  1  0  0  0
  2 25  1  0  0  0
  2 82  1  0  0  0
  2 83  1  0  0  0
  3  4  1  0  0  0
  3 84  1  0  0  0
  3 85  1  0  0  0
  4  5  1  0  0  0
  4 86  1  0  0  0
  4 87  1  0  0  0
  5  6  1  0  0  0
  5 26  1  0  0  0
  5 88  1  0  0  0
  6 25  1  0  0  0
  6 89  1  0  0  0
  6 90  1  0  0  0
  7  8  2  0  0  0
  7 26  1  0  0  0
  7 29  1  0  0  0
  8  9  1  0  0  0
  8 22  1  0  0  0
  9 10  1  0  0  0
  9 27  2  0  0  0
 10 11  2  0  0  0
 10 15  1  0  0  0
 11 12  1  0  0  0
 11 91  1  0  0  0
 12 13  2  0  0  0
 12 92  1  0  0  0
 13 14  1  0  0  0
 13 31  1  0  0  0
 14 15  2  0  0  0
 14 93  1  0  0  0
 15 94  1  0  0  0
 16 17  2  0  0  0
 16 21  1  0  0  0
 16 31  1  0  0  0
 17 18  1  0  0  0
 17 95  1  0  0  0
 18 19  2  0  0  0
 18 96  1  0  0  0
 19 20  1  0  0  0
 19 24  1  0  0  0
 20 21  2  0  0  0
 20 97  1  0  0  0
 21 23  1  0  0  0
 22 28  1  0  0  0
 22 32  2  0  0  0
 26 27  1  0  0  0
 28 98  1  0  0  0
 28 99  1  0  0  0
 29100  1  0  0  0
 29101  1  0  0  0
 33 34  1  0  0  0
 33 66  1  0  0  0
 33 70  2  0  0  0
 34 36  1  0  0  0
 34 59  1  0  0  0
 34102  1  0  0  0
 35 44  2  0  0  0
 35 45  1  0  0  0
 35 68  1  0  0  0
 36 56  1  0  0  0
 36103  1  0  0  0
 37 39  1  0  0  0
 37 47  1  0  0  0
 37 66  1  0  0  0
 37104  1  0  0  0
 38 43  2  0  0  0
 38 46  1  0  0  0
 38 47  1  0  0  0
 39 64  1  0  0  0
 39 67  2  0  0  0
 40 52  1  0  0  0
 40 53  2  0  0  0
 40 58  1  0  0  0
 41105  1  0  0  0
 41106  1  0  0  0
 41107  1  0  0  0
 41 48  1  0  0  0
 42 43  1  0  0  0
 42 66  1  0  0  0
 42108  1  0  0  0
 42109  1  0  0  0
 43 44  1  0  0  0
 44110  1  0  0  0
 45 46  2  0  0  0
 45111  1  0  0  0
 46112  1  0  0  0
 47113  1  0  0  0
 47114  1  0  0  0
 48 56  1  0  0  0
 48 65  1  0  0  0
 48115  1  0  0  0
 49 50  1  0  0  0
 49 53  1  0  0  0
 49 64  1  0  0  0
 49116  1  0  0  0
 50 51  1  0  0  0
 50117  1  0  0  0
 50118  1  0  0  0
 51 52  1  0  0  0
 51119  1  0  0  0
 51120  1  0  0  0
 52121  1  0  0  0
 52122  1  0  0  0
 53 54  1  0  0  0
 54 55  2  0  0  0
 54123  1  0  0  0
 55 57  1  0  0  0
 55124  1  0  0  0
 56 69  2  0  0  0
 57 58  2  0  0  0
 57125  1  0  0  0
 58126  1  0  0  0
 59 60  1  0  0  0
 59 61  1  0  0  0
 59 62  1  0  0  0
 60127  1  0  0  0
 60128  1  0  0  0
 60129  1  0  0  0
 61130  1  0  0  0
 61131  1  0  0  0
 61132  1  0  0  0
 62133  1  0  0  0
 62134  1  0  0  0
 62135  1  0  0  0
 63 65  1  0  0  0
 63136  1  0  0  0
 63137  1  0  0  0
 63138  1  0  0  0
 64139  1  0  0  0
 65140  1  0  0  0
 68 78  1  0  0  0
 71 77  1  0  0  0
 71 80  1  0  0  0
 71 81  2  0  0  0
 72 73  1  0  0  0
 72 74  1  0  0  0
 72141  1  0  0  0
 72142  1  0  0  0
 73 79  1  0  0  0
 73143  1  0  0  0
 73144  1  0  0  0
 74 75  1  0  0  0
 74 80  1  0  0  0
 74145  1  0  0  0
 75 76  1  0  0  0
 75 79  1  0  0  0
 75146  1  0  0  0
 76147  1  0  0  0
 76148  1  0  0  0
 76149  1  0  0  0
 77 78  1  0  0  0
 77150  1  0  0  0
 77151  1  0  0  0
 78152  1  0  0  0
 78153  1  0  0  0
 80154  1  0  0  0
M  ISO  4   1 100  68 101  78 101  79 100
M  END
> <chiral flag>
0

> <version>
0

> <s_m_source_file>
/data/baiqing/PycharmProjects/Reinvent-master-3.2/result/LINK_invent/BTK/process_docking_weight1_custom_sum_contain_oxygen_bond_distance_aromatic_linkinvent_7_9_3/rearranged_h_0183.sdf

> <i_m_source_file_index>
45

> <r_mmod_Potential_Energy-OPLS-2005>
802.695678710938

> <r_mmod_Stretch_Energy-OPLS-2005>
301.188507080078

> <r_mmod_Bend_Energy-OPLS-2005>
396.418762207031

> <r_mmod_Torsional_Energy-OPLS-2005>
329.082427978516

> <r_mmod_Improper_Torsional_Energy-OPLS-2005>
3.91486024856567

> <r_mmod_Van_der_Waal_Energy-OPLS-2005>
122.17276763916

> <r_mmod_Electrostatic_Energy-OPLS-2005>
-352.470275878906

> <r_mmod_Solvation_Energy-OPLS-2005>
-231.892318725586

> <b_mmod_Minimization_Converged-OPLS-2005>
0

> <r_mmod_RMS_Derivative-OPLS-2005>
2.52586770057678

$$$$
46
                    3D
 Structure written by MMmdl.
155164  0  0  1  0            999 V2000
  -30.5805  -14.9940   20.4189 C   0  0  0  0  0  0
  -30.4241  -12.6264   19.5022 C   0  0  0  0  0  0
  -29.5146  -12.5308   18.2582 C   0  0  0  0  0  0
  -28.0520  -12.3121   18.6821 C   0  0  0  0  0  0
  -27.6205  -13.2616   19.8311 C   0  0  2  0  0  0
  -28.6636  -13.3469   20.9653 C   0  0  0  0  0  0
  -25.2429  -13.8246   20.5742 C   0  0  0  0  0  0
  -24.1757  -13.0450   20.9242 C   0  0  0  0  0  0
  -24.6392  -11.6940   20.8763 C   0  0  0  0  0  0
  -23.9086  -10.4300   21.0408 C   0  0  0  0  0  0
  -24.3634   -9.4213   21.9184 C   0  0  0  0  0  0
  -23.6307   -8.2247   22.0752 C   0  0  0  0  0  0
  -22.4288   -8.0284   21.3543 C   0  0  0  0  0  0
  -21.9927   -9.0258   20.4644 C   0  0  0  0  0  0
  -22.7256  -10.2138   20.3057 C   0  0  0  0  0  0
  -21.6857   -6.0741   22.5279 C   0  0  0  0  0  0
  -21.4015   -6.5642   23.8213 C   0  0  0  0  0  0
  -21.3661   -5.6794   24.9174 C   0  0  0  0  0  0
  -21.6045   -4.3057   24.7224 C   0  0  0  0  0  0
  -21.8819   -3.8151   23.4344 C   0  0  0  0  0  0
  -21.9194   -4.6969   22.3401 C   0  0  0  0  0  0
  -22.7776  -13.5207   21.1890 C   0  0  0  0  0  0
  -22.1661   -4.2156   21.0979 F   0  0  0  0  0  0
  -21.5630   -3.4539   25.7735 F   0  0  0  0  0  0
  -29.9256  -13.7600   20.3419 N   0  0  0  0  0  0
  -26.2853  -12.9501   20.3258 N   0  0  0  0  0  0
  -25.9329  -11.6617   20.5753 N   0  0  0  0  0  0
  -22.0432  -12.8187   22.0444 N   0  0  0  0  0  0
  -25.4107  -15.1973   20.4177 N   0  0  0  0  0  0
  -31.7923  -14.9607   20.1788 O   0  0  0  0  0  0
  -21.6647   -6.8884   21.4242 O   0  0  0  0  0  0
  -22.3453  -14.5507   20.6731 O   0  0  0  0  0  0
  -24.6487  -31.8407   23.1870 C   0  0  0  0  0  0
  -25.9240  -32.4678   23.8269 C   0  0  1  0  0  0
  -27.2049  -27.0858   20.1507 C   0  0  0  0  0  0
  -25.5971  -33.8487   24.2177 N   0  0  0  0  0  0
  -23.4539  -30.4619   21.5342 C   0  0  2  0  0  0
  -24.9026  -28.8880   20.1086 C   0  0  0  0  0  0
  -22.7596  -29.4533   22.4846 C   0  0  0  0  0  0
  -18.0309  -28.1403   22.8476 C   0  0  0  0  0  0
  -24.1492  -36.7242   23.2642 C   0  0  0  0  0  0
  -26.0157  -30.6969   21.3964 C   0  0  0  0  0  0
  -26.0838  -29.3057   20.7349 C   0  0  0  0  0  0
  -27.2356  -28.4213   20.7409 C   0  0  0  0  0  0
  -25.9983  -26.7958   19.4709 C   0  0  0  0  0  0
  -24.8763  -27.6482   19.4600 C   0  0  0  0  0  0
  -23.6827  -29.7959   20.1529 C   0  0  0  0  0  0
  -25.4128  -36.3020   24.0310 C   0  0  1  0  0  0
  -20.5927  -28.3733   23.1223 C   0  0  2  0  0  0
  -20.6795  -26.9432   22.5402 C   0  0  0  0  0  0
  -19.5765  -26.6384   21.5216 C   0  0  0  0  0  0
  -18.1946  -26.7938   22.1627 C   0  0  0  0  0  0
  -19.1568  -28.8888   23.2838 C   0  0  0  0  0  0
  -18.9482  -30.1482   23.8866 C   0  0  0  0  0  0
  -17.6477  -30.6596   24.0561 C   0  0  0  0  0  0
  -25.9084  -34.9398   23.5053 C   0  0  0  0  0  0
  -16.5367  -29.9087   23.6342 C   0  0  0  0  0  0
  -16.7293  -28.6508   23.0361 C   0  0  0  0  0  0
  -26.4541  -31.6562   25.0730 C   0  0  0  0  0  0
  -25.3707  -31.3767   26.1410 C   0  0  0  0  0  0
  -27.0415  -30.2947   24.6357 C   0  0  0  0  0  0
  -27.6058  -32.4341   25.7519 C   0  0  0  0  0  0
  -27.5575  -37.1780   24.8466 C   0  0  0  0  0  0
  -21.4283  -29.3050   22.3590 N   0  0  0  0  0  0
  -26.4287  -37.3739   23.9406 N   0  0  0  0  0  0
  -24.7263  -31.0220   22.0934 N   0  0  0  0  0  0
  -23.4219  -28.8076   23.3009 O   0  0  0  0  0  0
  -28.2114  -26.0351   20.2380 O   0  0  0  0  0  0
  -26.5674  -34.8901   22.4634 O   0  0  0  0  0  0
  -23.5593  -32.1311   23.7056 O   0  0  0  0  0  0
  -29.1814  -20.9008   19.2113 C   0  0  0  0  0  0
  -29.2278  -20.1272   20.4271 C   0  0  0  0  0  0
  -28.6211  -22.2821   21.4389 C   0  0  0  0  0  0
  -28.5636  -23.0562   20.2140 C   0  0  0  0  0  0
  -28.9381  -17.1632   21.0130 C   0  0  0  0  0  0
  -30.3812  -17.5288   19.5600 C   0  0  0  0  0  0
  -29.6919  -18.5170   20.5887 C   0  0  0  0  0  0
  -29.5364  -23.3430   23.5481 C   0  0  0  0  0  0
  -28.2809  -22.9355   22.7677 C   0  0  0  0  0  0
  -27.8019  -24.5357   19.9757 C   0  0  0  0  0  0
  -28.8600  -22.2654   19.1132 N   0  0  0  0  0  0
  -28.9519  -20.9150   21.5334 N   0  0  0  0  0  0
  -29.9222  -16.2692   20.2766 N   0  0  0  0  0  0
  -31.4586  -12.7655   19.1852 H   0  0  0  0  0  0
  -30.4123  -11.6921   20.0660 H   0  0  0  0  0  0
  -29.8426  -11.7198   17.6066 H   0  0  0  0  0  0
  -29.5957  -13.4485   17.6734 H   0  0  0  0  0  0
  -27.9582  -11.2753   19.0071 H   0  0  0  0  0  0
  -27.3866  -12.4234   17.8253 H   0  0  0  0  0  0
  -27.5672  -14.2529   19.3791 H   0  0  0  0  0  0
  -28.7667  -12.3939   21.4861 H   0  0  0  0  0  0
  -28.3568  -14.0836   21.7095 H   0  0  0  0  0  0
  -25.2775   -9.5689   22.4766 H   0  0  0  0  0  0
  -24.0015   -7.4638   22.7472 H   0  0  0  0  0  0
  -21.0859   -8.8778   19.8948 H   0  0  0  0  0  0
  -22.3711  -10.9679   19.6171 H   0  0  0  0  0  0
  -21.2005   -7.6150   23.9718 H   0  0  0  0  0  0
  -21.1484   -6.0523   25.9077 H   0  0  0  0  0  0
  -22.0597   -2.7614   23.2842 H   0  0  0  0  0  0
  -22.4066  -11.9857   22.4834 H   0  0  0  0  0  0
  -21.1043  -13.1191   22.2648 H   0  0  0  0  0  0
  -24.6458  -15.8535   20.5309 H   0  0  0  0  0  0
  -26.2637  -15.6324   20.0916 H   0  0  0  0  0  0
  -26.7305  -32.5264   23.0992 H   0  0  0  0  0  0
  -25.0091  -33.9597   25.0307 H   0  0  0  0  0  0
  -22.7587  -31.2898   21.3803 H   0  0  0  0  0  0
  -23.3764  -35.9564   23.3295 H   0  0  0  0  0  0
  -24.3569  -36.8887   22.2057 H   0  0  0  0  0  0
  -23.7242  -37.6431   23.6690 H   0  0  0  0  0  0
  -26.1823  -31.4496   20.6248 H   0  0  0  0  0  0
  -26.8821  -30.7436   22.0442 H   0  0  0  0  0  0
  -28.1294  -28.7328   21.2631 H   0  0  0  0  0  0
  -25.8661  -25.8577   18.9558 H   0  0  0  0  0  0
  -23.9781  -27.3253   18.9516 H   0  0  0  0  0  0
  -23.8242  -30.5726   19.4005 H   0  0  0  0  0  0
  -22.7955  -29.2431   19.8385 H   0  0  0  0  0  0
  -25.1320  -36.1843   25.0803 H   0  0  0  0  0  0
  -21.0017  -28.3329   24.1346 H   0  0  0  0  0  0
  -20.5695  -26.2349   23.3627 H   0  0  0  0  0  0
  -21.6658  -26.7436   22.1196 H   0  0  0  0  0  0
  -19.6926  -25.6289   21.1264 H   0  0  0  0  0  0
  -19.6701  -27.3182   20.6735 H   0  0  0  0  0  0
  -17.4216  -26.6686   21.4031 H   0  0  0  0  0  0
  -18.0342  -26.0089   22.9031 H   0  0  0  0  0  0
  -19.7956  -30.7310   24.2221 H   0  0  0  0  0  0
  -17.5028  -31.6273   24.5169 H   0  0  0  0  0  0
  -15.5367  -30.2979   23.7684 H   0  0  0  0  0  0
  -15.8693  -28.0817   22.7094 H   0  0  0  0  0  0
  -24.5892  -30.7113   25.7725 H   0  0  0  0  0  0
  -24.8893  -32.2956   26.4766 H   0  0  0  0  0  0
  -25.7972  -30.8981   27.0235 H   0  0  0  0  0  0
  -26.3052  -29.6658   24.1340 H   0  0  0  0  0  0
  -27.3976  -29.7262   25.4959 H   0  0  0  0  0  0
  -27.8984  -30.4165   23.9727 H   0  0  0  0  0  0
  -27.2641  -33.3665   26.2025 H   0  0  0  0  0  0
  -28.3907  -32.6864   25.0376 H   0  0  0  0  0  0
  -28.0686  -31.8517   26.5496 H   0  0  0  0  0  0
  -28.2585  -38.0082   24.7511 H   0  0  0  0  0  0
  -28.1079  -36.2611   24.6301 H   0  0  0  0  0  0
  -27.2287  -37.1433   25.8868 H   0  0  0  0  0  0
  -20.9507  -29.8758   21.6756 H   0  0  0  0  0  0
  -26.0150  -38.2803   24.1413 H   0  0  0  0  0  0
  -29.4133  -20.4143   18.2750 H   0  0  0  0  0  0
  -27.9307  -17.1051   20.5996 H   0  0  0  0  0  0
  -28.9047  -17.0133   22.0929 H   0  0  0  0  0  0
  -31.4635  -17.6575   19.5083 H   0  0  0  0  0  0
  -29.9547  -17.6148   18.5597 H   0  0  0  0  0  0
  -30.4451  -18.6411   21.3684 H   0  0  0  0  0  0
  -29.2706  -23.8038   24.4997 H   0  0  0  0  0  0
  -30.1330  -24.0612   22.9847 H   0  0  0  0  0  0
  -30.1656  -22.4784   23.7611 H   0  0  0  0  0  0
  -27.6863  -22.2415   23.3635 H   0  0  0  0  0  0
  -27.6493  -23.8092   22.6107 H   0  0  0  0  0  0
  -26.8429  -24.4045   20.4775 H   0  0  0  0  0  0
  -27.5645  -24.5106   18.9121 H   0  0  0  0  0  0
  1 25  1  0  0  0
  1 30  2  0  0  0
  1 83  1  0  0  0
  2  3  1  0  0  0
  2 25  1  0  0  0
  2 84  1  0  0  0
  2 85  1  0  0  0
  3  4  1  0  0  0
  3 86  1  0  0  0
  3 87  1  0  0  0
  4  5  1  0  0  0
  4 88  1  0  0  0
  4 89  1  0  0  0
  5  6  1  0  0  0
  5 26  1  0  0  0
  5 90  1  0  0  0
  6 25  1  0  0  0
  6 91  1  0  0  0
  6 92  1  0  0  0
  7  8  2  0  0  0
  7 26  1  0  0  0
  7 29  1  0  0  0
  8  9  1  0  0  0
  8 22  1  0  0  0
  9 10  1  0  0  0
  9 27  2  0  0  0
 10 11  2  0  0  0
 10 15  1  0  0  0
 11 12  1  0  0  0
 11 93  1  0  0  0
 12 13  2  0  0  0
 12 94  1  0  0  0
 13 14  1  0  0  0
 13 31  1  0  0  0
 14 15  2  0  0  0
 14 95  1  0  0  0
 15 96  1  0  0  0
 16 17  2  0  0  0
 16 21  1  0  0  0
 16 31  1  0  0  0
 17 18  1  0  0  0
 17 97  1  0  0  0
 18 19  2  0  0  0
 18 98  1  0  0  0
 19 20  1  0  0  0
 19 24  1  0  0  0
 20 21  2  0  0  0
 20 99  1  0  0  0
 21 23  1  0  0  0
 22 28  1  0  0  0
 22 32  2  0  0  0
 26 27  1  0  0  0
 28100  1  0  0  0
 28101  1  0  0  0
 29102  1  0  0  0
 29103  1  0  0  0
 33 34  1  0  0  0
 33 66  1  0  0  0
 33 70  2  0  0  0
 34 36  1  0  0  0
 34 59  1  0  0  0
 34104  1  0  0  0
 35 44  2  0  0  0
 35 45  1  0  0  0
 35 68  1  0  0  0
 36 56  1  0  0  0
 36105  1  0  0  0
 37 39  1  0  0  0
 37 47  1  0  0  0
 37 66  1  0  0  0
 37106  1  0  0  0
 38 43  2  0  0  0
 38 46  1  0  0  0
 38 47  1  0  0  0
 39 64  1  0  0  0
 39 67  2  0  0  0
 40 52  1  0  0  0
 40 53  2  0  0  0
 40 58  1  0  0  0
 41107  1  0  0  0
 41108  1  0  0  0
 41109  1  0  0  0
 41 48  1  0  0  0
 42 43  1  0  0  0
 42 66  1  0  0  0
 42110  1  0  0  0
 42111  1  0  0  0
 43 44  1  0  0  0
 44112  1  0  0  0
 45 46  2  0  0  0
 45113  1  0  0  0
 46114  1  0  0  0
 47115  1  0  0  0
 47116  1  0  0  0
 48 56  1  0  0  0
 48 65  1  0  0  0
 48117  1  0  0  0
 49 50  1  0  0  0
 49 53  1  0  0  0
 49 64  1  0  0  0
 49118  1  0  0  0
 50 51  1  0  0  0
 50119  1  0  0  0
 50120  1  0  0  0
 51 52  1  0  0  0
 51121  1  0  0  0
 51122  1  0  0  0
 52123  1  0  0  0
 52124  1  0  0  0
 53 54  1  0  0  0
 54 55  2  0  0  0
 54125  1  0  0  0
 55 57  1  0  0  0
 55126  1  0  0  0
 56 69  2  0  0  0
 57 58  2  0  0  0
 57127  1  0  0  0
 58128  1  0  0  0
 59 60  1  0  0  0
 59 61  1  0  0  0
 59 62  1  0  0  0
 60129  1  0  0  0
 60130  1  0  0  0
 60131  1  0  0  0
 61132  1  0  0  0
 61133  1  0  0  0
 61134  1  0  0  0
 62135  1  0  0  0
 62136  1  0  0  0
 62137  1  0  0  0
 63 65  1  0  0  0
 63138  1  0  0  0
 63139  1  0  0  0
 63140  1  0  0  0
 64141  1  0  0  0
 65142  1  0  0  0
 68 80  1  0  0  0
 71 72  2  0  0  0
 71 81  1  0  0  0
 71143  1  0  0  0
 72 82  1  0  0  0
 72 77  1  0  0  0
 73 74  1  0  0  0
 73 79  1  0  0  0
 73 82  2  0  0  0
 74 80  1  0  0  0
 74 81  2  0  0  0
 75 77  1  0  0  0
 75 83  1  0  0  0
 75144  1  0  0  0
 75145  1  0  0  0
 76 77  1  0  0  0
 76 83  1  0  0  0
 76146  1  0  0  0
 76147  1  0  0  0
 77148  1  0  0  0
 78 79  1  0  0  0
 78149  1  0  0  0
 78150  1  0  0  0
 78151  1  0  0  0
 79152  1  0  0  0
 79153  1  0  0  0
 80154  1  0  0  0
 80155  1  0  0  0
M  ISO  4   1 100  68 101  80 101  83 100
M  END
> <chiral flag>
0

> <version>
0

> <s_m_source_file>
/data/baiqing/PycharmProjects/Reinvent-master-3.2/result/LINK_invent/BTK/process_docking_weight1_custom_sum_contain_oxygen_bond_distance_aromatic_linkinvent_7_9_3/rearranged_h_0183.sdf

> <i_m_source_file_index>
46

> <r_mmod_Potential_Energy-OPLS-2005>
780.647644042969

> <r_mmod_Stretch_Energy-OPLS-2005>
271.927886962891

> <r_mmod_Bend_Energy-OPLS-2005>
327.426788330078

> <r_mmod_Torsional_Energy-OPLS-2005>
261.29345703125

> <r_mmod_Improper_Torsional_Energy-OPLS-2005>
20.3899173736572

> <r_mmod_Van_der_Waal_Energy-OPLS-2005>
132.550231933594

> <r_mmod_Electrostatic_Energy-OPLS-2005>
-251.162673950195

> <r_mmod_Solvation_Energy-OPLS-2005>
-220.976867675781

> <b_mmod_Minimization_Converged-OPLS-2005>
0

> <r_mmod_RMS_Derivative-OPLS-2005>
0.36761012673378

$$$$
47
                    3D
 Structure written by MMmdl.
158167  0  0  1  0            999 V2000
  -30.5239  -15.1661   20.3729 C   0  0  0  0  0  0
  -30.4294  -12.7454   19.4996 C   0  0  0  0  0  0
  -29.5165  -12.5504   18.2667 C   0  0  0  0  0  0
  -28.0666  -12.2946   18.7088 C   0  0  0  0  0  0
  -27.6096  -13.2729   19.8213 C   0  0  2  0  0  0
  -28.6556  -13.4419   20.9445 C   0  0  0  0  0  0
  -25.2328  -13.8144   20.5807 C   0  0  0  0  0  0
  -24.1701  -13.0349   20.9304 C   0  0  0  0  0  0
  -24.6392  -11.6874   20.8801 C   0  0  0  0  0  0
  -23.9096  -10.4250   21.0414 C   0  0  0  0  0  0
  -24.3636   -9.4171   21.9196 C   0  0  0  0  0  0
  -23.6297   -8.2220   22.0756 C   0  0  0  0  0  0
  -22.4284   -8.0267   21.3538 C   0  0  0  0  0  0
  -21.9925   -9.0247   20.4645 C   0  0  0  0  0  0
  -22.7266  -10.2112   20.3058 C   0  0  0  0  0  0
  -21.6849   -6.0731   22.5281 C   0  0  0  0  0  0
  -21.4008   -6.5636   23.8215 C   0  0  0  0  0  0
  -21.3657   -5.6791   24.9180 C   0  0  0  0  0  0
  -21.6045   -4.3055   24.7231 C   0  0  0  0  0  0
  -21.8818   -3.8144   23.4352 C   0  0  0  0  0  0
  -21.9194   -4.6959   22.3408 C   0  0  0  0  0  0
  -22.7722  -13.5117   21.1952 C   0  0  0  0  0  0
  -22.1664   -4.2140   21.0987 F   0  0  0  0  0  0
  -21.5635   -3.4545   25.7747 F   0  0  0  0  0  0
  -29.8944  -13.9019   20.2983 N   0  0  0  0  0  0
  -26.2805  -12.9489   20.3272 N   0  0  0  0  0  0
  -25.9335  -11.6589   20.5770 N   0  0  0  0  0  0
  -22.0388  -12.8103   22.0509 N   0  0  0  0  0  0
  -25.3831  -15.1839   20.4269 N   0  0  0  0  0  0
  -31.7486  -15.1158   20.2030 O   0  0  0  0  0  0
  -21.6633   -6.8873   21.4243 O   0  0  0  0  0  0
  -22.3405  -14.5434   20.6805 O   0  0  0  0  0  0
  -24.6572  -31.8289   23.1757 C   0  0  0  0  0  0
  -25.9284  -32.4611   23.8207 C   0  0  1  0  0  0
  -27.2261  -27.0037   20.1668 C   0  0  0  0  0  0
  -25.5974  -33.8422   24.2115 N   0  0  0  0  0  0
  -23.4678  -30.4430   21.5237 C   0  0  2  0  0  0
  -24.9222  -28.8437   20.1122 C   0  0  0  0  0  0
  -22.7622  -29.4477   22.4813 C   0  0  0  0  0  0
  -18.0321  -28.1384   22.8466 C   0  0  0  0  0  0
  -24.1505  -36.7213   23.2643 C   0  0  0  0  0  0
  -26.0330  -30.6615   21.3945 C   0  0  0  0  0  0
  -26.1044  -29.2587   20.7379 C   0  0  0  0  0  0
  -27.2535  -28.3578   20.7431 C   0  0  0  0  0  0
  -26.0132  -26.7236   19.4992 C   0  0  0  0  0  0
  -24.8968  -27.5935   19.4750 C   0  0  0  0  0  0
  -23.7032  -29.7600   20.1488 C   0  0  0  0  0  0
  -25.4139  -36.2967   24.0307 C   0  0  1  0  0  0
  -20.5938  -28.3725   23.1194 C   0  0  2  0  0  0
  -20.6789  -26.9411   22.5395 C   0  0  0  0  0  0
  -19.5766  -26.6361   21.5200 C   0  0  0  0  0  0
  -18.1949  -26.7921   22.1613 C   0  0  0  0  0  0
  -19.1582  -28.8876   23.2818 C   0  0  0  0  0  0
  -18.9488  -30.1470   23.8847 C   0  0  0  0  0  0
  -17.6481  -30.6574   24.0552 C   0  0  0  0  0  0
  -25.9095  -34.9357   23.5027 C   0  0  0  0  0  0
  -16.5371  -29.9061   23.6336 C   0  0  0  0  0  0
  -16.7307  -28.6479   23.0362 C   0  0  0  0  0  0
  -26.4564  -31.6523   25.0702 C   0  0  0  0  0  0
  -25.3713  -31.3749   26.1373 C   0  0  0  0  0  0
  -27.0473  -30.2904   24.6398 C   0  0  0  0  0  0
  -27.6068  -32.4322   25.7498 C   0  0  0  0  0  0
  -27.5578  -37.1763   24.8466 C   0  0  0  0  0  0
  -21.4304  -29.3031   22.3552 N   0  0  0  0  0  0
  -26.4289  -37.3693   23.9400 N   0  0  0  0  0  0
  -24.7397  -31.0037   22.0845 N   0  0  0  0  0  0
  -23.4196  -28.8059   23.3042 O   0  0  0  0  0  0
  -28.2459  -25.9387   20.2362 O   0  0  0  0  0  0
  -26.5688  -34.8875   22.4610 O   0  0  0  0  0  0
  -23.5660  -32.1234   23.6891 O   0  0  0  0  0  0
  -30.8191  -20.8985   20.6114 C   0  0  0  0  0  0
  -31.1063  -22.2727   20.7504 C   0  0  0  0  0  0
  -29.5258  -20.4688   20.2880 C   0  0  0  0  0  0
  -28.9477  -22.9852   20.2896 C   0  0  0  0  0  0
  -29.3664  -17.5773   21.1756 C   0  0  0  0  0  0
  -30.4215  -17.7215   19.5369 C   0  0  0  0  0  0
  -29.2827  -18.7684   20.0479 C   0  0  0  0  0  0
  -28.3224  -19.2741   17.6795 C   0  0  0  0  0  0
  -27.2437  -17.4587   19.0191 C   0  0  0  0  0  0
  -27.9377  -24.3557   20.0810 C   0  0  0  0  0  0
  -28.0260  -18.7749   19.1124 C   0  0  0  0  0  0
  -30.2099  -23.2757   20.5880 N   0  0  0  0  0  0
  -28.6096  -21.5946   20.1611 N   0  0  0  0  0  0
  -29.8467  -16.4653   20.2179 N   0  0  0  0  0  0
  -31.4517  -12.9217   19.1630 H   0  0  0  0  0  0
  -30.4710  -11.8374   20.1038 H   0  0  0  0  0  0
  -29.8736  -11.7219   17.6534 H   0  0  0  0  0  0
  -29.5573  -13.4379   17.6340 H   0  0  0  0  0  0
  -28.0174  -11.2717   19.0824 H   0  0  0  0  0  0
  -27.3902  -12.3401   17.8541 H   0  0  0  0  0  0
  -27.5261  -14.2427   19.3290 H   0  0  0  0  0  0
  -28.8049  -12.5170   21.5029 H   0  0  0  0  0  0
  -28.3178  -14.1931   21.6610 H   0  0  0  0  0  0
  -25.2771   -9.5650   22.4784 H   0  0  0  0  0  0
  -24.0001   -7.4605   22.7467 H   0  0  0  0  0  0
  -21.0862   -8.8770   19.8946 H   0  0  0  0  0  0
  -22.3729  -10.9663   19.6176 H   0  0  0  0  0  0
  -21.1988   -7.6144   23.9711 H   0  0  0  0  0  0
  -21.1484   -6.0528   25.9080 H   0  0  0  0  0  0
  -22.0599   -2.7606   23.2860 H   0  0  0  0  0  0
  -22.4014  -11.9754   22.4874 H   0  0  0  0  0  0
  -21.1004  -13.1101   22.2741 H   0  0  0  0  0  0
  -24.6054  -15.8268   20.5267 H   0  0  0  0  0  0
  -26.2250  -15.6251   20.0813 H   0  0  0  0  0  0
  -26.7359  -32.5183   23.0936 H   0  0  0  0  0  0
  -25.0107  -33.9510   25.0257 H   0  0  0  0  0  0
  -22.7766  -31.2727   21.3552 H   0  0  0  0  0  0
  -23.3773  -35.9537   23.3267 H   0  0  0  0  0  0
  -24.3584  -36.8882   22.2062 H   0  0  0  0  0  0
  -23.7267  -37.6396   23.6718 H   0  0  0  0  0  0
  -26.2077  -31.4105   20.6214 H   0  0  0  0  0  0
  -26.8939  -30.7120   22.0496 H   0  0  0  0  0  0
  -28.1506  -28.6708   21.2575 H   0  0  0  0  0  0
  -25.8895  -25.7702   19.0091 H   0  0  0  0  0  0
  -23.9967  -27.2673   18.9732 H   0  0  0  0  0  0
  -23.8485  -30.5266   19.3861 H   0  0  0  0  0  0
  -22.8162  -29.2034   19.8383 H   0  0  0  0  0  0
  -25.1340  -36.1766   25.0800 H   0  0  0  0  0  0
  -21.0041  -28.3324   24.1312 H   0  0  0  0  0  0
  -20.5639  -26.2344   23.3630 H   0  0  0  0  0  0
  -21.6658  -26.7368   22.1218 H   0  0  0  0  0  0
  -19.6922  -25.6262   21.1246 H   0  0  0  0  0  0
  -19.6706  -27.3157   20.6719 H   0  0  0  0  0  0
  -17.4215  -26.6668   21.4017 H   0  0  0  0  0  0
  -18.0356  -26.0065   22.9013 H   0  0  0  0  0  0
  -19.7963  -30.7303   24.2180 H   0  0  0  0  0  0
  -17.5029  -31.6250   24.5159 H   0  0  0  0  0  0
  -15.5365  -30.2942   23.7673 H   0  0  0  0  0  0
  -15.8716  -28.0769   22.7109 H   0  0  0  0  0  0
  -24.5915  -30.7069   25.7687 H   0  0  0  0  0  0
  -24.8890  -32.2946   26.4700 H   0  0  0  0  0  0
  -25.7971  -30.8987   27.0216 H   0  0  0  0  0  0
  -26.3140  -29.6571   24.1392 H   0  0  0  0  0  0
  -27.4022  -29.7263   25.5032 H   0  0  0  0  0  0
  -27.9062  -30.4106   23.9799 H   0  0  0  0  0  0
  -27.2644  -33.3657   26.1979 H   0  0  0  0  0  0
  -28.3931  -32.6820   25.0363 H   0  0  0  0  0  0
  -28.0683  -31.8515   26.5497 H   0  0  0  0  0  0
  -28.2571  -38.0083   24.7512 H   0  0  0  0  0  0
  -28.1097  -36.2603   24.6295 H   0  0  0  0  0  0
  -27.2286  -37.1403   25.8868 H   0  0  0  0  0  0
  -20.9540  -29.8730   21.6705 H   0  0  0  0  0  0
  -26.0135  -38.2747   24.1406 H   0  0  0  0  0  0
  -31.6160  -20.1791   20.7415 H   0  0  0  0  0  0
  -32.1121  -22.5890   20.9860 H   0  0  0  0  0  0
  -28.4144  -17.3780   21.6651 H   0  0  0  0  0  0
  -30.1000  -17.8011   21.9548 H   0  0  0  0  0  0
  -30.4803  -17.6463   18.4517 H   0  0  0  0  0  0
  -31.4197  -17.9783   19.9006 H   0  0  0  0  0  0
  -28.8913  -20.2028   17.6689 H   0  0  0  0  0  0
  -27.3974  -19.4654   17.1340 H   0  0  0  0  0  0
  -28.8821  -18.5413   17.1002 H   0  0  0  0  0  0
  -26.9195  -17.1544   20.0083 H   0  0  0  0  0  0
  -27.8275  -16.6556   18.5686 H   0  0  0  0  0  0
  -26.3453  -17.5806   18.4147 H   0  0  0  0  0  0
  -27.0801  -24.1684   20.7264 H   0  0  0  0  0  0
  -27.5536  -24.2363   19.0689 H   0  0  0  0  0  0
  -27.3023  -19.4693   19.5414 H   0  0  0  0  0  0
  1 25  1  0  0  0
  1 30  2  0  0  0
  1 84  1  0  0  0
  2  3  1  0  0  0
  2 25  1  0  0  0
  2 85  1  0  0  0
  2 86  1  0  0  0
  3  4  1  0  0  0
  3 87  1  0  0  0
  3 88  1  0  0  0
  4  5  1  0  0  0
  4 89  1  0  0  0
  4 90  1  0  0  0
  5  6  1  0  0  0
  5 26  1  0  0  0
  5 91  1  0  0  0
  6 25  1  0  0  0
  6 92  1  0  0  0
  6 93  1  0  0  0
  7  8  2  0  0  0
  7 26  1  0  0  0
  7 29  1  0  0  0
  8  9  1  0  0  0
  8 22  1  0  0  0
  9 10  1  0  0  0
  9 27  2  0  0  0
 10 11  2  0  0  0
 10 15  1  0  0  0
 11 12  1  0  0  0
 11 94  1  0  0  0
 12 13  2  0  0  0
 12 95  1  0  0  0
 13 14  1  0  0  0
 13 31  1  0  0  0
 14 15  2  0  0  0
 14 96  1  0  0  0
 15 97  1  0  0  0
 16 17  2  0  0  0
 16 21  1  0  0  0
 16 31  1  0  0  0
 17 18  1  0  0  0
 17 98  1  0  0  0
 18 19  2  0  0  0
 18 99  1  0  0  0
 19 20  1  0  0  0
 19 24  1  0  0  0
 20 21  2  0  0  0
 20100  1  0  0  0
 21 23  1  0  0  0
 22 28  1  0  0  0
 22 32  2  0  0  0
 26 27  1  0  0  0
 28101  1  0  0  0
 28102  1  0  0  0
 29103  1  0  0  0
 29104  1  0  0  0
 33 34  1  0  0  0
 33 66  1  0  0  0
 33 70  2  0  0  0
 34 36  1  0  0  0
 34 59  1  0  0  0
 34105  1  0  0  0
 35 44  2  0  0  0
 35 45  1  0  0  0
 35 68  1  0  0  0
 36 56  1  0  0  0
 36106  1  0  0  0
 37 39  1  0  0  0
 37 47  1  0  0  0
 37 66  1  0  0  0
 37107  1  0  0  0
 38 43  2  0  0  0
 38 46  1  0  0  0
 38 47  1  0  0  0
 39 64  1  0  0  0
 39 67  2  0  0  0
 40 52  1  0  0  0
 40 53  2  0  0  0
 40 58  1  0  0  0
 41108  1  0  0  0
 41109  1  0  0  0
 41110  1  0  0  0
 41 48  1  0  0  0
 42 43  1  0  0  0
 42 66  1  0  0  0
 42111  1  0  0  0
 42112  1  0  0  0
 43 44  1  0  0  0
 44113  1  0  0  0
 45 46  2  0  0  0
 45114  1  0  0  0
 46115  1  0  0  0
 47116  1  0  0  0
 47117  1  0  0  0
 48 56  1  0  0  0
 48 65  1  0  0  0
 48118  1  0  0  0
 49 50  1  0  0  0
 49 53  1  0  0  0
 49 64  1  0  0  0
 49119  1  0  0  0
 50 51  1  0  0  0
 50120  1  0  0  0
 50121  1  0  0  0
 51 52  1  0  0  0
 51122  1  0  0  0
 51123  1  0  0  0
 52124  1  0  0  0
 52125  1  0  0  0
 53 54  1  0  0  0
 54 55  2  0  0  0
 54126  1  0  0  0
 55 57  1  0  0  0
 55127  1  0  0  0
 56 69  2  0  0  0
 57 58  2  0  0  0
 57128  1  0  0  0
 58129  1  0  0  0
 59 60  1  0  0  0
 59 61  1  0  0  0
 59 62  1  0  0  0
 60130  1  0  0  0
 60131  1  0  0  0
 60132  1  0  0  0
 61133  1  0  0  0
 61134  1  0  0  0
 61135  1  0  0  0
 62136  1  0  0  0
 62137  1  0  0  0
 62138  1  0  0  0
 63 65  1  0  0  0
 63139  1  0  0  0
 63140  1  0  0  0
 63141  1  0  0  0
 64142  1  0  0  0
 65143  1  0  0  0
 68 80  1  0  0  0
 71 72  2  0  0  0
 71 73  1  0  0  0
 71144  1  0  0  0
 72 82  1  0  0  0
 72145  1  0  0  0
 73 83  2  0  0  0
 73 77  1  0  0  0
 74 80  1  0  0  0
 74 82  2  0  0  0
 74 83  1  0  0  0
 75 77  1  0  0  0
 75 84  1  0  0  0
 75146  1  0  0  0
 75147  1  0  0  0
 76 77  1  0  0  0
 76 84  1  0  0  0
 76148  1  0  0  0
 76149  1  0  0  0
 77 81  1  0  0  0
 78150  1  0  0  0
 78151  1  0  0  0
 78152  1  0  0  0
 78 81  1  0  0  0
 79 81  1  0  0  0
 79153  1  0  0  0
 79154  1  0  0  0
 79155  1  0  0  0
 80156  1  0  0  0
 80157  1  0  0  0
 81158  1  0  0  0
M  ISO  4   1 100  68 101  80 101  84 100
M  END
> <chiral flag>
0

> <version>
0

> <s_m_source_file>
/data/baiqing/PycharmProjects/Reinvent-master-3.2/result/LINK_invent/BTK/process_docking_weight1_custom_sum_contain_oxygen_bond_distance_aromatic_linkinvent_7_9_3/rearranged_h_0183.sdf

> <i_m_source_file_index>
47

> <r_mmod_Potential_Energy-OPLS-2005>
740.705871582031

> <r_mmod_Stretch_Energy-OPLS-2005>
421.571105957031

> <r_mmod_Bend_Energy-OPLS-2005>
376.865570068359

> <r_mmod_Torsional_Energy-OPLS-2005>
298.259094238281

> <r_mmod_Improper_Torsional_Energy-OPLS-2005>
19.2886085510254

> <r_mmod_Van_der_Waal_Energy-OPLS-2005>
140.186264038086

> <r_mmod_Electrostatic_Energy-OPLS-2005>
-644.830322265625

> <r_mmod_Solvation_Energy-OPLS-2005>
-228.939605712891

> <b_mmod_Minimization_Converged-OPLS-2005>
0

> <r_mmod_RMS_Derivative-OPLS-2005>
1.8008770942688

$$$$
48
                    3D
 Structure written by MMmdl.
156165  0  0  1  0            999 V2000
  -30.6129  -14.8307   20.4796 C   0  0  0  0  0  0
  -30.4336  -12.5230   19.4788 C   0  0  0  0  0  0
  -29.5107  -12.5231   18.2393 C   0  0  0  0  0  0
  -28.0386  -12.3252   18.6519 C   0  0  0  0  0  0
  -27.6345  -13.2291   19.8448 C   0  0  2  0  0  0
  -28.6839  -13.1734   20.9772 C   0  0  0  0  0  0
  -25.2421  -13.8153   20.5638 C   0  0  0  0  0  0
  -24.1754  -13.0396   20.9219 C   0  0  0  0  0  0
  -24.6375  -11.6889   20.8769 C   0  0  0  0  0  0
  -23.9062  -10.4270   21.0422 C   0  0  0  0  0  0
  -24.3616   -9.4186   21.9196 C   0  0  0  0  0  0
  -23.6289   -8.2224   22.0761 C   0  0  0  0  0  0
  -22.4270   -8.0271   21.3548 C   0  0  0  0  0  0
  -21.9904   -9.0246   20.4652 C   0  0  0  0  0  0
  -22.7237  -10.2122   20.3064 C   0  0  0  0  0  0
  -21.6846   -6.0730   22.5280 C   0  0  0  0  0  0
  -21.4013   -6.5637   23.8213 C   0  0  0  0  0  0
  -21.3659   -5.6790   24.9175 C   0  0  0  0  0  0
  -21.6044   -4.3053   24.7225 C   0  0  0  0  0  0
  -21.8818   -3.8144   23.4347 C   0  0  0  0  0  0
  -21.9190   -4.6959   22.3403 C   0  0  0  0  0  0
  -22.7776  -13.5183   21.1882 C   0  0  0  0  0  0
  -22.1657   -4.2147   21.0979 F   0  0  0  0  0  0
  -21.5630   -3.4536   25.7738 F   0  0  0  0  0  0
  -29.9648  -13.6010   20.3943 N   0  0  0  0  0  0
  -26.2882  -12.9381   20.3252 N   0  0  0  0  0  0
  -25.9303  -11.6527   20.5765 N   0  0  0  0  0  0
  -22.0431  -12.8185   22.0453 N   0  0  0  0  0  0
  -25.3939  -15.1870   20.3930 N   0  0  0  0  0  0
  -31.8013  -14.8664   20.1393 O   0  0  0  0  0  0
  -21.6633   -6.8871   21.4240 O   0  0  0  0  0  0
  -22.3457  -14.5489   20.6729 O   0  0  0  0  0  0
  -24.6352  -31.8508   23.1933 C   0  0  0  0  0  0
  -25.9165  -32.4724   23.8292 C   0  0  1  0  0  0
  -27.2239  -27.2246   20.1486 C   0  0  0  0  0  0
  -25.5946  -33.8528   24.2226 N   0  0  0  0  0  0
  -23.4336  -30.4714   21.5366 C   0  0  2  0  0  0
  -24.8834  -28.9039   20.1157 C   0  0  0  0  0  0
  -22.7518  -29.4591   22.4892 C   0  0  0  0  0  0
  -18.0301  -28.1388   22.8486 C   0  0  0  0  0  0
  -24.1492  -36.7267   23.2640 C   0  0  0  0  0  0
  -25.9808  -30.7551   21.3748 C   0  0  0  0  0  0
  -26.0567  -29.3706   20.7237 C   0  0  0  0  0  0
  -27.2330  -28.5472   20.7203 C   0  0  0  0  0  0
  -26.0277  -26.8266   19.5183 C   0  0  0  0  0  0
  -24.8759  -27.6415   19.4996 C   0  0  0  0  0  0
  -23.6554  -29.7964   20.1563 C   0  0  0  0  0  0
  -25.4121  -36.3047   24.0319 C   0  0  1  0  0  0
  -20.5906  -28.3709   23.1257 C   0  0  2  0  0  0
  -20.6783  -26.9421   22.5407 C   0  0  0  0  0  0
  -19.5758  -26.6385   21.5211 C   0  0  0  0  0  0
  -18.1943  -26.7929   22.1626 C   0  0  0  0  0  0
  -19.1554  -28.8867   23.2866 C   0  0  0  0  0  0
  -18.9471  -30.1466   23.8887 C   0  0  0  0  0  0
  -17.6467  -30.6589   24.0565 C   0  0  0  0  0  0
  -25.9064  -34.9420   23.5077 C   0  0  0  0  0  0
  -16.5361  -29.9084   23.6331 C   0  0  0  0  0  0
  -16.7286  -28.6502   23.0355 C   0  0  0  0  0  0
  -26.4522  -31.6555   25.0692 C   0  0  0  0  0  0
  -25.3736  -31.3714   26.1405 C   0  0  0  0  0  0
  -27.0368  -30.2963   24.6194 C   0  0  0  0  0  0
  -27.6069  -32.4295   25.7481 C   0  0  0  0  0  0
  -27.5575  -37.1790   24.8467 C   0  0  0  0  0  0
  -21.4222  -29.3047   22.3632 N   0  0  0  0  0  0
  -26.4288  -37.3753   23.9407 N   0  0  0  0  0  0
  -24.7025  -31.0448   22.0912 N   0  0  0  0  0  0
  -23.4200  -28.8144   23.3014 O   0  0  0  0  0  0
  -28.3121  -26.3141   20.1352 O   0  0  0  0  0  0
  -26.5646  -34.8906   22.4649 O   0  0  0  0  0  0
  -23.5497  -32.1339   23.7216 O   0  0  0  0  0  0
  -28.0516  -22.2127   18.3076 C   0  0  0  0  0  0
  -28.4583  -23.5322   20.0724 C   0  0  0  0  0  0
  -28.9717  -21.2472   20.0932 C   0  0  0  0  0  0
  -28.4668  -17.8650   21.5226 C   0  0  0  0  0  0
  -28.6865  -16.3287   21.3819 C   0  0  0  0  0  0
  -30.4100  -17.4626   20.2648 C   0  0  0  0  0  0
  -29.2414  -18.5624   20.3995 C   0  0  2  0  0  0
  -27.5100  -22.0668   16.9013 C   0  0  0  0  0  0
  -28.1738  -24.9502   20.7960 C   0  0  0  0  0  0
  -28.0025  -23.4384   18.8268 N   0  0  0  0  0  0
  -28.5034  -21.0926   18.8706 N   0  0  0  0  0  0
  -28.9760  -22.4449   20.7510 N   0  0  0  0  0  0
  -29.9225  -16.0600   20.6323 N   0  0  0  0  0  0
  -29.5184  -20.0467   20.6877 N   0  0  0  0  0  0
  -31.4700  -12.6579   19.1662 H   0  0  0  0  0  0
  -30.4076  -11.5532   19.9786 H   0  0  0  0  0  0
  -29.8124  -11.7412   17.5417 H   0  0  0  0  0  0
  -29.6179  -13.4676   17.7041 H   0  0  0  0  0  0
  -27.9097  -11.2771   18.9239 H   0  0  0  0  0  0
  -27.3788  -12.5010   17.8015 H   0  0  0  0  0  0
  -27.6182  -14.2403   19.4415 H   0  0  0  0  0  0
  -28.7588  -12.1586   21.3710 H   0  0  0  0  0  0
  -28.3917  -13.7809   21.8292 H   0  0  0  0  0  0
  -25.2760   -9.5662   22.4773 H   0  0  0  0  0  0
  -23.9997   -7.4608   22.7475 H   0  0  0  0  0  0
  -21.0837   -8.8771   19.8951 H   0  0  0  0  0  0
  -22.3703  -10.9668   19.6176 H   0  0  0  0  0  0
  -21.2009   -7.6145   23.9717 H   0  0  0  0  0  0
  -21.1480   -6.0520   25.9079 H   0  0  0  0  0  0
  -22.0598   -2.7607   23.2847 H   0  0  0  0  0  0
  -22.4048  -11.9856   22.4856 H   0  0  0  0  0  0
  -21.1055  -13.1216   22.2666 H   0  0  0  0  0  0
  -24.6147  -15.8277   20.4986 H   0  0  0  0  0  0
  -26.2257  -15.6324   20.0296 H   0  0  0  0  0  0
  -26.7230  -32.5372   23.1030 H   0  0  0  0  0  0
  -25.0083  -33.9646   25.0365 H   0  0  0  0  0  0
  -22.7319  -31.2943   21.3845 H   0  0  0  0  0  0
  -23.3750  -35.9604   23.3300 H   0  0  0  0  0  0
  -24.3582  -36.8895   22.2054 H   0  0  0  0  0  0
  -23.7247  -37.6466   23.6671 H   0  0  0  0  0  0
  -26.1192  -31.5111   20.6009 H   0  0  0  0  0  0
  -26.8576  -30.8098   22.0085 H   0  0  0  0  0  0
  -28.1359  -28.9069   21.1942 H   0  0  0  0  0  0
  -25.9795  -25.8568   19.0426 H   0  0  0  0  0  0
  -23.9783  -27.2793   19.0174 H   0  0  0  0  0  0
  -23.7825  -30.5671   19.3949 H   0  0  0  0  0  0
  -22.7726  -29.2307   19.8536 H   0  0  0  0  0  0
  -25.1304  -36.1882   25.0810 H   0  0  0  0  0  0
  -21.0008  -28.3297   24.1372 H   0  0  0  0  0  0
  -20.5676  -26.2325   23.3618 H   0  0  0  0  0  0
  -21.6652  -26.7432   22.1207 H   0  0  0  0  0  0
  -19.6918  -25.6294   21.1247 H   0  0  0  0  0  0
  -19.6691  -27.3191   20.6736 H   0  0  0  0  0  0
  -17.4210  -26.6680   21.4032 H   0  0  0  0  0  0
  -18.0347  -26.0070   22.9021 H   0  0  0  0  0  0
  -19.7946  -30.7292   24.2248 H   0  0  0  0  0  0
  -17.5019  -31.6267   24.5170 H   0  0  0  0  0  0
  -15.5360  -30.2983   23.7654 H   0  0  0  0  0  0
  -15.8689  -28.0816   22.7070 H   0  0  0  0  0  0
  -24.5940  -30.7025   25.7738 H   0  0  0  0  0  0
  -24.8897  -32.2882   26.4779 H   0  0  0  0  0  0
  -25.8053  -30.8937   27.0209 H   0  0  0  0  0  0
  -26.2952  -29.6698   24.1222 H   0  0  0  0  0  0
  -27.4040  -29.7237   25.4723 H   0  0  0  0  0  0
  -27.8836  -30.4218   23.9442 H   0  0  0  0  0  0
  -27.2679  -33.3612   26.2020 H   0  0  0  0  0  0
  -28.3914  -32.6814   25.0333 H   0  0  0  0  0  0
  -28.0694  -31.8432   26.5432 H   0  0  0  0  0  0
  -28.2591  -38.0088   24.7508 H   0  0  0  0  0  0
  -28.1072  -36.2615   24.6303 H   0  0  0  0  0  0
  -27.2294  -37.1450   25.8871 H   0  0  0  0  0  0
  -20.9418  -29.8752   21.6815 H   0  0  0  0  0  0
  -26.0158  -38.2822   24.1407 H   0  0  0  0  0  0
  -28.8615  -18.1802   22.4901 H   0  0  0  0  0  0
  -27.4071  -18.1253   21.5148 H   0  0  0  0  0  0
  -27.8512  -15.9055   20.8389 H   0  0  0  0  0  0
  -28.7187  -15.8695   22.3705 H   0  0  0  0  0  0
  -30.8243  -17.4632   19.2555 H   0  0  0  0  0  0
  -31.2321  -17.7084   20.9387 H   0  0  0  0  0  0
  -28.6375  -18.5087   19.4921 H   0  0  0  0  0  0
  -26.7436  -22.8137   16.6929 H   0  0  0  0  0  0
  -27.0609  -21.0840   16.7565 H   0  0  0  0  0  0
  -28.3116  -22.1854   16.1729 H   0  0  0  0  0  0
  -28.8270  -24.9818   21.6680 H   0  0  0  0  0  0
  -27.1685  -24.8762   21.2119 H   0  0  0  0  0  0
  -29.9272  -20.2201   21.5981 H   0  0  0  0  0  0
  1 25  1  0  0  0
  1 30  2  0  0  0
  1 83  1  0  0  0
  2  3  1  0  0  0
  2 25  1  0  0  0
  2 85  1  0  0  0
  2 86  1  0  0  0
  3  4  1  0  0  0
  3 87  1  0  0  0
  3 88  1  0  0  0
  4  5  1  0  0  0
  4 89  1  0  0  0
  4 90  1  0  0  0
  5  6  1  0  0  0
  5 26  1  0  0  0
  5 91  1  0  0  0
  6 25  1  0  0  0
  6 92  1  0  0  0
  6 93  1  0  0  0
  7  8  2  0  0  0
  7 26  1  0  0  0
  7 29  1  0  0  0
  8  9  1  0  0  0
  8 22  1  0  0  0
  9 10  1  0  0  0
  9 27  2  0  0  0
 10 11  2  0  0  0
 10 15  1  0  0  0
 11 12  1  0  0  0
 11 94  1  0  0  0
 12 13  2  0  0  0
 12 95  1  0  0  0
 13 14  1  0  0  0
 13 31  1  0  0  0
 14 15  2  0  0  0
 14 96  1  0  0  0
 15 97  1  0  0  0
 16 17  2  0  0  0
 16 21  1  0  0  0
 16 31  1  0  0  0
 17 18  1  0  0  0
 17 98  1  0  0  0
 18 19  2  0  0  0
 18 99  1  0  0  0
 19 20  1  0  0  0
 19 24  1  0  0  0
 20 21  2  0  0  0
 20100  1  0  0  0
 21 23  1  0  0  0
 22 28  1  0  0  0
 22 32  2  0  0  0
 26 27  1  0  0  0
 28101  1  0  0  0
 28102  1  0  0  0
 29103  1  0  0  0
 29104  1  0  0  0
 33 34  1  0  0  0
 33 66  1  0  0  0
 33 70  2  0  0  0
 34 36  1  0  0  0
 34 59  1  0  0  0
 34105  1  0  0  0
 35 44  2  0  0  0
 35 45  1  0  0  0
 35 68  1  0  0  0
 36 56  1  0  0  0
 36106  1  0  0  0
 37 39  1  0  0  0
 37 47  1  0  0  0
 37 66  1  0  0  0
 37107  1  0  0  0
 38 43  2  0  0  0
 38 46  1  0  0  0
 38 47  1  0  0  0
 39 64  1  0  0  0
 39 67  2  0  0  0
 40 52  1  0  0  0
 40 53  2  0  0  0
 40 58  1  0  0  0
 41108  1  0  0  0
 41109  1  0  0  0
 41110  1  0  0  0
 41 48  1  0  0  0
 42 43  1  0  0  0
 42 66  1  0  0  0
 42111  1  0  0  0
 42112  1  0  0  0
 43 44  1  0  0  0
 44113  1  0  0  0
 45 46  2  0  0  0
 45114  1  0  0  0
 46115  1  0  0  0
 47116  1  0  0  0
 47117  1  0  0  0
 48 56  1  0  0  0
 48 65  1  0  0  0
 48118  1  0  0  0
 49 50  1  0  0  0
 49 53  1  0  0  0
 49 64  1  0  0  0
 49119  1  0  0  0
 50 51  1  0  0  0
 50120  1  0  0  0
 50121  1  0  0  0
 51 52  1  0  0  0
 51122  1  0  0  0
 51123  1  0  0  0
 52124  1  0  0  0
 52125  1  0  0  0
 53 54  1  0  0  0
 54 55  2  0  0  0
 54126  1  0  0  0
 55 57  1  0  0  0
 55127  1  0  0  0
 56 69  2  0  0  0
 57 58  2  0  0  0
 57128  1  0  0  0
 58129  1  0  0  0
 59 60  1  0  0  0
 59 61  1  0  0  0
 59 62  1  0  0  0
 60130  1  0  0  0
 60131  1  0  0  0
 60132  1  0  0  0
 61133  1  0  0  0
 61134  1  0  0  0
 61135  1  0  0  0
 62136  1  0  0  0
 62137  1  0  0  0
 62138  1  0  0  0
 63 65  1  0  0  0
 63139  1  0  0  0
 63140  1  0  0  0
 63141  1  0  0  0
 64142  1  0  0  0
 65143  1  0  0  0
 68 79  1  0  0  0
 71 78  1  0  0  0
 71 80  2  0  0  0
 71 81  1  0  0  0
 72 79  1  0  0  0
 72 80  1  0  0  0
 72 82  2  0  0  0
 73 81  2  0  0  0
 73 82  1  0  0  0
 73 84  1  0  0  0
 74 75  1  0  0  0
 74 77  1  0  0  0
 74144  1  0  0  0
 74145  1  0  0  0
 75 83  1  0  0  0
 75146  1  0  0  0
 75147  1  0  0  0
 76 77  1  0  0  0
 76 83  1  0  0  0
 76148  1  0  0  0
 76149  1  0  0  0
 77 84  1  0  0  0
 77150  1  0  0  0
 78151  1  0  0  0
 78152  1  0  0  0
 78153  1  0  0  0
 79154  1  0  0  0
 79155  1  0  0  0
 84156  1  0  0  0
M  ISO  4   1 100  68 101  79 101  83 100
M  END
> <chiral flag>
0

> <version>
0

> <s_m_source_file>
/data/baiqing/PycharmProjects/Reinvent-master-3.2/result/LINK_invent/BTK/process_docking_weight1_custom_sum_contain_oxygen_bond_distance_aromatic_linkinvent_7_9_3/rearranged_h_0183.sdf

> <i_m_source_file_index>
48

> <r_mmod_Potential_Energy-OPLS-2005>
-339.990539550781

> <r_mmod_Stretch_Energy-OPLS-2005>
147.006683349609

> <r_mmod_Bend_Energy-OPLS-2005>
227.065582275391

> <r_mmod_Torsional_Energy-OPLS-2005>
320.4560546875

> <r_mmod_Improper_Torsional_Energy-OPLS-2005>
9.63319396972656

> <r_mmod_Van_der_Waal_Energy-OPLS-2005>
149.271484375

> <r_mmod_Electrostatic_Energy-OPLS-2005>
-1064.931640625

> <r_mmod_Solvation_Energy-OPLS-2005>
-240.221908569336

> <b_mmod_Minimization_Converged-OPLS-2005>
0

> <r_mmod_RMS_Derivative-OPLS-2005>
0.757814764976501

$$$$
49
                    3D
 Structure written by MMmdl.
149158  0  0  1  0            999 V2000
  -30.5751  -14.8550   20.4348 C   0  0  0  0  0  0
  -30.4405  -12.5251   19.4851 C   0  0  0  0  0  0
  -29.5181  -12.5204   18.2444 C   0  0  0  0  0  0
  -28.0471  -12.3256   18.6597 C   0  0  0  0  0  0
  -27.6370  -13.2409   19.8432 C   0  0  2  0  0  0
  -28.6831  -13.2238   20.9793 C   0  0  0  0  0  0
  -25.2493  -13.8206   20.5696 C   0  0  0  0  0  0
  -24.1801  -13.0439   20.9219 C   0  0  0  0  0  0
  -24.6407  -11.6921   20.8750 C   0  0  0  0  0  0
  -23.9084  -10.4293   21.0404 C   0  0  0  0  0  0
  -24.3629   -9.4207   21.9184 C   0  0  0  0  0  0
  -23.6300   -8.2244   22.0755 C   0  0  0  0  0  0
  -22.4280   -8.0283   21.3545 C   0  0  0  0  0  0
  -21.9920   -9.0259   20.4648 C   0  0  0  0  0  0
  -22.7253  -10.2135   20.3055 C   0  0  0  0  0  0
  -21.6854   -6.0737   22.5279 C   0  0  0  0  0  0
  -21.4016   -6.5641   23.8213 C   0  0  0  0  0  0
  -21.3659   -5.6794   24.9175 C   0  0  0  0  0  0
  -21.6044   -4.3055   24.7225 C   0  0  0  0  0  0
  -21.8820   -3.8148   23.4347 C   0  0  0  0  0  0
  -21.9193   -4.6965   22.3402 C   0  0  0  0  0  0
  -22.7821  -13.5213   21.1877 C   0  0  0  0  0  0
  -22.1662   -4.2150   21.0980 F   0  0  0  0  0  0
  -21.5627   -3.4539   25.7737 F   0  0  0  0  0  0
  -29.9711  -13.6076   20.3885 N   0  0  0  0  0  0
  -26.2922  -12.9429   20.3252 N   0  0  0  0  0  0
  -25.9338  -11.6563   20.5740 N   0  0  0  0  0  0
  -22.0465  -12.8201   22.0428 N   0  0  0  0  0  0
  -25.4152  -15.1934   20.4110 N   0  0  0  0  0  0
  -31.7754  -14.9382   20.1586 O   0  0  0  0  0  0
  -21.6643   -6.8881   21.4242 O   0  0  0  0  0  0
  -22.3503  -14.5517   20.6719 O   0  0  0  0  0  0
  -24.6396  -31.8486   23.1931 C   0  0  0  0  0  0
  -25.9188  -32.4717   23.8299 C   0  0  1  0  0  0
  -27.2125  -27.1768   20.1470 C   0  0  0  0  0  0
  -25.5956  -33.8522   24.2216 N   0  0  0  0  0  0
  -23.4410  -30.4699   21.5384 C   0  0  2  0  0  0
  -24.8910  -28.9071   20.1109 C   0  0  0  0  0  0
  -22.7550  -29.4567   22.4879 C   0  0  0  0  0  0
  -18.0299  -28.1395   22.8475 C   0  0  0  0  0  0
  -24.1491  -36.7266   23.2638 C   0  0  0  0  0  0
  -25.9952  -30.7338   21.3888 C   0  0  0  0  0  0
  -26.0675  -29.3488   20.7313 C   0  0  0  0  0  0
  -27.2328  -28.4983   20.7364 C   0  0  0  0  0  0
  -26.0200  -26.8410   19.4686 C   0  0  0  0  0  0
  -24.8779  -27.6647   19.4634 C   0  0  0  0  0  0
  -23.6652  -29.8032   20.1563 C   0  0  0  0  0  0
  -25.4121  -36.3043   24.0315 C   0  0  1  0  0  0
  -20.5912  -28.3718   23.1246 C   0  0  2  0  0  0
  -20.6788  -26.9425   22.5403 C   0  0  0  0  0  0
  -19.5762  -26.6381   21.5211 C   0  0  0  0  0  0
  -18.1944  -26.7932   22.1622 C   0  0  0  0  0  0
  -19.1556  -28.8873   23.2853 C   0  0  0  0  0  0
  -18.9474  -30.1473   23.8873 C   0  0  0  0  0  0
  -17.6470  -30.6592   24.0559 C   0  0  0  0  0  0
  -25.9069  -34.9417   23.5069 C   0  0  0  0  0  0
  -16.5362  -29.9081   23.6342 C   0  0  0  0  0  0
  -16.7284  -28.6505   23.0353 C   0  0  0  0  0  0
  -26.4522  -31.6571   25.0726 C   0  0  0  0  0  0
  -25.3717  -31.3757   26.1429 C   0  0  0  0  0  0
  -27.0381  -30.2967   24.6288 C   0  0  0  0  0  0
  -27.6052  -32.4336   25.7515 C   0  0  0  0  0  0
  -27.5574  -37.1791   24.8463 C   0  0  0  0  0  0
  -21.4247  -29.3046   22.3621 N   0  0  0  0  0  0
  -26.4287  -37.3752   23.9404 N   0  0  0  0  0  0
  -24.7113  -31.0373   22.0952 N   0  0  0  0  0  0
  -23.4210  -28.8110   23.3011 O   0  0  0  0  0  0
  -28.2476  -26.1844   20.1922 O   0  0  0  0  0  0
  -26.5647  -34.8907   22.4641 O   0  0  0  0  0  0
  -23.5526  -32.1341   23.7178 O   0  0  0  0  0  0
  -29.7025  -21.2732   21.3698 C   0  0  0  0  0  0
  -29.4373  -22.6976   21.3911 C   0  0  0  0  0  0
  -29.1195  -20.4251   20.3791 C   0  0  0  0  0  0
  -28.5878  -23.3233   20.4224 C   0  0  0  0  0  0
  -29.6514  -18.1317   19.1196 C   0  0  0  0  0  0
  -29.0705  -18.7892   20.3481 C   0  0  1  0  0  0
  -30.1130  -17.5055   20.4104 C   0  0  1  0  0  0
  -27.8442  -24.7681   20.6485 C   0  0  0  0  0  0
  -28.3572  -21.1020   19.4476 N   0  0  0  0  0  0
  -28.0999  -22.4529   19.4703 N   0  0  0  0  0  0
  -29.7809  -16.0102   20.5573 N   0  0  0  0  0  0
  -31.4778  -12.6693   19.1779 H   0  0  0  0  0  0
  -30.4108  -11.5603   19.9937 H   0  0  0  0  0  0
  -29.8195  -11.7347   17.5504 H   0  0  0  0  0  0
  -29.6249  -13.4628   17.7045 H   0  0  0  0  0  0
  -27.9228  -11.2798   18.9436 H   0  0  0  0  0  0
  -27.3876  -12.4894   17.8066 H   0  0  0  0  0  0
  -27.6144  -14.2525   19.4374 H   0  0  0  0  0  0
  -28.7460  -12.2368   21.4394 H   0  0  0  0  0  0
  -28.4025  -13.9170   21.7740 H   0  0  0  0  0  0
  -25.2772   -9.5682   22.4763 H   0  0  0  0  0  0
  -24.0004   -7.4637   22.7477 H   0  0  0  0  0  0
  -21.0847   -8.8781   19.8957 H   0  0  0  0  0  0
  -22.3709  -10.9676   19.6166 H   0  0  0  0  0  0
  -21.2010   -7.6150   23.9717 H   0  0  0  0  0  0
  -21.1481   -6.0523   25.9077 H   0  0  0  0  0  0
  -22.0598   -2.7609   23.2846 H   0  0  0  0  0  0
  -22.4080  -11.9860   22.4814 H   0  0  0  0  0  0
  -21.1083  -13.1230   22.2636 H   0  0  0  0  0  0
  -24.6412  -15.8403   20.5159 H   0  0  0  0  0  0
  -26.2497  -15.6337   20.0464 H   0  0  0  0  0  0
  -26.7255  -32.5340   23.1033 H   0  0  0  0  0  0
  -25.0093  -33.9648   25.0355 H   0  0  0  0  0  0
  -22.7411  -31.2949   21.3883 H   0  0  0  0  0  0
  -23.3753  -35.9598   23.3295 H   0  0  0  0  0  0
  -24.3573  -36.8901   22.2054 H   0  0  0  0  0  0
  -23.7253  -37.6463   23.6678 H   0  0  0  0  0  0
  -26.1466  -31.4901   20.6175 H   0  0  0  0  0  0
  -26.8674  -30.7839   22.0287 H   0  0  0  0  0  0
  -28.1279  -28.8277   21.2453 H   0  0  0  0  0  0
  -25.9457  -25.9021   18.9402 H   0  0  0  0  0  0
  -23.9851  -27.3280   18.9540 H   0  0  0  0  0  0
  -23.7974  -30.5796   19.4021 H   0  0  0  0  0  0
  -22.7812  -29.2428   19.8468 H   0  0  0  0  0  0
  -25.1310  -36.1870   25.0809 H   0  0  0  0  0  0
  -21.0002  -28.3303   24.1369 H   0  0  0  0  0  0
  -20.5694  -26.2326   23.3614 H   0  0  0  0  0  0
  -21.6654  -26.7442   22.1196 H   0  0  0  0  0  0
  -19.6927  -25.6287   21.1251 H   0  0  0  0  0  0
  -19.6701  -27.3182   20.6734 H   0  0  0  0  0  0
  -17.4213  -26.6673   21.4027 H   0  0  0  0  0  0
  -18.0349  -26.0080   22.9027 H   0  0  0  0  0  0
  -19.7949  -30.7296   24.2228 H   0  0  0  0  0  0
  -17.5023  -31.6268   24.5163 H   0  0  0  0  0  0
  -15.5362  -30.2974   23.7679 H   0  0  0  0  0  0
  -15.8683  -28.0814   22.7080 H   0  0  0  0  0  0
  -24.5897  -30.7101   25.7758 H   0  0  0  0  0  0
  -24.8906  -32.2941   26.4804 H   0  0  0  0  0  0
  -25.8008  -30.8966   27.0238 H   0  0  0  0  0  0
  -26.2994  -29.6701   24.1277 H   0  0  0  0  0  0
  -27.3979  -29.7253   25.4855 H   0  0  0  0  0  0
  -27.8910  -30.4200   23.9610 H   0  0  0  0  0  0
  -27.2634  -33.3647   26.2049 H   0  0  0  0  0  0
  -28.3890  -32.6881   25.0370 H   0  0  0  0  0  0
  -28.0690  -31.8493   26.5473 H   0  0  0  0  0  0
  -28.2587  -38.0091   24.7503 H   0  0  0  0  0  0
  -28.1075  -36.2620   24.6300 H   0  0  0  0  0  0
  -27.2288  -37.1449   25.8866 H   0  0  0  0  0  0
  -20.9450  -29.8751   21.6797 H   0  0  0  0  0  0
  -26.0153  -38.2819   24.1406 H   0  0  0  0  0  0
  -30.2850  -20.8285   22.1639 H   0  0  0  0  0  0
  -29.8085  -23.2871   22.2168 H   0  0  0  0  0  0
  -30.4099  -18.6813   18.5654 H   0  0  0  0  0  0
  -28.9531  -17.5809   18.4929 H   0  0  0  0  0  0
  -28.0458  -18.5242   20.6009 H   0  0  0  0  0  0
  -31.1098  -17.7743   20.7566 H   0  0  0  0  0  0
  -26.8197  -24.5684   20.3439 H   0  0  0  0  0  0
  -27.7635  -24.8590   21.7319 H   0  0  0  0  0  0
  -28.8106  -15.8122   20.7487 H   0  0  0  0  0  0
  1 25  1  0  0  0
  1 30  2  0  0  0
  1 81  1  0  0  0
  2  3  1  0  0  0
  2 25  1  0  0  0
  2 82  1  0  0  0
  2 83  1  0  0  0
  3  4  1  0  0  0
  3 84  1  0  0  0
  3 85  1  0  0  0
  4  5  1  0  0  0
  4 86  1  0  0  0
  4 87  1  0  0  0
  5  6  1  0  0  0
  5 26  1  0  0  0
  5 88  1  0  0  0
  6 25  1  0  0  0
  6 89  1  0  0  0
  6 90  1  0  0  0
  7  8  2  0  0  0
  7 26  1  0  0  0
  7 29  1  0  0  0
  8  9  1  0  0  0
  8 22  1  0  0  0
  9 10  1  0  0  0
  9 27  2  0  0  0
 10 11  2  0  0  0
 10 15  1  0  0  0
 11 12  1  0  0  0
 11 91  1  0  0  0
 12 13  2  0  0  0
 12 92  1  0  0  0
 13 14  1  0  0  0
 13 31  1  0  0  0
 14 15  2  0  0  0
 14 93  1  0  0  0
 15 94  1  0  0  0
 16 17  2  0  0  0
 16 21  1  0  0  0
 16 31  1  0  0  0
 17 18  1  0  0  0
 17 95  1  0  0  0
 18 19  2  0  0  0
 18 96  1  0  0  0
 19 20  1  0  0  0
 19 24  1  0  0  0
 20 21  2  0  0  0
 20 97  1  0  0  0
 21 23  1  0  0  0
 22 28  1  0  0  0
 22 32  2  0  0  0
 26 27  1  0  0  0
 28 98  1  0  0  0
 28 99  1  0  0  0
 29100  1  0  0  0
 29101  1  0  0  0
 33 34  1  0  0  0
 33 66  1  0  0  0
 33 70  2  0  0  0
 34 36  1  0  0  0
 34 59  1  0  0  0
 34102  1  0  0  0
 35 44  2  0  0  0
 35 45  1  0  0  0
 35 68  1  0  0  0
 36 56  1  0  0  0
 36103  1  0  0  0
 37 39  1  0  0  0
 37 47  1  0  0  0
 37 66  1  0  0  0
 37104  1  0  0  0
 38 43  2  0  0  0
 38 46  1  0  0  0
 38 47  1  0  0  0
 39 64  1  0  0  0
 39 67  2  0  0  0
 40 52  1  0  0  0
 40 53  2  0  0  0
 40 58  1  0  0  0
 41105  1  0  0  0
 41106  1  0  0  0
 41107  1  0  0  0
 41 48  1  0  0  0
 42 43  1  0  0  0
 42 66  1  0  0  0
 42108  1  0  0  0
 42109  1  0  0  0
 43 44  1  0  0  0
 44110  1  0  0  0
 45 46  2  0  0  0
 45111  1  0  0  0
 46112  1  0  0  0
 47113  1  0  0  0
 47114  1  0  0  0
 48 56  1  0  0  0
 48 65  1  0  0  0
 48115  1  0  0  0
 49 50  1  0  0  0
 49 53  1  0  0  0
 49 64  1  0  0  0
 49116  1  0  0  0
 50 51  1  0  0  0
 50117  1  0  0  0
 50118  1  0  0  0
 51 52  1  0  0  0
 51119  1  0  0  0
 51120  1  0  0  0
 52121  1  0  0  0
 52122  1  0  0  0
 53 54  1  0  0  0
 54 55  2  0  0  0
 54123  1  0  0  0
 55 57  1  0  0  0
 55124  1  0  0  0
 56 69  2  0  0  0
 57 58  2  0  0  0
 57125  1  0  0  0
 58126  1  0  0  0
 59 60  1  0  0  0
 59 61  1  0  0  0
 59 62  1  0  0  0
 60127  1  0  0  0
 60128  1  0  0  0
 60129  1  0  0  0
 61130  1  0  0  0
 61131  1  0  0  0
 61132  1  0  0  0
 62133  1  0  0  0
 62134  1  0  0  0
 62135  1  0  0  0
 63 65  1  0  0  0
 63136  1  0  0  0
 63137  1  0  0  0
 63138  1  0  0  0
 64139  1  0  0  0
 65140  1  0  0  0
 68 78  1  0  0  0
 71 72  2  0  0  0
 71 73  1  0  0  0
 71141  1  0  0  0
 72 74  1  0  0  0
 72142  1  0  0  0
 73 79  2  0  0  0
 73 76  1  0  0  0
 74 78  1  0  0  0
 74 80  2  0  0  0
 75 76  1  0  0  0
 75 77  1  0  0  0
 75143  1  0  0  0
 75144  1  0  0  0
 76 77  1  0  0  0
 76145  1  0  0  0
 77 81  1  0  0  0
 77146  1  0  0  0
 78147  1  0  0  0
 78148  1  0  0  0
 79 80  1  0  0  0
 81149  1  0  0  0
M  ISO  4   1 100  68 101  78 101  81 100
M  END
> <chiral flag>
0

> <version>
0

> <s_m_source_file>
/data/baiqing/PycharmProjects/Reinvent-master-3.2/result/LINK_invent/BTK/process_docking_weight1_custom_sum_contain_oxygen_bond_distance_aromatic_linkinvent_7_9_3/rearranged_h_0183.sdf

> <i_m_source_file_index>
49

> <r_mmod_Potential_Energy-OPLS-2005>
474.768005371094

> <r_mmod_Stretch_Energy-OPLS-2005>
200.600646972656

> <r_mmod_Bend_Energy-OPLS-2005>
235.051956176758

> <r_mmod_Torsional_Energy-OPLS-2005>
287.5

> <r_mmod_Improper_Torsional_Energy-OPLS-2005>
9.76555824279785

> <r_mmod_Van_der_Waal_Energy-OPLS-2005>
134.151947021484

> <r_mmod_Electrostatic_Energy-OPLS-2005>
-299.537445068359

> <r_mmod_Solvation_Energy-OPLS-2005>
-240.522857666016

> <b_mmod_Minimization_Converged-OPLS-2005>
0

> <r_mmod_RMS_Derivative-OPLS-2005>
0.735196888446808

$$$$
50
                    3D
 Structure written by MMmdl.
161170  0  0  1  0            999 V2000
  -30.6618  -14.6150   20.5000 C   0  0  0  0  0  0
  -30.4331  -12.3828   19.4427 C   0  0  0  0  0  0
  -29.5030  -12.5016   18.2159 C   0  0  0  0  0  0
  -28.0264  -12.3449   18.6298 C   0  0  0  0  0  0
  -27.6490  -13.2170   19.8573 C   0  0  2  0  0  0
  -28.6981  -13.0915   20.9848 C   0  0  0  0  0  0
  -25.2545  -13.8175   20.5681 C   0  0  0  0  0  0
  -24.1817  -13.0442   20.9196 C   0  0  0  0  0  0
  -24.6386  -11.6913   20.8733 C   0  0  0  0  0  0
  -23.9062  -10.4293   21.0388 C   0  0  0  0  0  0
  -24.3615   -9.4216   21.9168 C   0  0  0  0  0  0
  -23.6304   -8.2240   22.0741 C   0  0  0  0  0  0
  -22.4288   -8.0269   21.3531 C   0  0  0  0  0  0
  -21.9921   -9.0231   20.4634 C   0  0  0  0  0  0
  -22.7237  -10.2110   20.3038 C   0  0  0  0  0  0
  -21.6849   -6.0721   22.5281 C   0  0  0  0  0  0
  -21.3993   -6.5634   23.8207 C   0  0  0  0  0  0
  -21.3663   -5.6790   24.9172 C   0  0  0  0  0  0
  -21.6052   -4.3054   24.7226 C   0  0  0  0  0  0
  -21.8814   -3.8140   23.4346 C   0  0  0  0  0  0
  -21.9190   -4.6948   22.3402 C   0  0  0  0  0  0
  -22.7846  -13.5235   21.1849 C   0  0  0  0  0  0
  -22.1657   -4.2124   21.0986 F   0  0  0  0  0  0
  -21.5654   -3.4546   25.7743 F   0  0  0  0  0  0
  -30.0118  -13.4146   20.4093 N   0  0  0  0  0  0
  -26.2963  -12.9357   20.3291 N   0  0  0  0  0  0
  -25.9306  -11.6510   20.5725 N   0  0  0  0  0  0
  -22.0467  -12.8234   22.0385 N   0  0  0  0  0  0
  -25.4294  -15.1889   20.4135 N   0  0  0  0  0  0
  -31.8399  -14.7437   20.1633 O   0  0  0  0  0  0
  -21.6643   -6.8868   21.4244 O   0  0  0  0  0  0
  -22.3548  -14.5534   20.6677 O   0  0  0  0  0  0
  -24.6216  -31.8626   23.2054 C   0  0  0  0  0  0
  -25.9089  -32.4801   23.8363 C   0  0  1  0  0  0
  -27.2185  -27.3768   20.0982 C   0  0  0  0  0  0
  -25.5939  -33.8595   24.2289 N   0  0  0  0  0  0
  -23.4123  -30.4858   21.5464 C   0  0  2  0  0  0
  -24.8600  -28.9532   20.1053 C   0  0  0  0  0  0
  -22.7448  -29.4615   22.4950 C   0  0  0  0  0  0
  -18.0263  -28.1382   22.8479 C   0  0  0  0  0  0
  -24.1486  -36.7303   23.2622 C   0  0  0  0  0  0
  -25.9481  -30.8143   21.3649 C   0  0  0  0  0  0
  -26.0261  -29.4453   20.7077 C   0  0  0  0  0  0
  -27.2160  -28.6654   20.6998 C   0  0  0  0  0  0
  -26.0396  -26.9268   19.4694 C   0  0  0  0  0  0
  -24.8650  -27.6986   19.4777 C   0  0  0  0  0  0
  -23.6225  -29.8228   20.1592 C   0  0  0  0  0  0
  -25.4104  -36.3087   24.0316 C   0  0  1  0  0  0
  -20.5867  -28.3670   23.1316 C   0  0  2  0  0  0
  -20.6766  -26.9409   22.5410 C   0  0  0  0  0  0
  -19.5754  -26.6394   21.5203 C   0  0  0  0  0  0
  -18.1921  -26.7936   22.1600 C   0  0  0  0  0  0
  -19.1517  -28.8842   23.2897 C   0  0  0  0  0  0
  -18.9440  -30.1446   23.8911 C   0  0  0  0  0  0
  -17.6452  -30.6600   24.0537 C   0  0  0  0  0  0
  -25.9048  -34.9465   23.5091 C   0  0  0  0  0  0
  -16.5341  -29.9085   23.6328 C   0  0  0  0  0  0
  -16.7258  -28.6495   23.0359 C   0  0  0  0  0  0
  -26.4503  -31.6600   25.0714 C   0  0  0  0  0  0
  -25.3756  -31.3723   26.1457 C   0  0  0  0  0  0
  -27.0316  -30.3022   24.6122 C   0  0  0  0  0  0
  -27.6078  -32.4311   25.7495 C   0  0  0  0  0  0
  -27.5593  -37.1775   24.8431 C   0  0  0  0  0  0
  -21.4167  -29.3030   22.3729 N   0  0  0  0  0  0
  -26.4261  -37.3808   23.9445 N   0  0  0  0  0  0
  -24.6788  -31.0688   22.0978 N   0  0  0  0  0  0
  -23.4221  -28.8146   23.2987 O   0  0  0  0  0  0
  -28.2987  -26.5081   20.1414 O   0  0  0  0  0  0
  -26.5584  -34.8933   22.4638 O   0  0  0  0  0  0
  -23.5394  -32.1403   23.7415 O   0  0  0  0  0  0
  -29.8269  -22.4681   19.4145 C   0  0  0  0  0  0
  -29.7696  -21.4495   20.4118 C   0  0  0  0  0  0
  -28.5901  -22.9458   21.7529 C   0  0  0  0  0  0
  -28.6833  -23.9796   20.7683 C   0  0  0  0  0  0
  -29.9390  -16.5873   21.8871 C   0  0  0  0  0  0
  -29.3499  -16.4888   19.5233 C   0  0  0  0  0  0
  -30.5207  -18.0316   21.6716 C   0  0  0  0  0  0
  -29.9714  -17.9054   19.3099 C   0  0  0  0  0  0
  -27.8936  -23.1858   23.0798 C   0  0  0  0  0  0
  -30.5947  -20.1335   20.2773 C   0  0  0  0  0  0
  -28.0569  -25.3831   21.0409 C   0  0  0  0  0  0
  -29.2912  -23.7165   19.5810 N   0  0  0  0  0  0
  -29.1279  -21.6996   21.5817 N   0  0  0  0  0  0
  -29.8800  -15.7319   20.6807 N   0  0  0  0  0  0
  -29.9386  -18.7859   20.5168 N   0  3  0  0  0  0
  -31.4731  -12.5048   19.1351 H   0  0  0  0  0  0
  -30.3667  -11.3883   19.8888 H   0  0  0  0  0  0
  -29.7659  -11.7471   17.4727 H   0  0  0  0  0  0
  -29.6488  -13.4679   17.7313 H   0  0  0  0  0  0
  -27.8605  -11.2931   18.8633 H   0  0  0  0  0  0
  -27.3722  -12.5721   17.7873 H   0  0  0  0  0  0
  -27.6580  -14.2471   19.5102 H   0  0  0  0  0  0
  -28.7064  -12.0784   21.3917 H   0  0  0  0  0  0
  -28.4554  -13.7556   21.8165 H   0  0  0  0  0  0
  -25.2735   -9.5702   22.4764 H   0  0  0  0  0  0
  -24.0003   -7.4640   22.7456 H   0  0  0  0  0  0
  -21.0843   -8.8738   19.8960 H   0  0  0  0  0  0
  -22.3674  -10.9641   19.6158 H   0  0  0  0  0  0
  -21.1960   -7.6134   23.9706 H   0  0  0  0  0  0
  -21.1512   -6.0514   25.9076 H   0  0  0  0  0  0
  -22.0597   -2.7596   23.2839 H   0  0  0  0  0  0
  -22.4066  -11.9886   22.4793 H   0  0  0  0  0  0
  -21.1066  -13.1248   22.2550 H   0  0  0  0  0  0
  -24.6688  -15.8511   20.5303 H   0  0  0  0  0  0
  -26.2929  -15.6214   20.1163 H   0  0  0  0  0  0
  -26.7149  -32.5492   23.1116 H   0  0  0  0  0  0
  -25.0123  -33.9746   25.0456 H   0  0  0  0  0  0
  -22.7031  -31.3037   21.4076 H   0  0  0  0  0  0
  -23.3792  -35.9588   23.3189 H   0  0  0  0  0  0
  -24.3620  -36.9020   22.2063 H   0  0  0  0  0  0
  -23.7186  -37.6449   23.6709 H   0  0  0  0  0  0
  -26.0615  -31.5817   20.5963 H   0  0  0  0  0  0
  -26.8363  -30.8657   21.9842 H   0  0  0  0  0  0
  -28.1126  -29.0340   21.1788 H   0  0  0  0  0  0
  -26.0213  -25.9561   18.9927 H   0  0  0  0  0  0
  -23.9691  -27.3211   19.0029 H   0  0  0  0  0  0
  -23.7248  -30.5991   19.4000 H   0  0  0  0  0  0
  -22.7489  -29.2369   19.8641 H   0  0  0  0  0  0
  -25.1275  -36.1900   25.0801 H   0  0  0  0  0  0
  -20.9926  -28.3203   24.1451 H   0  0  0  0  0  0
  -20.5677  -26.2252   23.3579 H   0  0  0  0  0  0
  -21.6630  -26.7461   22.1195 H   0  0  0  0  0  0
  -19.6915  -25.6298   21.1229 H   0  0  0  0  0  0
  -19.6726  -27.3190   20.6727 H   0  0  0  0  0  0
  -17.4205  -26.6684   21.3984 H   0  0  0  0  0  0
  -18.0330  -26.0076   22.8992 H   0  0  0  0  0  0
  -19.7919  -30.7237   24.2315 H   0  0  0  0  0  0
  -17.5009  -31.6289   24.5112 H   0  0  0  0  0  0
  -15.5336  -30.2988   23.7681 H   0  0  0  0  0  0
  -15.8645  -28.0818   22.7096 H   0  0  0  0  0  0
  -24.5919  -30.7088   25.7788 H   0  0  0  0  0  0
  -24.8974  -32.2882   26.4922 H   0  0  0  0  0  0
  -25.8095  -30.8875   27.0208 H   0  0  0  0  0  0
  -26.2843  -29.6806   24.1170 H   0  0  0  0  0  0
  -27.4046  -29.7250   25.4598 H   0  0  0  0  0  0
  -27.8714  -30.4321   23.9293 H   0  0  0  0  0  0
  -27.2694  -33.3600   26.2098 H   0  0  0  0  0  0
  -28.3901  -32.6874   25.0336 H   0  0  0  0  0  0
  -28.0738  -31.8416   26.5406 H   0  0  0  0  0  0
  -28.2487  -38.0194   24.7654 H   0  0  0  0  0  0
  -28.1209  -36.2739   24.6013 H   0  0  0  0  0  0
  -27.2351  -37.1108   25.8831 H   0  0  0  0  0  0
  -20.9334  -29.8760   21.6955 H   0  0  0  0  0  0
  -26.0127  -38.2844   24.1579 H   0  0  0  0  0  0
  -30.3561  -22.2950   18.4888 H   0  0  0  0  0  0
  -28.9217  -16.6694   22.2779 H   0  0  0  0  0  0
  -30.5063  -16.0880   22.6738 H   0  0  0  0  0  0
  -29.4715  -15.9126   18.6038 H   0  0  0  0  0  0
  -28.2724  -16.5920   19.6586 H   0  0  0  0  0  0
  -31.5992  -17.9468   21.5266 H   0  0  0  0  0  0
  -30.3885  -18.6145   22.5862 H   0  0  0  0  0  0
  -29.4668  -18.4074   18.4811 H   0  0  0  0  0  0
  -31.0090  -17.7759   18.9981 H   0  0  0  0  0  0
  -26.8852  -23.5690   22.9226 H   0  0  0  0  0  0
  -28.4447  -23.9148   23.6734 H   0  0  0  0  0  0
  -27.8124  -22.2721   23.6686 H   0  0  0  0  0  0
  -31.4484  -20.2521   20.9462 H   0  0  0  0  0  0
  -31.0433  -20.1440   19.2833 H   0  0  0  0  0  0
  -28.4075  -25.7139   22.0172 H   0  0  0  0  0  0
  -26.9870  -25.2026   21.1675 H   0  0  0  0  0  0
  -28.9727  -18.9867   20.7327 H   0  0  0  0  0  0
  1 25  1  0  0  0
  1 30  2  0  0  0
  1 84  1  0  0  0
  2  3  1  0  0  0
  2 25  1  0  0  0
  2 86  1  0  0  0
  2 87  1  0  0  0
  3  4  1  0  0  0
  3 88  1  0  0  0
  3 89  1  0  0  0
  4  5  1  0  0  0
  4 90  1  0  0  0
  4 91  1  0  0  0
  5  6  1  0  0  0
  5 26  1  0  0  0
  5 92  1  0  0  0
  6 25  1  0  0  0
  6 93  1  0  0  0
  6 94  1  0  0  0
  7  8  2  0  0  0
  7 26  1  0  0  0
  7 29  1  0  0  0
  8  9  1  0  0  0
  8 22  1  0  0  0
  9 10  1  0  0  0
  9 27  2  0  0  0
 10 11  2  0  0  0
 10 15  1  0  0  0
 11 12  1  0  0  0
 11 95  1  0  0  0
 12 13  2  0  0  0
 12 96  1  0  0  0
 13 14  1  0  0  0
 13 31  1  0  0  0
 14 15  2  0  0  0
 14 97  1  0  0  0
 15 98  1  0  0  0
 16 17  2  0  0  0
 16 21  1  0  0  0
 16 31  1  0  0  0
 17 18  1  0  0  0
 17 99  1  0  0  0
 18 19  2  0  0  0
 18100  1  0  0  0
 19 20  1  0  0  0
 19 24  1  0  0  0
 20 21  2  0  0  0
 20101  1  0  0  0
 21 23  1  0  0  0
 22 28  1  0  0  0
 22 32  2  0  0  0
 26 27  1  0  0  0
 28102  1  0  0  0
 28103  1  0  0  0
 29104  1  0  0  0
 29105  1  0  0  0
 33 34  1  0  0  0
 33 66  1  0  0  0
 33 70  2  0  0  0
 34 36  1  0  0  0
 34 59  1  0  0  0
 34106  1  0  0  0
 35 44  2  0  0  0
 35 45  1  0  0  0
 35 68  1  0  0  0
 36 56  1  0  0  0
 36107  1  0  0  0
 37 39  1  0  0  0
 37 47  1  0  0  0
 37 66  1  0  0  0
 37108  1  0  0  0
 38 43  2  0  0  0
 38 46  1  0  0  0
 38 47  1  0  0  0
 39 64  1  0  0  0
 39 67  2  0  0  0
 40 52  1  0  0  0
 40 53  2  0  0  0
 40 58  1  0  0  0
 41109  1  0  0  0
 41110  1  0  0  0
 41111  1  0  0  0
 41 48  1  0  0  0
 42 43  1  0  0  0
 42 66  1  0  0  0
 42112  1  0  0  0
 42113  1  0  0  0
 43 44  1  0  0  0
 44114  1  0  0  0
 45 46  2  0  0  0
 45115  1  0  0  0
 46116  1  0  0  0
 47117  1  0  0  0
 47118  1  0  0  0
 48 56  1  0  0  0
 48 65  1  0  0  0
 48119  1  0  0  0
 49 50  1  0  0  0
 49 53  1  0  0  0
 49 64  1  0  0  0
 49120  1  0  0  0
 50 51  1  0  0  0
 50121  1  0  0  0
 50122  1  0  0  0
 51 52  1  0  0  0
 51123  1  0  0  0
 51124  1  0  0  0
 52125  1  0  0  0
 52126  1  0  0  0
 53 54  1  0  0  0
 54 55  2  0  0  0
 54127  1  0  0  0
 55 57  1  0  0  0
 55128  1  0  0  0
 56 69  2  0  0  0
 57 58  2  0  0  0
 57129  1  0  0  0
 58130  1  0  0  0
 59 60  1  0  0  0
 59 61  1  0  0  0
 59 62  1  0  0  0
 60131  1  0  0  0
 60132  1  0  0  0
 60133  1  0  0  0
 61134  1  0  0  0
 61135  1  0  0  0
 61136  1  0  0  0
 62137  1  0  0  0
 62138  1  0  0  0
 62139  1  0  0  0
 63 65  1  0  0  0
 63140  1  0  0  0
 63141  1  0  0  0
 63142  1  0  0  0
 64143  1  0  0  0
 65144  1  0  0  0
 68 81  1  0  0  0
 71 72  2  0  0  0
 71 82  1  0  0  0
 71145  1  0  0  0
 72 80  1  0  0  0
 72 83  1  0  0  0
 73 74  1  0  0  0
 73 79  1  0  0  0
 73 83  2  0  0  0
 74 81  1  0  0  0
 74 82  2  0  0  0
 75 77  1  0  0  0
 75 84  1  0  0  0
 75146  1  0  0  0
 75147  1  0  0  0
 76 78  1  0  0  0
 76 84  1  0  0  0
 76148  1  0  0  0
 76149  1  0  0  0
 77 85  1  0  0  0
 77150  1  0  0  0
 77151  1  0  0  0
 78 85  1  0  0  0
 78152  1  0  0  0
 78153  1  0  0  0
 79154  1  0  0  0
 79155  1  0  0  0
 79156  1  0  0  0
 80157  1  0  0  0
 80158  1  0  0  0
 80 85  1  0  0  0
 81159  1  0  0  0
 81160  1  0  0  0
 85161  1  0  0  0
M  CHG  1  85   1
M  ISO  4   1 100  68 101  81 101  84 100
M  END
> <chiral flag>
0

> <version>
0

> <s_m_source_file>
/data/baiqing/PycharmProjects/Reinvent-master-3.2/result/LINK_invent/BTK/process_docking_weight1_custom_sum_contain_oxygen_bond_distance_aromatic_linkinvent_7_9_3/rearranged_h_0183.sdf

> <i_m_source_file_index>
50

> <r_mmod_Potential_Energy-OPLS-2005>
164.835632324219

> <r_mmod_Stretch_Energy-OPLS-2005>
66.0517959594727

> <r_mmod_Bend_Energy-OPLS-2005>
126.750335693359

> <r_mmod_Torsional_Energy-OPLS-2005>
423.753784179688

> <r_mmod_Improper_Torsional_Energy-OPLS-2005>
9.62020683288574

> <r_mmod_Van_der_Waal_Energy-OPLS-2005>
147.246826171875

> <r_mmod_Electrostatic_Energy-OPLS-2005>
-197.853851318359

> <r_mmod_Solvation_Energy-OPLS-2005>
-450.931182861328

> <b_mmod_Minimization_Converged-OPLS-2005>
0

> <r_mmod_RMS_Derivative-OPLS-2005>
3.5017364025116

$$$$
51
                    3D
 Structure written by MMmdl.
162171  0  0  1  0            999 V2000
  -30.4938  -15.0553   20.4973 C   0  0  0  0  0  0
  -30.4502  -12.6945   19.4957 C   0  0  0  0  0  0
  -29.5242  -12.6179   18.2526 C   0  0  0  0  0  0
  -28.0507  -12.3811   18.6460 C   0  0  0  0  0  0
  -27.6268  -13.2625   19.8498 C   0  0  2  0  0  0
  -28.6780  -13.2038   20.9703 C   0  0  0  0  0  0
  -25.2385  -13.8227   20.5657 C   0  0  0  0  0  0
  -24.1732  -13.0428   20.9152 C   0  0  0  0  0  0
  -24.6381  -11.6932   20.8702 C   0  0  0  0  0  0
  -23.9084  -10.4282   21.0371 C   0  0  0  0  0  0
  -24.3638   -9.4197   21.9148 C   0  0  0  0  0  0
  -23.6338   -8.2211   22.0707 C   0  0  0  0  0  0
  -22.4314   -8.0236   21.3493 C   0  0  0  0  0  0
  -21.9928   -9.0223   20.4603 C   0  0  0  0  0  0
  -22.7246  -10.2099   20.3024 C   0  0  0  0  0  0
  -21.6841   -6.0717   22.5289 C   0  0  0  0  0  0
  -21.4015   -6.5616   23.8232 C   0  0  0  0  0  0
  -21.3670   -5.6759   24.9197 C   0  0  0  0  0  0
  -21.6056   -4.3028   24.7212 C   0  0  0  0  0  0
  -21.8810   -3.8105   23.4337 C   0  0  0  0  0  0
  -21.9183   -4.6946   22.3411 C   0  0  0  0  0  0
  -22.7754  -13.5181   21.1849 C   0  0  0  0  0  0
  -22.1652   -4.2147   21.0991 F   0  0  0  0  0  0
  -21.5650   -3.4501   25.7718 F   0  0  0  0  0  0
  -29.9262  -13.7599   20.4207 N   0  0  0  0  0  0
  -26.2874  -12.9486   20.3301 N   0  0  0  0  0  0
  -25.9339  -11.6587   20.5742 N   0  0  0  0  0  0
  -22.0436  -12.8179   22.0446 N   0  0  0  0  0  0
  -25.4036  -15.1953   20.4069 N   0  0  0  0  0  0
  -31.7003  -15.0703   20.1956 O   0  0  0  0  0  0
  -21.6631   -6.8869   21.4255 O   0  0  0  0  0  0
  -22.3402  -14.5464   20.6696 O   0  0  0  0  0  0
  -24.6460  -31.8400   23.1837 C   0  0  0  0  0  0
  -25.9240  -32.4683   23.8241 C   0  0  1  0  0  0
  -27.2298  -27.0952   20.1611 C   0  0  0  0  0  0
  -25.5959  -33.8483   24.2150 N   0  0  0  0  0  0
  -23.4533  -30.4557   21.5312 C   0  0  2  0  0  0
  -24.9064  -28.8676   20.1163 C   0  0  0  0  0  0
  -22.7582  -29.4540   22.4871 C   0  0  0  0  0  0
  -18.0282  -28.1401   22.8487 C   0  0  0  0  0  0
  -24.1489  -36.7255   23.2632 C   0  0  0  0  0  0
  -26.0125  -30.7016   21.3884 C   0  0  0  0  0  0
  -26.0839  -29.3048   20.7336 C   0  0  0  0  0  0
  -27.2470  -28.4372   20.7336 C   0  0  0  0  0  0
  -26.0227  -26.7648   19.5099 C   0  0  0  0  0  0
  -24.8886  -27.6127   19.4862 C   0  0  0  0  0  0
  -23.6831  -29.7762   20.1542 C   0  0  0  0  0  0
  -25.4122  -36.3031   24.0312 C   0  0  1  0  0  0
  -20.5906  -28.3738   23.1240 C   0  0  2  0  0  0
  -20.6786  -26.9436   22.5426 C   0  0  0  0  0  0
  -19.5764  -26.6379   21.5226 C   0  0  0  0  0  0
  -18.1929  -26.7943   22.1616 C   0  0  0  0  0  0
  -19.1547  -28.8885   23.2853 C   0  0  0  0  0  0
  -18.9451  -30.1473   23.8894 C   0  0  0  0  0  0
  -17.6452  -30.6603   24.0548 C   0  0  0  0  0  0
  -25.9085  -34.9420   23.5051 C   0  0  0  0  0  0
  -16.5340  -29.9101   23.6317 C   0  0  0  0  0  0
  -16.7269  -28.6507   23.0367 C   0  0  0  0  0  0
  -26.4521  -31.6570   25.0714 C   0  0  0  0  0  0
  -25.3670  -31.3809   26.1391 C   0  0  0  0  0  0
  -27.0356  -30.2937   24.6354 C   0  0  0  0  0  0
  -27.6064  -32.4324   25.7504 C   0  0  0  0  0  0
  -27.5608  -37.1743   24.8425 C   0  0  0  0  0  0
  -21.4274  -29.3049   22.3605 N   0  0  0  0  0  0
  -26.4259  -37.3779   23.9456 N   0  0  0  0  0  0
  -24.7245  -31.0210   22.0903 N   0  0  0  0  0  0
  -23.4201  -28.8077   23.3032 O   0  0  0  0  0  0
  -28.2988  -26.1126   20.1676 O   0  0  0  0  0  0
  -26.5675  -34.8918   22.4625 O   0  0  0  0  0  0
  -23.5574  -32.1326   23.7009 O   0  0  0  0  0  0
  -27.8847  -18.0633   21.4444 C   0  0  0  0  0  0
  -28.4652  -19.1988   20.8467 C   0  0  0  0  0  0
  -28.5678  -16.7949   21.4963 C   0  0  0  0  0  0
  -29.7589  -16.5304   20.6968 C   0  0  0  0  0  0
  -29.7206  -19.0269   20.3224 C   0  0  0  0  0  0
  -27.9445  -20.6779   20.7779 C   0  0  0  0  0  0
  -30.2374  -20.5004   20.0065 C   0  0  0  0  0  0
  -29.1732  -21.6555   20.5472 C   0  0  1  0  0  0
  -28.5760  -23.0478   18.4261 C   0  0  0  0  0  0
  -30.4526  -23.8168   19.8850 C   0  0  0  0  0  0
  -27.9017  -16.5036   23.8166 C   0  0  0  0  0  0
  -28.1112  -24.5730   20.4762 C   0  0  0  0  0  0
  -29.0217  -23.2480   19.8846 C   0  0  0  0  0  0
  -30.3271  -17.7468   20.1925 N   0  0  0  0  0  0
  -28.0879  -15.9178   22.4842 N   0  0  0  0  0  0
  -31.4693  -12.9010   19.1685 H   0  0  0  0  0  0
  -30.5088  -11.7280   19.9964 H   0  0  0  0  0  0
  -29.8662  -11.8425   17.5681 H   0  0  0  0  0  0
  -29.5958  -13.5578   17.7033 H   0  0  0  0  0  0
  -27.9246  -11.3264   18.8954 H   0  0  0  0  0  0
  -27.3968  -12.5727   17.7920 H   0  0  0  0  0  0
  -27.6001  -14.2926   19.4894 H   0  0  0  0  0  0
  -28.8148  -12.1727   21.2991 H   0  0  0  0  0  0
  -28.3434  -13.6817   21.8731 H   0  0  0  0  0  0
  -25.2805   -9.5684   22.4707 H   0  0  0  0  0  0
  -24.0053   -7.4588   22.7414 H   0  0  0  0  0  0
  -21.0838   -8.8732   19.8917 H   0  0  0  0  0  0
  -22.3715  -10.9618   19.6098 H   0  0  0  0  0  0
  -21.2008   -7.6112   23.9771 H   0  0  0  0  0  0
  -21.1516   -6.0461   25.9123 H   0  0  0  0  0  0
  -22.0581   -2.7561   23.2822 H   0  0  0  0  0  0
  -22.4065  -11.9909   22.4933 H   0  0  0  0  0  0
  -21.1037  -13.1158   22.2607 H   0  0  0  0  0  0
  -24.6602  -15.8536   20.6150 H   0  0  0  0  0  0
  -26.3229  -15.6205   20.4057 H   0  0  0  0  0  0
  -26.7315  -32.5270   23.0972 H   0  0  0  0  0  0
  -25.0033  -33.9592   25.0248 H   0  0  0  0  0  0
  -22.7590  -31.2831   21.3712 H   0  0  0  0  0  0
  -23.3820  -35.9502   23.3140 H   0  0  0  0  0  0
  -24.3608  -36.9053   22.2078 H   0  0  0  0  0  0
  -23.7133  -37.6353   23.6773 H   0  0  0  0  0  0
  -26.1682  -31.4509   20.6102 H   0  0  0  0  0  0
  -26.8834  -30.7572   22.0334 H   0  0  0  0  0  0
  -28.1502  -28.7733   21.2222 H   0  0  0  0  0  0
  -25.9371  -25.8082   19.0172 H   0  0  0  0  0  0
  -23.9909  -27.2770   18.9860 H   0  0  0  0  0  0
  -23.8223  -30.5473   19.3959 H   0  0  0  0  0  0
  -22.7979  -29.2194   19.8424 H   0  0  0  0  0  0
  -25.1293  -36.1831   25.0798 H   0  0  0  0  0  0
  -20.9983  -28.3332   24.1370 H   0  0  0  0  0  0
  -20.5682  -26.2342   23.3651 H   0  0  0  0  0  0
  -21.6646  -26.7452   22.1215 H   0  0  0  0  0  0
  -19.6929  -25.6279   21.1281 H   0  0  0  0  0  0
  -19.6711  -27.3166   20.6738 H   0  0  0  0  0  0
  -17.4219  -26.6689   21.4002 H   0  0  0  0  0  0
  -18.0310  -26.0084   22.9008 H   0  0  0  0  0  0
  -19.7934  -30.7262   24.2292 H   0  0  0  0  0  0
  -17.5009  -31.6292   24.5146 H   0  0  0  0  0  0
  -15.5341  -30.2990   23.7671 H   0  0  0  0  0  0
  -15.8667  -28.0804   22.7128 H   0  0  0  0  0  0
  -24.5802  -30.7237   25.7688 H   0  0  0  0  0  0
  -24.8906  -32.3002   26.4794 H   0  0  0  0  0  0
  -25.7872  -30.8950   27.0201 H   0  0  0  0  0  0
  -26.2964  -29.6664   24.1364 H   0  0  0  0  0  0
  -27.3915  -29.7262   25.4966 H   0  0  0  0  0  0
  -27.8906  -30.4126   23.9700 H   0  0  0  0  0  0
  -27.2682  -33.3651   26.2035 H   0  0  0  0  0  0
  -28.3896  -32.6844   25.0346 H   0  0  0  0  0  0
  -28.0711  -31.8475   26.5453 H   0  0  0  0  0  0
  -28.2487  -38.0181   24.7697 H   0  0  0  0  0  0
  -28.1238  -36.2734   24.5945 H   0  0  0  0  0  0
  -27.2371  -37.1016   25.8823 H   0  0  0  0  0  0
  -20.9502  -29.8704   21.6733 H   0  0  0  0  0  0
  -26.0119  -38.2808   24.1605 H   0  0  0  0  0  0
  -26.9477  -18.1927   21.9731 H   0  0  0  0  0  0
  -27.3747  -20.9494   21.6681 H   0  0  0  0  0  0
  -27.2571  -20.7400   19.9348 H   0  0  0  0  0  0
  -30.3964  -20.5838   18.9315 H   0  0  0  0  0  0
  -31.2105  -20.6415   20.4809 H   0  0  0  0  0  0
  -29.5259  -21.8474   21.5620 H   0  0  0  0  0  0
  -29.3467  -22.5668   17.8246 H   0  0  0  0  0  0
  -28.3327  -23.9957   17.9456 H   0  0  0  0  0  0
  -27.6847  -22.4247   18.3699 H   0  0  0  0  0  0
  -31.1964  -23.0992   19.5401 H   0  0  0  0  0  0
  -30.7405  -24.1335   20.8884 H   0  0  0  0  0  0
  -30.5295  -24.6941   19.2417 H   0  0  0  0  0  0
  -28.2133  -15.7980   24.5880 H   0  0  0  0  0  0
  -26.8561  -16.7564   24.0005 H   0  0  0  0  0  0
  -28.5056  -17.4006   23.9615 H   0  0  0  0  0  0
  -28.2203  -24.5275   21.5615 H   0  0  0  0  0  0
  -27.0639  -24.3248   20.3084 H   0  0  0  0  0  0
  -28.5397  -15.0114   22.5300 H   0  0  0  0  0  0
  1 25  1  0  0  0
  1 30  2  0  0  0
  1 74  1  0  0  0
  2  3  1  0  0  0
  2 25  1  0  0  0
  2 86  1  0  0  0
  2 87  1  0  0  0
  3  4  1  0  0  0
  3 88  1  0  0  0
  3 89  1  0  0  0
  4  5  1  0  0  0
  4 90  1  0  0  0
  4 91  1  0  0  0
  5  6  1  0  0  0
  5 26  1  0  0  0
  5 92  1  0  0  0
  6 25  1  0  0  0
  6 93  1  0  0  0
  6 94  1  0  0  0
  7  8  2  0  0  0
  7 26  1  0  0  0
  7 29  1  0  0  0
  8  9  1  0  0  0
  8 22  1  0  0  0
  9 10  1  0  0  0
  9 27  2  0  0  0
 10 11  2  0  0  0
 10 15  1  0  0  0
 11 12  1  0  0  0
 11 95  1  0  0  0
 12 13  2  0  0  0
 12 96  1  0  0  0
 13 14  1  0  0  0
 13 31  1  0  0  0
 14 15  2  0  0  0
 14 97  1  0  0  0
 15 98  1  0  0  0
 16 17  2  0  0  0
 16 21  1  0  0  0
 16 31  1  0  0  0
 17 18  1  0  0  0
 17 99  1  0  0  0
 18 19  2  0  0  0
 18100  1  0  0  0
 19 20  1  0  0  0
 19 24  1  0  0  0
 20 21  2  0  0  0
 20101  1  0  0  0
 21 23  1  0  0  0
 22 28  1  0  0  0
 22 32  2  0  0  0
 26 27  1  0  0  0
 28102  1  0  0  0
 28103  1  0  0  0
 29104  1  0  0  0
 29105  1  0  0  0
 33 34  1  0  0  0
 33 66  1  0  0  0
 33 70  2  0  0  0
 34 36  1  0  0  0
 34 59  1  0  0  0
 34106  1  0  0  0
 35 44  2  0  0  0
 35 45  1  0  0  0
 35 68  1  0  0  0
 36 56  1  0  0  0
 36107  1  0  0  0
 37 39  1  0  0  0
 37 47  1  0  0  0
 37 66  1  0  0  0
 37108  1  0  0  0
 38 43  2  0  0  0
 38 46  1  0  0  0
 38 47  1  0  0  0
 39 64  1  0  0  0
 39 67  2  0  0  0
 40 52  1  0  0  0
 40 53  2  0  0  0
 40 58  1  0  0  0
 41109  1  0  0  0
 41110  1  0  0  0
 41111  1  0  0  0
 41 48  1  0  0  0
 42 43  1  0  0  0
 42 66  1  0  0  0
 42112  1  0  0  0
 42113  1  0  0  0
 43 44  1  0  0  0
 44114  1  0  0  0
 45 46  2  0  0  0
 45115  1  0  0  0
 46116  1  0  0  0
 47117  1  0  0  0
 47118  1  0  0  0
 48 56  1  0  0  0
 48 65  1  0  0  0
 48119  1  0  0  0
 49 50  1  0  0  0
 49 53  1  0  0  0
 49 64  1  0  0  0
 49120  1  0  0  0
 50 51  1  0  0  0
 50121  1  0  0  0
 50122  1  0  0  0
 51 52  1  0  0  0
 51123  1  0  0  0
 51124  1  0  0  0
 52125  1  0  0  0
 52126  1  0  0  0
 53 54  1  0  0  0
 54 55  2  0  0  0
 54127  1  0  0  0
 55 57  1  0  0  0
 55128  1  0  0  0
 56 69  2  0  0  0
 57 58  2  0  0  0
 57129  1  0  0  0
 58130  1  0  0  0
 59 60  1  0  0  0
 59 61  1  0  0  0
 59 62  1  0  0  0
 60131  1  0  0  0
 60132  1  0  0  0
 60133  1  0  0  0
 61134  1  0  0  0
 61135  1  0  0  0
 61136  1  0  0  0
 62137  1  0  0  0
 62138  1  0  0  0
 62139  1  0  0  0
 63 65  1  0  0  0
 63140  1  0  0  0
 63141  1  0  0  0
 63142  1  0  0  0
 64143  1  0  0  0
 65144  1  0  0  0
 68 82  1  0  0  0
 71 72  2  0  0  0
 71 73  1  0  0  0
 71145  1  0  0  0
 72 75  1  0  0  0
 72 76  1  0  0  0
 73 74  2  0  0  0
 73 85  1  0  0  0
 74 84  1  0  0  0
 75 77  1  0  0  0
 75 84  2  0  0  0
 76146  1  0  0  0
 76147  1  0  0  0
 76 78  1  0  0  0
 77 78  1  0  0  0
 77148  1  0  0  0
 77149  1  0  0  0
 78 83  1  0  0  0
 78150  1  0  0  0
 79151  1  0  0  0
 79152  1  0  0  0
 79153  1  0  0  0
 79 83  1  0  0  0
 80 83  1  0  0  0
 80154  1  0  0  0
 80155  1  0  0  0
 80156  1  0  0  0
 81 85  1  0  0  0
 81157  1  0  0  0
 81158  1  0  0  0
 81159  1  0  0  0
 82 83  1  0  0  0
 82160  1  0  0  0
 82161  1  0  0  0
 85162  1  0  0  0
M  ISO  4   1 100  68 101  74 100  82 101
M  END
> <chiral flag>
0

> <version>
0

> <s_m_source_file>
/data/baiqing/PycharmProjects/Reinvent-master-3.2/result/LINK_invent/BTK/process_docking_weight1_custom_sum_contain_oxygen_bond_distance_aromatic_linkinvent_7_9_3/rearranged_h_0183.sdf

> <i_m_source_file_index>
51

> <r_mmod_Potential_Energy-OPLS-2005>
892.780822753906

> <r_mmod_Stretch_Energy-OPLS-2005>
332.429779052734

> <r_mmod_Bend_Energy-OPLS-2005>
370.393310546875

> <r_mmod_Torsional_Energy-OPLS-2005>
251.872207641602

> <r_mmod_Improper_Torsional_Energy-OPLS-2005>
11.2585592269897

> <r_mmod_Van_der_Waal_Energy-OPLS-2005>
133.721481323242

> <r_mmod_Electrostatic_Energy-OPLS-2005>
-232.818954467773

> <r_mmod_Solvation_Energy-OPLS-2005>
-209.307205200195

> <b_mmod_Minimization_Converged-OPLS-2005>
0

> <r_mmod_RMS_Derivative-OPLS-2005>
5.1076922416687

$$$$
52
                    3D
 Structure written by MMmdl.
149158  0  0  1  0            999 V2000
  -30.4871  -15.0939   20.4043 C   0  0  0  0  0  0
  -30.4475  -12.6856   19.5211 C   0  0  0  0  0  0
  -29.5307  -12.5474   18.2806 C   0  0  0  0  0  0
  -28.0733  -12.2991   18.7073 C   0  0  0  0  0  0
  -27.6276  -13.2549   19.8430 C   0  0  2  0  0  0
  -28.6666  -13.3444   20.9815 C   0  0  0  0  0  0
  -25.2465  -13.8225   20.5730 C   0  0  0  0  0  0
  -24.1785  -13.0447   20.9234 C   0  0  0  0  0  0
  -24.6410  -11.6932   20.8779 C   0  0  0  0  0  0
  -23.9095  -10.4298   21.0424 C   0  0  0  0  0  0
  -24.3637   -9.4211   21.9198 C   0  0  0  0  0  0
  -23.6301   -8.2252   22.0769 C   0  0  0  0  0  0
  -22.4286   -8.0296   21.3553 C   0  0  0  0  0  0
  -21.9930   -9.0277   20.4659 C   0  0  0  0  0  0
  -22.7271  -10.2146   20.3072 C   0  0  0  0  0  0
  -21.6856   -6.0745   22.5279 C   0  0  0  0  0  0
  -21.4019   -6.5647   23.8212 C   0  0  0  0  0  0
  -21.3650   -5.6799   24.9170 C   0  0  0  0  0  0
  -21.6038   -4.3063   24.7222 C   0  0  0  0  0  0
  -21.8818   -3.8154   23.4343 C   0  0  0  0  0  0
  -21.9194   -4.6971   22.3400 C   0  0  0  0  0  0
  -22.7803  -13.5224   21.1856 C   0  0  0  0  0  0
  -22.1663   -4.2158   21.0976 F   0  0  0  0  0  0
  -21.5616   -3.4544   25.7733 F   0  0  0  0  0  0
  -29.9224  -13.8038   20.3728 N   0  0  0  0  0  0
  -26.2895  -12.9460   20.3294 N   0  0  0  0  0  0
  -25.9350  -11.6587   20.5795 N   0  0  0  0  0  0
  -22.0446  -12.8231   22.0410 N   0  0  0  0  0  0
  -25.4129  -15.1949   20.4105 N   0  0  0  0  0  0
  -31.6924  -15.1459   20.1299 O   0  0  0  0  0  0
  -21.6647   -6.8898   21.4245 O   0  0  0  0  0  0
  -22.3498  -14.5523   20.6679 O   0  0  0  0  0  0
  -24.6526  -31.8342   23.1798 C   0  0  0  0  0  0
  -25.9261  -32.4622   23.8212 C   0  0  1  0  0  0
  -27.2135  -27.0265   20.1694 C   0  0  0  0  0  0
  -25.5982  -33.8433   24.2148 N   0  0  0  0  0  0
  -23.4614  -30.4497   21.5295 C   0  0  2  0  0  0
  -24.9135  -28.8605   20.1079 C   0  0  0  0  0  0
  -22.7623  -29.4486   22.4848 C   0  0  0  0  0  0
  -18.0331  -28.1385   22.8477 C   0  0  0  0  0  0
  -24.1501  -36.7214   23.2653 C   0  0  0  0  0  0
  -26.0257  -30.6699   21.4001 C   0  0  0  0  0  0
  -26.0943  -29.2725   20.7391 C   0  0  0  0  0  0
  -27.2397  -28.3731   20.7540 C   0  0  0  0  0  0
  -26.0090  -26.7507   19.4817 C   0  0  0  0  0  0
  -24.8908  -27.6157   19.4613 C   0  0  0  0  0  0
  -23.6932  -29.7733   20.1518 C   0  0  0  0  0  0
  -25.4123  -36.2985   24.0337 C   0  0  1  0  0  0
  -20.5949  -28.3709   23.1232 C   0  0  2  0  0  0
  -20.6824  -26.9411   22.5414 C   0  0  0  0  0  0
  -19.5783  -26.6370   21.5237 C   0  0  0  0  0  0
  -18.1962  -26.7920   22.1635 C   0  0  0  0  0  0
  -19.1586  -28.8869   23.2833 C   0  0  0  0  0  0
  -18.9497  -30.1471   23.8846 C   0  0  0  0  0  0
  -17.6491  -30.6579   24.0546 C   0  0  0  0  0  0
  -25.9084  -34.9366   23.5055 C   0  0  0  0  0  0
  -16.5384  -29.9053   23.6359 C   0  0  0  0  0  0
  -16.7314  -28.6483   23.0360 C   0  0  0  0  0  0
  -26.4547  -31.6518   25.0691 C   0  0  0  0  0  0
  -25.3704  -31.3740   26.1370 C   0  0  0  0  0  0
  -27.0462  -30.2899   24.6364 C   0  0  0  0  0  0
  -27.6052  -32.4328   25.7462 C   0  0  0  0  0  0
  -27.5579  -37.1755   24.8476 C   0  0  0  0  0  0
  -21.4313  -29.3010   22.3587 N   0  0  0  0  0  0
  -26.4278  -37.3709   23.9436 N   0  0  0  0  0  0
  -24.7336  -31.0079   22.0903 N   0  0  0  0  0  0
  -23.4227  -28.8071   23.3061 O   0  0  0  0  0  0
  -28.2165  -25.9563   20.2721 O   0  0  0  0  0  0
  -26.5670  -34.8886   22.4633 O   0  0  0  0  0  0
  -23.5623  -32.1287   23.6943 O   0  0  0  0  0  0
  -29.4775  -22.7506   21.5282 C   0  0  0  0  0  0
  -29.7285  -20.3875   21.2517 C   0  0  0  0  0  0
  -28.9660  -20.4602   20.1042 C   0  0  0  0  0  0
  -28.6662  -22.9449   20.3596 C   0  0  0  0  0  0
  -30.1479  -18.9017   21.6149 C   0  0  0  0  0  0
  -28.8420  -18.9429   19.5738 C   0  0  0  0  0  0
  -29.8845  -17.9185   20.3669 C   0  0  2  0  0  0
  -27.8895  -24.4142   19.9692 C   0  0  0  0  0  0
  -29.9917  -21.5310   21.9638 N   0  0  0  0  0  0
  -28.4282  -21.7122   19.6577 N   0  0  0  0  0  0
  -29.6924  -16.3021   20.5436 N   0  0  0  0  0  0
  -31.4736  -12.8689   19.1989 H   0  0  0  0  0  0
  -30.4807  -11.7529   20.0867 H   0  0  0  0  0  0
  -29.8782  -11.7367   17.6390 H   0  0  0  0  0  0
  -29.5848  -13.4589   17.6844 H   0  0  0  0  0  0
  -28.0057  -11.2667   19.0532 H   0  0  0  0  0  0
  -27.4016  -12.3787   17.8515 H   0  0  0  0  0  0
  -27.5755  -14.2419   19.3831 H   0  0  0  0  0  0
  -28.7929  -12.3835   21.4827 H   0  0  0  0  0  0
  -28.3417  -14.0513   21.7464 H   0  0  0  0  0  0
  -25.2782   -9.5674   22.4776 H   0  0  0  0  0  0
  -23.9996   -7.4649   22.7502 H   0  0  0  0  0  0
  -21.0852   -8.8816   19.8973 H   0  0  0  0  0  0
  -22.3744  -10.9693   19.6182 H   0  0  0  0  0  0
  -21.2026   -7.6157   23.9717 H   0  0  0  0  0  0
  -21.1460   -6.0528   25.9069 H   0  0  0  0  0  0
  -22.0603   -2.7619   23.2843 H   0  0  0  0  0  0
  -22.4069  -11.9907   22.4822 H   0  0  0  0  0  0
  -21.1068  -13.1268   22.2605 H   0  0  0  0  0  0
  -24.6400  -15.8445   20.5092 H   0  0  0  0  0  0
  -26.2460  -15.6291   20.0360 H   0  0  0  0  0  0
  -26.7313  -32.5198   23.0918 H   0  0  0  0  0  0
  -25.0137  -33.9536   25.0301 H   0  0  0  0  0  0
  -22.7666  -31.2776   21.3682 H   0  0  0  0  0  0
  -23.3793  -35.9515   23.3269 H   0  0  0  0  0  0
  -24.3607  -36.8877   22.2076 H   0  0  0  0  0  0
  -23.7228  -37.6389   23.6707 H   0  0  0  0  0  0
  -26.2002  -31.4222   20.6301 H   0  0  0  0  0  0
  -26.8890  -30.7158   22.0521 H   0  0  0  0  0  0
  -28.1286  -28.6805   21.2877 H   0  0  0  0  0  0
  -25.8856  -25.8038   18.9782 H   0  0  0  0  0  0
  -23.9928  -27.2930   18.9520 H   0  0  0  0  0  0
  -23.8314  -30.5475   19.3965 H   0  0  0  0  0  0
  -22.8058  -29.2185   19.8405 H   0  0  0  0  0  0
  -25.1306  -36.1800   25.0828 H   0  0  0  0  0  0
  -21.0026  -28.3313   24.1356 H   0  0  0  0  0  0
  -20.5782  -26.2314   23.3640 H   0  0  0  0  0  0
  -21.6673  -26.7442   22.1168 H   0  0  0  0  0  0
  -19.6956  -25.6278   21.1272 H   0  0  0  0  0  0
  -19.6722  -27.3181   20.6771 H   0  0  0  0  0  0
  -17.4251  -26.6707   21.4016 H   0  0  0  0  0  0
  -18.0304  -26.0046   22.9014 H   0  0  0  0  0  0
  -19.7967  -30.7311   24.2173 H   0  0  0  0  0  0
  -17.5033  -31.6259   24.5141 H   0  0  0  0  0  0
  -15.5370  -30.2923   23.7707 H   0  0  0  0  0  0
  -15.8726  -28.0782   22.7084 H   0  0  0  0  0  0
  -24.5901  -30.7065   25.7695 H   0  0  0  0  0  0
  -24.8873  -32.2931   26.4687 H   0  0  0  0  0  0
  -25.7959  -30.8987   27.0215 H   0  0  0  0  0  0
  -26.3130  -29.6562   24.1358 H   0  0  0  0  0  0
  -27.4043  -29.7245   25.4983 H   0  0  0  0  0  0
  -27.9035  -30.4128   23.9740 H   0  0  0  0  0  0
  -27.2632  -33.3693   26.1877 H   0  0  0  0  0  0
  -28.3903  -32.6787   25.0299 H   0  0  0  0  0  0
  -28.0661  -31.8564   26.5495 H   0  0  0  0  0  0
  -28.2554  -38.0083   24.7541 H   0  0  0  0  0  0
  -28.1117  -36.2624   24.6271 H   0  0  0  0  0  0
  -27.2317  -37.1340   25.8878 H   0  0  0  0  0  0
  -20.9564  -29.8645   21.6671 H   0  0  0  0  0  0
  -26.0150  -38.2780   24.1429 H   0  0  0  0  0  0
  -29.6933  -23.5971   22.1638 H   0  0  0  0  0  0
  -29.5397  -18.5900   22.4649 H   0  0  0  0  0  0
  -31.1890  -18.8642   21.9356 H   0  0  0  0  0  0
  -29.0117  -18.9065   18.4974 H   0  0  0  0  0  0
  -27.8141  -18.6228   19.7468 H   0  0  0  0  0  0
  -30.8052  -17.9887   19.7866 H   0  0  0  0  0  0
  -26.8853  -24.2577   20.3634 H   0  0  0  0  0  0
  -27.7759  -24.3726   18.8863 H   0  0  0  0  0  0
  -28.7392  -16.0642   20.7742 H   0  0  0  0  0  0
  1 25  1  0  0  0
  1 30  2  0  0  0
  1 81  1  0  0  0
  2  3  1  0  0  0
  2 25  1  0  0  0
  2 82  1  0  0  0
  2 83  1  0  0  0
  3  4  1  0  0  0
  3 84  1  0  0  0
  3 85  1  0  0  0
  4  5  1  0  0  0
  4 86  1  0  0  0
  4 87  1  0  0  0
  5  6  1  0  0  0
  5 26  1  0  0  0
  5 88  1  0  0  0
  6 25  1  0  0  0
  6 89  1  0  0  0
  6 90  1  0  0  0
  7  8  2  0  0  0
  7 26  1  0  0  0
  7 29  1  0  0  0
  8  9  1  0  0  0
  8 22  1  0  0  0
  9 10  1  0  0  0
  9 27  2  0  0  0
 10 11  2  0  0  0
 10 15  1  0  0  0
 11 12  1  0  0  0
 11 91  1  0  0  0
 12 13  2  0  0  0
 12 92  1  0  0  0
 13 14  1  0  0  0
 13 31  1  0  0  0
 14 15  2  0  0  0
 14 93  1  0  0  0
 15 94  1  0  0  0
 16 17  2  0  0  0
 16 21  1  0  0  0
 16 31  1  0  0  0
 17 18  1  0  0  0
 17 95  1  0  0  0
 18 19  2  0  0  0
 18 96  1  0  0  0
 19 20  1  0  0  0
 19 24  1  0  0  0
 20 21  2  0  0  0
 20 97  1  0  0  0
 21 23  1  0  0  0
 22 28  1  0  0  0
 22 32  2  0  0  0
 26 27  1  0  0  0
 28 98  1  0  0  0
 28 99  1  0  0  0
 29100  1  0  0  0
 29101  1  0  0  0
 33 34  1  0  0  0
 33 66  1  0  0  0
 33 70  2  0  0  0
 34 36  1  0  0  0
 34 59  1  0  0  0
 34102  1  0  0  0
 35 44  2  0  0  0
 35 45  1  0  0  0
 35 68  1  0  0  0
 36 56  1  0  0  0
 36103  1  0  0  0
 37 39  1  0  0  0
 37 47  1  0  0  0
 37 66  1  0  0  0
 37104  1  0  0  0
 38 43  2  0  0  0
 38 46  1  0  0  0
 38 47  1  0  0  0
 39 64  1  0  0  0
 39 67  2  0  0  0
 40 52  1  0  0  0
 40 53  2  0  0  0
 40 58  1  0  0  0
 41105  1  0  0  0
 41106  1  0  0  0
 41107  1  0  0  0
 41 48  1  0  0  0
 42 43  1  0  0  0
 42 66  1  0  0  0
 42108  1  0  0  0
 42109  1  0  0  0
 43 44  1  0  0  0
 44110  1  0  0  0
 45 46  2  0  0  0
 45111  1  0  0  0
 46112  1  0  0  0
 47113  1  0  0  0
 47114  1  0  0  0
 48 56  1  0  0  0
 48 65  1  0  0  0
 48115  1  0  0  0
 49 50  1  0  0  0
 49 53  1  0  0  0
 49 64  1  0  0  0
 49116  1  0  0  0
 50 51  1  0  0  0
 50117  1  0  0  0
 50118  1  0  0  0
 51 52  1  0  0  0
 51119  1  0  0  0
 51120  1  0  0  0
 52121  1  0  0  0
 52122  1  0  0  0
 53 54  1  0  0  0
 54 55  2  0  0  0
 54123  1  0  0  0
 55 57  1  0  0  0
 55124  1  0  0  0
 56 69  2  0  0  0
 57 58  2  0  0  0
 57125  1  0  0  0
 58126  1  0  0  0
 59 60  1  0  0  0
 59 61  1  0  0  0
 59 62  1  0  0  0
 60127  1  0  0  0
 60128  1  0  0  0
 60129  1  0  0  0
 61130  1  0  0  0
 61131  1  0  0  0
 61132  1  0  0  0
 62133  1  0  0  0
 62134  1  0  0  0
 62135  1  0  0  0
 63 65  1  0  0  0
 63136  1  0  0  0
 63137  1  0  0  0
 63138  1  0  0  0
 64139  1  0  0  0
 65140  1  0  0  0
 68 78  1  0  0  0
 71 74  2  0  0  0
 71 79  1  0  0  0
 71141  1  0  0  0
 72 73  1  0  0  0
 72 75  1  0  0  0
 72 79  2  0  0  0
 73 76  1  0  0  0
 73 80  2  0  0  0
 74 78  1  0  0  0
 74 80  1  0  0  0
 75 77  1  0  0  0
 75142  1  0  0  0
 75143  1  0  0  0
 76 77  1  0  0  0
 76144  1  0  0  0
 76145  1  0  0  0
 77 81  1  0  0  0
 77146  1  0  0  0
 78147  1  0  0  0
 78148  1  0  0  0
 81149  1  0  0  0
M  ISO  4   1 100  68 101  78 101  81 100
M  END
> <chiral flag>
0

> <version>
0

> <s_m_source_file>
/data/baiqing/PycharmProjects/Reinvent-master-3.2/result/LINK_invent/BTK/process_docking_weight1_custom_sum_contain_oxygen_bond_distance_aromatic_linkinvent_7_9_3/rearranged_h_0183.sdf

> <i_m_source_file_index>
52

> <r_mmod_Potential_Energy-OPLS-2005>
875.437072753906

> <r_mmod_Stretch_Energy-OPLS-2005>
364.050720214844

> <r_mmod_Bend_Energy-OPLS-2005>
372.481842041016

> <r_mmod_Torsional_Energy-OPLS-2005>
211.558135986328

> <r_mmod_Improper_Torsional_Energy-OPLS-2005>
5.20192289352417

> <r_mmod_Van_der_Waal_Energy-OPLS-2005>
126.831390380859

> <r_mmod_Electrostatic_Energy-OPLS-2005>
-277.447296142578

> <r_mmod_Solvation_Energy-OPLS-2005>
-238.787399291992

> <b_mmod_Minimization_Converged-OPLS-2005>
0

> <r_mmod_RMS_Derivative-OPLS-2005>
1.87169396877289

$$$$
53
                    3D
 Structure written by MMmdl.
156165  0  0  1  0            999 V2000
  -30.5102  -15.1316   20.4068 C   0  0  0  0  0  0
  -30.4370  -12.7168   19.5249 C   0  0  0  0  0  0
  -29.5372  -12.5662   18.2763 C   0  0  0  0  0  0
  -28.0733  -12.3265   18.6879 C   0  0  0  0  0  0
  -27.6249  -13.2714   19.8343 C   0  0  2  0  0  0
  -28.6630  -13.3658   20.9723 C   0  0  0  0  0  0
  -25.2421  -13.8285   20.5691 C   0  0  0  0  0  0
  -24.1758  -13.0491   20.9220 C   0  0  0  0  0  0
  -24.6416  -11.6979   20.8761 C   0  0  0  0  0  0
  -23.9114  -10.4327   21.0414 C   0  0  0  0  0  0
  -24.3670   -9.4236   21.9180 C   0  0  0  0  0  0
  -23.6340   -8.2274   22.0773 C   0  0  0  0  0  0
  -22.4310   -8.0319   21.3563 C   0  0  0  0  0  0
  -21.9940   -9.0301   20.4667 C   0  0  0  0  0  0
  -22.7293  -10.2168   20.3059 C   0  0  0  0  0  0
  -21.6858   -6.0756   22.5265 C   0  0  0  0  0  0
  -21.4028   -6.5653   23.8208 C   0  0  0  0  0  0
  -21.3668   -5.6785   24.9157 C   0  0  0  0  0  0
  -21.6043   -4.3058   24.7197 C   0  0  0  0  0  0
  -21.8830   -3.8163   23.4311 C   0  0  0  0  0  0
  -21.9198   -4.6982   22.3371 C   0  0  0  0  0  0
  -22.7765  -13.5251   21.1844 C   0  0  0  0  0  0
  -22.1648   -4.2177   21.0954 F   0  0  0  0  0  0
  -21.5628   -3.4536   25.7705 F   0  0  0  0  0  0
  -29.9069  -13.8515   20.3589 N   0  0  0  0  0  0
  -26.2874  -12.9551   20.3249 N   0  0  0  0  0  0
  -25.9371  -11.6667   20.5770 N   0  0  0  0  0  0
  -22.0391  -12.8260   22.0389 N   0  0  0  0  0  0
  -25.4044  -15.2006   20.4034 N   0  0  0  0  0  0
  -31.7119  -15.1148   20.1072 O   0  0  0  0  0  0
  -21.6667   -6.8916   21.4244 O   0  0  0  0  0  0
  -22.3442  -14.5551   20.6679 O   0  0  0  0  0  0
  -24.6520  -31.8339   23.1807 C   0  0  0  0  0  0
  -25.9238  -32.4651   23.8234 C   0  0  1  0  0  0
  -27.2169  -27.0225   20.1784 C   0  0  0  0  0  0
  -25.5954  -33.8456   24.2142 N   0  0  0  0  0  0
  -23.4624  -30.4488   21.5285 C   0  0  2  0  0  0
  -24.9141  -28.8525   20.1156 C   0  0  0  0  0  0
  -22.7610  -29.4495   22.4839 C   0  0  0  0  0  0
  -18.0290  -28.1406   22.8472 C   0  0  0  0  0  0
  -24.1486  -36.7235   23.2650 C   0  0  0  0  0  0
  -26.0239  -30.6723   21.3956 C   0  0  0  0  0  0
  -26.0929  -29.2680   20.7463 C   0  0  0  0  0  0
  -27.2406  -28.3706   20.7603 C   0  0  0  0  0  0
  -26.0158  -26.7385   19.4966 C   0  0  0  0  0  0
  -24.8927  -27.6027   19.4745 C   0  0  0  0  0  0
  -23.6955  -29.7703   20.1520 C   0  0  0  0  0  0
  -25.4127  -36.3010   24.0310 C   0  0  1  0  0  0
  -20.5916  -28.3744   23.1226 C   0  0  2  0  0  0
  -20.6792  -26.9437   22.5425 C   0  0  0  0  0  0
  -19.5769  -26.6384   21.5233 C   0  0  0  0  0  0
  -18.1942  -26.7944   22.1635 C   0  0  0  0  0  0
  -19.1558  -28.8902   23.2843 C   0  0  0  0  0  0
  -18.9472  -30.1487   23.8862 C   0  0  0  0  0  0
  -17.6474  -30.6605   24.0559 C   0  0  0  0  0  0
  -25.9080  -34.9386   23.5053 C   0  0  0  0  0  0
  -16.5361  -29.9091   23.6350 C   0  0  0  0  0  0
  -16.7283  -28.6520   23.0357 C   0  0  0  0  0  0
  -26.4513  -31.6545   25.0709 C   0  0  0  0  0  0
  -25.3665  -31.3771   26.1391 C   0  0  0  0  0  0
  -27.0400  -30.2931   24.6378 C   0  0  0  0  0  0
  -27.6039  -32.4315   25.7489 C   0  0  0  0  0  0
  -27.5571  -37.1781   24.8469 C   0  0  0  0  0  0
  -21.4283  -29.3041   22.3585 N   0  0  0  0  0  0
  -26.4292  -37.3729   23.9395 N   0  0  0  0  0  0
  -24.7333  -31.0095   22.0899 N   0  0  0  0  0  0
  -23.4203  -28.8053   23.3034 O   0  0  0  0  0  0
  -28.2638  -25.9926   20.1713 O   0  0  0  0  0  0
  -26.5705  -34.8891   22.4647 O   0  0  0  0  0  0
  -23.5615  -32.1267   23.6970 O   0  0  0  0  0  0
  -27.2326  -23.7329   21.1227 C   0  0  0  0  0  0
  -28.1498  -24.5249   20.3426 C   0  0  0  0  0  0
  -28.2879  -18.3744   21.1691 C   0  0  0  0  0  0
  -28.7582  -16.8644   21.4145 C   0  0  0  0  0  0
  -30.1502  -17.8566   19.8778 C   0  0  0  0  0  0
  -29.4302  -19.2225   20.5640 C   0  0  1  0  0  0
  -26.0832  -24.2736   21.9184 C   0  0  0  0  0  0
  -30.3342  -21.0285   18.8671 C   0  0  0  0  0  0
  -29.1209  -20.7675   19.7757 C   0  0  2  0  0  0
  -27.4932  -22.4144   21.0900 N   0  0  0  0  0  0
  -29.0032  -23.5622   19.8566 N   0  0  0  0  0  0
  -28.6160  -22.2355   20.3237 N   0  0  0  0  0  0
  -29.8032  -16.4257   20.4573 N   0  0  0  0  0  0
  -31.4699  -12.8758   19.2135 H   0  0  0  0  0  0
  -30.4551  -11.7929   20.1026 H   0  0  0  0  0  0
  -29.8949  -11.7507   17.6442 H   0  0  0  0  0  0
  -29.6025  -13.4705   17.6702 H   0  0  0  0  0  0
  -27.9905  -11.2900   19.0109 H   0  0  0  0  0  0
  -27.4135  -12.4307   17.8252 H   0  0  0  0  0  0
  -27.5710  -14.2612   19.3804 H   0  0  0  0  0  0
  -28.7969  -12.4014   21.4657 H   0  0  0  0  0  0
  -28.3324  -14.0556   21.7481 H   0  0  0  0  0  0
  -25.2830   -9.5723   22.4739 H   0  0  0  0  0  0
  -24.0046   -7.4680   22.7517 H   0  0  0  0  0  0
  -21.0848   -8.8883   19.8965 H   0  0  0  0  0  0
  -22.3803  -10.9727   19.6160 H   0  0  0  0  0  0
  -21.2033   -7.6157   23.9727 H   0  0  0  0  0  0
  -21.1463   -6.0496   25.9062 H   0  0  0  0  0  0
  -22.0600   -2.7627   23.2791 H   0  0  0  0  0  0
  -22.3994  -11.9969   22.4862 H   0  0  0  0  0  0
  -21.1021  -13.1331   22.2571 H   0  0  0  0  0  0
  -24.6346  -15.8546   20.5045 H   0  0  0  0  0  0
  -26.2453  -15.6370   20.0506 H   0  0  0  0  0  0
  -26.7315  -32.5215   23.0963 H   0  0  0  0  0  0
  -25.0001  -33.9544   25.0236 H   0  0  0  0  0  0
  -22.7711  -31.2789   21.3681 H   0  0  0  0  0  0
  -23.3759  -35.9560   23.3311 H   0  0  0  0  0  0
  -24.3581  -36.8880   22.2075 H   0  0  0  0  0  0
  -23.7239  -37.6422   23.6697 H   0  0  0  0  0  0
  -26.1911  -31.4186   20.6168 H   0  0  0  0  0  0
  -26.8904  -30.7299   22.0444 H   0  0  0  0  0  0
  -28.1396  -28.6932   21.2659 H   0  0  0  0  0  0
  -25.9239  -25.7840   18.9980 H   0  0  0  0  0  0
  -23.9953  -27.2808   18.9661 H   0  0  0  0  0  0
  -23.8396  -30.5428   19.3941 H   0  0  0  0  0  0
  -22.8059  -29.2187   19.8422 H   0  0  0  0  0  0
  -25.1322  -36.1835   25.0808 H   0  0  0  0  0  0
  -21.0000  -28.3334   24.1352 H   0  0  0  0  0  0
  -20.5717  -26.2337   23.3639 H   0  0  0  0  0  0
  -21.6653  -26.7454   22.1209 H   0  0  0  0  0  0
  -19.6936  -25.6288   21.1279 H   0  0  0  0  0  0
  -19.6710  -27.3181   20.6751 H   0  0  0  0  0  0
  -17.4214  -26.6681   21.4026 H   0  0  0  0  0  0
  -18.0327  -26.0100   22.9049 H   0  0  0  0  0  0
  -19.7944  -30.7327   24.2209 H   0  0  0  0  0  0
  -17.5018  -31.6279   24.5169 H   0  0  0  0  0  0
  -15.5363  -30.2993   23.7697 H   0  0  0  0  0  0
  -15.8669  -28.0846   22.7079 H   0  0  0  0  0  0
  -24.5819  -30.7160   25.7686 H   0  0  0  0  0  0
  -24.8886  -32.2971   26.4765 H   0  0  0  0  0  0
  -25.7904  -30.8944   27.0211 H   0  0  0  0  0  0
  -26.3055  -29.6624   24.1366 H   0  0  0  0  0  0
  -27.3951  -29.7261   25.4995 H   0  0  0  0  0  0
  -27.8977  -30.4141   23.9762 H   0  0  0  0  0  0
  -27.2641  -33.3640   26.2006 H   0  0  0  0  0  0
  -28.3871  -32.6841   25.0324 H   0  0  0  0  0  0
  -28.0690  -31.8485   26.5454 H   0  0  0  0  0  0
  -28.2598  -38.0067   24.7501 H   0  0  0  0  0  0
  -28.1051  -36.2597   24.6306 H   0  0  0  0  0  0
  -27.2290  -37.1456   25.8874 H   0  0  0  0  0  0
  -20.9506  -29.8701   21.6711 H   0  0  0  0  0  0
  -26.0150  -38.2798   24.1378 H   0  0  0  0  0  0
  -27.9189  -18.8258   22.0926 H   0  0  0  0  0  0
  -27.4506  -18.3697   20.4683 H   0  0  0  0  0  0
  -27.8971  -16.2029   21.3886 H   0  0  0  0  0  0
  -29.1858  -16.7808   22.4152 H   0  0  0  0  0  0
  -31.2344  -17.9771   19.8822 H   0  0  0  0  0  0
  -29.8679  -17.8297   18.8254 H   0  0  0  0  0  0
  -30.0829  -19.4829   21.3994 H   0  0  0  0  0  0
  -25.3193  -24.6946   21.2647 H   0  0  0  0  0  0
  -26.4072  -25.0671   22.5933 H   0  0  0  0  0  0
  -25.6045  -23.5028   22.5246 H   0  0  0  0  0  0
  -30.6185  -20.1356   18.3124 H   0  0  0  0  0  0
  -31.1963  -21.3539   19.4502 H   0  0  0  0  0  0
  -30.1111  -21.7992   18.1275 H   0  0  0  0  0  0
  -28.3199  -20.5024   19.0837 H   0  0  0  0  0  0
  1 25  1  0  0  0
  1 30  2  0  0  0
  1 83  1  0  0  0
  2  3  1  0  0  0
  2 25  1  0  0  0
  2 84  1  0  0  0
  2 85  1  0  0  0
  3  4  1  0  0  0
  3 86  1  0  0  0
  3 87  1  0  0  0
  4  5  1  0  0  0
  4 88  1  0  0  0
  4 89  1  0  0  0
  5  6  1  0  0  0
  5 26  1  0  0  0
  5 90  1  0  0  0
  6 25  1  0  0  0
  6 91  1  0  0  0
  6 92  1  0  0  0
  7  8  2  0  0  0
  7 26  1  0  0  0
  7 29  1  0  0  0
  8  9  1  0  0  0
  8 22  1  0  0  0
  9 10  1  0  0  0
  9 27  2  0  0  0
 10 11  2  0  0  0
 10 15  1  0  0  0
 11 12  1  0  0  0
 11 93  1  0  0  0
 12 13  2  0  0  0
 12 94  1  0  0  0
 13 14  1  0  0  0
 13 31  1  0  0  0
 14 15  2  0  0  0
 14 95  1  0  0  0
 15 96  1  0  0  0
 16 17  2  0  0  0
 16 21  1  0  0  0
 16 31  1  0  0  0
 17 18  1  0  0  0
 17 97  1  0  0  0
 18 19  2  0  0  0
 18 98  1  0  0  0
 19 20  1  0  0  0
 19 24  1  0  0  0
 20 21  2  0  0  0
 20 99  1  0  0  0
 21 23  1  0  0  0
 22 28  1  0  0  0
 22 32  2  0  0  0
 26 27  1  0  0  0
 28100  1  0  0  0
 28101  1  0  0  0
 29102  1  0  0  0
 29103  1  0  0  0
 33 34  1  0  0  0
 33 66  1  0  0  0
 33 70  2  0  0  0
 34 36  1  0  0  0
 34 59  1  0  0  0
 34104  1  0  0  0
 35 44  2  0  0  0
 35 45  1  0  0  0
 35 68  1  0  0  0
 36 56  1  0  0  0
 36105  1  0  0  0
 37 39  1  0  0  0
 37 47  1  0  0  0
 37 66  1  0  0  0
 37106  1  0  0  0
 38 43  2  0  0  0
 38 46  1  0  0  0
 38 47  1  0  0  0
 39 64  1  0  0  0
 39 67  2  0  0  0
 40 52  1  0  0  0
 40 53  2  0  0  0
 40 58  1  0  0  0
 41107  1  0  0  0
 41108  1  0  0  0
 41109  1  0  0  0
 41 48  1  0  0  0
 42 43  1  0  0  0
 42 66  1  0  0  0
 42110  1  0  0  0
 42111  1  0  0  0
 43 44  1  0  0  0
 44112  1  0  0  0
 45 46  2  0  0  0
 45113  1  0  0  0
 46114  1  0  0  0
 47115  1  0  0  0
 47116  1  0  0  0
 48 56  1  0  0  0
 48 65  1  0  0  0
 48117  1  0  0  0
 49 50  1  0  0  0
 49 53  1  0  0  0
 49 64  1  0  0  0
 49118  1  0  0  0
 50 51  1  0  0  0
 50119  1  0  0  0
 50120  1  0  0  0
 51 52  1  0  0  0
 51121  1  0  0  0
 51122  1  0  0  0
 52123  1  0  0  0
 52124  1  0  0  0
 53 54  1  0  0  0
 54 55  2  0  0  0
 54125  1  0  0  0
 55 57  1  0  0  0
 55126  1  0  0  0
 56 69  2  0  0  0
 57 58  2  0  0  0
 57127  1  0  0  0
 58128  1  0  0  0
 59 60  1  0  0  0
 59 61  1  0  0  0
 59 62  1  0  0  0
 60129  1  0  0  0
 60130  1  0  0  0
 60131  1  0  0  0
 61132  1  0  0  0
 61133  1  0  0  0
 61134  1  0  0  0
 62135  1  0  0  0
 62136  1  0  0  0
 62137  1  0  0  0
 63 65  1  0  0  0
 63138  1  0  0  0
 63139  1  0  0  0
 63140  1  0  0  0
 64141  1  0  0  0
 65142  1  0  0  0
 68 72  1  0  0  0
 71 72  1  0  0  0
 71 77  1  0  0  0
 71 80  2  0  0  0
 72 81  2  0  0  0
 73 74  1  0  0  0
 73143  1  0  0  0
 73144  1  0  0  0
 73 76  1  0  0  0
 74 83  1  0  0  0
 74145  1  0  0  0
 74146  1  0  0  0
 75 76  1  0  0  0
 75 83  1  0  0  0
 75147  1  0  0  0
 75148  1  0  0  0
 76 79  1  0  0  0
 76149  1  0  0  0
 77150  1  0  0  0
 77151  1  0  0  0
 77152  1  0  0  0
 78153  1  0  0  0
 78154  1  0  0  0
 78155  1  0  0  0
 78 79  1  0  0  0
 79 82  1  0  0  0
 79156  1  0  0  0
 80 82  1  0  0  0
 81 82  1  0  0  0
M  ISO  4   1 100  68 101  72 101  83 100
M  END
> <chiral flag>
0

> <version>
0

> <s_m_source_file>
/data/baiqing/PycharmProjects/Reinvent-master-3.2/result/LINK_invent/BTK/process_docking_weight1_custom_sum_contain_oxygen_bond_distance_aromatic_linkinvent_7_9_3/rearranged_h_0183.sdf

> <i_m_source_file_index>
53

> <r_mmod_Potential_Energy-OPLS-2005>
1040.85595703125

> <r_mmod_Stretch_Energy-OPLS-2005>
377.878936767578

> <r_mmod_Bend_Energy-OPLS-2005>
388.749450683594

> <r_mmod_Torsional_Energy-OPLS-2005>
336.363891601562

> <r_mmod_Improper_Torsional_Energy-OPLS-2005>
11.5783166885376

> <r_mmod_Van_der_Waal_Energy-OPLS-2005>
96.2610321044922

> <r_mmod_Electrostatic_Energy-OPLS-2005>
-278.614929199219

> <r_mmod_Solvation_Energy-OPLS-2005>
-204.718154907227

> <b_mmod_Minimization_Converged-OPLS-2005>
0

> <r_mmod_RMS_Derivative-OPLS-2005>
3.46159529685974

$$$$
54
                    3D
 Structure written by MMmdl.
152161  0  0  1  0            999 V2000
  -30.5040  -15.0089   20.4151 C   0  0  0  0  0  0
  -30.4467  -12.6315   19.5078 C   0  0  0  0  0  0
  -29.5316  -12.5437   18.2617 C   0  0  0  0  0  0
  -28.0655  -12.3166   18.6791 C   0  0  0  0  0  0
  -27.6307  -13.2511   19.8371 C   0  0  2  0  0  0
  -28.6679  -13.3025   20.9796 C   0  0  0  0  0  0
  -25.2493  -13.8230   20.5707 C   0  0  0  0  0  0
  -24.1812  -13.0446   20.9219 C   0  0  0  0  0  0
  -24.6429  -11.6932   20.8758 C   0  0  0  0  0  0
  -23.9127  -10.4301   21.0413 C   0  0  0  0  0  0
  -24.3663   -9.4214   21.9199 C   0  0  0  0  0  0
  -23.6319   -8.2264   22.0772 C   0  0  0  0  0  0
  -22.4290   -8.0310   21.3572 C   0  0  0  0  0  0
  -21.9940   -9.0288   20.4674 C   0  0  0  0  0  0
  -22.7291  -10.2149   20.3074 C   0  0  0  0  0  0
  -21.6855   -6.0755   22.5285 C   0  0  0  0  0  0
  -21.4026   -6.5653   23.8222 C   0  0  0  0  0  0
  -21.3648   -5.6796   24.9181 C   0  0  0  0  0  0
  -21.6034   -4.3064   24.7212 C   0  0  0  0  0  0
  -21.8818   -3.8164   23.4331 C   0  0  0  0  0  0
  -21.9194   -4.6989   22.3391 C   0  0  0  0  0  0
  -22.7833  -13.5225   21.1861 C   0  0  0  0  0  0
  -22.1666   -4.2177   21.0963 F   0  0  0  0  0  0
  -21.5616   -3.4547   25.7729 F   0  0  0  0  0  0
  -29.9365  -13.7309   20.3822 N   0  0  0  0  0  0
  -26.2901  -12.9462   20.3217 N   0  0  0  0  0  0
  -25.9351  -11.6589   20.5715 N   0  0  0  0  0  0
  -22.0459  -12.8232   22.0404 N   0  0  0  0  0  0
  -25.4170  -15.1961   20.4130 N   0  0  0  0  0  0
  -31.7045  -15.0814   20.1233 O   0  0  0  0  0  0
  -21.6651   -6.8910   21.4249 O   0  0  0  0  0  0
  -22.3529  -14.5523   20.6695 O   0  0  0  0  0  0
  -24.6452  -31.8422   23.1900 C   0  0  0  0  0  0
  -25.9222  -32.4680   23.8287 C   0  0  1  0  0  0
  -27.1961  -27.1038   20.1614 C   0  0  0  0  0  0
  -25.5975  -33.8493   24.2194 N   0  0  0  0  0  0
  -23.4490  -30.4616   21.5380 C   0  0  2  0  0  0
  -24.8957  -28.8891   20.1103 C   0  0  0  0  0  0
  -22.7580  -29.4521   22.4890 C   0  0  0  0  0  0
  -18.0310  -28.1377   22.8470 C   0  0  0  0  0  0
  -24.1492  -36.7256   23.2638 C   0  0  0  0  0  0
  -26.0066  -30.7064   21.3914 C   0  0  0  0  0  0
  -26.0735  -29.3139   20.7365 C   0  0  0  0  0  0
  -27.2287  -28.4390   20.7441 C   0  0  0  0  0  0
  -26.0010  -26.8021   19.4743 C   0  0  0  0  0  0
  -24.8753  -27.6495   19.4594 C   0  0  0  0  0  0
  -23.6741  -29.7944   20.1557 C   0  0  0  0  0  0
  -25.4124  -36.3021   24.0311 C   0  0  1  0  0  0
  -20.5919  -28.3693   23.1241 C   0  0  2  0  0  0
  -20.6791  -26.9403   22.5396 C   0  0  0  0  0  0
  -19.5768  -26.6364   21.5201 C   0  0  0  0  0  0
  -18.1953  -26.7921   22.1616 C   0  0  0  0  0  0
  -19.1563  -28.8863   23.2841 C   0  0  0  0  0  0
  -18.9476  -30.1464   23.8862 C   0  0  0  0  0  0
  -17.6467  -30.6570   24.0549 C   0  0  0  0  0  0
  -25.9075  -34.9395   23.5046 C   0  0  0  0  0  0
  -16.5364  -29.9048   23.6329 C   0  0  0  0  0  0
  -16.7297  -28.6472   23.0350 C   0  0  0  0  0  0
  -26.4538  -31.6562   25.0737 C   0  0  0  0  0  0
  -25.3730  -31.3765   26.1439 C   0  0  0  0  0  0
  -27.0381  -30.2950   24.6321 C   0  0  0  0  0  0
  -27.6073  -32.4318   25.7522 C   0  0  0  0  0  0
  -27.5576  -37.1785   24.8469 C   0  0  0  0  0  0
  -21.4279  -29.3013   22.3631 N   0  0  0  0  0  0
  -26.4288  -37.3733   23.9400 N   0  0  0  0  0  0
  -24.7208  -31.0258   22.0938 N   0  0  0  0  0  0
  -23.4228  -28.8051   23.3029 O   0  0  0  0  0  0
  -28.2194  -26.0797   20.2082 O   0  0  0  0  0  0
  -26.5642  -34.8902   22.4615 O   0  0  0  0  0  0
  -23.5568  -32.1308   23.7105 O   0  0  0  0  0  0
  -30.4782  -21.1380   19.4230 C   0  0  0  0  0  0
  -29.3658  -20.7910   20.2035 C   0  0  0  0  0  0
  -30.6937  -22.4802   19.0501 C   0  0  0  0  0  0
  -28.8043  -23.2340   20.1475 C   0  0  0  0  0  0
  -28.7668  -18.2870   19.4181 C   0  0  0  0  0  0
  -29.1115  -19.1802   20.5679 C   0  0  1  0  0  0
  -29.9212  -17.7124   20.2250 C   0  0  1  0  0  0
  -31.8629  -22.8686   18.1690 C   0  0  0  0  0  0
  -27.8475  -24.5639   20.4360 C   0  0  0  0  0  0
  -28.5301  -21.9014   20.5321 N   0  0  0  0  0  0
  -29.8781  -23.4926   19.4112 N   0  0  0  0  0  0
  -29.6941  -16.1840   20.5511 N   0  0  0  0  0  0
  -31.4805  -12.8000   19.2017 H   0  0  0  0  0  0
  -30.4533  -11.6867   20.0508 H   0  0  0  0  0  0
  -29.8635  -11.7428   17.5988 H   0  0  0  0  0  0
  -29.6118  -13.4674   17.6864 H   0  0  0  0  0  0
  -27.9742  -11.2771   18.9960 H   0  0  0  0  0  0
  -27.4004  -12.4370   17.8217 H   0  0  0  0  0  0
  -27.5902  -14.2486   19.3986 H   0  0  0  0  0  0
  -28.7709  -12.3353   21.4747 H   0  0  0  0  0  0
  -28.3567  -14.0147   21.7461 H   0  0  0  0  0  0
  -25.2806   -9.5680   22.4785 H   0  0  0  0  0  0
  -24.0026   -7.4646   22.7479 H   0  0  0  0  0  0
  -21.0880   -8.8811   19.8972 H   0  0  0  0  0  0
  -22.3767  -10.9693   19.6187 H   0  0  0  0  0  0
  -21.2045   -7.6162   23.9737 H   0  0  0  0  0  0
  -21.1462   -6.0523   25.9080 H   0  0  0  0  0  0
  -22.0611   -2.7628   23.2808 H   0  0  0  0  0  0
  -22.4063  -11.9898   22.4798 H   0  0  0  0  0  0
  -21.1079  -13.1298   22.2595 H   0  0  0  0  0  0
  -24.6489  -15.8468   20.5357 H   0  0  0  0  0  0
  -26.2412  -15.6251   20.0124 H   0  0  0  0  0  0
  -26.7296  -32.5280   23.1023 H   0  0  0  0  0  0
  -25.0161  -33.9610   25.0373 H   0  0  0  0  0  0
  -22.7522  -31.2885   21.3865 H   0  0  0  0  0  0
  -23.3744  -35.9592   23.3284 H   0  0  0  0  0  0
  -24.3587  -36.8905   22.2058 H   0  0  0  0  0  0
  -23.7263  -37.6459   23.6684 H   0  0  0  0  0  0
  -26.1628  -31.4579   20.6159 H   0  0  0  0  0  0
  -26.8783  -30.7587   22.0317 H   0  0  0  0  0  0
  -28.1253  -28.7622   21.2542 H   0  0  0  0  0  0
  -25.9018  -25.8716   18.9380 H   0  0  0  0  0  0
  -23.9847  -27.3273   18.9370 H   0  0  0  0  0  0
  -23.8133  -30.5694   19.4012 H   0  0  0  0  0  0
  -22.7878  -29.2385   19.8430 H   0  0  0  0  0  0
  -25.1304  -36.1850   25.0801 H   0  0  0  0  0  0
  -21.0012  -28.3266   24.1360 H   0  0  0  0  0  0
  -20.5665  -26.2304   23.3602 H   0  0  0  0  0  0
  -21.6656  -26.7396   22.1203 H   0  0  0  0  0  0
  -19.6914  -25.6263   21.1253 H   0  0  0  0  0  0
  -19.6700  -27.3152   20.6710 H   0  0  0  0  0  0
  -17.4214  -26.6655   21.4029 H   0  0  0  0  0  0
  -18.0357  -26.0072   22.9023 H   0  0  0  0  0  0
  -19.7954  -30.7294   24.2212 H   0  0  0  0  0  0
  -17.5014  -31.6257   24.5137 H   0  0  0  0  0  0
  -15.5359  -30.2920   23.7678 H   0  0  0  0  0  0
  -15.8708  -28.0769   22.7078 H   0  0  0  0  0  0
  -24.5905  -30.7106   25.7785 H   0  0  0  0  0  0
  -24.8924  -32.2949   26.4819 H   0  0  0  0  0  0
  -25.8017  -30.8988   27.0256 H   0  0  0  0  0  0
  -26.2982  -29.6695   24.1310 H   0  0  0  0  0  0
  -27.3964  -29.7228   25.4891 H   0  0  0  0  0  0
  -27.8914  -30.4175   23.9647 H   0  0  0  0  0  0
  -27.2682  -33.3653   26.2027 H   0  0  0  0  0  0
  -28.3930  -32.6820   25.0380 H   0  0  0  0  0  0
  -28.0686  -31.8493   26.5510 H   0  0  0  0  0  0
  -28.2581  -38.0090   24.7492 H   0  0  0  0  0  0
  -28.1080  -36.2615   24.6308 H   0  0  0  0  0  0
  -27.2296  -37.1464   25.8874 H   0  0  0  0  0  0
  -20.9501  -29.8753   21.6826 H   0  0  0  0  0  0
  -26.0150  -38.2801   24.1383 H   0  0  0  0  0  0
  -31.1551  -20.3652   19.0867 H   0  0  0  0  0  0
  -29.0250  -18.6387   18.4199 H   0  0  0  0  0  0
  -27.7884  -17.8135   19.4777 H   0  0  0  0  0  0
  -28.4623  -19.1472   21.4407 H   0  0  0  0  0  0
  -30.9319  -17.9185   19.8784 H   0  0  0  0  0  0
  -32.6664  -22.1357   18.2318 H   0  0  0  0  0  0
  -32.2744  -23.8354   18.4580 H   0  0  0  0  0  0
  -31.5451  -22.9363   17.1283 H   0  0  0  0  0  0
  -27.5549  -24.4935   21.4840 H   0  0  0  0  0  0
  -26.9327  -24.3409   19.8920 H   0  0  0  0  0  0
  -28.7413  -15.9700   20.8082 H   0  0  0  0  0  0
  1 25  1  0  0  0
  1 30  2  0  0  0
  1 82  1  0  0  0
  2  3  1  0  0  0
  2 25  1  0  0  0
  2 83  1  0  0  0
  2 84  1  0  0  0
  3  4  1  0  0  0
  3 85  1  0  0  0
  3 86  1  0  0  0
  4  5  1  0  0  0
  4 87  1  0  0  0
  4 88  1  0  0  0
  5  6  1  0  0  0
  5 26  1  0  0  0
  5 89  1  0  0  0
  6 25  1  0  0  0
  6 90  1  0  0  0
  6 91  1  0  0  0
  7  8  2  0  0  0
  7 26  1  0  0  0
  7 29  1  0  0  0
  8  9  1  0  0  0
  8 22  1  0  0  0
  9 10  1  0  0  0
  9 27  2  0  0  0
 10 11  2  0  0  0
 10 15  1  0  0  0
 11 12  1  0  0  0
 11 92  1  0  0  0
 12 13  2  0  0  0
 12 93  1  0  0  0
 13 14  1  0  0  0
 13 31  1  0  0  0
 14 15  2  0  0  0
 14 94  1  0  0  0
 15 95  1  0  0  0
 16 17  2  0  0  0
 16 21  1  0  0  0
 16 31  1  0  0  0
 17 18  1  0  0  0
 17 96  1  0  0  0
 18 19  2  0  0  0
 18 97  1  0  0  0
 19 20  1  0  0  0
 19 24  1  0  0  0
 20 21  2  0  0  0
 20 98  1  0  0  0
 21 23  1  0  0  0
 22 28  1  0  0  0
 22 32  2  0  0  0
 26 27  1  0  0  0
 28 99  1  0  0  0
 28100  1  0  0  0
 29101  1  0  0  0
 29102  1  0  0  0
 33 34  1  0  0  0
 33 66  1  0  0  0
 33 70  2  0  0  0
 34 36  1  0  0  0
 34 59  1  0  0  0
 34103  1  0  0  0
 35 44  2  0  0  0
 35 45  1  0  0  0
 35 68  1  0  0  0
 36 56  1  0  0  0
 36104  1  0  0  0
 37 39  1  0  0  0
 37 47  1  0  0  0
 37 66  1  0  0  0
 37105  1  0  0  0
 38 43  2  0  0  0
 38 46  1  0  0  0
 38 47  1  0  0  0
 39 64  1  0  0  0
 39 67  2  0  0  0
 40 52  1  0  0  0
 40 53  2  0  0  0
 40 58  1  0  0  0
 41106  1  0  0  0
 41107  1  0  0  0
 41108  1  0  0  0
 41 48  1  0  0  0
 42 43  1  0  0  0
 42 66  1  0  0  0
 42109  1  0  0  0
 42110  1  0  0  0
 43 44  1  0  0  0
 44111  1  0  0  0
 45 46  2  0  0  0
 45112  1  0  0  0
 46113  1  0  0  0
 47114  1  0  0  0
 47115  1  0  0  0
 48 56  1  0  0  0
 48 65  1  0  0  0
 48116  1  0  0  0
 49 50  1  0  0  0
 49 53  1  0  0  0
 49 64  1  0  0  0
 49117  1  0  0  0
 50 51  1  0  0  0
 50118  1  0  0  0
 50119  1  0  0  0
 51 52  1  0  0  0
 51120  1  0  0  0
 51121  1  0  0  0
 52122  1  0  0  0
 52123  1  0  0  0
 53 54  1  0  0  0
 54 55  2  0  0  0
 54124  1  0  0  0
 55 57  1  0  0  0
 55125  1  0  0  0
 56 69  2  0  0  0
 57 58  2  0  0  0
 57126  1  0  0  0
 58127  1  0  0  0
 59 60  1  0  0  0
 59 61  1  0  0  0
 59 62  1  0  0  0
 60128  1  0  0  0
 60129  1  0  0  0
 60130  1  0  0  0
 61131  1  0  0  0
 61132  1  0  0  0
 61133  1  0  0  0
 62134  1  0  0  0
 62135  1  0  0  0
 62136  1  0  0  0
 63 65  1  0  0  0
 63137  1  0  0  0
 63138  1  0  0  0
 63139  1  0  0  0
 64140  1  0  0  0
 65141  1  0  0  0
 68 79  1  0  0  0
 71 72  2  0  0  0
 71 73  1  0  0  0
 71142  1  0  0  0
 72 80  1  0  0  0
 72 76  1  0  0  0
 73 78  1  0  0  0
 73 81  2  0  0  0
 74 79  1  0  0  0
 74 80  2  0  0  0
 74 81  1  0  0  0
 75 76  1  0  0  0
 75 77  1  0  0  0
 75143  1  0  0  0
 75144  1  0  0  0
 76 77  1  0  0  0
 76145  1  0  0  0
 77 82  1  0  0  0
 77146  1  0  0  0
 78147  1  0  0  0
 78148  1  0  0  0
 78149  1  0  0  0
 79150  1  0  0  0
 79151  1  0  0  0
 82152  1  0  0  0
M  ISO  4   1 100  68 101  79 101  82 100
M  END
> <chiral flag>
0

> <version>
0

> <s_m_source_file>
/data/baiqing/PycharmProjects/Reinvent-master-3.2/result/LINK_invent/BTK/process_docking_weight1_custom_sum_contain_oxygen_bond_distance_aromatic_linkinvent_7_9_3/rearranged_h_0183.sdf

> <i_m_source_file_index>
54

> <r_mmod_Potential_Energy-OPLS-2005>
263.912811279297

> <r_mmod_Stretch_Energy-OPLS-2005>
307.308807373047

> <r_mmod_Bend_Energy-OPLS-2005>
267.804321289062

> <r_mmod_Torsional_Energy-OPLS-2005>
260.011199951172

> <r_mmod_Improper_Torsional_Energy-OPLS-2005>
5.44603729248047

> <r_mmod_Van_der_Waal_Energy-OPLS-2005>
133.874786376953

> <r_mmod_Electrostatic_Energy-OPLS-2005>
-692.344055175781

> <r_mmod_Solvation_Energy-OPLS-2005>
-251.535934448242

> <b_mmod_Minimization_Converged-OPLS-2005>
0

> <r_mmod_RMS_Derivative-OPLS-2005>
3.05968022346497

$$$$
55
                    3D
 Structure written by MMmdl.
168177  0  0  1  0            999 V2000
  -30.5090  -14.9539   20.4105 C   0  0  0  0  0  0
  -30.4372  -12.5752   19.5205 C   0  0  0  0  0  0
  -29.5241  -12.5274   18.2711 C   0  0  0  0  0  0
  -28.0539  -12.3233   18.6802 C   0  0  0  0  0  0
  -27.6308  -13.2530   19.8477 C   0  0  2  0  0  0
  -28.6695  -13.2638   20.9918 C   0  0  0  0  0  0
  -25.2434  -13.8240   20.5722 C   0  0  0  0  0  0
  -24.1767  -13.0436   20.9232 C   0  0  0  0  0  0
  -24.6405  -11.6926   20.8786 C   0  0  0  0  0  0
  -23.9098  -10.4295   21.0443 C   0  0  0  0  0  0
  -24.3642   -9.4191   21.9207 C   0  0  0  0  0  0
  -23.6296   -8.2233   22.0763 C   0  0  0  0  0  0
  -22.4269   -8.0301   21.3558 C   0  0  0  0  0  0
  -21.9928   -9.0280   20.4658 C   0  0  0  0  0  0
  -22.7279  -10.2140   20.3080 C   0  0  0  0  0  0
  -21.6845   -6.0761   22.5297 C   0  0  0  0  0  0
  -21.4027   -6.5656   23.8242 C   0  0  0  0  0  0
  -21.3662   -5.6801   24.9198 C   0  0  0  0  0  0
  -21.6027   -4.3064   24.7238 C   0  0  0  0  0  0
  -21.8794   -3.8158   23.4359 C   0  0  0  0  0  0
  -21.9180   -4.6985   22.3419 C   0  0  0  0  0  0
  -22.7782  -13.5204   21.1879 C   0  0  0  0  0  0
  -22.1642   -4.2171   21.0996 F   0  0  0  0  0  0
  -21.5619   -3.4545   25.7749 F   0  0  0  0  0  0
  -29.9540  -13.6750   20.4115 N   0  0  0  0  0  0
  -26.2885  -12.9493   20.3273 N   0  0  0  0  0  0
  -25.9344  -11.6606   20.5767 N   0  0  0  0  0  0
  -22.0422  -12.8226   22.0451 N   0  0  0  0  0  0
  -25.4001  -15.1992   20.4223 N   0  0  0  0  0  0
  -31.6867  -15.0408   20.0480 O   0  0  0  0  0  0
  -21.6613   -6.8911   21.4266 O   0  0  0  0  0  0
  -22.3467  -14.5494   20.6690 O   0  0  0  0  0  0
  -24.6444  -31.8411   23.1825 C   0  0  0  0  0  0
  -25.9206  -32.4676   23.8222 C   0  0  1  0  0  0
  -27.2228  -27.1005   20.1741 C   0  0  0  0  0  0
  -25.5951  -33.8481   24.2140 N   0  0  0  0  0  0
  -23.4489  -30.4582   21.5268 C   0  0  2  0  0  0
  -24.8986  -28.8655   20.1141 C   0  0  0  0  0  0
  -22.7556  -29.4545   22.4816 C   0  0  0  0  0  0
  -18.0300  -28.1395   22.8478 C   0  0  0  0  0  0
  -24.1486  -36.7247   23.2646 C   0  0  0  0  0  0
  -26.0051  -30.7018   21.3867 C   0  0  0  0  0  0
  -26.0730  -29.3051   20.7390 C   0  0  0  0  0  0
  -27.2306  -28.4386   20.7507 C   0  0  0  0  0  0
  -26.0258  -26.7626   19.5089 C   0  0  0  0  0  0
  -24.8895  -27.6078   19.4849 C   0  0  0  0  0  0
  -23.6768  -29.7755   20.1502 C   0  0  0  0  0  0
  -25.4121  -36.3019   24.0307 C   0  0  1  0  0  0
  -20.5918  -28.3731   23.1219 C   0  0  2  0  0  0
  -20.6779  -26.9424   22.5408 C   0  0  0  0  0  0
  -19.5759  -26.6373   21.5208 C   0  0  0  0  0  0
  -18.1939  -26.7930   22.1618 C   0  0  0  0  0  0
  -19.1566  -28.8874   23.2845 C   0  0  0  0  0  0
  -18.9483  -30.1468   23.8881 C   0  0  0  0  0  0
  -17.6489  -30.6589   24.0566 C   0  0  0  0  0  0
  -25.9077  -34.9402   23.5035 C   0  0  0  0  0  0
  -16.5372  -29.9088   23.6339 C   0  0  0  0  0  0
  -16.7295  -28.6502   23.0358 C   0  0  0  0  0  0
  -26.4522  -31.6565   25.0682 C   0  0  0  0  0  0
  -25.3703  -31.3789   26.1377 C   0  0  0  0  0  0
  -27.0394  -30.2950   24.6306 C   0  0  0  0  0  0
  -27.6024  -32.4359   25.7486 C   0  0  0  0  0  0
  -27.5565  -37.1780   24.8460 C   0  0  0  0  0  0
  -21.4246  -29.3060   22.3569 N   0  0  0  0  0  0
  -26.4277  -37.3739   23.9404 N   0  0  0  0  0  0
  -24.7189  -31.0238   22.0873 N   0  0  0  0  0  0
  -23.4185  -28.8108   23.2988 O   0  0  0  0  0  0
  -28.3194  -26.1578   20.1946 O   0  0  0  0  0  0
  -26.5676  -34.8923   22.4624 O   0  0  0  0  0  0
  -23.5557  -32.1306   23.7046 O   0  0  0  0  0  0
  -28.1932  -23.7422   21.2806 C   0  0  0  0  0  0
  -29.1114  -21.7497   20.1663 C   0  0  0  0  0  0
  -29.2682  -22.7055   19.0777 C   0  0  0  0  0  0
  -28.3384  -24.6736   20.1779 C   0  0  0  0  0  0
  -30.1684  -18.9504   20.1877 C   0  0  0  0  0  0
  -29.9967  -20.3871   20.2162 C   0  0  0  0  0  0
  -31.5824  -18.4738   19.8935 C   0  0  0  0  0  0
  -31.6855  -17.8677   18.4612 C   0  0  0  0  0  0
  -29.1029  -17.3160   18.5764 C   0  0  0  0  0  0
  -29.3297  -17.5468   20.0762 C   0  0  1  0  0  0
  -30.3583  -17.5509   17.6754 C   0  0  0  0  0  0
  -30.0280  -18.7115   16.7192 C   0  0  0  0  0  0
  -30.5837  -16.3032   16.7947 C   0  0  0  0  0  0
  -31.0152  -23.3133   17.2950 C   0  0  0  0  0  0
  -29.9737  -22.2989   17.7875 C   0  0  0  0  0  0
  -28.5621  -22.3771   21.2763 N   0  0  0  0  0  0
  -28.8776  -24.0520   19.0780 N   0  0  0  0  0  0
  -29.6883  -16.0953   20.6712 N   0  0  0  0  0  0
  -31.4743  -12.7217   19.2159 H   0  0  0  0  0  0
  -30.4130  -11.6191   20.0472 H   0  0  0  0  0  0
  -29.8361  -11.7262   17.6005 H   0  0  0  0  0  0
  -29.6182  -13.4556   17.7082 H   0  0  0  0  0  0
  -27.9378  -11.2802   18.9777 H   0  0  0  0  0  0
  -27.3946  -12.4656   17.8236 H   0  0  0  0  0  0
  -27.5962  -14.2589   19.4284 H   0  0  0  0  0  0
  -28.7497  -12.2792   21.4534 H   0  0  0  0  0  0
  -28.3664  -13.9531   21.7815 H   0  0  0  0  0  0
  -25.2798   -9.5628   22.4782 H   0  0  0  0  0  0
  -23.9987   -7.4616   22.7477 H   0  0  0  0  0  0
  -21.0857   -8.8825   19.8979 H   0  0  0  0  0  0
  -22.3768  -10.9688   19.6191 H   0  0  0  0  0  0
  -21.2039   -7.6169   23.9759 H   0  0  0  0  0  0
  -21.1506   -6.0536   25.9104 H   0  0  0  0  0  0
  -22.0568   -2.7621   23.2852 H   0  0  0  0  0  0
  -22.4029  -11.9920   22.4899 H   0  0  0  0  0  0
  -21.1030  -13.1258   22.2617 H   0  0  0  0  0  0
  -24.6147  -15.8319   20.5397 H   0  0  0  0  0  0
  -26.2336  -15.6633   20.0854 H   0  0  0  0  0  0
  -26.7268  -32.5264   23.0942 H   0  0  0  0  0  0
  -25.0064  -33.9575   25.0263 H   0  0  0  0  0  0
  -22.7551  -31.2863   21.3667 H   0  0  0  0  0  0
  -23.3751  -35.9576   23.3299 H   0  0  0  0  0  0
  -24.3560  -36.8895   22.2063 H   0  0  0  0  0  0
  -23.7243  -37.6437   23.6698 H   0  0  0  0  0  0
  -26.1648  -31.4494   20.6078 H   0  0  0  0  0  0
  -26.8756  -30.7557   22.0293 H   0  0  0  0  0  0
  -28.1294  -28.7781   21.2465 H   0  0  0  0  0  0
  -25.9579  -25.8017   19.0180 H   0  0  0  0  0  0
  -23.9941  -27.2669   18.9826 H   0  0  0  0  0  0
  -23.8164  -30.5467   19.3925 H   0  0  0  0  0  0
  -22.7900  -29.2216   19.8369 H   0  0  0  0  0  0
  -25.1315  -36.1832   25.0799 H   0  0  0  0  0  0
  -21.0031  -28.3336   24.1328 H   0  0  0  0  0  0
  -20.5640  -26.2347   23.3637 H   0  0  0  0  0  0
  -21.6646  -26.7390   22.1231 H   0  0  0  0  0  0
  -19.6920  -25.6273   21.1257 H   0  0  0  0  0  0
  -19.6698  -27.3162   20.6726 H   0  0  0  0  0  0
  -17.4199  -26.6668   21.4026 H   0  0  0  0  0  0
  -18.0349  -26.0073   22.9024 H   0  0  0  0  0  0
  -19.7968  -30.7282   24.2231 H   0  0  0  0  0  0
  -17.5047  -31.6268   24.5179 H   0  0  0  0  0  0
  -15.5377  -30.2995   23.7675 H   0  0  0  0  0  0
  -15.8684  -28.0825   22.7087 H   0  0  0  0  0  0
  -24.5858  -30.7161   25.7703 H   0  0  0  0  0  0
  -24.8931  -32.3001   26.4741 H   0  0  0  0  0  0
  -25.7981  -30.8993   27.0192 H   0  0  0  0  0  0
  -26.3020  -29.6660   24.1309 H   0  0  0  0  0  0
  -27.3973  -29.7267   25.4902 H   0  0  0  0  0  0
  -27.8943  -30.4154   23.9647 H   0  0  0  0  0  0
  -27.2566  -33.3669   26.1997 H   0  0  0  0  0  0
  -28.3881  -32.6920   25.0362 H   0  0  0  0  0  0
  -28.0648  -31.8543   26.5473 H   0  0  0  0  0  0
  -28.2582  -38.0079   24.7501 H   0  0  0  0  0  0
  -28.1067  -36.2607   24.6295 H   0  0  0  0  0  0
  -27.2285  -37.1436   25.8867 H   0  0  0  0  0  0
  -20.9434  -29.8750   21.6740 H   0  0  0  0  0  0
  -26.0137  -38.2800   24.1424 H   0  0  0  0  0  0
  -27.8457  -24.1177   22.2315 H   0  0  0  0  0  0
  -30.9879  -20.8110   20.2394 H   0  0  0  0  0  0
  -31.8516  -17.7172   20.6326 H   0  0  0  0  0  0
  -32.3401  -19.2472   20.0149 H   0  0  0  0  0  0
  -32.2879  -16.9622   18.5352 H   0  0  0  0  0  0
  -32.3109  -18.5241   17.8539 H   0  0  0  0  0  0
  -28.2988  -17.9891   18.2708 H   0  0  0  0  0  0
  -28.6746  -16.3281   18.4055 H   0  0  0  0  0  0
  -28.3569  -17.7720   20.5166 H   0  0  0  0  0  0
  -29.6775  -19.5709   17.2775 H   0  0  0  0  0  0
  -29.2214  -18.4454   16.0335 H   0  0  0  0  0  0
  -30.8842  -19.0131   16.1153 H   0  0  0  0  0  0
  -30.8543  -15.4306   17.3873 H   0  0  0  0  0  0
  -31.3859  -16.4615   16.0746 H   0  0  0  0  0  0
  -29.6853  -16.0423   16.2319 H   0  0  0  0  0  0
  -31.4954  -22.9565   16.3844 H   0  0  0  0  0  0
  -31.7915  -23.4786   18.0426 H   0  0  0  0  0  0
  -30.5567  -24.2740   17.0626 H   0  0  0  0  0  0
  -29.2221  -22.1069   17.0232 H   0  0  0  0  0  0
  -30.5187  -21.3731   17.9353 H   0  0  0  0  0  0
  -28.8881  -15.7662   21.1925 H   0  0  0  0  0  0
  1 25  1  0  0  0
  1 30  2  0  0  0
  1 88  1  0  0  0
  2  3  1  0  0  0
  2 25  1  0  0  0
  2 89  1  0  0  0
  2 90  1  0  0  0
  3  4  1  0  0  0
  3 91  1  0  0  0
  3 92  1  0  0  0
  4  5  1  0  0  0
  4 93  1  0  0  0
  4 94  1  0  0  0
  5  6  1  0  0  0
  5 26  1  0  0  0
  5 95  1  0  0  0
  6 25  1  0  0  0
  6 96  1  0  0  0
  6 97  1  0  0  0
  7  8  2  0  0  0
  7 26  1  0  0  0
  7 29  1  0  0  0
  8  9  1  0  0  0
  8 22  1  0  0  0
  9 10  1  0  0  0
  9 27  2  0  0  0
 10 11  2  0  0  0
 10 15  1  0  0  0
 11 12  1  0  0  0
 11 98  1  0  0  0
 12 13  2  0  0  0
 12 99  1  0  0  0
 13 14  1  0  0  0
 13 31  1  0  0  0
 14 15  2  0  0  0
 14100  1  0  0  0
 15101  1  0  0  0
 16 17  2  0  0  0
 16 21  1  0  0  0
 16 31  1  0  0  0
 17 18  1  0  0  0
 17102  1  0  0  0
 18 19  2  0  0  0
 18103  1  0  0  0
 19 20  1  0  0  0
 19 24  1  0  0  0
 20 21  2  0  0  0
 20104  1  0  0  0
 21 23  1  0  0  0
 22 28  1  0  0  0
 22 32  2  0  0  0
 26 27  1  0  0  0
 28105  1  0  0  0
 28106  1  0  0  0
 29107  1  0  0  0
 29108  1  0  0  0
 33 34  1  0  0  0
 33 66  1  0  0  0
 33 70  2  0  0  0
 34 36  1  0  0  0
 34 59  1  0  0  0
 34109  1  0  0  0
 35 44  2  0  0  0
 35 45  1  0  0  0
 35 68  1  0  0  0
 36 56  1  0  0  0
 36110  1  0  0  0
 37 39  1  0  0  0
 37 47  1  0  0  0
 37 66  1  0  0  0
 37111  1  0  0  0
 38 43  2  0  0  0
 38 46  1  0  0  0
 38 47  1  0  0  0
 39 64  1  0  0  0
 39 67  2  0  0  0
 40 52  1  0  0  0
 40 53  2  0  0  0
 40 58  1  0  0  0
 41112  1  0  0  0
 41113  1  0  0  0
 41114  1  0  0  0
 41 48  1  0  0  0
 42 43  1  0  0  0
 42 66  1  0  0  0
 42115  1  0  0  0
 42116  1  0  0  0
 43 44  1  0  0  0
 44117  1  0  0  0
 45 46  2  0  0  0
 45118  1  0  0  0
 46119  1  0  0  0
 47120  1  0  0  0
 47121  1  0  0  0
 48 56  1  0  0  0
 48 65  1  0  0  0
 48122  1  0  0  0
 49 50  1  0  0  0
 49 53  1  0  0  0
 49 64  1  0  0  0
 49123  1  0  0  0
 50 51  1  0  0  0
 50124  1  0  0  0
 50125  1  0  0  0
 51 52  1  0  0  0
 51126  1  0  0  0
 51127  1  0  0  0
 52128  1  0  0  0
 52129  1  0  0  0
 53 54  1  0  0  0
 54 55  2  0  0  0
 54130  1  0  0  0
 55 57  1  0  0  0
 55131  1  0  0  0
 56 69  2  0  0  0
 57 58  2  0  0  0
 57132  1  0  0  0
 58133  1  0  0  0
 59 60  1  0  0  0
 59 61  1  0  0  0
 59 62  1  0  0  0
 60134  1  0  0  0
 60135  1  0  0  0
 60136  1  0  0  0
 61137  1  0  0  0
 61138  1  0  0  0
 61139  1  0  0  0
 62140  1  0  0  0
 62141  1  0  0  0
 62142  1  0  0  0
 63 65  1  0  0  0
 63143  1  0  0  0
 63144  1  0  0  0
 63145  1  0  0  0
 64146  1  0  0  0
 65147  1  0  0  0
 68 74  1  0  0  0
 71 74  2  0  0  0
 71 86  1  0  0  0
 71148  1  0  0  0
 72 73  1  0  0  0
 72 76  1  0  0  0
 72 86  2  0  0  0
 73 85  1  0  0  0
 73 87  2  0  0  0
 74 87  1  0  0  0
 75 76  2  0  0  0
 75 77  1  0  0  0
 75 80  1  0  0  0
 76149  1  0  0  0
 77 78  1  0  0  0
 77150  1  0  0  0
 77151  1  0  0  0
 78 81  1  0  0  0
 78152  1  0  0  0
 78153  1  0  0  0
 79 80  1  0  0  0
 79 81  1  0  0  0
 79154  1  0  0  0
 79155  1  0  0  0
 80 88  1  0  0  0
 80156  1  0  0  0
 81 82  1  0  0  0
 81 83  1  0  0  0
 82157  1  0  0  0
 82158  1  0  0  0
 82159  1  0  0  0
 83160  1  0  0  0
 83161  1  0  0  0
 83162  1  0  0  0
 84 85  1  0  0  0
 84163  1  0  0  0
 84164  1  0  0  0
 84165  1  0  0  0
 85166  1  0  0  0
 85167  1  0  0  0
 88168  1  0  0  0
M  ISO  4   1 100  68 101  74 101  88 100
M  END
> <chiral flag>
0

> <version>
0

> <s_m_source_file>
/data/baiqing/PycharmProjects/Reinvent-master-3.2/result/LINK_invent/BTK/process_docking_weight1_custom_sum_contain_oxygen_bond_distance_aromatic_linkinvent_7_9_3/rearranged_h_0183.sdf

> <i_m_source_file_index>
55

> <r_mmod_Potential_Energy-OPLS-2005>
869.546691894531

> <r_mmod_Stretch_Energy-OPLS-2005>
276.043182373047

> <r_mmod_Bend_Energy-OPLS-2005>
436.823486328125

> <r_mmod_Torsional_Energy-OPLS-2005>
328.927947998047

> <r_mmod_Improper_Torsional_Energy-OPLS-2005>
13.2060327529907

> <r_mmod_Van_der_Waal_Energy-OPLS-2005>
143.396728515625

> <r_mmod_Electrostatic_Energy-OPLS-2005>
-320.307708740234

> <r_mmod_Solvation_Energy-OPLS-2005>
-209.040435791016

> <b_mmod_Minimization_Converged-OPLS-2005>
0

> <r_mmod_RMS_Derivative-OPLS-2005>
3.20825982093811

$$$$
56
                    3D
 Structure written by MMmdl.
163172  0  0  1  0            999 V2000
  -30.6725  -14.4819   20.5729 C   0  0  0  0  0  0
  -30.4250  -12.3108   19.4219 C   0  0  0  0  0  0
  -29.4955  -12.5143   18.2061 C   0  0  0  0  0  0
  -28.0165  -12.3589   18.6165 C   0  0  0  0  0  0
  -27.6584  -13.1891   19.8783 C   0  0  2  0  0  0
  -28.7007  -12.9694   20.9975 C   0  0  0  0  0  0
  -25.2586  -13.8130   20.5664 C   0  0  0  0  0  0
  -24.1823  -13.0412   20.9122 C   0  0  0  0  0  0
  -24.6365  -11.6869   20.8710 C   0  0  0  0  0  0
  -23.9036  -10.4263   21.0385 C   0  0  0  0  0  0
  -24.3597   -9.4194   21.9169 C   0  0  0  0  0  0
  -23.6282   -8.2226   22.0740 C   0  0  0  0  0  0
  -22.4257   -8.0263   21.3545 C   0  0  0  0  0  0
  -21.9888   -9.0231   20.4642 C   0  0  0  0  0  0
  -22.7211  -10.2113   20.3045 C   0  0  0  0  0  0
  -21.6852   -6.0724   22.5278 C   0  0  0  0  0  0
  -21.4016   -6.5626   23.8210 C   0  0  0  0  0  0
  -21.3658   -5.6776   24.9171 C   0  0  0  0  0  0
  -21.6046   -4.3044   24.7217 C   0  0  0  0  0  0
  -21.8820   -3.8138   23.4337 C   0  0  0  0  0  0
  -21.9194   -4.6953   22.3393 C   0  0  0  0  0  0
  -22.7864  -13.5238   21.1824 C   0  0  0  0  0  0
  -22.1650   -4.2150   21.0967 F   0  0  0  0  0  0
  -21.5636   -3.4519   25.7729 F   0  0  0  0  0  0
  -30.0290  -13.2896   20.4453 N   0  0  0  0  0  0
  -26.3010  -12.9252   20.3390 N   0  0  0  0  0  0
  -25.9288  -11.6435   20.5766 N   0  0  0  0  0  0
  -22.0468  -12.8259   22.0381 N   0  0  0  0  0  0
  -25.4336  -15.1910   20.4171 N   0  0  0  0  0  0
  -31.7960  -14.6958   20.1120 O   0  0  0  0  0  0
  -21.6634   -6.8850   21.4234 O   0  0  0  0  0  0
  -22.3668  -14.5601   20.6709 O   0  0  0  0  0  0
  -24.6163  -31.8672   23.2086 C   0  0  0  0  0  0
  -25.9045  -32.4815   23.8395 C   0  0  1  0  0  0
  -27.2317  -27.4155   20.0878 C   0  0  0  0  0  0
  -25.5885  -33.8613   24.2326 N   0  0  0  0  0  0
  -23.4050  -30.4918   21.5481 C   0  0  2  0  0  0
  -24.8482  -28.9564   20.1127 C   0  0  0  0  0  0
  -22.7421  -29.4657   22.4965 C   0  0  0  0  0  0
  -18.0272  -28.1367   22.8488 C   0  0  0  0  0  0
  -24.1474  -36.7308   23.2642 C   0  0  0  0  0  0
  -25.9358  -30.8245   21.3664 C   0  0  0  0  0  0
  -26.0085  -29.4562   20.7147 C   0  0  0  0  0  0
  -27.1977  -28.6897   20.7069 C   0  0  0  0  0  0
  -26.0424  -26.9270   19.4991 C   0  0  0  0  0  0
  -24.8604  -27.6900   19.5056 C   0  0  0  0  0  0
  -23.6131  -29.8269   20.1610 C   0  0  0  0  0  0
  -25.4092  -36.3110   24.0349 C   0  0  1  0  0  0
  -20.5868  -28.3660   23.1305 C   0  0  2  0  0  0
  -20.6754  -26.9390   22.5417 C   0  0  0  0  0  0
  -19.5737  -26.6379   21.5200 C   0  0  0  0  0  0
  -18.1913  -26.7918   22.1611 C   0  0  0  0  0  0
  -19.1527  -28.8823   23.2896 C   0  0  0  0  0  0
  -18.9453  -30.1428   23.8914 C   0  0  0  0  0  0
  -17.6463  -30.6575   24.0558 C   0  0  0  0  0  0
  -25.9031  -34.9477   23.5140 C   0  0  0  0  0  0
  -16.5350  -29.9083   23.6318 C   0  0  0  0  0  0
  -16.7265  -28.6489   23.0348 C   0  0  0  0  0  0
  -26.4458  -31.6606   25.0735 C   0  0  0  0  0  0
  -25.3716  -31.3723   26.1489 C   0  0  0  0  0  0
  -27.0292  -30.3047   24.6130 C   0  0  0  0  0  0
  -27.6043  -32.4321   25.7482 C   0  0  0  0  0  0
  -27.5583  -37.1792   24.8454 C   0  0  0  0  0  0
  -21.4149  -29.3038   22.3708 N   0  0  0  0  0  0
  -26.4270  -37.3803   23.9438 N   0  0  0  0  0  0
  -24.6702  -31.0770   22.0987 N   0  0  0  0  0  0
  -23.4192  -28.8201   23.3005 O   0  0  0  0  0  0
  -28.4120  -26.6907   20.0990 O   0  0  0  0  0  0
  -26.5604  -34.8932   22.4710 O   0  0  0  0  0  0
  -23.5347  -32.1423   23.7474 O   0  0  0  0  0  0
  -27.4727  -23.3633   19.3575 C   0  0  0  0  0  0
  -28.5603  -24.2004   19.6592 C   0  0  0  0  0  0
  -29.6312  -23.5688   20.3241 C   0  0  0  0  0  0
  -28.5530  -21.5453   20.2279 C   0  0  0  0  0  0
  -29.7883  -19.3939   20.7823 C   0  0  0  0  0  0
  -27.5791  -19.2576   19.8842 C   0  0  0  0  0  0
  -29.5530  -17.9197   20.3555 C   0  0  2  0  0  0
  -28.0149  -17.8412   20.2849 C   0  0  2  0  0  0
  -30.8914  -24.3128   20.7173 C   0  0  0  0  0  0
  -28.6220  -25.6454   19.1322 C   0  0  0  0  0  0
  -30.2718  -16.8926   21.2941 C   0  0  0  0  0  0
  -27.4757  -22.0427   19.6387 N   0  0  0  0  0  0
  -29.6141  -22.2444   20.6023 N   0  0  0  0  0  0
  -28.5977  -20.1613   20.4027 N   0  0  0  0  0  0
  -29.9176  -15.4702   21.0983 N   0  0  0  0  0  0
  -27.5207  -16.8361   19.3293 N   0  3  0  0  0  0
  -31.4701  -12.4172   19.1270 H   0  0  0  0  0  0
  -30.3244  -11.2976   19.8139 H   0  0  0  0  0  0
  -29.7419  -11.8034   17.4166 H   0  0  0  0  0  0
  -29.6569  -13.5074   17.7823 H   0  0  0  0  0  0
  -27.8324  -11.3005   18.8076 H   0  0  0  0  0  0
  -27.3637  -12.6340   17.7866 H   0  0  0  0  0  0
  -27.6998  -14.2311   19.5800 H   0  0  0  0  0  0
  -28.6827  -11.9310   21.3325 H   0  0  0  0  0  0
  -28.4541  -13.5602   21.8811 H   0  0  0  0  0  0
  -25.2736   -9.5676   22.4747 H   0  0  0  0  0  0
  -23.9996   -7.4621   22.7465 H   0  0  0  0  0  0
  -21.0820   -8.8751   19.8956 H   0  0  0  0  0  0
  -22.3662  -10.9649   19.6151 H   0  0  0  0  0  0
  -21.1998   -7.6134   23.9711 H   0  0  0  0  0  0
  -21.1479   -6.0504   25.9075 H   0  0  0  0  0  0
  -22.0603   -2.7604   23.2834 H   0  0  0  0  0  0
  -22.4007  -11.9890   22.4769 H   0  0  0  0  0  0
  -21.1086  -13.1321   22.2550 H   0  0  0  0  0  0
  -25.4811  -15.5421   21.3697 H   0  0  0  0  0  0
  -24.5158  -15.5182   20.1220 H   0  0  0  0  0  0
  -26.7124  -32.5518   23.1159 H   0  0  0  0  0  0
  -25.0018  -33.9764   25.0459 H   0  0  0  0  0  0
  -22.6943  -31.3086   21.4100 H   0  0  0  0  0  0
  -23.3744  -35.9630   23.3287 H   0  0  0  0  0  0
  -24.3581  -36.8936   22.2061 H   0  0  0  0  0  0
  -23.7205  -37.6502   23.6661 H   0  0  0  0  0  0
  -26.0546  -31.5883   20.5971 H   0  0  0  0  0  0
  -26.8224  -30.8761   21.9866 H   0  0  0  0  0  0
  -28.0936  -29.0742   21.1744 H   0  0  0  0  0  0
  -25.9959  -25.9500   19.0446 H   0  0  0  0  0  0
  -23.9656  -27.2957   19.0454 H   0  0  0  0  0  0
  -23.7248  -30.6022   19.4017 H   0  0  0  0  0  0
  -22.7349  -29.2508   19.8630 H   0  0  0  0  0  0
  -25.1248  -36.1974   25.0838 H   0  0  0  0  0  0
  -20.9965  -28.3224   24.1424 H   0  0  0  0  0  0
  -20.5633  -26.2265   23.3608 H   0  0  0  0  0  0
  -21.6631  -26.7410   22.1227 H   0  0  0  0  0  0
  -19.6898  -25.6290   21.1227 H   0  0  0  0  0  0
  -19.6678  -27.3196   20.6728 H   0  0  0  0  0  0
  -17.4188  -26.6669   21.4008 H   0  0  0  0  0  0
  -18.0309  -26.0051   22.9002 H   0  0  0  0  0  0
  -19.7937  -30.7217   24.2314 H   0  0  0  0  0  0
  -17.5023  -31.6259   24.5157 H   0  0  0  0  0  0
  -15.5352  -30.2986   23.7630 H   0  0  0  0  0  0
  -15.8665  -28.0809   22.7075 H   0  0  0  0  0  0
  -24.5870  -30.7088   25.7835 H   0  0  0  0  0  0
  -24.8924  -32.2883   26.4954 H   0  0  0  0  0  0
  -25.8061  -30.8879   27.0239 H   0  0  0  0  0  0
  -26.2842  -29.6810   24.1178 H   0  0  0  0  0  0
  -27.4051  -29.7289   25.4596 H   0  0  0  0  0  0
  -27.8680  -30.4374   23.9293 H   0  0  0  0  0  0
  -27.2677  -33.3617   26.2082 H   0  0  0  0  0  0
  -28.3820  -32.6886   25.0277 H   0  0  0  0  0  0
  -28.0741  -31.8432   26.5366 H   0  0  0  0  0  0
  -28.2564  -38.0128   24.7572 H   0  0  0  0  0  0
  -28.1110  -36.2667   24.6161 H   0  0  0  0  0  0
  -27.2326  -37.1317   25.8860 H   0  0  0  0  0  0
  -20.9307  -29.8763   21.6936 H   0  0  0  0  0  0
  -26.0158  -38.2873   24.1484 H   0  0  0  0  0  0
  -26.6099  -23.7350   18.8246 H   0  0  0  0  0  0
  -30.6883  -19.7963   20.3144 H   0  0  0  0  0  0
  -29.9195  -19.4784   21.8617 H   0  0  0  0  0  0
  -26.5900  -19.5000   20.2775 H   0  0  0  0  0  0
  -27.5426  -19.3725   18.7986 H   0  0  0  0  0  0
  -29.9513  -17.8098   19.3455 H   0  0  0  0  0  0
  -27.6283  -17.6126   21.2798 H   0  0  0  0  0  0
  -30.6523  -25.1451   21.3795 H   0  0  0  0  0  0
  -31.3912  -24.7066   19.8325 H   0  0  0  0  0  0
  -31.5949  -23.6581   21.2343 H   0  0  0  0  0  0
  -27.9869  -25.7481   18.2516 H   0  0  0  0  0  0
  -29.6227  -25.8019   18.7303 H   0  0  0  0  0  0
  -30.0346  -17.1337   22.3315 H   0  0  0  0  0  0
  -31.3521  -17.0256   21.2060 H   0  0  0  0  0  0
  -29.0500  -15.1577   21.5088 H   0  0  0  0  0  0
  -28.1549  -16.0616   19.2842 H   0  0  0  0  0  0
  -27.4284  -17.2243   18.4069 H   0  0  0  0  0  0
  -26.6193  -16.4681   19.6240 H   0  0  0  0  0  0
  1 25  1  0  0  0
  1 30  2  0  0  0
  1 85  1  0  0  0
  2  3  1  0  0  0
  2 25  1  0  0  0
  2 87  1  0  0  0
  2 88  1  0  0  0
  3  4  1  0  0  0
  3 89  1  0  0  0
  3 90  1  0  0  0
  4  5  1  0  0  0
  4 91  1  0  0  0
  4 92  1  0  0  0
  5  6  1  0  0  0
  5 26  1  0  0  0
  5 93  1  0  0  0
  6 25  1  0  0  0
  6 94  1  0  0  0
  6 95  1  0  0  0
  7  8  2  0  0  0
  7 26  1  0  0  0
  7 29  1  0  0  0
  8  9  1  0  0  0
  8 22  1  0  0  0
  9 10  1  0  0  0
  9 27  2  0  0  0
 10 11  2  0  0  0
 10 15  1  0  0  0
 11 12  1  0  0  0
 11 96  1  0  0  0
 12 13  2  0  0  0
 12 97  1  0  0  0
 13 14  1  0  0  0
 13 31  1  0  0  0
 14 15  2  0  0  0
 14 98  1  0  0  0
 15 99  1  0  0  0
 16 17  2  0  0  0
 16 21  1  0  0  0
 16 31  1  0  0  0
 17 18  1  0  0  0
 17100  1  0  0  0
 18 19  2  0  0  0
 18101  1  0  0  0
 19 20  1  0  0  0
 19 24  1  0  0  0
 20 21  2  0  0  0
 20102  1  0  0  0
 21 23  1  0  0  0
 22 28  1  0  0  0
 22 32  2  0  0  0
 26 27  1  0  0  0
 28103  1  0  0  0
 28104  1  0  0  0
 29105  1  0  0  0
 29106  1  0  0  0
 33 34  1  0  0  0
 33 66  1  0  0  0
 33 70  2  0  0  0
 34 36  1  0  0  0
 34 59  1  0  0  0
 34107  1  0  0  0
 35 44  2  0  0  0
 35 45  1  0  0  0
 35 68  1  0  0  0
 36 56  1  0  0  0
 36108  1  0  0  0
 37 39  1  0  0  0
 37 47  1  0  0  0
 37 66  1  0  0  0
 37109  1  0  0  0
 38 43  2  0  0  0
 38 46  1  0  0  0
 38 47  1  0  0  0
 39 64  1  0  0  0
 39 67  2  0  0  0
 40 52  1  0  0  0
 40 53  2  0  0  0
 40 58  1  0  0  0
 41110  1  0  0  0
 41111  1  0  0  0
 41112  1  0  0  0
 41 48  1  0  0  0
 42 43  1  0  0  0
 42 66  1  0  0  0
 42113  1  0  0  0
 42114  1  0  0  0
 43 44  1  0  0  0
 44115  1  0  0  0
 45 46  2  0  0  0
 45116  1  0  0  0
 46117  1  0  0  0
 47118  1  0  0  0
 47119  1  0  0  0
 48 56  1  0  0  0
 48 65  1  0  0  0
 48120  1  0  0  0
 49 50  1  0  0  0
 49 53  1  0  0  0
 49 64  1  0  0  0
 49121  1  0  0  0
 50 51  1  0  0  0
 50122  1  0  0  0
 50123  1  0  0  0
 51 52  1  0  0  0
 51124  1  0  0  0
 51125  1  0  0  0
 52126  1  0  0  0
 52127  1  0  0  0
 53 54  1  0  0  0
 54 55  2  0  0  0
 54128  1  0  0  0
 55 57  1  0  0  0
 55129  1  0  0  0
 56 69  2  0  0  0
 57 58  2  0  0  0
 57130  1  0  0  0
 58131  1  0  0  0
 59 60  1  0  0  0
 59 61  1  0  0  0
 59 62  1  0  0  0
 60132  1  0  0  0
 60133  1  0  0  0
 60134  1  0  0  0
 61135  1  0  0  0
 61136  1  0  0  0
 61137  1  0  0  0
 62138  1  0  0  0
 62139  1  0  0  0
 62140  1  0  0  0
 63 65  1  0  0  0
 63141  1  0  0  0
 63142  1  0  0  0
 63143  1  0  0  0
 64144  1  0  0  0
 65145  1  0  0  0
 68 80  1  0  0  0
 71 72  2  0  0  0
 71 82  1  0  0  0
 71146  1  0  0  0
 72 73  1  0  0  0
 72 80  1  0  0  0
 73 79  1  0  0  0
 73 83  2  0  0  0
 74 82  2  0  0  0
 74 83  1  0  0  0
 74 84  1  0  0  0
 75 77  1  0  0  0
 75 84  1  0  0  0
 75147  1  0  0  0
 75148  1  0  0  0
 76 78  1  0  0  0
 76 84  1  0  0  0
 76149  1  0  0  0
 76150  1  0  0  0
 77 78  1  0  0  0
 77 81  1  0  0  0
 77151  1  0  0  0
 78 86  1  0  0  0
 78152  1  0  0  0
 79153  1  0  0  0
 79154  1  0  0  0
 79155  1  0  0  0
 80156  1  0  0  0
 80157  1  0  0  0
 81 85  1  0  0  0
 81158  1  0  0  0
 81159  1  0  0  0
 85160  1  0  0  0
 86161  1  0  0  0
 86162  1  0  0  0
 86163  1  0  0  0
M  CHG  1  86   1
M  ISO  4   1 100  68 101  80 101  85 100
M  END
> <chiral flag>
0

> <version>
0

> <s_m_source_file>
/data/baiqing/PycharmProjects/Reinvent-master-3.2/result/LINK_invent/BTK/process_docking_weight1_custom_sum_contain_oxygen_bond_distance_aromatic_linkinvent_7_9_3/rearranged_h_0183.sdf

> <i_m_source_file_index>
56

> <r_mmod_Potential_Energy-OPLS-2005>
-749.194091796875

> <r_mmod_Stretch_Energy-OPLS-2005>
39.5434608459473

> <r_mmod_Bend_Energy-OPLS-2005>
139.691711425781

> <r_mmod_Torsional_Energy-OPLS-2005>
303.127014160156

> <r_mmod_Improper_Torsional_Energy-OPLS-2005>
12.9772605895996

> <r_mmod_Van_der_Waal_Energy-OPLS-2005>
165.029449462891

> <r_mmod_Electrostatic_Energy-OPLS-2005>
-921.639038085938

> <r_mmod_Solvation_Energy-OPLS-2005>
-502.262847900391

> <b_mmod_Minimization_Converged-OPLS-2005>
0

> <r_mmod_RMS_Derivative-OPLS-2005>
2.28617310523987

$$$$
57
                    3D
 Structure written by MMmdl.
166175  0  0  1  0            999 V2000
  -30.4306  -15.2818   20.3482 C   0  0  0  0  0  0
  -30.4387  -12.8165   19.5268 C   0  0  0  0  0  0
  -29.5364  -12.5826   18.2881 C   0  0  0  0  0  0
  -28.0878  -12.2945   18.7192 C   0  0  0  0  0  0
  -27.6106  -13.2760   19.8187 C   0  0  2  0  0  0
  -28.6430  -13.4662   20.9514 C   0  0  0  0  0  0
  -25.2381  -13.8252   20.5731 C   0  0  0  0  0  0
  -24.1739  -13.0438   20.9261 C   0  0  0  0  0  0
  -24.6400  -11.6941   20.8768 C   0  0  0  0  0  0
  -23.9100  -10.4285   21.0404 C   0  0  0  0  0  0
  -24.3649   -9.4198   21.9175 C   0  0  0  0  0  0
  -23.6312   -8.2236   22.0742 C   0  0  0  0  0  0
  -22.4291   -8.0280   21.3539 C   0  0  0  0  0  0
  -21.9941   -9.0246   20.4628 C   0  0  0  0  0  0
  -22.7279  -10.2123   20.3036 C   0  0  0  0  0  0
  -21.6854   -6.0740   22.5275 C   0  0  0  0  0  0
  -21.4014   -6.5631   23.8211 C   0  0  0  0  0  0
  -21.3665   -5.6780   24.9168 C   0  0  0  0  0  0
  -21.6041   -4.3043   24.7218 C   0  0  0  0  0  0
  -21.8825   -3.8144   23.4333 C   0  0  0  0  0  0
  -21.9191   -4.6962   22.3398 C   0  0  0  0  0  0
  -22.7752  -13.5183   21.1918 C   0  0  0  0  0  0
  -22.1657   -4.2158   21.0971 F   0  0  0  0  0  0
  -21.5640   -3.4523   25.7723 F   0  0  0  0  0  0
  -29.8773  -13.9686   20.3248 N   0  0  0  0  0  0
  -26.2813  -12.9528   20.3202 N   0  0  0  0  0  0
  -25.9342  -11.6632   20.5727 N   0  0  0  0  0  0
  -22.0406  -12.8152   22.0455 N   0  0  0  0  0  0
  -25.3996  -15.1993   20.4166 N   0  0  0  0  0  0
  -31.6510  -15.2881   20.1290 O   0  0  0  0  0  0
  -21.6639   -6.8889   21.4241 O   0  0  0  0  0  0
  -22.3432  -14.5475   20.6746 O   0  0  0  0  0  0
  -24.6604  -31.8201   23.1700 C   0  0  0  0  0  0
  -25.9297  -32.4562   23.8145 C   0  0  1  0  0  0
  -27.2308  -26.9327   20.1786 C   0  0  0  0  0  0
  -25.5974  -33.8391   24.2055 N   0  0  0  0  0  0
  -23.4766  -30.4293   21.5176 C   0  0  2  0  0  0
  -24.9351  -28.8169   20.1063 C   0  0  0  0  0  0
  -22.7655  -29.4399   22.4756 C   0  0  0  0  0  0
  -18.0316  -28.1413   22.8454 C   0  0  0  0  0  0
  -24.1499  -36.7179   23.2651 C   0  0  0  0  0  0
  -26.0438  -30.6248   21.4068 C   0  0  0  0  0  0
  -26.1127  -29.2173   20.7475 C   0  0  0  0  0  0
  -27.2479  -28.2929   20.7677 C   0  0  0  0  0  0
  -26.0288  -26.6822   19.4814 C   0  0  0  0  0  0
  -24.9170  -27.5695   19.4579 C   0  0  0  0  0  0
  -23.7180  -29.7415   20.1431 C   0  0  0  0  0  0
  -25.4150  -36.2950   24.0300 C   0  0  1  0  0  0
  -20.5943  -28.3743   23.1190 C   0  0  2  0  0  0
  -20.6798  -26.9427   22.5409 C   0  0  0  0  0  0
  -19.5780  -26.6369   21.5221 C   0  0  0  0  0  0
  -18.1951  -26.7942   22.1607 C   0  0  0  0  0  0
  -19.1577  -28.8903   23.2803 C   0  0  0  0  0  0
  -18.9492  -30.1490   23.8851 C   0  0  0  0  0  0
  -17.6489  -30.6600   24.0553 C   0  0  0  0  0  0
  -25.9112  -34.9336   23.4997 C   0  0  0  0  0  0
  -16.5377  -29.9088   23.6366 C   0  0  0  0  0  0
  -16.7297  -28.6511   23.0378 C   0  0  0  0  0  0
  -26.4600  -31.6516   25.0668 C   0  0  0  0  0  0
  -25.3711  -31.3754   26.1284 C   0  0  0  0  0  0
  -27.0534  -30.2900   24.6420 C   0  0  0  0  0  0
  -27.6083  -32.4351   25.7464 C   0  0  0  0  0  0
  -27.5577  -37.1730   24.8475 C   0  0  0  0  0  0
  -21.4332  -29.3004   22.3507 N   0  0  0  0  0  0
  -26.4286  -37.3692   23.9424 N   0  0  0  0  0  0
  -24.7474  -30.9851   22.0848 N   0  0  0  0  0  0
  -23.4191  -28.7977   23.3013 O   0  0  0  0  0  0
  -28.2510  -25.8545   20.3209 O   0  0  0  0  0  0
  -26.5705  -34.8869   22.4581 O   0  0  0  0  0  0
  -23.5688  -32.1182   23.6784 O   0  0  0  0  0  0
  -29.8347  -20.9544   16.4560 C   0  0  0  0  0  0
  -29.6142  -22.2629   17.1816 C   0  0  0  0  0  0
  -29.3944  -18.8598   18.8395 C   0  0  0  0  0  0
  -29.0788  -19.5230   21.0175 C   0  0  2  0  0  0
  -29.8205  -18.2130   20.2224 C   0  0  1  0  0  0
  -30.1831  -21.0733   17.9238 C   0  0  0  0  0  0
  -29.2072  -21.0268   20.2127 C   0  0  2  0  0  0
  -29.0846  -18.3890   23.3227 C   0  0  0  0  0  0
  -26.8607  -22.2738   20.6098 C   0  0  0  0  0  0
  -29.4994  -19.6172   22.4958 C   0  0  0  0  0  0
  -28.3768  -24.2859   19.8099 C   0  0  0  0  0  0
  -28.3540  -22.6157   20.5080 C   0  0  2  0  0  0
  -29.6476  -16.5458   20.4182 N   0  0  0  0  0  0
  -29.2242  -20.4050   18.8358 N   0  3  2  0  0  0
  -31.4591  -13.0163   19.1970 H   0  0  0  0  0  0
  -30.5023  -11.9140   20.1369 H   0  0  0  0  0  0
  -29.9210  -11.7613   17.6824 H   0  0  0  0  0  0
  -29.5576  -13.4704   17.6549 H   0  0  0  0  0  0
  -28.0552  -11.2745   19.1041 H   0  0  0  0  0  0
  -27.4170  -12.3175   17.8595 H   0  0  0  0  0  0
  -27.5201  -14.2373   19.3126 H   0  0  0  0  0  0
  -28.8108  -12.5399   21.5007 H   0  0  0  0  0  0
  -28.2803  -14.1976   21.6758 H   0  0  0  0  0  0
  -25.2797   -9.5667   22.4749 H   0  0  0  0  0  0
  -24.0013   -7.4624   22.7461 H   0  0  0  0  0  0
  -21.0874   -8.8770   19.8925 H   0  0  0  0  0  0
  -22.3750  -10.9657   19.6131 H   0  0  0  0  0  0
  -21.2000   -7.6135   23.9731 H   0  0  0  0  0  0
  -21.1489   -6.0493   25.9076 H   0  0  0  0  0  0
  -22.0606   -2.7606   23.2825 H   0  0  0  0  0  0
  -22.4051  -11.9846   22.4860 H   0  0  0  0  0  0
  -21.1011  -13.1144   22.2649 H   0  0  0  0  0  0
  -24.6215  -15.8430   20.5161 H   0  0  0  0  0  0
  -26.2334  -15.6393   20.0514 H   0  0  0  0  0  0
  -26.7326  -32.5110   23.0812 H   0  0  0  0  0  0
  -25.0140  -33.9497   25.0221 H   0  0  0  0  0  0
  -22.7903  -31.2615   21.3428 H   0  0  0  0  0  0
  -23.3799  -35.9465   23.3281 H   0  0  0  0  0  0
  -24.3561  -36.8881   22.2071 H   0  0  0  0  0  0
  -23.7235  -37.6348   23.6733 H   0  0  0  0  0  0
  -26.2329  -31.3718   20.6342 H   0  0  0  0  0  0
  -26.8983  -30.6685   22.0701 H   0  0  0  0  0  0
  -28.1307  -28.5870   21.3184 H   0  0  0  0  0  0
  -25.9097  -25.7267   18.9923 H   0  0  0  0  0  0
  -24.0196  -27.2577   18.9443 H   0  0  0  0  0  0
  -23.8709  -30.5080   19.3826 H   0  0  0  0  0  0
  -22.8300  -29.1916   19.8243 H   0  0  0  0  0  0
  -25.1353  -36.1730   25.0793 H   0  0  0  0  0  0
  -21.0016  -28.3342   24.1322 H   0  0  0  0  0  0
  -20.5739  -26.2341   23.3639 H   0  0  0  0  0  0
  -21.6658  -26.7436   22.1193 H   0  0  0  0  0  0
  -19.6974  -25.6277   21.1275 H   0  0  0  0  0  0
  -19.6762  -27.3152   20.6739 H   0  0  0  0  0  0
  -17.4247  -26.6710   21.3984 H   0  0  0  0  0  0
  -18.0325  -26.0097   22.9011 H   0  0  0  0  0  0
  -19.7977  -30.7308   24.2202 H   0  0  0  0  0  0
  -17.5055  -31.6290   24.5136 H   0  0  0  0  0  0
  -15.5382  -30.2974   23.7756 H   0  0  0  0  0  0
  -15.8685  -28.0814   22.7142 H   0  0  0  0  0  0
  -24.5913  -30.7112   25.7538 H   0  0  0  0  0  0
  -24.8882  -32.2960   26.4566 H   0  0  0  0  0  0
  -25.7892  -30.8975   27.0146 H   0  0  0  0  0  0
  -26.3215  -29.6532   24.1437 H   0  0  0  0  0  0
  -27.4115  -29.7295   25.5067 H   0  0  0  0  0  0
  -27.9132  -30.4144   23.9834 H   0  0  0  0  0  0
  -27.2651  -33.3713   26.1878 H   0  0  0  0  0  0
  -28.3953  -32.6818   25.0320 H   0  0  0  0  0  0
  -28.0672  -31.8595   26.5512 H   0  0  0  0  0  0
  -28.2547  -38.0066   24.7529 H   0  0  0  0  0  0
  -28.1119  -36.2585   24.6290 H   0  0  0  0  0  0
  -27.2271  -37.1343   25.8870 H   0  0  0  0  0  0
  -20.9585  -29.8663   21.6612 H   0  0  0  0  0  0
  -26.0134  -38.2752   24.1443 H   0  0  0  0  0  0
  -30.6632  -20.9024   15.7514 H   0  0  0  0  0  0
  -28.9514  -20.3814   16.1737 H   0  0  0  0  0  0
  -28.5824  -22.5575   17.3636 H   0  0  0  0  0  0
  -30.2945  -23.0827   16.9583 H   0  0  0  0  0  0
  -28.4270  -18.4442   18.5589 H   0  0  0  0  0  0
  -30.0788  -18.5428   18.0529 H   0  0  0  0  0  0
  -28.0095  -19.3048   21.0199 H   0  0  0  0  0  0
  -30.8939  -18.3800   20.3245 H   0  0  0  0  0  0
  -31.2284  -21.0554   18.2309 H   0  0  0  0  0  0
  -30.2468  -21.2965   20.4018 H   0  0  0  0  0  0
  -29.3605  -18.5096   24.3700 H   0  0  0  0  0  0
  -29.5624  -17.4780   22.9636 H   0  0  0  0  0  0
  -28.0055  -18.2348   23.2872 H   0  0  0  0  0  0
  -26.6850  -21.4050   21.2434 H   0  0  0  0  0  0
  -26.4473  -22.0571   19.6243 H   0  0  0  0  0  0
  -26.2926  -23.1051   21.0303 H   0  0  0  0  0  0
  -29.0403  -20.5014   22.9402 H   0  0  0  0  0  0
  -30.5767  -19.7699   22.5656 H   0  0  0  0  0  0
  -27.7141  -24.2380   18.9463 H   0  0  0  0  0  0
  -29.3649  -24.3233   19.3501 H   0  0  0  0  0  0
  -28.6711  -22.8165   21.5311 H   0  0  0  0  0  0
  -28.6792  -16.3135   20.5807 H   0  0  0  0  0  0
  -28.3073  -20.5551   18.4445 H   0  0  0  0  0  0
  1 25  1  0  0  0
  1 30  2  0  0  0
  1 83  1  0  0  0
  2  3  1  0  0  0
  2 25  1  0  0  0
  2 85  1  0  0  0
  2 86  1  0  0  0
  3  4  1  0  0  0
  3 87  1  0  0  0
  3 88  1  0  0  0
  4  5  1  0  0  0
  4 89  1  0  0  0
  4 90  1  0  0  0
  5  6  1  0  0  0
  5 26  1  0  0  0
  5 91  1  0  0  0
  6 25  1  0  0  0
  6 92  1  0  0  0
  6 93  1  0  0  0
  7  8  2  0  0  0
  7 26  1  0  0  0
  7 29  1  0  0  0
  8  9  1  0  0  0
  8 22  1  0  0  0
  9 10  1  0  0  0
  9 27  2  0  0  0
 10 11  2  0  0  0
 10 15  1  0  0  0
 11 12  1  0  0  0
 11 94  1  0  0  0
 12 13  2  0  0  0
 12 95  1  0  0  0
 13 14  1  0  0  0
 13 31  1  0  0  0
 14 15  2  0  0  0
 14 96  1  0  0  0
 15 97  1  0  0  0
 16 17  2  0  0  0
 16 21  1  0  0  0
 16 31  1  0  0  0
 17 18  1  0  0  0
 17 98  1  0  0  0
 18 19  2  0  0  0
 18 99  1  0  0  0
 19 20  1  0  0  0
 19 24  1  0  0  0
 20 21  2  0  0  0
 20100  1  0  0  0
 21 23  1  0  0  0
 22 28  1  0  0  0
 22 32  2  0  0  0
 26 27  1  0  0  0
 28101  1  0  0  0
 28102  1  0  0  0
 29103  1  0  0  0
 29104  1  0  0  0
 33 34  1  0  0  0
 33 66  1  0  0  0
 33 70  2  0  0  0
 34 36  1  0  0  0
 34 59  1  0  0  0
 34105  1  0  0  0
 35 44  2  0  0  0
 35 45  1  0  0  0
 35 68  1  0  0  0
 36 56  1  0  0  0
 36106  1  0  0  0
 37 39  1  0  0  0
 37 47  1  0  0  0
 37 66  1  0  0  0
 37107  1  0  0  0
 38 43  2  0  0  0
 38 46  1  0  0  0
 38 47  1  0  0  0
 39 64  1  0  0  0
 39 67  2  0  0  0
 40 52  1  0  0  0
 40 53  2  0  0  0
 40 58  1  0  0  0
 41108  1  0  0  0
 41109  1  0  0  0
 41110  1  0  0  0
 41 48  1  0  0  0
 42 43  1  0  0  0
 42 66  1  0  0  0
 42111  1  0  0  0
 42112  1  0  0  0
 43 44  1  0  0  0
 44113  1  0  0  0
 45 46  2  0  0  0
 45114  1  0  0  0
 46115  1  0  0  0
 47116  1  0  0  0
 47117  1  0  0  0
 48 56  1  0  0  0
 48 65  1  0  0  0
 48118  1  0  0  0
 49 50  1  0  0  0
 49 53  1  0  0  0
 49 64  1  0  0  0
 49119  1  0  0  0
 50 51  1  0  0  0
 50120  1  0  0  0
 50121  1  0  0  0
 51 52  1  0  0  0
 51122  1  0  0  0
 51123  1  0  0  0
 52124  1  0  0  0
 52125  1  0  0  0
 53 54  1  0  0  0
 54 55  2  0  0  0
 54126  1  0  0  0
 55 57  1  0  0  0
 55127  1  0  0  0
 56 69  2  0  0  0
 57 58  2  0  0  0
 57128  1  0  0  0
 58129  1  0  0  0
 59 60  1  0  0  0
 59 61  1  0  0  0
 59 62  1  0  0  0
 60130  1  0  0  0
 60131  1  0  0  0
 60132  1  0  0  0
 61133  1  0  0  0
 61134  1  0  0  0
 61135  1  0  0  0
 62136  1  0  0  0
 62137  1  0  0  0
 62138  1  0  0  0
 63 65  1  0  0  0
 63139  1  0  0  0
 63140  1  0  0  0
 63141  1  0  0  0
 64142  1  0  0  0
 65143  1  0  0  0
 68 81  1  0  0  0
 71 72  1  0  0  0
 71144  1  0  0  0
 71145  1  0  0  0
 71 76  1  0  0  0
 72 76  1  0  0  0
 72146  1  0  0  0
 72147  1  0  0  0
 73 75  1  0  0  0
 73148  1  0  0  0
 73149  1  0  0  0
 73 84  1  0  0  0
 74 75  1  0  0  0
 74 77  1  0  0  0
 74 80  1  0  0  0
 74150  1  0  0  0
 75 83  1  0  0  0
 75151  1  0  0  0
 76 84  1  0  0  0
 76152  1  0  0  0
 77 82  1  0  0  0
 77 84  1  0  0  0
 77153  1  0  0  0
 78 80  1  0  0  0
 78154  1  0  0  0
 78155  1  0  0  0
 78156  1  0  0  0
 79157  1  0  0  0
 79158  1  0  0  0
 79159  1  0  0  0
 79 82  1  0  0  0
 80160  1  0  0  0
 80161  1  0  0  0
 81 82  1  0  0  0
 81162  1  0  0  0
 81163  1  0  0  0
 82164  1  0  0  0
 83165  1  0  0  0
 84166  1  0  0  0
M  CHG  1  84   1
M  ISO  4   1 100  68 101  81 101  83 100
M  END
> <chiral flag>
0

> <version>
0

> <s_m_source_file>
/data/baiqing/PycharmProjects/Reinvent-master-3.2/result/LINK_invent/BTK/process_docking_weight1_custom_sum_contain_oxygen_bond_distance_aromatic_linkinvent_7_9_3/rearranged_h_0183.sdf

> <i_m_source_file_index>
57

> <r_mmod_Potential_Energy-OPLS-2005>
1352.25183105469

> <r_mmod_Stretch_Energy-OPLS-2005>
595.28076171875

> <r_mmod_Bend_Energy-OPLS-2005>
538.564819335938

> <r_mmod_Torsional_Energy-OPLS-2005>
333.208892822266

> <r_mmod_Improper_Torsional_Energy-OPLS-2005>
4.23015832901001

> <r_mmod_Van_der_Waal_Energy-OPLS-2005>
93.1024475097656

> <r_mmod_Electrostatic_Energy-OPLS-2005>
-220.256362915039

> <r_mmod_Solvation_Energy-OPLS-2005>
-459.277526855469

> <b_mmod_Minimization_Converged-OPLS-2005>
0

> <r_mmod_RMS_Derivative-OPLS-2005>
2.71231341362

$$$$
58
                    3D
 Structure written by MMmdl.
157166  0  0  1  0            999 V2000
  -30.6105  -14.7631   20.4495 C   0  0  0  0  0  0
  -30.4404  -12.4669   19.4682 C   0  0  0  0  0  0
  -29.5100  -12.5021   18.2344 C   0  0  0  0  0  0
  -28.0349  -12.3307   18.6487 C   0  0  0  0  0  0
  -27.6439  -13.2274   19.8552 C   0  0  2  0  0  0
  -28.6950  -13.1409   20.9824 C   0  0  0  0  0  0
  -25.2544  -13.8173   20.5798 C   0  0  0  0  0  0
  -24.1808  -13.0411   20.9215 C   0  0  0  0  0  0
  -24.6406  -11.6886   20.8746 C   0  0  0  0  0  0
  -23.9084  -10.4273   21.0419 C   0  0  0  0  0  0
  -24.3635   -9.4185   21.9193 C   0  0  0  0  0  0
  -23.6297   -8.2232   22.0765 C   0  0  0  0  0  0
  -22.4280   -8.0272   21.3562 C   0  0  0  0  0  0
  -21.9916   -9.0254   20.4668 C   0  0  0  0  0  0
  -22.7251  -10.2126   20.3078 C   0  0  0  0  0  0
  -21.6857   -6.0736   22.5300 C   0  0  0  0  0  0
  -21.3994   -6.5644   23.8229 C   0  0  0  0  0  0
  -21.3661   -5.6799   24.9197 C   0  0  0  0  0  0
  -21.6047   -4.3065   24.7241 C   0  0  0  0  0  0
  -21.8819   -3.8150   23.4361 C   0  0  0  0  0  0
  -21.9193   -4.6960   22.3419 C   0  0  0  0  0  0
  -22.7842  -13.5211   21.1843 C   0  0  0  0  0  0
  -22.1654   -4.2147   21.0991 F   0  0  0  0  0  0
  -21.5648   -3.4538   25.7751 F   0  0  0  0  0  0
  -29.9839  -13.5311   20.3951 N   0  0  0  0  0  0
  -26.2965  -12.9384   20.3353 N   0  0  0  0  0  0
  -25.9337  -11.6511   20.5756 N   0  0  0  0  0  0
  -22.0464  -12.8264   22.0418 N   0  0  0  0  0  0
  -25.4168  -15.1908   20.4392 N   0  0  0  0  0  0
  -31.7902  -14.8405   20.0892 O   0  0  0  0  0  0
  -21.6633   -6.8865   21.4264 O   0  0  0  0  0  0
  -22.3553  -14.5521   20.6659 O   0  0  0  0  0  0
  -24.6344  -31.8482   23.1885 C   0  0  0  0  0  0
  -25.9176  -32.4709   23.8225 C   0  0  1  0  0  0
  -27.2232  -27.2273   20.1259 C   0  0  0  0  0  0
  -25.5998  -33.8509   24.2162 N   0  0  0  0  0  0
  -23.4311  -30.4700   21.5325 C   0  0  2  0  0  0
  -24.8793  -28.9086   20.0985 C   0  0  0  0  0  0
  -22.7521  -29.4576   22.4867 C   0  0  0  0  0  0
  -18.0300  -28.1399   22.8487 C   0  0  0  0  0  0
  -24.1499  -36.7208   23.2639 C   0  0  0  0  0  0
  -25.9793  -30.7498   21.3742 C   0  0  0  0  0  0
  -26.0476  -29.3708   20.7134 C   0  0  0  0  0  0
  -27.2160  -28.5399   20.7176 C   0  0  0  0  0  0
  -26.0315  -26.8330   19.4811 C   0  0  0  0  0  0
  -24.8808  -27.6507   19.4696 C   0  0  0  0  0  0
  -23.6480  -29.7972   20.1486 C   0  0  0  0  0  0
  -25.4128  -36.3009   24.0319 C   0  0  1  0  0  0
  -20.5903  -28.3713   23.1258 C   0  0  2  0  0  0
  -20.6773  -26.9433   22.5406 C   0  0  0  0  0  0
  -19.5751  -26.6381   21.5214 C   0  0  0  0  0  0
  -18.1934  -26.7940   22.1619 C   0  0  0  0  0  0
  -19.1558  -28.8875   23.2855 C   0  0  0  0  0  0
  -18.9483  -30.1479   23.8867 C   0  0  0  0  0  0
  -17.6469  -30.6593   24.0572 C   0  0  0  0  0  0
  -25.9085  -34.9417   23.5024 C   0  0  0  0  0  0
  -16.5364  -29.9099   23.6354 C   0  0  0  0  0  0
  -16.7285  -28.6513   23.0355 C   0  0  0  0  0  0
  -26.4539  -31.6575   25.0646 C   0  0  0  0  0  0
  -25.3721  -31.3800   26.1339 C   0  0  0  0  0  0
  -27.0349  -30.2958   24.6180 C   0  0  0  0  0  0
  -27.6082  -32.4342   25.7405 C   0  0  0  0  0  0
  -27.5577  -37.1756   24.8472 C   0  0  0  0  0  0
  -21.4220  -29.3037   22.3631 N   0  0  0  0  0  0
  -26.4273  -37.3743   23.9434 N   0  0  0  0  0  0
  -24.7009  -31.0429   22.0877 N   0  0  0  0  0  0
  -23.4207  -28.8143   23.3007 O   0  0  0  0  0  0
  -28.3283  -26.3435   20.2367 O   0  0  0  0  0  0
  -26.5638  -34.8937   22.4593 O   0  0  0  0  0  0
  -23.5495  -32.1331   23.7172 O   0  0  0  0  0  0
  -29.1994  -22.4248   19.9400 C   0  0  0  0  0  0
  -28.2963  -23.5545   20.1065 C   0  0  0  0  0  0
  -28.8011  -21.0874   20.3088 C   0  0  0  0  0  0
  -26.7863  -22.0106   20.9446 C   0  0  0  0  0  0
  -29.1306  -17.9176   21.8179 C   0  0  0  0  0  0
  -29.1112  -16.3596   21.7364 C   0  0  0  0  0  0
  -30.0608  -17.2333   19.7745 C   0  0  0  0  0  0
  -29.1733  -18.4208   20.3728 C   0  0  2  0  0  0
  -25.3876  -21.7383   21.4640 C   0  0  0  0  0  0
  -28.5141  -25.0352   19.4957 C   0  0  0  0  0  0
  -27.0806  -23.2791   20.6313 N   0  0  0  0  0  0
  -27.5666  -20.9346   20.8053 N   0  0  0  0  0  0
  -29.8446  -15.9355   20.5341 N   0  0  0  0  0  0
  -29.5986  -19.8773   20.1758 N   0  0  0  0  0  0
  -31.4755  -12.6018   19.1513 H   0  0  0  0  0  0
  -30.4084  -11.4892   19.9517 H   0  0  0  0  0  0
  -29.7929  -11.7227   17.5258 H   0  0  0  0  0  0
  -29.6297  -13.4513   17.7086 H   0  0  0  0  0  0
  -27.8870  -11.2810   18.9053 H   0  0  0  0  0  0
  -27.3772  -12.5255   17.8010 H   0  0  0  0  0  0
  -27.6420  -14.2538   19.4860 H   0  0  0  0  0  0
  -28.7465  -12.1255   21.3802 H   0  0  0  0  0  0
  -28.4272  -13.7712   21.8290 H   0  0  0  0  0  0
  -25.2777   -9.5654   22.4785 H   0  0  0  0  0  0
  -24.0007   -7.4623   22.7501 H   0  0  0  0  0  0
  -21.0836   -8.8779   19.8987 H   0  0  0  0  0  0
  -22.3703  -10.9682   19.6211 H   0  0  0  0  0  0
  -21.1956   -7.6149   23.9731 H   0  0  0  0  0  0
  -21.1491   -6.0526   25.9104 H   0  0  0  0  0  0
  -22.0585   -2.7610   23.2870 H   0  0  0  0  0  0
  -22.3979  -11.9899   22.4835 H   0  0  0  0  0  0
  -21.1118  -13.1386   22.2625 H   0  0  0  0  0  0
  -24.6497  -15.8307   20.6149 H   0  0  0  0  0  0
  -26.2911  -15.6591   20.2398 H   0  0  0  0  0  0
  -26.7247  -32.5297   23.0960 H   0  0  0  0  0  0
  -25.0272  -33.9669   25.0391 H   0  0  0  0  0  0
  -22.7254  -31.2882   21.3792 H   0  0  0  0  0  0
  -23.3787  -35.9510   23.3284 H   0  0  0  0  0  0
  -24.3590  -36.8823   22.2052 H   0  0  0  0  0  0
  -23.7223  -37.6399   23.6664 H   0  0  0  0  0  0
  -26.1298  -31.5124   20.6094 H   0  0  0  0  0  0
  -26.8527  -30.7864   22.0156 H   0  0  0  0  0  0
  -28.1061  -28.8878   21.2218 H   0  0  0  0  0  0
  -25.9538  -25.8583   19.0222 H   0  0  0  0  0  0
  -23.9870  -27.2880   18.9824 H   0  0  0  0  0  0
  -23.7630  -30.5675   19.3835 H   0  0  0  0  0  0
  -22.7646  -29.2283   19.8525 H   0  0  0  0  0  0
  -25.1320  -36.1805   25.0806 H   0  0  0  0  0  0
  -21.0001  -28.3268   24.1372 H   0  0  0  0  0  0
  -20.5656  -26.2325   23.3605 H   0  0  0  0  0  0
  -21.6645  -26.7432   22.1219 H   0  0  0  0  0  0
  -19.6906  -25.6283   21.1268 H   0  0  0  0  0  0
  -19.6699  -27.3182   20.6740 H   0  0  0  0  0  0
  -17.4213  -26.6724   21.4013 H   0  0  0  0  0  0
  -18.0315  -26.0070   22.8998 H   0  0  0  0  0  0
  -19.7961  -30.7307   24.2211 H   0  0  0  0  0  0
  -17.5037  -31.6286   24.5166 H   0  0  0  0  0  0
  -15.5366  -30.2980   23.7702 H   0  0  0  0  0  0
  -15.8687  -28.0823   22.7076 H   0  0  0  0  0  0
  -24.6036  -30.6973   25.7728 H   0  0  0  0  0  0
  -24.8751  -32.2969   26.4516 H   0  0  0  0  0  0
  -25.8027  -30.9239   27.0254 H   0  0  0  0  0  0
  -26.2927  -29.6715   24.1201 H   0  0  0  0  0  0
  -27.3983  -29.7250   25.4731 H   0  0  0  0  0  0
  -27.8839  -30.4178   23.9444 H   0  0  0  0  0  0
  -27.2721  -33.3726   26.1838 H   0  0  0  0  0  0
  -28.3965  -32.6755   25.0258 H   0  0  0  0  0  0
  -28.0667  -31.8531   26.5422 H   0  0  0  0  0  0
  -28.2594  -38.0060   24.7525 H   0  0  0  0  0  0
  -28.1069  -36.2587   24.6267 H   0  0  0  0  0  0
  -27.2295  -37.1359   25.8878 H   0  0  0  0  0  0
  -20.9415  -29.8762   21.6832 H   0  0  0  0  0  0
  -26.0109  -38.2792   24.1467 H   0  0  0  0  0  0
  -30.1693  -22.5872   19.4879 H   0  0  0  0  0  0
  -30.0293  -18.2379   22.3510 H   0  0  0  0  0  0
  -28.2683  -18.3084   22.3592 H   0  0  0  0  0  0
  -28.0802  -16.0184   21.6457 H   0  0  0  0  0  0
  -29.5306  -15.9101   22.6386 H   0  0  0  0  0  0
  -31.1196  -17.4907   19.8256 H   0  0  0  0  0  0
  -29.8235  -17.0763   18.7212 H   0  0  0  0  0  0
  -28.1652  -18.3226   19.9640 H   0  0  0  0  0  0
  -24.9032  -22.6461   21.8221 H   0  0  0  0  0  0
  -25.4024  -21.0170   22.2824 H   0  0  0  0  0  0
  -24.7681  -21.3178   20.6731 H   0  0  0  0  0  0
  -27.9857  -25.0814   18.5432 H   0  0  0  0  0  0
  -29.5624  -25.0577   19.1956 H   0  0  0  0  0  0
  -30.5388  -20.0112   19.8218 H   0  0  0  0  0  0
  1 25  1  0  0  0
  1 30  2  0  0  0
  1 83  1  0  0  0
  2  3  1  0  0  0
  2 25  1  0  0  0
  2 85  1  0  0  0
  2 86  1  0  0  0
  3  4  1  0  0  0
  3 87  1  0  0  0
  3 88  1  0  0  0
  4  5  1  0  0  0
  4 89  1  0  0  0
  4 90  1  0  0  0
  5  6  1  0  0  0
  5 26  1  0  0  0
  5 91  1  0  0  0
  6 25  1  0  0  0
  6 92  1  0  0  0
  6 93  1  0  0  0
  7  8  2  0  0  0
  7 26  1  0  0  0
  7 29  1  0  0  0
  8  9  1  0  0  0
  8 22  1  0  0  0
  9 10  1  0  0  0
  9 27  2  0  0  0
 10 11  2  0  0  0
 10 15  1  0  0  0
 11 12  1  0  0  0
 11 94  1  0  0  0
 12 13  2  0  0  0
 12 95  1  0  0  0
 13 14  1  0  0  0
 13 31  1  0  0  0
 14 15  2  0  0  0
 14 96  1  0  0  0
 15 97  1  0  0  0
 16 17  2  0  0  0
 16 21  1  0  0  0
 16 31  1  0  0  0
 17 18  1  0  0  0
 17 98  1  0  0  0
 18 19  2  0  0  0
 18 99  1  0  0  0
 19 20  1  0  0  0
 19 24  1  0  0  0
 20 21  2  0  0  0
 20100  1  0  0  0
 21 23  1  0  0  0
 22 28  1  0  0  0
 22 32  2  0  0  0
 26 27  1  0  0  0
 28101  1  0  0  0
 28102  1  0  0  0
 29103  1  0  0  0
 29104  1  0  0  0
 33 34  1  0  0  0
 33 66  1  0  0  0
 33 70  2  0  0  0
 34 36  1  0  0  0
 34 59  1  0  0  0
 34105  1  0  0  0
 35 44  2  0  0  0
 35 45  1  0  0  0
 35 68  1  0  0  0
 36 56  1  0  0  0
 36106  1  0  0  0
 37 39  1  0  0  0
 37 47  1  0  0  0
 37 66  1  0  0  0
 37107  1  0  0  0
 38 43  2  0  0  0
 38 46  1  0  0  0
 38 47  1  0  0  0
 39 64  1  0  0  0
 39 67  2  0  0  0
 40 52  1  0  0  0
 40 53  2  0  0  0
 40 58  1  0  0  0
 41108  1  0  0  0
 41109  1  0  0  0
 41110  1  0  0  0
 41 48  1  0  0  0
 42 43  1  0  0  0
 42 66  1  0  0  0
 42111  1  0  0  0
 42112  1  0  0  0
 43 44  1  0  0  0
 44113  1  0  0  0
 45 46  2  0  0  0
 45114  1  0  0  0
 46115  1  0  0  0
 47116  1  0  0  0
 47117  1  0  0  0
 48 56  1  0  0  0
 48 65  1  0  0  0
 48118  1  0  0  0
 49 50  1  0  0  0
 49 53  1  0  0  0
 49 64  1  0  0  0
 49119  1  0  0  0
 50 51  1  0  0  0
 50120  1  0  0  0
 50121  1  0  0  0
 51 52  1  0  0  0
 51122  1  0  0  0
 51123  1  0  0  0
 52124  1  0  0  0
 52125  1  0  0  0
 53 54  1  0  0  0
 54 55  2  0  0  0
 54126  1  0  0  0
 55 57  1  0  0  0
 55127  1  0  0  0
 56 69  2  0  0  0
 57 58  2  0  0  0
 57128  1  0  0  0
 58129  1  0  0  0
 59 60  1  0  0  0
 59 61  1  0  0  0
 59 62  1  0  0  0
 60130  1  0  0  0
 60131  1  0  0  0
 60132  1  0  0  0
 61133  1  0  0  0
 61134  1  0  0  0
 61135  1  0  0  0
 62136  1  0  0  0
 62137  1  0  0  0
 62138  1  0  0  0
 63 65  1  0  0  0
 63139  1  0  0  0
 63140  1  0  0  0
 63141  1  0  0  0
 64142  1  0  0  0
 65143  1  0  0  0
 68 80  1  0  0  0
 71 72  2  0  0  0
 71 73  1  0  0  0
 71144  1  0  0  0
 72 80  1  0  0  0
 72 81  1  0  0  0
 73 82  2  0  0  0
 73 84  1  0  0  0
 74 79  1  0  0  0
 74 81  2  0  0  0
 74 82  1  0  0  0
 75 76  1  0  0  0
 75 78  1  0  0  0
 75145  1  0  0  0
 75146  1  0  0  0
 76 83  1  0  0  0
 76147  1  0  0  0
 76148  1  0  0  0
 77 78  1  0  0  0
 77 83  1  0  0  0
 77149  1  0  0  0
 77150  1  0  0  0
 78 84  1  0  0  0
 78151  1  0  0  0
 79152  1  0  0  0
 79153  1  0  0  0
 79154  1  0  0  0
 80155  1  0  0  0
 80156  1  0  0  0
 84157  1  0  0  0
M  ISO  4   1 100  68 101  80 101  83 100
M  END
> <chiral flag>
0

> <version>
0

> <s_m_source_file>
/data/baiqing/PycharmProjects/Reinvent-master-3.2/result/LINK_invent/BTK/process_docking_weight1_custom_sum_contain_oxygen_bond_distance_aromatic_linkinvent_7_9_3/rearranged_h_0183.sdf

> <i_m_source_file_index>
58

> <r_mmod_Potential_Energy-OPLS-2005>
-150.082855224609

> <r_mmod_Stretch_Energy-OPLS-2005>
129.584671020508

> <r_mmod_Bend_Energy-OPLS-2005>
231.899261474609

> <r_mmod_Torsional_Energy-OPLS-2005>
305.114318847656

> <r_mmod_Improper_Torsional_Energy-OPLS-2005>
13.4388303756714

> <r_mmod_Van_der_Waal_Energy-OPLS-2005>
133.065795898438

> <r_mmod_Electrostatic_Energy-OPLS-2005>
-822.263122558594

> <r_mmod_Solvation_Energy-OPLS-2005>
-237.676284790039

> <b_mmod_Minimization_Converged-OPLS-2005>
0

> <r_mmod_RMS_Derivative-OPLS-2005>
3.86361837387085

$$$$
59
                    3D
 Structure written by MMmdl.
156165  0  0  1  0            999 V2000
  -30.6398  -14.6880   20.4429 C   0  0  0  0  0  0
  -30.4373  -12.4209   19.4566 C   0  0  0  0  0  0
  -29.5095  -12.5176   18.2227 C   0  0  0  0  0  0
  -28.0337  -12.3468   18.6409 C   0  0  0  0  0  0
  -27.6491  -13.2305   19.8572 C   0  0  2  0  0  0
  -28.7013  -13.1334   20.9860 C   0  0  0  0  0  0
  -25.2535  -13.8147   20.5761 C   0  0  0  0  0  0
  -24.1799  -13.0411   20.9190 C   0  0  0  0  0  0
  -24.6366  -11.6896   20.8681 C   0  0  0  0  0  0
  -23.9016  -10.4252   21.0359 C   0  0  0  0  0  0
  -24.3583   -9.4199   21.9163 C   0  0  0  0  0  0
  -23.6265   -8.2220   22.0741 C   0  0  0  0  0  0
  -22.4219   -8.0233   21.3549 C   0  0  0  0  0  0
  -21.9850   -9.0193   20.4658 C   0  0  0  0  0  0
  -22.7175  -10.2078   20.3055 C   0  0  0  0  0  0
  -21.6844   -6.0690   22.5267 C   0  0  0  0  0  0
  -21.4002   -6.5611   23.8203 C   0  0  0  0  0  0
  -21.3680   -5.6788   24.9170 C   0  0  0  0  0  0
  -21.6064   -4.3034   24.7207 C   0  0  0  0  0  0
  -21.8829   -3.8114   23.4340 C   0  0  0  0  0  0
  -21.9184   -4.6930   22.3387 C   0  0  0  0  0  0
  -22.7816  -13.5243   21.1848 C   0  0  0  0  0  0
  -22.1659   -4.2122   21.0969 F   0  0  0  0  0  0
  -21.5655   -3.4525   25.7720 F   0  0  0  0  0  0
  -30.0131  -13.4647   20.4110 N   0  0  0  0  0  0
  -26.2952  -12.9382   20.3282 N   0  0  0  0  0  0
  -25.9296  -11.6525   20.5694 N   0  0  0  0  0  0
  -22.0423  -12.8257   22.0389 N   0  0  0  0  0  0
  -25.4287  -15.1879   20.4420 N   0  0  0  0  0  0
  -31.8126  -14.8196   20.0828 O   0  0  0  0  0  0
  -21.6630   -6.8829   21.4230 O   0  0  0  0  0  0
  -22.3535  -14.5568   20.6735 O   0  0  0  0  0  0
  -24.6266  -31.8573   23.1971 C   0  0  0  0  0  0
  -25.9109  -32.4763   23.8300 C   0  0  1  0  0  0
  -27.2359  -27.2753   20.1423 C   0  0  0  0  0  0
  -25.5894  -33.8556   24.2235 N   0  0  0  0  0  0
  -23.4238  -30.4766   21.5394 C   0  0  2  0  0  0
  -24.8746  -28.9137   20.1166 C   0  0  0  0  0  0
  -22.7472  -29.4614   22.4925 C   0  0  0  0  0  0
  -18.0292  -28.1383   22.8486 C   0  0  0  0  0  0
  -24.1504  -36.7280   23.2648 C   0  0  0  0  0  0
  -25.9654  -30.7698   21.3810 C   0  0  0  0  0  0
  -26.0372  -29.3895   20.7323 C   0  0  0  0  0  0
  -27.2151  -28.5811   20.7372 C   0  0  0  0  0  0
  -26.0503  -26.8620   19.4954 C   0  0  0  0  0  0
  -24.8827  -27.6549   19.4913 C   0  0  0  0  0  0
  -23.6413  -29.7963   20.1601 C   0  0  0  0  0  0
  -25.4125  -36.3080   24.0344 C   0  0  1  0  0  0
  -20.5884  -28.3688   23.1290 C   0  0  2  0  0  0
  -20.6780  -26.9409   22.5422 C   0  0  0  0  0  0
  -19.5759  -26.6375   21.5217 C   0  0  0  0  0  0
  -18.1930  -26.7916   22.1627 C   0  0  0  0  0  0
  -19.1538  -28.8854   23.2876 C   0  0  0  0  0  0
  -18.9461  -30.1456   23.8894 C   0  0  0  0  0  0
  -17.6463  -30.6599   24.0545 C   0  0  0  0  0  0
  -25.9061  -34.9452   23.5092 C   0  0  0  0  0  0
  -16.5354  -29.9087   23.6334 C   0  0  0  0  0  0
  -16.7274  -28.6500   23.0359 C   0  0  0  0  0  0
  -26.4479  -31.6583   25.0699 C   0  0  0  0  0  0
  -25.3684  -31.3785   26.1413 C   0  0  0  0  0  0
  -27.0289  -30.2968   24.6232 C   0  0  0  0  0  0
  -27.6073  -32.4309   25.7429 C   0  0  0  0  0  0
  -27.5610  -37.1790   24.8464 C   0  0  0  0  0  0
  -21.4194  -29.3034   22.3670 N   0  0  0  0  0  0
  -26.4315  -37.3775   23.9426 N   0  0  0  0  0  0
  -24.6901  -31.0559   22.0938 N   0  0  0  0  0  0
  -23.4194  -28.8189   23.3051 O   0  0  0  0  0  0
  -28.4036  -26.4802   20.1038 O   0  0  0  0  0  0
  -26.5655  -34.8932   22.4690 O   0  0  0  0  0  0
  -23.5425  -32.1387   23.7279 O   0  0  0  0  0  0
  -27.5622  -23.0296   20.8458 C   0  0  0  0  0  0
  -28.7784  -22.3489   20.5397 C   0  0  0  0  0  0
  -28.4379  -25.0790   20.2124 C   0  0  0  0  0  0
  -29.0420  -18.3317   20.6729 C   0  0  0  0  0  0
  -30.9546  -19.4901   20.0649 C   0  0  0  0  0  0
  -29.9662  -17.2039   20.0659 C   0  0  1  0  0  0
  -31.3107  -17.9566   20.1106 C   0  0  2  0  0  0
  -29.0086  -20.8388   21.0110 C   0  0  0  0  0  0
  -27.3937  -24.3831   20.6947 N   0  0  0  0  0  0
  -29.7908  -23.1288   20.0557 N   0  0  0  0  0  0
  -29.6154  -24.4746   19.8869 N   0  0  0  0  0  0
  -29.4897  -19.6666   20.1707 N   0  0  0  0  0  0
  -29.8576  -15.7987   20.6609 N   0  0  0  0  0  0
  -32.0991  -17.5876   21.2977 N   0  3  0  0  0  0
  -31.4799  -12.5311   19.1544 H   0  0  0  0  0  0
  -30.3717  -11.4374   19.9198 H   0  0  0  0  0  0
  -29.7764  -11.7645   17.4808 H   0  0  0  0  0  0
  -29.6399  -13.4842   17.7306 H   0  0  0  0  0  0
  -27.8761  -11.2982   18.8886 H   0  0  0  0  0  0
  -27.3805  -12.5637   17.7980 H   0  0  0  0  0  0
  -27.6488  -14.2553   19.4844 H   0  0  0  0  0  0
  -28.7211  -12.1259   21.4096 H   0  0  0  0  0  0
  -28.4526  -13.7928   21.8158 H   0  0  0  0  0  0
  -25.2714   -9.5733   22.4761 H   0  0  0  0  0  0
  -23.9974   -7.4656   22.7491 H   0  0  0  0  0  0
  -21.0756   -8.8754   19.8986 H   0  0  0  0  0  0
  -22.3613  -10.9637   19.6181 H   0  0  0  0  0  0
  -21.1998   -7.6113   23.9709 H   0  0  0  0  0  0
  -21.1509   -6.0483   25.9090 H   0  0  0  0  0  0
  -22.0591   -2.7573   23.2820 H   0  0  0  0  0  0
  -22.3925  -11.9911   22.4861 H   0  0  0  0  0  0
  -21.1089  -13.1484   22.2586 H   0  0  0  0  0  0
  -24.6866  -15.8459   20.6505 H   0  0  0  0  0  0
  -26.3060  -15.6363   20.2088 H   0  0  0  0  0  0
  -26.7162  -32.5399   23.1034 H   0  0  0  0  0  0
  -24.9967  -33.9675   25.0328 H   0  0  0  0  0  0
  -22.7178  -31.2967   21.3882 H   0  0  0  0  0  0
  -23.3793  -35.9579   23.3285 H   0  0  0  0  0  0
  -24.3592  -36.8924   22.2067 H   0  0  0  0  0  0
  -23.7234  -37.6474   23.6663 H   0  0  0  0  0  0
  -26.1121  -31.5310   20.6142 H   0  0  0  0  0  0
  -26.8373  -30.8139   22.0218 H   0  0  0  0  0  0
  -28.1079  -28.9548   21.2167 H   0  0  0  0  0  0
  -26.0156  -25.9033   18.9975 H   0  0  0  0  0  0
  -23.9936  -27.2860   19.0013 H   0  0  0  0  0  0
  -23.7538  -30.5590   19.3893 H   0  0  0  0  0  0
  -22.7623  -29.2182   19.8692 H   0  0  0  0  0  0
  -25.1317  -36.1940   25.0836 H   0  0  0  0  0  0
  -20.9975  -28.3281   24.1417 H   0  0  0  0  0  0
  -20.5695  -26.2309   23.3632 H   0  0  0  0  0  0
  -21.6654  -26.7459   22.1224 H   0  0  0  0  0  0
  -19.6931  -25.6280   21.1262 H   0  0  0  0  0  0
  -19.6699  -27.3184   20.6734 H   0  0  0  0  0  0
  -17.4214  -26.6672   21.4007 H   0  0  0  0  0  0
  -18.0323  -26.0052   22.9029 H   0  0  0  0  0  0
  -19.7940  -30.7246   24.2281 H   0  0  0  0  0  0
  -17.5029  -31.6291   24.5130 H   0  0  0  0  0  0
  -15.5345  -30.2987   23.7659 H   0  0  0  0  0  0
  -15.8671  -28.0803   22.7093 H   0  0  0  0  0  0
  -24.5745  -30.7296   25.7716 H   0  0  0  0  0  0
  -24.8992  -32.2966   26.4937 H   0  0  0  0  0  0
  -25.7928  -30.8815   27.0141 H   0  0  0  0  0  0
  -26.2845  -29.6727   24.1258 H   0  0  0  0  0  0
  -27.3910  -29.7272   25.4816 H   0  0  0  0  0  0
  -27.8779  -30.4209   23.9506 H   0  0  0  0  0  0
  -27.2729  -33.3634   26.1998 H   0  0  0  0  0  0
  -28.3837  -32.6826   25.0193 H   0  0  0  0  0  0
  -28.0762  -31.8402   26.5321 H   0  0  0  0  0  0
  -28.2626  -38.0101   24.7546 H   0  0  0  0  0  0
  -28.1097  -36.2624   24.6221 H   0  0  0  0  0  0
  -27.2316  -37.1412   25.8865 H   0  0  0  0  0  0
  -20.9393  -29.8703   21.6811 H   0  0  0  0  0  0
  -26.0202  -38.2862   24.1387 H   0  0  0  0  0  0
  -26.7355  -22.4895   21.2787 H   0  0  0  0  0  0
  -29.1256  -18.3299   21.7598 H   0  0  0  0  0  0
  -27.9899  -18.1729   20.4271 H   0  0  0  0  0  0
  -31.2743  -19.9170   19.1088 H   0  0  0  0  0  0
  -31.4933  -20.0382   20.8444 H   0  0  0  0  0  0
  -29.6979  -17.0882   19.0134 H   0  0  0  0  0  0
  -31.9107  -17.6975   19.2357 H   0  0  0  0  0  0
  -28.0301  -20.5361   21.3832 H   0  0  0  0  0  0
  -29.6302  -20.8843   21.9061 H   0  0  0  0  0  0
  -28.9303  -15.5605   20.9751 H   0  0  0  0  0  0
  -31.5195  -17.5675   22.1189 H   0  0  0  0  0  0
  -32.8628  -18.2264   21.4388 H   0  0  0  0  0  0
  -32.4759  -16.6636   21.1450 H   0  0  0  0  0  0
  1 25  1  0  0  0
  1 30  2  0  0  0
  1 83  1  0  0  0
  2  3  1  0  0  0
  2 25  1  0  0  0
  2 85  1  0  0  0
  2 86  1  0  0  0
  3  4  1  0  0  0
  3 87  1  0  0  0
  3 88  1  0  0  0
  4  5  1  0  0  0
  4 89  1  0  0  0
  4 90  1  0  0  0
  5  6  1  0  0  0
  5 26  1  0  0  0
  5 91  1  0  0  0
  6 25  1  0  0  0
  6 92  1  0  0  0
  6 93  1  0  0  0
  7  8  2  0  0  0
  7 26  1  0  0  0
  7 29  1  0  0  0
  8  9  1  0  0  0
  8 22  1  0  0  0
  9 10  1  0  0  0
  9 27  2  0  0  0
 10 11  2  0  0  0
 10 15  1  0  0  0
 11 12  1  0  0  0
 11 94  1  0  0  0
 12 13  2  0  0  0
 12 95  1  0  0  0
 13 14  1  0  0  0
 13 31  1  0  0  0
 14 15  2  0  0  0
 14 96  1  0  0  0
 15 97  1  0  0  0
 16 17  2  0  0  0
 16 21  1  0  0  0
 16 31  1  0  0  0
 17 18  1  0  0  0
 17 98  1  0  0  0
 18 19  2  0  0  0
 18 99  1  0  0  0
 19 20  1  0  0  0
 19 24  1  0  0  0
 20 21  2  0  0  0
 20100  1  0  0  0
 21 23  1  0  0  0
 22 28  1  0  0  0
 22 32  2  0  0  0
 26 27  1  0  0  0
 28101  1  0  0  0
 28102  1  0  0  0
 29103  1  0  0  0
 29104  1  0  0  0
 33 34  1  0  0  0
 33 66  1  0  0  0
 33 70  2  0  0  0
 34 36  1  0  0  0
 34 59  1  0  0  0
 34105  1  0  0  0
 35 44  2  0  0  0
 35 45  1  0  0  0
 35 68  1  0  0  0
 36 56  1  0  0  0
 36106  1  0  0  0
 37 39  1  0  0  0
 37 47  1  0  0  0
 37 66  1  0  0  0
 37107  1  0  0  0
 38 43  2  0  0  0
 38 46  1  0  0  0
 38 47  1  0  0  0
 39 64  1  0  0  0
 39 67  2  0  0  0
 40 52  1  0  0  0
 40 53  2  0  0  0
 40 58  1  0  0  0
 41108  1  0  0  0
 41109  1  0  0  0
 41110  1  0  0  0
 41 48  1  0  0  0
 42 43  1  0  0  0
 42 66  1  0  0  0
 42111  1  0  0  0
 42112  1  0  0  0
 43 44  1  0  0  0
 44113  1  0  0  0
 45 46  2  0  0  0
 45114  1  0  0  0
 46115  1  0  0  0
 47116  1  0  0  0
 47117  1  0  0  0
 48 56  1  0  0  0
 48 65  1  0  0  0
 48118  1  0  0  0
 49 50  1  0  0  0
 49 53  1  0  0  0
 49 64  1  0  0  0
 49119  1  0  0  0
 50 51  1  0  0  0
 50120  1  0  0  0
 50121  1  0  0  0
 51 52  1  0  0  0
 51122  1  0  0  0
 51123  1  0  0  0
 52124  1  0  0  0
 52125  1  0  0  0
 53 54  1  0  0  0
 54 55  2  0  0  0
 54126  1  0  0  0
 55 57  1  0  0  0
 55127  1  0  0  0
 56 69  2  0  0  0
 57 58  2  0  0  0
 57128  1  0  0  0
 58129  1  0  0  0
 59 60  1  0  0  0
 59 61  1  0  0  0
 59 62  1  0  0  0
 60130  1  0  0  0
 60131  1  0  0  0
 60132  1  0  0  0
 61133  1  0  0  0
 61134  1  0  0  0
 61135  1  0  0  0
 62136  1  0  0  0
 62137  1  0  0  0
 62138  1  0  0  0
 63 65  1  0  0  0
 63139  1  0  0  0
 63140  1  0  0  0
 63141  1  0  0  0
 64142  1  0  0  0
 65143  1  0  0  0
 68 73  1  0  0  0
 71 72  2  0  0  0
 71 79  1  0  0  0
 71144  1  0  0  0
 72 78  1  0  0  0
 72 80  1  0  0  0
 73 79  2  0  0  0
 73 81  1  0  0  0
 74 76  1  0  0  0
 74 82  1  0  0  0
 74145  1  0  0  0
 74146  1  0  0  0
 75 77  1  0  0  0
 75 82  1  0  0  0
 75147  1  0  0  0
 75148  1  0  0  0
 76 77  1  0  0  0
 76 83  1  0  0  0
 76149  1  0  0  0
 77 84  1  0  0  0
 77150  1  0  0  0
 78 82  1  0  0  0
 78151  1  0  0  0
 78152  1  0  0  0
 80 81  2  0  0  0
 83153  1  0  0  0
 84154  1  0  0  0
 84155  1  0  0  0
 84156  1  0  0  0
M  CHG  1  84   1
M  ISO  4   1 100  68 101  73 101  83 100
M  END
> <chiral flag>
0

> <version>
0

> <s_m_source_file>
/data/baiqing/PycharmProjects/Reinvent-master-3.2/result/LINK_invent/BTK/process_docking_weight1_custom_sum_contain_oxygen_bond_distance_aromatic_linkinvent_7_9_3/rearranged_h_0183.sdf

> <i_m_source_file_index>
59

> <r_mmod_Potential_Energy-OPLS-2005>
-51.7161407470703

> <r_mmod_Stretch_Energy-OPLS-2005>
106.850700378418

> <r_mmod_Bend_Energy-OPLS-2005>
208.063507080078

> <r_mmod_Torsional_Energy-OPLS-2005>
309.614410400391

> <r_mmod_Improper_Torsional_Energy-OPLS-2005>
8.43086433410645

> <r_mmod_Van_der_Waal_Energy-OPLS-2005>
146.918106079102

> <r_mmod_Electrostatic_Energy-OPLS-2005>
-383.762481689453

> <r_mmod_Solvation_Energy-OPLS-2005>
-509.868194580078

> <b_mmod_Minimization_Converged-OPLS-2005>
0

> <r_mmod_RMS_Derivative-OPLS-2005>
6.1911792755127

$$$$
60
                    3D
 Structure written by MMmdl.
153162  0  0  1  0            999 V2000
  -30.2987  -15.6621   20.3467 C   0  0  0  0  0  0
  -30.4299  -13.1031   19.5392 C   0  0  0  0  0  0
  -29.5528  -12.6783   18.3233 C   0  0  0  0  0  0
  -28.1256  -12.3128   18.7610 C   0  0  0  0  0  0
  -27.5994  -13.3071   19.8192 C   0  0  2  0  0  0
  -28.6240  -13.6120   20.9399 C   0  0  0  0  0  0
  -25.2221  -13.8142   20.5649 C   0  0  0  0  0  0
  -24.1673  -13.0323   20.9287 C   0  0  0  0  0  0
  -24.6427  -11.6868   20.8791 C   0  0  0  0  0  0
  -23.9124  -10.4232   21.0405 C   0  0  0  0  0  0
  -24.3650   -9.4151   21.9191 C   0  0  0  0  0  0
  -23.6301   -8.2202   22.0758 C   0  0  0  0  0  0
  -22.4283   -8.0258   21.3542 C   0  0  0  0  0  0
  -21.9933   -9.0237   20.4644 C   0  0  0  0  0  0
  -22.7288  -10.2097   20.3052 C   0  0  0  0  0  0
  -21.6844   -6.0725   22.5280 C   0  0  0  0  0  0
  -21.4010   -6.5633   23.8212 C   0  0  0  0  0  0
  -21.3658   -5.6785   24.9175 C   0  0  0  0  0  0
  -21.6046   -4.3048   24.7226 C   0  0  0  0  0  0
  -21.8820   -3.8138   23.4346 C   0  0  0  0  0  0
  -21.9191   -4.6955   22.3403 C   0  0  0  0  0  0
  -22.7688  -13.5081   21.1917 C   0  0  0  0  0  0
  -22.1659   -4.2141   21.0980 F   0  0  0  0  0  0
  -21.5633   -3.4532   25.7739 F   0  0  0  0  0  0
  -29.7913  -14.2787   20.2977 N   0  0  0  0  0  0
  -26.2777  -12.9565   20.3237 N   0  0  0  0  0  0
  -25.9394  -11.6635   20.5753 N   0  0  0  0  0  0
  -22.0359  -12.8085   22.0492 N   0  0  0  0  0  0
  -25.3507  -15.1808   20.3770 N   0  0  0  0  0  0
  -31.5225  -15.6087   20.1111 O   0  0  0  0  0  0
  -21.6630   -6.8870   21.4241 O   0  0  0  0  0  0
  -22.3367  -14.5386   20.6758 O   0  0  0  0  0  0
  -24.6851  -31.7977   23.1497 C   0  0  0  0  0  0
  -25.9431  -32.4454   23.8044 C   0  0  1  0  0  0
  -27.2370  -26.6948   20.2139 C   0  0  0  0  0  0
  -25.6011  -33.8281   24.1941 N   0  0  0  0  0  0
  -23.5126  -30.3990   21.5027 C   0  0  2  0  0  0
  -24.9727  -28.7379   20.1168 C   0  0  0  0  0  0
  -22.7778  -29.4308   22.4697 C   0  0  0  0  0  0
  -18.0341  -28.1427   22.8452 C   0  0  0  0  0  0
  -24.1488  -36.7137   23.2647 C   0  0  0  0  0  0
  -26.0931  -30.5298   21.4140 C   0  0  0  0  0  0
  -26.1609  -29.0926   20.7658 C   0  0  0  0  0  0
  -27.2767  -28.0993   20.7824 C   0  0  0  0  0  0
  -26.0146  -26.5534   19.5064 C   0  0  0  0  0  0
  -24.9389  -27.4936   19.4636 C   0  0  0  0  0  0
  -23.7678  -29.6929   20.1389 C   0  0  0  0  0  0
  -25.4135  -36.2879   24.0281 C   0  0  1  0  0  0
  -20.5976  -28.3783   23.1135 C   0  0  2  0  0  0
  -20.6803  -26.9441   22.5400 C   0  0  0  0  0  0
  -19.5780  -26.6374   21.5212 C   0  0  0  0  0  0
  -18.1962  -26.7957   22.1613 C   0  0  0  0  0  0
  -19.1608  -28.8931   23.2775 C   0  0  0  0  0  0
  -18.9515  -30.1512   23.8823 C   0  0  0  0  0  0
  -17.6505  -30.6609   24.0552 C   0  0  0  0  0  0
  -25.9122  -34.9275   23.4942 C   0  0  0  0  0  0
  -16.5393  -29.9090   23.6354 C   0  0  0  0  0  0
  -16.7321  -28.6514   23.0366 C   0  0  0  0  0  0
  -26.4610  -31.6491   25.0667 C   0  0  0  0  0  0
  -25.3683  -31.3825   26.1289 C   0  0  0  0  0  0
  -27.0533  -30.2822   24.6563 C   0  0  0  0  0  0
  -27.6065  -32.4343   25.7486 C   0  0  0  0  0  0
  -27.5555  -37.1721   24.8462 C   0  0  0  0  0  0
  -21.4423  -29.3033   22.3455 N   0  0  0  0  0  0
  -26.4250  -37.3650   23.9421 N   0  0  0  0  0  0
  -24.7872  -30.9416   22.0752 N   0  0  0  0  0  0
  -23.4218  -28.7910   23.3046 O   0  0  0  0  0  0
  -28.1952  -25.4659   20.3009 O   0  0  0  0  0  0
  -26.5751  -34.8867   22.4551 O   0  0  0  0  0  0
  -23.5869  -32.1046   23.6455 O   0  0  0  0  0  0
  -30.2759  -19.8518   19.7101 C   0  0  0  0  0  0
  -29.8878  -21.3365   19.6932 C   0  0  0  0  0  0
  -29.5263  -18.7092   20.2918 C   0  0  0  0  0  0
  -28.3951  -19.4480   20.8131 C   0  0  0  0  0  0
  -28.6975  -22.0229   20.2726 C   0  0  0  0  0  0
  -28.2232  -16.9455   21.1879 C   0  0  0  0  0  0
  -27.5319  -18.3723   21.4592 C   0  0  0  0  0  0
  -27.4502  -18.6205   22.9756 C   0  0  0  0  0  0
  -26.1177  -18.4039   20.8536 C   0  0  0  0  0  0
  -27.9335  -23.7368   20.0762 C   0  0  0  0  0  0
  -28.0158  -20.8730   20.8128 N   0  0  0  0  0  0
  -29.5246  -17.0286   20.4881 N   0  0  0  0  0  0
  -31.4172  -13.3756   19.1654 H   0  0  0  0  0  0
  -30.6109  -12.2542   20.2008 H   0  0  0  0  0  0
  -30.0126  -11.8442   17.7920 H   0  0  0  0  0  0
  -29.5076  -13.5053   17.6127 H   0  0  0  0  0  0
  -28.1502  -11.3084   19.1848 H   0  0  0  0  0  0
  -27.4564  -12.2710   17.9004 H   0  0  0  0  0  0
  -27.4657  -14.2380   19.2669 H   0  0  0  0  0  0
  -28.8996  -12.7065   21.4824 H   0  0  0  0  0  0
  -28.1802  -14.2658   21.6864 H   0  0  0  0  0  0
  -25.2789   -9.5627   22.4774 H   0  0  0  0  0  0
  -23.9996   -7.4591   22.7480 H   0  0  0  0  0  0
  -21.0861   -8.8770   19.8948 H   0  0  0  0  0  0
  -22.3755  -10.9644   19.6159 H   0  0  0  0  0  0
  -21.1998   -7.6142   23.9716 H   0  0  0  0  0  0
  -21.1482   -6.0513   25.9078 H   0  0  0  0  0  0
  -22.0600   -2.7601   23.2847 H   0  0  0  0  0  0
  -22.3985  -11.9765   22.4906 H   0  0  0  0  0  0
  -21.0969  -13.1093   22.2690 H   0  0  0  0  0  0
  -24.5458  -15.7933   20.4370 H   0  0  0  0  0  0
  -26.1516  -15.6165   19.9428 H   0  0  0  0  0  0
  -26.7508  -32.4926   23.0753 H   0  0  0  0  0  0
  -25.0120  -33.9317   25.0067 H   0  0  0  0  0  0
  -22.8383  -31.2362   21.3105 H   0  0  0  0  0  0
  -23.3769  -35.9446   23.3255 H   0  0  0  0  0  0
  -24.3565  -36.8849   22.2071 H   0  0  0  0  0  0
  -23.7225  -37.6294   23.6754 H   0  0  0  0  0  0
  -26.2918  -31.2540   20.6228 H   0  0  0  0  0  0
  -26.9451  -30.6021   22.0775 H   0  0  0  0  0  0
  -28.1693  -28.3787   21.3249 H   0  0  0  0  0  0
  -25.8468  -25.6127   19.0013 H   0  0  0  0  0  0
  -24.0433  -27.2120   18.9272 H   0  0  0  0  0  0
  -23.9430  -30.4518   19.3755 H   0  0  0  0  0  0
  -22.8731  -29.1582   19.8152 H   0  0  0  0  0  0
  -25.1343  -36.1624   25.0767 H   0  0  0  0  0  0
  -21.0058  -28.3406   24.1262 H   0  0  0  0  0  0
  -20.5645  -26.2418   23.3665 H   0  0  0  0  0  0
  -21.6667  -26.7370   22.1231 H   0  0  0  0  0  0
  -19.6938  -25.6265   21.1290 H   0  0  0  0  0  0
  -19.6729  -27.3147   20.6714 H   0  0  0  0  0  0
  -17.4232  -26.6692   21.4017 H   0  0  0  0  0  0
  -18.0357  -26.0119   22.9029 H   0  0  0  0  0  0
  -19.7988  -30.7346   24.2157 H   0  0  0  0  0  0
  -17.5056  -31.6280   24.5166 H   0  0  0  0  0  0
  -15.5387  -30.2968   23.7729 H   0  0  0  0  0  0
  -15.8720  -28.0813   22.7116 H   0  0  0  0  0  0
  -24.5900  -30.7133   25.7605 H   0  0  0  0  0  0
  -24.8843  -32.3057   26.4482 H   0  0  0  0  0  0
  -25.7870  -30.9149   27.0209 H   0  0  0  0  0  0
  -26.3253  -29.6448   24.1532 H   0  0  0  0  0  0
  -27.3937  -29.7250   25.5302 H   0  0  0  0  0  0
  -27.9248  -30.3940   24.0110 H   0  0  0  0  0  0
  -27.2615  -33.3723   26.1850 H   0  0  0  0  0  0
  -28.3998  -32.6767   25.0402 H   0  0  0  0  0  0
  -28.0603  -31.8603   26.5578 H   0  0  0  0  0  0
  -28.2520  -38.0062   24.7527 H   0  0  0  0  0  0
  -28.1095  -36.2586   24.6251 H   0  0  0  0  0  0
  -27.2288  -37.1319   25.8867 H   0  0  0  0  0  0
  -20.9722  -29.8692   21.6524 H   0  0  0  0  0  0
  -26.0064  -38.2685   24.1466 H   0  0  0  0  0  0
  -31.1994  -19.5998   19.2097 H   0  0  0  0  0  0
  -30.5642  -21.9844   19.1528 H   0  0  0  0  0  0
  -27.5850  -16.3338   20.5607 H   0  0  0  0  0  0
  -28.3540  -16.4114   22.1292 H   0  0  0  0  0  0
  -28.4426  -18.6277   23.4269 H   0  0  0  0  0  0
  -26.8631  -17.8497   23.4756 H   0  0  0  0  0  0
  -26.9848  -19.5821   23.1926 H   0  0  0  0  0  0
  -26.1388  -18.1824   19.7862 H   0  0  0  0  0  0
  -25.6563  -19.3844   20.9741 H   0  0  0  0  0  0
  -25.4626  -17.6818   21.3392 H   0  0  0  0  0  0
  -26.9999  -23.6017   20.6215 H   0  0  0  0  0  0
  -27.6240  -23.7063   19.0317 H   0  0  0  0  0  0
  1 25  1  0  0  0
  1 30  2  0  0  0
  1 82  1  0  0  0
  2  3  1  0  0  0
  2 25  1  0  0  0
  2 83  1  0  0  0
  2 84  1  0  0  0
  3  4  1  0  0  0
  3 85  1  0  0  0
  3 86  1  0  0  0
  4  5  1  0  0  0
  4 87  1  0  0  0
  4 88  1  0  0  0
  5  6  1  0  0  0
  5 26  1  0  0  0
  5 89  1  0  0  0
  6 25  1  0  0  0
  6 90  1  0  0  0
  6 91  1  0  0  0
  7  8  2  0  0  0
  7 26  1  0  0  0
  7 29  1  0  0  0
  8  9  1  0  0  0
  8 22  1  0  0  0
  9 10  1  0  0  0
  9 27  2  0  0  0
 10 11  2  0  0  0
 10 15  1  0  0  0
 11 12  1  0  0  0
 11 92  1  0  0  0
 12 13  2  0  0  0
 12 93  1  0  0  0
 13 14  1  0  0  0
 13 31  1  0  0  0
 14 15  2  0  0  0
 14 94  1  0  0  0
 15 95  1  0  0  0
 16 17  2  0  0  0
 16 21  1  0  0  0
 16 31  1  0  0  0
 17 18  1  0  0  0
 17 96  1  0  0  0
 18 19  2  0  0  0
 18 97  1  0  0  0
 19 20  1  0  0  0
 19 24  1  0  0  0
 20 21  2  0  0  0
 20 98  1  0  0  0
 21 23  1  0  0  0
 22 28  1  0  0  0
 22 32  2  0  0  0
 26 27  1  0  0  0
 28 99  1  0  0  0
 28100  1  0  0  0
 29101  1  0  0  0
 29102  1  0  0  0
 33 34  1  0  0  0
 33 66  1  0  0  0
 33 70  2  0  0  0
 34 36  1  0  0  0
 34 59  1  0  0  0
 34103  1  0  0  0
 35 44  2  0  0  0
 35 45  1  0  0  0
 35 68  1  0  0  0
 36 56  1  0  0  0
 36104  1  0  0  0
 37 39  1  0  0  0
 37 47  1  0  0  0
 37 66  1  0  0  0
 37105  1  0  0  0
 38 43  2  0  0  0
 38 46  1  0  0  0
 38 47  1  0  0  0
 39 64  1  0  0  0
 39 67  2  0  0  0
 40 52  1  0  0  0
 40 53  2  0  0  0
 40 58  1  0  0  0
 41106  1  0  0  0
 41107  1  0  0  0
 41108  1  0  0  0
 41 48  1  0  0  0
 42 43  1  0  0  0
 42 66  1  0  0  0
 42109  1  0  0  0
 42110  1  0  0  0
 43 44  1  0  0  0
 44111  1  0  0  0
 45 46  2  0  0  0
 45112  1  0  0  0
 46113  1  0  0  0
 47114  1  0  0  0
 47115  1  0  0  0
 48 56  1  0  0  0
 48 65  1  0  0  0
 48116  1  0  0  0
 49 50  1  0  0  0
 49 53  1  0  0  0
 49 64  1  0  0  0
 49117  1  0  0  0
 50 51  1  0  0  0
 50118  1  0  0  0
 50119  1  0  0  0
 51 52  1  0  0  0
 51120  1  0  0  0
 51121  1  0  0  0
 52122  1  0  0  0
 52123  1  0  0  0
 53 54  1  0  0  0
 54 55  2  0  0  0
 54124  1  0  0  0
 55 57  1  0  0  0
 55125  1  0  0  0
 56 69  2  0  0  0
 57 58  2  0  0  0
 57126  1  0  0  0
 58127  1  0  0  0
 59 60  1  0  0  0
 59 61  1  0  0  0
 59 62  1  0  0  0
 60128  1  0  0  0
 60129  1  0  0  0
 60130  1  0  0  0
 61131  1  0  0  0
 61132  1  0  0  0
 61133  1  0  0  0
 62134  1  0  0  0
 62135  1  0  0  0
 62136  1  0  0  0
 63 65  1  0  0  0
 63137  1  0  0  0
 63138  1  0  0  0
 63139  1  0  0  0
 64140  1  0  0  0
 65141  1  0  0  0
 68 80  1  0  0  0
 71 72  2  0  0  0
 71 73  1  0  0  0
 71142  1  0  0  0
 72 75  1  0  0  0
 72143  1  0  0  0
 73 74  2  0  0  0
 73 82  1  0  0  0
 74 77  1  0  0  0
 74 81  1  0  0  0
 75 80  1  0  0  0
 75 81  2  0  0  0
 76 77  1  0  0  0
 76 82  1  0  0  0
 76144  1  0  0  0
 76145  1  0  0  0
 77 78  1  0  0  0
 77 79  1  0  0  0
 78146  1  0  0  0
 78147  1  0  0  0
 78148  1  0  0  0
 79149  1  0  0  0
 79150  1  0  0  0
 79151  1  0  0  0
 80152  1  0  0  0
 80153  1  0  0  0
M  ISO  4   1 100  68 101  80 101  82 100
M  END
> <chiral flag>
0

> <version>
0

> <s_m_source_file>
/data/baiqing/PycharmProjects/Reinvent-master-3.2/result/LINK_invent/BTK/process_docking_weight1_custom_sum_contain_oxygen_bond_distance_aromatic_linkinvent_7_9_3/rearranged_h_0183.sdf

> <i_m_source_file_index>
60

> <r_mmod_Potential_Energy-OPLS-2005>
2386.27880859375

> <r_mmod_Stretch_Energy-OPLS-2005>
954.03759765625

> <r_mmod_Bend_Energy-OPLS-2005>
761.970886230469

> <r_mmod_Torsional_Energy-OPLS-2005>
282.078765869141

> <r_mmod_Improper_Torsional_Energy-OPLS-2005>
5.65128231048584

> <r_mmod_Van_der_Waal_Energy-OPLS-2005>
132.032669067383

> <r_mmod_Electrostatic_Energy-OPLS-2005>
-469.538360595703

> <r_mmod_Solvation_Energy-OPLS-2005>
-205.165328979492

> <b_mmod_Minimization_Converged-OPLS-2005>
0

> <r_mmod_RMS_Derivative-OPLS-2005>
1.18484032154083

$$$$
61
                    3D
 Structure written by MMmdl.
165174  0  0  1  0            999 V2000
  -30.7025  -14.4856   20.5272 C   0  0  0  0  0  0
  -30.4178  -12.2970   19.4431 C   0  0  0  0  0  0
  -29.4990  -12.4945   18.2189 C   0  0  0  0  0  0
  -28.0184  -12.3575   18.6255 C   0  0  0  0  0  0
  -27.6586  -13.2071   19.8738 C   0  0  2  0  0  0
  -28.7020  -13.0198   21.0023 C   0  0  0  0  0  0
  -25.2549  -13.8149   20.5646 C   0  0  0  0  0  0
  -24.1819  -13.0424   20.9188 C   0  0  0  0  0  0
  -24.6381  -11.6893   20.8753 C   0  0  0  0  0  0
  -23.9051  -10.4282   21.0419 C   0  0  0  0  0  0
  -24.3609   -9.4197   21.9189 C   0  0  0  0  0  0
  -23.6287   -8.2238   22.0758 C   0  0  0  0  0  0
  -22.4269   -8.0278   21.3553 C   0  0  0  0  0  0
  -21.9899   -9.0249   20.4650 C   0  0  0  0  0  0
  -22.7230  -10.2129   20.3057 C   0  0  0  0  0  0
  -21.6849   -6.0728   22.5287 C   0  0  0  0  0  0
  -21.4010   -6.5633   23.8216 C   0  0  0  0  0  0
  -21.3661   -5.6782   24.9178 C   0  0  0  0  0  0
  -21.6047   -4.3049   24.7223 C   0  0  0  0  0  0
  -21.8817   -3.8137   23.4338 C   0  0  0  0  0  0
  -21.9189   -4.6955   22.3397 C   0  0  0  0  0  0
  -22.7839  -13.5231   21.1846 C   0  0  0  0  0  0
  -22.1656   -4.2149   21.0969 F   0  0  0  0  0  0
  -21.5632   -3.4522   25.7728 F   0  0  0  0  0  0
  -30.0344  -13.3037   20.4453 N   0  0  0  0  0  0
  -26.3001  -12.9326   20.3361 N   0  0  0  0  0  0
  -25.9316  -11.6492   20.5798 N   0  0  0  0  0  0
  -22.0471  -12.8241   22.0407 N   0  0  0  0  0  0
  -25.4197  -15.1858   20.3954 N   0  0  0  0  0  0
  -31.8457  -14.6389   20.0959 O   0  0  0  0  0  0
  -21.6630   -6.8875   21.4253 O   0  0  0  0  0  0
  -22.3536  -14.5553   20.6710 O   0  0  0  0  0  0
  -24.6125  -31.8686   23.2111 C   0  0  0  0  0  0
  -25.9010  -32.4835   23.8419 C   0  0  1  0  0  0
  -27.2439  -27.4449   20.1012 C   0  0  0  0  0  0
  -25.5857  -33.8631   24.2346 N   0  0  0  0  0  0
  -23.4027  -30.4921   21.5491 C   0  0  2  0  0  0
  -24.8560  -28.9554   20.1200 C   0  0  0  0  0  0
  -22.7407  -29.4670   22.4978 C   0  0  0  0  0  0
  -18.0281  -28.1386   22.8496 C   0  0  0  0  0  0
  -24.1473  -36.7327   23.2645 C   0  0  0  0  0  0
  -25.9319  -30.8359   21.3668 C   0  0  0  0  0  0
  -26.0127  -29.4657   20.7263 C   0  0  0  0  0  0
  -27.2110  -28.7135   20.7285 C   0  0  0  0  0  0
  -26.0784  -26.9557   19.4788 C   0  0  0  0  0  0
  -24.8820  -27.6959   19.4961 C   0  0  0  0  0  0
  -23.6160  -29.8209   20.1662 C   0  0  0  0  0  0
  -25.4086  -36.3119   24.0353 C   0  0  1  0  0  0
  -20.5873  -28.3669   23.1324 C   0  0  2  0  0  0
  -20.6767  -26.9404   22.5430 C   0  0  0  0  0  0
  -19.5746  -26.6397   21.5222 C   0  0  0  0  0  0
  -18.1925  -26.7935   22.1629 C   0  0  0  0  0  0
  -19.1531  -28.8837   23.2912 C   0  0  0  0  0  0
  -18.9454  -30.1449   23.8920 C   0  0  0  0  0  0
  -17.6458  -30.6586   24.0588 C   0  0  0  0  0  0
  -25.9005  -34.9482   23.5146 C   0  0  0  0  0  0
  -16.5348  -29.9095   23.6331 C   0  0  0  0  0  0
  -16.7272  -28.6522   23.0337 C   0  0  0  0  0  0
  -26.4441  -31.6601   25.0736 C   0  0  0  0  0  0
  -25.3713  -31.3712   26.1492 C   0  0  0  0  0  0
  -27.0281  -30.3048   24.6100 C   0  0  0  0  0  0
  -27.6041  -32.4303   25.7479 C   0  0  0  0  0  0
  -27.5581  -37.1815   24.8465 C   0  0  0  0  0  0
  -21.4134  -29.3038   22.3725 N   0  0  0  0  0  0
  -26.4285  -37.3791   23.9416 N   0  0  0  0  0  0
  -24.6666  -31.0806   22.1005 N   0  0  0  0  0  0
  -23.4176  -28.8222   23.3031 O   0  0  0  0  0  0
  -28.3718  -26.6612   20.0259 O   0  0  0  0  0  0
  -26.5596  -34.8935   22.4726 O   0  0  0  0  0  0
  -23.5311  -32.1439   23.7484 O   0  0  0  0  0  0
  -30.4352  -22.8267   22.9322 C   0  0  0  0  0  0
  -30.8846  -21.6246   23.4940 C   0  0  0  0  0  0
  -29.7327  -22.7359   21.7250 C   0  0  0  0  0  0
  -29.9744  -20.4553   21.7632 C   0  0  0  0  0  0
  -30.2224  -17.9332   21.6922 C   0  0  0  0  0  0
  -29.3432  -19.0725   19.7732 C   0  0  0  0  0  0
  -30.2667  -16.9549   20.5018 C   0  0  2  0  0  0
  -29.2282  -17.5609   19.5377 C   0  0  2  0  0  0
  -31.6689  -21.5980   24.7892 C   0  0  0  0  0  0
  -29.9375  -25.1308   21.0890 C   0  0  0  0  0  0
  -29.0295  -26.3725   21.2567 C   0  0  0  0  0  0
  -30.6452  -20.4401   22.9043 N   0  0  0  0  0  0
  -29.5058  -21.5421   21.1460 N   0  0  0  0  0  0
  -29.7547  -19.2185   21.1611 N   0  0  0  0  0  0
  -29.2008  -23.8598   21.0765 N   0  0  0  0  0  0
  -29.9525  -15.5553   20.8595 N   0  0  0  0  0  0
  -29.4213  -17.1779   18.1280 N   0  3  0  0  0  0
  -31.4674  -12.3730   19.1510 H   0  0  0  0  0  0
  -30.2966  -11.2927   19.8553 H   0  0  0  0  0  0
  -29.7444  -11.7680   17.4439 H   0  0  0  0  0  0
  -29.6718  -13.4782   17.7792 H   0  0  0  0  0  0
  -27.8296  -11.3034   18.8318 H   0  0  0  0  0  0
  -27.3717  -12.6223   17.7885 H   0  0  0  0  0  0
  -27.6915  -14.2483   19.5558 H   0  0  0  0  0  0
  -28.6748  -11.9982   21.3834 H   0  0  0  0  0  0
  -28.4740  -13.6583   21.8571 H   0  0  0  0  0  0
  -25.2767   -9.5669   22.4750 H   0  0  0  0  0  0
  -24.0006   -7.4619   22.7469 H   0  0  0  0  0  0
  -21.0836   -8.8762   19.8948 H   0  0  0  0  0  0
  -22.3705  -10.9661   19.6150 H   0  0  0  0  0  0
  -21.2001   -7.6141   23.9721 H   0  0  0  0  0  0
  -21.1497   -6.0509   25.9085 H   0  0  0  0  0  0
  -22.0598   -2.7602   23.2828 H   0  0  0  0  0  0
  -22.4072  -11.9905   22.4807 H   0  0  0  0  0  0
  -21.1104  -13.1305   22.2633 H   0  0  0  0  0  0
  -24.6273  -15.8176   20.4468 H   0  0  0  0  0  0
  -26.2427  -15.6161   19.9979 H   0  0  0  0  0  0
  -26.7108  -32.5566   23.1221 H   0  0  0  0  0  0
  -24.9980  -33.9794   25.0475 H   0  0  0  0  0  0
  -22.6914  -31.3087   21.4078 H   0  0  0  0  0  0
  -23.3724  -35.9671   23.3299 H   0  0  0  0  0  0
  -24.3583  -36.8929   22.2062 H   0  0  0  0  0  0
  -23.7233  -37.6538   23.6649 H   0  0  0  0  0  0
  -26.0398  -31.5949   20.5906 H   0  0  0  0  0  0
  -26.8216  -30.8985   21.9810 H   0  0  0  0  0  0
  -28.1038  -29.1109   21.1924 H   0  0  0  0  0  0
  -26.1020  -25.9936   18.9857 H   0  0  0  0  0  0
  -23.9965  -27.2978   19.0187 H   0  0  0  0  0  0
  -23.7259  -30.5936   19.4043 H   0  0  0  0  0  0
  -22.7401  -29.2388   19.8719 H   0  0  0  0  0  0
  -25.1259  -36.1987   25.0846 H   0  0  0  0  0  0
  -20.9998  -28.3249   24.1430 H   0  0  0  0  0  0
  -20.5680  -26.2278   23.3620 H   0  0  0  0  0  0
  -21.6640  -26.7461   22.1219 H   0  0  0  0  0  0
  -19.6905  -25.6313   21.1240 H   0  0  0  0  0  0
  -19.6676  -27.3228   20.6768 H   0  0  0  0  0  0
  -17.4202  -26.6707   21.4021 H   0  0  0  0  0  0
  -18.0310  -26.0079   22.9024 H   0  0  0  0  0  0
  -19.7928  -30.7271   24.2293 H   0  0  0  0  0  0
  -17.5007  -31.6265   24.5200 H   0  0  0  0  0  0
  -15.5347  -30.3006   23.7620 H   0  0  0  0  0  0
  -15.8684  -28.0861   22.6992 H   0  0  0  0  0  0
  -24.5871  -30.7073   25.7842 H   0  0  0  0  0  0
  -24.8922  -32.2869   26.4969 H   0  0  0  0  0  0
  -25.8066  -30.8868   27.0244 H   0  0  0  0  0  0
  -26.2847  -29.6803   24.1139 H   0  0  0  0  0  0
  -27.4055  -29.7273   25.4551 H   0  0  0  0  0  0
  -27.8668  -30.4391   23.9265 H   0  0  0  0  0  0
  -27.2701  -33.3598   26.2113 H   0  0  0  0  0  0
  -28.3822  -32.6867   25.0274 H   0  0  0  0  0  0
  -28.0756  -31.8388   26.5345 H   0  0  0  0  0  0
  -28.2605  -38.0109   24.7502 H   0  0  0  0  0  0
  -28.1064  -36.2643   24.6271 H   0  0  0  0  0  0
  -27.2321  -37.1451   25.8876 H   0  0  0  0  0  0
  -20.9283  -29.8752   21.6950 H   0  0  0  0  0  0
  -26.0169  -38.2869   24.1397 H   0  0  0  0  0  0
  -30.6198  -23.7636   23.4375 H   0  0  0  0  0  0
  -31.2051  -18.0225   22.1581 H   0  0  0  0  0  0
  -29.5213  -17.5987   22.4581 H   0  0  0  0  0  0
  -28.3977  -19.5838   19.5834 H   0  0  0  0  0  0
  -30.1054  -19.5237   19.1353 H   0  0  0  0  0  0
  -31.2580  -17.0417   20.0496 H   0  0  0  0  0  0
  -28.2284  -17.2494   19.8467 H   0  0  0  0  0  0
  -31.5064  -22.5098   25.3647 H   0  0  0  0  0  0
  -32.7354  -21.5130   24.5812 H   0  0  0  0  0  0
  -31.3730  -20.7504   25.4075 H   0  0  0  0  0  0
  -30.6840  -25.1491   21.8808 H   0  0  0  0  0  0
  -30.5042  -25.2125   20.1606 H   0  0  0  0  0  0
  -29.6420  -27.2335   21.5299 H   0  0  0  0  0  0
  -28.3145  -26.2197   22.0674 H   0  0  0  0  0  0
  -28.7122  -23.6570   20.2125 H   0  0  0  0  0  0
  -29.0348  -15.3640   21.2339 H   0  0  0  0  0  0
  -30.3270  -17.4638   17.7979 H   0  0  0  0  0  0
  -28.7243  -17.6181   17.5522 H   0  0  0  0  0  0
  -29.3385  -16.1859   18.0086 H   0  0  0  0  0  0
  1 25  1  0  0  0
  1 30  2  0  0  0
  1 86  1  0  0  0
  2  3  1  0  0  0
  2 25  1  0  0  0
  2 88  1  0  0  0
  2 89  1  0  0  0
  3  4  1  0  0  0
  3 90  1  0  0  0
  3 91  1  0  0  0
  4  5  1  0  0  0
  4 92  1  0  0  0
  4 93  1  0  0  0
  5  6  1  0  0  0
  5 26  1  0  0  0
  5 94  1  0  0  0
  6 25  1  0  0  0
  6 95  1  0  0  0
  6 96  1  0  0  0
  7  8  2  0  0  0
  7 26  1  0  0  0
  7 29  1  0  0  0
  8  9  1  0  0  0
  8 22  1  0  0  0
  9 10  1  0  0  0
  9 27  2  0  0  0
 10 11  2  0  0  0
 10 15  1  0  0  0
 11 12  1  0  0  0
 11 97  1  0  0  0
 12 13  2  0  0  0
 12 98  1  0  0  0
 13 14  1  0  0  0
 13 31  1  0  0  0
 14 15  2  0  0  0
 14 99  1  0  0  0
 15100  1  0  0  0
 16 17  2  0  0  0
 16 21  1  0  0  0
 16 31  1  0  0  0
 17 18  1  0  0  0
 17101  1  0  0  0
 18 19  2  0  0  0
 18102  1  0  0  0
 19 20  1  0  0  0
 19 24  1  0  0  0
 20 21  2  0  0  0
 20103  1  0  0  0
 21 23  1  0  0  0
 22 28  1  0  0  0
 22 32  2  0  0  0
 26 27  1  0  0  0
 28104  1  0  0  0
 28105  1  0  0  0
 29106  1  0  0  0
 29107  1  0  0  0
 33 34  1  0  0  0
 33 66  1  0  0  0
 33 70  2  0  0  0
 34 36  1  0  0  0
 34 59  1  0  0  0
 34108  1  0  0  0
 35 44  2  0  0  0
 35 45  1  0  0  0
 35 68  1  0  0  0
 36 56  1  0  0  0
 36109  1  0  0  0
 37 39  1  0  0  0
 37 47  1  0  0  0
 37 66  1  0  0  0
 37110  1  0  0  0
 38 43  2  0  0  0
 38 46  1  0  0  0
 38 47  1  0  0  0
 39 64  1  0  0  0
 39 67  2  0  0  0
 40 52  1  0  0  0
 40 53  2  0  0  0
 40 58  1  0  0  0
 41111  1  0  0  0
 41112  1  0  0  0
 41113  1  0  0  0
 41 48  1  0  0  0
 42 43  1  0  0  0
 42 66  1  0  0  0
 42114  1  0  0  0
 42115  1  0  0  0
 43 44  1  0  0  0
 44116  1  0  0  0
 45 46  2  0  0  0
 45117  1  0  0  0
 46118  1  0  0  0
 47119  1  0  0  0
 47120  1  0  0  0
 48 56  1  0  0  0
 48 65  1  0  0  0
 48121  1  0  0  0
 49 50  1  0  0  0
 49 53  1  0  0  0
 49 64  1  0  0  0
 49122  1  0  0  0
 50 51  1  0  0  0
 50123  1  0  0  0
 50124  1  0  0  0
 51 52  1  0  0  0
 51125  1  0  0  0
 51126  1  0  0  0
 52127  1  0  0  0
 52128  1  0  0  0
 53 54  1  0  0  0
 54 55  2  0  0  0
 54129  1  0  0  0
 55 57  1  0  0  0
 55130  1  0  0  0
 56 69  2  0  0  0
 57 58  2  0  0  0
 57131  1  0  0  0
 58132  1  0  0  0
 59 60  1  0  0  0
 59 61  1  0  0  0
 59 62  1  0  0  0
 60133  1  0  0  0
 60134  1  0  0  0
 60135  1  0  0  0
 61136  1  0  0  0
 61137  1  0  0  0
 61138  1  0  0  0
 62139  1  0  0  0
 62140  1  0  0  0
 62141  1  0  0  0
 63 65  1  0  0  0
 63142  1  0  0  0
 63143  1  0  0  0
 63144  1  0  0  0
 64145  1  0  0  0
 65146  1  0  0  0
 68 81  1  0  0  0
 71 72  2  0  0  0
 71 73  1  0  0  0
 71147  1  0  0  0
 72 79  1  0  0  0
 72 82  1  0  0  0
 73 83  2  0  0  0
 73 85  1  0  0  0
 74 82  2  0  0  0
 74 83  1  0  0  0
 74 84  1  0  0  0
 75 77  1  0  0  0
 75 84  1  0  0  0
 75148  1  0  0  0
 75149  1  0  0  0
 76 78  1  0  0  0
 76 84  1  0  0  0
 76150  1  0  0  0
 76151  1  0  0  0
 77 78  1  0  0  0
 77 86  1  0  0  0
 77152  1  0  0  0
 78 87  1  0  0  0
 78153  1  0  0  0
 79154  1  0  0  0
 79155  1  0  0  0
 79156  1  0  0  0
 80 81  1  0  0  0
 80 85  1  0  0  0
 80157  1  0  0  0
 80158  1  0  0  0
 81159  1  0  0  0
 81160  1  0  0  0
 85161  1  0  0  0
 86162  1  0  0  0
 87163  1  0  0  0
 87164  1  0  0  0
 87165  1  0  0  0
M  CHG  1  87   1
M  ISO  4   1 100  68 101  81 101  86 100
M  END
> <chiral flag>
0

> <version>
0

> <s_m_source_file>
/data/baiqing/PycharmProjects/Reinvent-master-3.2/result/LINK_invent/BTK/process_docking_weight1_custom_sum_contain_oxygen_bond_distance_aromatic_linkinvent_7_9_3/rearranged_h_0183.sdf

> <i_m_source_file_index>
61

> <r_mmod_Potential_Energy-OPLS-2005>
-1000.55749511719

> <r_mmod_Stretch_Energy-OPLS-2005>
34.6344451904297

> <r_mmod_Bend_Energy-OPLS-2005>
132.489120483398

> <r_mmod_Torsional_Energy-OPLS-2005>
302.863739013672

> <r_mmod_Improper_Torsional_Energy-OPLS-2005>
10.8695726394653

> <r_mmod_Van_der_Waal_Energy-OPLS-2005>
160.752517700195

> <r_mmod_Electrostatic_Energy-OPLS-2005>
-1111.93090820312

> <r_mmod_Solvation_Energy-OPLS-2005>
-544.340270996094

> <b_mmod_Minimization_Converged-OPLS-2005>
0

> <r_mmod_RMS_Derivative-OPLS-2005>
2.03809452056885

$$$$
62
                    3D
 Structure written by MMmdl.
166175  0  0  1  0            999 V2000
  -30.3385  -15.4615   20.3454 C   0  0  0  0  0  0
  -30.4300  -12.9497   19.5375 C   0  0  0  0  0  0
  -29.5405  -12.6127   18.3086 C   0  0  0  0  0  0
  -28.1050  -12.2882   18.7487 C   0  0  0  0  0  0
  -27.6000  -13.2874   19.8157 C   0  0  2  0  0  0
  -28.6196  -13.5468   20.9473 C   0  0  0  0  0  0
  -25.2350  -13.8252   20.5740 C   0  0  0  0  0  0
  -24.1722  -13.0438   20.9259 C   0  0  0  0  0  0
  -24.6392  -11.6928   20.8762 C   0  0  0  0  0  0
  -23.9098  -10.4291   21.0404 C   0  0  0  0  0  0
  -24.3635   -9.4207   21.9196 C   0  0  0  0  0  0
  -23.6296   -8.2245   22.0763 C   0  0  0  0  0  0
  -22.4287   -8.0283   21.3543 C   0  0  0  0  0  0
  -21.9927   -9.0259   20.4649 C   0  0  0  0  0  0
  -22.7264  -10.2134   20.3058 C   0  0  0  0  0  0
  -21.6857   -6.0734   22.5282 C   0  0  0  0  0  0
  -21.4017   -6.5634   23.8207 C   0  0  0  0  0  0
  -21.3653   -5.6796   24.9174 C   0  0  0  0  0  0
  -21.6040   -4.3052   24.7230 C   0  0  0  0  0  0
  -21.8821   -3.8143   23.4352 C   0  0  0  0  0  0
  -21.9195   -4.6958   22.3399 C   0  0  0  0  0  0
  -22.7741  -13.5179   21.1903 C   0  0  0  0  0  0
  -22.1664   -4.2141   21.0983 F   0  0  0  0  0  0
  -21.5622   -3.4542   25.7745 F   0  0  0  0  0  0
  -29.8232  -14.1127   20.3114 N   0  0  0  0  0  0
  -26.2765  -12.9543   20.3198 N   0  0  0  0  0  0
  -25.9326  -11.6640   20.5713 N   0  0  0  0  0  0
  -22.0406  -12.8161   22.0452 N   0  0  0  0  0  0
  -25.3962  -15.1994   20.4147 N   0  0  0  0  0  0
  -31.5633  -15.4508   20.1326 O   0  0  0  0  0  0
  -21.6641   -6.8882   21.4241 O   0  0  0  0  0  0
  -22.3425  -14.5488   20.6754 O   0  0  0  0  0  0
  -24.6756  -31.8101   23.1565 C   0  0  0  0  0  0
  -25.9394  -32.4516   23.8063 C   0  0  1  0  0  0
  -27.2001  -26.8000   20.2101 C   0  0  0  0  0  0
  -25.6011  -33.8322   24.1985 N   0  0  0  0  0  0
  -23.4940  -30.4187   21.5095 C   0  0  2  0  0  0
  -24.9448  -28.7806   20.1156 C   0  0  0  0  0  0
  -22.7719  -29.4371   22.4704 C   0  0  0  0  0  0
  -18.0322  -28.1422   22.8446 C   0  0  0  0  0  0
  -24.1482  -36.7157   23.2652 C   0  0  0  0  0  0
  -26.0688  -30.5778   21.4039 C   0  0  0  0  0  0
  -26.1329  -29.1523   20.7555 C   0  0  0  0  0  0
  -27.2545  -28.1874   20.7723 C   0  0  0  0  0  0
  -25.9829  -26.6129   19.5120 C   0  0  0  0  0  0
  -24.9007  -27.5345   19.4703 C   0  0  0  0  0  0
  -23.7403  -29.7263   20.1409 C   0  0  0  0  0  0
  -25.4116  -36.2898   24.0302 C   0  0  1  0  0  0
  -20.5960  -28.3764   23.1128 C   0  0  2  0  0  0
  -20.6798  -26.9437   22.5376 C   0  0  0  0  0  0
  -19.5775  -26.6391   21.5190 C   0  0  0  0  0  0
  -18.1952  -26.7958   22.1599 C   0  0  0  0  0  0
  -19.1601  -28.8904   23.2775 C   0  0  0  0  0  0
  -18.9527  -30.1480   23.8832 C   0  0  0  0  0  0
  -17.6527  -30.6613   24.0550 C   0  0  0  0  0  0
  -25.9108  -34.9306   23.4965 C   0  0  0  0  0  0
  -16.5401  -29.9113   23.6356 C   0  0  0  0  0  0
  -16.7306  -28.6530   23.0380 C   0  0  0  0  0  0
  -26.4619  -31.6501   25.0630 C   0  0  0  0  0  0
  -25.3727  -31.3765   26.1260 C   0  0  0  0  0  0
  -27.0553  -30.2863   24.6432 C   0  0  0  0  0  0
  -27.6071  -32.4359   25.7447 C   0  0  0  0  0  0
  -27.5552  -37.1712   24.8475 C   0  0  0  0  0  0
  -21.4376  -29.3044   22.3470 N   0  0  0  0  0  0
  -26.4233  -37.3667   23.9455 N   0  0  0  0  0  0
  -24.7685  -30.9659   22.0769 N   0  0  0  0  0  0
  -23.4204  -28.7927   23.2976 O   0  0  0  0  0  0
  -28.1704  -25.6271   20.2633 O   0  0  0  0  0  0
  -26.5733  -34.8883   22.4575 O   0  0  0  0  0  0
  -23.5805  -32.1141   23.6596 O   0  0  0  0  0  0
  -27.8339  -20.0449   21.3052 C   0  0  0  0  0  0
  -27.8846  -20.7395   19.9424 C   0  0  2  0  0  0
  -29.3323  -19.7396   21.3385 C   0  0  1  0  0  0
  -28.5564  -19.3457   19.2611 C   0  0  2  0  0  0
  -28.6601  -22.2380   20.1214 C   0  0  2  0  0  0
  -29.6028  -18.4844   20.2262 C   0  0  2  0  0  0
  -29.7142  -21.3868   21.0870 C   0  0  0  0  0  0
  -29.7507  -22.1061   22.4562 C   0  0  0  0  0  0
  -31.1368  -21.4812   20.5077 C   0  0  0  0  0  0
  -29.3773  -18.2217   17.1226 C   0  0  0  0  0  0
  -27.9575  -20.2788   16.9524 C   0  0  0  0  0  0
  -27.8731  -23.9439   20.3425 C   0  0  0  0  0  0
  -29.0248  -19.5570   17.8031 C   0  0  0  0  0  0
  -29.5368  -16.7577   20.4336 N   0  0  0  0  0  0
  -31.4361  -13.1871   19.1894 H   0  0  0  0  0  0
  -30.5478  -12.0742   20.1790 H   0  0  0  0  0  0
  -29.9618  -11.7770   17.7491 H   0  0  0  0  0  0
  -29.5285  -13.4637   17.6274 H   0  0  0  0  0  0
  -28.1089  -11.2806   19.1677 H   0  0  0  0  0  0
  -27.4334  -12.2605   17.8902 H   0  0  0  0  0  0
  -27.4888  -14.2287   19.2751 H   0  0  0  0  0  0
  -28.8354  -12.6421   21.5181 H   0  0  0  0  0  0
  -28.2170  -14.2741   21.6550 H   0  0  0  0  0  0
  -25.2774   -9.5679   22.4779 H   0  0  0  0  0  0
  -23.9988   -7.4647   22.7496 H   0  0  0  0  0  0
  -21.0851   -8.8788   19.8965 H   0  0  0  0  0  0
  -22.3723  -10.9673   19.6164 H   0  0  0  0  0  0
  -21.2016   -7.6147   23.9710 H   0  0  0  0  0  0
  -21.1465   -6.0526   25.9076 H   0  0  0  0  0  0
  -22.0605   -2.7607   23.2860 H   0  0  0  0  0  0
  -22.4006  -11.9807   22.4808 H   0  0  0  0  0  0
  -21.1029  -13.1190   22.2688 H   0  0  0  0  0  0
  -24.6172  -15.8420   20.5070 H   0  0  0  0  0  0
  -26.2289  -15.6388   20.0467 H   0  0  0  0  0  0
  -26.7451  -32.5025   23.0753 H   0  0  0  0  0  0
  -25.0110  -33.9359   25.0110 H   0  0  0  0  0  0
  -22.8159  -31.2545   21.3266 H   0  0  0  0  0  0
  -23.3761  -35.9472   23.3267 H   0  0  0  0  0  0
  -24.3550  -36.8872   22.2077 H   0  0  0  0  0  0
  -23.7225  -37.6318   23.6759 H   0  0  0  0  0  0
  -26.2554  -31.3098   20.6167 H   0  0  0  0  0  0
  -26.9273  -30.6419   22.0600 H   0  0  0  0  0  0
  -28.1547  -28.4727   21.2993 H   0  0  0  0  0  0
  -25.8261  -25.6695   19.0109 H   0  0  0  0  0  0
  -24.0017  -27.2419   18.9449 H   0  0  0  0  0  0
  -23.9137  -30.4909   19.3819 H   0  0  0  0  0  0
  -22.8474  -29.1924   19.8133 H   0  0  0  0  0  0
  -25.1307  -36.1653   25.0791 H   0  0  0  0  0  0
  -21.0032  -28.3397   24.1263 H   0  0  0  0  0  0
  -20.5691  -26.2387   23.3628 H   0  0  0  0  0  0
  -21.6660  -26.7430   22.1170 H   0  0  0  0  0  0
  -19.6960  -25.6298   21.1254 H   0  0  0  0  0  0
  -19.6725  -27.3176   20.6688 H   0  0  0  0  0  0
  -17.4226  -26.6686   21.4003 H   0  0  0  0  0  0
  -18.0336  -26.0110   22.9003 H   0  0  0  0  0  0
  -19.8017  -30.7279   24.2206 H   0  0  0  0  0  0
  -17.5110  -31.6308   24.5149 H   0  0  0  0  0  0
  -15.5408  -30.3013   23.7739 H   0  0  0  0  0  0
  -15.8691  -28.0835   22.7150 H   0  0  0  0  0  0
  -24.5952  -30.7077   25.7557 H   0  0  0  0  0  0
  -24.8852  -32.2960   26.4512 H   0  0  0  0  0  0
  -25.7930  -30.9053   27.0149 H   0  0  0  0  0  0
  -26.3256  -29.6472   24.1445 H   0  0  0  0  0  0
  -27.4088  -29.7287   25.5111 H   0  0  0  0  0  0
  -27.9182  -30.4040   23.9863 H   0  0  0  0  0  0
  -27.2636  -33.3767   26.1764 H   0  0  0  0  0  0
  -28.3992  -32.6760   25.0346 H   0  0  0  0  0  0
  -28.0605  -31.8652   26.5567 H   0  0  0  0  0  0
  -28.2481  -38.0083   24.7558 H   0  0  0  0  0  0
  -28.1117  -36.2600   24.6225 H   0  0  0  0  0  0
  -27.2268  -37.1233   25.8871 H   0  0  0  0  0  0
  -20.9661  -29.8745   21.6597 H   0  0  0  0  0  0
  -26.0055  -38.2702   24.1557 H   0  0  0  0  0  0
  -27.2222  -19.1398   21.3315 H   0  0  0  0  0  0
  -27.4671  -20.6940   22.0967 H   0  0  0  0  0  0
  -26.8759  -20.9002   19.5586 H   0  0  0  0  0  0
  -29.6624  -19.4132   22.3257 H   0  0  0  0  0  0
  -27.7010  -18.6737   19.1610 H   0  0  0  0  0  0
  -29.1534  -22.3718   19.1588 H   0  0  0  0  0  0
  -30.6172  -18.6422   19.8587 H   0  0  0  0  0  0
  -28.7599  -22.2437   22.8859 H   0  0  0  0  0  0
  -30.1833  -23.1032   22.3737 H   0  0  0  0  0  0
  -30.3443  -21.5515   23.1838 H   0  0  0  0  0  0
  -31.2102  -21.0083   19.5297 H   0  0  0  0  0  0
  -31.8606  -20.9950   21.1614 H   0  0  0  0  0  0
  -31.4462  -22.5204   20.3866 H   0  0  0  0  0  0
  -30.1612  -17.6845   17.6549 H   0  0  0  0  0  0
  -29.7257  -18.3844   16.1033 H   0  0  0  0  0  0
  -28.5067  -17.5665   17.0664 H   0  0  0  0  0  0
  -27.6583  -21.2367   17.3757 H   0  0  0  0  0  0
  -27.0557  -19.6731   16.8473 H   0  0  0  0  0  0
  -28.3344  -20.4893   15.9518 H   0  0  0  0  0  0
  -27.3443  -23.8589   21.2930 H   0  0  0  0  0  0
  -27.0720  -23.8752   19.6083 H   0  0  0  0  0  0
  -29.9170  -20.1821   17.8192 H   0  0  0  0  0  0
  -28.5783  -16.4915   20.6051 H   0  0  0  0  0  0
  1 25  1  0  0  0
  1 30  2  0  0  0
  1 84  1  0  0  0
  2  3  1  0  0  0
  2 25  1  0  0  0
  2 85  1  0  0  0
  2 86  1  0  0  0
  3  4  1  0  0  0
  3 87  1  0  0  0
  3 88  1  0  0  0
  4  5  1  0  0  0
  4 89  1  0  0  0
  4 90  1  0  0  0
  5  6  1  0  0  0
  5 26  1  0  0  0
  5 91  1  0  0  0
  6 25  1  0  0  0
  6 92  1  0  0  0
  6 93  1  0  0  0
  7  8  2  0  0  0
  7 26  1  0  0  0
  7 29  1  0  0  0
  8  9  1  0  0  0
  8 22  1  0  0  0
  9 10  1  0  0  0
  9 27  2  0  0  0
 10 11  2  0  0  0
 10 15  1  0  0  0
 11 12  1  0  0  0
 11 94  1  0  0  0
 12 13  2  0  0  0
 12 95  1  0  0  0
 13 14  1  0  0  0
 13 31  1  0  0  0
 14 15  2  0  0  0
 14 96  1  0  0  0
 15 97  1  0  0  0
 16 17  2  0  0  0
 16 21  1  0  0  0
 16 31  1  0  0  0
 17 18  1  0  0  0
 17 98  1  0  0  0
 18 19  2  0  0  0
 18 99  1  0  0  0
 19 20  1  0  0  0
 19 24  1  0  0  0
 20 21  2  0  0  0
 20100  1  0  0  0
 21 23  1  0  0  0
 22 28  1  0  0  0
 22 32  2  0  0  0
 26 27  1  0  0  0
 28101  1  0  0  0
 28102  1  0  0  0
 29103  1  0  0  0
 29104  1  0  0  0
 33 34  1  0  0  0
 33 66  1  0  0  0
 33 70  2  0  0  0
 34 36  1  0  0  0
 34 59  1  0  0  0
 34105  1  0  0  0
 35 44  2  0  0  0
 35 45  1  0  0  0
 35 68  1  0  0  0
 36 56  1  0  0  0
 36106  1  0  0  0
 37 39  1  0  0  0
 37 47  1  0  0  0
 37 66  1  0  0  0
 37107  1  0  0  0
 38 43  2  0  0  0
 38 46  1  0  0  0
 38 47  1  0  0  0
 39 64  1  0  0  0
 39 67  2  0  0  0
 40 52  1  0  0  0
 40 53  2  0  0  0
 40 58  1  0  0  0
 41108  1  0  0  0
 41109  1  0  0  0
 41110  1  0  0  0
 41 48  1  0  0  0
 42 43  1  0  0  0
 42 66  1  0  0  0
 42111  1  0  0  0
 42112  1  0  0  0
 43 44  1  0  0  0
 44113  1  0  0  0
 45 46  2  0  0  0
 45114  1  0  0  0
 46115  1  0  0  0
 47116  1  0  0  0
 47117  1  0  0  0
 48 56  1  0  0  0
 48 65  1  0  0  0
 48118  1  0  0  0
 49 50  1  0  0  0
 49 53  1  0  0  0
 49 64  1  0  0  0
 49119  1  0  0  0
 50 51  1  0  0  0
 50120  1  0  0  0
 50121  1  0  0  0
 51 52  1  0  0  0
 51122  1  0  0  0
 51123  1  0  0  0
 52124  1  0  0  0
 52125  1  0  0  0
 53 54  1  0  0  0
 54 55  2  0  0  0
 54126  1  0  0  0
 55 57  1  0  0  0
 55127  1  0  0  0
 56 69  2  0  0  0
 57 58  2  0  0  0
 57128  1  0  0  0
 58129  1  0  0  0
 59 60  1  0  0  0
 59 61  1  0  0  0
 59 62  1  0  0  0
 60130  1  0  0  0
 60131  1  0  0  0
 60132  1  0  0  0
 61133  1  0  0  0
 61134  1  0  0  0
 61135  1  0  0  0
 62136  1  0  0  0
 62137  1  0  0  0
 62138  1  0  0  0
 63 65  1  0  0  0
 63139  1  0  0  0
 63140  1  0  0  0
 63141  1  0  0  0
 64142  1  0  0  0
 65143  1  0  0  0
 68 82  1  0  0  0
 71144  1  0  0  0
 71145  1  0  0  0
 71 72  1  0  0  0
 71 73  1  0  0  0
 72 74  1  0  0  0
 72 75  1  0  0  0
 72146  1  0  0  0
 73 76  1  0  0  0
 73 77  1  0  0  0
 73147  1  0  0  0
 74 76  1  0  0  0
 74 83  1  0  0  0
 74148  1  0  0  0
 75 77  1  0  0  0
 75 82  1  0  0  0
 75149  1  0  0  0
 76 84  1  0  0  0
 76150  1  0  0  0
 77 78  1  0  0  0
 77 79  1  0  0  0
 78151  1  0  0  0
 78152  1  0  0  0
 78153  1  0  0  0
 79154  1  0  0  0
 79155  1  0  0  0
 79156  1  0  0  0
 80157  1  0  0  0
 80158  1  0  0  0
 80159  1  0  0  0
 80 83  1  0  0  0
 81 83  1  0  0  0
 81160  1  0  0  0
 81161  1  0  0  0
 81162  1  0  0  0
 82163  1  0  0  0
 82164  1  0  0  0
 83165  1  0  0  0
 84166  1  0  0  0
M  ISO  4   1 100  68 101  82 101  84 100
M  END
> <chiral flag>
0

> <version>
0

> <s_m_source_file>
/data/baiqing/PycharmProjects/Reinvent-master-3.2/result/LINK_invent/BTK/process_docking_weight1_custom_sum_contain_oxygen_bond_distance_aromatic_linkinvent_7_9_3/rearranged_h_0183.sdf

> <i_m_source_file_index>
62

> <r_mmod_Potential_Energy-OPLS-2005>
2074.56616210938

> <r_mmod_Stretch_Energy-OPLS-2005>
786.977355957031

> <r_mmod_Bend_Energy-OPLS-2005>
725.944152832031

> <r_mmod_Torsional_Energy-OPLS-2005>
318.818389892578

> <r_mmod_Improper_Torsional_Energy-OPLS-2005>
3.73910999298096

> <r_mmod_Van_der_Waal_Energy-OPLS-2005>
108.441078186035

> <r_mmod_Electrostatic_Energy-OPLS-2005>
-357.823181152344

> <r_mmod_Solvation_Energy-OPLS-2005>
-196.925643920898

> <b_mmod_Minimization_Converged-OPLS-2005>
0

> <r_mmod_RMS_Derivative-OPLS-2005>
2.95316553115845

$$$$
63
                    3D
 Structure written by MMmdl.
174184  0  0  1  0            999 V2000
  -30.5807  -14.7977   20.5138 C   0  0  0  0  0  0
  -30.4457  -12.5084   19.4828 C   0  0  0  0  0  0
  -29.5214  -12.5404   18.2447 C   0  0  0  0  0  0
  -28.0513  -12.3351   18.6532 C   0  0  0  0  0  0
  -27.6437  -13.2313   19.8548 C   0  0  2  0  0  0
  -28.6874  -13.1599   20.9901 C   0  0  0  0  0  0
  -25.2528  -13.8199   20.5693 C   0  0  0  0  0  0
  -24.1823  -13.0425   20.9248 C   0  0  0  0  0  0
  -24.6423  -11.6913   20.8743 C   0  0  0  0  0  0
  -23.9067  -10.4319   21.0417 C   0  0  0  0  0  0
  -24.3625   -9.4240   21.9181 C   0  0  0  0  0  0
  -23.6317   -8.2275   22.0744 C   0  0  0  0  0  0
  -22.4296   -8.0297   21.3541 C   0  0  0  0  0  0
  -21.9926   -9.0270   20.4633 C   0  0  0  0  0  0
  -22.7245  -10.2174   20.3041 C   0  0  0  0  0  0
  -21.6857   -6.0754   22.5268 C   0  0  0  0  0  0
  -21.4026   -6.5624   23.8211 C   0  0  0  0  0  0
  -21.3662   -5.6753   24.9155 C   0  0  0  0  0  0
  -21.6052   -4.3023   24.7190 C   0  0  0  0  0  0
  -21.8832   -3.8135   23.4298 C   0  0  0  0  0  0
  -21.9210   -4.6973   22.3372 C   0  0  0  0  0  0
  -22.7856  -13.5260   21.1848 C   0  0  0  0  0  0
  -22.1662   -4.2182   21.0944 F   0  0  0  0  0  0
  -21.5654   -3.4480   25.7686 F   0  0  0  0  0  0
  -29.9739  -13.5625   20.4120 N   0  0  0  0  0  0
  -26.2953  -12.9390   20.3300 N   0  0  0  0  0  0
  -25.9356  -11.6529   20.5752 N   0  0  0  0  0  0
  -22.0417  -12.8289   22.0390 N   0  0  0  0  0  0
  -25.4055  -15.1927   20.4147 N   0  0  0  0  0  0
  -31.7744  -14.8980   20.1966 O   0  0  0  0  0  0
  -21.6634   -6.8912   21.4245 O   0  0  0  0  0  0
  -22.3574  -14.5542   20.6632 O   0  0  0  0  0  0
  -24.6343  -31.8607   23.1926 C   0  0  0  0  0  0
  -25.9176  -32.4819   23.8276 C   0  0  1  0  0  0
  -27.1716  -27.2250   20.1674 C   0  0  0  0  0  0
  -25.5983  -33.8612   24.2235 N   0  0  0  0  0  0
  -23.4298  -30.4855   21.5363 C   0  0  2  0  0  0
  -24.8687  -28.9334   20.1010 C   0  0  0  0  0  0
  -22.7520  -29.4678   22.4858 C   0  0  0  0  0  0
  -18.0314  -28.1483   22.8537 C   0  0  0  0  0  0
  -24.1474  -36.7200   23.2643 C   0  0  0  0  0  0
  -25.9769  -30.7589   21.3823 C   0  0  0  0  0  0
  -26.0397  -29.3792   20.7302 C   0  0  0  0  0  0
  -27.1992  -28.5359   20.7546 C   0  0  0  0  0  0
  -25.9959  -26.8621   19.4769 C   0  0  0  0  0  0
  -24.8572  -27.6889   19.4530 C   0  0  0  0  0  0
  -23.6455  -29.8290   20.1485 C   0  0  0  0  0  0
  -25.4122  -36.3079   24.0340 C   0  0  1  0  0  0
  -20.5929  -28.3800   23.1266 C   0  0  2  0  0  0
  -20.6815  -26.9518   22.5433 C   0  0  0  0  0  0
  -19.5769  -26.6464   21.5276 C   0  0  0  0  0  0
  -18.1947  -26.8035   22.1656 C   0  0  0  0  0  0
  -19.1568  -28.8955   23.2910 C   0  0  0  0  0  0
  -18.9487  -30.1548   23.8972 C   0  0  0  0  0  0
  -17.6495  -30.6683   24.0617 C   0  0  0  0  0  0
  -25.9077  -34.9481   23.5071 C   0  0  0  0  0  0
  -16.5393  -29.9195   23.6376 C   0  0  0  0  0  0
  -16.7295  -28.6605   23.0424 C   0  0  0  0  0  0
  -26.4532  -31.6663   25.0691 C   0  0  0  0  0  0
  -25.3677  -31.3787   26.1345 C   0  0  0  0  0  0
  -27.0411  -30.3098   24.6175 C   0  0  0  0  0  0
  -27.6144  -32.4378   25.7404 C   0  0  0  0  0  0
  -27.5565  -37.1740   24.8491 C   0  0  0  0  0  0
  -21.4232  -29.3086   22.3582 N   0  0  0  0  0  0
  -26.4270  -37.3807   23.9454 N   0  0  0  0  0  0
  -24.6987  -31.0553   22.0924 N   0  0  0  0  0  0
  -23.4209  -28.8243   23.2989 O   0  0  0  0  0  0
  -28.2104  -26.2709   20.2431 O   0  0  0  0  0  0
  -26.5633  -34.9002   22.4633 O   0  0  0  0  0  0
  -23.5486  -32.1461   23.7200 O   0  0  0  0  0  0
  -30.4160  -18.4140   23.0840 C   0  0  0  0  0  0
  -29.7641  -19.5902   22.6640 C   0  0  0  0  0  0
  -29.4037  -19.6283   21.2723 C   0  0  0  0  0  0
  -29.9863  -17.2555   21.1714 C   0  0  0  0  0  0
  -30.4384  -21.8749   20.2744 C   0  0  0  0  0  0
  -28.0135  -22.0934   20.6465 C   0  0  0  0  0  0
  -29.1521  -23.6836   18.8175 C   0  0  0  0  0  0
  -29.1692  -20.9928   20.4267 C   0  0  2  0  0  0
  -30.0129  -23.3325   19.9998 C   0  0  1  0  0  0
  -28.5273  -23.5302   20.1902 C   0  0  2  0  0  0
  -27.4860  -18.1759   27.2952 C   0  0  0  0  0  0
  -29.4143  -22.1300   23.6211 C   0  0  0  0  0  0
  -27.8755  -24.8853   20.7617 C   0  0  0  0  0  0
  -28.5164  -19.3164   27.3669 C   0  0  0  0  0  0
  -28.5612  -20.1040   24.9347 C   0  0  0  0  0  0
  -29.5600  -20.6103   23.8271 C   0  0  1  0  0  0
  -30.5152  -17.2828   22.3767 N   0  0  0  0  0  0
  -29.4752  -18.4002   20.5926 N   0  0  0  0  0  0
  -29.7698  -15.9259   20.6834 N   0  0  0  0  0  0
  -29.2800  -19.5675   26.1182 N   0  3  0  0  0  0
  -31.4835  -12.6670   19.1879 H   0  0  0  0  0  0
  -30.4152  -11.5294   19.9692 H   0  0  0  0  0  0
  -29.8309  -11.7760   17.5319 H   0  0  0  0  0  0
  -29.6237  -13.4962   17.7293 H   0  0  0  0  0  0
  -27.9447  -11.2855   18.9212 H   0  0  0  0  0  0
  -27.3875  -12.5027   17.8048 H   0  0  0  0  0  0
  -27.6318  -14.2538   19.4777 H   0  0  0  0  0  0
  -28.7610  -12.1527   21.3940 H   0  0  0  0  0  0
  -28.4099  -13.7994   21.8284 H   0  0  0  0  0  0
  -25.2792   -9.5726   22.4741 H   0  0  0  0  0  0
  -24.0021   -7.4678   22.7482 H   0  0  0  0  0  0
  -21.0852   -8.8793   19.8969 H   0  0  0  0  0  0
  -22.3690  -10.9697   19.6148 H   0  0  0  0  0  0
  -21.1988   -7.6130   23.9730 H   0  0  0  0  0  0
  -21.1484   -6.0462   25.9075 H   0  0  0  0  0  0
  -22.0616   -2.7602   23.2736 H   0  0  0  0  0  0
  -22.3948  -11.9960   22.4836 H   0  0  0  0  0  0
  -21.1032  -13.1368   22.2532 H   0  0  0  0  0  0
  -24.6093  -15.8107   20.5384 H   0  0  0  0  0  0
  -26.2079  -15.6653   20.0170 H   0  0  0  0  0  0
  -26.7224  -32.5458   23.0981 H   0  0  0  0  0  0
  -25.0222  -33.9761   25.0440 H   0  0  0  0  0  0
  -22.7320  -31.3130   21.3949 H   0  0  0  0  0  0
  -23.3827  -35.9443   23.3355 H   0  0  0  0  0  0
  -24.3493  -36.8782   22.2038 H   0  0  0  0  0  0
  -23.7163  -37.6386   23.6622 H   0  0  0  0  0  0
  -26.1314  -31.5195   20.6139 H   0  0  0  0  0  0
  -26.8538  -30.7972   22.0194 H   0  0  0  0  0  0
  -28.0818  -28.8614   21.2827 H   0  0  0  0  0  0
  -25.9418  -25.9111   18.9655 H   0  0  0  0  0  0
  -23.9676  -27.3609   18.9319 H   0  0  0  0  0  0
  -23.7730  -30.6142   19.4020 H   0  0  0  0  0  0
  -22.7665  -29.2649   19.8353 H   0  0  0  0  0  0
  -25.1303  -36.1892   25.0824 H   0  0  0  0  0  0
  -21.0045  -28.3439   24.1376 H   0  0  0  0  0  0
  -20.5863  -26.2402   23.3653 H   0  0  0  0  0  0
  -21.6657  -26.7631   22.1128 H   0  0  0  0  0  0
  -19.6945  -25.6380   21.1322 H   0  0  0  0  0  0
  -19.6735  -27.3282   20.6826 H   0  0  0  0  0  0
  -17.4223  -26.6901   21.4035 H   0  0  0  0  0  0
  -18.0279  -26.0189   22.9045 H   0  0  0  0  0  0
  -19.7967  -30.7346   24.2404 H   0  0  0  0  0  0
  -17.5059  -31.6393   24.5180 H   0  0  0  0  0  0
  -15.5391  -30.3135   23.7689 H   0  0  0  0  0  0
  -15.8686  -28.0929   22.7152 H   0  0  0  0  0  0
  -24.5943  -30.7104   25.7541 H   0  0  0  0  0  0
  -24.8757  -32.2943   26.4624 H   0  0  0  0  0  0
  -25.7908  -30.9006   27.0192 H   0  0  0  0  0  0
  -26.2993  -29.6811   24.1241 H   0  0  0  0  0  0
  -27.4203  -29.7410   25.4673 H   0  0  0  0  0  0
  -27.8831  -30.4456   23.9388 H   0  0  0  0  0  0
  -27.2887  -33.3777   26.1857 H   0  0  0  0  0  0
  -28.3950  -32.6769   25.0167 H   0  0  0  0  0  0
  -28.0798  -31.8552   26.5358 H   0  0  0  0  0  0
  -28.2618  -38.0009   24.7567 H   0  0  0  0  0  0
  -28.1038  -36.2552   24.6292 H   0  0  0  0  0  0
  -27.2263  -37.1349   25.8891 H   0  0  0  0  0  0
  -20.9443  -29.8658   21.6660 H   0  0  0  0  0  0
  -26.0162  -38.2880   24.1514 H   0  0  0  0  0  0
  -30.8172  -18.3525   24.0852 H   0  0  0  0  0  0
  -31.0903  -21.4951   19.4877 H   0  0  0  0  0  0
  -31.0397  -21.8456   21.1790 H   0  0  0  0  0  0
  -27.6728  -22.1177   21.6689 H   0  0  0  0  0  0
  -27.1267  -21.8176   20.0731 H   0  0  0  0  0  0
  -28.9594  -22.9076   18.0816 H   0  0  0  0  0  0
  -29.2218  -24.6939   18.4066 H   0  0  0  0  0  0
  -28.9707  -20.6353   19.4119 H   0  0  0  0  0  0
  -30.6563  -24.1154   20.3994 H   0  0  0  0  0  0
  -27.2872  -17.7957   28.3042 H   0  0  0  0  0  0
  -27.8426  -17.3351   26.6945 H   0  0  0  0  0  0
  -26.5376  -18.5414   26.8905 H   0  0  0  0  0  0
  -29.9904  -22.5469   22.8102 H   0  0  0  0  0  0
  -29.7918  -22.6376   24.5132 H   0  0  0  0  0  0
  -28.3809  -22.4560   23.5452 H   0  0  0  0  0  0
  -28.1217  -24.9115   21.8234 H   0  0  0  0  0  0
  -26.7972  -24.7168   20.7490 H   0  0  0  0  0  0
  -29.2599  -19.0333   28.1148 H   0  0  0  0  0  0
  -28.0521  -20.2327   27.7356 H   0  0  0  0  0  0
  -27.8582  -19.3571   24.5592 H   0  0  0  0  0  0
  -27.9448  -20.9354   25.2761 H   0  0  0  0  0  0
  -30.5503  -20.5905   24.2814 H   0  0  0  0  0  0
  -28.7920  -15.6903   20.6865 H   0  0  0  0  0  0
  -29.7864  -18.7334   25.8781 H   0  0  0  0  0  0
  -29.9577  -20.2716   26.3680 H   0  0  0  0  0  0
  1 25  1  0  0  0
  1 30  2  0  0  0
  1 89  1  0  0  0
  2  3  1  0  0  0
  2 25  1  0  0  0
  2 91  1  0  0  0
  2 92  1  0  0  0
  3  4  1  0  0  0
  3 93  1  0  0  0
  3 94  1  0  0  0
  4  5  1  0  0  0
  4 95  1  0  0  0
  4 96  1  0  0  0
  5  6  1  0  0  0
  5 26  1  0  0  0
  5 97  1  0  0  0
  6 25  1  0  0  0
  6 98  1  0  0  0
  6 99  1  0  0  0
  7  8  2  0  0  0
  7 26  1  0  0  0
  7 29  1  0  0  0
  8  9  1  0  0  0
  8 22  1  0  0  0
  9 10  1  0  0  0
  9 27  2  0  0  0
 10 11  2  0  0  0
 10 15  1  0  0  0
 11 12  1  0  0  0
 11100  1  0  0  0
 12 13  2  0  0  0
 12101  1  0  0  0
 13 14  1  0  0  0
 13 31  1  0  0  0
 14 15  2  0  0  0
 14102  1  0  0  0
 15103  1  0  0  0
 16 17  2  0  0  0
 16 21  1  0  0  0
 16 31  1  0  0  0
 17 18  1  0  0  0
 17104  1  0  0  0
 18 19  2  0  0  0
 18105  1  0  0  0
 19 20  1  0  0  0
 19 24  1  0  0  0
 20 21  2  0  0  0
 20106  1  0  0  0
 21 23  1  0  0  0
 22 28  1  0  0  0
 22 32  2  0  0  0
 26 27  1  0  0  0
 28107  1  0  0  0
 28108  1  0  0  0
 29109  1  0  0  0
 29110  1  0  0  0
 33 34  1  0  0  0
 33 66  1  0  0  0
 33 70  2  0  0  0
 34 36  1  0  0  0
 34 59  1  0  0  0
 34111  1  0  0  0
 35 44  2  0  0  0
 35 45  1  0  0  0
 35 68  1  0  0  0
 36 56  1  0  0  0
 36112  1  0  0  0
 37 39  1  0  0  0
 37 47  1  0  0  0
 37 66  1  0  0  0
 37113  1  0  0  0
 38 43  2  0  0  0
 38 46  1  0  0  0
 38 47  1  0  0  0
 39 64  1  0  0  0
 39 67  2  0  0  0
 40 52  1  0  0  0
 40 53  2  0  0  0
 40 58  1  0  0  0
 41114  1  0  0  0
 41115  1  0  0  0
 41116  1  0  0  0
 41 48  1  0  0  0
 42 43  1  0  0  0
 42 66  1  0  0  0
 42117  1  0  0  0
 42118  1  0  0  0
 43 44  1  0  0  0
 44119  1  0  0  0
 45 46  2  0  0  0
 45120  1  0  0  0
 46121  1  0  0  0
 47122  1  0  0  0
 47123  1  0  0  0
 48 56  1  0  0  0
 48 65  1  0  0  0
 48124  1  0  0  0
 49 50  1  0  0  0
 49 53  1  0  0  0
 49 64  1  0  0  0
 49125  1  0  0  0
 50 51  1  0  0  0
 50126  1  0  0  0
 50127  1  0  0  0
 51 52  1  0  0  0
 51128  1  0  0  0
 51129  1  0  0  0
 52130  1  0  0  0
 52131  1  0  0  0
 53 54  1  0  0  0
 54 55  2  0  0  0
 54132  1  0  0  0
 55 57  1  0  0  0
 55133  1  0  0  0
 56 69  2  0  0  0
 57 58  2  0  0  0
 57134  1  0  0  0
 58135  1  0  0  0
 59 60  1  0  0  0
 59 61  1  0  0  0
 59 62  1  0  0  0
 60136  1  0  0  0
 60137  1  0  0  0
 60138  1  0  0  0
 61139  1  0  0  0
 61140  1  0  0  0
 61141  1  0  0  0
 62142  1  0  0  0
 62143  1  0  0  0
 62144  1  0  0  0
 63 65  1  0  0  0
 63145  1  0  0  0
 63146  1  0  0  0
 63147  1  0  0  0
 64148  1  0  0  0
 65149  1  0  0  0
 68 83  1  0  0  0
 71 72  2  0  0  0
 71 87  1  0  0  0
 71150  1  0  0  0
 72 73  1  0  0  0
 72 86  1  0  0  0
 73 88  2  0  0  0
 73 78  1  0  0  0
 74 87  2  0  0  0
 74 88  1  0  0  0
 74 89  1  0  0  0
 75 78  1  0  0  0
 75151  1  0  0  0
 75152  1  0  0  0
 75 79  1  0  0  0
 76 78  1  0  0  0
 76 80  1  0  0  0
 76153  1  0  0  0
 76154  1  0  0  0
 77 79  1  0  0  0
 77 80  1  0  0  0
 77155  1  0  0  0
 77156  1  0  0  0
 78157  1  0  0  0
 79 80  1  0  0  0
 79158  1  0  0  0
 80 83  1  0  0  0
 81 84  1  0  0  0
 81159  1  0  0  0
 81160  1  0  0  0
 81161  1  0  0  0
 82162  1  0  0  0
 82163  1  0  0  0
 82164  1  0  0  0
 82 86  1  0  0  0
 83165  1  0  0  0
 83166  1  0  0  0
 84 90  1  0  0  0
 84167  1  0  0  0
 84168  1  0  0  0
 85 86  1  0  0  0
 85 90  1  0  0  0
 85169  1  0  0  0
 85170  1  0  0  0
 86171  1  0  0  0
 89172  1  0  0  0
 90173  1  0  0  0
 90174  1  0  0  0
M  CHG  1  90   1
M  ISO  4   1 100  68 101  83 101  89 100
M  END
> <chiral flag>
0

> <version>
0

> <s_m_source_file>
/data/baiqing/PycharmProjects/Reinvent-master-3.2/result/LINK_invent/BTK/process_docking_weight1_custom_sum_contain_oxygen_bond_distance_aromatic_linkinvent_7_9_3/rearranged_h_0183.sdf

> <i_m_source_file_index>
63

> <r_mmod_Potential_Energy-OPLS-2005>
-63.6244430541992

> <r_mmod_Stretch_Energy-OPLS-2005>
146.761520385742

> <r_mmod_Bend_Energy-OPLS-2005>
286.302093505859

> <r_mmod_Torsional_Energy-OPLS-2005>
400.035675048828

> <r_mmod_Improper_Torsional_Energy-OPLS-2005>
10.6617116928101

> <r_mmod_Van_der_Waal_Energy-OPLS-2005>
141.557571411133

> <r_mmod_Electrostatic_Energy-OPLS-2005>
-671.351928710938

> <r_mmod_Solvation_Energy-OPLS-2005>
-495.204223632812

> <b_mmod_Minimization_Converged-OPLS-2005>
0

> <r_mmod_RMS_Derivative-OPLS-2005>
7.73367071151733

$$$$
64
                    3D
 Structure written by MMmdl.
154164  0  0  1  0            999 V2000
  -30.4635  -15.2211   20.3901 C   0  0  0  0  0  0
  -30.4487  -12.7832   19.5109 C   0  0  0  0  0  0
  -29.5422  -12.5759   18.2707 C   0  0  0  0  0  0
  -28.0781  -12.3217   18.6871 C   0  0  0  0  0  0
  -27.6140  -13.2781   19.8162 C   0  0  2  0  0  0
  -28.6554  -13.4343   20.9427 C   0  0  0  0  0  0
  -25.2393  -13.8275   20.5695 C   0  0  0  0  0  0
  -24.1742  -13.0454   20.9242 C   0  0  0  0  0  0
  -24.6408  -11.6945   20.8735 C   0  0  0  0  0  0
  -23.9111  -10.4308   21.0411 C   0  0  0  0  0  0
  -24.3671   -9.4215   21.9176 C   0  0  0  0  0  0
  -23.6324   -8.2257   22.0745 C   0  0  0  0  0  0
  -22.4298   -8.0304   21.3550 C   0  0  0  0  0  0
  -21.9950   -9.0280   20.4652 C   0  0  0  0  0  0
  -22.7291  -10.2145   20.3060 C   0  0  0  0  0  0
  -21.6858   -6.0756   22.5273 C   0  0  0  0  0  0
  -21.4017   -6.5653   23.8212 C   0  0  0  0  0  0
  -21.3658   -5.6802   24.9171 C   0  0  0  0  0  0
  -21.6038   -4.3062   24.7216 C   0  0  0  0  0  0
  -21.8827   -3.8160   23.4338 C   0  0  0  0  0  0
  -21.9192   -4.6980   22.3397 C   0  0  0  0  0  0
  -22.7770  -13.5202   21.1908 C   0  0  0  0  0  0
  -22.1667   -4.2176   21.0973 F   0  0  0  0  0  0
  -21.5624   -3.4536   25.7724 F   0  0  0  0  0  0
  -29.8887  -13.9281   20.3097 N   0  0  0  0  0  0
  -26.2835  -12.9533   20.3187 N   0  0  0  0  0  0
  -25.9343  -11.6640   20.5687 N   0  0  0  0  0  0
  -22.0429  -12.8169   22.0463 N   0  0  0  0  0  0
  -25.3992  -15.2007   20.4030 N   0  0  0  0  0  0
  -31.6977  -15.2209   20.2727 O   0  0  0  0  0  0
  -21.6644   -6.8905   21.4243 O   0  0  0  0  0  0
  -22.3417  -14.5490   20.6730 O   0  0  0  0  0  0
  -24.6577  -31.8208   23.1780 C   0  0  0  0  0  0
  -25.9283  -32.4576   23.8183 C   0  0  1  0  0  0
  -27.2086  -26.9348   20.1620 C   0  0  0  0  0  0
  -25.5941  -33.8397   24.2083 N   0  0  0  0  0  0
  -23.4674  -30.4325   21.5345 C   0  0  2  0  0  0
  -24.9152  -28.8197   20.1119 C   0  0  0  0  0  0
  -22.7583  -29.4386   22.4905 C   0  0  0  0  0  0
  -18.0221  -28.1505   22.8498 C   0  0  0  0  0  0
  -24.1478  -36.7217   23.2650 C   0  0  0  0  0  0
  -26.0359  -30.6231   21.4015 C   0  0  0  0  0  0
  -26.1018  -29.2161   20.7416 C   0  0  0  0  0  0
  -27.2468  -28.2990   20.7347 C   0  0  0  0  0  0
  -25.9931  -26.6821   19.4920 C   0  0  0  0  0  0
  -24.8886  -27.5730   19.4625 C   0  0  0  0  0  0
  -23.6983  -29.7499   20.1570 C   0  0  0  0  0  0
  -25.4116  -36.2970   24.0299 C   0  0  1  0  0  0
  -20.5821  -28.3813   23.1320 C   0  0  2  0  0  0
  -20.6625  -26.9465   22.5596 C   0  0  0  0  0  0
  -19.5664  -26.6447   21.5333 C   0  0  0  0  0  0
  -18.1812  -26.8039   22.1625 C   0  0  0  0  0  0
  -19.1479  -28.9000   23.2865 C   0  0  0  0  0  0
  -18.9427  -30.1610   23.8885 C   0  0  0  0  0  0
  -17.6419  -30.6698   24.0619 C   0  0  0  0  0  0
  -25.9076  -34.9345   23.5019 C   0  0  0  0  0  0
  -16.5306  -29.9206   23.6395 C   0  0  0  0  0  0
  -16.7205  -28.6620   23.0406 C   0  0  0  0  0  0
  -26.4527  -31.6525   25.0711 C   0  0  0  0  0  0
  -25.3683  -31.3757   26.1403 C   0  0  0  0  0  0
  -27.0402  -30.2895   24.6416 C   0  0  0  0  0  0
  -27.6012  -32.4349   25.7492 C   0  0  0  0  0  0
  -27.5565  -37.1753   24.8463 C   0  0  0  0  0  0
  -21.4242  -29.3109   22.3732 N   0  0  0  0  0  0
  -26.4274  -37.3701   23.9402 N   0  0  0  0  0  0
  -24.7437  -30.9842   22.0934 N   0  0  0  0  0  0
  -23.4165  -28.7848   23.3044 O   0  0  0  0  0  0
  -28.2228  -25.8457   20.2016 O   0  0  0  0  0  0
  -26.5712  -34.8887   22.4636 O   0  0  0  0  0  0
  -23.5662  -32.1179   23.6887 O   0  0  0  0  0  0
  -26.9110  -19.3580   22.4250 C   0  0  0  0  0  0
  -28.1215  -18.9230   21.9020 C   0  0  0  0  0  0
  -28.8024  -19.4999   20.7615 C   0  0  0  0  0  0
  -28.3782  -21.0086   20.5388 C   0  0  0  0  0  0
  -26.3796  -20.4730   21.7613 C   0  0  0  0  0  0
  -29.1252  -17.8716   22.2366 C   0  0  0  0  0  0
  -28.9812  -23.6734   21.2110 C   0  0  0  0  0  0
  -29.8371  -18.0772   20.8282 C   0  0  2  0  0  0
  -28.8222  -22.6397   20.1236 C   0  0  1  0  0  0
  -27.9619  -24.2151   20.2243 C   0  0  2  0  0  0
  -24.9569  -20.9160   22.0088 C   0  0  0  0  0  0
  -27.0891  -21.2448   20.9070 N   0  0  0  0  0  0
  -29.6859  -16.4765   20.3921 N   0  0  0  0  0  0
  -31.4695  -12.9963   19.1860 H   0  0  0  0  0  0
  -30.5092  -11.8755   20.1168 H   0  0  0  0  0  0
  -29.9097  -11.7500   17.6605 H   0  0  0  0  0  0
  -29.5942  -13.4652   17.6383 H   0  0  0  0  0  0
  -28.0027  -11.2873   19.0236 H   0  0  0  0  0  0
  -27.4210  -12.4149   17.8197 H   0  0  0  0  0  0
  -27.5304  -14.2543   19.3351 H   0  0  0  0  0  0
  -28.8141  -12.4986   21.4778 H   0  0  0  0  0  0
  -28.3094  -14.1571   21.6822 H   0  0  0  0  0  0
  -25.2820   -9.5679   22.4746 H   0  0  0  0  0  0
  -24.0028   -7.4650   22.7460 H   0  0  0  0  0  0
  -21.0884   -8.8820   19.8968 H   0  0  0  0  0  0
  -22.3761  -10.9692   19.6179 H   0  0  0  0  0  0
  -21.2015   -7.6159   23.9728 H   0  0  0  0  0  0
  -21.1467   -6.0521   25.9078 H   0  0  0  0  0  0
  -22.0605   -2.7621   23.2819 H   0  0  0  0  0  0
  -22.4070  -11.9838   22.4860 H   0  0  0  0  0  0
  -21.1054  -13.1183   22.2696 H   0  0  0  0  0  0
  -24.6209  -15.8447   20.4910 H   0  0  0  0  0  0
  -26.2164  -15.6318   19.9929 H   0  0  0  0  0  0
  -26.7342  -32.5101   23.0883 H   0  0  0  0  0  0
  -24.9983  -33.9472   25.0163 H   0  0  0  0  0  0
  -22.7827  -31.2694   21.3738 H   0  0  0  0  0  0
  -23.3756  -35.9534   23.3274 H   0  0  0  0  0  0
  -24.3545  -36.8909   22.2071 H   0  0  0  0  0  0
  -23.7234  -37.6388   23.6743 H   0  0  0  0  0  0
  -26.2057  -31.3618   20.6194 H   0  0  0  0  0  0
  -26.9045  -30.6790   22.0474 H   0  0  0  0  0  0
  -28.1560  -28.6072   21.2305 H   0  0  0  0  0  0
  -25.8685  -25.7321   18.9884 H   0  0  0  0  0  0
  -23.9902  -27.2722   18.9395 H   0  0  0  0  0  0
  -23.8473  -30.5324   19.4107 H   0  0  0  0  0  0
  -22.8028  -29.2102   19.8383 H   0  0  0  0  0  0
  -25.1314  -36.1749   25.0788 H   0  0  0  0  0  0
  -20.9822  -28.3472   24.1487 H   0  0  0  0  0  0
  -20.5248  -26.2458   23.3833 H   0  0  0  0  0  0
  -21.6513  -26.7220   22.1625 H   0  0  0  0  0  0
  -19.6627  -27.3264   20.6895 H   0  0  0  0  0  0
  -19.6819  -25.6376   21.1378 H   0  0  0  0  0  0
  -17.4110  -26.6922   21.3940 H   0  0  0  0  0  0
  -18.0064  -26.0136   22.8953 H   0  0  0  0  0  0
  -19.7905  -30.7513   24.2178 H   0  0  0  0  0  0
  -17.4943  -31.6393   24.5205 H   0  0  0  0  0  0
  -15.5300  -30.3105   23.7808 H   0  0  0  0  0  0
  -15.8608  -28.0911   22.7166 H   0  0  0  0  0  0
  -24.5885  -30.7058   25.7769 H   0  0  0  0  0  0
  -24.8827  -32.2930   26.4737 H   0  0  0  0  0  0
  -25.7943  -30.9019   27.0254 H   0  0  0  0  0  0
  -26.3031  -29.6631   24.1377 H   0  0  0  0  0  0
  -27.3894  -29.7184   25.5027 H   0  0  0  0  0  0
  -27.8999  -30.4093   23.9825 H   0  0  0  0  0  0
  -27.2572  -33.3704   26.1924 H   0  0  0  0  0  0
  -28.3877  -32.6836   25.0355 H   0  0  0  0  0  0
  -28.0633  -31.8590   26.5524 H   0  0  0  0  0  0
  -28.2552  -38.0077   24.7522 H   0  0  0  0  0  0
  -28.1085  -36.2599   24.6262 H   0  0  0  0  0  0
  -27.2281  -37.1370   25.8868 H   0  0  0  0  0  0
  -20.9458  -29.9059   21.7122 H   0  0  0  0  0  0
  -26.0119  -38.2758   24.1415 H   0  0  0  0  0  0
  -26.3914  -18.8413   23.2200 H   0  0  0  0  0  0
  -29.7325  -18.2075   23.0774 H   0  0  0  0  0  0
  -28.6591  -16.9096   22.4584 H   0  0  0  0  0  0
  -29.9432  -24.1786   21.2393 H   0  0  0  0  0  0
  -28.6030  -23.4086   22.1975 H   0  0  0  0  0  0
  -30.8794  -18.3607   20.9660 H   0  0  0  0  0  0
  -29.6143  -22.5851   19.3763 H   0  0  0  0  0  0
  -26.9001  -24.0659   20.4200 H   0  0  0  0  0  0
  -24.3091  -20.5181   21.2274 H   0  0  0  0  0  0
  -24.8754  -22.0041   21.9989 H   0  0  0  0  0  0
  -24.5967  -20.5451   22.9665 H   0  0  0  0  0  0
  -28.7159  -16.2525   20.2329 H   0  0  0  0  0  0
  1 25  1  0  0  0
  1 30  2  0  0  0
  1 83  1  0  0  0
  2  3  1  0  0  0
  2 25  1  0  0  0
  2 84  1  0  0  0
  2 85  1  0  0  0
  3  4  1  0  0  0
  3 86  1  0  0  0
  3 87  1  0  0  0
  4  5  1  0  0  0
  4 88  1  0  0  0
  4 89  1  0  0  0
  5  6  1  0  0  0
  5 26  1  0  0  0
  5 90  1  0  0  0
  6 25  1  0  0  0
  6 91  1  0  0  0
  6 92  1  0  0  0
  7  8  2  0  0  0
  7 26  1  0  0  0
  7 29  1  0  0  0
  8  9  1  0  0  0
  8 22  1  0  0  0
  9 10  1  0  0  0
  9 27  2  0  0  0
 10 11  2  0  0  0
 10 15  1  0  0  0
 11 12  1  0  0  0
 11 93  1  0  0  0
 12 13  2  0  0  0
 12 94  1  0  0  0
 13 14  1  0  0  0
 13 31  1  0  0  0
 14 15  2  0  0  0
 14 95  1  0  0  0
 15 96  1  0  0  0
 16 17  2  0  0  0
 16 21  1  0  0  0
 16 31  1  0  0  0
 17 18  1  0  0  0
 17 97  1  0  0  0
 18 19  2  0  0  0
 18 98  1  0  0  0
 19 20  1  0  0  0
 19 24  1  0  0  0
 20 21  2  0  0  0
 20 99  1  0  0  0
 21 23  1  0  0  0
 22 28  1  0  0  0
 22 32  2  0  0  0
 26 27  1  0  0  0
 28100  1  0  0  0
 28101  1  0  0  0
 29102  1  0  0  0
 29103  1  0  0  0
 33 34  1  0  0  0
 33 66  1  0  0  0
 33 70  2  0  0  0
 34 36  1  0  0  0
 34 59  1  0  0  0
 34104  1  0  0  0
 35 44  2  0  0  0
 35 45  1  0  0  0
 35 68  1  0  0  0
 36 56  1  0  0  0
 36105  1  0  0  0
 37 39  1  0  0  0
 37 47  1  0  0  0
 37 66  1  0  0  0
 37106  1  0  0  0
 38 43  2  0  0  0
 38 46  1  0  0  0
 38 47  1  0  0  0
 39 64  1  0  0  0
 39 67  2  0  0  0
 40 52  1  0  0  0
 40 53  2  0  0  0
 40 58  1  0  0  0
 41107  1  0  0  0
 41108  1  0  0  0
 41109  1  0  0  0
 41 48  1  0  0  0
 42 43  1  0  0  0
 42 66  1  0  0  0
 42110  1  0  0  0
 42111  1  0  0  0
 43 44  1  0  0  0
 44112  1  0  0  0
 45 46  2  0  0  0
 45113  1  0  0  0
 46114  1  0  0  0
 47115  1  0  0  0
 47116  1  0  0  0
 48 56  1  0  0  0
 48 65  1  0  0  0
 48117  1  0  0  0
 49 50  1  0  0  0
 49 53  1  0  0  0
 49 64  1  0  0  0
 49118  1  0  0  0
 50 51  1  0  0  0
 50119  1  0  0  0
 50120  1  0  0  0
 51 52  1  0  0  0
 51121  1  0  0  0
 51122  1  0  0  0
 52123  1  0  0  0
 52124  1  0  0  0
 53 54  1  0  0  0
 54 55  2  0  0  0
 54125  1  0  0  0
 55 57  1  0  0  0
 55126  1  0  0  0
 56 69  2  0  0  0
 57 58  2  0  0  0
 57127  1  0  0  0
 58128  1  0  0  0
 59 60  1  0  0  0
 59 61  1  0  0  0
 59 62  1  0  0  0
 60129  1  0  0  0
 60130  1  0  0  0
 60131  1  0  0  0
 61132  1  0  0  0
 61133  1  0  0  0
 61134  1  0  0  0
 62135  1  0  0  0
 62136  1  0  0  0
 62137  1  0  0  0
 63 65  1  0  0  0
 63138  1  0  0  0
 63139  1  0  0  0
 63140  1  0  0  0
 64141  1  0  0  0
 65142  1  0  0  0
 68 80  1  0  0  0
 71 72  2  0  0  0
 71 75  1  0  0  0
 71143  1  0  0  0
 72 73  1  0  0  0
 72 76  1  0  0  0
 73 74  2  0  0  0
 73 78  1  0  0  0
 74 82  1  0  0  0
 74 79  1  0  0  0
 75 81  1  0  0  0
 75 82  2  0  0  0
 76 78  1  0  0  0
 76144  1  0  0  0
 76145  1  0  0  0
 77 79  1  0  0  0
 77 80  1  0  0  0
 77146  1  0  0  0
 77147  1  0  0  0
 78 83  1  0  0  0
 78148  1  0  0  0
 79 80  1  0  0  0
 79149  1  0  0  0
 80150  1  0  0  0
 81151  1  0  0  0
 81152  1  0  0  0
 81153  1  0  0  0
 83154  1  0  0  0
M  ISO  4   1 100  68 101  80 101  83 100
M  END
> <chiral flag>
0

> <version>
0

> <s_m_source_file>
/data/baiqing/PycharmProjects/Reinvent-master-3.2/result/LINK_invent/BTK/process_docking_weight1_custom_sum_contain_oxygen_bond_distance_aromatic_linkinvent_7_9_3/rearranged_h_0183.sdf

> <i_m_source_file_index>
64

> <r_mmod_Potential_Energy-OPLS-2005>
1707.97448730469

> <r_mmod_Stretch_Energy-OPLS-2005>
615.230102539062

> <r_mmod_Bend_Energy-OPLS-2005>
925.931945800781

> <r_mmod_Torsional_Energy-OPLS-2005>
309.990447998047

> <r_mmod_Improper_Torsional_Energy-OPLS-2005>
15.9756860733032

> <r_mmod_Van_der_Waal_Energy-OPLS-2005>
124.470336914062

> <r_mmod_Electrostatic_Energy-OPLS-2005>
-484.128021240234

> <r_mmod_Solvation_Energy-OPLS-2005>
-225.858779907227

> <b_mmod_Minimization_Converged-OPLS-2005>
0

> <r_mmod_RMS_Derivative-OPLS-2005>
5.23835754394531

$$$$
65
                    3D
 Structure written by MMmdl.
154163  0  0  1  0            999 V2000
  -30.5219  -15.0186   20.4592 C   0  0  0  0  0  0
  -30.4333  -12.6248   19.5590 C   0  0  0  0  0  0
  -29.5540  -12.5600   18.2896 C   0  0  0  0  0  0
  -28.0656  -12.3827   18.6494 C   0  0  0  0  0  0
  -27.6279  -13.2784   19.8423 C   0  0  2  0  0  0
  -28.6526  -13.3077   20.9971 C   0  0  0  0  0  0
  -25.2412  -13.8296   20.5718 C   0  0  0  0  0  0
  -24.1748  -13.0463   20.9222 C   0  0  0  0  0  0
  -24.6411  -11.6958   20.8687 C   0  0  0  0  0  0
  -23.9087  -10.4315   21.0333 C   0  0  0  0  0  0
  -24.3621   -9.4215   21.9120 C   0  0  0  0  0  0
  -23.6323   -8.2234   22.0691 C   0  0  0  0  0  0
  -22.4327   -8.0242   21.3460 C   0  0  0  0  0  0
  -21.9946   -9.0235   20.4595 C   0  0  0  0  0  0
  -22.7243  -10.2136   20.2997 C   0  0  0  0  0  0
  -21.6872   -6.0721   22.5262 C   0  0  0  0  0  0
  -21.4042   -6.5628   23.8205 C   0  0  0  0  0  0
  -21.3682   -5.6769   24.9164 C   0  0  0  0  0  0
  -21.6051   -4.3033   24.7220 C   0  0  0  0  0  0
  -21.8797   -3.8120   23.4336 C   0  0  0  0  0  0
  -21.9212   -4.6935   22.3387 C   0  0  0  0  0  0
  -22.7755  -13.5180   21.1908 C   0  0  0  0  0  0
  -22.1636   -4.2119   21.0964 F   0  0  0  0  0  0
  -21.5641   -3.4506   25.7728 F   0  0  0  0  0  0
  -29.9337  -13.7416   20.4262 N   0  0  0  0  0  0
  -26.2854  -12.9576   20.3158 N   0  0  0  0  0  0
  -25.9365  -11.6661   20.5642 N   0  0  0  0  0  0
  -22.0393  -12.8179   22.0485 N   0  0  0  0  0  0
  -25.4056  -15.2049   20.4226 N   0  0  0  0  0  0
  -31.7052  -15.0633   20.0981 O   0  0  0  0  0  0
  -21.6647   -6.8861   21.4230 O   0  0  0  0  0  0
  -22.3394  -14.5438   20.6686 O   0  0  0  0  0  0
  -24.6507  -31.8345   23.1832 C   0  0  0  0  0  0
  -25.9241  -32.4632   23.8255 C   0  0  1  0  0  0
  -27.2287  -27.0702   20.1965 C   0  0  0  0  0  0
  -25.5969  -33.8453   24.2162 N   0  0  0  0  0  0
  -23.4591  -30.4528   21.5253 C   0  0  2  0  0  0
  -24.9205  -28.8678   20.1105 C   0  0  0  0  0  0
  -22.7617  -29.4482   22.4804 C   0  0  0  0  0  0
  -18.0320  -28.1340   22.8468 C   0  0  0  0  0  0
  -24.1499  -36.7243   23.2641 C   0  0  0  0  0  0
  -26.0235  -30.6927   21.3947 C   0  0  0  0  0  0
  -26.0970  -29.2991   20.7365 C   0  0  0  0  0  0
  -27.2550  -28.4209   20.7508 C   0  0  0  0  0  0
  -26.0286  -26.7554   19.5226 C   0  0  0  0  0  0
  -24.9058  -27.6145   19.4792 C   0  0  0  0  0  0
  -23.6965  -29.7768   20.1464 C   0  0  0  0  0  0
  -25.4129  -36.3016   24.0317 C   0  0  1  0  0  0
  -20.5947  -28.3671   23.1184 C   0  0  2  0  0  0
  -20.6787  -26.9348   22.5407 C   0  0  0  0  0  0
  -19.5781  -26.6300   21.5202 C   0  0  0  0  0  0
  -18.1953  -26.7863   22.1603 C   0  0  0  0  0  0
  -19.1584  -28.8835   23.2811 C   0  0  0  0  0  0
  -18.9490  -30.1435   23.8806 C   0  0  0  0  0  0
  -17.6482  -30.6525   24.0555 C   0  0  0  0  0  0
  -25.9078  -34.9392   23.5056 C   0  0  0  0  0  0
  -16.5365  -29.9014   23.6338 C   0  0  0  0  0  0
  -16.7312  -28.6451   23.0333 C   0  0  0  0  0  0
  -26.4536  -31.6519   25.0727 C   0  0  0  0  0  0
  -25.3686  -31.3769   26.1402 C   0  0  0  0  0  0
  -27.0398  -30.2880   24.6405 C   0  0  0  0  0  0
  -27.6065  -32.4284   25.7513 C   0  0  0  0  0  0
  -27.5602  -37.1780   24.8452 C   0  0  0  0  0  0
  -21.4296  -29.2991   22.3557 N   0  0  0  0  0  0
  -26.4300  -37.3726   23.9394 N   0  0  0  0  0  0
  -24.7295  -31.0172   22.0891 N   0  0  0  0  0  0
  -23.4255  -28.8014   23.2945 O   0  0  0  0  0  0
  -28.2793  -26.0596   20.2672 O   0  0  0  0  0  0
  -26.5686  -34.8904   22.4645 O   0  0  0  0  0  0
  -23.5591  -32.1251   23.7013 O   0  0  0  0  0  0
  -28.8914  -19.6964   22.0027 C   0  0  0  0  0  0
  -28.6001  -21.0330   21.9108 C   0  0  0  0  0  0
  -29.4526  -19.2351   20.7661 C   0  0  0  0  0  0
  -28.6448  -19.1645   23.3778 C   0  0  0  0  0  0
  -28.0777  -21.6181   23.1657 C   0  0  0  0  0  0
  -28.1325  -20.4172   24.1600 C   0  0  0  0  0  0
  -30.1458  -17.7569   20.3303 C   0  0  0  0  0  0
  -29.1119  -23.1730   20.2866 C   0  0  0  0  0  0
  -28.0331  -24.5007   20.4954 C   0  0  0  0  0  0
  -29.5000  -20.4481   20.0291 N   0  0  0  0  0  0
  -28.9535  -21.6161   20.7009 N   0  0  0  0  0  0
  -29.7916  -16.2349   20.6936 N   0  0  0  0  0  0
  -31.4761  -12.7683   19.2733 H   0  0  0  0  0  0
  -30.4098  -11.6745   20.0930 H   0  0  0  0  0  0
  -29.8877  -11.7531   17.6344 H   0  0  0  0  0  0
  -29.6860  -13.4891   17.7314 H   0  0  0  0  0  0
  -27.9005  -11.3358   18.8884 H   0  0  0  0  0  0
  -27.4505  -12.5933   17.7722 H   0  0  0  0  0  0
  -27.5897  -14.2910   19.4399 H   0  0  0  0  0  0
  -28.7373  -12.3299   21.4731 H   0  0  0  0  0  0
  -28.3320  -14.0038   21.7729 H   0  0  0  0  0  0
  -25.2748   -9.5733   22.4681 H   0  0  0  0  0  0
  -24.0042   -7.4654   22.7452 H   0  0  0  0  0  0
  -21.0832   -8.8755   19.8954 H   0  0  0  0  0  0
  -22.3668  -10.9646   19.6088 H   0  0  0  0  0  0
  -21.2024   -7.6136   23.9708 H   0  0  0  0  0  0
  -21.1534   -6.0482   25.9062 H   0  0  0  0  0  0
  -22.0583   -2.7596   23.2820 H   0  0  0  0  0  0
  -22.4053  -11.9933   22.5011 H   0  0  0  0  0  0
  -21.0939  -13.1109   22.2565 H   0  0  0  0  0  0
  -24.6481  -15.8616   20.5776 H   0  0  0  0  0  0
  -26.2438  -15.6467   20.0665 H   0  0  0  0  0  0
  -26.7339  -32.5219   23.1013 H   0  0  0  0  0  0
  -25.0146  -33.9531   25.0338 H   0  0  0  0  0  0
  -22.7656  -31.2821   21.3608 H   0  0  0  0  0  0
  -23.3772  -35.9565   23.3279 H   0  0  0  0  0  0
  -24.3581  -36.8899   22.2057 H   0  0  0  0  0  0
  -23.7249  -37.6426   23.6694 H   0  0  0  0  0  0
  -26.2029  -31.4464   20.6255 H   0  0  0  0  0  0
  -26.8811  -30.7305   22.0536 H   0  0  0  0  0  0
  -28.1514  -28.7525   21.2565 H   0  0  0  0  0  0
  -25.9304  -25.7964   19.0363 H   0  0  0  0  0  0
  -24.0153  -27.2793   18.9640 H   0  0  0  0  0  0
  -23.8428  -30.5458   19.3864 H   0  0  0  0  0  0
  -22.8109  -29.2207   19.8310 H   0  0  0  0  0  0
  -25.1332  -36.1850   25.0811 H   0  0  0  0  0  0
  -21.0092  -28.3259   24.1282 H   0  0  0  0  0  0
  -20.5597  -26.2296   23.3654 H   0  0  0  0  0  0
  -21.6659  -26.7258   22.1262 H   0  0  0  0  0  0
  -19.6922  -25.6196   21.1244 H   0  0  0  0  0  0
  -19.6715  -27.3101   20.6730 H   0  0  0  0  0  0
  -17.4245  -26.6648   21.3976 H   0  0  0  0  0  0
  -18.0323  -25.9973   22.8977 H   0  0  0  0  0  0
  -19.7962  -30.7305   24.2095 H   0  0  0  0  0  0
  -17.5006  -31.6187   24.5184 H   0  0  0  0  0  0
  -15.5352  -30.2894   23.7624 H   0  0  0  0  0  0
  -15.8727  -28.0738   22.7029 H   0  0  0  0  0  0
  -24.5897  -30.7075   25.7743 H   0  0  0  0  0  0
  -24.8857  -32.2973   26.4695 H   0  0  0  0  0  0
  -25.7940  -30.9049   27.0267 H   0  0  0  0  0  0
  -26.3045  -29.6567   24.1413 H   0  0  0  0  0  0
  -27.3923  -29.7234   25.5046 H   0  0  0  0  0  0
  -27.9000  -30.4045   23.9813 H   0  0  0  0  0  0
  -27.2656  -33.3594   26.2067 H   0  0  0  0  0  0
  -28.3903  -32.6805   25.0351 H   0  0  0  0  0  0
  -28.0725  -31.8430   26.5456 H   0  0  0  0  0  0
  -28.2592  -38.0107   24.7519 H   0  0  0  0  0  0
  -28.1126  -36.2629   24.6245 H   0  0  0  0  0  0
  -27.2337  -37.1417   25.8864 H   0  0  0  0  0  0
  -20.9514  -29.8776   21.6785 H   0  0  0  0  0  0
  -26.0172  -38.2803   24.1358 H   0  0  0  0  0  0
  -29.5651  -18.7886   23.8301 H   0  0  0  0  0  0
  -27.9060  -18.3617   23.3920 H   0  0  0  0  0  0
  -27.0591  -21.9816   23.0343 H   0  0  0  0  0  0
  -28.6936  -22.4557   23.4885 H   0  0  0  0  0  0
  -28.8010  -20.6467   24.9977 H   0  0  0  0  0  0
  -27.1495  -20.2257   24.6017 H   0  0  0  0  0  0
  -31.1882  -17.8443   20.6249 H   0  0  0  0  0  0
  -30.1907  -17.7467   19.2408 H   0  0  0  0  0  0
  -30.0156  -23.4839   20.8163 H   0  0  0  0  0  0
  -29.4126  -23.1699   19.2377 H   0  0  0  0  0  0
  -27.7116  -24.4361   21.5374 H   0  0  0  0  0  0
  -27.1452  -24.2321   19.9305 H   0  0  0  0  0  0
  -28.8495  -16.1078   21.0375 H   0  0  0  0  0  0
  1 25  1  0  0  0
  1 30  2  0  0  0
  1 82  1  0  0  0
  2  3  1  0  0  0
  2 25  1  0  0  0
  2 83  1  0  0  0
  2 84  1  0  0  0
  3  4  1  0  0  0
  3 85  1  0  0  0
  3 86  1  0  0  0
  4  5  1  0  0  0
  4 87  1  0  0  0
  4 88  1  0  0  0
  5  6  1  0  0  0
  5 26  1  0  0  0
  5 89  1  0  0  0
  6 25  1  0  0  0
  6 90  1  0  0  0
  6 91  1  0  0  0
  7  8  2  0  0  0
  7 26  1  0  0  0
  7 29  1  0  0  0
  8  9  1  0  0  0
  8 22  1  0  0  0
  9 10  1  0  0  0
  9 27  2  0  0  0
 10 11  2  0  0  0
 10 15  1  0  0  0
 11 12  1  0  0  0
 11 92  1  0  0  0
 12 13  2  0  0  0
 12 93  1  0  0  0
 13 14  1  0  0  0
 13 31  1  0  0  0
 14 15  2  0  0  0
 14 94  1  0  0  0
 15 95  1  0  0  0
 16 17  2  0  0  0
 16 21  1  0  0  0
 16 31  1  0  0  0
 17 18  1  0  0  0
 17 96  1  0  0  0
 18 19  2  0  0  0
 18 97  1  0  0  0
 19 20  1  0  0  0
 19 24  1  0  0  0
 20 21  2  0  0  0
 20 98  1  0  0  0
 21 23  1  0  0  0
 22 28  1  0  0  0
 22 32  2  0  0  0
 26 27  1  0  0  0
 28 99  1  0  0  0
 28100  1  0  0  0
 29101  1  0  0  0
 29102  1  0  0  0
 33 34  1  0  0  0
 33 66  1  0  0  0
 33 70  2  0  0  0
 34 36  1  0  0  0
 34 59  1  0  0  0
 34103  1  0  0  0
 35 44  2  0  0  0
 35 45  1  0  0  0
 35 68  1  0  0  0
 36 56  1  0  0  0
 36104  1  0  0  0
 37 39  1  0  0  0
 37 47  1  0  0  0
 37 66  1  0  0  0
 37105  1  0  0  0
 38 43  2  0  0  0
 38 46  1  0  0  0
 38 47  1  0  0  0
 39 64  1  0  0  0
 39 67  2  0  0  0
 40 52  1  0  0  0
 40 53  2  0  0  0
 40 58  1  0  0  0
 41106  1  0  0  0
 41107  1  0  0  0
 41108  1  0  0  0
 41 48  1  0  0  0
 42 43  1  0  0  0
 42 66  1  0  0  0
 42109  1  0  0  0
 42110  1  0  0  0
 43 44  1  0  0  0
 44111  1  0  0  0
 45 46  2  0  0  0
 45112  1  0  0  0
 46113  1  0  0  0
 47114  1  0  0  0
 47115  1  0  0  0
 48 56  1  0  0  0
 48 65  1  0  0  0
 48116  1  0  0  0
 49 50  1  0  0  0
 49 53  1  0  0  0
 49 64  1  0  0  0
 49117  1  0  0  0
 50 51  1  0  0  0
 50118  1  0  0  0
 50119  1  0  0  0
 51 52  1  0  0  0
 51120  1  0  0  0
 51121  1  0  0  0
 52122  1  0  0  0
 52123  1  0  0  0
 53 54  1  0  0  0
 54 55  2  0  0  0
 54124  1  0  0  0
 55 57  1  0  0  0
 55125  1  0  0  0
 56 69  2  0  0  0
 57 58  2  0  0  0
 57126  1  0  0  0
 58127  1  0  0  0
 59 60  1  0  0  0
 59 61  1  0  0  0
 59 62  1  0  0  0
 60128  1  0  0  0
 60129  1  0  0  0
 60130  1  0  0  0
 61131  1  0  0  0
 61132  1  0  0  0
 61133  1  0  0  0
 62134  1  0  0  0
 62135  1  0  0  0
 62136  1  0  0  0
 63 65  1  0  0  0
 63137  1  0  0  0
 63138  1  0  0  0
 63139  1  0  0  0
 64140  1  0  0  0
 65141  1  0  0  0
 68 79  1  0  0  0
 71 72  2  0  0  0
 71 73  1  0  0  0
 71 74  1  0  0  0
 72 75  1  0  0  0
 72 81  1  0  0  0
 73 77  1  0  0  0
 73 80  2  0  0  0
 74 76  1  0  0  0
 74142  1  0  0  0
 74143  1  0  0  0
 75 76  1  0  0  0
 75144  1  0  0  0
 75145  1  0  0  0
 76146  1  0  0  0
 76147  1  0  0  0
 77 82  1  0  0  0
 77148  1  0  0  0
 77149  1  0  0  0
 78 79  1  0  0  0
 78 81  1  0  0  0
 78150  1  0  0  0
 78151  1  0  0  0
 79152  1  0  0  0
 79153  1  0  0  0
 80 81  1  0  0  0
 82154  1  0  0  0
M  ISO  4   1 100  68 101  79 101  82 100
M  END
> <chiral flag>
0

> <version>
0

> <s_m_source_file>
/data/baiqing/PycharmProjects/Reinvent-master-3.2/result/LINK_invent/BTK/process_docking_weight1_custom_sum_contain_oxygen_bond_distance_aromatic_linkinvent_7_9_3/rearranged_h_0183.sdf

> <i_m_source_file_index>
65

> <r_mmod_Potential_Energy-OPLS-2005>
670.607666015625

> <r_mmod_Stretch_Energy-OPLS-2005>
347.054351806641

> <r_mmod_Bend_Energy-OPLS-2005>
398.478393554688

> <r_mmod_Torsional_Energy-OPLS-2005>
247.110717773438

> <r_mmod_Improper_Torsional_Energy-OPLS-2005>
8.03405952453613

> <r_mmod_Van_der_Waal_Energy-OPLS-2005>
100.586990356445

> <r_mmod_Electrostatic_Energy-OPLS-2005>
-443.164001464844

> <r_mmod_Solvation_Energy-OPLS-2005>
-233.82048034668

> <b_mmod_Minimization_Converged-OPLS-2005>
0

> <r_mmod_RMS_Derivative-OPLS-2005>
6.45986175537109

$$$$
66
                    3D
 Structure written by MMmdl.
157166  0  0  1  0            999 V2000
  -30.6105  -14.7631   20.4495 C   0  0  0  0  0  0
  -30.4404  -12.4669   19.4682 C   0  0  0  0  0  0
  -29.5100  -12.5021   18.2344 C   0  0  0  0  0  0
  -28.0349  -12.3307   18.6487 C   0  0  0  0  0  0
  -27.6439  -13.2274   19.8552 C   0  0  2  0  0  0
  -28.6950  -13.1409   20.9824 C   0  0  0  0  0  0
  -25.2544  -13.8173   20.5798 C   0  0  0  0  0  0
  -24.1808  -13.0411   20.9215 C   0  0  0  0  0  0
  -24.6406  -11.6886   20.8746 C   0  0  0  0  0  0
  -23.9084  -10.4273   21.0419 C   0  0  0  0  0  0
  -24.3635   -9.4185   21.9193 C   0  0  0  0  0  0
  -23.6297   -8.2232   22.0765 C   0  0  0  0  0  0
  -22.4280   -8.0272   21.3562 C   0  0  0  0  0  0
  -21.9916   -9.0254   20.4668 C   0  0  0  0  0  0
  -22.7251  -10.2126   20.3078 C   0  0  0  0  0  0
  -21.6857   -6.0736   22.5300 C   0  0  0  0  0  0
  -21.3994   -6.5644   23.8229 C   0  0  0  0  0  0
  -21.3661   -5.6799   24.9197 C   0  0  0  0  0  0
  -21.6047   -4.3065   24.7241 C   0  0  0  0  0  0
  -21.8819   -3.8150   23.4361 C   0  0  0  0  0  0
  -21.9193   -4.6960   22.3419 C   0  0  0  0  0  0
  -22.7842  -13.5211   21.1843 C   0  0  0  0  0  0
  -22.1654   -4.2147   21.0991 F   0  0  0  0  0  0
  -21.5648   -3.4538   25.7751 F   0  0  0  0  0  0
  -29.9839  -13.5311   20.3951 N   0  0  0  0  0  0
  -26.2965  -12.9384   20.3353 N   0  0  0  0  0  0
  -25.9337  -11.6511   20.5756 N   0  0  0  0  0  0
  -22.0464  -12.8264   22.0418 N   0  0  0  0  0  0
  -25.4168  -15.1908   20.4392 N   0  0  0  0  0  0
  -31.7902  -14.8405   20.0892 O   0  0  0  0  0  0
  -21.6633   -6.8865   21.4264 O   0  0  0  0  0  0
  -22.3553  -14.5521   20.6659 O   0  0  0  0  0  0
  -24.6344  -31.8482   23.1885 C   0  0  0  0  0  0
  -25.9176  -32.4709   23.8225 C   0  0  1  0  0  0
  -27.2232  -27.2273   20.1259 C   0  0  0  0  0  0
  -25.5998  -33.8509   24.2162 N   0  0  0  0  0  0
  -23.4311  -30.4700   21.5325 C   0  0  2  0  0  0
  -24.8793  -28.9086   20.0985 C   0  0  0  0  0  0
  -22.7521  -29.4576   22.4867 C   0  0  0  0  0  0
  -18.0300  -28.1399   22.8487 C   0  0  0  0  0  0
  -24.1499  -36.7208   23.2639 C   0  0  0  0  0  0
  -25.9793  -30.7498   21.3742 C   0  0  0  0  0  0
  -26.0476  -29.3708   20.7134 C   0  0  0  0  0  0
  -27.2160  -28.5399   20.7176 C   0  0  0  0  0  0
  -26.0315  -26.8330   19.4811 C   0  0  0  0  0  0
  -24.8808  -27.6507   19.4696 C   0  0  0  0  0  0
  -23.6480  -29.7972   20.1486 C   0  0  0  0  0  0
  -25.4128  -36.3009   24.0319 C   0  0  1  0  0  0
  -20.5903  -28.3713   23.1258 C   0  0  2  0  0  0
  -20.6773  -26.9433   22.5406 C   0  0  0  0  0  0
  -19.5751  -26.6381   21.5214 C   0  0  0  0  0  0
  -18.1934  -26.7940   22.1619 C   0  0  0  0  0  0
  -19.1558  -28.8875   23.2855 C   0  0  0  0  0  0
  -18.9483  -30.1479   23.8867 C   0  0  0  0  0  0
  -17.6469  -30.6593   24.0572 C   0  0  0  0  0  0
  -25.9085  -34.9417   23.5024 C   0  0  0  0  0  0
  -16.5364  -29.9099   23.6354 C   0  0  0  0  0  0
  -16.7285  -28.6513   23.0355 C   0  0  0  0  0  0
  -26.4539  -31.6575   25.0646 C   0  0  0  0  0  0
  -25.3721  -31.3800   26.1339 C   0  0  0  0  0  0
  -27.0349  -30.2958   24.6180 C   0  0  0  0  0  0
  -27.6082  -32.4342   25.7405 C   0  0  0  0  0  0
  -27.5577  -37.1756   24.8472 C   0  0  0  0  0  0
  -21.4220  -29.3037   22.3631 N   0  0  0  0  0  0
  -26.4273  -37.3743   23.9434 N   0  0  0  0  0  0
  -24.7009  -31.0429   22.0877 N   0  0  0  0  0  0
  -23.4207  -28.8143   23.3007 O   0  0  0  0  0  0
  -28.3283  -26.3435   20.2367 O   0  0  0  0  0  0
  -26.5638  -34.8937   22.4593 O   0  0  0  0  0  0
  -23.5495  -32.1331   23.7172 O   0  0  0  0  0  0
  -29.1994  -22.4248   19.9400 C   0  0  0  0  0  0
  -28.2963  -23.5545   20.1065 C   0  0  0  0  0  0
  -28.8011  -21.0874   20.3088 C   0  0  0  0  0  0
  -26.7863  -22.0106   20.9446 C   0  0  0  0  0  0
  -29.1306  -17.9176   21.8179 C   0  0  0  0  0  0
  -29.1112  -16.3596   21.7364 C   0  0  0  0  0  0
  -30.0608  -17.2333   19.7745 C   0  0  0  0  0  0
  -29.1733  -18.4208   20.3728 C   0  0  2  0  0  0
  -25.3876  -21.7383   21.4640 C   0  0  0  0  0  0
  -28.5141  -25.0352   19.4957 C   0  0  0  0  0  0
  -27.0806  -23.2791   20.6313 N   0  0  0  0  0  0
  -27.5666  -20.9346   20.8053 N   0  0  0  0  0  0
  -29.8446  -15.9355   20.5341 N   0  0  0  0  0  0
  -29.5986  -19.8773   20.1758 N   0  0  0  0  0  0
  -31.4755  -12.6018   19.1513 H   0  0  0  0  0  0
  -30.4084  -11.4892   19.9517 H   0  0  0  0  0  0
  -29.7929  -11.7227   17.5258 H   0  0  0  0  0  0
  -29.6297  -13.4513   17.7086 H   0  0  0  0  0  0
  -27.8870  -11.2810   18.9053 H   0  0  0  0  0  0
  -27.3772  -12.5255   17.8010 H   0  0  0  0  0  0
  -27.6420  -14.2538   19.4860 H   0  0  0  0  0  0
  -28.7465  -12.1255   21.3802 H   0  0  0  0  0  0
  -28.4272  -13.7712   21.8290 H   0  0  0  0  0  0
  -25.2777   -9.5654   22.4785 H   0  0  0  0  0  0
  -24.0007   -7.4623   22.7501 H   0  0  0  0  0  0
  -21.0836   -8.8779   19.8987 H   0  0  0  0  0  0
  -22.3703  -10.9682   19.6211 H   0  0  0  0  0  0
  -21.1956   -7.6149   23.9731 H   0  0  0  0  0  0
  -21.1491   -6.0526   25.9104 H   0  0  0  0  0  0
  -22.0585   -2.7610   23.2870 H   0  0  0  0  0  0
  -22.3979  -11.9899   22.4835 H   0  0  0  0  0  0
  -21.1118  -13.1386   22.2625 H   0  0  0  0  0  0
  -24.6497  -15.8307   20.6149 H   0  0  0  0  0  0
  -26.2911  -15.6591   20.2398 H   0  0  0  0  0  0
  -26.7247  -32.5297   23.0960 H   0  0  0  0  0  0
  -25.0272  -33.9669   25.0391 H   0  0  0  0  0  0
  -22.7254  -31.2882   21.3792 H   0  0  0  0  0  0
  -23.3787  -35.9510   23.3284 H   0  0  0  0  0  0
  -24.3590  -36.8823   22.2052 H   0  0  0  0  0  0
  -23.7223  -37.6399   23.6664 H   0  0  0  0  0  0
  -26.1298  -31.5124   20.6094 H   0  0  0  0  0  0
  -26.8527  -30.7864   22.0156 H   0  0  0  0  0  0
  -28.1061  -28.8878   21.2218 H   0  0  0  0  0  0
  -25.9538  -25.8583   19.0222 H   0  0  0  0  0  0
  -23.9870  -27.2880   18.9824 H   0  0  0  0  0  0
  -23.7630  -30.5675   19.3835 H   0  0  0  0  0  0
  -22.7646  -29.2283   19.8525 H   0  0  0  0  0  0
  -25.1320  -36.1805   25.0806 H   0  0  0  0  0  0
  -21.0001  -28.3268   24.1372 H   0  0  0  0  0  0
  -20.5656  -26.2325   23.3605 H   0  0  0  0  0  0
  -21.6645  -26.7432   22.1219 H   0  0  0  0  0  0
  -19.6906  -25.6283   21.1268 H   0  0  0  0  0  0
  -19.6699  -27.3182   20.6740 H   0  0  0  0  0  0
  -17.4213  -26.6724   21.4013 H   0  0  0  0  0  0
  -18.0315  -26.0070   22.8998 H   0  0  0  0  0  0
  -19.7961  -30.7307   24.2211 H   0  0  0  0  0  0
  -17.5037  -31.6286   24.5166 H   0  0  0  0  0  0
  -15.5366  -30.2980   23.7702 H   0  0  0  0  0  0
  -15.8687  -28.0823   22.7076 H   0  0  0  0  0  0
  -24.6036  -30.6973   25.7728 H   0  0  0  0  0  0
  -24.8751  -32.2969   26.4516 H   0  0  0  0  0  0
  -25.8027  -30.9239   27.0254 H   0  0  0  0  0  0
  -26.2927  -29.6715   24.1201 H   0  0  0  0  0  0
  -27.3983  -29.7250   25.4731 H   0  0  0  0  0  0
  -27.8839  -30.4178   23.9444 H   0  0  0  0  0  0
  -27.2721  -33.3726   26.1838 H   0  0  0  0  0  0
  -28.3965  -32.6755   25.0258 H   0  0  0  0  0  0
  -28.0667  -31.8531   26.5422 H   0  0  0  0  0  0
  -28.2594  -38.0060   24.7525 H   0  0  0  0  0  0
  -28.1069  -36.2587   24.6267 H   0  0  0  0  0  0
  -27.2295  -37.1359   25.8878 H   0  0  0  0  0  0
  -20.9415  -29.8762   21.6832 H   0  0  0  0  0  0
  -26.0109  -38.2792   24.1467 H   0  0  0  0  0  0
  -30.1693  -22.5872   19.4879 H   0  0  0  0  0  0
  -30.0293  -18.2379   22.3510 H   0  0  0  0  0  0
  -28.2683  -18.3084   22.3592 H   0  0  0  0  0  0
  -28.0802  -16.0184   21.6457 H   0  0  0  0  0  0
  -29.5306  -15.9101   22.6386 H   0  0  0  0  0  0
  -31.1196  -17.4907   19.8256 H   0  0  0  0  0  0
  -29.8235  -17.0763   18.7212 H   0  0  0  0  0  0
  -28.1652  -18.3226   19.9640 H   0  0  0  0  0  0
  -24.9032  -22.6461   21.8221 H   0  0  0  0  0  0
  -25.4024  -21.0170   22.2824 H   0  0  0  0  0  0
  -24.7681  -21.3178   20.6731 H   0  0  0  0  0  0
  -27.9857  -25.0814   18.5432 H   0  0  0  0  0  0
  -29.5624  -25.0577   19.1956 H   0  0  0  0  0  0
  -30.5388  -20.0112   19.8218 H   0  0  0  0  0  0
  1 25  1  0  0  0
  1 30  2  0  0  0
  1 83  1  0  0  0
  2  3  1  0  0  0
  2 25  1  0  0  0
  2 85  1  0  0  0
  2 86  1  0  0  0
  3  4  1  0  0  0
  3 87  1  0  0  0
  3 88  1  0  0  0
  4  5  1  0  0  0
  4 89  1  0  0  0
  4 90  1  0  0  0
  5  6  1  0  0  0
  5 26  1  0  0  0
  5 91  1  0  0  0
  6 25  1  0  0  0
  6 92  1  0  0  0
  6 93  1  0  0  0
  7  8  2  0  0  0
  7 26  1  0  0  0
  7 29  1  0  0  0
  8  9  1  0  0  0
  8 22  1  0  0  0
  9 10  1  0  0  0
  9 27  2  0  0  0
 10 11  2  0  0  0
 10 15  1  0  0  0
 11 12  1  0  0  0
 11 94  1  0  0  0
 12 13  2  0  0  0
 12 95  1  0  0  0
 13 14  1  0  0  0
 13 31  1  0  0  0
 14 15  2  0  0  0
 14 96  1  0  0  0
 15 97  1  0  0  0
 16 17  2  0  0  0
 16 21  1  0  0  0
 16 31  1  0  0  0
 17 18  1  0  0  0
 17 98  1  0  0  0
 18 19  2  0  0  0
 18 99  1  0  0  0
 19 20  1  0  0  0
 19 24  1  0  0  0
 20 21  2  0  0  0
 20100  1  0  0  0
 21 23  1  0  0  0
 22 28  1  0  0  0
 22 32  2  0  0  0
 26 27  1  0  0  0
 28101  1  0  0  0
 28102  1  0  0  0
 29103  1  0  0  0
 29104  1  0  0  0
 33 34  1  0  0  0
 33 66  1  0  0  0
 33 70  2  0  0  0
 34 36  1  0  0  0
 34 59  1  0  0  0
 34105  1  0  0  0
 35 44  2  0  0  0
 35 45  1  0  0  0
 35 68  1  0  0  0
 36 56  1  0  0  0
 36106  1  0  0  0
 37 39  1  0  0  0
 37 47  1  0  0  0
 37 66  1  0  0  0
 37107  1  0  0  0
 38 43  2  0  0  0
 38 46  1  0  0  0
 38 47  1  0  0  0
 39 64  1  0  0  0
 39 67  2  0  0  0
 40 52  1  0  0  0
 40 53  2  0  0  0
 40 58  1  0  0  0
 41108  1  0  0  0
 41109  1  0  0  0
 41110  1  0  0  0
 41 48  1  0  0  0
 42 43  1  0  0  0
 42 66  1  0  0  0
 42111  1  0  0  0
 42112  1  0  0  0
 43 44  1  0  0  0
 44113  1  0  0  0
 45 46  2  0  0  0
 45114  1  0  0  0
 46115  1  0  0  0
 47116  1  0  0  0
 47117  1  0  0  0
 48 56  1  0  0  0
 48 65  1  0  0  0
 48118  1  0  0  0
 49 50  1  0  0  0
 49 53  1  0  0  0
 49 64  1  0  0  0
 49119  1  0  0  0
 50 51  1  0  0  0
 50120  1  0  0  0
 50121  1  0  0  0
 51 52  1  0  0  0
 51122  1  0  0  0
 51123  1  0  0  0
 52124  1  0  0  0
 52125  1  0  0  0
 53 54  1  0  0  0
 54 55  2  0  0  0
 54126  1  0  0  0
 55 57  1  0  0  0
 55127  1  0  0  0
 56 69  2  0  0  0
 57 58  2  0  0  0
 57128  1  0  0  0
 58129  1  0  0  0
 59 60  1  0  0  0
 59 61  1  0  0  0
 59 62  1  0  0  0
 60130  1  0  0  0
 60131  1  0  0  0
 60132  1  0  0  0
 61133  1  0  0  0
 61134  1  0  0  0
 61135  1  0  0  0
 62136  1  0  0  0
 62137  1  0  0  0
 62138  1  0  0  0
 63 65  1  0  0  0
 63139  1  0  0  0
 63140  1  0  0  0
 63141  1  0  0  0
 64142  1  0  0  0
 65143  1  0  0  0
 68 80  1  0  0  0
 71 72  2  0  0  0
 71 73  1  0  0  0
 71144  1  0  0  0
 72 80  1  0  0  0
 72 81  1  0  0  0
 73 82  2  0  0  0
 73 84  1  0  0  0
 74 79  1  0  0  0
 74 81  2  0  0  0
 74 82  1  0  0  0
 75 76  1  0  0  0
 75 78  1  0  0  0
 75145  1  0  0  0
 75146  1  0  0  0
 76 83  1  0  0  0
 76147  1  0  0  0
 76148  1  0  0  0
 77 78  1  0  0  0
 77 83  1  0  0  0
 77149  1  0  0  0
 77150  1  0  0  0
 78 84  1  0  0  0
 78151  1  0  0  0
 79152  1  0  0  0
 79153  1  0  0  0
 79154  1  0  0  0
 80155  1  0  0  0
 80156  1  0  0  0
 84157  1  0  0  0
M  ISO  4   1 100  68 101  80 101  83 100
M  END
> <chiral flag>
0

> <version>
0

> <s_m_source_file>
/data/baiqing/PycharmProjects/Reinvent-master-3.2/result/LINK_invent/BTK/process_docking_weight1_custom_sum_contain_oxygen_bond_distance_aromatic_linkinvent_7_9_3/rearranged_h_0183.sdf

> <i_m_source_file_index>
66

> <r_mmod_Potential_Energy-OPLS-2005>
-150.082855224609

> <r_mmod_Stretch_Energy-OPLS-2005>
129.584671020508

> <r_mmod_Bend_Energy-OPLS-2005>
231.899261474609

> <r_mmod_Torsional_Energy-OPLS-2005>
305.114318847656

> <r_mmod_Improper_Torsional_Energy-OPLS-2005>
13.4388303756714

> <r_mmod_Van_der_Waal_Energy-OPLS-2005>
133.065795898438

> <r_mmod_Electrostatic_Energy-OPLS-2005>
-822.263122558594

> <r_mmod_Solvation_Energy-OPLS-2005>
-237.676284790039

> <b_mmod_Minimization_Converged-OPLS-2005>
0

> <r_mmod_RMS_Derivative-OPLS-2005>
3.86361837387085

$$$$
67
                    3D
 Structure written by MMmdl.
155164  0  0  1  0            999 V2000
  -30.4124  -15.3430   20.3611 C   0  0  0  0  0  0
  -30.4312  -12.8600   19.5329 C   0  0  0  0  0  0
  -29.5413  -12.5719   18.2991 C   0  0  0  0  0  0
  -28.0934  -12.2853   18.7242 C   0  0  0  0  0  0
  -27.6010  -13.2804   19.8046 C   0  0  2  0  0  0
  -28.6296  -13.4995   20.9338 C   0  0  0  0  0  0
  -25.2398  -13.8263   20.5753 C   0  0  0  0  0  0
  -24.1750  -13.0449   20.9282 C   0  0  0  0  0  0
  -24.6383  -11.6948   20.8721 C   0  0  0  0  0  0
  -23.9092  -10.4291   21.0376 C   0  0  0  0  0  0
  -24.3649   -9.4205   21.9137 C   0  0  0  0  0  0
  -23.6340   -8.2228   22.0735 C   0  0  0  0  0  0
  -22.4327   -8.0242   21.3532 C   0  0  0  0  0  0
  -21.9948   -9.0212   20.4630 C   0  0  0  0  0  0
  -22.7261  -10.2104   20.3027 C   0  0  0  0  0  0
  -21.6864   -6.0714   22.5260 C   0  0  0  0  0  0
  -21.3997   -6.5618   23.8185 C   0  0  0  0  0  0
  -21.3675   -5.6781   24.9154 C   0  0  0  0  0  0
  -21.6072   -4.3040   24.7208 C   0  0  0  0  0  0
  -21.8844   -3.8130   23.4329 C   0  0  0  0  0  0
  -21.9224   -4.6951   22.3386 C   0  0  0  0  0  0
  -22.7750  -13.5175   21.1942 C   0  0  0  0  0  0
  -22.1702   -4.2144   21.0968 F   0  0  0  0  0  0
  -21.5677   -3.4524   25.7716 F   0  0  0  0  0  0
  -29.8456  -14.0295   20.2936 N   0  0  0  0  0  0
  -26.2771  -12.9532   20.3109 N   0  0  0  0  0  0
  -25.9304  -11.6636   20.5609 N   0  0  0  0  0  0
  -22.0429  -12.8184   22.0527 N   0  0  0  0  0  0
  -25.4073  -15.1982   20.4304 N   0  0  0  0  0  0
  -31.6492  -15.3023   20.2403 O   0  0  0  0  0  0
  -21.6681   -6.8838   21.4217 O   0  0  0  0  0  0
  -22.3425  -14.5459   20.6753 O   0  0  0  0  0  0
  -24.6695  -31.8148   23.1625 C   0  0  0  0  0  0
  -25.9363  -32.4520   23.8116 C   0  0  1  0  0  0
  -27.2167  -26.8699   20.2255 C   0  0  0  0  0  0
  -25.6081  -33.8352   24.2056 N   0  0  0  0  0  0
  -23.4862  -30.4226   21.5081 C   0  0  2  0  0  0
  -24.9457  -28.7955   20.1089 C   0  0  0  0  0  0
  -22.7714  -29.4353   22.4701 C   0  0  0  0  0  0
  -18.0339  -28.1369   22.8435 C   0  0  0  0  0  0
  -24.1494  -36.7163   23.2631 C   0  0  0  0  0  0
  -26.0545  -30.6095   21.3938 C   0  0  0  0  0  0
  -26.1246  -29.1886   20.7531 C   0  0  0  0  0  0
  -27.2579  -28.2497   20.7769 C   0  0  0  0  0  0
  -26.0210  -26.6497   19.5060 C   0  0  0  0  0  0
  -24.9218  -27.5517   19.4576 C   0  0  0  0  0  0
  -23.7358  -29.7332   20.1341 C   0  0  0  0  0  0
  -25.4123  -36.2924   24.0297 C   0  0  1  0  0  0
  -20.5969  -28.3716   23.1159 C   0  0  2  0  0  0
  -20.6777  -26.9391   22.5358 C   0  0  0  0  0  0
  -19.5750  -26.6347   21.5152 C   0  0  0  0  0  0
  -18.1953  -26.7912   22.1582 C   0  0  0  0  0  0
  -19.1608  -28.8863   23.2789 C   0  0  0  0  0  0
  -18.9498  -30.1458   23.8826 C   0  0  0  0  0  0
  -17.6482  -30.6562   24.0560 C   0  0  0  0  0  0
  -25.9097  -34.9326   23.4969 C   0  0  0  0  0  0
  -16.5379  -29.9032   23.6332 C   0  0  0  0  0  0
  -16.7320  -28.6463   23.0332 C   0  0  0  0  0  0
  -26.4611  -31.6433   25.0635 C   0  0  0  0  0  0
  -25.3771  -31.3654   26.1300 C   0  0  0  0  0  0
  -27.0464  -30.2802   24.6321 C   0  0  0  0  0  0
  -27.6154  -32.4166   25.7449 C   0  0  0  0  0  0
  -27.5541  -37.1751   24.8494 C   0  0  0  0  0  0
  -21.4394  -29.3020   22.3506 N   0  0  0  0  0  0
  -26.4260  -37.3676   23.9429 N   0  0  0  0  0  0
  -24.7584  -30.9791   22.0746 N   0  0  0  0  0  0
  -23.4280  -28.7897   23.2948 O   0  0  0  0  0  0
  -28.1956  -25.7346   20.3752 O   0  0  0  0  0  0
  -26.5643  -34.8891   22.4531 O   0  0  0  0  0  0
  -23.5782  -32.1079   23.6746 O   0  0  0  0  0  0
  -27.8545  -21.1616   22.9792 C   0  0  0  0  0  0
  -28.5096  -21.0716   20.7597 C   0  0  0  0  0  0
  -28.5634  -22.3638   23.1528 C   0  0  0  0  0  0
  -28.7459  -22.6519   20.8238 C   0  0  0  0  0  0
  -28.6969  -18.7521   19.0518 C   0  0  0  0  0  0
  -29.3627  -17.2905   18.9543 C   0  0  0  0  0  0
  -29.6298  -18.1050   21.0393 C   0  0  0  0  0  0
  -29.3231  -19.6056   20.1977 C   0  0  2  0  0  0
  -28.8401  -22.8635   24.5617 C   0  0  0  0  0  0
  -27.9981  -24.0881   20.1027 C   0  0  0  0  0  0
  -27.7954  -20.5442   21.7833 N   0  0  0  0  0  0
  -28.9836  -23.1046   22.0937 N   0  0  0  0  0  0
  -29.6718  -16.6609   20.2772 N   0  0  0  0  0  0
  -31.4478  -13.0743   19.2014 H   0  0  0  0  0  0
  -30.5148  -11.9801   20.1713 H   0  0  0  0  0  0
  -29.9369  -11.7228   17.7408 H   0  0  0  0  0  0
  -29.5698  -13.4251   17.6225 H   0  0  0  0  0  0
  -28.0695  -11.2755   19.1355 H   0  0  0  0  0  0
  -27.4269  -12.2808   17.8610 H   0  0  0  0  0  0
  -27.5007  -14.2276   19.2838 H   0  0  0  0  0  0
  -28.8195  -12.5811   21.4917 H   0  0  0  0  0  0
  -28.2530  -14.2337   21.6477 H   0  0  0  0  0  0
  -25.2777   -9.5732   22.4724 H   0  0  0  0  0  0
  -24.0063   -7.4645   22.7481 H   0  0  0  0  0  0
  -21.0868   -8.8703   19.8957 H   0  0  0  0  0  0
  -22.3659  -10.9634   19.6154 H   0  0  0  0  0  0
  -21.1935   -7.6113   23.9671 H   0  0  0  0  0  0
  -21.1512   -6.0504   25.9060 H   0  0  0  0  0  0
  -22.0637   -2.7596   23.2821 H   0  0  0  0  0  0
  -22.4030  -11.9855   22.4932 H   0  0  0  0  0  0
  -21.1038  -13.1205   22.2690 H   0  0  0  0  0  0
  -24.6622  -15.8628   20.6261 H   0  0  0  0  0  0
  -26.2641  -15.6447   20.1271 H   0  0  0  0  0  0
  -26.7448  -32.5056   23.0844 H   0  0  0  0  0  0
  -25.0446  -33.9362   25.0357 H   0  0  0  0  0  0
  -22.8046  -31.2568   21.3302 H   0  0  0  0  0  0
  -23.3755  -35.9499   23.3276 H   0  0  0  0  0  0
  -24.3588  -36.8800   22.2060 H   0  0  0  0  0  0
  -23.7252  -37.6362   23.6664 H   0  0  0  0  0  0
  -26.2250  -31.3346   20.5946 H   0  0  0  0  0  0
  -26.9221  -30.6852   22.0337 H   0  0  0  0  0  0
  -28.1543  -28.5515   21.2971 H   0  0  0  0  0  0
  -25.8954  -25.7026   19.0045 H   0  0  0  0  0  0
  -24.0306  -27.2535   18.9210 H   0  0  0  0  0  0
  -23.9138  -30.4945   19.3751 H   0  0  0  0  0  0
  -22.8481  -29.1965   19.8048 H   0  0  0  0  0  0
  -25.1324  -36.1692   25.0790 H   0  0  0  0  0  0
  -21.0072  -28.3295   24.1276 H   0  0  0  0  0  0
  -20.5518  -26.2363   23.3619 H   0  0  0  0  0  0
  -21.6657  -26.7225   22.1259 H   0  0  0  0  0  0
  -19.6863  -25.6231   21.1222 H   0  0  0  0  0  0
  -19.6690  -27.3142   20.6678 H   0  0  0  0  0  0
  -17.4209  -26.6667   21.4006 H   0  0  0  0  0  0
  -18.0355  -26.0023   22.8961 H   0  0  0  0  0  0
  -19.7968  -30.7306   24.2162 H   0  0  0  0  0  0
  -17.5021  -31.6230   24.5176 H   0  0  0  0  0  0
  -15.5368  -30.2926   23.7642 H   0  0  0  0  0  0
  -15.8736  -28.0776   22.7039 H   0  0  0  0  0  0
  -24.6098  -30.6803   25.7650 H   0  0  0  0  0  0
  -24.8788  -32.2831   26.4478 H   0  0  0  0  0  0
  -25.8077  -30.9060   27.0220 H   0  0  0  0  0  0
  -26.3079  -29.6516   24.1333 H   0  0  0  0  0  0
  -27.4029  -29.7111   25.4923 H   0  0  0  0  0  0
  -27.9054  -30.3955   23.9701 H   0  0  0  0  0  0
  -27.2820  -33.3588   26.1810 H   0  0  0  0  0  0
  -28.4142  -32.6449   25.0376 H   0  0  0  0  0  0
  -28.0622  -31.8362   26.5540 H   0  0  0  0  0  0
  -28.2570  -38.0022   24.7509 H   0  0  0  0  0  0
  -28.1002  -36.2561   24.6351 H   0  0  0  0  0  0
  -27.2283  -37.1486   25.8898 H   0  0  0  0  0  0
  -20.9606  -29.8864   21.6783 H   0  0  0  0  0  0
  -26.0077  -38.2736   24.1408 H   0  0  0  0  0  0
  -27.4433  -20.6335   23.8302 H   0  0  0  0  0  0
  -27.6350  -18.6238   19.2623 H   0  0  0  0  0  0
  -28.7488  -19.2613   18.0866 H   0  0  0  0  0  0
  -30.3102  -17.3763   18.4095 H   0  0  0  0  0  0
  -28.7405  -16.6260   18.3519 H   0  0  0  0  0  0
  -28.7904  -17.9803   21.7287 H   0  0  0  0  0  0
  -30.4912  -18.2158   21.6993 H   0  0  0  0  0  0
  -30.2954  -19.9654   19.8555 H   0  0  0  0  0  0
  -27.9155  -23.1643   25.0664 H   0  0  0  0  0  0
  -29.5381  -23.7017   24.5809 H   0  0  0  0  0  0
  -29.2760  -22.0565   25.1532 H   0  0  0  0  0  0
  -26.9281  -23.9197   20.2396 H   0  0  0  0  0  0
  -28.1663  -23.9679   19.0320 H   0  0  0  0  0  0
  1 25  1  0  0  0
  1 30  2  0  0  0
  1 83  1  0  0  0
  2  3  1  0  0  0
  2 25  1  0  0  0
  2 84  1  0  0  0
  2 85  1  0  0  0
  3  4  1  0  0  0
  3 86  1  0  0  0
  3 87  1  0  0  0
  4  5  1  0  0  0
  4 88  1  0  0  0
  4 89  1  0  0  0
  5  6  1  0  0  0
  5 26  1  0  0  0
  5 90  1  0  0  0
  6 25  1  0  0  0
  6 91  1  0  0  0
  6 92  1  0  0  0
  7  8  2  0  0  0
  7 26  1  0  0  0
  7 29  1  0  0  0
  8  9  1  0  0  0
  8 22  1  0  0  0
  9 10  1  0  0  0
  9 27  2  0  0  0
 10 11  2  0  0  0
 10 15  1  0  0  0
 11 12  1  0  0  0
 11 93  1  0  0  0
 12 13  2  0  0  0
 12 94  1  0  0  0
 13 14  1  0  0  0
 13 31  1  0  0  0
 14 15  2  0  0  0
 14 95  1  0  0  0
 15 96  1  0  0  0
 16 17  2  0  0  0
 16 21  1  0  0  0
 16 31  1  0  0  0
 17 18  1  0  0  0
 17 97  1  0  0  0
 18 19  2  0  0  0
 18 98  1  0  0  0
 19 20  1  0  0  0
 19 24  1  0  0  0
 20 21  2  0  0  0
 20 99  1  0  0  0
 21 23  1  0  0  0
 22 28  1  0  0  0
 22 32  2  0  0  0
 26 27  1  0  0  0
 28100  1  0  0  0
 28101  1  0  0  0
 29102  1  0  0  0
 29103  1  0  0  0
 33 34  1  0  0  0
 33 66  1  0  0  0
 33 70  2  0  0  0
 34 36  1  0  0  0
 34 59  1  0  0  0
 34104  1  0  0  0
 35 44  2  0  0  0
 35 45  1  0  0  0
 35 68  1  0  0  0
 36 56  1  0  0  0
 36105  1  0  0  0
 37 39  1  0  0  0
 37 47  1  0  0  0
 37 66  1  0  0  0
 37106  1  0  0  0
 38 43  2  0  0  0
 38 46  1  0  0  0
 38 47  1  0  0  0
 39 64  1  0  0  0
 39 67  2  0  0  0
 40 52  1  0  0  0
 40 53  2  0  0  0
 40 58  1  0  0  0
 41107  1  0  0  0
 41108  1  0  0  0
 41109  1  0  0  0
 41 48  1  0  0  0
 42 43  1  0  0  0
 42 66  1  0  0  0
 42110  1  0  0  0
 42111  1  0  0  0
 43 44  1  0  0  0
 44112  1  0  0  0
 45 46  2  0  0  0
 45113  1  0  0  0
 46114  1  0  0  0
 47115  1  0  0  0
 47116  1  0  0  0
 48 56  1  0  0  0
 48 65  1  0  0  0
 48117  1  0  0  0
 49 50  1  0  0  0
 49 53  1  0  0  0
 49 64  1  0  0  0
 49118  1  0  0  0
 50 51  1  0  0  0
 50119  1  0  0  0
 50120  1  0  0  0
 51 52  1  0  0  0
 51121  1  0  0  0
 51122  1  0  0  0
 52123  1  0  0  0
 52124  1  0  0  0
 53 54  1  0  0  0
 54 55  2  0  0  0
 54125  1  0  0  0
 55 57  1  0  0  0
 55126  1  0  0  0
 56 69  2  0  0  0
 57 58  2  0  0  0
 57127  1  0  0  0
 58128  1  0  0  0
 59 60  1  0  0  0
 59 61  1  0  0  0
 59 62  1  0  0  0
 60129  1  0  0  0
 60130  1  0  0  0
 60131  1  0  0  0
 61132  1  0  0  0
 61133  1  0  0  0
 61134  1  0  0  0
 62135  1  0  0  0
 62136  1  0  0  0
 62137  1  0  0  0
 63 65  1  0  0  0
 63138  1  0  0  0
 63139  1  0  0  0
 63140  1  0  0  0
 64141  1  0  0  0
 65142  1  0  0  0
 68 80  1  0  0  0
 71 73  2  0  0  0
 71 81  1  0  0  0
 71143  1  0  0  0
 72 74  1  0  0  0
 72 81  2  0  0  0
 72 78  1  0  0  0
 73 79  1  0  0  0
 73 82  1  0  0  0
 74 80  1  0  0  0
 74 82  2  0  0  0
 75 76  1  0  0  0
 75 78  1  0  0  0
 75144  1  0  0  0
 75145  1  0  0  0
 76 83  1  0  0  0
 76146  1  0  0  0
 76147  1  0  0  0
 77 78  1  0  0  0
 77 83  1  0  0  0
 77148  1  0  0  0
 77149  1  0  0  0
 78150  1  0  0  0
 79151  1  0  0  0
 79152  1  0  0  0
 79153  1  0  0  0
 80154  1  0  0  0
 80155  1  0  0  0
M  ISO  4   1 100  68 101  80 101  83 100
M  END
> <chiral flag>
0

> <version>
0

> <s_m_source_file>
/data/baiqing/PycharmProjects/Reinvent-master-3.2/result/LINK_invent/BTK/process_docking_weight1_custom_sum_contain_oxygen_bond_distance_aromatic_linkinvent_7_9_3/rearranged_h_0183.sdf

> <i_m_source_file_index>
67

> <r_mmod_Potential_Energy-OPLS-2005>
1959.185546875

> <r_mmod_Stretch_Energy-OPLS-2005>
665.331848144531

> <r_mmod_Bend_Energy-OPLS-2005>
540.051940917969

> <r_mmod_Torsional_Energy-OPLS-2005>
486.521453857422

> <r_mmod_Improper_Torsional_Energy-OPLS-2005>
26.1829071044922

> <r_mmod_Van_der_Waal_Energy-OPLS-2005>
118.400856018066

> <r_mmod_Electrostatic_Energy-OPLS-2005>
-213.833404541016

> <r_mmod_Solvation_Energy-OPLS-2005>
-219.368865966797

> <b_mmod_Minimization_Converged-OPLS-2005>
0

> <r_mmod_RMS_Derivative-OPLS-2005>
7.52332067489624

$$$$
68
                    3D
 Structure written by MMmdl.
151160  0  0  1  0            999 V2000
  -30.5239  -15.0031   20.4155 C   0  0  0  0  0  0
  -30.4439  -12.6248   19.5078 C   0  0  0  0  0  0
  -29.5300  -12.5512   18.2623 C   0  0  0  0  0  0
  -28.0633  -12.3227   18.6761 C   0  0  0  0  0  0
  -27.6301  -13.2551   19.8381 C   0  0  2  0  0  0
  -28.6720  -13.3002   20.9773 C   0  0  0  0  0  0
  -25.2447  -13.8219   20.5696 C   0  0  0  0  0  0
  -24.1766  -13.0433   20.9221 C   0  0  0  0  0  0
  -24.6393  -11.6925   20.8744 C   0  0  0  0  0  0
  -23.9073  -10.4295   21.0404 C   0  0  0  0  0  0
  -24.3625   -9.4207   21.9178 C   0  0  0  0  0  0
  -23.6308   -8.2241   22.0743 C   0  0  0  0  0  0
  -22.4284   -8.0280   21.3542 C   0  0  0  0  0  0
  -21.9925   -9.0254   20.4641 C   0  0  0  0  0  0
  -22.7253  -10.2132   20.3050 C   0  0  0  0  0  0
  -21.6856   -6.0737   22.5281 C   0  0  0  0  0  0
  -21.4022   -6.5642   23.8216 C   0  0  0  0  0  0
  -21.3658   -5.6788   24.9171 C   0  0  0  0  0  0
  -21.6044   -4.3047   24.7224 C   0  0  0  0  0  0
  -21.8817   -3.8146   23.4340 C   0  0  0  0  0  0
  -21.9195   -4.6965   22.3394 C   0  0  0  0  0  0
  -22.7780  -13.5204   21.1880 C   0  0  0  0  0  0
  -22.1658   -4.2145   21.0977 F   0  0  0  0  0  0
  -21.5632   -3.4531   25.7734 F   0  0  0  0  0  0
  -29.9429  -13.7312   20.3782 N   0  0  0  0  0  0
  -26.2888  -12.9466   20.3238 N   0  0  0  0  0  0
  -25.9336  -11.6589   20.5712 N   0  0  0  0  0  0
  -22.0433  -12.8197   22.0437 N   0  0  0  0  0  0
  -25.4089  -15.1955   20.4114 N   0  0  0  0  0  0
  -31.7280  -15.0672   20.1394 O   0  0  0  0  0  0
  -21.6635   -6.8883   21.4249 O   0  0  0  0  0  0
  -22.3457  -14.5504   20.6709 O   0  0  0  0  0  0
  -24.6518  -31.8401   23.1861 C   0  0  0  0  0  0
  -25.9258  -32.4683   23.8271 C   0  0  1  0  0  0
  -27.2154  -27.0802   20.1488 C   0  0  0  0  0  0
  -25.5980  -33.8489   24.2182 N   0  0  0  0  0  0
  -23.4588  -30.4595   21.5340 C   0  0  2  0  0  0
  -24.9077  -28.8817   20.1132 C   0  0  0  0  0  0
  -22.7616  -29.4527   22.4848 C   0  0  0  0  0  0
  -18.0322  -28.1408   22.8484 C   0  0  0  0  0  0
  -24.1489  -36.7241   23.2644 C   0  0  0  0  0  0
  -26.0218  -30.6922   21.3986 C   0  0  0  0  0  0
  -26.0895  -29.2995   20.7384 C   0  0  0  0  0  0
  -27.2427  -28.4159   20.7415 C   0  0  0  0  0  0
  -26.0048  -26.7886   19.4761 C   0  0  0  0  0  0
  -24.8819  -27.6407   19.4665 C   0  0  0  0  0  0
  -23.6889  -29.7913   20.1544 C   0  0  0  0  0  0
  -25.4124  -36.3028   24.0322 C   0  0  1  0  0  0
  -20.5938  -28.3744   23.1227 C   0  0  2  0  0  0
  -20.6800  -26.9440   22.5412 C   0  0  0  0  0  0
  -19.5768  -26.6388   21.5228 C   0  0  0  0  0  0
  -18.1949  -26.7947   22.1632 C   0  0  0  0  0  0
  -19.1579  -28.8899   23.2842 C   0  0  0  0  0  0
  -18.9482  -30.1493   23.8869 C   0  0  0  0  0  0
  -17.6473  -30.6597   24.0572 C   0  0  0  0  0  0
  -25.9085  -34.9406   23.5063 C   0  0  0  0  0  0
  -16.5367  -29.9088   23.6344 C   0  0  0  0  0  0
  -16.7304  -28.6510   23.0362 C   0  0  0  0  0  0
  -26.4538  -31.6566   25.0741 C   0  0  0  0  0  0
  -25.3681  -31.3795   26.1409 C   0  0  0  0  0  0
  -27.0415  -30.2953   24.6371 C   0  0  0  0  0  0
  -27.6068  -32.4336   25.7519 C   0  0  0  0  0  0
  -27.5582  -37.1776   24.8460 C   0  0  0  0  0  0
  -21.4305  -29.3050   22.3594 N   0  0  0  0  0  0
  -26.4285  -37.3749   23.9416 N   0  0  0  0  0  0
  -24.7310  -31.0194   22.0940 N   0  0  0  0  0  0
  -23.4220  -28.8087   23.3034 O   0  0  0  0  0  0
  -28.2312  -26.0339   20.2234 O   0  0  0  0  0  0
  -26.5673  -34.8911   22.4642 O   0  0  0  0  0  0
  -23.5618  -32.1313   23.7030 O   0  0  0  0  0  0
  -30.2053  -21.4509   20.0109 C   0  0  0  0  0  0
  -28.6396  -23.0681   20.2125 C   0  0  0  0  0  0
  -28.1493  -21.7337   20.4494 C   0  0  0  0  0  0
  -29.5153  -18.5437   21.6803 C   0  0  0  0  0  0
  -28.9675  -19.0623   20.3778 C   0  0  2  0  0  0
  -30.0286  -17.7414   20.5015 C   0  0  2  0  0  0
  -26.7358  -21.3630   20.7685 C   0  0  0  0  0  0
  -27.8250  -24.5228   20.0139 C   0  0  0  0  0  0
  -29.9962  -22.7996   19.9352 N   0  0  0  0  0  0
  -29.1431  -20.6646   20.3100 N   0  0  0  0  0  0
  -29.7351  -16.1910   20.5740 N   0  0  0  0  0  0
  -31.4774  -12.7905   19.2003 H   0  0  0  0  0  0
  -30.4440  -11.6760   20.0463 H   0  0  0  0  0  0
  -29.8642  -11.7623   17.5872 H   0  0  0  0  0  0
  -29.6090  -13.4851   17.7034 H   0  0  0  0  0  0
  -27.9659  -11.2815   18.9844 H   0  0  0  0  0  0
  -27.4026  -12.4486   17.8183 H   0  0  0  0  0  0
  -27.5863  -14.2542   19.4043 H   0  0  0  0  0  0
  -28.7713  -12.3273   21.4606 H   0  0  0  0  0  0
  -28.3603  -14.0025   21.7528 H   0  0  0  0  0  0
  -25.2778   -9.5687   22.4744 H   0  0  0  0  0  0
  -24.0021   -7.4627   22.7455 H   0  0  0  0  0  0
  -21.0860   -8.8776   19.8949 H   0  0  0  0  0  0
  -22.3720  -10.9664   19.6144 H   0  0  0  0  0  0
  -21.2015   -7.6149   23.9725 H   0  0  0  0  0  0
  -21.1489   -6.0509   25.9077 H   0  0  0  0  0  0
  -22.0601   -2.7612   23.2830 H   0  0  0  0  0  0
  -22.4056  -11.9873   22.4857 H   0  0  0  0  0  0
  -21.1044  -13.1212   22.2630 H   0  0  0  0  0  0
  -24.6348  -15.8430   20.5105 H   0  0  0  0  0  0
  -26.2455  -15.6380   20.0561 H   0  0  0  0  0  0
  -26.7337  -32.5258   23.1005 H   0  0  0  0  0  0
  -25.0098  -33.9593   25.0313 H   0  0  0  0  0  0
  -22.7648  -31.2880   21.3776 H   0  0  0  0  0  0
  -23.3779  -35.9543   23.3271 H   0  0  0  0  0  0
  -24.3578  -36.8908   22.2066 H   0  0  0  0  0  0
  -23.7210  -37.6415   23.6697 H   0  0  0  0  0  0
  -26.1888  -31.4411   20.6233 H   0  0  0  0  0  0
  -26.8890  -30.7401   22.0459 H   0  0  0  0  0  0
  -28.1364  -28.7270   21.2647 H   0  0  0  0  0  0
  -25.8699  -25.8491   18.9639 H   0  0  0  0  0  0
  -23.9837  -27.3151   18.9596 H   0  0  0  0  0  0
  -23.8369  -30.5665   19.4018 H   0  0  0  0  0  0
  -22.8020  -29.2392   19.8384 H   0  0  0  0  0  0
  -25.1309  -36.1858   25.0816 H   0  0  0  0  0  0
  -21.0027  -28.3342   24.1350 H   0  0  0  0  0  0
  -20.5705  -26.2362   23.3644 H   0  0  0  0  0  0
  -21.6661  -26.7442   22.1206 H   0  0  0  0  0  0
  -19.6921  -25.6292   21.1282 H   0  0  0  0  0  0
  -19.6706  -27.3183   20.6748 H   0  0  0  0  0  0
  -17.4230  -26.6730   21.4020 H   0  0  0  0  0  0
  -18.0314  -26.0091   22.9024 H   0  0  0  0  0  0
  -19.7953  -30.7330   24.2210 H   0  0  0  0  0  0
  -17.5021  -31.6270   24.5189 H   0  0  0  0  0  0
  -15.5361  -30.2974   23.7681 H   0  0  0  0  0  0
  -15.8713  -28.0821   22.7073 H   0  0  0  0  0  0
  -24.5844  -30.7179   25.7699 H   0  0  0  0  0  0
  -24.8886  -32.3000   26.4750 H   0  0  0  0  0  0
  -25.7908  -30.8994   27.0245 H   0  0  0  0  0  0
  -26.3059  -29.6662   24.1352 H   0  0  0  0  0  0
  -27.3979  -29.7270   25.4972 H   0  0  0  0  0  0
  -27.8983  -30.4177   23.9744 H   0  0  0  0  0  0
  -27.2667  -33.3655   26.2043 H   0  0  0  0  0  0
  -28.3894  -32.6872   25.0358 H   0  0  0  0  0  0
  -28.0724  -31.8501   26.5472 H   0  0  0  0  0  0
  -28.2580  -38.0095   24.7539 H   0  0  0  0  0  0
  -28.1098  -36.2627   24.6240 H   0  0  0  0  0  0
  -27.2311  -37.1372   25.8865 H   0  0  0  0  0  0
  -20.9539  -29.8755   21.6755 H   0  0  0  0  0  0
  -26.0153  -38.2816   24.1424 H   0  0  0  0  0  0
  -31.1756  -21.0192   19.8075 H   0  0  0  0  0  0
  -28.7927  -18.0760   22.3454 H   0  0  0  0  0  0
  -30.2537  -19.1543   22.1965 H   0  0  0  0  0  0
  -27.9383  -18.8129   20.1228 H   0  0  0  0  0  0
  -31.0428  -17.9736   20.1779 H   0  0  0  0  0  0
  -26.1314  -22.2427   20.9900 H   0  0  0  0  0  0
  -26.6910  -20.7127   21.6432 H   0  0  0  0  0  0
  -26.2681  -20.8388   19.9344 H   0  0  0  0  0  0
  -26.8991  -24.4210   20.5793 H   0  0  0  0  0  0
  -27.5123  -24.4961   18.9704 H   0  0  0  0  0  0
  -28.7664  -15.9795   20.7597 H   0  0  0  0  0  0
  1 25  1  0  0  0
  1 30  2  0  0  0
  1 81  1  0  0  0
  2  3  1  0  0  0
  2 25  1  0  0  0
  2 82  1  0  0  0
  2 83  1  0  0  0
  3  4  1  0  0  0
  3 84  1  0  0  0
  3 85  1  0  0  0
  4  5  1  0  0  0
  4 86  1  0  0  0
  4 87  1  0  0  0
  5  6  1  0  0  0
  5 26  1  0  0  0
  5 88  1  0  0  0
  6 25  1  0  0  0
  6 89  1  0  0  0
  6 90  1  0  0  0
  7  8  2  0  0  0
  7 26  1  0  0  0
  7 29  1  0  0  0
  8  9  1  0  0  0
  8 22  1  0  0  0
  9 10  1  0  0  0
  9 27  2  0  0  0
 10 11  2  0  0  0
 10 15  1  0  0  0
 11 12  1  0  0  0
 11 91  1  0  0  0
 12 13  2  0  0  0
 12 92  1  0  0  0
 13 14  1  0  0  0
 13 31  1  0  0  0
 14 15  2  0  0  0
 14 93  1  0  0  0
 15 94  1  0  0  0
 16 17  2  0  0  0
 16 21  1  0  0  0
 16 31  1  0  0  0
 17 18  1  0  0  0
 17 95  1  0  0  0
 18 19  2  0  0  0
 18 96  1  0  0  0
 19 20  1  0  0  0
 19 24  1  0  0  0
 20 21  2  0  0  0
 20 97  1  0  0  0
 21 23  1  0  0  0
 22 28  1  0  0  0
 22 32  2  0  0  0
 26 27  1  0  0  0
 28 98  1  0  0  0
 28 99  1  0  0  0
 29100  1  0  0  0
 29101  1  0  0  0
 33 34  1  0  0  0
 33 66  1  0  0  0
 33 70  2  0  0  0
 34 36  1  0  0  0
 34 59  1  0  0  0
 34102  1  0  0  0
 35 44  2  0  0  0
 35 45  1  0  0  0
 35 68  1  0  0  0
 36 56  1  0  0  0
 36103  1  0  0  0
 37 39  1  0  0  0
 37 47  1  0  0  0
 37 66  1  0  0  0
 37104  1  0  0  0
 38 43  2  0  0  0
 38 46  1  0  0  0
 38 47  1  0  0  0
 39 64  1  0  0  0
 39 67  2  0  0  0
 40 52  1  0  0  0
 40 53  2  0  0  0
 40 58  1  0  0  0
 41105  1  0  0  0
 41106  1  0  0  0
 41107  1  0  0  0
 41 48  1  0  0  0
 42 43  1  0  0  0
 42 66  1  0  0  0
 42108  1  0  0  0
 42109  1  0  0  0
 43 44  1  0  0  0
 44110  1  0  0  0
 45 46  2  0  0  0
 45111  1  0  0  0
 46112  1  0  0  0
 47113  1  0  0  0
 47114  1  0  0  0
 48 56  1  0  0  0
 48 65  1  0  0  0
 48115  1  0  0  0
 49 50  1  0  0  0
 49 53  1  0  0  0
 49 64  1  0  0  0
 49116  1  0  0  0
 50 51  1  0  0  0
 50117  1  0  0  0
 50118  1  0  0  0
 51 52  1  0  0  0
 51119  1  0  0  0
 51120  1  0  0  0
 52121  1  0  0  0
 52122  1  0  0  0
 53 54  1  0  0  0
 54 55  2  0  0  0
 54123  1  0  0  0
 55 57  1  0  0  0
 55124  1  0  0  0
 56 69  2  0  0  0
 57 58  2  0  0  0
 57125  1  0  0  0
 58126  1  0  0  0
 59 60  1  0  0  0
 59 61  1  0  0  0
 59 62  1  0  0  0
 60127  1  0  0  0
 60128  1  0  0  0
 60129  1  0  0  0
 61130  1  0  0  0
 61131  1  0  0  0
 61132  1  0  0  0
 62133  1  0  0  0
 62134  1  0  0  0
 62135  1  0  0  0
 63 65  1  0  0  0
 63136  1  0  0  0
 63137  1  0  0  0
 63138  1  0  0  0
 64139  1  0  0  0
 65140  1  0  0  0
 68 78  1  0  0  0
 71 79  2  0  0  0
 71 80  1  0  0  0
 71141  1  0  0  0
 72 73  2  0  0  0
 72 78  1  0  0  0
 72 79  1  0  0  0
 73 77  1  0  0  0
 73 80  1  0  0  0
 74 75  1  0  0  0
 74 76  1  0  0  0
 74142  1  0  0  0
 74143  1  0  0  0
 75 76  1  0  0  0
 75 80  1  0  0  0
 75144  1  0  0  0
 76 81  1  0  0  0
 76145  1  0  0  0
 77146  1  0  0  0
 77147  1  0  0  0
 77148  1  0  0  0
 78149  1  0  0  0
 78150  1  0  0  0
 81151  1  0  0  0
M  ISO  4   1 100  68 101  78 101  81 100
M  END
> <chiral flag>
0

> <version>
0

> <s_m_source_file>
/data/baiqing/PycharmProjects/Reinvent-master-3.2/result/LINK_invent/BTK/process_docking_weight1_custom_sum_contain_oxygen_bond_distance_aromatic_linkinvent_7_9_3/rearranged_h_0183.sdf

> <i_m_source_file_index>
68

> <r_mmod_Potential_Energy-OPLS-2005>
698.634704589844

> <r_mmod_Stretch_Energy-OPLS-2005>
314.701782226562

> <r_mmod_Bend_Energy-OPLS-2005>
309.013458251953

> <r_mmod_Torsional_Energy-OPLS-2005>
280.347961425781

> <r_mmod_Improper_Torsional_Energy-OPLS-2005>
5.40478181838989

> <r_mmod_Van_der_Waal_Energy-OPLS-2005>
111.357246398926

> <r_mmod_Electrostatic_Energy-OPLS-2005>
-324.007446289062

> <r_mmod_Solvation_Energy-OPLS-2005>
-241.141036987305

> <b_mmod_Minimization_Converged-OPLS-2005>
0

> <r_mmod_RMS_Derivative-OPLS-2005>
1.92049241065979

$$$$
69
                    3D
 Structure written by MMmdl.
154163  0  0  1  0            999 V2000
  -30.5227  -15.0446   20.3547 C   0  0  0  0  0  0
  -30.4436  -12.6494   19.4818 C   0  0  0  0  0  0
  -29.5211  -12.5151   18.2471 C   0  0  0  0  0  0
  -28.0581  -12.2920   18.6788 C   0  0  0  0  0  0
  -27.6195  -13.2505   19.8137 C   0  0  2  0  0  0
  -28.6682  -13.3426   20.9422 C   0  0  0  0  0  0
  -25.2436  -13.8217   20.5672 C   0  0  0  0  0  0
  -24.1768  -13.0418   20.9235 C   0  0  0  0  0  0
  -24.6394  -11.6927   20.8744 C   0  0  0  0  0  0
  -23.9076  -10.4308   21.0409 C   0  0  0  0  0  0
  -24.3650   -9.4216   21.9162 C   0  0  0  0  0  0
  -23.6326   -8.2247   22.0735 C   0  0  0  0  0  0
  -22.4290   -8.0287   21.3535 C   0  0  0  0  0  0
  -21.9928   -9.0254   20.4623 C   0  0  0  0  0  0
  -22.7263  -10.2136   20.3045 C   0  0  0  0  0  0
  -21.6867   -6.0742   22.5277 C   0  0  0  0  0  0
  -21.4003   -6.5627   23.8217 C   0  0  0  0  0  0
  -21.3676   -5.6778   24.9177 C   0  0  0  0  0  0
  -21.6079   -4.3040   24.7217 C   0  0  0  0  0  0
  -21.8821   -3.8147   23.4327 C   0  0  0  0  0  0
  -21.9183   -4.6979   22.3394 C   0  0  0  0  0  0
  -22.7800  -13.5189   21.1924 C   0  0  0  0  0  0
  -22.1669   -4.2161   21.0983 F   0  0  0  0  0  0
  -21.5660   -3.4521   25.7730 F   0  0  0  0  0  0
  -29.9247  -13.7775   20.3142 N   0  0  0  0  0  0
  -26.2854  -12.9442   20.3153 N   0  0  0  0  0  0
  -25.9327  -11.6575   20.5719 N   0  0  0  0  0  0
  -22.0467  -12.8137   22.0470 N   0  0  0  0  0  0
  -25.4023  -15.1957   20.4073 N   0  0  0  0  0  0
  -31.7472  -15.0686   20.1889 O   0  0  0  0  0  0
  -21.6644   -6.8884   21.4236 O   0  0  0  0  0  0
  -22.3461  -14.5490   20.6787 O   0  0  0  0  0  0
  -24.6531  -31.8386   23.1798 C   0  0  0  0  0  0
  -25.9253  -32.4683   23.8238 C   0  0  1  0  0  0
  -27.2190  -27.0719   20.1201 C   0  0  0  0  0  0
  -25.5962  -33.8506   24.2174 N   0  0  0  0  0  0
  -23.4569  -30.4512   21.5329 C   0  0  2  0  0  0
  -24.9027  -28.8651   20.1063 C   0  0  0  0  0  0
  -22.7604  -29.4502   22.4876 C   0  0  0  0  0  0
  -18.0282  -28.1407   22.8445 C   0  0  0  0  0  0
  -24.1470  -36.7232   23.2646 C   0  0  0  0  0  0
  -26.0168  -30.6831   21.3877 C   0  0  0  0  0  0
  -26.0845  -29.2889   20.7250 C   0  0  0  0  0  0
  -27.2408  -28.4101   20.7138 C   0  0  0  0  0  0
  -26.0073  -26.7636   19.4648 C   0  0  0  0  0  0
  -24.8808  -27.6187   19.4601 C   0  0  0  0  0  0
  -23.6845  -29.7804   20.1521 C   0  0  0  0  0  0
  -25.4105  -36.3047   24.0341 C   0  0  1  0  0  0
  -20.5904  -28.3747   23.1225 C   0  0  2  0  0  0
  -20.6785  -26.9440   22.5414 C   0  0  0  0  0  0
  -19.5765  -26.6391   21.5204 C   0  0  0  0  0  0
  -18.1926  -26.7928   22.1599 C   0  0  0  0  0  0
  -19.1545  -28.8887   23.2824 C   0  0  0  0  0  0
  -18.9480  -30.1471   23.8871 C   0  0  0  0  0  0
  -17.6490  -30.6615   24.0553 C   0  0  0  0  0  0
  -25.9076  -34.9422   23.5069 C   0  0  0  0  0  0
  -16.5374  -29.9120   23.6339 C   0  0  0  0  0  0
  -16.7276  -28.6520   23.0363 C   0  0  0  0  0  0
  -26.4547  -31.6558   25.0700 C   0  0  0  0  0  0
  -25.3700  -31.3727   26.1372 C   0  0  0  0  0  0
  -27.0434  -30.2967   24.6273 C   0  0  0  0  0  0
  -27.6076  -32.4349   25.7460 C   0  0  0  0  0  0
  -27.5578  -37.1759   24.8476 C   0  0  0  0  0  0
  -21.4281  -29.3070   22.3635 N   0  0  0  0  0  0
  -26.4267  -37.3778   23.9444 N   0  0  0  0  0  0
  -24.7303  -31.0136   22.0895 N   0  0  0  0  0  0
  -23.4207  -28.8045   23.3060 O   0  0  0  0  0  0
  -28.2648  -26.0562   20.1723 O   0  0  0  0  0  0
  -26.5681  -34.8949   22.4663 O   0  0  0  0  0  0
  -23.5642  -32.1316   23.6976 O   0  0  0  0  0  0
  -28.9131  -21.5956   19.7940 C   0  0  0  0  0  0
  -28.3284  -20.1369   18.1608 C   0  0  0  0  0  0
  -29.3920  -19.1913   19.9157 C   0  0  0  0  0  0
  -30.5686  -23.6891   20.1291 C   0  0  0  0  0  0
  -29.9539  -23.4267   21.4760 C   0  0  0  0  0  0
  -29.1290  -23.2171   20.2193 C   0  0  0  0  0  0
  -27.6772  -19.9524   16.8034 C   0  0  0  0  0  0
  -30.1611  -17.8171   20.4997 C   0  0  0  0  0  0
  -28.0636  -24.5000   19.8802 C   0  0  0  0  0  0
  -28.3724  -21.4016   18.5951 N   0  0  0  0  0  0
  -29.4690  -20.4872   20.4706 N   0  0  0  0  0  0
  -28.7900  -19.0230   18.7429 N   0  0  0  0  0  0
  -29.7653  -16.2674   20.3653 N   0  0  0  0  0  0
  -31.4673  -12.8305   19.1556 H   0  0  0  0  0  0
  -30.4713  -11.7199   20.0523 H   0  0  0  0  0  0
  -29.8572  -11.6906   17.6148 H   0  0  0  0  0  0
  -29.5963  -13.4172   17.6393 H   0  0  0  0  0  0
  -27.9759  -11.2582   19.0188 H   0  0  0  0  0  0
  -27.3842  -12.3840   17.8260 H   0  0  0  0  0  0
  -27.5570  -14.2325   19.3446 H   0  0  0  0  0  0
  -28.7810  -12.3839   21.4505 H   0  0  0  0  0  0
  -28.3554  -14.0627   21.6993 H   0  0  0  0  0  0
  -25.2811   -9.5718   22.4700 H   0  0  0  0  0  0
  -24.0085   -7.4631   22.7417 H   0  0  0  0  0  0
  -21.0886   -8.8774   19.8876 H   0  0  0  0  0  0
  -22.3743  -10.9680   19.6154 H   0  0  0  0  0  0
  -21.1981   -7.6132   23.9732 H   0  0  0  0  0  0
  -21.1511   -6.0491   25.9081 H   0  0  0  0  0  0
  -22.0579   -2.7600   23.2821 H   0  0  0  0  0  0
  -22.4128  -11.9858   22.4941 H   0  0  0  0  0  0
  -21.1043  -13.1075   22.2610 H   0  0  0  0  0  0
  -24.6228  -15.8314   20.5339 H   0  0  0  0  0  0
  -26.2371  -15.6528   20.0667 H   0  0  0  0  0  0
  -26.7299  -32.5267   23.0948 H   0  0  0  0  0  0
  -25.0103  -33.9600   25.0320 H   0  0  0  0  0  0
  -22.7678  -31.2833   21.3799 H   0  0  0  0  0  0
  -23.3790  -35.9507   23.3319 H   0  0  0  0  0  0
  -24.3520  -36.8852   22.2052 H   0  0  0  0  0  0
  -23.7168  -37.6413   23.6666 H   0  0  0  0  0  0
  -26.1781  -31.4329   20.6121 H   0  0  0  0  0  0
  -26.8859  -30.7317   22.0304 H   0  0  0  0  0  0
  -28.1421  -28.7284   21.2179 H   0  0  0  0  0  0
  -25.9067  -25.8122   18.9629 H   0  0  0  0  0  0
  -23.9808  -27.2977   18.9542 H   0  0  0  0  0  0
  -23.8352  -30.5642   19.4056 H   0  0  0  0  0  0
  -22.7951  -29.2355   19.8306 H   0  0  0  0  0  0
  -25.1281  -36.1877   25.0834 H   0  0  0  0  0  0
  -20.9940  -28.3333   24.1372 H   0  0  0  0  0  0
  -20.5656  -26.2359   23.3648 H   0  0  0  0  0  0
  -21.6647  -26.7459   22.1216 H   0  0  0  0  0  0
  -19.6944  -25.6287   21.1264 H   0  0  0  0  0  0
  -19.6705  -27.3193   20.6718 H   0  0  0  0  0  0
  -17.4202  -26.6681   21.4002 H   0  0  0  0  0  0
  -18.0324  -26.0076   22.8997 H   0  0  0  0  0  0
  -19.7966  -30.7250   24.2284 H   0  0  0  0  0  0
  -17.5061  -31.6288   24.5160 H   0  0  0  0  0  0
  -15.5368  -30.3035   23.7686 H   0  0  0  0  0  0
  -15.8649  -28.0843   22.7144 H   0  0  0  0  0  0
  -24.5942  -30.7027   25.7652 H   0  0  0  0  0  0
  -24.8817  -32.2892   26.4706 H   0  0  0  0  0  0
  -25.7957  -30.8959   27.0204 H   0  0  0  0  0  0
  -26.3053  -29.6682   24.1278 H   0  0  0  0  0  0
  -27.4083  -29.7281   25.4829 H   0  0  0  0  0  0
  -27.8938  -30.4272   23.9573 H   0  0  0  0  0  0
  -27.2707  -33.3726   26.1896 H   0  0  0  0  0  0
  -28.3911  -32.6788   25.0269 H   0  0  0  0  0  0
  -28.0704  -31.8562   26.5460 H   0  0  0  0  0  0
  -28.2581  -38.0082   24.7592 H   0  0  0  0  0  0
  -28.1098  -36.2620   24.6216 H   0  0  0  0  0  0
  -27.2302  -37.1299   25.8882 H   0  0  0  0  0  0
  -20.9548  -29.8808   21.6785 H   0  0  0  0  0  0
  -26.0159  -38.2840   24.1515 H   0  0  0  0  0  0
  -31.2984  -22.9794   19.7457 H   0  0  0  0  0  0
  -30.7391  -24.7244   19.8406 H   0  0  0  0  0  0
  -29.6650  -24.2698   22.0985 H   0  0  0  0  0  0
  -30.2667  -22.5392   22.0251 H   0  0  0  0  0  0
  -28.0937  -20.6568   16.0825 H   0  0  0  0  0  0
  -26.6039  -20.1366   16.8670 H   0  0  0  0  0  0
  -27.8153  -18.9468   16.4040 H   0  0  0  0  0  0
  -30.2919  -17.9832   21.5689 H   0  0  0  0  0  0
  -31.1761  -17.8828   20.1085 H   0  0  0  0  0  0
  -27.1140  -24.2132   20.3279 H   0  0  0  0  0  0
  -27.8962  -24.4431   18.8028 H   0  0  0  0  0  0
  -28.7671  -16.1305   20.3496 H   0  0  0  0  0  0
  1 25  1  0  0  0
  1 30  2  0  0  0
  1 83  1  0  0  0
  2  3  1  0  0  0
  2 25  1  0  0  0
  2 84  1  0  0  0
  2 85  1  0  0  0
  3  4  1  0  0  0
  3 86  1  0  0  0
  3 87  1  0  0  0
  4  5  1  0  0  0
  4 88  1  0  0  0
  4 89  1  0  0  0
  5  6  1  0  0  0
  5 26  1  0  0  0
  5 90  1  0  0  0
  6 25  1  0  0  0
  6 91  1  0  0  0
  6 92  1  0  0  0
  7  8  2  0  0  0
  7 26  1  0  0  0
  7 29  1  0  0  0
  8  9  1  0  0  0
  8 22  1  0  0  0
  9 10  1  0  0  0
  9 27  2  0  0  0
 10 11  2  0  0  0
 10 15  1  0  0  0
 11 12  1  0  0  0
 11 93  1  0  0  0
 12 13  2  0  0  0
 12 94  1  0  0  0
 13 14  1  0  0  0
 13 31  1  0  0  0
 14 15  2  0  0  0
 14 95  1  0  0  0
 15 96  1  0  0  0
 16 17  2  0  0  0
 16 21  1  0  0  0
 16 31  1  0  0  0
 17 18  1  0  0  0
 17 97  1  0  0  0
 18 19  2  0  0  0
 18 98  1  0  0  0
 19 20  1  0  0  0
 19 24  1  0  0  0
 20 21  2  0  0  0
 20 99  1  0  0  0
 21 23  1  0  0  0
 22 28  1  0  0  0
 22 32  2  0  0  0
 26 27  1  0  0  0
 28100  1  0  0  0
 28101  1  0  0  0
 29102  1  0  0  0
 29103  1  0  0  0
 33 34  1  0  0  0
 33 66  1  0  0  0
 33 70  2  0  0  0
 34 36  1  0  0  0
 34 59  1  0  0  0
 34104  1  0  0  0
 35 44  2  0  0  0
 35 45  1  0  0  0
 35 68  1  0  0  0
 36 56  1  0  0  0
 36105  1  0  0  0
 37 39  1  0  0  0
 37 47  1  0  0  0
 37 66  1  0  0  0
 37106  1  0  0  0
 38 43  2  0  0  0
 38 46  1  0  0  0
 38 47  1  0  0  0
 39 64  1  0  0  0
 39 67  2  0  0  0
 40 52  1  0  0  0
 40 53  2  0  0  0
 40 58  1  0  0  0
 41107  1  0  0  0
 41108  1  0  0  0
 41109  1  0  0  0
 41 48  1  0  0  0
 42 43  1  0  0  0
 42 66  1  0  0  0
 42110  1  0  0  0
 42111  1  0  0  0
 43 44  1  0  0  0
 44112  1  0  0  0
 45 46  2  0  0  0
 45113  1  0  0  0
 46114  1  0  0  0
 47115  1  0  0  0
 47116  1  0  0  0
 48 56  1  0  0  0
 48 65  1  0  0  0
 48117  1  0  0  0
 49 50  1  0  0  0
 49 53  1  0  0  0
 49 64  1  0  0  0
 49118  1  0  0  0
 50 51  1  0  0  0
 50119  1  0  0  0
 50120  1  0  0  0
 51 52  1  0  0  0
 51121  1  0  0  0
 51122  1  0  0  0
 52123  1  0  0  0
 52124  1  0  0  0
 53 54  1  0  0  0
 54 55  2  0  0  0
 54125  1  0  0  0
 55 57  1  0  0  0
 55126  1  0  0  0
 56 69  2  0  0  0
 57 58  2  0  0  0
 57127  1  0  0  0
 58128  1  0  0  0
 59 60  1  0  0  0
 59 61  1  0  0  0
 59 62  1  0  0  0
 60129  1  0  0  0
 60130  1  0  0  0
 60131  1  0  0  0
 61132  1  0  0  0
 61133  1  0  0  0
 61134  1  0  0  0
 62135  1  0  0  0
 62136  1  0  0  0
 62137  1  0  0  0
 63 65  1  0  0  0
 63138  1  0  0  0
 63139  1  0  0  0
 63140  1  0  0  0
 64141  1  0  0  0
 65142  1  0  0  0
 68 79  1  0  0  0
 71 76  1  0  0  0
 71 80  1  0  0  0
 71 81  2  0  0  0
 72 77  1  0  0  0
 72 80  2  0  0  0
 72 82  1  0  0  0
 73 78  1  0  0  0
 73 81  1  0  0  0
 73 82  2  0  0  0
 74 75  1  0  0  0
 74 76  1  0  0  0
 74143  1  0  0  0
 74144  1  0  0  0
 75 76  1  0  0  0
 75145  1  0  0  0
 75146  1  0  0  0
 76 79  1  0  0  0
 77147  1  0  0  0
 77148  1  0  0  0
 77149  1  0  0  0
 78 83  1  0  0  0
 78150  1  0  0  0
 78151  1  0  0  0
 79152  1  0  0  0
 79153  1  0  0  0
 83154  1  0  0  0
M  ISO  4   1 100  68 101  79 101  83 100
M  END
> <chiral flag>
0

> <version>
0

> <s_m_source_file>
/data/baiqing/PycharmProjects/Reinvent-master-3.2/result/LINK_invent/BTK/process_docking_weight1_custom_sum_contain_oxygen_bond_distance_aromatic_linkinvent_7_9_3/rearranged_h_0183.sdf

> <i_m_source_file_index>
69

> <r_mmod_Potential_Energy-OPLS-2005>
-118.734275817871

> <r_mmod_Stretch_Energy-OPLS-2005>
339.306457519531

> <r_mmod_Bend_Energy-OPLS-2005>
293.932861328125

> <r_mmod_Torsional_Energy-OPLS-2005>
228.652038574219

> <r_mmod_Improper_Torsional_Energy-OPLS-2005>
6.49046802520752

> <r_mmod_Van_der_Waal_Energy-OPLS-2005>
138.788925170898

> <r_mmod_Electrostatic_Energy-OPLS-2005>
-1146.68774414062

> <r_mmod_Solvation_Energy-OPLS-2005>
-241.727172851562

> <b_mmod_Minimization_Converged-OPLS-2005>
0

> <r_mmod_RMS_Derivative-OPLS-2005>
5.0164942741394

$$$$
70
                    3D
 Structure written by MMmdl.
154163  0  0  1  0            999 V2000
  -30.3876  -15.4036   20.3517 C   0  0  0  0  0  0
  -30.4322  -12.9054   19.5477 C   0  0  0  0  0  0
  -29.5431  -12.6055   18.3114 C   0  0  0  0  0  0
  -28.0986  -12.3008   18.7393 C   0  0  0  0  0  0
  -27.6055  -13.2886   19.8233 C   0  0  2  0  0  0
  -28.6291  -13.5199   20.9578 C   0  0  0  0  0  0
  -25.2353  -13.8262   20.5768 C   0  0  0  0  0  0
  -24.1719  -13.0431   20.9258 C   0  0  0  0  0  0
  -24.6396  -11.6931   20.8763 C   0  0  0  0  0  0
  -23.9101  -10.4289   21.0405 C   0  0  0  0  0  0
  -24.3645   -9.4204   21.9182 C   0  0  0  0  0  0
  -23.6305   -8.2246   22.0755 C   0  0  0  0  0  0
  -22.4291   -8.0283   21.3538 C   0  0  0  0  0  0
  -21.9932   -9.0258   20.4642 C   0  0  0  0  0  0
  -22.7269  -10.2131   20.3053 C   0  0  0  0  0  0
  -21.6856   -6.0741   22.5272 C   0  0  0  0  0  0
  -21.4009   -6.5640   23.8206 C   0  0  0  0  0  0
  -21.3660   -5.6791   24.9161 C   0  0  0  0  0  0
  -21.6049   -4.3059   24.7210 C   0  0  0  0  0  0
  -21.8821   -3.8149   23.4332 C   0  0  0  0  0  0
  -21.9191   -4.6967   22.3389 C   0  0  0  0  0  0
  -22.7734  -13.5173   21.1888 C   0  0  0  0  0  0
  -22.1661   -4.2154   21.0967 F   0  0  0  0  0  0
  -21.5628   -3.4539   25.7725 F   0  0  0  0  0  0
  -29.8464  -14.0694   20.3325 N   0  0  0  0  0  0
  -26.2791  -12.9560   20.3233 N   0  0  0  0  0  0
  -25.9339  -11.6656   20.5720 N   0  0  0  0  0  0
  -22.0413  -12.8152   22.0459 N   0  0  0  0  0  0
  -25.3985  -15.1996   20.4198 N   0  0  0  0  0  0
  -31.6031  -15.3825   20.0980 O   0  0  0  0  0  0
  -21.6645   -6.8887   21.4238 O   0  0  0  0  0  0
  -22.3408  -14.5474   20.6723 O   0  0  0  0  0  0
  -24.6714  -31.8137   23.1617 C   0  0  0  0  0  0
  -25.9344  -32.4542   23.8117 C   0  0  1  0  0  0
  -27.2160  -26.8236   20.1941 C   0  0  0  0  0  0
  -25.5969  -33.8361   24.2016 N   0  0  0  0  0  0
  -23.4922  -30.4219   21.5113 C   0  0  2  0  0  0
  -24.9471  -28.7914   20.1086 C   0  0  0  0  0  0
  -22.7710  -29.4396   22.4732 C   0  0  0  0  0  0
  -18.0327  -28.1436   22.8483 C   0  0  0  0  0  0
  -24.1471  -36.7182   23.2654 C   0  0  0  0  0  0
  -26.0664  -30.5845   21.4091 C   0  0  0  0  0  0
  -26.1313  -29.1629   20.7569 C   0  0  0  0  0  0
  -27.2535  -28.2016   20.7758 C   0  0  0  0  0  0
  -26.0043  -26.6356   19.4838 C   0  0  0  0  0  0
  -24.9158  -27.5512   19.4510 C   0  0  0  0  0  0
  -23.7389  -29.7327   20.1388 C   0  0  0  0  0  0
  -25.4124  -36.2948   24.0302 C   0  0  1  0  0  0
  -20.5966  -28.3776   23.1171 C   0  0  2  0  0  0
  -20.6813  -26.9452   22.5406 C   0  0  0  0  0  0
  -19.5782  -26.6389   21.5225 C   0  0  0  0  0  0
  -18.1959  -26.7970   22.1621 C   0  0  0  0  0  0
  -19.1596  -28.8926   23.2818 C   0  0  0  0  0  0
  -18.9504  -30.1515   23.8856 C   0  0  0  0  0  0
  -17.6503  -30.6627   24.0558 C   0  0  0  0  0  0
  -25.9109  -34.9337   23.4994 C   0  0  0  0  0  0
  -16.5395  -29.9115   23.6351 C   0  0  0  0  0  0
  -16.7311  -28.6531   23.0384 C   0  0  0  0  0  0
  -26.4564  -31.6538   25.0688 C   0  0  0  0  0  0
  -25.3650  -31.3827   26.1322 C   0  0  0  0  0  0
  -27.0482  -30.2900   24.6497 C   0  0  0  0  0  0
  -27.6048  -32.4362   25.7489 C   0  0  0  0  0  0
  -27.5555  -37.1753   24.8465 C   0  0  0  0  0  0
  -21.4370  -29.3057   22.3506 N   0  0  0  0  0  0
  -26.4251  -37.3708   23.9426 N   0  0  0  0  0  0
  -24.7657  -30.9703   22.0800 N   0  0  0  0  0  0
  -23.4224  -28.7986   23.3004 O   0  0  0  0  0  0
  -28.1774  -25.6512   20.3056 O   0  0  0  0  0  0
  -26.5723  -34.8891   22.4597 O   0  0  0  0  0  0
  -23.5752  -32.1143   23.6639 O   0  0  0  0  0  0
  -28.6887  -21.0071   19.7369 C   0  0  0  0  0  0
  -28.6488  -22.3915   20.3198 C   0  0  0  0  0  0
  -29.6475  -20.6789   21.5785 C   0  0  0  0  0  0
  -28.1523  -20.4380   18.4955 C   0  0  0  0  0  0
  -29.6245  -18.4697   18.4446 C   0  0  0  0  0  0
  -29.8366  -18.3478   19.9859 C   0  0  1  0  0  0
  -30.4012  -20.0882   22.7243 C   0  0  0  0  0  0
  -27.0398  -21.2204   17.8289 C   0  0  0  0  0  0
  -27.9205  -24.0133   19.9456 C   0  0  0  0  0  0
  -29.2856  -22.0168   21.5373 N   0  0  0  0  0  0
  -28.4829  -19.3003   17.9805 N   0  0  0  0  0  0
  -29.3531  -19.8975   20.4962 N   0  0  0  0  0  0
  -29.6351  -16.7139   20.4572 N   0  0  0  0  0  0
  -31.4460  -13.1220   19.2080 H   0  0  0  0  0  0
  -30.5275  -12.0205   20.1788 H   0  0  0  0  0  0
  -29.9500  -11.7686   17.7413 H   0  0  0  0  0  0
  -29.5517  -13.4672   17.6425 H   0  0  0  0  0  0
  -28.0784  -11.2846   19.1367 H   0  0  0  0  0  0
  -27.4311  -12.3061   17.8775 H   0  0  0  0  0  0
  -27.5029  -14.2392   19.2995 H   0  0  0  0  0  0
  -28.8288  -12.6026   21.5131 H   0  0  0  0  0  0
  -28.2381  -14.2390   21.6781 H   0  0  0  0  0  0
  -25.2788   -9.5671   22.4754 H   0  0  0  0  0  0
  -24.0004   -7.4639   22.7485 H   0  0  0  0  0  0
  -21.0858   -8.8776   19.8954 H   0  0  0  0  0  0
  -22.3728  -10.9661   19.6162 H   0  0  0  0  0  0
  -21.2008   -7.6150   23.9700 H   0  0  0  0  0  0
  -21.1478   -6.0524   25.9061 H   0  0  0  0  0  0
  -22.0605   -2.7613   23.2823 H   0  0  0  0  0  0
  -22.4044  -11.9817   22.4835 H   0  0  0  0  0  0
  -21.1030  -13.1147   22.2683 H   0  0  0  0  0  0
  -24.6267  -15.8494   20.5257 H   0  0  0  0  0  0
  -26.2361  -15.6380   20.0589 H   0  0  0  0  0  0
  -26.7428  -32.5048   23.0832 H   0  0  0  0  0  0
  -25.0054  -33.9430   25.0124 H   0  0  0  0  0  0
  -22.8123  -31.2575   21.3334 H   0  0  0  0  0  0
  -23.3757  -35.9473   23.3257 H   0  0  0  0  0  0
  -24.3564  -36.8878   22.2079 H   0  0  0  0  0  0
  -23.7189  -37.6335   23.6748 H   0  0  0  0  0  0
  -26.2581  -31.3159   20.6223 H   0  0  0  0  0  0
  -26.9241  -30.6466   22.0669 H   0  0  0  0  0  0
  -28.1420  -28.4816   21.3237 H   0  0  0  0  0  0
  -25.8546  -25.6935   18.9758 H   0  0  0  0  0  0
  -24.0191  -27.2654   18.9188 H   0  0  0  0  0  0
  -23.9058  -30.4990   19.3803 H   0  0  0  0  0  0
  -22.8445  -29.1961   19.8171 H   0  0  0  0  0  0
  -25.1330  -36.1713   25.0789 H   0  0  0  0  0  0
  -21.0066  -28.3386   24.1287 H   0  0  0  0  0  0
  -20.5690  -26.2402   23.3668 H   0  0  0  0  0  0
  -21.6675  -26.7421   22.1216 H   0  0  0  0  0  0
  -19.6922  -25.6278   21.1299 H   0  0  0  0  0  0
  -19.6707  -27.3175   20.6742 H   0  0  0  0  0  0
  -17.4236  -26.6725   21.4023 H   0  0  0  0  0  0
  -18.0324  -26.0132   22.9032 H   0  0  0  0  0  0
  -19.7977  -30.7351   24.2203 H   0  0  0  0  0  0
  -17.5053  -31.6299   24.5177 H   0  0  0  0  0  0
  -15.5393  -30.3009   23.7712 H   0  0  0  0  0  0
  -15.8709  -28.0841   22.7133 H   0  0  0  0  0  0
  -24.5859  -30.7144   25.7640 H   0  0  0  0  0  0
  -24.8807  -32.3040   26.4565 H   0  0  0  0  0  0
  -25.7856  -30.9118   27.0217 H   0  0  0  0  0  0
  -26.3171  -29.6554   24.1478 H   0  0  0  0  0  0
  -27.3956  -29.7306   25.5190 H   0  0  0  0  0  0
  -27.9129  -30.4080   23.9967 H   0  0  0  0  0  0
  -27.2637  -33.3747   26.1871 H   0  0  0  0  0  0
  -28.3969  -32.6784   25.0394 H   0  0  0  0  0  0
  -28.0587  -31.8603   26.5561 H   0  0  0  0  0  0
  -28.2562  -38.0073   24.7584 H   0  0  0  0  0  0
  -28.1073  -36.2616   24.6202 H   0  0  0  0  0  0
  -27.2300  -37.1291   25.8876 H   0  0  0  0  0  0
  -20.9635  -29.8718   21.6607 H   0  0  0  0  0  0
  -26.0067  -38.2733   24.1492 H   0  0  0  0  0  0
  -29.5309  -17.4729   18.0121 H   0  0  0  0  0  0
  -30.5382  -18.8710   18.0006 H   0  0  0  0  0  0
  -30.9183  -18.4018   20.1227 H   0  0  0  0  0  0
  -30.4829  -20.8024   23.5444 H   0  0  0  0  0  0
  -31.4066  -19.8103   22.4076 H   0  0  0  0  0  0
  -29.8938  -19.1957   23.0919 H   0  0  0  0  0  0
  -26.4900  -21.8226   18.5518 H   0  0  0  0  0  0
  -26.3254  -20.5427   17.3578 H   0  0  0  0  0  0
  -27.4460  -21.8766   17.0586 H   0  0  0  0  0  0
  -26.8698  -23.8926   20.2051 H   0  0  0  0  0  0
  -27.8970  -24.0514   18.8574 H   0  0  0  0  0  0
  -28.6791  -16.5398   20.7304 H   0  0  0  0  0  0
  1 25  1  0  0  0
  1 30  2  0  0  0
  1 83  1  0  0  0
  2  3  1  0  0  0
  2 25  1  0  0  0
  2 84  1  0  0  0
  2 85  1  0  0  0
  3  4  1  0  0  0
  3 86  1  0  0  0
  3 87  1  0  0  0
  4  5  1  0  0  0
  4 88  1  0  0  0
  4 89  1  0  0  0
  5  6  1  0  0  0
  5 26  1  0  0  0
  5 90  1  0  0  0
  6 25  1  0  0  0
  6 91  1  0  0  0
  6 92  1  0  0  0
  7  8  2  0  0  0
  7 26  1  0  0  0
  7 29  1  0  0  0
  8  9  1  0  0  0
  8 22  1  0  0  0
  9 10  1  0  0  0
  9 27  2  0  0  0
 10 11  2  0  0  0
 10 15  1  0  0  0
 11 12  1  0  0  0
 11 93  1  0  0  0
 12 13  2  0  0  0
 12 94  1  0  0  0
 13 14  1  0  0  0
 13 31  1  0  0  0
 14 15  2  0  0  0
 14 95  1  0  0  0
 15 96  1  0  0  0
 16 17  2  0  0  0
 16 21  1  0  0  0
 16 31  1  0  0  0
 17 18  1  0  0  0
 17 97  1  0  0  0
 18 19  2  0  0  0
 18 98  1  0  0  0
 19 20  1  0  0  0
 19 24  1  0  0  0
 20 21  2  0  0  0
 20 99  1  0  0  0
 21 23  1  0  0  0
 22 28  1  0  0  0
 22 32  2  0  0  0
 26 27  1  0  0  0
 28100  1  0  0  0
 28101  1  0  0  0
 29102  1  0  0  0
 29103  1  0  0  0
 33 34  1  0  0  0
 33 66  1  0  0  0
 33 70  2  0  0  0
 34 36  1  0  0  0
 34 59  1  0  0  0
 34104  1  0  0  0
 35 44  2  0  0  0
 35 45  1  0  0  0
 35 68  1  0  0  0
 36 56  1  0  0  0
 36105  1  0  0  0
 37 39  1  0  0  0
 37 47  1  0  0  0
 37 66  1  0  0  0
 37106  1  0  0  0
 38 43  2  0  0  0
 38 46  1  0  0  0
 38 47  1  0  0  0
 39 64  1  0  0  0
 39 67  2  0  0  0
 40 52  1  0  0  0
 40 53  2  0  0  0
 40 58  1  0  0  0
 41107  1  0  0  0
 41108  1  0  0  0
 41109  1  0  0  0
 41 48  1  0  0  0
 42 43  1  0  0  0
 42 66  1  0  0  0
 42110  1  0  0  0
 42111  1  0  0  0
 43 44  1  0  0  0
 44112  1  0  0  0
 45 46  2  0  0  0
 45113  1  0  0  0
 46114  1  0  0  0
 47115  1  0  0  0
 47116  1  0  0  0
 48 56  1  0  0  0
 48 65  1  0  0  0
 48117  1  0  0  0
 49 50  1  0  0  0
 49 53  1  0  0  0
 49 64  1  0  0  0
 49118  1  0  0  0
 50 51  1  0  0  0
 50119  1  0  0  0
 50120  1  0  0  0
 51 52  1  0  0  0
 51121  1  0  0  0
 51122  1  0  0  0
 52123  1  0  0  0
 52124  1  0  0  0
 53 54  1  0  0  0
 54 55  2  0  0  0
 54125  1  0  0  0
 55 57  1  0  0  0
 55126  1  0  0  0
 56 69  2  0  0  0
 57 58  2  0  0  0
 57127  1  0  0  0
 58128  1  0  0  0
 59 60  1  0  0  0
 59 61  1  0  0  0
 59 62  1  0  0  0
 60129  1  0  0  0
 60130  1  0  0  0
 60131  1  0  0  0
 61132  1  0  0  0
 61133  1  0  0  0
 61134  1  0  0  0
 62135  1  0  0  0
 62136  1  0  0  0
 62137  1  0  0  0
 63 65  1  0  0  0
 63138  1  0  0  0
 63139  1  0  0  0
 63140  1  0  0  0
 64141  1  0  0  0
 65142  1  0  0  0
 68 79  1  0  0  0
 71 72  2  0  0  0
 71 74  1  0  0  0
 71 82  1  0  0  0
 72 79  1  0  0  0
 72 80  1  0  0  0
 73 77  1  0  0  0
 73 80  2  0  0  0
 73 82  1  0  0  0
 74 78  1  0  0  0
 74 81  2  0  0  0
 75 76  1  0  0  0
 75 81  1  0  0  0
 75143  1  0  0  0
 75144  1  0  0  0
 76 82  1  0  0  0
 76 83  1  0  0  0
 76145  1  0  0  0
 77146  1  0  0  0
 77147  1  0  0  0
 77148  1  0  0  0
 78149  1  0  0  0
 78150  1  0  0  0
 78151  1  0  0  0
 79152  1  0  0  0
 79153  1  0  0  0
 83154  1  0  0  0
M  ISO  4   1 100  68 101  79 101  83 100
M  END
> <chiral flag>
0

> <version>
0

> <s_m_source_file>
/data/baiqing/PycharmProjects/Reinvent-master-3.2/result/LINK_invent/BTK/process_docking_weight1_custom_sum_contain_oxygen_bond_distance_aromatic_linkinvent_7_9_3/rearranged_h_0183.sdf

> <i_m_source_file_index>
70

> <r_mmod_Potential_Energy-OPLS-2005>
1611.82263183594

> <r_mmod_Stretch_Energy-OPLS-2005>
717.206848144531

> <r_mmod_Bend_Energy-OPLS-2005>
552.85107421875

> <r_mmod_Torsional_Energy-OPLS-2005>
251.390655517578

> <r_mmod_Improper_Torsional_Energy-OPLS-2005>
8.15814304351807

> <r_mmod_Van_der_Waal_Energy-OPLS-2005>
113.148063659668

> <r_mmod_Electrostatic_Energy-OPLS-2005>
-412.467987060547

> <r_mmod_Solvation_Energy-OPLS-2005>
-242.666061401367

> <b_mmod_Minimization_Converged-OPLS-2005>
0

> <r_mmod_RMS_Derivative-OPLS-2005>
2.61070919036865

$$$$
71
                    3D
 Structure written by MMmdl.
161169  0  0  1  0            999 V2000
  -30.6307  -14.6141   20.5582 C   0  0  0  0  0  0
  -30.4457  -12.3770   19.4745 C   0  0  0  0  0  0
  -29.5218  -12.5305   18.2442 C   0  0  0  0  0  0
  -28.0473  -12.3539   18.6502 C   0  0  0  0  0  0
  -27.6666  -13.2132   19.8847 C   0  0  2  0  0  0
  -28.7031  -13.0353   21.0216 C   0  0  0  0  0  0
  -25.2601  -13.8160   20.5622 C   0  0  0  0  0  0
  -24.1840  -13.0427   20.9101 C   0  0  0  0  0  0
  -24.6407  -11.6897   20.8643 C   0  0  0  0  0  0
  -23.9050  -10.4290   21.0355 C   0  0  0  0  0  0
  -24.3602   -9.4200   21.9120 C   0  0  0  0  0  0
  -23.6276   -8.2240   22.0707 C   0  0  0  0  0  0
  -22.4242   -8.0284   21.3512 C   0  0  0  0  0  0
  -21.9884   -9.0239   20.4601 C   0  0  0  0  0  0
  -22.7235  -10.2120   20.2996 C   0  0  0  0  0  0
  -21.6834   -6.0748   22.5269 C   0  0  0  0  0  0
  -21.4011   -6.5661   23.8216 C   0  0  0  0  0  0
  -21.3652   -5.6817   24.9160 C   0  0  0  0  0  0
  -21.6033   -4.3071   24.7224 C   0  0  0  0  0  0
  -21.8820   -3.8165   23.4349 C   0  0  0  0  0  0
  -21.9193   -4.6983   22.3400 C   0  0  0  0  0  0
  -22.7892  -13.5229   21.1835 C   0  0  0  0  0  0
  -22.1645   -4.2142   21.0983 F   0  0  0  0  0  0
  -21.5615   -3.4574   25.7748 F   0  0  0  0  0  0
  -30.0324  -13.3807   20.4830 N   0  0  0  0  0  0
  -26.3051  -12.9342   20.3351 N   0  0  0  0  0  0
  -25.9345  -11.6481   20.5708 N   0  0  0  0  0  0
  -22.0592  -12.8162   22.0424 N   0  0  0  0  0  0
  -25.4405  -15.1844   20.4026 N   0  0  0  0  0  0
  -31.7351  -14.8221   20.0474 O   0  0  0  0  0  0
  -21.6607   -6.8884   21.4236 O   0  0  0  0  0  0
  -22.3591  -14.5596   20.6810 O   0  0  0  0  0  0
  -24.6247  -31.8631   23.2008 C   0  0  0  0  0  0
  -25.9120  -32.4812   23.8340 C   0  0  1  0  0  0
  -27.2297  -27.3494   20.1330 C   0  0  0  0  0  0
  -25.5969  -33.8609   24.2282 N   0  0  0  0  0  0
  -23.4151  -30.4863   21.5432 C   0  0  2  0  0  0
  -24.8630  -28.9412   20.1100 C   0  0  0  0  0  0
  -22.7469  -29.4649   22.4937 C   0  0  0  0  0  0
  -18.0285  -28.1389   22.8500 C   0  0  0  0  0  0
  -24.1471  -36.7302   23.2637 C   0  0  0  0  0  0
  -25.9535  -30.8086   21.3617 C   0  0  0  0  0  0
  -26.0284  -29.4351   20.7114 C   0  0  0  0  0  0
  -27.2187  -28.6548   20.7025 C   0  0  0  0  0  0
  -26.0503  -26.9009   19.5015 C   0  0  0  0  0  0
  -24.8763  -27.6807   19.4876 C   0  0  0  0  0  0
  -23.6268  -29.8129   20.1593 C   0  0  0  0  0  0
  -25.4107  -36.3126   24.0331 C   0  0  1  0  0  0
  -20.5891  -28.3697   23.1301 C   0  0  2  0  0  0
  -20.6784  -26.9426   22.5416 C   0  0  0  0  0  0
  -19.5746  -26.6392   21.5231 C   0  0  0  0  0  0
  -18.1920  -26.7938   22.1628 C   0  0  0  0  0  0
  -19.1539  -28.8852   23.2892 C   0  0  0  0  0  0
  -18.9460  -30.1468   23.8904 C   0  0  0  0  0  0
  -17.6460  -30.6590   24.0566 C   0  0  0  0  0  0
  -25.9055  -34.9499   23.5097 C   0  0  0  0  0  0
  -16.5351  -29.9096   23.6324 C   0  0  0  0  0  0
  -16.7275  -28.6505   23.0349 C   0  0  0  0  0  0
  -26.4491  -31.6626   25.0700 C   0  0  0  0  0  0
  -25.3706  -31.3775   26.1396 C   0  0  0  0  0  0
  -27.0329  -30.3074   24.6125 C   0  0  0  0  0  0
  -27.6065  -32.4327   25.7469 C   0  0  0  0  0  0
  -27.5566  -37.1811   24.8458 C   0  0  0  0  0  0
  -21.4184  -29.3058   22.3707 N   0  0  0  0  0  0
  -26.4279  -37.3829   23.9413 N   0  0  0  0  0  0
  -24.6834  -31.0685   22.0930 N   0  0  0  0  0  0
  -23.4213  -28.8187   23.3000 O   0  0  0  0  0  0
  -28.3608  -26.5319   20.1574 O   0  0  0  0  0  0
  -26.5581  -34.8970   22.4631 O   0  0  0  0  0  0
  -23.5432  -32.1360   23.7408 O   0  0  0  0  0  0
  -30.2466  -21.7834   20.1929 C   0  0  0  0  0  0
  -28.1720  -21.6667   20.6243 C   0  0  0  0  0  0
  -29.2637  -20.5858   20.3268 C   0  0  0  0  0  0
  -28.4898  -23.8441   18.5158 C   0  0  0  0  0  0
  -29.5874  -17.0957   19.0508 C   0  0  0  0  0  0
  -30.3094  -18.2888   21.2267 C   0  0  0  0  0  0
  -28.2107  -25.1584   20.6776 C   0  0  0  0  0  0
  -29.0390  -24.0207   19.9458 C   0  0  1  0  0  0
  -29.5539  -17.0356   20.5905 C   0  0  2  0  0  0
  -29.2076  -22.7146   20.6915 N   0  0  0  0  0  0
  -29.8635  -15.6278   21.0683 N   0  0  0  0  0  0
  -29.5084  -19.5733   21.4335 N   0  3  0  0  0  0
  -31.4915  -12.4879   19.1793 H   0  0  0  0  0  0
  -30.3602  -11.3707   19.8870 H   0  0  0  0  0  0
  -29.7887  -11.8075   17.4718 H   0  0  0  0  0  0
  -29.6654  -13.5208   17.8098 H   0  0  0  0  0  0
  -27.8966  -11.2988   18.8797 H   0  0  0  0  0  0
  -27.3899  -12.5809   17.8119 H   0  0  0  0  0  0
  -27.6978  -14.2538   19.5603 H   0  0  0  0  0  0
  -28.7036  -12.0017   21.3736 H   0  0  0  0  0  0
  -28.4380  -13.6378   21.8909 H   0  0  0  0  0  0
  -25.2771   -9.5650   22.4659 H   0  0  0  0  0  0
  -23.9981   -7.4610   22.7404 H   0  0  0  0  0  0
  -21.0820   -8.8765   19.8875 H   0  0  0  0  0  0
  -22.3718  -10.9626   19.6064 H   0  0  0  0  0  0
  -21.2005   -7.6178   23.9704 H   0  0  0  0  0  0
  -21.1473   -6.0552   25.9057 H   0  0  0  0  0  0
  -22.0614   -2.7636   23.2857 H   0  0  0  0  0  0
  -22.4229  -11.9753   22.4677 H   0  0  0  0  0  0
  -21.1271  -13.1208   22.2821 H   0  0  0  0  0  0
  -24.6820  -15.8494   20.4915 H   0  0  0  0  0  0
  -26.2980  -15.6040   20.0665 H   0  0  0  0  0  0
  -26.7194  -32.5477   23.1121 H   0  0  0  0  0  0
  -25.0251  -33.9739   25.0522 H   0  0  0  0  0  0
  -22.7100  -31.3075   21.4008 H   0  0  0  0  0  0
  -23.3761  -35.9599   23.3296 H   0  0  0  0  0  0
  -24.3559  -36.8897   22.2043 H   0  0  0  0  0  0
  -23.7182  -37.6503   23.6630 H   0  0  0  0  0  0
  -26.0733  -31.5677   20.5874 H   0  0  0  0  0  0
  -26.8416  -30.8679   21.9804 H   0  0  0  0  0  0
  -28.1189  -29.0413   21.1591 H   0  0  0  0  0  0
  -26.0341  -25.9373   19.0135 H   0  0  0  0  0  0
  -23.9859  -27.3062   18.9979 H   0  0  0  0  0  0
  -23.7353  -30.5814   19.3931 H   0  0  0  0  0  0
  -22.7511  -29.2286   19.8679 H   0  0  0  0  0  0
  -25.1294  -36.1980   25.0827 H   0  0  0  0  0  0
  -20.9988  -28.3267   24.1420 H   0  0  0  0  0  0
  -20.5718  -26.2313   23.3616 H   0  0  0  0  0  0
  -21.6646  -26.7462   22.1197 H   0  0  0  0  0  0
  -19.6896  -25.6298   21.1254 H   0  0  0  0  0  0
  -19.6683  -27.3203   20.6759 H   0  0  0  0  0  0
  -17.4217  -26.6722   21.4004 H   0  0  0  0  0  0
  -18.0286  -26.0069   22.8999 H   0  0  0  0  0  0
  -19.7928  -30.7290   24.2274 H   0  0  0  0  0  0
  -17.5002  -31.6263   24.5180 H   0  0  0  0  0  0
  -15.5345  -30.2999   23.7651 H   0  0  0  0  0  0
  -15.8669  -28.0834   22.7066 H   0  0  0  0  0  0
  -24.5905  -30.7112   25.7704 H   0  0  0  0  0  0
  -24.8866  -32.2957   26.4746 H   0  0  0  0  0  0
  -25.7987  -30.8988   27.0215 H   0  0  0  0  0  0
  -26.2898  -29.6844   24.1145 H   0  0  0  0  0  0
  -27.4080  -29.7310   25.4599 H   0  0  0  0  0  0
  -27.8741  -30.4401   23.9312 H   0  0  0  0  0  0
  -27.2719  -33.3663   26.2010 H   0  0  0  0  0  0
  -28.3915  -32.6817   25.0307 H   0  0  0  0  0  0
  -28.0704  -31.8454   26.5414 H   0  0  0  0  0  0
  -28.2625  -38.0083   24.7550 H   0  0  0  0  0  0
  -28.1032  -36.2635   24.6242 H   0  0  0  0  0  0
  -27.2285  -37.1398   25.8862 H   0  0  0  0  0  0
  -20.9374  -29.8789   21.6921 H   0  0  0  0  0  0
  -26.0167  -38.2909   24.1429 H   0  0  0  0  0  0
  -30.5213  -22.0056   19.1618 H   0  0  0  0  0  0
  -31.1128  -21.7722   20.8556 H   0  0  0  0  0  0
  -27.6665  -21.5843   21.5879 H   0  0  0  0  0  0
  -27.4751  -21.8291   19.8025 H   0  0  0  0  0  0
  -29.0601  -20.1079   19.3716 H   0  0  0  0  0  0
  -28.6066  -24.7730   17.9531 H   0  0  0  0  0  0
  -27.4232  -23.6178   18.5185 H   0  0  0  0  0  0
  -28.9991  -23.0633   17.9546 H   0  0  0  0  0  0
  -29.1703  -18.0294   18.6766 H   0  0  0  0  0  0
  -29.0048  -16.2861   18.6130 H   0  0  0  0  0  0
  -30.6031  -17.0182   18.6602 H   0  0  0  0  0  0
  -31.2092  -18.5226   20.6579 H   0  0  0  0  0  0
  -30.6736  -17.9969   22.2121 H   0  0  0  0  0  0
  -28.5271  -25.1933   21.7218 H   0  0  0  0  0  0
  -27.1644  -24.8574   20.7148 H   0  0  0  0  0  0
  -30.0525  -24.4177   19.8546 H   0  0  0  0  0  0
  -28.5075  -17.1395   20.8776 H   0  0  0  0  0  0
  -29.1254  -15.2595   21.6532 H   0  0  0  0  0  0
  -28.6153  -19.2861   21.7969 H   0  0  0  0  0  0
  -29.9546  -20.0660   22.1900 H   0  0  0  0  0  0
  1 25  1  0  0  0
  1 30  2  0  0  0
  1 81  1  0  0  0
  2  3  1  0  0  0
  2 25  1  0  0  0
  2 83  1  0  0  0
  2 84  1  0  0  0
  3  4  1  0  0  0
  3 85  1  0  0  0
  3 86  1  0  0  0
  4  5  1  0  0  0
  4 87  1  0  0  0
  4 88  1  0  0  0
  5  6  1  0  0  0
  5 26  1  0  0  0
  5 89  1  0  0  0
  6 25  1  0  0  0
  6 90  1  0  0  0
  6 91  1  0  0  0
  7  8  2  0  0  0
  7 26  1  0  0  0
  7 29  1  0  0  0
  8  9  1  0  0  0
  8 22  1  0  0  0
  9 10  1  0  0  0
  9 27  2  0  0  0
 10 11  2  0  0  0
 10 15  1  0  0  0
 11 12  1  0  0  0
 11 92  1  0  0  0
 12 13  2  0  0  0
 12 93  1  0  0  0
 13 14  1  0  0  0
 13 31  1  0  0  0
 14 15  2  0  0  0
 14 94  1  0  0  0
 15 95  1  0  0  0
 16 17  2  0  0  0
 16 21  1  0  0  0
 16 31  1  0  0  0
 17 18  1  0  0  0
 17 96  1  0  0  0
 18 19  2  0  0  0
 18 97  1  0  0  0
 19 20  1  0  0  0
 19 24  1  0  0  0
 20 21  2  0  0  0
 20 98  1  0  0  0
 21 23  1  0  0  0
 22 28  1  0  0  0
 22 32  2  0  0  0
 26 27  1  0  0  0
 28 99  1  0  0  0
 28100  1  0  0  0
 29101  1  0  0  0
 29102  1  0  0  0
 33 34  1  0  0  0
 33 66  1  0  0  0
 33 70  2  0  0  0
 34 36  1  0  0  0
 34 59  1  0  0  0
 34103  1  0  0  0
 35 44  2  0  0  0
 35 45  1  0  0  0
 35 68  1  0  0  0
 36 56  1  0  0  0
 36104  1  0  0  0
 37 39  1  0  0  0
 37 47  1  0  0  0
 37 66  1  0  0  0
 37105  1  0  0  0
 38 43  2  0  0  0
 38 46  1  0  0  0
 38 47  1  0  0  0
 39 64  1  0  0  0
 39 67  2  0  0  0
 40 52  1  0  0  0
 40 53  2  0  0  0
 40 58  1  0  0  0
 41106  1  0  0  0
 41107  1  0  0  0
 41108  1  0  0  0
 41 48  1  0  0  0
 42 43  1  0  0  0
 42 66  1  0  0  0
 42109  1  0  0  0
 42110  1  0  0  0
 43 44  1  0  0  0
 44111  1  0  0  0
 45 46  2  0  0  0
 45112  1  0  0  0
 46113  1  0  0  0
 47114  1  0  0  0
 47115  1  0  0  0
 48 56  1  0  0  0
 48 65  1  0  0  0
 48116  1  0  0  0
 49 50  1  0  0  0
 49 53  1  0  0  0
 49 64  1  0  0  0
 49117  1  0  0  0
 50 51  1  0  0  0
 50118  1  0  0  0
 50119  1  0  0  0
 51 52  1  0  0  0
 51120  1  0  0  0
 51121  1  0  0  0
 52122  1  0  0  0
 52123  1  0  0  0
 53 54  1  0  0  0
 54 55  2  0  0  0
 54124  1  0  0  0
 55 57  1  0  0  0
 55125  1  0  0  0
 56 69  2  0  0  0
 57 58  2  0  0  0
 57126  1  0  0  0
 58127  1  0  0  0
 59 60  1  0  0  0
 59 61  1  0  0  0
 59 62  1  0  0  0
 60128  1  0  0  0
 60129  1  0  0  0
 60130  1  0  0  0
 61131  1  0  0  0
 61132  1  0  0  0
 61133  1  0  0  0
 62134  1  0  0  0
 62135  1  0  0  0
 62136  1  0  0  0
 63 65  1  0  0  0
 63137  1  0  0  0
 63138  1  0  0  0
 63139  1  0  0  0
 64140  1  0  0  0
 65141  1  0  0  0
 68 77  1  0  0  0
 71 73  1  0  0  0
 71 80  1  0  0  0
 71142  1  0  0  0
 71143  1  0  0  0
 72 73  1  0  0  0
 72 80  1  0  0  0
 72144  1  0  0  0
 72145  1  0  0  0
 73 82  1  0  0  0
 73146  1  0  0  0
 74147  1  0  0  0
 74148  1  0  0  0
 74149  1  0  0  0
 74 78  1  0  0  0
 75150  1  0  0  0
 75151  1  0  0  0
 75152  1  0  0  0
 75 79  1  0  0  0
 76 79  1  0  0  0
 76 82  1  0  0  0
 76153  1  0  0  0
 76154  1  0  0  0
 77 78  1  0  0  0
 77155  1  0  0  0
 77156  1  0  0  0
 78 80  1  0  0  0
 78157  1  0  0  0
 79 81  1  0  0  0
 79158  1  0  0  0
 81159  1  0  0  0
 82160  1  0  0  0
 82161  1  0  0  0
M  CHG  1  82   1
M  ISO  4   1 100  68 101  77 101  81 100
M  END
> <chiral flag>
0

> <version>
0

> <s_m_source_file>
/data/baiqing/PycharmProjects/Reinvent-master-3.2/result/LINK_invent/BTK/process_docking_weight1_custom_sum_contain_oxygen_bond_distance_aromatic_linkinvent_7_9_3/rearranged_h_0183.sdf

> <i_m_source_file_index>
71

> <r_mmod_Potential_Energy-OPLS-2005>
-82.5754776000977

> <r_mmod_Stretch_Energy-OPLS-2005>
80.830680847168

> <r_mmod_Bend_Energy-OPLS-2005>
181.662658691406

> <r_mmod_Torsional_Energy-OPLS-2005>
285.99267578125

> <r_mmod_Improper_Torsional_Energy-OPLS-2005>
5.78750085830688

> <r_mmod_Van_der_Waal_Energy-OPLS-2005>
119.078681945801

> <r_mmod_Electrostatic_Energy-OPLS-2005>
-304.472839355469

> <r_mmod_Solvation_Energy-OPLS-2005>
-489.132446289062

> <b_mmod_Minimization_Converged-OPLS-2005>
0

> <r_mmod_RMS_Derivative-OPLS-2005>
4.23443651199341

$$$$
72
                    3D
 Structure written by MMmdl.
160169  0  0  1  0            999 V2000
  -30.5929  -14.7331   20.4478 C   0  0  0  0  0  0
  -30.4325  -12.4452   19.4690 C   0  0  0  0  0  0
  -29.5103  -12.5015   18.2316 C   0  0  0  0  0  0
  -28.0328  -12.3311   18.6415 C   0  0  0  0  0  0
  -27.6409  -13.2263   19.8479 C   0  0  2  0  0  0
  -28.6842  -13.1492   20.9822 C   0  0  0  0  0  0
  -25.2523  -13.8199   20.5669 C   0  0  0  0  0  0
  -24.1811  -13.0457   20.9200 C   0  0  0  0  0  0
  -24.6389  -11.6927   20.8739 C   0  0  0  0  0  0
  -23.9074  -10.4307   21.0412 C   0  0  0  0  0  0
  -24.3639   -9.4232   21.9190 C   0  0  0  0  0  0
  -23.6315   -8.2268   22.0753 C   0  0  0  0  0  0
  -22.4292   -8.0298   21.3554 C   0  0  0  0  0  0
  -21.9930   -9.0265   20.4652 C   0  0  0  0  0  0
  -22.7253  -10.2147   20.3059 C   0  0  0  0  0  0
  -21.6863   -6.0748   22.5275 C   0  0  0  0  0  0
  -21.4022   -6.5647   23.8212 C   0  0  0  0  0  0
  -21.3667   -5.6798   24.9172 C   0  0  0  0  0  0
  -21.6036   -4.3053   24.7219 C   0  0  0  0  0  0
  -21.8817   -3.8153   23.4337 C   0  0  0  0  0  0
  -21.9204   -4.6971   22.3396 C   0  0  0  0  0  0
  -22.7843  -13.5254   21.1853 C   0  0  0  0  0  0
  -22.1671   -4.2163   21.0974 F   0  0  0  0  0  0
  -21.5633   -3.4533   25.7728 F   0  0  0  0  0  0
  -29.9839  -13.5027   20.4009 N   0  0  0  0  0  0
  -26.2934  -12.9386   20.3248 N   0  0  0  0  0  0
  -25.9314  -11.6533   20.5743 N   0  0  0  0  0  0
  -22.0495  -12.8242   22.0405 N   0  0  0  0  0  0
  -25.4207  -15.1926   20.4075 N   0  0  0  0  0  0
  -31.7819  -14.8462   20.1362 O   0  0  0  0  0  0
  -21.6654   -6.8892   21.4240 O   0  0  0  0  0  0
  -22.3526  -14.5554   20.6678 O   0  0  0  0  0  0
  -24.6300  -31.8548   23.1964 C   0  0  0  0  0  0
  -25.9119  -32.4752   23.8319 C   0  0  1  0  0  0
  -27.2263  -27.2764   20.1303 C   0  0  0  0  0  0
  -25.5908  -33.8550   24.2250 N   0  0  0  0  0  0
  -23.4264  -30.4755   21.5401 C   0  0  2  0  0  0
  -24.8733  -28.9128   20.1168 C   0  0  0  0  0  0
  -22.7489  -29.4608   22.4920 C   0  0  0  0  0  0
  -18.0287  -28.1387   22.8495 C   0  0  0  0  0  0
  -24.1483  -36.7297   23.2643 C   0  0  0  0  0  0
  -25.9699  -30.7739   21.3688 C   0  0  0  0  0  0
  -26.0442  -29.3939   20.7176 C   0  0  0  0  0  0
  -27.2262  -28.5899   20.7054 C   0  0  0  0  0  0
  -26.0321  -26.8445   19.5194 C   0  0  0  0  0  0
  -24.8703  -27.6447   19.5099 C   0  0  0  0  0  0
  -23.6436  -29.7997   20.1595 C   0  0  0  0  0  0
  -25.4103  -36.3078   24.0339 C   0  0  1  0  0  0
  -20.5895  -28.3696   23.1278 C   0  0  2  0  0  0
  -20.6778  -26.9409   22.5412 C   0  0  0  0  0  0
  -19.5749  -26.6385   21.5220 C   0  0  0  0  0  0
  -18.1931  -26.7937   22.1630 C   0  0  0  0  0  0
  -19.1542  -28.8855   23.2890 C   0  0  0  0  0  0
  -18.9464  -30.1458   23.8908 C   0  0  0  0  0  0
  -17.6462  -30.6591   24.0568 C   0  0  0  0  0  0
  -25.9042  -34.9445   23.5105 C   0  0  0  0  0  0
  -16.5353  -29.9092   23.6319 C   0  0  0  0  0  0
  -16.7277  -28.6505   23.0353 C   0  0  0  0  0  0
  -26.4480  -31.6581   25.0709 C   0  0  0  0  0  0
  -25.3697  -31.3746   26.1428 C   0  0  0  0  0  0
  -27.0323  -30.3001   24.6185 C   0  0  0  0  0  0
  -27.6036  -32.4317   25.7483 C   0  0  0  0  0  0
  -27.5577  -37.1799   24.8459 C   0  0  0  0  0  0
  -21.4199  -29.3049   22.3663 N   0  0  0  0  0  0
  -26.4282  -37.3771   23.9413 N   0  0  0  0  0  0
  -24.6955  -31.0523   22.0926 N   0  0  0  0  0  0
  -23.4190  -28.8151   23.3022 O   0  0  0  0  0  0
  -28.3535  -26.4342   20.1085 O   0  0  0  0  0  0
  -26.5631  -34.8931   22.4682 O   0  0  0  0  0  0
  -23.5448  -32.1358   23.7264 O   0  0  0  0  0  0
  -28.5347  -21.0597   20.0162 C   0  0  0  0  0  0
  -30.4003  -22.0584   20.6370 C   0  0  0  0  0  0
  -29.1005  -22.3386   20.0978 C   0  0  0  0  0  0
  -30.5767  -20.6945   20.8019 C   0  0  0  0  0  0
  -31.5216  -22.9808   20.9661 C   0  0  0  0  0  0
  -31.8147  -20.0143   21.3086 C   0  0  0  0  0  0
  -32.6908  -22.3959   21.7611 C   0  0  0  0  0  0
  -33.0319  -20.9549   21.3362 C   0  0  0  0  0  0
  -28.5647  -23.7675   19.5995 C   0  0  0  0  0  0
  -29.0770  -18.5111   20.5282 C   0  0  0  0  0  0
  -30.1971  -17.3299   20.5013 C   0  0  0  0  0  0
  -28.2723  -25.0135   20.5842 C   0  0  0  0  0  0
  -29.4128  -20.0148   20.4320 N   0  0  0  0  0  0
  -29.8007  -15.8564   20.6286 N   0  0  0  0  0  0
  -31.5215  -24.1729   20.6534 O   0  0  0  0  0  0
  -31.4741  -12.5762   19.1687 H   0  0  0  0  0  0
  -30.3804  -11.4669   19.9489 H   0  0  0  0  0  0
  -29.7880  -11.7288   17.5132 H   0  0  0  0  0  0
  -29.6403  -13.4568   17.7204 H   0  0  0  0  0  0
  -27.8807  -11.2814   18.8933 H   0  0  0  0  0  0
  -27.3810  -12.5357   17.7912 H   0  0  0  0  0  0
  -27.6383  -14.2496   19.4720 H   0  0  0  0  0  0
  -28.7189  -12.1471   21.4118 H   0  0  0  0  0  0
  -28.4197  -13.8242   21.7990 H   0  0  0  0  0  0
  -25.2800   -9.5710   22.4752 H   0  0  0  0  0  0
  -24.0036   -7.4659   22.7459 H   0  0  0  0  0  0
  -21.0872   -8.8782   19.8950 H   0  0  0  0  0  0
  -22.3726  -10.9683   19.6158 H   0  0  0  0  0  0
  -21.1999   -7.6154   23.9719 H   0  0  0  0  0  0
  -21.1502   -6.0526   25.9083 H   0  0  0  0  0  0
  -22.0586   -2.7610   23.2831 H   0  0  0  0  0  0
  -22.4142  -11.9931   22.4819 H   0  0  0  0  0  0
  -21.1095  -13.1219   22.2571 H   0  0  0  0  0  0
  -24.6457  -15.8387   20.5116 H   0  0  0  0  0  0
  -26.2521  -15.6317   20.0332 H   0  0  0  0  0  0
  -26.7192  -32.5416   23.1071 H   0  0  0  0  0  0
  -25.0013  -33.9676   25.0365 H   0  0  0  0  0  0
  -22.7240  -31.2984   21.3904 H   0  0  0  0  0  0
  -23.3747  -35.9625   23.3287 H   0  0  0  0  0  0
  -24.3574  -36.8930   22.2060 H   0  0  0  0  0  0
  -23.7232  -37.6496   23.6668 H   0  0  0  0  0  0
  -26.0986  -31.5292   20.5921 H   0  0  0  0  0  0
  -26.8520  -30.8323   21.9952 H   0  0  0  0  0  0
  -28.1322  -28.9595   21.1652 H   0  0  0  0  0  0
  -25.9943  -25.8724   19.0471 H   0  0  0  0  0  0
  -23.9696  -27.2705   19.0422 H   0  0  0  0  0  0
  -23.7682  -30.5712   19.3994 H   0  0  0  0  0  0
  -22.7619  -29.2310   19.8577 H   0  0  0  0  0  0
  -25.1281  -36.1932   25.0833 H   0  0  0  0  0  0
  -21.0004  -28.3277   24.1395 H   0  0  0  0  0  0
  -20.5678  -26.2300   23.3620 H   0  0  0  0  0  0
  -21.6644  -26.7434   22.1202 H   0  0  0  0  0  0
  -19.6904  -25.6294   21.1248 H   0  0  0  0  0  0
  -19.6693  -27.3196   20.6755 H   0  0  0  0  0  0
  -17.4203  -26.6697   21.4034 H   0  0  0  0  0  0
  -18.0326  -26.0079   22.9025 H   0  0  0  0  0  0
  -19.7936  -30.7276   24.2288 H   0  0  0  0  0  0
  -17.5011  -31.6271   24.5169 H   0  0  0  0  0  0
  -15.5351  -30.3001   23.7631 H   0  0  0  0  0  0
  -15.8684  -28.0826   22.7067 H   0  0  0  0  0  0
  -24.5852  -30.7123   25.7746 H   0  0  0  0  0  0
  -24.8910  -32.2929   26.4848 H   0  0  0  0  0  0
  -25.7994  -30.8908   27.0210 H   0  0  0  0  0  0
  -26.2910  -29.6759   24.1182 H   0  0  0  0  0  0
  -27.3984  -29.7252   25.4702 H   0  0  0  0  0  0
  -27.8790  -30.4282   23.9436 H   0  0  0  0  0  0
  -27.2641  -33.3610   26.2074 H   0  0  0  0  0  0
  -28.3839  -32.6892   25.0308 H   0  0  0  0  0  0
  -28.0718  -31.8437   26.5389 H   0  0  0  0  0  0
  -28.2589  -38.0102   24.7511 H   0  0  0  0  0  0
  -28.1086  -36.2638   24.6272 H   0  0  0  0  0  0
  -27.2307  -37.1431   25.8865 H   0  0  0  0  0  0
  -20.9377  -29.8756   21.6858 H   0  0  0  0  0  0
  -26.0174  -38.2846   24.1416 H   0  0  0  0  0  0
  -27.5493  -20.7853   19.6588 H   0  0  0  0  0  0
  -32.0819  -19.1711   20.6743 H   0  0  0  0  0  0
  -31.6236  -19.6249   22.3103 H   0  0  0  0  0  0
  -32.4232  -22.4260   22.8162 H   0  0  0  0  0  0
  -33.5627  -23.0383   21.6358 H   0  0  0  0  0  0
  -33.4533  -20.9978   20.3303 H   0  0  0  0  0  0
  -33.8141  -20.5409   21.9728 H   0  0  0  0  0  0
  -27.6737  -23.5974   18.9943 H   0  0  0  0  0  0
  -29.3132  -24.1122   18.8862 H   0  0  0  0  0  0
  -28.5051  -18.3957   21.4489 H   0  0  0  0  0  0
  -28.3651  -18.3037   19.7291 H   0  0  0  0  0  0
  -30.8854  -17.4892   21.3282 H   0  0  0  0  0  0
  -30.7800  -17.4349   19.5852 H   0  0  0  0  0  0
  -29.0234  -24.9682   21.3718 H   0  0  0  0  0  0
  -27.3262  -24.8451   21.1003 H   0  0  0  0  0  0
  -28.8344  -15.6703   20.8548 H   0  0  0  0  0  0
  1 25  1  0  0  0
  1 30  2  0  0  0
  1 84  1  0  0  0
  2  3  1  0  0  0
  2 25  1  0  0  0
  2 86  1  0  0  0
  2 87  1  0  0  0
  3  4  1  0  0  0
  3 88  1  0  0  0
  3 89  1  0  0  0
  4  5  1  0  0  0
  4 90  1  0  0  0
  4 91  1  0  0  0
  5  6  1  0  0  0
  5 26  1  0  0  0
  5 92  1  0  0  0
  6 25  1  0  0  0
  6 93  1  0  0  0
  6 94  1  0  0  0
  7  8  2  0  0  0
  7 26  1  0  0  0
  7 29  1  0  0  0
  8  9  1  0  0  0
  8 22  1  0  0  0
  9 10  1  0  0  0
  9 27  2  0  0  0
 10 11  2  0  0  0
 10 15  1  0  0  0
 11 12  1  0  0  0
 11 95  1  0  0  0
 12 13  2  0  0  0
 12 96  1  0  0  0
 13 14  1  0  0  0
 13 31  1  0  0  0
 14 15  2  0  0  0
 14 97  1  0  0  0
 15 98  1  0  0  0
 16 17  2  0  0  0
 16 21  1  0  0  0
 16 31  1  0  0  0
 17 18  1  0  0  0
 17 99  1  0  0  0
 18 19  2  0  0  0
 18100  1  0  0  0
 19 20  1  0  0  0
 19 24  1  0  0  0
 20 21  2  0  0  0
 20101  1  0  0  0
 21 23  1  0  0  0
 22 28  1  0  0  0
 22 32  2  0  0  0
 26 27  1  0  0  0
 28102  1  0  0  0
 28103  1  0  0  0
 29104  1  0  0  0
 29105  1  0  0  0
 33 34  1  0  0  0
 33 66  1  0  0  0
 33 70  2  0  0  0
 34 36  1  0  0  0
 34 59  1  0  0  0
 34106  1  0  0  0
 35 44  2  0  0  0
 35 45  1  0  0  0
 35 68  1  0  0  0
 36 56  1  0  0  0
 36107  1  0  0  0
 37 39  1  0  0  0
 37 47  1  0  0  0
 37 66  1  0  0  0
 37108  1  0  0  0
 38 43  2  0  0  0
 38 46  1  0  0  0
 38 47  1  0  0  0
 39 64  1  0  0  0
 39 67  2  0  0  0
 40 52  1  0  0  0
 40 53  2  0  0  0
 40 58  1  0  0  0
 41109  1  0  0  0
 41110  1  0  0  0
 41111  1  0  0  0
 41 48  1  0  0  0
 42 43  1  0  0  0
 42 66  1  0  0  0
 42112  1  0  0  0
 42113  1  0  0  0
 43 44  1  0  0  0
 44114  1  0  0  0
 45 46  2  0  0  0
 45115  1  0  0  0
 46116  1  0  0  0
 47117  1  0  0  0
 47118  1  0  0  0
 48 56  1  0  0  0
 48 65  1  0  0  0
 48119  1  0  0  0
 49 50  1  0  0  0
 49 53  1  0  0  0
 49 64  1  0  0  0
 49120  1  0  0  0
 50 51  1  0  0  0
 50121  1  0  0  0
 50122  1  0  0  0
 51 52  1  0  0  0
 51123  1  0  0  0
 51124  1  0  0  0
 52125  1  0  0  0
 52126  1  0  0  0
 53 54  1  0  0  0
 54 55  2  0  0  0
 54127  1  0  0  0
 55 57  1  0  0  0
 55128  1  0  0  0
 56 69  2  0  0  0
 57 58  2  0  0  0
 57129  1  0  0  0
 58130  1  0  0  0
 59 60  1  0  0  0
 59 61  1  0  0  0
 59 62  1  0  0  0
 60131  1  0  0  0
 60132  1  0  0  0
 60133  1  0  0  0
 61134  1  0  0  0
 61135  1  0  0  0
 61136  1  0  0  0
 62137  1  0  0  0
 62138  1  0  0  0
 62139  1  0  0  0
 63 65  1  0  0  0
 63140  1  0  0  0
 63141  1  0  0  0
 63142  1  0  0  0
 64143  1  0  0  0
 65144  1  0  0  0
 68 82  1  0  0  0
 71 73  2  0  0  0
 71 83  1  0  0  0
 71145  1  0  0  0
 72 73  1  0  0  0
 72 74  2  0  0  0
 72 75  1  0  0  0
 73 79  1  0  0  0
 74 76  1  0  0  0
 74 83  1  0  0  0
 75 77  1  0  0  0
 75 85  2  0  0  0
 76 78  1  0  0  0
 76146  1  0  0  0
 76147  1  0  0  0
 77 78  1  0  0  0
 77148  1  0  0  0
 77149  1  0  0  0
 78150  1  0  0  0
 78151  1  0  0  0
 79 82  1  0  0  0
 79152  1  0  0  0
 79153  1  0  0  0
 80 81  1  0  0  0
 80 83  1  0  0  0
 80154  1  0  0  0
 80155  1  0  0  0
 81 84  1  0  0  0
 81156  1  0  0  0
 81157  1  0  0  0
 82158  1  0  0  0
 82159  1  0  0  0
 84160  1  0  0  0
M  ISO  4   1 100  68 101  82 101  84 100
M  END
> <chiral flag>
0

> <version>
0

> <s_m_source_file>
/data/baiqing/PycharmProjects/Reinvent-master-3.2/result/LINK_invent/BTK/process_docking_weight1_custom_sum_contain_oxygen_bond_distance_aromatic_linkinvent_7_9_3/rearranged_h_0183.sdf

> <i_m_source_file_index>
72

> <r_mmod_Potential_Energy-OPLS-2005>
184.557739257812

> <r_mmod_Stretch_Energy-OPLS-2005>
120.33268737793

> <r_mmod_Bend_Energy-OPLS-2005>
176.058166503906

> <r_mmod_Torsional_Energy-OPLS-2005>
252.801376342773

> <r_mmod_Improper_Torsional_Energy-OPLS-2005>
5.96706008911133

> <r_mmod_Van_der_Waal_Energy-OPLS-2005>
119.112838745117

> <r_mmod_Electrostatic_Energy-OPLS-2005>
-328.022308349609

> <r_mmod_Solvation_Energy-OPLS-2005>
-236.870819091797

> <b_mmod_Minimization_Converged-OPLS-2005>
0

> <r_mmod_RMS_Derivative-OPLS-2005>
2.03675746917725

$$$$
73
                    3D
 Structure written by MMmdl.
149158  0  0  1  0            999 V2000
  -30.3113  -15.6993   20.3130 C   0  0  0  0  0  0
  -30.4099  -13.1435   19.4966 C   0  0  0  0  0  0
  -29.5399  -12.6650   18.3020 C   0  0  0  0  0  0
  -28.1209  -12.2979   18.7598 C   0  0  0  0  0  0
  -27.5885  -13.3120   19.7972 C   0  0  2  0  0  0
  -28.6110  -13.6956   20.8936 C   0  0  0  0  0  0
  -25.2349  -13.8295   20.5813 C   0  0  0  0  0  0
  -24.1725  -13.0448   20.9282 C   0  0  0  0  0  0
  -24.6425  -11.6961   20.8775 C   0  0  0  0  0  0
  -23.9124  -10.4309   21.0402 C   0  0  0  0  0  0
  -24.3665   -9.4212   21.9172 C   0  0  0  0  0  0
  -23.6328   -8.2249   22.0745 C   0  0  0  0  0  0
  -22.4307   -8.0286   21.3532 C   0  0  0  0  0  0
  -21.9947   -9.0263   20.4635 C   0  0  0  0  0  0
  -22.7290  -10.2139   20.3047 C   0  0  0  0  0  0
  -21.6863   -6.0741   22.5285 C   0  0  0  0  0  0
  -21.4021   -6.5641   23.8220 C   0  0  0  0  0  0
  -21.3673   -5.6788   24.9175 C   0  0  0  0  0  0
  -21.6040   -4.3050   24.7222 C   0  0  0  0  0  0
  -21.8821   -3.8145   23.4343 C   0  0  0  0  0  0
  -21.9196   -4.6967   22.3403 C   0  0  0  0  0  0
  -22.7732  -13.5183   21.1907 C   0  0  0  0  0  0
  -22.1661   -4.2157   21.0974 F   0  0  0  0  0  0
  -21.5637   -3.4530   25.7732 F   0  0  0  0  0  0
  -29.7506  -14.3451   20.1951 N   0  0  0  0  0  0
  -26.2778  -12.9624   20.3229 N   0  0  0  0  0  0
  -25.9370  -11.6694   20.5688 N   0  0  0  0  0  0
  -22.0390  -12.8158   22.0461 N   0  0  0  0  0  0
  -25.3971  -15.2034   20.4300 N   0  0  0  0  0  0
  -31.5529  -15.5453   20.2822 O   0  0  0  0  0  0
  -21.6657   -6.8889   21.4247 O   0  0  0  0  0  0
  -22.3395  -14.5462   20.6713 O   0  0  0  0  0  0
  -24.6896  -31.7932   23.1467 C   0  0  0  0  0  0
  -25.9444  -32.4428   23.8037 C   0  0  1  0  0  0
  -27.2281  -26.6438   20.2101 C   0  0  0  0  0  0
  -25.6008  -33.8260   24.1930 N   0  0  0  0  0  0
  -23.5196  -30.3913   21.5037 C   0  0  2  0  0  0
  -24.9749  -28.7193   20.1259 C   0  0  0  0  0  0
  -22.7798  -29.4268   22.4708 C   0  0  0  0  0  0
  -18.0349  -28.1422   22.8455 C   0  0  0  0  0  0
  -24.1509  -36.7140   23.2658 C   0  0  0  0  0  0
  -26.1034  -30.5052   21.4206 C   0  0  0  0  0  0
  -26.1678  -29.0631   20.7723 C   0  0  0  0  0  0
  -27.2816  -28.0578   20.7722 C   0  0  0  0  0  0
  -25.9950  -26.5201   19.5201 C   0  0  0  0  0  0
  -24.9309  -27.4740   19.4776 C   0  0  0  0  0  0
  -23.7767  -29.6842   20.1428 C   0  0  0  0  0  0
  -25.4163  -36.2869   24.0276 C   0  0  1  0  0  0
  -20.5980  -28.3784   23.1134 C   0  0  2  0  0  0
  -20.6811  -26.9435   22.5407 C   0  0  0  0  0  0
  -19.5788  -26.6362   21.5223 C   0  0  0  0  0  0
  -18.1973  -26.7951   22.1624 C   0  0  0  0  0  0
  -19.1611  -28.8931   23.2765 C   0  0  0  0  0  0
  -18.9512  -30.1516   23.8795 C   0  0  0  0  0  0
  -17.6499  -30.6596   24.0552 C   0  0  0  0  0  0
  -25.9132  -34.9255   23.4940 C   0  0  0  0  0  0
  -16.5390  -29.9071   23.6354 C   0  0  0  0  0  0
  -16.7328  -28.6504   23.0351 C   0  0  0  0  0  0
  -26.4605  -31.6479   25.0684 C   0  0  0  0  0  0
  -25.3660  -31.3812   26.1295 C   0  0  0  0  0  0
  -27.0554  -30.2808   24.6634 C   0  0  0  0  0  0
  -27.6050  -32.4345   25.7502 C   0  0  0  0  0  0
  -27.5557  -37.1751   24.8476 C   0  0  0  0  0  0
  -21.4435  -29.3022   22.3455 N   0  0  0  0  0  0
  -26.4296  -37.3617   23.9366 N   0  0  0  0  0  0
  -24.7949  -30.9315   22.0761 N   0  0  0  0  0  0
  -23.4213  -28.7880   23.3079 O   0  0  0  0  0  0
  -28.2038  -25.4135   20.1751 O   0  0  0  0  0  0
  -26.5767  -34.8835   22.4549 O   0  0  0  0  0  0
  -23.5896  -32.1034   23.6379 O   0  0  0  0  0  0
  -29.0943  -22.2816   18.4308 C   0  0  0  0  0  0
  -29.4034  -21.1698   17.7182 C   0  0  0  0  0  0
  -28.7501  -21.9976   19.7871 C   0  0  0  0  0  0
  -29.0768  -20.4197   19.8607 C   0  0  0  0  0  0
  -29.2748  -18.7378   20.6363 C   0  0  0  0  0  0
  -29.4217  -18.6920   17.9643 C   0  0  0  0  0  0
  -30.2714  -17.6332   18.7381 C   0  0  0  0  0  0
  -28.0810  -23.6553   20.4825 C   0  0  0  0  0  0
  -29.3336  -20.0637   18.5266 N   0  0  0  0  0  0
  -29.6928  -17.1302   20.0046 N   0  0  0  0  0  0
  -31.3931  -13.4137   19.1096 H   0  0  0  0  0  0
  -30.5941  -12.3232   20.1922 H   0  0  0  0  0  0
  -30.0073  -11.8164   17.8005 H   0  0  0  0  0  0
  -29.4822  -13.4653   17.5631 H   0  0  0  0  0  0
  -28.1614  -11.3035   19.2043 H   0  0  0  0  0  0
  -27.4469  -12.2304   17.9049 H   0  0  0  0  0  0
  -27.4294  -14.2171   19.2096 H   0  0  0  0  0  0
  -28.9063  -12.8372   21.4989 H   0  0  0  0  0  0
  -28.1666  -14.4163   21.5808 H   0  0  0  0  0  0
  -25.2815   -9.5677   22.4729 H   0  0  0  0  0  0
  -24.0040   -7.4641   22.7464 H   0  0  0  0  0  0
  -21.0874   -8.8776   19.8949 H   0  0  0  0  0  0
  -22.3745  -10.9663   19.6152 H   0  0  0  0  0  0
  -21.2012   -7.6148   23.9720 H   0  0  0  0  0  0
  -21.1497   -6.0518   25.9076 H   0  0  0  0  0  0
  -22.0588   -2.7612   23.2841 H   0  0  0  0  0  0
  -22.4056  -11.9880   22.4928 H   0  0  0  0  0  0
  -21.0983  -13.1126   22.2610 H   0  0  0  0  0  0
  -24.6294  -15.8547   20.5521 H   0  0  0  0  0  0
  -26.2498  -15.6510   20.1183 H   0  0  0  0  0  0
  -26.7541  -32.4875   23.0763 H   0  0  0  0  0  0
  -25.0092  -33.9300   25.0042 H   0  0  0  0  0  0
  -22.8470  -31.2290   21.3085 H   0  0  0  0  0  0
  -23.3757  -35.9492   23.3350 H   0  0  0  0  0  0
  -24.3552  -36.8766   22.2066 H   0  0  0  0  0  0
  -23.7314  -37.6348   23.6718 H   0  0  0  0  0  0
  -26.3144  -31.2281   20.6313 H   0  0  0  0  0  0
  -26.9494  -30.5730   22.0921 H   0  0  0  0  0  0
  -28.1882  -28.3379   21.2894 H   0  0  0  0  0  0
  -25.8218  -25.5862   19.0041 H   0  0  0  0  0  0
  -24.0343  -27.2019   18.9403 H   0  0  0  0  0  0
  -23.9594  -30.4412   19.3788 H   0  0  0  0  0  0
  -22.8801  -29.1546   19.8169 H   0  0  0  0  0  0
  -25.1396  -36.1644   25.0772 H   0  0  0  0  0  0
  -21.0055  -28.3411   24.1260 H   0  0  0  0  0  0
  -20.5681  -26.2402   23.3674 H   0  0  0  0  0  0
  -21.6672  -26.7377   22.1218 H   0  0  0  0  0  0
  -19.6940  -25.6245   21.1312 H   0  0  0  0  0  0
  -19.6739  -27.3125   20.6713 H   0  0  0  0  0  0
  -17.4242  -26.6686   21.4028 H   0  0  0  0  0  0
  -18.0356  -26.0122   22.9041 H   0  0  0  0  0  0
  -19.7975  -30.7366   24.2120 H   0  0  0  0  0  0
  -17.5034  -31.6269   24.5161 H   0  0  0  0  0  0
  -15.5378  -30.2927   23.7732 H   0  0  0  0  0  0
  -15.8737  -28.0790   22.7100 H   0  0  0  0  0  0
  -24.5846  -30.7179   25.7569 H   0  0  0  0  0  0
  -24.8871  -32.3053   26.4545 H   0  0  0  0  0  0
  -25.7822  -30.9060   27.0197 H   0  0  0  0  0  0
  -26.3300  -29.6393   24.1631 H   0  0  0  0  0  0
  -27.3958  -29.7276   25.5402 H   0  0  0  0  0  0
  -27.9284  -30.3909   24.0200 H   0  0  0  0  0  0
  -27.2593  -33.3710   26.1893 H   0  0  0  0  0  0
  -28.3962  -32.6807   25.0402 H   0  0  0  0  0  0
  -28.0631  -31.8611   26.5576 H   0  0  0  0  0  0
  -28.2603  -38.0007   24.7397 H   0  0  0  0  0  0
  -28.1030  -36.2523   24.6488 H   0  0  0  0  0  0
  -27.2248  -37.1605   25.8874 H   0  0  0  0  0  0
  -20.9747  -29.8661   21.6500 H   0  0  0  0  0  0
  -26.0134  -38.2688   24.1278 H   0  0  0  0  0  0
  -29.0386  -23.2595   17.9696 H   0  0  0  0  0  0
  -29.6292  -21.0677   16.6616 H   0  0  0  0  0  0
  -28.3345  -18.5478   21.1558 H   0  0  0  0  0  0
  -29.9831  -18.8725   21.4535 H   0  0  0  0  0  0
  -28.4039  -18.3230   17.8272 H   0  0  0  0  0  0
  -29.8337  -18.7710   16.9561 H   0  0  0  0  0  0
  -31.2732  -18.0238   18.9257 H   0  0  0  0  0  0
  -30.4074  -16.7910   18.0555 H   0  0  0  0  0  0
  -28.3271  -23.5846   21.5419 H   0  0  0  0  0  0
  -27.0033  -23.4932   20.4575 H   0  0  0  0  0  0
  1 25  1  0  0  0
  1 30  2  0  0  0
  1 80  1  0  0  0
  2  3  1  0  0  0
  2 25  1  0  0  0
  2 81  1  0  0  0
  2 82  1  0  0  0
  3  4  1  0  0  0
  3 83  1  0  0  0
  3 84  1  0  0  0
  4  5  1  0  0  0
  4 85  1  0  0  0
  4 86  1  0  0  0
  5  6  1  0  0  0
  5 26  1  0  0  0
  5 87  1  0  0  0
  6 25  1  0  0  0
  6 88  1  0  0  0
  6 89  1  0  0  0
  7  8  2  0  0  0
  7 26  1  0  0  0
  7 29  1  0  0  0
  8  9  1  0  0  0
  8 22  1  0  0  0
  9 10  1  0  0  0
  9 27  2  0  0  0
 10 11  2  0  0  0
 10 15  1  0  0  0
 11 12  1  0  0  0
 11 90  1  0  0  0
 12 13  2  0  0  0
 12 91  1  0  0  0
 13 14  1  0  0  0
 13 31  1  0  0  0
 14 15  2  0  0  0
 14 92  1  0  0  0
 15 93  1  0  0  0
 16 17  2  0  0  0
 16 21  1  0  0  0
 16 31  1  0  0  0
 17 18  1  0  0  0
 17 94  1  0  0  0
 18 19  2  0  0  0
 18 95  1  0  0  0
 19 20  1  0  0  0
 19 24  1  0  0  0
 20 21  2  0  0  0
 20 96  1  0  0  0
 21 23  1  0  0  0
 22 28  1  0  0  0
 22 32  2  0  0  0
 26 27  1  0  0  0
 28 97  1  0  0  0
 28 98  1  0  0  0
 29 99  1  0  0  0
 29100  1  0  0  0
 33 34  1  0  0  0
 33 66  1  0  0  0
 33 70  2  0  0  0
 34 36  1  0  0  0
 34 59  1  0  0  0
 34101  1  0  0  0
 35 44  2  0  0  0
 35 45  1  0  0  0
 35 68  1  0  0  0
 36 56  1  0  0  0
 36102  1  0  0  0
 37 39  1  0  0  0
 37 47  1  0  0  0
 37 66  1  0  0  0
 37103  1  0  0  0
 38 43  2  0  0  0
 38 46  1  0  0  0
 38 47  1  0  0  0
 39 64  1  0  0  0
 39 67  2  0  0  0
 40 52  1  0  0  0
 40 53  2  0  0  0
 40 58  1  0  0  0
 41104  1  0  0  0
 41105  1  0  0  0
 41106  1  0  0  0
 41 48  1  0  0  0
 42 43  1  0  0  0
 42 66  1  0  0  0
 42107  1  0  0  0
 42108  1  0  0  0
 43 44  1  0  0  0
 44109  1  0  0  0
 45 46  2  0  0  0
 45110  1  0  0  0
 46111  1  0  0  0
 47112  1  0  0  0
 47113  1  0  0  0
 48 56  1  0  0  0
 48 65  1  0  0  0
 48114  1  0  0  0
 49 50  1  0  0  0
 49 53  1  0  0  0
 49 64  1  0  0  0
 49115  1  0  0  0
 50 51  1  0  0  0
 50116  1  0  0  0
 50117  1  0  0  0
 51 52  1  0  0  0
 51118  1  0  0  0
 51119  1  0  0  0
 52120  1  0  0  0
 52121  1  0  0  0
 53 54  1  0  0  0
 54 55  2  0  0  0
 54122  1  0  0  0
 55 57  1  0  0  0
 55123  1  0  0  0
 56 69  2  0  0  0
 57 58  2  0  0  0
 57124  1  0  0  0
 58125  1  0  0  0
 59 60  1  0  0  0
 59 61  1  0  0  0
 59 62  1  0  0  0
 60126  1  0  0  0
 60127  1  0  0  0
 60128  1  0  0  0
 61129  1  0  0  0
 61130  1  0  0  0
 61131  1  0  0  0
 62132  1  0  0  0
 62133  1  0  0  0
 62134  1  0  0  0
 63 65  1  0  0  0
 63135  1  0  0  0
 63136  1  0  0  0
 63137  1  0  0  0
 64138  1  0  0  0
 65139  1  0  0  0
 68 78  1  0  0  0
 71 72  2  0  0  0
 71 73  1  0  0  0
 71140  1  0  0  0
 72 79  1  0  0  0
 72141  1  0  0  0
 73 74  2  0  0  0
 73 78  1  0  0  0
 74 75  1  0  0  0
 74 79  1  0  0  0
 75 80  1  0  0  0
 75142  1  0  0  0
 75143  1  0  0  0
 76 77  1  0  0  0
 76 79  1  0  0  0
 76144  1  0  0  0
 76145  1  0  0  0
 77 80  1  0  0  0
 77146  1  0  0  0
 77147  1  0  0  0
 78148  1  0  0  0
 78149  1  0  0  0
M  ISO  4   1 100  68 101  78 101  80 100
M  END
> <chiral flag>
0

> <version>
0

> <s_m_source_file>
/data/baiqing/PycharmProjects/Reinvent-master-3.2/result/LINK_invent/BTK/process_docking_weight1_custom_sum_contain_oxygen_bond_distance_aromatic_linkinvent_7_9_3/rearranged_h_0183.sdf

> <i_m_source_file_index>
73

> <r_mmod_Potential_Energy-OPLS-2005>
2933.86938476562

> <r_mmod_Stretch_Energy-OPLS-2005>
1228.42272949219

> <r_mmod_Bend_Energy-OPLS-2005>
737.682983398438

> <r_mmod_Torsional_Energy-OPLS-2005>
342.081481933594

> <r_mmod_Improper_Torsional_Energy-OPLS-2005>
22.4001178741455

> <r_mmod_Van_der_Waal_Energy-OPLS-2005>
120.849563598633

> <r_mmod_Electrostatic_Energy-OPLS-2005>
-300.297546386719

> <r_mmod_Solvation_Energy-OPLS-2005>
-217.763336181641

> <b_mmod_Minimization_Converged-OPLS-2005>
0

> <r_mmod_RMS_Derivative-OPLS-2005>
2.61473655700684

$$$$
74
                    3D
 Structure written by MMmdl.
153162  0  0  1  0            999 V2000
  -30.6336  -14.9721   20.4093 C   0  0  0  0  0  0
  -30.4089  -12.6165   19.4962 C   0  0  0  0  0  0
  -29.5053  -12.5232   18.2506 C   0  0  0  0  0  0
  -28.0447  -12.3068   18.6783 C   0  0  0  0  0  0
  -27.6154  -13.2606   19.8238 C   0  0  2  0  0  0
  -28.6612  -13.3673   20.9554 C   0  0  0  0  0  0
  -25.2398  -13.8233   20.5746 C   0  0  0  0  0  0
  -24.1736  -13.0436   20.9250 C   0  0  0  0  0  0
  -24.6378  -11.6930   20.8770 C   0  0  0  0  0  0
  -23.9073  -10.4294   21.0419 C   0  0  0  0  0  0
  -24.3620   -9.4209   21.9192 C   0  0  0  0  0  0
  -23.6296   -8.2242   22.0758 C   0  0  0  0  0  0
  -22.4280   -8.0280   21.3548 C   0  0  0  0  0  0
  -21.9917   -9.0256   20.4652 C   0  0  0  0  0  0
  -22.7245  -10.2133   20.3066 C   0  0  0  0  0  0
  -21.6856   -6.0735   22.5276 C   0  0  0  0  0  0
  -21.4018   -6.5636   23.8210 C   0  0  0  0  0  0
  -21.3661   -5.6787   24.9169 C   0  0  0  0  0  0
  -21.6042   -4.3049   24.7222 C   0  0  0  0  0  0
  -21.8815   -3.8146   23.4344 C   0  0  0  0  0  0
  -21.9192   -4.6962   22.3399 C   0  0  0  0  0  0
  -22.7757  -13.5201   21.1890 C   0  0  0  0  0  0
  -22.1660   -4.2148   21.0978 F   0  0  0  0  0  0
  -21.5632   -3.4533   25.7738 F   0  0  0  0  0  0
  -29.9227  -13.7688   20.3227 N   0  0  0  0  0  0
  -26.2827  -12.9496   20.3246 N   0  0  0  0  0  0
  -25.9314  -11.6611   20.5755 N   0  0  0  0  0  0
  -22.0404  -12.8197   22.0445 N   0  0  0  0  0  0
  -25.4016  -15.1962   20.4176 N   0  0  0  0  0  0
  -31.8473  -14.8532   20.2083 O   0  0  0  0  0  0
  -21.6640   -6.8882   21.4242 O   0  0  0  0  0  0
  -22.3441  -14.5500   20.6726 O   0  0  0  0  0  0
  -24.6471  -31.8432   23.1885 C   0  0  0  0  0  0
  -25.9232  -32.4691   23.8277 C   0  0  1  0  0  0
  -27.2025  -27.1058   20.1464 C   0  0  0  0  0  0
  -25.5970  -33.8498   24.2190 N   0  0  0  0  0  0
  -23.4511  -30.4659   21.5349 C   0  0  2  0  0  0
  -24.8986  -28.8952   20.1074 C   0  0  0  0  0  0
  -22.7581  -29.4556   22.4840 C   0  0  0  0  0  0
  -18.0311  -28.1400   22.8478 C   0  0  0  0  0  0
  -24.1494  -36.7248   23.2643 C   0  0  0  0  0  0
  -26.0117  -30.7057   21.3954 C   0  0  0  0  0  0
  -26.0792  -29.3167   20.7322 C   0  0  0  0  0  0
  -27.2322  -28.4380   20.7377 C   0  0  0  0  0  0
  -25.9979  -26.8078   19.4672 C   0  0  0  0  0  0
  -24.8726  -27.6553   19.4588 C   0  0  0  0  0  0
  -23.6789  -29.8019   20.1527 C   0  0  0  0  0  0
  -25.4127  -36.3028   24.0315 C   0  0  1  0  0  0
  -20.5928  -28.3736   23.1218 C   0  0  2  0  0  0
  -20.6796  -26.9433   22.5397 C   0  0  0  0  0  0
  -19.5765  -26.6382   21.5211 C   0  0  0  0  0  0
  -18.1948  -26.7938   22.1624 C   0  0  0  0  0  0
  -19.1568  -28.8883   23.2842 C   0  0  0  0  0  0
  -18.9484  -30.1476   23.8871 C   0  0  0  0  0  0
  -17.6480  -30.6595   24.0558 C   0  0  0  0  0  0
  -25.9079  -34.9404   23.5059 C   0  0  0  0  0  0
  -16.5371  -29.9087   23.6337 C   0  0  0  0  0  0
  -16.7296  -28.6506   23.0360 C   0  0  0  0  0  0
  -26.4532  -31.6569   25.0735 C   0  0  0  0  0  0
  -25.3699  -31.3778   26.1419 C   0  0  0  0  0  0
  -27.0401  -30.2957   24.6355 C   0  0  0  0  0  0
  -27.6061  -32.4337   25.7519 C   0  0  0  0  0  0
  -27.5577  -37.1781   24.8461 C   0  0  0  0  0  0
  -21.4270  -29.3062   22.3585 N   0  0  0  0  0  0
  -26.4285  -37.3746   23.9408 N   0  0  0  0  0  0
  -24.7236  -31.0262   22.0944 N   0  0  0  0  0  0
  -23.4211  -28.8093   23.2996 O   0  0  0  0  0  0
  -28.2162  -26.0687   20.2328 O   0  0  0  0  0  0
  -26.5663  -34.8902   22.4636 O   0  0  0  0  0  0
  -23.5581  -32.1330   23.7081 O   0  0  0  0  0  0
  -30.3764  -21.9330   20.9865 C   0  0  0  0  0  0
  -29.9744  -23.2575   20.8674 C   0  0  0  0  0  0
  -29.3284  -21.0918   20.4899 C   0  0  0  0  0  0
  -30.7136  -18.9022   20.8207 C   0  0  0  0  0  0
  -28.4320  -18.5226   20.1991 C   0  0  0  0  0  0
  -30.9933  -17.4994   20.1000 C   0  0  0  0  0  0
  -28.7442  -16.9560   20.6485 C   0  0  0  0  0  0
  -27.8120  -24.6085   19.9688 C   0  0  0  0  0  0
  -28.3268  -21.9735   20.1021 N   0  0  0  0  0  0
  -28.7055  -23.3451   20.3205 N   0  0  0  0  0  0
  -29.4530  -19.5965   20.4558 N   0  0  0  0  0  0
  -30.1012  -16.3194   20.4089 N   0  0  0  0  0  0
  -31.4462  -12.7260   19.1781 H   0  0  0  0  0  0
  -30.3780  -11.6874   20.0680 H   0  0  0  0  0  0
  -29.8326  -11.7101   17.6009 H   0  0  0  0  0  0
  -29.5888  -13.4402   17.6646 H   0  0  0  0  0  0
  -27.9500  -11.2709   19.0061 H   0  0  0  0  0  0
  -27.3776  -12.4170   17.8220 H   0  0  0  0  0  0
  -27.5530  -14.2421   19.3549 H   0  0  0  0  0  0
  -28.7658  -12.4231   21.4928 H   0  0  0  0  0  0
  -28.3557  -14.1151   21.6888 H   0  0  0  0  0  0
  -25.2762   -9.5690   22.4766 H   0  0  0  0  0  0
  -24.0002   -7.4633   22.7475 H   0  0  0  0  0  0
  -21.0850   -8.8779   19.8960 H   0  0  0  0  0  0
  -22.3704  -10.9670   19.6176 H   0  0  0  0  0  0
  -21.2013   -7.6144   23.9712 H   0  0  0  0  0  0
  -21.1490   -6.0519   25.9070 H   0  0  0  0  0  0
  -22.0596   -2.7610   23.2841 H   0  0  0  0  0  0
  -22.4025  -11.9865   22.4846 H   0  0  0  0  0  0
  -21.1025  -13.1231   22.2649 H   0  0  0  0  0  0
  -24.6318  -15.8458   20.5370 H   0  0  0  0  0  0
  -26.2468  -15.6389   20.0846 H   0  0  0  0  0  0
  -26.7301  -32.5283   23.1003 H   0  0  0  0  0  0
  -25.0088  -33.9610   25.0319 H   0  0  0  0  0  0
  -22.7562  -31.2940   21.3824 H   0  0  0  0  0  0
  -23.3767  -35.9566   23.3282 H   0  0  0  0  0  0
  -24.3583  -36.8904   22.2062 H   0  0  0  0  0  0
  -23.7233  -37.6430   23.6694 H   0  0  0  0  0  0
  -26.1761  -31.4622   20.6267 H   0  0  0  0  0  0
  -26.8788  -30.7508   22.0425 H   0  0  0  0  0  0
  -28.1258  -28.7516   21.2582 H   0  0  0  0  0  0
  -25.8711  -25.8700   18.9498 H   0  0  0  0  0  0
  -23.9738  -27.3314   18.9525 H   0  0  0  0  0  0
  -23.8208  -30.5801   19.4022 H   0  0  0  0  0  0
  -22.7920  -29.2496   19.8367 H   0  0  0  0  0  0
  -25.1315  -36.1852   25.0807 H   0  0  0  0  0  0
  -21.0025  -28.3333   24.1338 H   0  0  0  0  0  0
  -20.5693  -26.2350   23.3625 H   0  0  0  0  0  0
  -21.6660  -26.7437   22.1195 H   0  0  0  0  0  0
  -19.6926  -25.6283   21.1265 H   0  0  0  0  0  0
  -19.6699  -27.3171   20.6723 H   0  0  0  0  0  0
  -17.4216  -26.6680   21.4030 H   0  0  0  0  0  0
  -18.0350  -26.0089   22.9030 H   0  0  0  0  0  0
  -19.7959  -30.7295   24.2234 H   0  0  0  0  0  0
  -17.5036  -31.6273   24.5161 H   0  0  0  0  0  0
  -15.5370  -30.2979   23.7674 H   0  0  0  0  0  0
  -15.8699  -28.0810   22.7093 H   0  0  0  0  0  0
  -24.5860  -30.7157   25.7723 H   0  0  0  0  0  0
  -24.8914  -32.2974   26.4800 H   0  0  0  0  0  0
  -25.7960  -30.8959   27.0228 H   0  0  0  0  0  0
  -26.3034  -29.6670   24.1347 H   0  0  0  0  0  0
  -27.3970  -29.7272   25.4952 H   0  0  0  0  0  0
  -27.8961  -30.4169   23.9715 H   0  0  0  0  0  0
  -27.2654  -33.3654   26.2044 H   0  0  0  0  0  0
  -28.3898  -32.6874   25.0369 H   0  0  0  0  0  0
  -28.0701  -31.8502   26.5478 H   0  0  0  0  0  0
  -28.2577  -38.0094   24.7525 H   0  0  0  0  0  0
  -28.1091  -36.2625   24.6266 H   0  0  0  0  0  0
  -27.2296  -37.1401   25.8863 H   0  0  0  0  0  0
  -20.9480  -29.8778   21.6767 H   0  0  0  0  0  0
  -26.0149  -38.2810   24.1421 H   0  0  0  0  0  0
  -31.3280  -21.6211   21.3899 H   0  0  0  0  0  0
  -30.5059  -24.1605   21.1330 H   0  0  0  0  0  0
  -31.5495  -19.5593   20.5812 H   0  0  0  0  0  0
  -30.7382  -18.7696   21.9035 H   0  0  0  0  0  0
  -27.4913  -18.8370   20.6546 H   0  0  0  0  0  0
  -28.2452  -18.5317   19.1243 H   0  0  0  0  0  0
  -32.0278  -17.2495   20.3393 H   0  0  0  0  0  0
  -30.9825  -17.6454   19.0185 H   0  0  0  0  0  0
  -27.9967  -16.3196   20.1813 H   0  0  0  0  0  0
  -28.5601  -16.8720   21.7206 H   0  0  0  0  0  0
  -26.8655  -24.4366   20.4826 H   0  0  0  0  0  0
  -27.6197  -24.5281   18.8985 H   0  0  0  0  0  0
  1 25  1  0  0  0
  1 30  2  0  0  0
  1 82  1  0  0  0
  2  3  1  0  0  0
  2 25  1  0  0  0
  2 83  1  0  0  0
  2 84  1  0  0  0
  3  4  1  0  0  0
  3 85  1  0  0  0
  3 86  1  0  0  0
  4  5  1  0  0  0
  4 87  1  0  0  0
  4 88  1  0  0  0
  5  6  1  0  0  0
  5 26  1  0  0  0
  5 89  1  0  0  0
  6 25  1  0  0  0
  6 90  1  0  0  0
  6 91  1  0  0  0
  7  8  2  0  0  0
  7 26  1  0  0  0
  7 29  1  0  0  0
  8  9  1  0  0  0
  8 22  1  0  0  0
  9 10  1  0  0  0
  9 27  2  0  0  0
 10 11  2  0  0  0
 10 15  1  0  0  0
 11 12  1  0  0  0
 11 92  1  0  0  0
 12 13  2  0  0  0
 12 93  1  0  0  0
 13 14  1  0  0  0
 13 31  1  0  0  0
 14 15  2  0  0  0
 14 94  1  0  0  0
 15 95  1  0  0  0
 16 17  2  0  0  0
 16 21  1  0  0  0
 16 31  1  0  0  0
 17 18  1  0  0  0
 17 96  1  0  0  0
 18 19  2  0  0  0
 18 97  1  0  0  0
 19 20  1  0  0  0
 19 24  1  0  0  0
 20 21  2  0  0  0
 20 98  1  0  0  0
 21 23  1  0  0  0
 22 28  1  0  0  0
 22 32  2  0  0  0
 26 27  1  0  0  0
 28 99  1  0  0  0
 28100  1  0  0  0
 29101  1  0  0  0
 29102  1  0  0  0
 33 34  1  0  0  0
 33 66  1  0  0  0
 33 70  2  0  0  0
 34 36  1  0  0  0
 34 59  1  0  0  0
 34103  1  0  0  0
 35 44  2  0  0  0
 35 45  1  0  0  0
 35 68  1  0  0  0
 36 56  1  0  0  0
 36104  1  0  0  0
 37 39  1  0  0  0
 37 47  1  0  0  0
 37 66  1  0  0  0
 37105  1  0  0  0
 38 43  2  0  0  0
 38 46  1  0  0  0
 38 47  1  0  0  0
 39 64  1  0  0  0
 39 67  2  0  0  0
 40 52  1  0  0  0
 40 53  2  0  0  0
 40 58  1  0  0  0
 41106  1  0  0  0
 41107  1  0  0  0
 41108  1  0  0  0
 41 48  1  0  0  0
 42 43  1  0  0  0
 42 66  1  0  0  0
 42109  1  0  0  0
 42110  1  0  0  0
 43 44  1  0  0  0
 44111  1  0  0  0
 45 46  2  0  0  0
 45112  1  0  0  0
 46113  1  0  0  0
 47114  1  0  0  0
 47115  1  0  0  0
 48 56  1  0  0  0
 48 65  1  0  0  0
 48116  1  0  0  0
 49 50  1  0  0  0
 49 53  1  0  0  0
 49 64  1  0  0  0
 49117  1  0  0  0
 50 51  1  0  0  0
 50118  1  0  0  0
 50119  1  0  0  0
 51 52  1  0  0  0
 51120  1  0  0  0
 51121  1  0  0  0
 52122  1  0  0  0
 52123  1  0  0  0
 53 54  1  0  0  0
 54 55  2  0  0  0
 54124  1  0  0  0
 55 57  1  0  0  0
 55125  1  0  0  0
 56 69  2  0  0  0
 57 58  2  0  0  0
 57126  1  0  0  0
 58127  1  0  0  0
 59 60  1  0  0  0
 59 61  1  0  0  0
 59 62  1  0  0  0
 60128  1  0  0  0
 60129  1  0  0  0
 60130  1  0  0  0
 61131  1  0  0  0
 61132  1  0  0  0
 61133  1  0  0  0
 62134  1  0  0  0
 62135  1  0  0  0
 62136  1  0  0  0
 63 65  1  0  0  0
 63137  1  0  0  0
 63138  1  0  0  0
 63139  1  0  0  0
 64140  1  0  0  0
 65141  1  0  0  0
 68 78  1  0  0  0
 71 72  2  0  0  0
 71 73  1  0  0  0
 71142  1  0  0  0
 72 80  1  0  0  0
 72143  1  0  0  0
 73 79  2  0  0  0
 73 81  1  0  0  0
 74 76  1  0  0  0
 74 81  1  0  0  0
 74144  1  0  0  0
 74145  1  0  0  0
 75 77  1  0  0  0
 75 81  1  0  0  0
 75146  1  0  0  0
 75147  1  0  0  0
 76 82  1  0  0  0
 76148  1  0  0  0
 76149  1  0  0  0
 77 82  1  0  0  0
 77150  1  0  0  0
 77151  1  0  0  0
 78 80  1  0  0  0
 78152  1  0  0  0
 78153  1  0  0  0
 79 80  1  0  0  0
M  ISO  4   1 100  68 101  78 101  82 100
M  END
> <chiral flag>
0

> <version>
0

> <s_m_source_file>
/data/baiqing/PycharmProjects/Reinvent-master-3.2/result/LINK_invent/BTK/process_docking_weight1_custom_sum_contain_oxygen_bond_distance_aromatic_linkinvent_7_9_3/rearranged_h_0183.sdf

> <i_m_source_file_index>
74

> <r_mmod_Potential_Energy-OPLS-2005>
618.958740234375

> <r_mmod_Stretch_Energy-OPLS-2005>
247.66633605957

> <r_mmod_Bend_Energy-OPLS-2005>
326.875335693359

> <r_mmod_Torsional_Energy-OPLS-2005>
321.891418457031

> <r_mmod_Improper_Torsional_Energy-OPLS-2005>
7.38963794708252

> <r_mmod_Van_der_Waal_Energy-OPLS-2005>
133.732055664062

> <r_mmod_Electrostatic_Energy-OPLS-2005>
-397.630554199219

> <r_mmod_Solvation_Energy-OPLS-2005>
-245.345016479492

> <b_mmod_Minimization_Converged-OPLS-2005>
0

> <r_mmod_RMS_Derivative-OPLS-2005>
0.99359142780304

$$$$
75
                    3D
 Structure written by MMmdl.
157166  0  0  1  0            999 V2000
  -30.4912  -15.1311   20.3843 C   0  0  0  0  0  0
  -30.4346  -12.7181   19.5031 C   0  0  0  0  0  0
  -29.5239  -12.5469   18.2650 C   0  0  0  0  0  0
  -28.0661  -12.3007   18.6940 C   0  0  0  0  0  0
  -27.6135  -13.2649   19.8209 C   0  0  2  0  0  0
  -28.6533  -13.3928   20.9516 C   0  0  0  0  0  0
  -25.2417  -13.8240   20.5746 C   0  0  0  0  0  0
  -24.1750  -13.0443   20.9242 C   0  0  0  0  0  0
  -24.6387  -11.6933   20.8753 C   0  0  0  0  0  0
  -23.9080  -10.4295   21.0402 C   0  0  0  0  0  0
  -24.3630   -9.4210   21.9180 C   0  0  0  0  0  0
  -23.6302   -8.2246   22.0751 C   0  0  0  0  0  0
  -22.4283   -8.0282   21.3543 C   0  0  0  0  0  0
  -21.9920   -9.0255   20.4644 C   0  0  0  0  0  0
  -22.7251  -10.2133   20.3052 C   0  0  0  0  0  0
  -21.6858   -6.0736   22.5279 C   0  0  0  0  0  0
  -21.4018   -6.5639   23.8212 C   0  0  0  0  0  0
  -21.3660   -5.6792   24.9174 C   0  0  0  0  0  0
  -21.6044   -4.3054   24.7224 C   0  0  0  0  0  0
  -21.8819   -3.8146   23.4345 C   0  0  0  0  0  0
  -21.9195   -4.6963   22.3402 C   0  0  0  0  0  0
  -22.7771  -13.5200   21.1897 C   0  0  0  0  0  0
  -22.1663   -4.2149   21.0979 F   0  0  0  0  0  0
  -21.5628   -3.4538   25.7736 F   0  0  0  0  0  0
  -29.8941  -13.8560   20.3180 N   0  0  0  0  0  0
  -26.2825  -12.9492   20.3212 N   0  0  0  0  0  0
  -25.9320  -11.6608   20.5718 N   0  0  0  0  0  0
  -22.0430  -12.8181   22.0451 N   0  0  0  0  0  0
  -25.4108  -15.1974   20.4221 N   0  0  0  0  0  0
  -31.7218  -15.1171   20.2361 O   0  0  0  0  0  0
  -21.6646   -6.8880   21.4241 O   0  0  0  0  0  0
  -22.3450  -14.5502   20.6739 O   0  0  0  0  0  0
  -24.6541  -31.8321   23.1765 C   0  0  0  0  0  0
  -25.9261  -32.4632   23.8202 C   0  0  1  0  0  0
  -27.2167  -27.0155   20.1836 C   0  0  0  0  0  0
  -25.5961  -33.8442   24.2115 N   0  0  0  0  0  0
  -23.4635  -30.4456   21.5248 C   0  0  2  0  0  0
  -24.9135  -28.8408   20.1197 C   0  0  0  0  0  0
  -22.7617  -29.4486   22.4823 C   0  0  0  0  0  0
  -18.0313  -28.1403   22.8473 C   0  0  0  0  0  0
  -24.1492  -36.7226   23.2646 C   0  0  0  0  0  0
  -26.0263  -30.6690   21.3901 C   0  0  0  0  0  0
  -26.0959  -29.2648   20.7396 C   0  0  0  0  0  0
  -27.2485  -28.3737   20.7410 C   0  0  0  0  0  0
  -26.0036  -26.7102   19.5336 C   0  0  0  0  0  0
  -24.8864  -27.5810   19.4983 C   0  0  0  0  0  0
  -23.6976  -29.7608   20.1507 C   0  0  0  0  0  0
  -25.4129  -36.2993   24.0306 C   0  0  1  0  0  0
  -20.5931  -28.3737   23.1214 C   0  0  2  0  0  0
  -20.6792  -26.9429   22.5405 C   0  0  0  0  0  0
  -19.5765  -26.6380   21.5215 C   0  0  0  0  0  0
  -18.1948  -26.7940   22.1624 C   0  0  0  0  0  0
  -19.1572  -28.8891   23.2832 C   0  0  0  0  0  0
  -18.9486  -30.1484   23.8862 C   0  0  0  0  0  0
  -17.6480  -30.6596   24.0558 C   0  0  0  0  0  0
  -25.9088  -34.9374   23.5028 C   0  0  0  0  0  0
  -16.5371  -29.9085   23.6341 C   0  0  0  0  0  0
  -16.7297  -28.6505   23.0361 C   0  0  0  0  0  0
  -26.4544  -31.6547   25.0694 C   0  0  0  0  0  0
  -25.3698  -31.3768   26.1368 C   0  0  0  0  0  0
  -27.0430  -30.2930   24.6355 C   0  0  0  0  0  0
  -27.6049  -32.4342   25.7492 C   0  0  0  0  0  0
  -27.5570  -37.1768   24.8466 C   0  0  0  0  0  0
  -21.4298  -29.3044   22.3574 N   0  0  0  0  0  0
  -26.4280  -37.3720   23.9409 N   0  0  0  0  0  0
  -24.7355  -31.0071   22.0850 N   0  0  0  0  0  0
  -23.4207  -28.8051   23.3030 O   0  0  0  0  0  0
  -28.2727  -25.9978   20.1720 O   0  0  0  0  0  0
  -26.5691  -34.8896   22.4618 O   0  0  0  0  0  0
  -23.5633  -32.1248   23.6919 O   0  0  0  0  0  0
  -29.4621  -23.4833   20.7904 C   0  0  0  0  0  0
  -27.6598  -23.0758   19.8471 C   0  0  0  0  0  0
  -29.8309  -17.0718   18.8797 C   0  0  0  0  0  0
  -29.5689  -17.7305   21.0347 C   0  0  0  0  0  0
  -29.8931  -18.6687   18.9465 C   0  0  1  0  0  0
  -28.9787  -22.1313   20.0302 C   0  0  2  0  0  0
  -29.0834  -19.1109   20.1822 C   0  0  2  0  0  0
  -28.1738  -24.4397   20.5784 C   0  0  2  0  0  0
  -29.4214  -19.2940   17.6242 C   0  0  0  0  0  0
  -29.7560  -16.3913   20.2074 N   0  0  0  0  0  0
  -29.1208  -20.6548   20.7438 N   0  3  0  0  0  0
  -31.4595  -12.9034   19.1779 H   0  0  0  0  0  0
  -30.4713  -11.7996   20.0910 H   0  0  0  0  0  0
  -29.8772  -11.7233   17.6429 H   0  0  0  0  0  0
  -29.5770  -13.4445   17.6468 H   0  0  0  0  0  0
  -27.9988  -11.2705   19.0456 H   0  0  0  0  0  0
  -27.3974  -12.3741   17.8354 H   0  0  0  0  0  0
  -27.5432  -14.2438   19.3449 H   0  0  0  0  0  0
  -28.7930  -12.4474   21.4778 H   0  0  0  0  0  0
  -28.3211  -14.1216   21.6930 H   0  0  0  0  0  0
  -25.2773   -9.5688   22.4758 H   0  0  0  0  0  0
  -24.0012   -7.4636   22.7469 H   0  0  0  0  0  0
  -21.0853   -8.8772   19.8948 H   0  0  0  0  0  0
  -22.3707  -10.9671   19.6162 H   0  0  0  0  0  0
  -21.2012   -7.6148   23.9715 H   0  0  0  0  0  0
  -21.1483   -6.0522   25.9077 H   0  0  0  0  0  0
  -22.0597   -2.7608   23.2845 H   0  0  0  0  0  0
  -22.4063  -11.9852   22.4844 H   0  0  0  0  0  0
  -21.1037  -13.1180   22.2646 H   0  0  0  0  0  0
  -24.6480  -15.8541   20.5458 H   0  0  0  0  0  0
  -26.2697  -15.6385   20.1188 H   0  0  0  0  0  0
  -26.7327  -32.5203   23.0922 H   0  0  0  0  0  0
  -25.0069  -33.9535   25.0237 H   0  0  0  0  0  0
  -22.7724  -31.2745   21.3579 H   0  0  0  0  0  0
  -23.3763  -35.9547   23.3286 H   0  0  0  0  0  0
  -24.3571  -36.8889   22.2065 H   0  0  0  0  0  0
  -23.7239  -37.6406   23.6711 H   0  0  0  0  0  0
  -26.1930  -31.4135   20.6104 H   0  0  0  0  0  0
  -26.8922  -30.7267   22.0378 H   0  0  0  0  0  0
  -28.1554  -28.7033   21.2282 H   0  0  0  0  0  0
  -25.9067  -25.7450   19.0564 H   0  0  0  0  0  0
  -23.9849  -27.2501   19.0011 H   0  0  0  0  0  0
  -23.8484  -30.5281   19.3904 H   0  0  0  0  0  0
  -22.8089  -29.2106   19.8363 H   0  0  0  0  0  0
  -25.1325  -36.1799   25.0798 H   0  0  0  0  0  0
  -21.0023  -28.3337   24.1335 H   0  0  0  0  0  0
  -20.5678  -26.2354   23.3635 H   0  0  0  0  0  0
  -21.6657  -26.7419   22.1206 H   0  0  0  0  0  0
  -19.6924  -25.6282   21.1265 H   0  0  0  0  0  0
  -19.6702  -27.3173   20.6731 H   0  0  0  0  0  0
  -17.4216  -26.6686   21.4028 H   0  0  0  0  0  0
  -18.0343  -26.0090   22.9029 H   0  0  0  0  0  0
  -19.7961  -30.7310   24.2215 H   0  0  0  0  0  0
  -17.5031  -31.6273   24.5166 H   0  0  0  0  0  0
  -15.5370  -30.2974   23.7685 H   0  0  0  0  0  0
  -15.8697  -28.0810   22.7097 H   0  0  0  0  0  0
  -24.5889  -30.7107   25.7681 H   0  0  0  0  0  0
  -24.8876  -32.2961   26.4703 H   0  0  0  0  0  0
  -25.7954  -30.8996   27.0205 H   0  0  0  0  0  0
  -26.3075  -29.6622   24.1351 H   0  0  0  0  0  0
  -27.3993  -29.7269   25.4973 H   0  0  0  0  0  0
  -27.9001  -30.4140   23.9728 H   0  0  0  0  0  0
  -27.2623  -33.3675   26.1974 H   0  0  0  0  0  0
  -28.3911  -32.6850   25.0359 H   0  0  0  0  0  0
  -28.0662  -31.8532   26.5488 H   0  0  0  0  0  0
  -28.2574  -38.0077   24.7513 H   0  0  0  0  0  0
  -28.1080  -36.2603   24.6297 H   0  0  0  0  0  0
  -27.2286  -37.1418   25.8869 H   0  0  0  0  0  0
  -20.9536  -29.8736   21.6716 H   0  0  0  0  0  0
  -26.0134  -38.2781   24.1418 H   0  0  0  0  0  0
  -30.3560  -23.9031   20.3273 H   0  0  0  0  0  0
  -29.6630  -23.3190   21.8497 H   0  0  0  0  0  0
  -26.7806  -22.6602   20.3407 H   0  0  0  0  0  0
  -27.4268  -23.2426   18.7951 H   0  0  0  0  0  0
  -30.6760  -16.6992   18.2969 H   0  0  0  0  0  0
  -28.9380  -16.7656   18.3320 H   0  0  0  0  0  0
  -30.5241  -17.9343   21.5210 H   0  0  0  0  0  0
  -28.8634  -17.5367   21.8428 H   0  0  0  0  0  0
  -30.9342  -18.9543   19.1076 H   0  0  0  0  0  0
  -29.5134  -22.0843   19.0824 H   0  0  0  0  0  0
  -28.0312  -18.9569   19.9380 H   0  0  0  0  0  0
  -27.6493  -24.4721   21.5348 H   0  0  0  0  0  0
  -29.5411  -20.3757   17.6198 H   0  0  0  0  0  0
  -28.3706  -19.0750   17.4315 H   0  0  0  0  0  0
  -29.9968  -18.9048   16.7835 H   0  0  0  0  0  0
  -28.4869  -20.6603   21.5258 H   0  0  0  0  0  0
  -30.0357  -20.6972   21.1615 H   0  0  0  0  0  0
  1 25  1  0  0  0
  1 30  2  0  0  0
  1 80  1  0  0  0
  2  3  1  0  0  0
  2 25  1  0  0  0
  2 82  1  0  0  0
  2 83  1  0  0  0
  3  4  1  0  0  0
  3 84  1  0  0  0
  3 85  1  0  0  0
  4  5  1  0  0  0
  4 86  1  0  0  0
  4 87  1  0  0  0
  5  6  1  0  0  0
  5 26  1  0  0  0
  5 88  1  0  0  0
  6 25  1  0  0  0
  6 89  1  0  0  0
  6 90  1  0  0  0
  7  8  2  0  0  0
  7 26  1  0  0  0
  7 29  1  0  0  0
  8  9  1  0  0  0
  8 22  1  0  0  0
  9 10  1  0  0  0
  9 27  2  0  0  0
 10 11  2  0  0  0
 10 15  1  0  0  0
 11 12  1  0  0  0
 11 91  1  0  0  0
 12 13  2  0  0  0
 12 92  1  0  0  0
 13 14  1  0  0  0
 13 31  1  0  0  0
 14 15  2  0  0  0
 14 93  1  0  0  0
 15 94  1  0  0  0
 16 17  2  0  0  0
 16 21  1  0  0  0
 16 31  1  0  0  0
 17 18  1  0  0  0
 17 95  1  0  0  0
 18 19  2  0  0  0
 18 96  1  0  0  0
 19 20  1  0  0  0
 19 24  1  0  0  0
 20 21  2  0  0  0
 20 97  1  0  0  0
 21 23  1  0  0  0
 22 28  1  0  0  0
 22 32  2  0  0  0
 26 27  1  0  0  0
 28 98  1  0  0  0
 28 99  1  0  0  0
 29100  1  0  0  0
 29101  1  0  0  0
 33 34  1  0  0  0
 33 66  1  0  0  0
 33 70  2  0  0  0
 34 36  1  0  0  0
 34 59  1  0  0  0
 34102  1  0  0  0
 35 44  2  0  0  0
 35 45  1  0  0  0
 35 68  1  0  0  0
 36 56  1  0  0  0
 36103  1  0  0  0
 37 39  1  0  0  0
 37 47  1  0  0  0
 37 66  1  0  0  0
 37104  1  0  0  0
 38 43  2  0  0  0
 38 46  1  0  0  0
 38 47  1  0  0  0
 39 64  1  0  0  0
 39 67  2  0  0  0
 40 52  1  0  0  0
 40 53  2  0  0  0
 40 58  1  0  0  0
 41105  1  0  0  0
 41106  1  0  0  0
 41107  1  0  0  0
 41 48  1  0  0  0
 42 43  1  0  0  0
 42 66  1  0  0  0
 42108  1  0  0  0
 42109  1  0  0  0
 43 44  1  0  0  0
 44110  1  0  0  0
 45 46  2  0  0  0
 45111  1  0  0  0
 46112  1  0  0  0
 47113  1  0  0  0
 47114  1  0  0  0
 48 56  1  0  0  0
 48 65  1  0  0  0
 48115  1  0  0  0
 49 50  1  0  0  0
 49 53  1  0  0  0
 49 64  1  0  0  0
 49116  1  0  0  0
 50 51  1  0  0  0
 50117  1  0  0  0
 50118  1  0  0  0
 51 52  1  0  0  0
 51119  1  0  0  0
 51120  1  0  0  0
 52121  1  0  0  0
 52122  1  0  0  0
 53 54  1  0  0  0
 54 55  2  0  0  0
 54123  1  0  0  0
 55 57  1  0  0  0
 55124  1  0  0  0
 56 69  2  0  0  0
 57 58  2  0  0  0
 57125  1  0  0  0
 58126  1  0  0  0
 59 60  1  0  0  0
 59 61  1  0  0  0
 59 62  1  0  0  0
 60127  1  0  0  0
 60128  1  0  0  0
 60129  1  0  0  0
 61130  1  0  0  0
 61131  1  0  0  0
 61132  1  0  0  0
 62133  1  0  0  0
 62134  1  0  0  0
 62135  1  0  0  0
 63 65  1  0  0  0
 63136  1  0  0  0
 63137  1  0  0  0
 63138  1  0  0  0
 64139  1  0  0  0
 65140  1  0  0  0
 68 78  1  0  0  0
 71 76  1  0  0  0
 71 78  1  0  0  0
 71141  1  0  0  0
 71142  1  0  0  0
 72 76  1  0  0  0
 72 78  1  0  0  0
 72143  1  0  0  0
 72144  1  0  0  0
 73 75  1  0  0  0
 73 80  1  0  0  0
 73145  1  0  0  0
 73146  1  0  0  0
 74 77  1  0  0  0
 74 80  1  0  0  0
 74147  1  0  0  0
 74148  1  0  0  0
 75 77  1  0  0  0
 75 79  1  0  0  0
 75149  1  0  0  0
 76 81  1  0  0  0
 76150  1  0  0  0
 77 81  1  0  0  0
 77151  1  0  0  0
 78152  1  0  0  0
 79153  1  0  0  0
 79154  1  0  0  0
 79155  1  0  0  0
 81156  1  0  0  0
 81157  1  0  0  0
M  CHG  1  81   1
M  ISO  4   1 100  68 101  78 101  80 100
M  END
> <chiral flag>
0

> <version>
0

> <s_m_source_file>
/data/baiqing/PycharmProjects/Reinvent-master-3.2/result/LINK_invent/BTK/process_docking_weight1_custom_sum_contain_oxygen_bond_distance_aromatic_linkinvent_7_9_3/rearranged_h_0183.sdf

> <i_m_source_file_index>
75

> <r_mmod_Potential_Energy-OPLS-2005>
1014.02404785156

> <r_mmod_Stretch_Energy-OPLS-2005>
377.116882324219

> <r_mmod_Bend_Energy-OPLS-2005>
481.814727783203

> <r_mmod_Torsional_Energy-OPLS-2005>
400.2255859375

> <r_mmod_Improper_Torsional_Energy-OPLS-2005>
15.776026725769

> <r_mmod_Van_der_Waal_Energy-OPLS-2005>
100.238174438477

> <r_mmod_Electrostatic_Energy-OPLS-2005>
-205.580322265625

> <r_mmod_Solvation_Energy-OPLS-2005>
-480.881317138672

> <b_mmod_Minimization_Converged-OPLS-2005>
0

> <r_mmod_RMS_Derivative-OPLS-2005>
0.304775357246399

$$$$
76
                    3D
 Structure written by MMmdl.
159169  0  0  1  0            999 V2000
  -30.5620  -14.9857   20.4326 C   0  0  0  0  0  0
  -30.4241  -12.6218   19.4962 C   0  0  0  0  0  0
  -29.5104  -12.5217   18.2541 C   0  0  0  0  0  0
  -28.0511  -12.2783   18.6793 C   0  0  0  0  0  0
  -27.6168  -13.2279   19.8219 C   0  0  2  0  0  0
  -28.6595  -13.3021   20.9600 C   0  0  0  0  0  0
  -25.2350  -13.8088   20.5682 C   0  0  0  0  0  0
  -24.1696  -13.0334   20.9249 C   0  0  0  0  0  0
  -24.6325  -11.6835   20.8769 C   0  0  0  0  0  0
  -23.9021  -10.4233   21.0430 C   0  0  0  0  0  0
  -24.3595   -9.4165   21.9208 C   0  0  0  0  0  0
  -23.6282   -8.2199   22.0766 C   0  0  0  0  0  0
  -22.4255   -8.0245   21.3557 C   0  0  0  0  0  0
  -21.9899   -9.0199   20.4652 C   0  0  0  0  0  0
  -22.7200  -10.2079   20.3075 C   0  0  0  0  0  0
  -21.6847   -6.0720   22.5280 C   0  0  0  0  0  0
  -21.3980   -6.5634   23.8206 C   0  0  0  0  0  0
  -21.3656   -5.6796   24.9177 C   0  0  0  0  0  0
  -21.6049   -4.3062   24.7236 C   0  0  0  0  0  0
  -21.8815   -3.8141   23.4363 C   0  0  0  0  0  0
  -21.9184   -4.6951   22.3413 C   0  0  0  0  0  0
  -22.7735  -13.5141   21.1916 C   0  0  0  0  0  0
  -22.1664   -4.2150   21.0989 F   0  0  0  0  0  0
  -21.5650   -3.4539   25.7755 F   0  0  0  0  0  0
  -29.9215  -13.7411   20.3531 N   0  0  0  0  0  0
  -26.2786  -12.9328   20.3179 N   0  0  0  0  0  0
  -25.9254  -11.6473   20.5754 N   0  0  0  0  0  0
  -22.0375  -12.8153   22.0478 N   0  0  0  0  0  0
  -25.3814  -15.1813   20.4086 N   0  0  0  0  0  0
  -31.7711  -14.9761   20.1616 O   0  0  0  0  0  0
  -21.6613   -6.8843   21.4240 O   0  0  0  0  0  0
  -22.3447  -14.5455   20.6761 O   0  0  0  0  0  0
  -24.6431  -31.8420   23.1885 C   0  0  0  0  0  0
  -25.9230  -32.4667   23.8274 C   0  0  1  0  0  0
  -27.2174  -27.1442   20.1579 C   0  0  0  0  0  0
  -25.6008  -33.8487   24.2205 N   0  0  0  0  0  0
  -23.4430  -30.4619   21.5291 C   0  0  2  0  0  0
  -24.8914  -28.8804   20.1106 C   0  0  0  0  0  0
  -22.7571  -29.4555   22.4852 C   0  0  0  0  0  0
  -18.0325  -28.1388   22.8488 C   0  0  0  0  0  0
  -24.1493  -36.7216   23.2638 C   0  0  0  0  0  0
  -25.9956  -30.7206   21.3821 C   0  0  0  0  0  0
  -26.0622  -29.3286   20.7310 C   0  0  0  0  0  0
  -27.2231  -28.4741   20.7391 C   0  0  0  0  0  0
  -26.0263  -26.7916   19.4883 C   0  0  0  0  0  0
  -24.8838  -27.6281   19.4735 C   0  0  0  0  0  0
  -23.6693  -29.7846   20.1492 C   0  0  0  0  0  0
  -25.4116  -36.2997   24.0320 C   0  0  1  0  0  0
  -20.5928  -28.3720   23.1227 C   0  0  2  0  0  0
  -20.6799  -26.9420   22.5387 C   0  0  0  0  0  0
  -19.5782  -26.6390   21.5189 C   0  0  0  0  0  0
  -18.1966  -26.7939   22.1605 C   0  0  0  0  0  0
  -19.1574  -28.8878   23.2847 C   0  0  0  0  0  0
  -18.9479  -30.1472   23.8861 C   0  0  0  0  0  0
  -17.6472  -30.6578   24.0553 C   0  0  0  0  0  0
  -25.9082  -34.9397   23.5061 C   0  0  0  0  0  0
  -16.5371  -29.9052   23.6329 C   0  0  0  0  0  0
  -16.7303  -28.6471   23.0354 C   0  0  0  0  0  0
  -26.4593  -31.6530   25.0709 C   0  0  0  0  0  0
  -25.3828  -31.3666   26.1421 C   0  0  0  0  0  0
  -27.0447  -30.2927   24.6260 C   0  0  0  0  0  0
  -27.6151  -32.4282   25.7482 C   0  0  0  0  0  0
  -27.5565  -37.1748   24.8478 C   0  0  0  0  0  0
  -21.4271  -29.3056   22.3612 N   0  0  0  0  0  0
  -26.4257  -37.3718   23.9440 N   0  0  0  0  0  0
  -24.7128  -31.0310   22.0894 N   0  0  0  0  0  0
  -23.4223  -28.8114   23.3000 O   0  0  0  0  0  0
  -28.3375  -26.2409   20.1914 O   0  0  0  0  0  0
  -26.5620  -34.8894   22.4608 O   0  0  0  0  0  0
  -23.5564  -32.1295   23.7144 O   0  0  0  0  0  0
  -28.0990  -22.6668   19.2739 C   0  0  0  0  0  0
  -28.9408  -21.9388   20.1806 C   0  0  0  0  0  0
  -29.4194  -22.8591   21.1675 C   0  0  0  0  0  0
  -28.3142  -24.8065   20.2856 C   0  0  0  0  0  0
  -31.4296  -23.3457   22.8069 C   0  0  0  0  0  0
  -31.8380  -22.2060   21.9123 C   0  0  0  0  0  0
  -28.1696  -18.1124   20.7174 C   0  0  0  0  0  0
  -28.5191  -16.5931   20.9865 C   0  0  0  0  0  0
  -30.4303  -17.6818   20.2331 C   0  0  0  0  0  0
  -30.3736  -22.4165   22.2378 C   0  0  0  0  0  0
  -29.4712  -18.9370   20.6869 C   0  0  1  0  0  0
  -29.5011  -20.4069   19.8589 C   0  0  0  0  0  0
  -27.8189  -24.0274   19.3056 N   0  0  0  0  0  0
  -29.1103  -24.2150   21.2009 N   0  0  0  0  0  0
  -29.8863  -16.2615   20.5314 N   0  0  0  0  0  0
  -31.4556  -12.7745   19.1756 H   0  0  0  0  0  0
  -30.4269  -11.6810   20.0496 H   0  0  0  0  0  0
  -29.8479  -11.7231   17.5925 H   0  0  0  0  0  0
  -29.5714  -13.4443   17.6750 H   0  0  0  0  0  0
  -27.9640  -11.2411   19.0088 H   0  0  0  0  0  0
  -27.3838  -12.3844   17.8243 H   0  0  0  0  0  0
  -27.5601  -14.1985   19.3349 H   0  0  0  0  0  0
  -28.7723  -12.3351   21.4533 H   0  0  0  0  0  0
  -28.3397  -13.9967   21.7358 H   0  0  0  0  0  0
  -25.2727   -9.5683   22.4787 H   0  0  0  0  0  0
  -24.0009   -7.4609   22.7502 H   0  0  0  0  0  0
  -21.0833   -8.8698   19.8978 H   0  0  0  0  0  0
  -22.3637  -10.9626   19.6215 H   0  0  0  0  0  0
  -21.1930   -7.6132   23.9710 H   0  0  0  0  0  0
  -21.1501   -6.0520   25.9086 H   0  0  0  0  0  0
  -22.0599   -2.7608   23.2841 H   0  0  0  0  0  0
  -22.3984  -11.9815   22.4869 H   0  0  0  0  0  0
  -21.1029  -13.1246   22.2742 H   0  0  0  0  0  0
  -24.6013  -15.8170   20.5339 H   0  0  0  0  0  0
  -26.2221  -15.6436   20.0914 H   0  0  0  0  0  0
  -26.7286  -32.5283   23.0999 H   0  0  0  0  0  0
  -25.0345  -33.9598   25.0471 H   0  0  0  0  0  0
  -22.7437  -31.2863   21.3726 H   0  0  0  0  0  0
  -23.3776  -35.9528   23.3271 H   0  0  0  0  0  0
  -24.3583  -36.8865   22.2063 H   0  0  0  0  0  0
  -23.7227  -37.6395   23.6671 H   0  0  0  0  0  0
  -26.1537  -31.4755   20.6097 H   0  0  0  0  0  0
  -26.8632  -30.7687   22.0272 H   0  0  0  0  0  0
  -28.1225  -28.8212   21.2259 H   0  0  0  0  0  0
  -25.9596  -25.8391   18.9818 H   0  0  0  0  0  0
  -23.9927  -27.2868   18.9637 H   0  0  0  0  0  0
  -23.8086  -30.5540   19.3896 H   0  0  0  0  0  0
  -22.7833  -29.2285   19.8371 H   0  0  0  0  0  0
  -25.1315  -36.1792   25.0802 H   0  0  0  0  0  0
  -21.0038  -28.3294   24.1337 H   0  0  0  0  0  0
  -20.5669  -26.2349   23.3617 H   0  0  0  0  0  0
  -21.6661  -26.7428   22.1175 H   0  0  0  0  0  0
  -19.6923  -25.6286   21.1248 H   0  0  0  0  0  0
  -19.6688  -27.3180   20.6697 H   0  0  0  0  0  0
  -17.4234  -26.6694   21.4001 H   0  0  0  0  0  0
  -18.0341  -26.0068   22.8989 H   0  0  0  0  0  0
  -19.7957  -30.7292   24.2197 H   0  0  0  0  0  0
  -17.5025  -31.6245   24.5175 H   0  0  0  0  0  0
  -15.5356  -30.2935   23.7663 H   0  0  0  0  0  0
  -15.8716  -28.0764   22.7085 H   0  0  0  0  0  0
  -24.6034  -30.6967   25.7755 H   0  0  0  0  0  0
  -24.8997  -32.2820   26.4846 H   0  0  0  0  0  0
  -25.8185  -30.8861   27.0194 H   0  0  0  0  0  0
  -26.3012  -29.6627   24.1337 H   0  0  0  0  0  0
  -27.4156  -29.7242   25.4808 H   0  0  0  0  0  0
  -27.8919  -30.4183   23.9509 H   0  0  0  0  0  0
  -27.2773  -33.3636   26.1958 H   0  0  0  0  0  0
  -28.4000  -32.6711   25.0310 H   0  0  0  0  0  0
  -28.0758  -31.8456   26.5467 H   0  0  0  0  0  0
  -28.2556  -38.0074   24.7529 H   0  0  0  0  0  0
  -28.1071  -36.2587   24.6273 H   0  0  0  0  0  0
  -27.2291  -37.1386   25.8885 H   0  0  0  0  0  0
  -20.9481  -29.8775   21.6795 H   0  0  0  0  0  0
  -26.0126  -38.2783   24.1439 H   0  0  0  0  0  0
  -27.6970  -22.1517   18.4140 H   0  0  0  0  0  0
  -31.5087  -24.3525   22.3996 H   0  0  0  0  0  0
  -31.6590  -23.2502   23.8664 H   0  0  0  0  0  0
  -32.3418  -21.3645   22.3810 H   0  0  0  0  0  0
  -32.1861  -22.4642   20.9127 H   0  0  0  0  0  0
  -27.4680  -18.4938   21.4634 H   0  0  0  0  0  0
  -27.6609  -18.1989   19.7546 H   0  0  0  0  0  0
  -27.8020  -15.9753   20.4652 H   0  0  0  0  0  0
  -28.4325  -16.3668   22.0530 H   0  0  0  0  0  0
  -31.4198  -17.7985   20.6798 H   0  0  0  0  0  0
  -30.5877  -17.7421   19.1542 H   0  0  0  0  0  0
  -29.9025  -21.7070   22.9153 H   0  0  0  0  0  0
  -29.7386  -19.1568   21.7244 H   0  0  0  0  0  0
  -30.5671  -20.5845   19.7058 H   0  0  0  0  0  0
  -29.1386  -20.1803   18.8535 H   0  0  0  0  0  0
  1 25  1  0  0  0
  1 30  2  0  0  0
  1 85  1  0  0  0
  2  3  1  0  0  0
  2 25  1  0  0  0
  2 86  1  0  0  0
  2 87  1  0  0  0
  3  4  1  0  0  0
  3 88  1  0  0  0
  3 89  1  0  0  0
  4  5  1  0  0  0
  4 90  1  0  0  0
  4 91  1  0  0  0
  5  6  1  0  0  0
  5 26  1  0  0  0
  5 92  1  0  0  0
  6 25  1  0  0  0
  6 93  1  0  0  0
  6 94  1  0  0  0
  7  8  2  0  0  0
  7 26  1  0  0  0
  7 29  1  0  0  0
  8  9  1  0  0  0
  8 22  1  0  0  0
  9 10  1  0  0  0
  9 27  2  0  0  0
 10 11  2  0  0  0
 10 15  1  0  0  0
 11 12  1  0  0  0
 11 95  1  0  0  0
 12 13  2  0  0  0
 12 96  1  0  0  0
 13 14  1  0  0  0
 13 31  1  0  0  0
 14 15  2  0  0  0
 14 97  1  0  0  0
 15 98  1  0  0  0
 16 17  2  0  0  0
 16 21  1  0  0  0
 16 31  1  0  0  0
 17 18  1  0  0  0
 17 99  1  0  0  0
 18 19  2  0  0  0
 18100  1  0  0  0
 19 20  1  0  0  0
 19 24  1  0  0  0
 20 21  2  0  0  0
 20101  1  0  0  0
 21 23  1  0  0  0
 22 28  1  0  0  0
 22 32  2  0  0  0
 26 27  1  0  0  0
 28102  1  0  0  0
 28103  1  0  0  0
 29104  1  0  0  0
 29105  1  0  0  0
 33 34  1  0  0  0
 33 66  1  0  0  0
 33 70  2  0  0  0
 34 36  1  0  0  0
 34 59  1  0  0  0
 34106  1  0  0  0
 35 44  2  0  0  0
 35 45  1  0  0  0
 35 68  1  0  0  0
 36 56  1  0  0  0
 36107  1  0  0  0
 37 39  1  0  0  0
 37 47  1  0  0  0
 37 66  1  0  0  0
 37108  1  0  0  0
 38 43  2  0  0  0
 38 46  1  0  0  0
 38 47  1  0  0  0
 39 64  1  0  0  0
 39 67  2  0  0  0
 40 52  1  0  0  0
 40 53  2  0  0  0
 40 58  1  0  0  0
 41109  1  0  0  0
 41110  1  0  0  0
 41111  1  0  0  0
 41 48  1  0  0  0
 42 43  1  0  0  0
 42 66  1  0  0  0
 42112  1  0  0  0
 42113  1  0  0  0
 43 44  1  0  0  0
 44114  1  0  0  0
 45 46  2  0  0  0
 45115  1  0  0  0
 46116  1  0  0  0
 47117  1  0  0  0
 47118  1  0  0  0
 48 56  1  0  0  0
 48 65  1  0  0  0
 48119  1  0  0  0
 49 50  1  0  0  0
 49 53  1  0  0  0
 49 64  1  0  0  0
 49120  1  0  0  0
 50 51  1  0  0  0
 50121  1  0  0  0
 50122  1  0  0  0
 51 52  1  0  0  0
 51123  1  0  0  0
 51124  1  0  0  0
 52125  1  0  0  0
 52126  1  0  0  0
 53 54  1  0  0  0
 54 55  2  0  0  0
 54127  1  0  0  0
 55 57  1  0  0  0
 55128  1  0  0  0
 56 69  2  0  0  0
 57 58  2  0  0  0
 57129  1  0  0  0
 58130  1  0  0  0
 59 60  1  0  0  0
 59 61  1  0  0  0
 59 62  1  0  0  0
 60131  1  0  0  0
 60132  1  0  0  0
 60133  1  0  0  0
 61134  1  0  0  0
 61135  1  0  0  0
 61136  1  0  0  0
 62137  1  0  0  0
 62138  1  0  0  0
 62139  1  0  0  0
 63 65  1  0  0  0
 63140  1  0  0  0
 63141  1  0  0  0
 63142  1  0  0  0
 64143  1  0  0  0
 65144  1  0  0  0
 68 74  1  0  0  0
 71 72  2  0  0  0
 71 83  1  0  0  0
 71145  1  0  0  0
 72 73  1  0  0  0
 72 82  1  0  0  0
 73 84  2  0  0  0
 73 80  1  0  0  0
 74 83  2  0  0  0
 74 84  1  0  0  0
 75 76  1  0  0  0
 75 80  1  0  0  0
 75146  1  0  0  0
 75147  1  0  0  0
 76 80  1  0  0  0
 76148  1  0  0  0
 76149  1  0  0  0
 77 78  1  0  0  0
 77 81  1  0  0  0
 77150  1  0  0  0
 77151  1  0  0  0
 78 85  1  0  0  0
 78152  1  0  0  0
 78153  1  0  0  0
 79 81  1  0  0  0
 79 85  1  0  0  0
 79154  1  0  0  0
 79155  1  0  0  0
 80156  1  0  0  0
 81 82  1  0  0  0
 81157  1  0  0  0
 82158  1  0  0  0
 82159  1  0  0  0
M  ISO  4   1 100  68 101  74 101  85 100
M  END
> <chiral flag>
0

> <version>
0

> <s_m_source_file>
/data/baiqing/PycharmProjects/Reinvent-master-3.2/result/LINK_invent/BTK/process_docking_weight1_custom_sum_contain_oxygen_bond_distance_aromatic_linkinvent_7_9_3/rearranged_h_0183.sdf

> <i_m_source_file_index>
76

> <r_mmod_Potential_Energy-OPLS-2005>
326.119567871094

> <r_mmod_Stretch_Energy-OPLS-2005>
218.304595947266

> <r_mmod_Bend_Energy-OPLS-2005>
311.937683105469

> <r_mmod_Torsional_Energy-OPLS-2005>
359.49169921875

> <r_mmod_Improper_Torsional_Energy-OPLS-2005>
11.5405244827271

> <r_mmod_Van_der_Waal_Energy-OPLS-2005>
129.701049804688

> <r_mmod_Electrostatic_Energy-OPLS-2005>
-678.499694824219

> <r_mmod_Solvation_Energy-OPLS-2005>
-218.594390869141

> <b_mmod_Minimization_Converged-OPLS-2005>
0

> <r_mmod_RMS_Derivative-OPLS-2005>
4.27375078201294

$$$$
77
                    3D
 Structure written by MMmdl.
155164  0  0  1  0            999 V2000
  -30.4401  -15.3330   20.4342 C   0  0  0  0  0  0
  -30.4390  -12.8588   19.5497 C   0  0  0  0  0  0
  -29.5508  -12.6024   18.3062 C   0  0  0  0  0  0
  -28.0895  -12.3285   18.6995 C   0  0  0  0  0  0
  -27.6215  -13.2718   19.8404 C   0  0  2  0  0  0
  -28.6553  -13.4363   20.9760 C   0  0  0  0  0  0
  -25.2445  -13.8224   20.5622 C   0  0  0  0  0  0
  -24.1748  -13.0448   20.9166 C   0  0  0  0  0  0
  -24.6408  -11.6936   20.8722 C   0  0  0  0  0  0
  -23.9075  -10.4323   21.0366 C   0  0  0  0  0  0
  -24.3631   -9.4280   21.9181 C   0  0  0  0  0  0
  -23.6331   -8.2309   22.0789 C   0  0  0  0  0  0
  -22.4320   -8.0310   21.3557 C   0  0  0  0  0  0
  -21.9915   -9.0276   20.4657 C   0  0  0  0  0  0
  -22.7229  -10.2158   20.3050 C   0  0  0  0  0  0
  -21.6908   -6.0741   22.5248 C   0  0  0  0  0  0
  -21.4053   -6.5662   23.8176 C   0  0  0  0  0  0
  -21.3663   -5.6819   24.9144 C   0  0  0  0  0  0
  -21.6019   -4.3078   24.7185 C   0  0  0  0  0  0
  -21.8858   -3.8165   23.4311 C   0  0  0  0  0  0
  -21.9240   -4.6979   22.3371 C   0  0  0  0  0  0
  -22.7789  -13.5268   21.1805 C   0  0  0  0  0  0
  -22.1735   -4.2165   21.0944 F   0  0  0  0  0  0
  -21.5588   -3.4546   25.7689 F   0  0  0  0  0  0
  -29.8614  -14.0135   20.3540 N   0  0  0  0  0  0
  -26.2888  -12.9472   20.3283 N   0  0  0  0  0  0
  -25.9364  -11.6587   20.5720 N   0  0  0  0  0  0
  -22.0375  -12.8302   22.0365 N   0  0  0  0  0  0
  -25.4224  -15.1890   20.3888 N   0  0  0  0  0  0
  -31.6603  -15.2879   20.2126 O   0  0  0  0  0  0
  -21.6715   -6.8870   21.4216 O   0  0  0  0  0  0
  -22.3531  -14.5557   20.6592 O   0  0  0  0  0  0
  -24.6679  -31.8159   23.1585 C   0  0  0  0  0  0
  -25.9365  -32.4531   23.8065 C   0  0  1  0  0  0
  -27.2162  -26.8514   20.2401 C   0  0  0  0  0  0
  -25.6093  -33.8338   24.2037 N   0  0  0  0  0  0
  -23.4831  -30.4265   21.5013 C   0  0  2  0  0  0
  -24.9478  -28.7953   20.1080 C   0  0  0  0  0  0
  -22.7665  -29.4387   22.4648 C   0  0  0  0  0  0
  -18.0370  -28.1383   22.8482 C   0  0  0  0  0  0
  -24.1497  -36.7134   23.2628 C   0  0  0  0  0  0
  -26.0528  -30.6012   21.4012 C   0  0  0  0  0  0
  -26.1209  -29.1794   20.7659 C   0  0  0  0  0  0
  -27.2447  -28.2254   20.8132 C   0  0  0  0  0  0
  -26.0255  -26.6435   19.5055 C   0  0  0  0  0  0
  -24.9295  -27.5504   19.4533 C   0  0  0  0  0  0
  -23.7339  -29.7309   20.1313 C   0  0  0  0  0  0
  -25.4140  -36.2906   24.0277 C   0  0  1  0  0  0
  -20.5997  -28.3708   23.1155 C   0  0  2  0  0  0
  -20.6835  -26.9388   22.5381 C   0  0  0  0  0  0
  -19.5781  -26.6366   21.5189 C   0  0  0  0  0  0
  -18.1979  -26.7939   22.1596 C   0  0  0  0  0  0
  -19.1620  -28.8875   23.2834 C   0  0  0  0  0  0
  -18.9501  -30.1503   23.8844 C   0  0  0  0  0  0
  -17.6490  -30.6584   24.0577 C   0  0  0  0  0  0
  -25.9107  -34.9304   23.4972 C   0  0  0  0  0  0
  -16.5404  -29.9064   23.6369 C   0  0  0  0  0  0
  -16.7343  -28.6480   23.0369 C   0  0  0  0  0  0
  -26.4670  -31.6441   25.0573 C   0  0  0  0  0  0
  -25.3773  -31.3634   26.1167 C   0  0  0  0  0  0
  -27.0559  -30.2807   24.6306 C   0  0  0  0  0  0
  -27.6218  -32.4158   25.7402 C   0  0  0  0  0  0
  -27.5554  -37.1716   24.8504 C   0  0  0  0  0  0
  -21.4333  -29.2998   22.3436 N   0  0  0  0  0  0
  -26.4280  -37.3664   23.9399 N   0  0  0  0  0  0
  -24.7549  -30.9765   22.0743 N   0  0  0  0  0  0
  -23.4202  -28.7943   23.2909 O   0  0  0  0  0  0
  -28.2000  -25.7161   20.4006 O   0  0  0  0  0  0
  -26.5623  -34.8893   22.4503 O   0  0  0  0  0  0
  -23.5725  -32.1157   23.6653 O   0  0  0  0  0  0
  -28.6483  -23.3121   22.4165 C   0  0  0  0  0  0
  -28.6333  -22.7118   21.1343 C   0  0  0  0  0  0
  -29.0009  -21.1440   21.2307 C   0  0  0  0  0  0
  -29.2773  -21.4545   23.5600 C   0  0  0  0  0  0
  -27.9370  -18.5318   20.9018 C   0  0  0  0  0  0
  -28.3105  -16.9668   20.7510 C   0  0  0  0  0  0
  -30.2020  -18.2502   20.5420 C   0  0  0  0  0  0
  -29.0414  -19.5578   20.4426 C   0  0  2  0  0  0
  -29.5824  -20.7897   24.8976 C   0  0  0  0  0  0
  -28.0981  -24.0548   20.1193 C   0  0  0  0  0  0
  -28.9300  -22.7223   23.5846 N   0  0  0  0  0  0
  -29.3407  -20.7096   22.4714 N   0  0  0  0  0  0
  -29.7518  -16.6802   20.5579 N   0  0  0  0  0  0
  -31.4536  -13.0796   19.2165 H   0  0  0  0  0  0
  -30.5316  -11.9616   20.1637 H   0  0  0  0  0  0
  -29.9502  -11.7670   17.7311 H   0  0  0  0  0  0
  -29.6008  -13.4789   17.6604 H   0  0  0  0  0  0
  -28.0142  -11.2840   19.0110 H   0  0  0  0  0  0
  -27.4390  -12.4337   17.8277 H   0  0  0  0  0  0
  -27.5429  -14.2490   19.3626 H   0  0  0  0  0  0
  -28.8599  -12.4751   21.4524 H   0  0  0  0  0  0
  -28.2840  -14.0893   21.7661 H   0  0  0  0  0  0
  -25.2760   -9.5821   22.4778 H   0  0  0  0  0  0
  -24.0038   -7.4759   22.7562 H   0  0  0  0  0  0
  -21.0833   -8.8772   19.9011 H   0  0  0  0  0  0
  -22.3645  -10.9681   19.6185 H   0  0  0  0  0  0
  -21.2093   -7.6173   23.9666 H   0  0  0  0  0  0
  -21.1453   -6.0542   25.9021 H   0  0  0  0  0  0
  -22.0648   -2.7620   23.2780 H   0  0  0  0  0  0
  -22.3963  -12.0019   22.4816 H   0  0  0  0  0  0
  -21.1018  -13.1435   22.2495 H   0  0  0  0  0  0
  -24.6805  -15.8697   20.5026 H   0  0  0  0  0  0
  -26.2684  -15.5859   20.0042 H   0  0  0  0  0  0
  -26.7397  -32.5097   23.0739 H   0  0  0  0  0  0
  -25.0543  -33.9457   25.0381 H   0  0  0  0  0  0
  -22.7994  -31.2583   21.3202 H   0  0  0  0  0  0
  -23.3796  -35.9440   23.3310 H   0  0  0  0  0  0
  -24.3527  -36.8733   22.2038 H   0  0  0  0  0  0
  -23.7220  -37.6312   23.6663 H   0  0  0  0  0  0
  -26.2309  -31.3118   20.5994 H   0  0  0  0  0  0
  -26.9121  -30.6759   22.0533 H   0  0  0  0  0  0
  -28.1169  -28.5085   21.3841 H   0  0  0  0  0  0
  -25.9001  -25.6979   19.0042 H   0  0  0  0  0  0
  -24.0389  -27.2470   18.9183 H   0  0  0  0  0  0
  -23.8878  -30.4885   19.3583 H   0  0  0  0  0  0
  -22.8501  -29.1769   19.8134 H   0  0  0  0  0  0
  -25.1353  -36.1698   25.0767 H   0  0  0  0  0  0
  -21.0188  -28.3335   24.1230 H   0  0  0  0  0  0
  -20.5685  -26.2322   23.3592 H   0  0  0  0  0  0
  -21.6687  -26.7319   22.1180 H   0  0  0  0  0  0
  -19.6908  -25.6244   21.1226 H   0  0  0  0  0  0
  -19.6778  -27.3173   20.6693 H   0  0  0  0  0  0
  -17.4281  -26.6744   21.4008 H   0  0  0  0  0  0
  -18.0394  -26.0075   22.8971 H   0  0  0  0  0  0
  -19.7957  -30.7357   24.2175 H   0  0  0  0  0  0
  -17.5011  -31.6258   24.5114 H   0  0  0  0  0  0
  -15.5382  -30.2913   23.7681 H   0  0  0  0  0  0
  -15.8759  -28.0756   22.7088 H   0  0  0  0  0  0
  -24.6120  -30.6865   25.7389 H   0  0  0  0  0  0
  -24.8803  -32.2794   26.4368 H   0  0  0  0  0  0
  -25.7981  -30.8924   27.0051 H   0  0  0  0  0  0
  -26.3193  -29.6448   24.1395 H   0  0  0  0  0  0
  -27.4205  -29.7237   25.4938 H   0  0  0  0  0  0
  -27.9130  -30.3975   23.9656 H   0  0  0  0  0  0
  -27.2934  -33.3578   26.1800 H   0  0  0  0  0  0
  -28.4186  -32.6420   25.0305 H   0  0  0  0  0  0
  -28.0710  -31.8301   26.5434 H   0  0  0  0  0  0
  -28.2614  -37.9988   24.7509 H   0  0  0  0  0  0
  -28.1016  -36.2486   24.6422 H   0  0  0  0  0  0
  -27.2242  -37.1471   25.8914 H   0  0  0  0  0  0
  -20.9544  -29.8666   21.6603 H   0  0  0  0  0  0
  -26.0141  -38.2751   24.1364 H   0  0  0  0  0  0
  -28.3673  -24.3475   22.5436 H   0  0  0  0  0  0
  -27.7248  -18.7086   21.9580 H   0  0  0  0  0  0
  -26.9974  -18.7382   20.3983 H   0  0  0  0  0  0
  -27.7932  -16.5627   19.8846 H   0  0  0  0  0  0
  -27.9391  -16.4205   21.6202 H   0  0  0  0  0  0
  -30.8157  -18.3996   21.4297 H   0  0  0  0  0  0
  -30.9120  -18.3838   19.7234 H   0  0  0  0  0  0
  -28.8858  -19.7591   19.3851 H   0  0  0  0  0  0
  -30.6455  -20.8462   25.1402 H   0  0  0  0  0  0
  -29.2966  -19.7387   24.8785 H   0  0  0  0  0  0
  -29.0310  -21.2446   25.7229 H   0  0  0  0  0  0
  -27.0428  -23.8563   19.9075 H   0  0  0  0  0  0
  -28.5844  -23.8892   19.1574 H   0  0  0  0  0  0
  1 25  1  0  0  0
  1 30  2  0  0  0
  1 83  1  0  0  0
  2  3  1  0  0  0
  2 25  1  0  0  0
  2 84  1  0  0  0
  2 85  1  0  0  0
  3  4  1  0  0  0
  3 86  1  0  0  0
  3 87  1  0  0  0
  4  5  1  0  0  0
  4 88  1  0  0  0
  4 89  1  0  0  0
  5  6  1  0  0  0
  5 26  1  0  0  0
  5 90  1  0  0  0
  6 25  1  0  0  0
  6 91  1  0  0  0
  6 92  1  0  0  0
  7  8  2  0  0  0
  7 26  1  0  0  0
  7 29  1  0  0  0
  8  9  1  0  0  0
  8 22  1  0  0  0
  9 10  1  0  0  0
  9 27  2  0  0  0
 10 11  2  0  0  0
 10 15  1  0  0  0
 11 12  1  0  0  0
 11 93  1  0  0  0
 12 13  2  0  0  0
 12 94  1  0  0  0
 13 14  1  0  0  0
 13 31  1  0  0  0
 14 15  2  0  0  0
 14 95  1  0  0  0
 15 96  1  0  0  0
 16 17  2  0  0  0
 16 21  1  0  0  0
 16 31  1  0  0  0
 17 18  1  0  0  0
 17 97  1  0  0  0
 18 19  2  0  0  0
 18 98  1  0  0  0
 19 20  1  0  0  0
 19 24  1  0  0  0
 20 21  2  0  0  0
 20 99  1  0  0  0
 21 23  1  0  0  0
 22 28  1  0  0  0
 22 32  2  0  0  0
 26 27  1  0  0  0
 28100  1  0  0  0
 28101  1  0  0  0
 29102  1  0  0  0
 29103  1  0  0  0
 33 34  1  0  0  0
 33 66  1  0  0  0
 33 70  2  0  0  0
 34 36  1  0  0  0
 34 59  1  0  0  0
 34104  1  0  0  0
 35 44  2  0  0  0
 35 45  1  0  0  0
 35 68  1  0  0  0
 36 56  1  0  0  0
 36105  1  0  0  0
 37 39  1  0  0  0
 37 47  1  0  0  0
 37 66  1  0  0  0
 37106  1  0  0  0
 38 43  2  0  0  0
 38 46  1  0  0  0
 38 47  1  0  0  0
 39 64  1  0  0  0
 39 67  2  0  0  0
 40 52  1  0  0  0
 40 53  2  0  0  0
 40 58  1  0  0  0
 41107  1  0  0  0
 41108  1  0  0  0
 41109  1  0  0  0
 41 48  1  0  0  0
 42 43  1  0  0  0
 42 66  1  0  0  0
 42110  1  0  0  0
 42111  1  0  0  0
 43 44  1  0  0  0
 44112  1  0  0  0
 45 46  2  0  0  0
 45113  1  0  0  0
 46114  1  0  0  0
 47115  1  0  0  0
 47116  1  0  0  0
 48 56  1  0  0  0
 48 65  1  0  0  0
 48117  1  0  0  0
 49 50  1  0  0  0
 49 53  1  0  0  0
 49 64  1  0  0  0
 49118  1  0  0  0
 50 51  1  0  0  0
 50119  1  0  0  0
 50120  1  0  0  0
 51 52  1  0  0  0
 51121  1  0  0  0
 51122  1  0  0  0
 52123  1  0  0  0
 52124  1  0  0  0
 53 54  1  0  0  0
 54 55  2  0  0  0
 54125  1  0  0  0
 55 57  1  0  0  0
 55126  1  0  0  0
 56 69  2  0  0  0
 57 58  2  0  0  0
 57127  1  0  0  0
 58128  1  0  0  0
 59 60  1  0  0  0
 59 61  1  0  0  0
 59 62  1  0  0  0
 60129  1  0  0  0
 60130  1  0  0  0
 60131  1  0  0  0
 61132  1  0  0  0
 61133  1  0  0  0
 61134  1  0  0  0
 62135  1  0  0  0
 62136  1  0  0  0
 62137  1  0  0  0
 63 65  1  0  0  0
 63138  1  0  0  0
 63139  1  0  0  0
 63140  1  0  0  0
 64141  1  0  0  0
 65142  1  0  0  0
 68 80  1  0  0  0
 71 72  2  0  0  0
 71 81  1  0  0  0
 71143  1  0  0  0
 72 73  1  0  0  0
 72 80  1  0  0  0
 73 82  2  0  0  0
 73 78  1  0  0  0
 74 79  1  0  0  0
 74 81  2  0  0  0
 74 82  1  0  0  0
 75 76  1  0  0  0
 75 78  1  0  0  0
 75144  1  0  0  0
 75145  1  0  0  0
 76 83  1  0  0  0
 76146  1  0  0  0
 76147  1  0  0  0
 77 78  1  0  0  0
 77 83  1  0  0  0
 77148  1  0  0  0
 77149  1  0  0  0
 78150  1  0  0  0
 79151  1  0  0  0
 79152  1  0  0  0
 79153  1  0  0  0
 80154  1  0  0  0
 80155  1  0  0  0
M  ISO  4   1 100  68 101  80 101  83 100
M  END
> <chiral flag>
0

> <version>
0

> <s_m_source_file>
/data/baiqing/PycharmProjects/Reinvent-master-3.2/result/LINK_invent/BTK/process_docking_weight1_custom_sum_contain_oxygen_bond_distance_aromatic_linkinvent_7_9_3/rearranged_h_0183.sdf

> <i_m_source_file_index>
77

> <r_mmod_Potential_Energy-OPLS-2005>
1419.11437988281

> <r_mmod_Stretch_Energy-OPLS-2005>
694.915100097656

> <r_mmod_Bend_Energy-OPLS-2005>
632.448791503906

> <r_mmod_Torsional_Energy-OPLS-2005>
321.582855224609

> <r_mmod_Improper_Torsional_Energy-OPLS-2005>
5.0977635383606

> <r_mmod_Van_der_Waal_Energy-OPLS-2005>
124.633911132812

> <r_mmod_Electrostatic_Energy-OPLS-2005>
-669.914672851562

> <r_mmod_Solvation_Energy-OPLS-2005>
-234.267822265625

> <b_mmod_Minimization_Converged-OPLS-2005>
0

> <r_mmod_RMS_Derivative-OPLS-2005>
8.78939819335938

$$$$
78
                    3D
 Structure written by MMmdl.
155164  0  0  1  0            999 V2000
  -30.3855  -15.4072   20.3400 C   0  0  0  0  0  0
  -30.4377  -12.9160   19.5158 C   0  0  0  0  0  0
  -29.5406  -12.5911   18.2933 C   0  0  0  0  0  0
  -28.0989  -12.2866   18.7348 C   0  0  0  0  0  0
  -27.6035  -13.2816   19.8118 C   0  0  2  0  0  0
  -28.6346  -13.5263   20.9327 C   0  0  0  0  0  0
  -25.2387  -13.8252   20.5786 C   0  0  0  0  0  0
  -24.1736  -13.0437   20.9264 C   0  0  0  0  0  0
  -24.6399  -11.6935   20.8762 C   0  0  0  0  0  0
  -23.9095  -10.4293   21.0410 C   0  0  0  0  0  0
  -24.3638   -9.4207   21.9188 C   0  0  0  0  0  0
  -23.6307   -8.2246   22.0755 C   0  0  0  0  0  0
  -22.4288   -8.0285   21.3543 C   0  0  0  0  0  0
  -21.9932   -9.0263   20.4644 C   0  0  0  0  0  0
  -22.7267  -10.2137   20.3057 C   0  0  0  0  0  0
  -21.6856   -6.0742   22.5279 C   0  0  0  0  0  0
  -21.4013   -6.5644   23.8213 C   0  0  0  0  0  0
  -21.3657   -5.6794   24.9174 C   0  0  0  0  0  0
  -21.6043   -4.3059   24.7223 C   0  0  0  0  0  0
  -21.8818   -3.8153   23.4347 C   0  0  0  0  0  0
  -21.9193   -4.6971   22.3403 C   0  0  0  0  0  0
  -22.7752  -13.5191   21.1904 C   0  0  0  0  0  0
  -22.1661   -4.2157   21.0981 F   0  0  0  0  0  0
  -21.5627   -3.4541   25.7737 F   0  0  0  0  0  0
  -29.8341  -14.0798   20.2764 N   0  0  0  0  0  0
  -26.2801  -12.9525   20.3221 N   0  0  0  0  0  0
  -25.9335  -11.6630   20.5711 N   0  0  0  0  0  0
  -22.0404  -12.8175   22.0457 N   0  0  0  0  0  0
  -25.4050  -15.1992   20.4272 N   0  0  0  0  0  0
  -31.6276  -15.3600   20.2871 O   0  0  0  0  0  0
  -21.6641   -6.8891   21.4244 O   0  0  0  0  0  0
  -22.3434  -14.5489   20.6737 O   0  0  0  0  0  0
  -24.6708  -31.8168   23.1652 C   0  0  0  0  0  0
  -25.9361  -32.4553   23.8139 C   0  0  1  0  0  0
  -27.2147  -26.8307   20.2145 C   0  0  0  0  0  0
  -25.6004  -33.8369   24.2054 N   0  0  0  0  0  0
  -23.4894  -30.4256   21.5166 C   0  0  2  0  0  0
  -24.9428  -28.7880   20.1308 C   0  0  0  0  0  0
  -22.7701  -29.4413   22.4768 C   0  0  0  0  0  0
  -18.0333  -28.1413   22.8475 C   0  0  0  0  0  0
  -24.1485  -36.7164   23.2645 C   0  0  0  0  0  0
  -26.0644  -30.5906   21.4129 C   0  0  0  0  0  0
  -26.1302  -29.1650   20.7719 C   0  0  0  0  0  0
  -27.2605  -28.2125   20.7843 C   0  0  0  0  0  0
  -25.9961  -26.6333   19.5229 C   0  0  0  0  0  0
  -24.9050  -27.5416   19.4870 C   0  0  0  0  0  0
  -23.7378  -29.7325   20.1488 C   0  0  0  0  0  0
  -25.4131  -36.2937   24.0298 C   0  0  1  0  0  0
  -20.5962  -28.3763   23.1176 C   0  0  2  0  0  0
  -20.6801  -26.9437   22.5403 C   0  0  0  0  0  0
  -19.5773  -26.6382   21.5215 C   0  0  0  0  0  0
  -18.1957  -26.7947   22.1628 C   0  0  0  0  0  0
  -19.1596  -28.8909   23.2811 C   0  0  0  0  0  0
  -18.9504  -30.1501   23.8845 C   0  0  0  0  0  0
  -17.6493  -30.6602   24.0552 C   0  0  0  0  0  0
  -25.9107  -34.9330   23.4994 C   0  0  0  0  0  0
  -16.5383  -29.9085   23.6351 C   0  0  0  0  0  0
  -16.7313  -28.6505   23.0379 C   0  0  0  0  0  0
  -26.4593  -31.6521   25.0695 C   0  0  0  0  0  0
  -25.3698  -31.3804   26.1336 C   0  0  0  0  0  0
  -27.0499  -30.2872   24.6494 C   0  0  0  0  0  0
  -27.6072  -32.4346   25.7502 C   0  0  0  0  0  0
  -27.5566  -37.1735   24.8466 C   0  0  0  0  0  0
  -21.4364  -29.3039   22.3512 N   0  0  0  0  0  0
  -26.4262  -37.3693   23.9426 N   0  0  0  0  0  0
  -24.7634  -30.9745   22.0841 N   0  0  0  0  0  0
  -23.4208  -28.7997   23.3049 O   0  0  0  0  0  0
  -28.2229  -25.7026   20.1059 O   0  0  0  0  0  0
  -26.5714  -34.8878   22.4589 O   0  0  0  0  0  0
  -23.5760  -32.1186   23.6687 O   0  0  0  0  0  0
  -28.6586  -21.8343   22.0566 C   0  0  0  0  0  0
  -28.3279  -23.0830   22.6373 C   0  0  0  0  0  0
  -28.7581  -21.6555   20.6684 C   0  0  0  0  0  0
  -28.2122  -24.2729   20.6344 C   0  0  0  0  0  0
  -30.0497  -17.7491   18.0606 C   0  0  0  0  0  0
  -30.8018  -18.5492   19.1353 C   0  0  0  0  0  0
  -29.0974  -16.8039   18.8245 C   0  0  0  0  0  0
  -29.8810  -18.4238   20.3465 C   0  0  1  0  0  0
  -28.1923  -23.1932   24.1424 C   0  0  0  0  0  0
  -28.8079  -19.9364   20.1465 C   0  0  0  0  0  0
  -28.1050  -24.2355   21.9568 N   0  0  0  0  0  0
  -28.5438  -22.9810   19.9952 N   0  0  0  0  0  0
  -29.6287  -16.7274   20.1869 N   0  0  0  0  0  0
  -31.4415  -13.1587   19.1639 H   0  0  0  0  0  0
  -30.5565  -12.0423   20.1588 H   0  0  0  0  0  0
  -29.9493  -11.7481   17.7341 H   0  0  0  0  0  0
  -29.5417  -13.4412   17.6091 H   0  0  0  0  0  0
  -28.0895  -11.2760   19.1453 H   0  0  0  0  0  0
  -27.4262  -12.2767   17.8759 H   0  0  0  0  0  0
  -27.4907  -14.2268   19.2805 H   0  0  0  0  0  0
  -28.8476  -12.6150   21.4931 H   0  0  0  0  0  0
  -28.2484  -14.2519   21.6499 H   0  0  0  0  0  0
  -25.2782   -9.5682   22.4768 H   0  0  0  0  0  0
  -24.0011   -7.4638   22.7478 H   0  0  0  0  0  0
  -21.0862   -8.8791   19.8950 H   0  0  0  0  0  0
  -22.3731  -10.9680   19.6167 H   0  0  0  0  0  0
  -21.2003   -7.6149   23.9717 H   0  0  0  0  0  0
  -21.1475   -6.0524   25.9076 H   0  0  0  0  0  0
  -22.0598   -2.7617   23.2841 H   0  0  0  0  0  0
  -22.4029  -11.9851   22.4865 H   0  0  0  0  0  0
  -21.1007  -13.1174   22.2632 H   0  0  0  0  0  0
  -24.6431  -15.8548   20.5606 H   0  0  0  0  0  0
  -26.2660  -15.6463   20.1400 H   0  0  0  0  0  0
  -26.7423  -32.5079   23.0839 H   0  0  0  0  0  0
  -25.0134  -33.9427   25.0194 H   0  0  0  0  0  0
  -22.8074  -31.2591   21.3368 H   0  0  0  0  0  0
  -23.3778  -35.9459   23.3264 H   0  0  0  0  0  0
  -24.3560  -36.8856   22.2066 H   0  0  0  0  0  0
  -23.7203  -37.6322   23.6728 H   0  0  0  0  0  0
  -26.2526  -31.3202   20.6241 H   0  0  0  0  0  0
  -26.9203  -30.6567   22.0720 H   0  0  0  0  0  0
  -28.1705  -28.5153   21.2825 H   0  0  0  0  0  0
  -25.8639  -25.6934   19.0057 H   0  0  0  0  0  0
  -24.0084  -27.2492   18.9578 H   0  0  0  0  0  0
  -23.9088  -30.4952   19.3880 H   0  0  0  0  0  0
  -22.8448  -29.1951   19.8259 H   0  0  0  0  0  0
  -25.1326  -36.1716   25.0786 H   0  0  0  0  0  0
  -21.0052  -28.3365   24.1298 H   0  0  0  0  0  0
  -20.5671  -26.2381   23.3649 H   0  0  0  0  0  0
  -21.6666  -26.7401   22.1216 H   0  0  0  0  0  0
  -19.6921  -25.6279   21.1283 H   0  0  0  0  0  0
  -19.6706  -27.3161   20.6716 H   0  0  0  0  0  0
  -17.4230  -26.6708   21.4025 H   0  0  0  0  0  0
  -18.0337  -26.0097   22.9030 H   0  0  0  0  0  0
  -19.7978  -30.7338   24.2188 H   0  0  0  0  0  0
  -17.5043  -31.6280   24.5163 H   0  0  0  0  0  0
  -15.5380  -30.2968   23.7701 H   0  0  0  0  0  0
  -15.8718  -28.0795   22.7130 H   0  0  0  0  0  0
  -24.5887  -30.7148   25.7646 H   0  0  0  0  0  0
  -24.8881  -32.3017   26.4617 H   0  0  0  0  0  0
  -25.7907  -30.9065   27.0211 H   0  0  0  0  0  0
  -26.3188  -29.6529   24.1470 H   0  0  0  0  0  0
  -27.3960  -29.7266   25.5191 H   0  0  0  0  0  0
  -27.9166  -30.4031   23.9982 H   0  0  0  0  0  0
  -27.2642  -33.3717   26.1903 H   0  0  0  0  0  0
  -28.3977  -32.6795   25.0392 H   0  0  0  0  0  0
  -28.0631  -31.8584   26.5564 H   0  0  0  0  0  0
  -28.2551  -38.0064   24.7556 H   0  0  0  0  0  0
  -28.1100  -36.2596   24.6249 H   0  0  0  0  0  0
  -27.2291  -37.1321   25.8870 H   0  0  0  0  0  0
  -20.9627  -29.8711   21.6618 H   0  0  0  0  0  0
  -26.0102  -38.2739   24.1474 H   0  0  0  0  0  0
  -28.7743  -20.9687   22.6968 H   0  0  0  0  0  0
  -30.7530  -17.1951   17.4369 H   0  0  0  0  0  0
  -29.4789  -18.4020   17.3981 H   0  0  0  0  0  0
  -31.0024  -19.5786   18.8346 H   0  0  0  0  0  0
  -31.7662  -18.0829   19.3464 H   0  0  0  0  0  0
  -29.0075  -15.8455   18.3073 H   0  0  0  0  0  0
  -28.0898  -17.2214   18.8684 H   0  0  0  0  0  0
  -30.4439  -18.5614   21.2703 H   0  0  0  0  0  0
  -28.0736  -22.2116   24.6008 H   0  0  0  0  0  0
  -27.3221  -23.7921   24.4114 H   0  0  0  0  0  0
  -29.0785  -23.6616   24.5706 H   0  0  0  0  0  0
  -28.5805  -19.9992   19.0829 H   0  0  0  0  0  0
  -27.8646  -19.5877   20.5673 H   0  0  0  0  0  0
  1 25  1  0  0  0
  1 30  2  0  0  0
  1 83  1  0  0  0
  2  3  1  0  0  0
  2 25  1  0  0  0
  2 84  1  0  0  0
  2 85  1  0  0  0
  3  4  1  0  0  0
  3 86  1  0  0  0
  3 87  1  0  0  0
  4  5  1  0  0  0
  4 88  1  0  0  0
  4 89  1  0  0  0
  5  6  1  0  0  0
  5 26  1  0  0  0
  5 90  1  0  0  0
  6 25  1  0  0  0
  6 91  1  0  0  0
  6 92  1  0  0  0
  7  8  2  0  0  0
  7 26  1  0  0  0
  7 29  1  0  0  0
  8  9  1  0  0  0
  8 22  1  0  0  0
  9 10  1  0  0  0
  9 27  2  0  0  0
 10 11  2  0  0  0
 10 15  1  0  0  0
 11 12  1  0  0  0
 11 93  1  0  0  0
 12 13  2  0  0  0
 12 94  1  0  0  0
 13 14  1  0  0  0
 13 31  1  0  0  0
 14 15  2  0  0  0
 14 95  1  0  0  0
 15 96  1  0  0  0
 16 17  2  0  0  0
 16 21  1  0  0  0
 16 31  1  0  0  0
 17 18  1  0  0  0
 17 97  1  0  0  0
 18 19  2  0  0  0
 18 98  1  0  0  0
 19 20  1  0  0  0
 19 24  1  0  0  0
 20 21  2  0  0  0
 20 99  1  0  0  0
 21 23  1  0  0  0
 22 28  1  0  0  0
 22 32  2  0  0  0
 26 27  1  0  0  0
 28100  1  0  0  0
 28101  1  0  0  0
 29102  1  0  0  0
 29103  1  0  0  0
 33 34  1  0  0  0
 33 66  1  0  0  0
 33 70  2  0  0  0
 34 36  1  0  0  0
 34 59  1  0  0  0
 34104  1  0  0  0
 35 44  2  0  0  0
 35 45  1  0  0  0
 35 68  1  0  0  0
 36 56  1  0  0  0
 36105  1  0  0  0
 37 39  1  0  0  0
 37 47  1  0  0  0
 37 66  1  0  0  0
 37106  1  0  0  0
 38 43  2  0  0  0
 38 46  1  0  0  0
 38 47  1  0  0  0
 39 64  1  0  0  0
 39 67  2  0  0  0
 40 52  1  0  0  0
 40 53  2  0  0  0
 40 58  1  0  0  0
 41107  1  0  0  0
 41108  1  0  0  0
 41109  1  0  0  0
 41 48  1  0  0  0
 42 43  1  0  0  0
 42 66  1  0  0  0
 42110  1  0  0  0
 42111  1  0  0  0
 43 44  1  0  0  0
 44112  1  0  0  0
 45 46  2  0  0  0
 45113  1  0  0  0
 46114  1  0  0  0
 47115  1  0  0  0
 47116  1  0  0  0
 48 56  1  0  0  0
 48 65  1  0  0  0
 48117  1  0  0  0
 49 50  1  0  0  0
 49 53  1  0  0  0
 49 64  1  0  0  0
 49118  1  0  0  0
 50 51  1  0  0  0
 50119  1  0  0  0
 50120  1  0  0  0
 51 52  1  0  0  0
 51121  1  0  0  0
 51122  1  0  0  0
 52123  1  0  0  0
 52124  1  0  0  0
 53 54  1  0  0  0
 54 55  2  0  0  0
 54125  1  0  0  0
 55 57  1  0  0  0
 55126  1  0  0  0
 56 69  2  0  0  0
 57 58  2  0  0  0
 57127  1  0  0  0
 58128  1  0  0  0
 59 60  1  0  0  0
 59 61  1  0  0  0
 59 62  1  0  0  0
 60129  1  0  0  0
 60130  1  0  0  0
 60131  1  0  0  0
 61132  1  0  0  0
 61133  1  0  0  0
 61134  1  0  0  0
 62135  1  0  0  0
 62136  1  0  0  0
 62137  1  0  0  0
 63 65  1  0  0  0
 63138  1  0  0  0
 63139  1  0  0  0
 63140  1  0  0  0
 64141  1  0  0  0
 65142  1  0  0  0
 68 74  1  0  0  0
 71 72  2  0  0  0
 71 73  1  0  0  0
 71143  1  0  0  0
 72 79  1  0  0  0
 72 81  1  0  0  0
 73 80  1  0  0  0
 73 82  2  0  0  0
 74 81  2  0  0  0
 74 82  1  0  0  0
 75 76  1  0  0  0
 75 77  1  0  0  0
 75144  1  0  0  0
 75145  1  0  0  0
 76 78  1  0  0  0
 76146  1  0  0  0
 76147  1  0  0  0
 77 83  1  0  0  0
 77148  1  0  0  0
 77149  1  0  0  0
 78 80  1  0  0  0
 78 83  1  0  0  0
 78150  1  0  0  0
 79151  1  0  0  0
 79152  1  0  0  0
 79153  1  0  0  0
 80154  1  0  0  0
 80155  1  0  0  0
M  ISO  4   1 100  68 101  74 101  83 100
M  END
> <chiral flag>
0

> <version>
0

> <s_m_source_file>
/data/baiqing/PycharmProjects/Reinvent-master-3.2/result/LINK_invent/BTK/process_docking_weight1_custom_sum_contain_oxygen_bond_distance_aromatic_linkinvent_7_9_3/rearranged_h_0183.sdf

> <i_m_source_file_index>
78

> <r_mmod_Potential_Energy-OPLS-2005>
1613.82250976562

> <r_mmod_Stretch_Energy-OPLS-2005>
736.642150878906

> <r_mmod_Bend_Energy-OPLS-2005>
591.846984863281

> <r_mmod_Torsional_Energy-OPLS-2005>
375.065002441406

> <r_mmod_Improper_Torsional_Energy-OPLS-2005>
16.3894805908203

> <r_mmod_Van_der_Waal_Energy-OPLS-2005>
124.292831420898

> <r_mmod_Electrostatic_Energy-OPLS-2005>
-605.130737304688

> <r_mmod_Solvation_Energy-OPLS-2005>
-234.324462890625

> <b_mmod_Minimization_Converged-OPLS-2005>
0

> <r_mmod_RMS_Derivative-OPLS-2005>
1.20382845401764

$$$$
79
                    3D
 Structure written by MMmdl.
164173  0  0  1  0            999 V2000
  -30.7142  -14.5013   20.5400 C   0  0  0  0  0  0
  -30.4134  -12.3149   19.4333 C   0  0  0  0  0  0
  -29.4917  -12.4916   18.2099 C   0  0  0  0  0  0
  -28.0138  -12.3548   18.6234 C   0  0  0  0  0  0
  -27.6547  -13.2136   19.8664 C   0  0  2  0  0  0
  -28.6991  -13.0368   20.9924 C   0  0  0  0  0  0
  -25.2560  -13.8177   20.5685 C   0  0  0  0  0  0
  -24.1827  -13.0448   20.9195 C   0  0  0  0  0  0
  -24.6388  -11.6916   20.8745 C   0  0  0  0  0  0
  -23.9060  -10.4297   21.0408 C   0  0  0  0  0  0
  -24.3612   -9.4213   21.9186 C   0  0  0  0  0  0
  -23.6288   -8.2246   22.0754 C   0  0  0  0  0  0
  -22.4275   -8.0281   21.3538 C   0  0  0  0  0  0
  -21.9913   -9.0257   20.4642 C   0  0  0  0  0  0
  -22.7234  -10.2138   20.3054 C   0  0  0  0  0  0
  -21.6852   -6.0737   22.5279 C   0  0  0  0  0  0
  -21.4009   -6.5639   23.8213 C   0  0  0  0  0  0
  -21.3658   -5.6791   24.9176 C   0  0  0  0  0  0
  -21.6047   -4.3056   24.7224 C   0  0  0  0  0  0
  -21.8821   -3.8149   23.4344 C   0  0  0  0  0  0
  -21.9191   -4.6964   22.3398 C   0  0  0  0  0  0
  -22.7847  -13.5231   21.1853 C   0  0  0  0  0  0
  -22.1664   -4.2151   21.0976 F   0  0  0  0  0  0
  -21.5629   -3.4538   25.7734 F   0  0  0  0  0  0
  -30.0256  -13.3292   20.4283 N   0  0  0  0  0  0
  -26.2990  -12.9361   20.3338 N   0  0  0  0  0  0
  -25.9312  -11.6517   20.5765 N   0  0  0  0  0  0
  -22.0485  -12.8228   22.0407 N   0  0  0  0  0  0
  -25.4282  -15.1898   20.4081 N   0  0  0  0  0  0
  -31.8644  -14.6066   20.1015 O   0  0  0  0  0  0
  -21.6636   -6.8883   21.4241 O   0  0  0  0  0  0
  -22.3542  -14.5539   20.6699 O   0  0  0  0  0  0
  -24.6153  -31.8665   23.2078 C   0  0  0  0  0  0
  -25.9036  -32.4813   23.8388 C   0  0  1  0  0  0
  -27.2328  -27.4216   20.1036 C   0  0  0  0  0  0
  -25.5885  -33.8613   24.2318 N   0  0  0  0  0  0
  -23.4053  -30.4871   21.5484 C   0  0  2  0  0  0
  -24.8531  -28.9484   20.1150 C   0  0  0  0  0  0
  -22.7415  -29.4641   22.4982 C   0  0  0  0  0  0
  -18.0270  -28.1368   22.8487 C   0  0  0  0  0  0
  -24.1479  -36.7307   23.2645 C   0  0  0  0  0  0
  -25.9340  -30.8289   21.3615 C   0  0  0  0  0  0
  -26.0137  -29.4611   20.7098 C   0  0  0  0  0  0
  -27.2102  -28.7067   20.6976 C   0  0  0  0  0  0
  -26.0587  -26.9224   19.5049 C   0  0  0  0  0  0
  -24.8707  -27.6795   19.5086 C   0  0  0  0  0  0
  -23.6157  -29.8167   20.1638 C   0  0  0  0  0  0
  -25.4101  -36.3105   24.0338 C   0  0  1  0  0  0
  -20.5861  -28.3660   23.1305 C   0  0  2  0  0  0
  -20.6756  -26.9394   22.5417 C   0  0  0  0  0  0
  -19.5740  -26.6381   21.5204 C   0  0  0  0  0  0
  -18.1914  -26.7915   22.1613 C   0  0  0  0  0  0
  -19.1521  -28.8828   23.2893 C   0  0  0  0  0  0
  -18.9459  -30.1428   23.8914 C   0  0  0  0  0  0
  -17.6461  -30.6582   24.0552 C   0  0  0  0  0  0
  -25.9023  -34.9473   23.5125 C   0  0  0  0  0  0
  -16.5347  -29.9086   23.6321 C   0  0  0  0  0  0
  -16.7259  -28.6491   23.0361 C   0  0  0  0  0  0
  -26.4469  -31.6601   25.0721 C   0  0  0  0  0  0
  -25.3733  -31.3701   26.1469 C   0  0  0  0  0  0
  -27.0310  -30.3045   24.6103 C   0  0  0  0  0  0
  -27.6042  -32.4331   25.7485 C   0  0  0  0  0  0
  -27.5576  -37.1808   24.8467 C   0  0  0  0  0  0
  -21.4143  -29.3025   22.3716 N   0  0  0  0  0  0
  -26.4287  -37.3790   23.9410 N   0  0  0  0  0  0
  -24.6700  -31.0749   22.0980 N   0  0  0  0  0  0
  -23.4182  -28.8181   23.3029 O   0  0  0  0  0  0
  -28.3824  -26.6611   20.0821 O   0  0  0  0  0  0
  -26.5599  -34.8927   22.4695 O   0  0  0  0  0  0
  -23.5342  -32.1434   23.7460 O   0  0  0  0  0  0
  -29.4949  -17.9826   20.9535 C   0  0  0  0  0  0
  -29.9439  -19.3197   21.0796 C   0  0  0  0  0  0
  -30.4402  -16.9355   21.0829 C   0  0  0  0  0  0
  -32.0600  -18.5439   21.4648 C   0  0  0  0  0  0
  -28.6710  -21.0750   22.4559 C   0  0  0  0  0  0
  -29.4980  -21.8036   20.3096 C   0  0  0  0  0  0
  -29.0052  -20.5409   21.0704 C   0  0  1  0  0  0
  -28.2084  -22.5182   22.2012 C   0  0  1  0  0  0
  -33.5189  -18.8496   21.7267 C   0  0  0  0  0  0
  -28.3495  -23.3551   23.4856 C   0  0  0  0  0  0
  -28.4793  -24.1318   20.2292 C   0  0  0  0  0  0
  -28.3821  -25.5104   20.9543 C   0  0  0  0  0  0
  -31.2349  -19.5763   21.3575 N   0  0  0  0  0  0
  -31.7222  -17.2663   21.3502 N   0  0  0  0  0  0
  -30.0039  -15.5744   20.9672 N   0  0  0  0  0  0
  -29.0391  -23.0119   21.0672 N   0  3  2  0  0  0
  -31.4593  -12.3919   19.1314 H   0  0  0  0  0  0
  -30.3040  -11.3158   19.8572 H   0  0  0  0  0  0
  -29.7336  -11.7506   17.4469 H   0  0  0  0  0  0
  -29.6597  -13.4683   17.7539 H   0  0  0  0  0  0
  -27.8288  -11.3009   18.8359 H   0  0  0  0  0  0
  -27.3627  -12.6128   17.7869 H   0  0  0  0  0  0
  -27.6853  -14.2538   19.5421 H   0  0  0  0  0  0
  -28.6802  -12.0139   21.3709 H   0  0  0  0  0  0
  -28.4651  -13.6729   21.8475 H   0  0  0  0  0  0
  -25.2756   -9.5687   22.4766 H   0  0  0  0  0  0
  -23.9994   -7.4637   22.7477 H   0  0  0  0  0  0
  -21.0845   -8.8773   19.8945 H   0  0  0  0  0  0
  -22.3694  -10.9678   19.6162 H   0  0  0  0  0  0
  -21.2003   -7.6148   23.9716 H   0  0  0  0  0  0
  -21.1478   -6.0522   25.9078 H   0  0  0  0  0  0
  -22.0602   -2.7612   23.2842 H   0  0  0  0  0  0
  -22.4094  -11.9880   22.4788 H   0  0  0  0  0  0
  -21.1101  -13.1257   22.2605 H   0  0  0  0  0  0
  -24.6583  -15.8426   20.5079 H   0  0  0  0  0  0
  -26.2694  -15.6246   20.0515 H   0  0  0  0  0  0
  -26.7112  -32.5523   23.1160 H   0  0  0  0  0  0
  -25.0028  -33.9767   25.0462 H   0  0  0  0  0  0
  -22.6956  -31.3041   21.4042 H   0  0  0  0  0  0
  -23.3742  -35.9641   23.3311 H   0  0  0  0  0  0
  -24.3570  -36.8920   22.2061 H   0  0  0  0  0  0
  -23.7231  -37.6508   23.6663 H   0  0  0  0  0  0
  -26.0489  -31.5963   20.5943 H   0  0  0  0  0  0
  -26.8217  -30.8830   21.9810 H   0  0  0  0  0  0
  -28.1079  -29.0998   21.1543 H   0  0  0  0  0  0
  -26.0654  -25.9507   19.0311 H   0  0  0  0  0  0
  -23.9793  -27.2792   19.0450 H   0  0  0  0  0  0
  -23.7275  -30.5913   19.4036 H   0  0  0  0  0  0
  -22.7394  -29.2373   19.8675 H   0  0  0  0  0  0
  -25.1285  -36.1966   25.0829 H   0  0  0  0  0  0
  -20.9949  -28.3229   24.1425 H   0  0  0  0  0  0
  -20.5640  -26.2279   23.3613 H   0  0  0  0  0  0
  -21.6627  -26.7419   22.1224 H   0  0  0  0  0  0
  -19.6911  -25.6298   21.1228 H   0  0  0  0  0  0
  -19.6676  -27.3184   20.6731 H   0  0  0  0  0  0
  -17.4187  -26.6666   21.4005 H   0  0  0  0  0  0
  -18.0290  -26.0057   22.9005 H   0  0  0  0  0  0
  -19.7937  -30.7220   24.2319 H   0  0  0  0  0  0
  -17.5026  -31.6270   24.5147 H   0  0  0  0  0  0
  -15.5353  -30.2999   23.7646 H   0  0  0  0  0  0
  -15.8651  -28.0808   22.7101 H   0  0  0  0  0  0
  -24.5908  -30.7043   25.7813 H   0  0  0  0  0  0
  -24.8913  -32.2847   26.4933 H   0  0  0  0  0  0
  -25.8091  -30.8872   27.0223 H   0  0  0  0  0  0
  -26.2853  -29.6789   24.1180 H   0  0  0  0  0  0
  -27.4107  -29.7304   25.4568 H   0  0  0  0  0  0
  -27.8677  -30.4377   23.9238 H   0  0  0  0  0  0
  -27.2659  -33.3633   26.2070 H   0  0  0  0  0  0
  -28.3844  -32.6893   25.0302 H   0  0  0  0  0  0
  -28.0719  -31.8447   26.5393 H   0  0  0  0  0  0
  -28.2606  -38.0101   24.7513 H   0  0  0  0  0  0
  -28.1060  -36.2626   24.6294 H   0  0  0  0  0  0
  -27.2285  -37.1457   25.8871 H   0  0  0  0  0  0
  -20.9312  -29.8769   21.6955 H   0  0  0  0  0  0
  -26.0175  -38.2862   24.1430 H   0  0  0  0  0  0
  -28.4494  -17.7741   20.7696 H   0  0  0  0  0  0
  -29.5723  -21.0776   23.0721 H   0  0  0  0  0  0
  -27.9251  -20.4680   22.9689 H   0  0  0  0  0  0
  -29.1444  -21.7905   19.2784 H   0  0  0  0  0  0
  -30.5862  -21.8473   20.2665 H   0  0  0  0  0  0
  -28.0705  -20.2306   20.6010 H   0  0  0  0  0  0
  -27.1626  -22.4955   21.8867 H   0  0  0  0  0  0
  -33.6292  -19.7741   22.2930 H   0  0  0  0  0  0
  -34.0529  -18.9638   20.7836 H   0  0  0  0  0  0
  -33.9941  -18.0484   22.2935 H   0  0  0  0  0  0
  -29.3941  -23.4717   23.7759 H   0  0  0  0  0  0
  -27.8376  -22.8637   24.3141 H   0  0  0  0  0  0
  -27.9093  -24.3455   23.4015 H   0  0  0  0  0  0
  -29.1447  -24.2626   19.3748 H   0  0  0  0  0  0
  -27.5101  -23.8490   19.8184 H   0  0  0  0  0  0
  -29.2463  -25.6316   21.6079 H   0  0  0  0  0  0
  -27.5066  -25.5250   21.6051 H   0  0  0  0  0  0
  -29.0339  -15.3995   21.1677 H   0  0  0  0  0  0
  -29.8926  -23.3620   21.4788 H   0  0  0  0  0  0
  1 25  1  0  0  0
  1 30  2  0  0  0
  1 85  1  0  0  0
  2  3  1  0  0  0
  2 25  1  0  0  0
  2 87  1  0  0  0
  2 88  1  0  0  0
  3  4  1  0  0  0
  3 89  1  0  0  0
  3 90  1  0  0  0
  4  5  1  0  0  0
  4 91  1  0  0  0
  4 92  1  0  0  0
  5  6  1  0  0  0
  5 26  1  0  0  0
  5 93  1  0  0  0
  6 25  1  0  0  0
  6 94  1  0  0  0
  6 95  1  0  0  0
  7  8  2  0  0  0
  7 26  1  0  0  0
  7 29  1  0  0  0
  8  9  1  0  0  0
  8 22  1  0  0  0
  9 10  1  0  0  0
  9 27  2  0  0  0
 10 11  2  0  0  0
 10 15  1  0  0  0
 11 12  1  0  0  0
 11 96  1  0  0  0
 12 13  2  0  0  0
 12 97  1  0  0  0
 13 14  1  0  0  0
 13 31  1  0  0  0
 14 15  2  0  0  0
 14 98  1  0  0  0
 15 99  1  0  0  0
 16 17  2  0  0  0
 16 21  1  0  0  0
 16 31  1  0  0  0
 17 18  1  0  0  0
 17100  1  0  0  0
 18 19  2  0  0  0
 18101  1  0  0  0
 19 20  1  0  0  0
 19 24  1  0  0  0
 20 21  2  0  0  0
 20102  1  0  0  0
 21 23  1  0  0  0
 22 28  1  0  0  0
 22 32  2  0  0  0
 26 27  1  0  0  0
 28103  1  0  0  0
 28104  1  0  0  0
 29105  1  0  0  0
 29106  1  0  0  0
 33 34  1  0  0  0
 33 66  1  0  0  0
 33 70  2  0  0  0
 34 36  1  0  0  0
 34 59  1  0  0  0
 34107  1  0  0  0
 35 44  2  0  0  0
 35 45  1  0  0  0
 35 68  1  0  0  0
 36 56  1  0  0  0
 36108  1  0  0  0
 37 39  1  0  0  0
 37 47  1  0  0  0
 37 66  1  0  0  0
 37109  1  0  0  0
 38 43  2  0  0  0
 38 46  1  0  0  0
 38 47  1  0  0  0
 39 64  1  0  0  0
 39 67  2  0  0  0
 40 52  1  0  0  0
 40 53  2  0  0  0
 40 58  1  0  0  0
 41110  1  0  0  0
 41111  1  0  0  0
 41112  1  0  0  0
 41 48  1  0  0  0
 42 43  1  0  0  0
 42 66  1  0  0  0
 42113  1  0  0  0
 42114  1  0  0  0
 43 44  1  0  0  0
 44115  1  0  0  0
 45 46  2  0  0  0
 45116  1  0  0  0
 46117  1  0  0  0
 47118  1  0  0  0
 47119  1  0  0  0
 48 56  1  0  0  0
 48 65  1  0  0  0
 48120  1  0  0  0
 49 50  1  0  0  0
 49 53  1  0  0  0
 49 64  1  0  0  0
 49121  1  0  0  0
 50 51  1  0  0  0
 50122  1  0  0  0
 50123  1  0  0  0
 51 52  1  0  0  0
 51124  1  0  0  0
 51125  1  0  0  0
 52126  1  0  0  0
 52127  1  0  0  0
 53 54  1  0  0  0
 54 55  2  0  0  0
 54128  1  0  0  0
 55 57  1  0  0  0
 55129  1  0  0  0
 56 69  2  0  0  0
 57 58  2  0  0  0
 57130  1  0  0  0
 58131  1  0  0  0
 59 60  1  0  0  0
 59 61  1  0  0  0
 59 62  1  0  0  0
 60132  1  0  0  0
 60133  1  0  0  0
 60134  1  0  0  0
 61135  1  0  0  0
 61136  1  0  0  0
 61137  1  0  0  0
 62138  1  0  0  0
 62139  1  0  0  0
 62140  1  0  0  0
 63 65  1  0  0  0
 63141  1  0  0  0
 63142  1  0  0  0
 63143  1  0  0  0
 64144  1  0  0  0
 65145  1  0  0  0
 68 82  1  0  0  0
 71 72  2  0  0  0
 71 73  1  0  0  0
 71146  1  0  0  0
 72 83  1  0  0  0
 72 77  1  0  0  0
 73 84  2  0  0  0
 73 85  1  0  0  0
 74 79  1  0  0  0
 74 83  2  0  0  0
 74 84  1  0  0  0
 75 77  1  0  0  0
 75 78  1  0  0  0
 75147  1  0  0  0
 75148  1  0  0  0
 76 77  1  0  0  0
 76 86  1  0  0  0
 76149  1  0  0  0
 76150  1  0  0  0
 77151  1  0  0  0
 78 80  1  0  0  0
 78 86  1  0  0  0
 78152  1  0  0  0
 79153  1  0  0  0
 79154  1  0  0  0
 79155  1  0  0  0
 80156  1  0  0  0
 80157  1  0  0  0
 80158  1  0  0  0
 81 82  1  0  0  0
 81159  1  0  0  0
 81160  1  0  0  0
 81 86  1  0  0  0
 82161  1  0  0  0
 82162  1  0  0  0
 85163  1  0  0  0
 86164  1  0  0  0
M  CHG  1  86   1
M  ISO  4   1 100  68 101  82 101  85 100
M  END
> <chiral flag>
0

> <version>
0

> <s_m_source_file>
/data/baiqing/PycharmProjects/Reinvent-master-3.2/result/LINK_invent/BTK/process_docking_weight1_custom_sum_contain_oxygen_bond_distance_aromatic_linkinvent_7_9_3/rearranged_h_0183.sdf

> <i_m_source_file_index>
79

> <r_mmod_Potential_Energy-OPLS-2005>
-501.843170166016

> <r_mmod_Stretch_Energy-OPLS-2005>
42.4410247802734

> <r_mmod_Bend_Energy-OPLS-2005>
128.852813720703

> <r_mmod_Torsional_Energy-OPLS-2005>
295.166625976562

> <r_mmod_Improper_Torsional_Energy-OPLS-2005>
4.93727350234985

> <r_mmod_Van_der_Waal_Energy-OPLS-2005>
153.168487548828

> <r_mmod_Electrostatic_Energy-OPLS-2005>
-683.212707519531

> <r_mmod_Solvation_Energy-OPLS-2005>
-460.259063720703

> <b_mmod_Minimization_Converged-OPLS-2005>
0

> <r_mmod_RMS_Derivative-OPLS-2005>
1.43236696720123

$$$$
80
                    3D
 Structure written by MMmdl.
160169  0  0  1  0            999 V2000
  -30.5065  -15.0936   20.3401 C   0  0  0  0  0  0
  -30.4407  -12.6798   19.4945 C   0  0  0  0  0  0
  -29.5235  -12.5094   18.2604 C   0  0  0  0  0  0
  -28.0614  -12.2827   18.6930 C   0  0  0  0  0  0
  -27.6122  -13.2412   19.8263 C   0  0  2  0  0  0
  -28.6634  -13.3750   20.9472 C   0  0  0  0  0  0
  -25.2439  -13.8166   20.5790 C   0  0  0  0  0  0
  -24.1746  -13.0401   20.9264 C   0  0  0  0  0  0
  -24.6360  -11.6885   20.8788 C   0  0  0  0  0  0
  -23.9048  -10.4268   21.0423 C   0  0  0  0  0  0
  -24.3608   -9.4184   21.9196 C   0  0  0  0  0  0
  -23.6288   -8.2220   22.0755 C   0  0  0  0  0  0
  -22.4270   -8.0265   21.3540 C   0  0  0  0  0  0
  -21.9906   -9.0235   20.4643 C   0  0  0  0  0  0
  -22.7231  -10.2116   20.3061 C   0  0  0  0  0  0
  -21.6846   -6.0730   22.5280 C   0  0  0  0  0  0
  -21.4007   -6.5636   23.8212 C   0  0  0  0  0  0
  -21.3658   -5.6791   24.9176 C   0  0  0  0  0  0
  -21.6043   -4.3054   24.7226 C   0  0  0  0  0  0
  -21.8820   -3.8145   23.4349 C   0  0  0  0  0  0
  -21.9191   -4.6960   22.3405 C   0  0  0  0  0  0
  -22.7773  -13.5189   21.1901 C   0  0  0  0  0  0
  -22.1660   -4.2146   21.0984 F   0  0  0  0  0  0
  -21.5631   -3.4539   25.7739 F   0  0  0  0  0  0
  -29.9117  -13.8177   20.3086 N   0  0  0  0  0  0
  -26.2829  -12.9358   20.3300 N   0  0  0  0  0  0
  -25.9289  -11.6504   20.5787 N   0  0  0  0  0  0
  -22.0416  -12.8180   22.0450 N   0  0  0  0  0  0
  -25.4147  -15.1898   20.4270 N   0  0  0  0  0  0
  -31.7421  -15.0936   20.2680 O   0  0  0  0  0  0
  -21.6632   -6.8867   21.4239 O   0  0  0  0  0  0
  -22.3472  -14.5496   20.6736 O   0  0  0  0  0  0
  -24.6507  -31.8363   23.1812 C   0  0  0  0  0  0
  -25.9246  -32.4656   23.8229 C   0  0  1  0  0  0
  -27.2186  -27.0587   20.1700 C   0  0  0  0  0  0
  -25.5967  -33.8467   24.2141 N   0  0  0  0  0  0
  -23.4584  -30.4518   21.5283 C   0  0  2  0  0  0
  -24.9093  -28.8610   20.1125 C   0  0  0  0  0  0
  -22.7601  -29.4509   22.4840 C   0  0  0  0  0  0
  -18.0307  -28.1405   22.8477 C   0  0  0  0  0  0
  -24.1490  -36.7236   23.2646 C   0  0  0  0  0  0
  -26.0186  -30.6858   21.3903 C   0  0  0  0  0  0
  -26.0885  -29.2878   20.7357 C   0  0  0  0  0  0
  -27.2427  -28.4053   20.7417 C   0  0  0  0  0  0
  -26.0136  -26.7508   19.5025 C   0  0  0  0  0  0
  -24.8889  -27.6090   19.4776 C   0  0  0  0  0  0
  -23.6896  -29.7739   20.1506 C   0  0  0  0  0  0
  -25.4125  -36.3008   24.0309 C   0  0  1  0  0  0
  -20.5924  -28.3737   23.1223 C   0  0  2  0  0  0
  -20.6791  -26.9434   22.5407 C   0  0  0  0  0  0
  -19.5766  -26.6383   21.5218 C   0  0  0  0  0  0
  -18.1945  -26.7944   22.1621 C   0  0  0  0  0  0
  -19.1567  -28.8891   23.2838 C   0  0  0  0  0  0
  -18.9482  -30.1484   23.8868 C   0  0  0  0  0  0
  -17.6477  -30.6601   24.0561 C   0  0  0  0  0  0
  -25.9080  -34.9390   23.5036 C   0  0  0  0  0  0
  -16.5368  -29.9092   23.6342 C   0  0  0  0  0  0
  -16.7290  -28.6508   23.0363 C   0  0  0  0  0  0
  -26.4543  -31.6560   25.0707 C   0  0  0  0  0  0
  -25.3704  -31.3776   26.1386 C   0  0  0  0  0  0
  -27.0425  -30.2949   24.6345 C   0  0  0  0  0  0
  -27.6052  -32.4350   25.7501 C   0  0  0  0  0  0
  -27.5566  -37.1773   24.8466 C   0  0  0  0  0  0
  -21.4284  -29.3051   22.3589 N   0  0  0  0  0  0
  -26.4278  -37.3734   23.9412 N   0  0  0  0  0  0
  -24.7296  -31.0148   22.0879 N   0  0  0  0  0  0
  -23.4208  -28.8062   23.3024 O   0  0  0  0  0  0
  -28.2619  -26.0389   20.2278 O   0  0  0  0  0  0
  -26.5673  -34.8906   22.4622 O   0  0  0  0  0  0
  -23.5607  -32.1273   23.6983 O   0  0  0  0  0  0
  -29.7873  -17.3196   17.9449 C   0  0  0  0  0  0
  -30.7623  -18.0741   18.8402 C   0  0  0  0  0  0
  -28.5334  -23.3324   19.2641 C   0  0  0  0  0  0
  -29.0312  -16.3609   18.8818 C   0  0  0  0  0  0
  -28.7646  -23.4295   21.2772 C   0  0  1  0  0  0
  -28.4909  -22.1268   20.3463 C   0  0  2  0  0  0
  -28.0053  -24.4655   20.2864 C   0  0  1  0  0  0
  -30.1383  -17.9124   20.2243 C   0  0  1  0  0  0
  -28.2981  -23.3780   22.7253 C   0  0  0  0  0  0
  -29.0632  -19.2697   20.4194 C   0  0  0  0  0  0
  -29.7486  -16.3360   20.1686 N   0  0  0  0  0  0
  -29.4743  -20.8328   20.2984 N   0  3  0  0  0  0
  -31.4660  -12.8621   19.1679 H   0  0  0  0  0  0
  -30.4722  -11.7625   20.0845 H   0  0  0  0  0  0
  -29.8636  -11.6703   17.6520 H   0  0  0  0  0  0
  -29.5923  -13.3877   17.6186 H   0  0  0  0  0  0
  -27.9863  -11.2521   19.0414 H   0  0  0  0  0  0
  -27.3920  -12.3623   17.8356 H   0  0  0  0  0  0
  -27.5132  -14.2107   19.3523 H   0  0  0  0  0  0
  -28.7972  -12.4349   21.4840 H   0  0  0  0  0  0
  -28.3409  -14.1147   21.6821 H   0  0  0  0  0  0
  -25.2747   -9.5664   22.4778 H   0  0  0  0  0  0
  -23.9993   -7.4609   22.7472 H   0  0  0  0  0  0
  -21.0838   -8.8753   19.8948 H   0  0  0  0  0  0
  -22.3689  -10.9658   19.6175 H   0  0  0  0  0  0
  -21.1996   -7.6145   23.9711 H   0  0  0  0  0  0
  -21.1478   -6.0525   25.9077 H   0  0  0  0  0  0
  -22.0602   -2.7608   23.2850 H   0  0  0  0  0  0
  -22.4034  -11.9845   22.4842 H   0  0  0  0  0  0
  -21.1026  -13.1189   22.2642 H   0  0  0  0  0  0
  -24.6527  -15.8469   20.5531 H   0  0  0  0  0  0
  -26.2803  -15.6339   20.1506 H   0  0  0  0  0  0
  -26.7311  -32.5239   23.0948 H   0  0  0  0  0  0
  -25.0102  -33.9574   25.0282 H   0  0  0  0  0  0
  -22.7651  -31.2798   21.3666 H   0  0  0  0  0  0
  -23.3764  -35.9555   23.3291 H   0  0  0  0  0  0
  -24.3568  -36.8890   22.2063 H   0  0  0  0  0  0
  -23.7237  -37.6419   23.6703 H   0  0  0  0  0  0
  -26.1808  -31.4341   20.6131 H   0  0  0  0  0  0
  -26.8865  -30.7404   22.0357 H   0  0  0  0  0  0
  -28.1403  -28.7294   21.2490 H   0  0  0  0  0  0
  -25.9176  -25.7957   19.0071 H   0  0  0  0  0  0
  -23.9917  -27.2783   18.9729 H   0  0  0  0  0  0
  -23.8345  -30.5458   19.3939 H   0  0  0  0  0  0
  -22.8022  -29.2210   19.8374 H   0  0  0  0  0  0
  -25.1320  -36.1817   25.0800 H   0  0  0  0  0  0
  -21.0006  -28.3331   24.1348 H   0  0  0  0  0  0
  -20.5690  -26.2353   23.3634 H   0  0  0  0  0  0
  -21.6655  -26.7437   22.1200 H   0  0  0  0  0  0
  -19.6929  -25.6285   21.1270 H   0  0  0  0  0  0
  -19.6705  -27.3177   20.6737 H   0  0  0  0  0  0
  -17.4216  -26.6697   21.4021 H   0  0  0  0  0  0
  -18.0330  -26.0093   22.9021 H   0  0  0  0  0  0
  -19.7957  -30.7309   24.2224 H   0  0  0  0  0  0
  -17.5031  -31.6280   24.5166 H   0  0  0  0  0  0
  -15.5368  -30.2984   23.7690 H   0  0  0  0  0  0
  -15.8687  -28.0818   22.7099 H   0  0  0  0  0  0
  -24.5890  -30.7120   25.7705 H   0  0  0  0  0  0
  -24.8889  -32.2970   26.4728 H   0  0  0  0  0  0
  -25.7962  -30.9001   27.0218 H   0  0  0  0  0  0
  -26.3066  -29.6653   24.1331 H   0  0  0  0  0  0
  -27.3995  -29.7275   25.4950 H   0  0  0  0  0  0
  -27.8988  -30.4178   23.9711 H   0  0  0  0  0  0
  -27.2631  -33.3685   26.1982 H   0  0  0  0  0  0
  -28.3911  -32.6856   25.0363 H   0  0  0  0  0  0
  -28.0669  -31.8543   26.5494 H   0  0  0  0  0  0
  -28.2573  -38.0078   24.7507 H   0  0  0  0  0  0
  -28.1065  -36.2604   24.6292 H   0  0  0  0  0  0
  -27.2280  -37.1418   25.8868 H   0  0  0  0  0  0
  -20.9511  -29.8750   21.6743 H   0  0  0  0  0  0
  -26.0131  -38.2794   24.1423 H   0  0  0  0  0  0
  -30.3239  -16.7809   17.1622 H   0  0  0  0  0  0
  -29.0895  -17.9976   17.4514 H   0  0  0  0  0  0
  -30.9119  -19.1075   18.5289 H   0  0  0  0  0  0
  -31.7399  -17.5886   18.8164 H   0  0  0  0  0  0
  -27.8702  -23.1746   18.4131 H   0  0  0  0  0  0
  -29.5421  -23.5418   18.9014 H   0  0  0  0  0  0
  -28.9557  -15.4008   18.3776 H   0  0  0  0  0  0
  -28.0113  -16.7088   19.0509 H   0  0  0  0  0  0
  -29.8333  -23.6639   21.2602 H   0  0  0  0  0  0
  -27.4642  -21.7808   20.4759 H   0  0  0  0  0  0
  -26.9332  -24.3228   20.4298 H   0  0  0  0  0  0
  -30.9200  -18.0158   20.9785 H   0  0  0  0  0  0
  -27.2396  -23.1262   22.7940 H   0  0  0  0  0  0
  -28.4388  -24.3403   23.2184 H   0  0  0  0  0  0
  -28.8517  -22.6320   23.2957 H   0  0  0  0  0  0
  -28.5959  -19.1648   21.3983 H   0  0  0  0  0  0
  -28.2456  -19.1376   19.7116 H   0  0  0  0  0  0
  -30.1678  -20.9768   21.0140 H   0  0  0  0  0  0
  -29.9764  -20.9058   19.4298 H   0  0  0  0  0  0
  1 25  1  0  0  0
  1 30  2  0  0  0
  1 81  1  0  0  0
  2  3  1  0  0  0
  2 25  1  0  0  0
  2 83  1  0  0  0
  2 84  1  0  0  0
  3  4  1  0  0  0
  3 85  1  0  0  0
  3 86  1  0  0  0
  4  5  1  0  0  0
  4 87  1  0  0  0
  4 88  1  0  0  0
  5  6  1  0  0  0
  5 26  1  0  0  0
  5 89  1  0  0  0
  6 25  1  0  0  0
  6 90  1  0  0  0
  6 91  1  0  0  0
  7  8  2  0  0  0
  7 26  1  0  0  0
  7 29  1  0  0  0
  8  9  1  0  0  0
  8 22  1  0  0  0
  9 10  1  0  0  0
  9 27  2  0  0  0
 10 11  2  0  0  0
 10 15  1  0  0  0
 11 12  1  0  0  0
 11 92  1  0  0  0
 12 13  2  0  0  0
 12 93  1  0  0  0
 13 14  1  0  0  0
 13 31  1  0  0  0
 14 15  2  0  0  0
 14 94  1  0  0  0
 15 95  1  0  0  0
 16 17  2  0  0  0
 16 21  1  0  0  0
 16 31  1  0  0  0
 17 18  1  0  0  0
 17 96  1  0  0  0
 18 19  2  0  0  0
 18 97  1  0  0  0
 19 20  1  0  0  0
 19 24  1  0  0  0
 20 21  2  0  0  0
 20 98  1  0  0  0
 21 23  1  0  0  0
 22 28  1  0  0  0
 22 32  2  0  0  0
 26 27  1  0  0  0
 28 99  1  0  0  0
 28100  1  0  0  0
 29101  1  0  0  0
 29102  1  0  0  0
 33 34  1  0  0  0
 33 66  1  0  0  0
 33 70  2  0  0  0
 34 36  1  0  0  0
 34 59  1  0  0  0
 34103  1  0  0  0
 35 44  2  0  0  0
 35 45  1  0  0  0
 35 68  1  0  0  0
 36 56  1  0  0  0
 36104  1  0  0  0
 37 39  1  0  0  0
 37 47  1  0  0  0
 37 66  1  0  0  0
 37105  1  0  0  0
 38 43  2  0  0  0
 38 46  1  0  0  0
 38 47  1  0  0  0
 39 64  1  0  0  0
 39 67  2  0  0  0
 40 52  1  0  0  0
 40 53  2  0  0  0
 40 58  1  0  0  0
 41106  1  0  0  0
 41107  1  0  0  0
 41108  1  0  0  0
 41 48  1  0  0  0
 42 43  1  0  0  0
 42 66  1  0  0  0
 42109  1  0  0  0
 42110  1  0  0  0
 43 44  1  0  0  0
 44111  1  0  0  0
 45 46  2  0  0  0
 45112  1  0  0  0
 46113  1  0  0  0
 47114  1  0  0  0
 47115  1  0  0  0
 48 56  1  0  0  0
 48 65  1  0  0  0
 48116  1  0  0  0
 49 50  1  0  0  0
 49 53  1  0  0  0
 49 64  1  0  0  0
 49117  1  0  0  0
 50 51  1  0  0  0
 50118  1  0  0  0
 50119  1  0  0  0
 51 52  1  0  0  0
 51120  1  0  0  0
 51121  1  0  0  0
 52122  1  0  0  0
 52123  1  0  0  0
 53 54  1  0  0  0
 54 55  2  0  0  0
 54124  1  0  0  0
 55 57  1  0  0  0
 55125  1  0  0  0
 56 69  2  0  0  0
 57 58  2  0  0  0
 57126  1  0  0  0
 58127  1  0  0  0
 59 60  1  0  0  0
 59 61  1  0  0  0
 59 62  1  0  0  0
 60128  1  0  0  0
 60129  1  0  0  0
 60130  1  0  0  0
 61131  1  0  0  0
 61132  1  0  0  0
 61133  1  0  0  0
 62134  1  0  0  0
 62135  1  0  0  0
 62136  1  0  0  0
 63 65  1  0  0  0
 63137  1  0  0  0
 63138  1  0  0  0
 63139  1  0  0  0
 64140  1  0  0  0
 65141  1  0  0  0
 68 77  1  0  0  0
 71 72  1  0  0  0
 71 74  1  0  0  0
 71142  1  0  0  0
 71143  1  0  0  0
 72 78  1  0  0  0
 72144  1  0  0  0
 72145  1  0  0  0
 73 76  1  0  0  0
 73 77  1  0  0  0
 73146  1  0  0  0
 73147  1  0  0  0
 74 81  1  0  0  0
 74148  1  0  0  0
 74149  1  0  0  0
 75 76  1  0  0  0
 75 77  1  0  0  0
 75 79  1  0  0  0
 75150  1  0  0  0
 76 82  1  0  0  0
 76151  1  0  0  0
 77152  1  0  0  0
 78 80  1  0  0  0
 78 81  1  0  0  0
 78153  1  0  0  0
 79154  1  0  0  0
 79155  1  0  0  0
 79156  1  0  0  0
 80 82  1  0  0  0
 80157  1  0  0  0
 80158  1  0  0  0
 82159  1  0  0  0
 82160  1  0  0  0
M  CHG  1  82   1
M  ISO  4   1 100  68 101  77 101  81 100
M  END
> <chiral flag>
0

> <version>
0

> <s_m_source_file>
/data/baiqing/PycharmProjects/Reinvent-master-3.2/result/LINK_invent/BTK/process_docking_weight1_custom_sum_contain_oxygen_bond_distance_aromatic_linkinvent_7_9_3/rearranged_h_0183.sdf

> <i_m_source_file_index>
80

> <r_mmod_Potential_Energy-OPLS-2005>
910.557556152344

> <r_mmod_Stretch_Energy-OPLS-2005>
362.402740478516

> <r_mmod_Bend_Energy-OPLS-2005>
396.074066162109

> <r_mmod_Torsional_Energy-OPLS-2005>
390.040069580078

> <r_mmod_Improper_Torsional_Energy-OPLS-2005>
11.8700714111328

> <r_mmod_Van_der_Waal_Energy-OPLS-2005>
111.194122314453

> <r_mmod_Electrostatic_Energy-OPLS-2005>
-178.484466552734

> <r_mmod_Solvation_Energy-OPLS-2005>
-476.614288330078

> <b_mmod_Minimization_Converged-OPLS-2005>
0

> <r_mmod_RMS_Derivative-OPLS-2005>
0.723406076431274

$$$$
81
                    3D
 Structure written by MMmdl.
162172  0  0  1  0            999 V2000
  -30.6508  -14.7238   20.4788 C   0  0  0  0  0  0
  -30.4301  -12.4544   19.4488 C   0  0  0  0  0  0
  -29.5001  -12.5066   18.2182 C   0  0  0  0  0  0
  -28.0278  -12.3384   18.6407 C   0  0  0  0  0  0
  -27.6437  -13.2338   19.8492 C   0  0  2  0  0  0
  -28.6987  -13.1640   20.9730 C   0  0  0  0  0  0
  -25.2535  -13.8181   20.5728 C   0  0  0  0  0  0
  -24.1813  -13.0415   20.9213 C   0  0  0  0  0  0
  -24.6419  -11.6902   20.8767 C   0  0  0  0  0  0
  -23.9073  -10.4284   21.0414 C   0  0  0  0  0  0
  -24.3608   -9.4208   21.9210 C   0  0  0  0  0  0
  -23.6286   -8.2242   22.0767 C   0  0  0  0  0  0
  -22.4274   -8.0282   21.3550 C   0  0  0  0  0  0
  -21.9910   -9.0258   20.4650 C   0  0  0  0  0  0
  -22.7236  -10.2140   20.3076 C   0  0  0  0  0  0
  -21.6854   -6.0739   22.5272 C   0  0  0  0  0  0
  -21.4009   -6.5642   23.8203 C   0  0  0  0  0  0
  -21.3648   -5.6796   24.9169 C   0  0  0  0  0  0
  -21.6053   -4.3064   24.7224 C   0  0  0  0  0  0
  -21.8818   -3.8146   23.4344 C   0  0  0  0  0  0
  -21.9192   -4.6966   22.3393 C   0  0  0  0  0  0
  -22.7856  -13.5237   21.1845 C   0  0  0  0  0  0
  -22.1673   -4.2142   21.0973 F   0  0  0  0  0  0
  -21.5619   -3.4548   25.7739 F   0  0  0  0  0  0
  -29.9929  -13.5197   20.3764 N   0  0  0  0  0  0
  -26.2962  -12.9400   20.3322 N   0  0  0  0  0  0
  -25.9359  -11.6537   20.5772 N   0  0  0  0  0  0
  -22.0477  -12.8238   22.0396 N   0  0  0  0  0  0
  -25.4210  -15.1888   20.4136 N   0  0  0  0  0  0
  -31.8479  -14.7997   20.1891 O   0  0  0  0  0  0
  -21.6639   -6.8880   21.4237 O   0  0  0  0  0  0
  -22.3554  -14.5547   20.6683 O   0  0  0  0  0  0
  -24.6267  -31.8510   23.2038 C   0  0  0  0  0  0
  -25.9082  -32.4751   23.8355 C   0  0  1  0  0  0
  -27.2203  -27.2576   20.1762 C   0  0  0  0  0  0
  -25.5841  -33.8551   24.2245 N   0  0  0  0  0  0
  -23.4230  -30.4768   21.5473 C   0  0  2  0  0  0
  -24.8779  -28.9218   20.1287 C   0  0  0  0  0  0
  -22.7455  -29.4592   22.4967 C   0  0  0  0  0  0
  -18.0280  -28.1357   22.8518 C   0  0  0  0  0  0
  -24.1464  -36.7252   23.2656 C   0  0  0  0  0  0
  -25.9694  -30.7776   21.3748 C   0  0  0  0  0  0
  -26.0531  -29.3970   20.7267 C   0  0  0  0  0  0
  -27.2299  -28.5829   20.7316 C   0  0  0  0  0  0
  -26.0231  -26.8526   19.5391 C   0  0  0  0  0  0
  -24.8665  -27.6572   19.5294 C   0  0  0  0  0  0
  -23.6428  -29.8025   20.1695 C   0  0  0  0  0  0
  -25.4093  -36.3040   24.0329 C   0  0  1  0  0  0
  -20.5875  -28.3634   23.1293 C   0  0  2  0  0  0
  -20.6773  -26.9354   22.5419 C   0  0  0  0  0  0
  -19.5751  -26.6356   21.5212 C   0  0  0  0  0  0
  -18.1934  -26.7908   22.1610 C   0  0  0  0  0  0
  -19.1541  -28.8813   23.2895 C   0  0  0  0  0  0
  -18.9486  -30.1437   23.8881 C   0  0  0  0  0  0
  -17.6495  -30.6592   24.0546 C   0  0  0  0  0  0
  -25.9033  -34.9419   23.5082 C   0  0  0  0  0  0
  -16.5375  -29.9058   23.6402 C   0  0  0  0  0  0
  -16.7274  -28.6481   23.0401 C   0  0  0  0  0  0
  -26.4504  -31.6580   25.0719 C   0  0  0  0  0  0
  -25.3754  -31.3673   26.1453 C   0  0  0  0  0  0
  -27.0418  -30.3031   24.6182 C   0  0  0  0  0  0
  -27.6047  -32.4331   25.7502 C   0  0  0  0  0  0
  -27.5582  -37.1725   24.8472 C   0  0  0  0  0  0
  -21.4169  -29.2979   22.3656 N   0  0  0  0  0  0
  -26.4267  -37.3743   23.9466 N   0  0  0  0  0  0
  -24.6932  -31.0504   22.1010 N   0  0  0  0  0  0
  -23.4183  -28.8124   23.3038 O   0  0  0  0  0  0
  -28.3047  -26.3484   20.2558 O   0  0  0  0  0  0
  -26.5668  -34.8916   22.4695 O   0  0  0  0  0  0
  -23.5396  -32.1312   23.7330 O   0  0  0  0  0  0
  -29.4959  -20.8610   18.9219 C   0  0  0  0  0  0
  -29.7882  -19.6405   18.2918 C   0  0  0  0  0  0
  -29.3294  -20.8848   20.3085 C   0  0  0  0  0  0
  -29.9085  -18.5611   20.3222 C   0  0  0  0  0  0
  -28.9506  -20.3429   15.9044 C   0  0  0  0  0  0
  -28.7484  -18.8541   16.0172 C   0  0  0  0  0  0
  -29.5517  -23.0756   21.8901 C   0  0  0  0  0  0
  -29.8603  -19.5216   16.7960 C   0  0  0  0  0  0
  -29.0490  -23.7039   20.6025 C   0  0  1  0  0  0
  -28.7210  -22.1779   21.0003 C   0  0  1  0  0  0
  -27.3155  -21.8237   21.4772 C   0  0  0  0  0  0
  -30.4089  -17.2626   21.0787 C   0  0  0  0  0  0
  -27.9925  -24.9106   20.6046 C   0  0  0  0  0  0
  -29.9840  -18.5038   18.9948 N   0  0  0  0  0  0
  -29.5746  -19.7043   20.9978 N   0  0  0  0  0  0
  -29.9215  -15.8636   20.7282 N   0  0  0  0  0  0
  -31.4681  -12.5737   19.1359 H   0  0  0  0  0  0
  -30.3676  -11.4805   19.9359 H   0  0  0  0  0  0
  -29.7705  -11.7227   17.5097 H   0  0  0  0  0  0
  -29.6261  -13.4524   17.6892 H   0  0  0  0  0  0
  -27.8778  -11.2900   18.8977 H   0  0  0  0  0  0
  -27.3657  -12.5388   17.7965 H   0  0  0  0  0  0
  -27.6351  -14.2572   19.4742 H   0  0  0  0  0  0
  -28.7399  -12.1616   21.4006 H   0  0  0  0  0  0
  -28.4391  -13.8394   21.7892 H   0  0  0  0  0  0
  -25.2744   -9.5687   22.4802 H   0  0  0  0  0  0
  -23.9977   -7.4647   22.7510 H   0  0  0  0  0  0
  -21.0831   -8.8789   19.8976 H   0  0  0  0  0  0
  -22.3688  -10.9691   19.6194 H   0  0  0  0  0  0
  -21.2013   -7.6147   23.9694 H   0  0  0  0  0  0
  -21.1471   -6.0532   25.9059 H   0  0  0  0  0  0
  -22.0609   -2.7604   23.2844 H   0  0  0  0  0  0
  -22.4078  -11.9887   22.4752 H   0  0  0  0  0  0
  -21.1112  -13.1310   22.2612 H   0  0  0  0  0  0
  -24.6438  -15.8351   20.5040 H   0  0  0  0  0  0
  -26.2657  -15.6297   20.0740 H   0  0  0  0  0  0
  -26.7110  -32.5462   23.1070 H   0  0  0  0  0  0
  -24.9850  -33.9700   25.0294 H   0  0  0  0  0  0
  -22.7164  -31.2964   21.4058 H   0  0  0  0  0  0
  -23.3741  -35.9561   23.3275 H   0  0  0  0  0  0
  -24.3542  -36.8940   22.2080 H   0  0  0  0  0  0
  -23.7215  -37.6417   23.6734 H   0  0  0  0  0  0
  -26.0734  -31.5292   20.5923 H   0  0  0  0  0  0
  -26.8544  -30.8535   21.9958 H   0  0  0  0  0  0
  -28.1279  -28.9394   21.2162 H   0  0  0  0  0  0
  -25.9413  -25.8921   19.0549 H   0  0  0  0  0  0
  -23.9580  -27.2819   19.0784 H   0  0  0  0  0  0
  -23.7488  -30.5730   19.4062 H   0  0  0  0  0  0
  -22.7619  -29.2236   19.8821 H   0  0  0  0  0  0
  -25.1261  -36.1854   25.0811 H   0  0  0  0  0  0
  -21.0000  -28.3253   24.1396 H   0  0  0  0  0  0
  -20.5660  -26.2231   23.3607 H   0  0  0  0  0  0
  -21.6647  -26.7370   22.1219 H   0  0  0  0  0  0
  -19.6885  -25.6272   21.1227 H   0  0  0  0  0  0
  -19.6728  -27.3178   20.6770 H   0  0  0  0  0  0
  -17.4204  -26.6663   21.4015 H   0  0  0  0  0  0
  -18.0303  -26.0042   22.8995 H   0  0  0  0  0  0
  -19.7971  -30.7244   24.2211 H   0  0  0  0  0  0
  -17.5071  -31.6307   24.5066 H   0  0  0  0  0  0
  -15.5360  -30.2925   23.7822 H   0  0  0  0  0  0
  -15.8660  -28.0803   22.7117 H   0  0  0  0  0  0
  -24.5922  -30.7039   25.7766 H   0  0  0  0  0  0
  -24.8957  -32.2813   26.4952 H   0  0  0  0  0  0
  -25.8094  -30.8792   27.0199 H   0  0  0  0  0  0
  -26.3026  -29.6662   24.1302 H   0  0  0  0  0  0
  -27.4258  -29.7382   25.4690 H   0  0  0  0  0  0
  -27.8793  -30.4346   23.9330 H   0  0  0  0  0  0
  -27.2680  -33.3670   26.2019 H   0  0  0  0  0  0
  -28.3905  -32.6816   25.0362 H   0  0  0  0  0  0
  -28.0655  -31.8486   26.5475 H   0  0  0  0  0  0
  -28.2509  -38.0108   24.7647 H   0  0  0  0  0  0
  -28.1155  -36.2641   24.6131 H   0  0  0  0  0  0
  -27.2312  -37.1185   25.8871 H   0  0  0  0  0  0
  -20.9304  -29.8642   21.6846 H   0  0  0  0  0  0
  -26.0104  -38.2763   24.1624 H   0  0  0  0  0  0
  -29.3350  -21.7600   18.3409 H   0  0  0  0  0  0
  -28.1930  -20.9732   16.3665 H   0  0  0  0  0  0
  -29.3579  -20.7178   14.9663 H   0  0  0  0  0  0
  -29.0150  -18.2595   15.1451 H   0  0  0  0  0  0
  -27.8766  -18.5098   16.5702 H   0  0  0  0  0  0
  -29.0975  -23.4357   22.8127 H   0  0  0  0  0  0
  -30.6125  -22.8451   21.9692 H   0  0  0  0  0  0
  -30.8791  -19.3480   16.4532 H   0  0  0  0  0  0
  -29.8159  -23.8310   19.8429 H   0  0  0  0  0  0
  -27.3700  -21.0741   22.2694 H   0  0  0  0  0  0
  -26.7269  -21.4163   20.6545 H   0  0  0  0  0  0
  -26.7916  -22.6866   21.8828 H   0  0  0  0  0  0
  -30.2311  -17.4130   22.1440 H   0  0  0  0  0  0
  -31.4947  -17.2736   20.9810 H   0  0  0  0  0  0
  -27.5241  -24.9316   21.5918 H   0  0  0  0  0  0
  -27.2082  -24.5473   19.9484 H   0  0  0  0  0  0
  -28.9218  -15.7565   20.7415 H   0  0  0  0  0  0
  1 25  1  0  0  0
  1 30  2  0  0  0
  1 86  1  0  0  0
  2  3  1  0  0  0
  2 25  1  0  0  0
  2 87  1  0  0  0
  2 88  1  0  0  0
  3  4  1  0  0  0
  3 89  1  0  0  0
  3 90  1  0  0  0
  4  5  1  0  0  0
  4 91  1  0  0  0
  4 92  1  0  0  0
  5  6  1  0  0  0
  5 26  1  0  0  0
  5 93  1  0  0  0
  6 25  1  0  0  0
  6 94  1  0  0  0
  6 95  1  0  0  0
  7  8  2  0  0  0
  7 26  1  0  0  0
  7 29  1  0  0  0
  8  9  1  0  0  0
  8 22  1  0  0  0
  9 10  1  0  0  0
  9 27  2  0  0  0
 10 11  2  0  0  0
 10 15  1  0  0  0
 11 12  1  0  0  0
 11 96  1  0  0  0
 12 13  2  0  0  0
 12 97  1  0  0  0
 13 14  1  0  0  0
 13 31  1  0  0  0
 14 15  2  0  0  0
 14 98  1  0  0  0
 15 99  1  0  0  0
 16 17  2  0  0  0
 16 21  1  0  0  0
 16 31  1  0  0  0
 17 18  1  0  0  0
 17100  1  0  0  0
 18 19  2  0  0  0
 18101  1  0  0  0
 19 20  1  0  0  0
 19 24  1  0  0  0
 20 21  2  0  0  0
 20102  1  0  0  0
 21 23  1  0  0  0
 22 28  1  0  0  0
 22 32  2  0  0  0
 26 27  1  0  0  0
 28103  1  0  0  0
 28104  1  0  0  0
 29105  1  0  0  0
 29106  1  0  0  0
 33 34  1  0  0  0
 33 66  1  0  0  0
 33 70  2  0  0  0
 34 36  1  0  0  0
 34 59  1  0  0  0
 34107  1  0  0  0
 35 44  2  0  0  0
 35 45  1  0  0  0
 35 68  1  0  0  0
 36 56  1  0  0  0
 36108  1  0  0  0
 37 39  1  0  0  0
 37 47  1  0  0  0
 37 66  1  0  0  0
 37109  1  0  0  0
 38 43  2  0  0  0
 38 46  1  0  0  0
 38 47  1  0  0  0
 39 64  1  0  0  0
 39 67  2  0  0  0
 40 52  1  0  0  0
 40 53  2  0  0  0
 40 58  1  0  0  0
 41110  1  0  0  0
 41111  1  0  0  0
 41112  1  0  0  0
 41 48  1  0  0  0
 42 43  1  0  0  0
 42 66  1  0  0  0
 42113  1  0  0  0
 42114  1  0  0  0
 43 44  1  0  0  0
 44115  1  0  0  0
 45 46  2  0  0  0
 45116  1  0  0  0
 46117  1  0  0  0
 47118  1  0  0  0
 47119  1  0  0  0
 48 56  1  0  0  0
 48 65  1  0  0  0
 48120  1  0  0  0
 49 50  1  0  0  0
 49 53  1  0  0  0
 49 64  1  0  0  0
 49121  1  0  0  0
 50 51  1  0  0  0
 50122  1  0  0  0
 50123  1  0  0  0
 51 52  1  0  0  0
 51124  1  0  0  0
 51125  1  0  0  0
 52126  1  0  0  0
 52127  1  0  0  0
 53 54  1  0  0  0
 54 55  2  0  0  0
 54128  1  0  0  0
 55 57  1  0  0  0
 55129  1  0  0  0
 56 69  2  0  0  0
 57 58  2  0  0  0
 57130  1  0  0  0
 58131  1  0  0  0
 59 60  1  0  0  0
 59 61  1  0  0  0
 59 62  1  0  0  0
 60132  1  0  0  0
 60133  1  0  0  0
 60134  1  0  0  0
 61135  1  0  0  0
 61136  1  0  0  0
 61137  1  0  0  0
 62138  1  0  0  0
 62139  1  0  0  0
 62140  1  0  0  0
 63 65  1  0  0  0
 63141  1  0  0  0
 63142  1  0  0  0
 63143  1  0  0  0
 64144  1  0  0  0
 65145  1  0  0  0
 68 83  1  0  0  0
 71 72  2  0  0  0
 71 73  1  0  0  0
 71146  1  0  0  0
 72 84  1  0  0  0
 72 78  1  0  0  0
 73 80  1  0  0  0
 73 85  2  0  0  0
 74 82  1  0  0  0
 74 84  2  0  0  0
 74 85  1  0  0  0
 75 76  1  0  0  0
 75 78  1  0  0  0
 75147  1  0  0  0
 75148  1  0  0  0
 76 78  1  0  0  0
 76149  1  0  0  0
 76150  1  0  0  0
 77 79  1  0  0  0
 77 80  1  0  0  0
 77151  1  0  0  0
 77152  1  0  0  0
 78153  1  0  0  0
 79 80  1  0  0  0
 79 83  1  0  0  0
 79154  1  0  0  0
 80 81  1  0  0  0
 81155  1  0  0  0
 81156  1  0  0  0
 81157  1  0  0  0
 82 86  1  0  0  0
 82158  1  0  0  0
 82159  1  0  0  0
 83160  1  0  0  0
 83161  1  0  0  0
 86162  1  0  0  0
M  ISO  4   1 100  68 101  83 101  86 100
M  END
> <chiral flag>
0

> <version>
0

> <s_m_source_file>
/data/baiqing/PycharmProjects/Reinvent-master-3.2/result/LINK_invent/BTK/process_docking_weight1_custom_sum_contain_oxygen_bond_distance_aromatic_linkinvent_7_9_3/rearranged_h_0183.sdf

> <i_m_source_file_index>
81

> <r_mmod_Potential_Energy-OPLS-2005>
-431.913360595703

> <r_mmod_Stretch_Energy-OPLS-2005>
117.930786132812

> <r_mmod_Bend_Energy-OPLS-2005>
158.532135009766

> <r_mmod_Torsional_Energy-OPLS-2005>
280.825958251953

> <r_mmod_Improper_Torsional_Energy-OPLS-2005>
5.0512170791626

> <r_mmod_Van_der_Waal_Energy-OPLS-2005>
140.973587036133

> <r_mmod_Electrostatic_Energy-OPLS-2005>
-988.707458496094

> <r_mmod_Solvation_Energy-OPLS-2005>
-232.557540893555

> <b_mmod_Minimization_Converged-OPLS-2005>
0

> <r_mmod_RMS_Derivative-OPLS-2005>
6.03230619430542

$$$$
82
                    3D
 Structure written by MMmdl.
160171  0  0  1  0            999 V2000
  -30.4293  -15.1970   20.3834 C   0  0  0  0  0  0
  -30.4456  -12.7548   19.5263 C   0  0  0  0  0  0
  -29.5363  -12.5723   18.2841 C   0  0  0  0  0  0
  -28.0791  -12.3084   18.7032 C   0  0  0  0  0  0
  -27.6182  -13.2658   19.8303 C   0  0  2  0  0  0
  -28.6531  -13.3888   20.9696 C   0  0  0  0  0  0
  -25.2404  -13.8226   20.5685 C   0  0  0  0  0  0
  -24.1761  -13.0436   20.9267 C   0  0  0  0  0  0
  -24.6402  -11.6927   20.8776 C   0  0  0  0  0  0
  -23.9093  -10.4293   21.0417 C   0  0  0  0  0  0
  -24.3635   -9.4203   21.9190 C   0  0  0  0  0  0
  -23.6299   -8.2243   22.0759 C   0  0  0  0  0  0
  -22.4283   -8.0287   21.3546 C   0  0  0  0  0  0
  -21.9918   -9.0267   20.4654 C   0  0  0  0  0  0
  -22.7260  -10.2140   20.3066 C   0  0  0  0  0  0
  -21.6855   -6.0734   22.5276 C   0  0  0  0  0  0
  -21.4018   -6.5637   23.8209 C   0  0  0  0  0  0
  -21.3662   -5.6792   24.9172 C   0  0  0  0  0  0
  -21.6045   -4.3054   24.7223 C   0  0  0  0  0  0
  -21.8819   -3.8144   23.4345 C   0  0  0  0  0  0
  -21.9192   -4.6960   22.3399 C   0  0  0  0  0  0
  -22.7783  -13.5202   21.1905 C   0  0  0  0  0  0
  -22.1661   -4.2145   21.0976 F   0  0  0  0  0  0
  -21.5626   -3.4538   25.7736 F   0  0  0  0  0  0
  -29.8992  -13.8812   20.3615 N   0  0  0  0  0  0
  -26.2835  -12.9485   20.3206 N   0  0  0  0  0  0
  -25.9337  -11.6605   20.5735 N   0  0  0  0  0  0
  -22.0426  -12.8202   22.0462 N   0  0  0  0  0  0
  -25.4010  -15.1938   20.3951 N   0  0  0  0  0  0
  -31.6392  -15.2508   20.1185 O   0  0  0  0  0  0
  -21.6646   -6.8884   21.4240 O   0  0  0  0  0  0
  -22.3476  -14.5502   20.6735 O   0  0  0  0  0  0
  -24.6588  -31.8266   23.1745 C   0  0  0  0  0  0
  -25.9285  -32.4603   23.8194 C   0  0  1  0  0  0
  -27.2192  -26.9657   20.1844 C   0  0  0  0  0  0
  -25.5970  -33.8417   24.2098 N   0  0  0  0  0  0
  -23.4723  -30.4392   21.5223 C   0  0  2  0  0  0
  -24.9255  -28.8326   20.1117 C   0  0  0  0  0  0
  -22.7648  -29.4448   22.4792 C   0  0  0  0  0  0
  -18.0321  -28.1406   22.8467 C   0  0  0  0  0  0
  -24.1494  -36.7218   23.2645 C   0  0  0  0  0  0
  -26.0384  -30.6448   21.4000 C   0  0  0  0  0  0
  -26.1067  -29.2390   20.7441 C   0  0  0  0  0  0
  -27.2488  -28.3257   20.7566 C   0  0  0  0  0  0
  -26.0118  -26.7031   19.4997 C   0  0  0  0  0  0
  -24.9011  -27.5843   19.4692 C   0  0  0  0  0  0
  -23.7104  -29.7568   20.1469 C   0  0  0  0  0  0
  -25.4133  -36.2978   24.0301 C   0  0  1  0  0  0
  -20.5943  -28.3744   23.1197 C   0  0  2  0  0  0
  -20.6799  -26.9427   22.5407 C   0  0  0  0  0  0
  -19.5775  -26.6372   21.5217 C   0  0  0  0  0  0
  -18.1957  -26.7941   22.1622 C   0  0  0  0  0  0
  -19.1583  -28.8897   23.2819 C   0  0  0  0  0  0
  -18.9492  -30.1490   23.8850 C   0  0  0  0  0  0
  -17.6484  -30.6595   24.0558 C   0  0  0  0  0  0
  -25.9095  -34.9358   23.5020 C   0  0  0  0  0  0
  -16.5375  -29.9081   23.6339 C   0  0  0  0  0  0
  -16.7305  -28.6504   23.0357 C   0  0  0  0  0  0
  -26.4543  -31.6543   25.0714 C   0  0  0  0  0  0
  -25.3677  -31.3813   26.1383 C   0  0  0  0  0  0
  -27.0416  -30.2899   24.6443 C   0  0  0  0  0  0
  -27.6049  -32.4341   25.7504 C   0  0  0  0  0  0
  -27.5575  -37.1767   24.8461 C   0  0  0  0  0  0
  -21.4324  -29.3033   22.3542 N   0  0  0  0  0  0
  -26.4286  -37.3707   23.9402 N   0  0  0  0  0  0
  -24.7443  -30.9963   22.0864 N   0  0  0  0  0  0
  -23.4209  -28.8012   23.3020 O   0  0  0  0  0  0
  -28.2393  -25.8927   20.2700 O   0  0  0  0  0  0
  -26.5702  -34.8885   22.4612 O   0  0  0  0  0  0
  -23.5667  -32.1214   23.6860 O   0  0  0  0  0  0
  -29.1104  -21.0932   20.3382 C   0  0  0  0  0  0
  -30.2594  -20.3145   19.8613 C   0  0  0  0  0  0
  -28.3941  -18.7745   20.9418 C   0  0  0  0  0  0
  -29.5404  -17.9891   20.4584 C   0  0  0  0  0  0
  -31.3818  -21.7283   17.9666 C   0  0  0  0  0  0
  -32.2389  -20.5045   18.1321 C   0  0  0  0  0  0
  -26.7529  -18.4424   22.9668 C   0  0  0  0  0  0
  -27.4111  -17.1086   22.7337 C   0  0  0  0  0  0
  -29.0658  -23.6802   19.2265 C   0  0  0  0  0  0
  -28.9989  -22.8392   20.4913 C   0  0  1  0  0  0
  -31.4530  -21.0402   19.3137 C   0  0  0  0  0  0
  -27.2266  -18.0718   21.5758 C   0  0  0  0  0  0
  -28.0257  -24.2721   20.1402 C   0  0  1  0  0  0
  -28.2039  -20.1893   20.8872 N   0  0  0  0  0  0
  -30.4493  -18.8992   19.9219 N   0  0  0  0  0  0
  -29.5819  -16.3852   20.5493 N   0  0  0  0  0  0
  -31.4679  -12.9554   19.2031 H   0  0  0  0  0  0
  -30.4987  -11.8319   20.1064 H   0  0  0  0  0  0
  -29.9012  -11.7563   17.6590 H   0  0  0  0  0  0
  -29.5811  -13.4728   17.6694 H   0  0  0  0  0  0
  -28.0176  -11.2765   19.0508 H   0  0  0  0  0  0
  -27.4151  -12.3821   17.8410 H   0  0  0  0  0  0
  -27.5496  -14.2457   19.3575 H   0  0  0  0  0  0
  -28.7995  -12.4349   21.4783 H   0  0  0  0  0  0
  -28.3045  -14.0920   21.7275 H   0  0  0  0  0  0
  -25.2776   -9.5671   22.4772 H   0  0  0  0  0  0
  -23.9995   -7.4635   22.7482 H   0  0  0  0  0  0
  -21.0844   -8.8805   19.8967 H   0  0  0  0  0  0
  -22.3722  -10.9687   19.6187 H   0  0  0  0  0  0
  -21.2015   -7.6146   23.9711 H   0  0  0  0  0  0
  -21.1483   -6.0522   25.9074 H   0  0  0  0  0  0
  -22.0592   -2.7604   23.2850 H   0  0  0  0  0  0
  -22.4042  -11.9873   22.4869 H   0  0  0  0  0  0
  -21.1045  -13.1240   22.2664 H   0  0  0  0  0  0
  -24.5991  -15.8128   20.4434 H   0  0  0  0  0  0
  -26.1783  -15.5945   19.8890 H   0  0  0  0  0  0
  -26.7353  -32.5145   23.0911 H   0  0  0  0  0  0
  -25.0062  -33.9501   25.0212 H   0  0  0  0  0  0
  -22.7836  -31.2698   21.3542 H   0  0  0  0  0  0
  -23.3763  -35.9543   23.3288 H   0  0  0  0  0  0
  -24.3566  -36.8879   22.2062 H   0  0  0  0  0  0
  -23.7252  -37.6402   23.6710 H   0  0  0  0  0  0
  -26.2163  -31.3882   20.6218 H   0  0  0  0  0  0
  -26.8995  -30.6976   22.0545 H   0  0  0  0  0  0
  -28.1437  -28.6337   21.2788 H   0  0  0  0  0  0
  -25.8934  -25.7536   18.9998 H   0  0  0  0  0  0
  -24.0045  -27.2690   18.9538 H   0  0  0  0  0  0
  -23.8654  -30.5268   19.3902 H   0  0  0  0  0  0
  -22.8206  -29.2107   19.8284 H   0  0  0  0  0  0
  -25.1333  -36.1782   25.0794 H   0  0  0  0  0  0
  -21.0036  -28.3355   24.1319 H   0  0  0  0  0  0
  -20.5676  -26.2364   23.3647 H   0  0  0  0  0  0
  -21.6666  -26.7404   22.1217 H   0  0  0  0  0  0
  -19.6936  -25.6270   21.1279 H   0  0  0  0  0  0
  -19.6720  -27.3154   20.6726 H   0  0  0  0  0  0
  -17.4229  -26.6684   21.4024 H   0  0  0  0  0  0
  -18.0351  -26.0091   22.9025 H   0  0  0  0  0  0
  -19.7965  -30.7326   24.2193 H   0  0  0  0  0  0
  -17.5030  -31.6265   24.5176 H   0  0  0  0  0  0
  -15.5374  -30.2968   23.7686 H   0  0  0  0  0  0
  -15.8707  -28.0807   22.7093 H   0  0  0  0  0  0
  -24.5861  -30.7153   25.7709 H   0  0  0  0  0  0
  -24.8868  -32.3027   26.4679 H   0  0  0  0  0  0
  -25.7909  -30.9069   27.0246 H   0  0  0  0  0  0
  -26.3068  -29.6592   24.1429 H   0  0  0  0  0  0
  -27.3907  -29.7253   25.5099 H   0  0  0  0  0  0
  -27.9034  -30.4059   23.9867 H   0  0  0  0  0  0
  -27.2624  -33.3675   26.1983 H   0  0  0  0  0  0
  -28.3909  -32.6849   25.0369 H   0  0  0  0  0  0
  -28.0665  -31.8538   26.5503 H   0  0  0  0  0  0
  -28.2586  -38.0068   24.7494 H   0  0  0  0  0  0
  -28.1080  -36.2597   24.6305 H   0  0  0  0  0  0
  -27.2291  -37.1430   25.8863 H   0  0  0  0  0  0
  -20.9576  -29.8715   21.6666 H   0  0  0  0  0  0
  -26.0140  -38.2770   24.1402 H   0  0  0  0  0  0
  -30.4684  -21.6187   17.3852 H   0  0  0  0  0  0
  -31.8976  -22.6797   17.8540 H   0  0  0  0  0  0
  -33.3169  -20.6539   18.1340 H   0  0  0  0  0  0
  -31.8958  -19.5880   17.6559 H   0  0  0  0  0  0
  -27.3208  -19.1897   23.5177 H   0  0  0  0  0  0
  -25.6809  -18.4369   23.1553 H   0  0  0  0  0  0
  -26.7687  -16.2309   22.7737 H   0  0  0  0  0  0
  -28.4100  -16.9746   23.1444 H   0  0  0  0  0  0
  -28.6747  -23.2379   18.3130 H   0  0  0  0  0  0
  -29.9907  -24.2340   19.0809 H   0  0  0  0  0  0
  -29.7346  -23.0591   21.2616 H   0  0  0  0  0  0
  -32.0028  -21.5412   20.1088 H   0  0  0  0  0  0
  -26.4674  -17.8354   20.8334 H   0  0  0  0  0  0
  -26.9779  -24.0502   19.9519 H   0  0  0  0  0  0
  -28.6673  -16.0481   20.8051 H   0  0  0  0  0  0
  1 25  1  0  0  0
  1 30  2  0  0  0
  1 86  1  0  0  0
  2  3  1  0  0  0
  2 25  1  0  0  0
  2 87  1  0  0  0
  2 88  1  0  0  0
  3  4  1  0  0  0
  3 89  1  0  0  0
  3 90  1  0  0  0
  4  5  1  0  0  0
  4 91  1  0  0  0
  4 92  1  0  0  0
  5  6  1  0  0  0
  5 26  1  0  0  0
  5 93  1  0  0  0
  6 25  1  0  0  0
  6 94  1  0  0  0
  6 95  1  0  0  0
  7  8  2  0  0  0
  7 26  1  0  0  0
  7 29  1  0  0  0
  8  9  1  0  0  0
  8 22  1  0  0  0
  9 10  1  0  0  0
  9 27  2  0  0  0
 10 11  2  0  0  0
 10 15  1  0  0  0
 11 12  1  0  0  0
 11 96  1  0  0  0
 12 13  2  0  0  0
 12 97  1  0  0  0
 13 14  1  0  0  0
 13 31  1  0  0  0
 14 15  2  0  0  0
 14 98  1  0  0  0
 15 99  1  0  0  0
 16 17  2  0  0  0
 16 21  1  0  0  0
 16 31  1  0  0  0
 17 18  1  0  0  0
 17100  1  0  0  0
 18 19  2  0  0  0
 18101  1  0  0  0
 19 20  1  0  0  0
 19 24  1  0  0  0
 20 21  2  0  0  0
 20102  1  0  0  0
 21 23  1  0  0  0
 22 28  1  0  0  0
 22 32  2  0  0  0
 26 27  1  0  0  0
 28103  1  0  0  0
 28104  1  0  0  0
 29105  1  0  0  0
 29106  1  0  0  0
 33 34  1  0  0  0
 33 66  1  0  0  0
 33 70  2  0  0  0
 34 36  1  0  0  0
 34 59  1  0  0  0
 34107  1  0  0  0
 35 44  2  0  0  0
 35 45  1  0  0  0
 35 68  1  0  0  0
 36 56  1  0  0  0
 36108  1  0  0  0
 37 39  1  0  0  0
 37 47  1  0  0  0
 37 66  1  0  0  0
 37109  1  0  0  0
 38 43  2  0  0  0
 38 46  1  0  0  0
 38 47  1  0  0  0
 39 64  1  0  0  0
 39 67  2  0  0  0
 40 52  1  0  0  0
 40 53  2  0  0  0
 40 58  1  0  0  0
 41110  1  0  0  0
 41111  1  0  0  0
 41112  1  0  0  0
 41 48  1  0  0  0
 42 43  1  0  0  0
 42 66  1  0  0  0
 42113  1  0  0  0
 42114  1  0  0  0
 43 44  1  0  0  0
 44115  1  0  0  0
 45 46  2  0  0  0
 45116  1  0  0  0
 46117  1  0  0  0
 47118  1  0  0  0
 47119  1  0  0  0
 48 56  1  0  0  0
 48 65  1  0  0  0
 48120  1  0  0  0
 49 50  1  0  0  0
 49 53  1  0  0  0
 49 64  1  0  0  0
 49121  1  0  0  0
 50 51  1  0  0  0
 50122  1  0  0  0
 50123  1  0  0  0
 51 52  1  0  0  0
 51124  1  0  0  0
 51125  1  0  0  0
 52126  1  0  0  0
 52127  1  0  0  0
 53 54  1  0  0  0
 54 55  2  0  0  0
 54128  1  0  0  0
 55 57  1  0  0  0
 55129  1  0  0  0
 56 69  2  0  0  0
 57 58  2  0  0  0
 57130  1  0  0  0
 58131  1  0  0  0
 59 60  1  0  0  0
 59 61  1  0  0  0
 59 62  1  0  0  0
 60132  1  0  0  0
 60133  1  0  0  0
 60134  1  0  0  0
 61135  1  0  0  0
 61136  1  0  0  0
 61137  1  0  0  0
 62138  1  0  0  0
 62139  1  0  0  0
 62140  1  0  0  0
 63 65  1  0  0  0
 63141  1  0  0  0
 63142  1  0  0  0
 63143  1  0  0  0
 64144  1  0  0  0
 65145  1  0  0  0
 68 83  1  0  0  0
 71 72  1  0  0  0
 71 84  2  0  0  0
 71 80  1  0  0  0
 72 85  2  0  0  0
 72 81  1  0  0  0
 73 74  2  0  0  0
 73 84  1  0  0  0
 73 82  1  0  0  0
 74 85  1  0  0  0
 74 86  1  0  0  0
 75 76  1  0  0  0
 75 81  1  0  0  0
 75146  1  0  0  0
 75147  1  0  0  0
 76 81  1  0  0  0
 76148  1  0  0  0
 76149  1  0  0  0
 77 78  1  0  0  0
 77 82  1  0  0  0
 77150  1  0  0  0
 77151  1  0  0  0
 78 82  1  0  0  0
 78152  1  0  0  0
 78153  1  0  0  0
 79 80  1  0  0  0
 79 83  1  0  0  0
 79154  1  0  0  0
 79155  1  0  0  0
 80 83  1  0  0  0
 80156  1  0  0  0
 81157  1  0  0  0
 82158  1  0  0  0
 83159  1  0  0  0
 86160  1  0  0  0
M  ISO  4   1 100  68 101  83 101  86 100
M  END
> <chiral flag>
0

> <version>
0

> <s_m_source_file>
/data/baiqing/PycharmProjects/Reinvent-master-3.2/result/LINK_invent/BTK/process_docking_weight1_custom_sum_contain_oxygen_bond_distance_aromatic_linkinvent_7_9_3/rearranged_h_0183.sdf

> <i_m_source_file_index>
82

> <r_mmod_Potential_Energy-OPLS-2005>
1120.22839355469

> <r_mmod_Stretch_Energy-OPLS-2005>
489.521331787109

> <r_mmod_Bend_Energy-OPLS-2005>
403.297485351562

> <r_mmod_Torsional_Energy-OPLS-2005>
276.523223876953

> <r_mmod_Improper_Torsional_Energy-OPLS-2005>
6.17805290222168

> <r_mmod_Van_der_Waal_Energy-OPLS-2005>
115.957443237305

> <r_mmod_Electrostatic_Energy-OPLS-2005>
-333.191223144531

> <r_mmod_Solvation_Energy-OPLS-2005>
-232.941223144531

> <b_mmod_Minimization_Converged-OPLS-2005>
0

> <r_mmod_RMS_Derivative-OPLS-2005>
0.94407594203949

$$$$
83
                    3D
 Structure written by MMmdl.
161171  0  0  1  0            999 V2000
  -30.5419  -14.9621   20.4100 C   0  0  0  0  0  0
  -30.4340  -12.5978   19.4981 C   0  0  0  0  0  0
  -29.5180  -12.5274   18.2552 C   0  0  0  0  0  0
  -28.0522  -12.3114   18.6755 C   0  0  0  0  0  0
  -27.6247  -13.2503   19.8342 C   0  0  2  0  0  0
  -28.6662  -13.2949   20.9710 C   0  0  0  0  0  0
  -25.2436  -13.8220   20.5715 C   0  0  0  0  0  0
  -24.1760  -13.0440   20.9238 C   0  0  0  0  0  0
  -24.6381  -11.6929   20.8761 C   0  0  0  0  0  0
  -23.9071  -10.4297   21.0408 C   0  0  0  0  0  0
  -24.3625   -9.4209   21.9181 C   0  0  0  0  0  0
  -23.6300   -8.2241   22.0750 C   0  0  0  0  0  0
  -22.4281   -8.0278   21.3543 C   0  0  0  0  0  0
  -21.9914   -9.0254   20.4649 C   0  0  0  0  0  0
  -22.7242  -10.2134   20.3059 C   0  0  0  0  0  0
  -21.6855   -6.0733   22.5280 C   0  0  0  0  0  0
  -21.4015   -6.5639   23.8212 C   0  0  0  0  0  0
  -21.3663   -5.6792   24.9175 C   0  0  0  0  0  0
  -21.6045   -4.3054   24.7224 C   0  0  0  0  0  0
  -21.8817   -3.8145   23.4345 C   0  0  0  0  0  0
  -21.9192   -4.6961   22.3402 C   0  0  0  0  0  0
  -22.7781  -13.5208   21.1894 C   0  0  0  0  0  0
  -22.1660   -4.2146   21.0978 F   0  0  0  0  0  0
  -21.5633   -3.4538   25.7737 F   0  0  0  0  0  0
  -29.9372  -13.7065   20.3644 N   0  0  0  0  0  0
  -26.2857  -12.9458   20.3235 N   0  0  0  0  0  0
  -25.9311  -11.6587   20.5737 N   0  0  0  0  0  0
  -22.0434  -12.8204   22.0459 N   0  0  0  0  0  0
  -25.4082  -15.1948   20.4125 N   0  0  0  0  0  0
  -31.7550  -14.9976   20.1748 O   0  0  0  0  0  0
  -21.6643   -6.8875   21.4240 O   0  0  0  0  0  0
  -22.3465  -14.5507   20.6730 O   0  0  0  0  0  0
  -24.6429  -31.8424   23.1860 C   0  0  0  0  0  0
  -25.9202  -32.4683   23.8254 C   0  0  1  0  0  0
  -27.2208  -27.1240   20.1606 C   0  0  0  0  0  0
  -25.5947  -33.8491   24.2172 N   0  0  0  0  0  0
  -23.4471  -30.4584   21.5316 C   0  0  2  0  0  0
  -24.8963  -28.8732   20.1163 C   0  0  0  0  0  0
  -22.7562  -29.4532   22.4866 C   0  0  0  0  0  0
  -18.0300  -28.1395   22.8474 C   0  0  0  0  0  0
  -24.1490  -36.7255   23.2645 C   0  0  0  0  0  0
  -26.0016  -30.7106   21.3861 C   0  0  0  0  0  0
  -26.0712  -29.3169   20.7355 C   0  0  0  0  0  0
  -27.2322  -28.4574   20.7398 C   0  0  0  0  0  0
  -26.0194  -26.7738   19.5115 C   0  0  0  0  0  0
  -24.8821  -27.6148   19.4909 C   0  0  0  0  0  0
  -23.6749  -29.7800   20.1535 C   0  0  0  0  0  0
  -25.4125  -36.3031   24.0313 C   0  0  1  0  0  0
  -20.5911  -28.3720   23.1241 C   0  0  2  0  0  0
  -20.6782  -26.9422   22.5411 C   0  0  0  0  0  0
  -19.5760  -26.6376   21.5215 C   0  0  0  0  0  0
  -18.1939  -26.7931   22.1622 C   0  0  0  0  0  0
  -19.1557  -28.8875   23.2849 C   0  0  0  0  0  0
  -18.9473  -30.1469   23.8877 C   0  0  0  0  0  0
  -17.6470  -30.6591   24.0559 C   0  0  0  0  0  0
  -25.9073  -34.9403   23.5054 C   0  0  0  0  0  0
  -16.5361  -29.9083   23.6337 C   0  0  0  0  0  0
  -16.7284  -28.6502   23.0354 C   0  0  0  0  0  0
  -26.4523  -31.6560   25.0705 C   0  0  0  0  0  0
  -25.3707  -31.3759   26.1404 C   0  0  0  0  0  0
  -27.0390  -30.2953   24.6298 C   0  0  0  0  0  0
  -27.6049  -32.4334   25.7491 C   0  0  0  0  0  0
  -27.5574  -37.1786   24.8465 C   0  0  0  0  0  0
  -21.4256  -29.3042   22.3613 N   0  0  0  0  0  0
  -26.4289  -37.3742   23.9401 N   0  0  0  0  0  0
  -24.7170  -31.0262   22.0898 N   0  0  0  0  0  0
  -23.4202  -28.8091   23.3029 O   0  0  0  0  0  0
  -28.3192  -26.1915   20.1566 O   0  0  0  0  0  0
  -26.5666  -34.8905   22.4639 O   0  0  0  0  0  0
  -23.5547  -32.1308   23.7076 O   0  0  0  0  0  0
  -28.7342  -23.8047   19.1744 C   0  0  0  0  0  0
  -28.3639  -22.7208   21.5826 C   0  0  0  0  0  0
  -28.7965  -21.8030   20.5465 C   0  0  0  0  0  0
  -28.3049  -24.7161   20.2199 C   0  0  0  0  0  0
  -28.0374  -24.8998   16.9008 C   0  0  0  0  0  0
  -28.7272  -23.6102   16.5450 C   0  0  0  0  0  0
  -30.4741  -19.3471   18.9997 C   0  0  0  0  0  0
  -30.9014  -17.8817   19.0604 C   0  0  0  0  0  0
  -29.1004  -24.3379   17.8213 C   0  0  0  0  0  0
  -29.3249  -19.0705   19.9772 C   0  0  1  0  0  0
  -30.2224  -17.6969   20.4322 C   0  0  1  0  0  0
  -28.1562  -22.2077   22.9945 C   0  0  0  0  0  0
  -28.9563  -22.4225   19.3286 N   0  0  0  0  0  0
  -28.1331  -24.0920   21.4317 N   0  0  0  0  0  0
  -29.0960  -20.3625   20.8193 N   0  0  0  0  0  0
  -29.7846  -16.1723   20.5032 N   0  0  0  0  0  0
  -31.4676  -12.7531   19.1857 H   0  0  0  0  0  0
  -30.4267  -11.6515   20.0411 H   0  0  0  0  0  0
  -29.8414  -11.7255   17.5902 H   0  0  0  0  0  0
  -29.6028  -13.4536   17.6849 H   0  0  0  0  0  0
  -27.9525  -11.2719   18.9903 H   0  0  0  0  0  0
  -27.3882  -12.4344   17.8192 H   0  0  0  0  0  0
  -27.5831  -14.2492   19.3990 H   0  0  0  0  0  0
  -28.7581  -12.3257   21.4632 H   0  0  0  0  0  0
  -28.3639  -14.0077   21.7403 H   0  0  0  0  0  0
  -25.2765   -9.5690   22.4760 H   0  0  0  0  0  0
  -24.0013   -7.4631   22.7467 H   0  0  0  0  0  0
  -21.0844   -8.8774   19.8957 H   0  0  0  0  0  0
  -22.3692  -10.9676   19.6176 H   0  0  0  0  0  0
  -21.2007   -7.6145   23.9717 H   0  0  0  0  0  0
  -21.1491   -6.0521   25.9080 H   0  0  0  0  0  0
  -22.0592   -2.7607   23.2847 H   0  0  0  0  0  0
  -22.4061  -11.9875   22.4857 H   0  0  0  0  0  0
  -21.1043  -13.1216   22.2654 H   0  0  0  0  0  0
  -24.6354  -15.8428   20.5208 H   0  0  0  0  0  0
  -26.2465  -15.6375   20.0603 H   0  0  0  0  0  0
  -26.7265  -32.5284   23.0981 H   0  0  0  0  0  0
  -25.0067  -33.9600   25.0300 H   0  0  0  0  0  0
  -22.7504  -31.2841   21.3732 H   0  0  0  0  0  0
  -23.3753  -35.9587   23.3306 H   0  0  0  0  0  0
  -24.3572  -36.8892   22.2060 H   0  0  0  0  0  0
  -23.7244  -37.6449   23.6684 H   0  0  0  0  0  0
  -26.1568  -31.4600   20.6091 H   0  0  0  0  0  0
  -26.8726  -30.7654   22.0278 H   0  0  0  0  0  0
  -28.1347  -28.7979   21.2272 H   0  0  0  0  0  0
  -25.9436  -25.8083   19.0334 H   0  0  0  0  0  0
  -23.9836  -27.2700   18.9980 H   0  0  0  0  0  0
  -23.8157  -30.5504   19.3944 H   0  0  0  0  0  0
  -22.7889  -29.2232   19.8437 H   0  0  0  0  0  0
  -25.1316  -36.1861   25.0804 H   0  0  0  0  0  0
  -21.0001  -28.3309   24.1366 H   0  0  0  0  0  0
  -20.5673  -26.2332   23.3629 H   0  0  0  0  0  0
  -21.6648  -26.7422   22.1214 H   0  0  0  0  0  0
  -19.6919  -25.6282   21.1258 H   0  0  0  0  0  0
  -19.6699  -27.3175   20.6737 H   0  0  0  0  0  0
  -17.4209  -26.6678   21.4023 H   0  0  0  0  0  0
  -18.0335  -26.0076   22.9024 H   0  0  0  0  0  0
  -19.7951  -30.7284   24.2240 H   0  0  0  0  0  0
  -17.5026  -31.6269   24.5166 H   0  0  0  0  0  0
  -15.5361  -30.2977   23.7670 H   0  0  0  0  0  0
  -15.8686  -28.0811   22.7082 H   0  0  0  0  0  0
  -24.5882  -30.7112   25.7725 H   0  0  0  0  0  0
  -24.8902  -32.2946   26.4777 H   0  0  0  0  0  0
  -25.7989  -30.8963   27.0215 H   0  0  0  0  0  0
  -26.3009  -29.6669   24.1301 H   0  0  0  0  0  0
  -27.3992  -29.7263   25.4878 H   0  0  0  0  0  0
  -27.8920  -30.4181   23.9621 H   0  0  0  0  0  0
  -27.2633  -33.3646   26.2022 H   0  0  0  0  0  0
  -28.3882  -32.6881   25.0341 H   0  0  0  0  0  0
  -28.0694  -31.8496   26.5448 H   0  0  0  0  0  0
  -28.2595  -38.0079   24.7497 H   0  0  0  0  0  0
  -28.1067  -36.2607   24.6312 H   0  0  0  0  0  0
  -27.2291  -37.1461   25.8869 H   0  0  0  0  0  0
  -20.9471  -29.8742   21.6779 H   0  0  0  0  0  0
  -26.0158  -38.2813   24.1396 H   0  0  0  0  0  0
  -26.9951  -24.8270   17.2033 H   0  0  0  0  0  0
  -28.2914  -25.7749   16.3062 H   0  0  0  0  0  0
  -29.4365  -23.6422   15.7201 H   0  0  0  0  0  0
  -28.1480  -22.6926   16.6275 H   0  0  0  0  0  0
  -30.1582  -19.6872   18.0125 H   0  0  0  0  0  0
  -31.2425  -20.0053   19.4103 H   0  0  0  0  0  0
  -31.9814  -17.7289   19.0648 H   0  0  0  0  0  0
  -30.4317  -17.2985   18.2661 H   0  0  0  0  0  0
  -30.0589  -24.8528   17.8542 H   0  0  0  0  0  0
  -28.4183  -18.7880   19.4386 H   0  0  0  0  0  0
  -30.9231  -17.9540   21.2288 H   0  0  0  0  0  0
  -29.1045  -21.8700   23.4134 H   0  0  0  0  0  0
  -27.4600  -21.3691   22.9962 H   0  0  0  0  0  0
  -27.7541  -22.9804   23.6503 H   0  0  0  0  0  0
  -28.9818  -20.1459   21.8043 H   0  0  0  0  0  0
  -28.7961  -16.0267   20.6451 H   0  0  0  0  0  0
  1 25  1  0  0  0
  1 30  2  0  0  0
  1 86  1  0  0  0
  2  3  1  0  0  0
  2 25  1  0  0  0
  2 87  1  0  0  0
  2 88  1  0  0  0
  3  4  1  0  0  0
  3 89  1  0  0  0
  3 90  1  0  0  0
  4  5  1  0  0  0
  4 91  1  0  0  0
  4 92  1  0  0  0
  5  6  1  0  0  0
  5 26  1  0  0  0
  5 93  1  0  0  0
  6 25  1  0  0  0
  6 94  1  0  0  0
  6 95  1  0  0  0
  7  8  2  0  0  0
  7 26  1  0  0  0
  7 29  1  0  0  0
  8  9  1  0  0  0
  8 22  1  0  0  0
  9 10  1  0  0  0
  9 27  2  0  0  0
 10 11  2  0  0  0
 10 15  1  0  0  0
 11 12  1  0  0  0
 11 96  1  0  0  0
 12 13  2  0  0  0
 12 97  1  0  0  0
 13 14  1  0  0  0
 13 31  1  0  0  0
 14 15  2  0  0  0
 14 98  1  0  0  0
 15 99  1  0  0  0
 16 17  2  0  0  0
 16 21  1  0  0  0
 16 31  1  0  0  0
 17 18  1  0  0  0
 17100  1  0  0  0
 18 19  2  0  0  0
 18101  1  0  0  0
 19 20  1  0  0  0
 19 24  1  0  0  0
 20 21  2  0  0  0
 20102  1  0  0  0
 21 23  1  0  0  0
 22 28  1  0  0  0
 22 32  2  0  0  0
 26 27  1  0  0  0
 28103  1  0  0  0
 28104  1  0  0  0
 29105  1  0  0  0
 29106  1  0  0  0
 33 34  1  0  0  0
 33 66  1  0  0  0
 33 70  2  0  0  0
 34 36  1  0  0  0
 34 59  1  0  0  0
 34107  1  0  0  0
 35 44  2  0  0  0
 35 45  1  0  0  0
 35 68  1  0  0  0
 36 56  1  0  0  0
 36108  1  0  0  0
 37 39  1  0  0  0
 37 47  1  0  0  0
 37 66  1  0  0  0
 37109  1  0  0  0
 38 43  2  0  0  0
 38 46  1  0  0  0
 38 47  1  0  0  0
 39 64  1  0  0  0
 39 67  2  0  0  0
 40 52  1  0  0  0
 40 53  2  0  0  0
 40 58  1  0  0  0
 41110  1  0  0  0
 41111  1  0  0  0
 41112  1  0  0  0
 41 48  1  0  0  0
 42 43  1  0  0  0
 42 66  1  0  0  0
 42113  1  0  0  0
 42114  1  0  0  0
 43 44  1  0  0  0
 44115  1  0  0  0
 45 46  2  0  0  0
 45116  1  0  0  0
 46117  1  0  0  0
 47118  1  0  0  0
 47119  1  0  0  0
 48 56  1  0  0  0
 48 65  1  0  0  0
 48120  1  0  0  0
 49 50  1  0  0  0
 49 53  1  0  0  0
 49 64  1  0  0  0
 49121  1  0  0  0
 50 51  1  0  0  0
 50122  1  0  0  0
 50123  1  0  0  0
 51 52  1  0  0  0
 51124  1  0  0  0
 51125  1  0  0  0
 52126  1  0  0  0
 52127  1  0  0  0
 53 54  1  0  0  0
 54 55  2  0  0  0
 54128  1  0  0  0
 55 57  1  0  0  0
 55129  1  0  0  0
 56 69  2  0  0  0
 57 58  2  0  0  0
 57130  1  0  0  0
 58131  1  0  0  0
 59 60  1  0  0  0
 59 61  1  0  0  0
 59 62  1  0  0  0
 60132  1  0  0  0
 60133  1  0  0  0
 60134  1  0  0  0
 61135  1  0  0  0
 61136  1  0  0  0
 61137  1  0  0  0
 62138  1  0  0  0
 62139  1  0  0  0
 62140  1  0  0  0
 63 65  1  0  0  0
 63141  1  0  0  0
 63142  1  0  0  0
 63143  1  0  0  0
 64144  1  0  0  0
 65145  1  0  0  0
 68 74  1  0  0  0
 71 74  1  0  0  0
 71 83  2  0  0  0
 71 79  1  0  0  0
 72 73  2  0  0  0
 72 82  1  0  0  0
 72 84  1  0  0  0
 73 83  1  0  0  0
 73 85  1  0  0  0
 74 84  2  0  0  0
 75 76  1  0  0  0
 75 79  1  0  0  0
 75146  1  0  0  0
 75147  1  0  0  0
 76 79  1  0  0  0
 76148  1  0  0  0
 76149  1  0  0  0
 77 78  1  0  0  0
 77 80  1  0  0  0
 77150  1  0  0  0
 77151  1  0  0  0
 78 81  1  0  0  0
 78152  1  0  0  0
 78153  1  0  0  0
 79154  1  0  0  0
 80 81  1  0  0  0
 80 85  1  0  0  0
 80155  1  0  0  0
 81 86  1  0  0  0
 81156  1  0  0  0
 82157  1  0  0  0
 82158  1  0  0  0
 82159  1  0  0  0
 85160  1  0  0  0
 86161  1  0  0  0
M  ISO  4   1 100  68 101  74 101  86 100
M  END
> <chiral flag>
0

> <version>
0

> <s_m_source_file>
/data/baiqing/PycharmProjects/Reinvent-master-3.2/result/LINK_invent/BTK/process_docking_weight1_custom_sum_contain_oxygen_bond_distance_aromatic_linkinvent_7_9_3/rearranged_h_0183.sdf

> <i_m_source_file_index>
83

> <r_mmod_Potential_Energy-OPLS-2005>
507.12939453125

> <r_mmod_Stretch_Energy-OPLS-2005>
238.980194091797

> <r_mmod_Bend_Energy-OPLS-2005>
306.318206787109

> <r_mmod_Torsional_Energy-OPLS-2005>
263.768859863281

> <r_mmod_Improper_Torsional_Energy-OPLS-2005>
6.68178939819336

> <r_mmod_Van_der_Waal_Energy-OPLS-2005>
123.665756225586

> <r_mmod_Electrostatic_Energy-OPLS-2005>
-397.112335205078

> <r_mmod_Solvation_Energy-OPLS-2005>
-229.615615844727

> <b_mmod_Minimization_Converged-OPLS-2005>
0

> <r_mmod_RMS_Derivative-OPLS-2005>
0.685039460659027

$$$$
84
                    3D
 Structure written by MMmdl.
169178  0  0  1  0            999 V2000
  -30.5163  -15.1496   20.3545 C   0  0  0  0  0  0
  -30.4392  -12.7295   19.4872 C   0  0  0  0  0  0
  -29.5212  -12.4983   18.2633 C   0  0  0  0  0  0
  -28.0640  -12.2741   18.7043 C   0  0  0  0  0  0
  -27.6117  -13.2646   19.8101 C   0  0  2  0  0  0
  -28.6608  -13.4207   20.9287 C   0  0  0  0  0  0
  -25.2410  -13.8256   20.5744 C   0  0  0  0  0  0
  -24.1737  -13.0461   20.9258 C   0  0  0  0  0  0
  -24.6372  -11.6951   20.8781 C   0  0  0  0  0  0
  -23.9071  -10.4299   21.0412 C   0  0  0  0  0  0
  -24.3614   -9.4210   21.9188 C   0  0  0  0  0  0
  -23.6285   -8.2244   22.0741 C   0  0  0  0  0  0
  -22.4271   -8.0278   21.3536 C   0  0  0  0  0  0
  -21.9914   -9.0253   20.4643 C   0  0  0  0  0  0
  -22.7241  -10.2134   20.3062 C   0  0  0  0  0  0
  -21.6843   -6.0738   22.5269 C   0  0  0  0  0  0
  -21.4021   -6.5634   23.8205 C   0  0  0  0  0  0
  -21.3667   -5.6780   24.9159 C   0  0  0  0  0  0
  -21.6047   -4.3044   24.7213 C   0  0  0  0  0  0
  -21.8818   -3.8143   23.4331 C   0  0  0  0  0  0
  -21.9182   -4.6966   22.3393 C   0  0  0  0  0  0
  -22.7754  -13.5216   21.1906 C   0  0  0  0  0  0
  -22.1650   -4.2149   21.0972 F   0  0  0  0  0  0
  -21.5630   -3.4529   25.7733 F   0  0  0  0  0  0
  -29.8955  -13.8839   20.2727 N   0  0  0  0  0  0
  -26.2821  -12.9512   20.3206 N   0  0  0  0  0  0
  -25.9313  -11.6630   20.5742 N   0  0  0  0  0  0
  -22.0402  -12.8216   22.0460 N   0  0  0  0  0  0
  -25.4128  -15.1978   20.4207 N   0  0  0  0  0  0
  -31.7543  -15.0996   20.3255 O   0  0  0  0  0  0
  -21.6631   -6.8883   21.4231 O   0  0  0  0  0  0
  -22.3456  -14.5519   20.6732 O   0  0  0  0  0  0
  -24.6522  -31.8332   23.1770 C   0  0  0  0  0  0
  -25.9255  -32.4633   23.8172 C   0  0  1  0  0  0
  -27.2117  -27.0168   20.1819 C   0  0  0  0  0  0
  -25.5985  -33.8440   24.2092 N   0  0  0  0  0  0
  -23.4596  -30.4490   21.5221 C   0  0  2  0  0  0
  -24.9130  -28.8510   20.1095 C   0  0  0  0  0  0
  -22.7602  -29.4484   22.4776 C   0  0  0  0  0  0
  -18.0336  -28.1425   22.8469 C   0  0  0  0  0  0
  -24.1495  -36.7202   23.2634 C   0  0  0  0  0  0
  -26.0233  -30.6684   21.3942 C   0  0  0  0  0  0
  -26.0931  -29.2682   20.7391 C   0  0  0  0  0  0
  -27.2386  -28.3703   20.7517 C   0  0  0  0  0  0
  -26.0045  -26.7275   19.5094 C   0  0  0  0  0  0
  -24.8881  -27.6003   19.4748 C   0  0  0  0  0  0
  -23.6959  -29.7698   20.1452 C   0  0  0  0  0  0
  -25.4138  -36.2974   24.0294 C   0  0  1  0  0  0
  -20.5947  -28.3758   23.1214 C   0  0  2  0  0  0
  -20.6822  -26.9456   22.5410 C   0  0  0  0  0  0
  -19.5791  -26.6400   21.5220 C   0  0  0  0  0  0
  -18.1964  -26.7955   22.1617 C   0  0  0  0  0  0
  -19.1592  -28.8908   23.2834 C   0  0  0  0  0  0
  -18.9498  -30.1502   23.8867 C   0  0  0  0  0  0
  -17.6492  -30.6613   24.0568 C   0  0  0  0  0  0
  -25.9105  -34.9372   23.5000 C   0  0  0  0  0  0
  -16.5385  -29.9100   23.6353 C   0  0  0  0  0  0
  -16.7319  -28.6522   23.0365 C   0  0  0  0  0  0
  -26.4549  -31.6539   25.0655 C   0  0  0  0  0  0
  -25.3699  -31.3794   26.1322 C   0  0  0  0  0  0
  -27.0420  -30.2902   24.6333 C   0  0  0  0  0  0
  -27.6046  -32.4335   25.7468 C   0  0  0  0  0  0
  -27.5571  -37.1762   24.8462 C   0  0  0  0  0  0
  -21.4291  -29.3028   22.3531 N   0  0  0  0  0  0
  -26.4285  -37.3710   23.9405 N   0  0  0  0  0  0
  -24.7316  -31.0090   22.0853 N   0  0  0  0  0  0
  -23.4179  -28.8063   23.2990 O   0  0  0  0  0  0
  -28.2376  -25.9677   20.2733 O   0  0  0  0  0  0
  -26.5692  -34.8889   22.4579 O   0  0  0  0  0  0
  -23.5627  -32.1262   23.6936 O   0  0  0  0  0  0
  -28.9283  -16.9838   17.4735 C   0  0  0  0  0  0
  -30.6189  -19.1896   20.4339 C   0  0  0  0  0  0
  -28.2516  -18.7900   20.3141 C   0  0  0  0  0  0
  -29.6631  -18.0001   16.5845 C   0  0  0  0  0  0
  -30.2462  -20.6738   19.7765 C   0  0  0  0  0  0
  -28.1459  -20.3546   20.8620 C   0  0  0  0  0  0
  -31.3707  -16.9329   17.8329 C   0  0  0  0  0  0
  -29.6119  -17.9165   20.4945 C   0  0  1  0  0  0
  -30.0261  -16.4095   18.3841 C   0  0  1  0  0  0
  -32.0453  -18.5407   16.0671 C   0  0  0  0  0  0
  -29.0110  -23.0172   20.5262 C   0  0  0  0  0  0
  -28.0042  -24.3813   20.0863 C   0  0  0  0  0  0
  -29.8704  -16.3902   19.8806 N   0  0  0  0  0  0
  -31.0632  -17.5246   16.5140 N   0  3  2  0  0  0
  -28.9349  -21.4265   20.0975 N   0  3  1  0  0  0
  -31.4588  -12.9138   19.1484 H   0  0  0  0  0  0
  -30.4929  -11.8343   20.1079 H   0  0  0  0  0  0
  -29.8746  -11.6377   17.6941 H   0  0  0  0  0  0
  -29.5689  -13.3401   17.5763 H   0  0  0  0  0  0
  -27.9996  -11.2551   19.0865 H   0  0  0  0  0  0
  -27.3928  -12.3176   17.8467 H   0  0  0  0  0  0
  -27.5311  -14.2325   19.3115 H   0  0  0  0  0  0
  -28.8103  -12.4834   21.4660 H   0  0  0  0  0  0
  -28.3318  -14.1563   21.6649 H   0  0  0  0  0  0
  -25.2762   -9.5675   22.4765 H   0  0  0  0  0  0
  -23.9981   -7.4638   22.7472 H   0  0  0  0  0  0
  -21.0832   -8.8777   19.8967 H   0  0  0  0  0  0
  -22.3683  -10.9669   19.6174 H   0  0  0  0  0  0
  -21.2019   -7.6145   23.9711 H   0  0  0  0  0  0
  -21.1494   -6.0507   25.9058 H   0  0  0  0  0  0
  -22.0595   -2.7608   23.2820 H   0  0  0  0  0  0
  -22.4004  -11.9870   22.4849 H   0  0  0  0  0  0
  -21.1021  -13.1249   22.2685 H   0  0  0  0  0  0
  -24.6545  -15.8592   20.5458 H   0  0  0  0  0  0
  -26.2757  -15.6314   20.1198 H   0  0  0  0  0  0
  -26.7300  -32.5192   23.0865 H   0  0  0  0  0  0
  -25.0140  -33.9533   25.0246 H   0  0  0  0  0  0
  -22.7677  -31.2785   21.3600 H   0  0  0  0  0  0
  -23.3773  -35.9514   23.3285 H   0  0  0  0  0  0
  -24.3558  -36.8858   22.2045 H   0  0  0  0  0  0
  -23.7242  -37.6387   23.6698 H   0  0  0  0  0  0
  -26.2009  -31.4170   20.6205 H   0  0  0  0  0  0
  -26.8846  -30.7171   22.0489 H   0  0  0  0  0  0
  -28.1352  -28.6872   21.2670 H   0  0  0  0  0  0
  -25.8881  -25.7673   19.0305 H   0  0  0  0  0  0
  -23.9884  -27.2769   18.9690 H   0  0  0  0  0  0
  -23.8468  -30.5398   19.3888 H   0  0  0  0  0  0
  -22.8060  -29.2221   19.8286 H   0  0  0  0  0  0
  -25.1347  -36.1765   25.0794 H   0  0  0  0  0  0
  -21.0063  -28.3381   24.1333 H   0  0  0  0  0  0
  -20.5729  -26.2376   23.3638 H   0  0  0  0  0  0
  -21.6685  -26.7467   22.1202 H   0  0  0  0  0  0
  -19.6954  -25.6295   21.1287 H   0  0  0  0  0  0
  -19.6741  -27.3179   20.6725 H   0  0  0  0  0  0
  -17.4248  -26.6727   21.4012 H   0  0  0  0  0  0
  -18.0363  -26.0114   22.9032 H   0  0  0  0  0  0
  -19.7978  -30.7346   24.2197 H   0  0  0  0  0  0
  -17.5051  -31.6297   24.5172 H   0  0  0  0  0  0
  -15.5379  -30.2997   23.7708 H   0  0  0  0  0  0
  -15.8721  -28.0841   22.7088 H   0  0  0  0  0  0
  -24.5917  -30.7091   25.7644 H   0  0  0  0  0  0
  -24.8846  -32.3003   26.4578 H   0  0  0  0  0  0
  -25.7956  -30.9098   27.0198 H   0  0  0  0  0  0
  -26.3051  -29.6599   24.1332 H   0  0  0  0  0  0
  -27.3956  -29.7249   25.4964 H   0  0  0  0  0  0
  -27.9012  -30.4070   23.9717 H   0  0  0  0  0  0
  -27.2618  -33.3692   26.1907 H   0  0  0  0  0  0
  -28.3957  -32.6795   25.0368 H   0  0  0  0  0  0
  -28.0591  -31.8534   26.5513 H   0  0  0  0  0  0
  -28.2579  -38.0065   24.7526 H   0  0  0  0  0  0
  -28.1090  -36.2599   24.6312 H   0  0  0  0  0  0
  -27.2286  -37.1435   25.8861 H   0  0  0  0  0  0
  -20.9522  -29.8685   21.6654 H   0  0  0  0  0  0
  -26.0132  -38.2766   24.1442 H   0  0  0  0  0  0
  -28.0387  -17.3534   17.9653 H   0  0  0  0  0  0
  -28.5595  -16.1852   16.8242 H   0  0  0  0  0  0
  -30.8248  -19.4260   21.4787 H   0  0  0  0  0  0
  -31.6065  -18.8887   20.1041 H   0  0  0  0  0  0
  -28.0046  -18.8768   19.2641 H   0  0  0  0  0  0
  -27.4340  -18.2209   20.7560 H   0  0  0  0  0  0
  -29.6215  -18.9886   17.0427 H   0  0  0  0  0  0
  -29.2213  -18.0796   15.5899 H   0  0  0  0  0  0
  -30.2700  -20.5751   18.6927 H   0  0  0  0  0  0
  -31.0754  -21.3451   19.9982 H   0  0  0  0  0  0
  -28.4445  -20.3744   21.9104 H   0  0  0  0  0  0
  -27.1004  -20.6645   20.8517 H   0  0  0  0  0  0
  -32.1061  -16.1359   17.7235 H   0  0  0  0  0  0
  -31.8244  -17.6807   18.4690 H   0  0  0  0  0  0
  -29.6052  -17.6623   21.5559 H   0  0  0  0  0  0
  -30.0204  -15.3743   18.0448 H   0  0  0  0  0  0
  -31.8178  -18.9040   15.0643 H   0  0  0  0  0  0
  -33.0502  -18.1154   16.0468 H   0  0  0  0  0  0
  -32.0620  -19.3966   16.7436 H   0  0  0  0  0  0
  -29.1349  -23.0392   21.6097 H   0  0  0  0  0  0
  -29.9839  -23.3256   20.1492 H   0  0  0  0  0  0
  -27.8047  -24.2679   19.0207 H   0  0  0  0  0  0
  -27.0447  -24.1823   20.5656 H   0  0  0  0  0  0
  -31.0840  -16.7764   15.8344 H   0  0  0  0  0  0
  -28.4818  -21.4661   19.1972 H   0  0  0  0  0  0
  1 25  1  0  0  0
  1 30  2  0  0  0
  1 83  1  0  0  0
  2  3  1  0  0  0
  2 25  1  0  0  0
  2 86  1  0  0  0
  2 87  1  0  0  0
  3  4  1  0  0  0
  3 88  1  0  0  0
  3 89  1  0  0  0
  4  5  1  0  0  0
  4 90  1  0  0  0
  4 91  1  0  0  0
  5  6  1  0  0  0
  5 26  1  0  0  0
  5 92  1  0  0  0
  6 25  1  0  0  0
  6 93  1  0  0  0
  6 94  1  0  0  0
  7  8  2  0  0  0
  7 26  1  0  0  0
  7 29  1  0  0  0
  8  9  1  0  0  0
  8 22  1  0  0  0
  9 10  1  0  0  0
  9 27  2  0  0  0
 10 11  2  0  0  0
 10 15  1  0  0  0
 11 12  1  0  0  0
 11 95  1  0  0  0
 12 13  2  0  0  0
 12 96  1  0  0  0
 13 14  1  0  0  0
 13 31  1  0  0  0
 14 15  2  0  0  0
 14 97  1  0  0  0
 15 98  1  0  0  0
 16 17  2  0  0  0
 16 21  1  0  0  0
 16 31  1  0  0  0
 17 18  1  0  0  0
 17 99  1  0  0  0
 18 19  2  0  0  0
 18100  1  0  0  0
 19 20  1  0  0  0
 19 24  1  0  0  0
 20 21  2  0  0  0
 20101  1  0  0  0
 21 23  1  0  0  0
 22 28  1  0  0  0
 22 32  2  0  0  0
 26 27  1  0  0  0
 28102  1  0  0  0
 28103  1  0  0  0
 29104  1  0  0  0
 29105  1  0  0  0
 33 34  1  0  0  0
 33 66  1  0  0  0
 33 70  2  0  0  0
 34 36  1  0  0  0
 34 59  1  0  0  0
 34106  1  0  0  0
 35 44  2  0  0  0
 35 45  1  0  0  0
 35 68  1  0  0  0
 36 56  1  0  0  0
 36107  1  0  0  0
 37 39  1  0  0  0
 37 47  1  0  0  0
 37 66  1  0  0  0
 37108  1  0  0  0
 38 43  2  0  0  0
 38 46  1  0  0  0
 38 47  1  0  0  0
 39 64  1  0  0  0
 39 67  2  0  0  0
 40 52  1  0  0  0
 40 53  2  0  0  0
 40 58  1  0  0  0
 41109  1  0  0  0
 41110  1  0  0  0
 41111  1  0  0  0
 41 48  1  0  0  0
 42 43  1  0  0  0
 42 66  1  0  0  0
 42112  1  0  0  0
 42113  1  0  0  0
 43 44  1  0  0  0
 44114  1  0  0  0
 45 46  2  0  0  0
 45115  1  0  0  0
 46116  1  0  0  0
 47117  1  0  0  0
 47118  1  0  0  0
 48 56  1  0  0  0
 48 65  1  0  0  0
 48119  1  0  0  0
 49 50  1  0  0  0
 49 53  1  0  0  0
 49 64  1  0  0  0
 49120  1  0  0  0
 50 51  1  0  0  0
 50121  1  0  0  0
 50122  1  0  0  0
 51 52  1  0  0  0
 51123  1  0  0  0
 51124  1  0  0  0
 52125  1  0  0  0
 52126  1  0  0  0
 53 54  1  0  0  0
 54 55  2  0  0  0
 54127  1  0  0  0
 55 57  1  0  0  0
 55128  1  0  0  0
 56 69  2  0  0  0
 57 58  2  0  0  0
 57129  1  0  0  0
 58130  1  0  0  0
 59 60  1  0  0  0
 59 61  1  0  0  0
 59 62  1  0  0  0
 60131  1  0  0  0
 60132  1  0  0  0
 60133  1  0  0  0
 61134  1  0  0  0
 61135  1  0  0  0
 61136  1  0  0  0
 62137  1  0  0  0
 62138  1  0  0  0
 62139  1  0  0  0
 63 65  1  0  0  0
 63140  1  0  0  0
 63141  1  0  0  0
 63142  1  0  0  0
 64143  1  0  0  0
 65144  1  0  0  0
 68 82  1  0  0  0
 71 74  1  0  0  0
 71 79  1  0  0  0
 71145  1  0  0  0
 71146  1  0  0  0
 72 75  1  0  0  0
 72 78  1  0  0  0
 72147  1  0  0  0
 72148  1  0  0  0
 73 76  1  0  0  0
 73 78  1  0  0  0
 73149  1  0  0  0
 73150  1  0  0  0
 74 84  1  0  0  0
 74151  1  0  0  0
 74152  1  0  0  0
 75 85  1  0  0  0
 75153  1  0  0  0
 75154  1  0  0  0
 76 85  1  0  0  0
 76155  1  0  0  0
 76156  1  0  0  0
 77 79  1  0  0  0
 77 84  1  0  0  0
 77157  1  0  0  0
 77158  1  0  0  0
 78 83  1  0  0  0
 78159  1  0  0  0
 79 83  1  0  0  0
 79160  1  0  0  0
 80161  1  0  0  0
 80162  1  0  0  0
 80163  1  0  0  0
 80 84  1  0  0  0
 81 82  1  0  0  0
 81164  1  0  0  0
 81165  1  0  0  0
 81 85  1  0  0  0
 82166  1  0  0  0
 82167  1  0  0  0
 84168  1  0  0  0
 85169  1  0  0  0
M  CHG  2  84   1  85   1
M  ISO  4   1 100  68 101  82 101  83 100
M  END
> <chiral flag>
0

> <version>
0

> <s_m_source_file>
/data/baiqing/PycharmProjects/Reinvent-master-3.2/result/LINK_invent/BTK/process_docking_weight1_custom_sum_contain_oxygen_bond_distance_aromatic_linkinvent_7_9_3/rearranged_h_0183.sdf

> <i_m_source_file_index>
84

> <r_mmod_Potential_Energy-OPLS-2005>
1169.22521972656

> <r_mmod_Stretch_Energy-OPLS-2005>
434.732391357422

> <r_mmod_Bend_Energy-OPLS-2005>
470.304290771484

> <r_mmod_Torsional_Energy-OPLS-2005>
463.304138183594

> <r_mmod_Improper_Torsional_Energy-OPLS-2005>
23.7513751983643

> <r_mmod_Van_der_Waal_Energy-OPLS-2005>
121.352546691895

> <r_mmod_Electrostatic_Energy-OPLS-2005>
195.126968383789

> <r_mmod_Solvation_Energy-OPLS-2005>
-888.165344238281

> <b_mmod_Minimization_Converged-OPLS-2005>
0

> <r_mmod_RMS_Derivative-OPLS-2005>
3.3906147480011

$$$$
85
                    3D
 Structure written by MMmdl.
155164  0  0  1  0            999 V2000
  -30.5370  -15.1874   20.3520 C   0  0  0  0  0  0
  -30.4085  -12.7518   19.5383 C   0  0  0  0  0  0
  -29.5321  -12.5138   18.2795 C   0  0  0  0  0  0
  -28.0269  -12.7445   18.5428 C   0  0  0  0  0  0
  -27.7161  -12.8190   20.0440 C   0  0  2  0  0  0
  -28.6377  -13.6058   20.9810 C   0  0  0  0  0  0
  -25.2992  -13.7630   20.5596 C   0  0  0  0  0  0
  -24.1825  -13.0391   20.9076 C   0  0  0  0  0  0
  -24.5814  -11.6717   20.8823 C   0  0  0  0  0  0
  -23.8511  -10.4245   21.0555 C   0  0  0  0  0  0
  -24.3259   -9.4197   21.9270 C   0  0  0  0  0  0
  -23.6100   -8.2155   22.0761 C   0  0  0  0  0  0
  -22.4108   -8.0159   21.3526 C   0  0  0  0  0  0
  -21.9635   -9.0094   20.4641 C   0  0  0  0  0  0
  -22.6795  -10.2058   20.3113 C   0  0  0  0  0  0
  -21.6796   -6.0657   22.5285 C   0  0  0  0  0  0
  -21.3970   -6.5594   23.8208 C   0  0  0  0  0  0
  -21.3648   -5.6765   24.9185 C   0  0  0  0  0  0
  -21.6047   -4.3028   24.7247 C   0  0  0  0  0  0
  -21.8831   -3.8101   23.4376 C   0  0  0  0  0  0
  -21.9179   -4.6899   22.3422 C   0  0  0  0  0  0
  -22.7957  -13.5494   21.1745 C   0  0  0  0  0  0
  -22.1665   -4.2090   21.1001 F   0  0  0  0  0  0
  -21.5638   -3.4523   25.7770 F   0  0  0  0  0  0
  -29.8907  -13.9425   20.3019 N   0  0  0  0  0  0
  -26.3071  -12.8097   20.3933 N   0  0  0  0  0  0
  -25.8507  -11.5651   20.5950 N   0  0  0  0  0  0
  -22.0490  -12.8574   22.0308 N   0  0  0  0  0  0
  -25.5295  -15.1239   20.3791 N   0  0  0  0  0  0
  -31.7553  -15.1327   20.1415 O   0  0  0  0  0  0
  -21.6547   -6.8735   21.4215 O   0  0  0  0  0  0
  -22.3780  -14.5841   20.6586 O   0  0  0  0  0  0
  -24.6535  -31.8338   23.1791 C   0  0  0  0  0  0
  -25.9259  -32.4643   23.8221 C   0  0  1  0  0  0
  -27.2165  -27.0184   20.1776 C   0  0  0  0  0  0
  -25.5969  -33.8453   24.2132 N   0  0  0  0  0  0
  -23.4640  -30.4481   21.5264 C   0  0  2  0  0  0
  -24.9168  -28.8507   20.1155 C   0  0  0  0  0  0
  -22.7616  -29.4496   22.4815 C   0  0  0  0  0  0
  -18.0315  -28.1408   22.8464 C   0  0  0  0  0  0
  -24.1491  -36.7229   23.2648 C   0  0  0  0  0  0
  -26.0273  -30.6666   21.4001 C   0  0  0  0  0  0
  -26.0955  -29.2640   20.7486 C   0  0  0  0  0  0
  -27.2431  -28.3656   20.7625 C   0  0  0  0  0  0
  -26.0135  -26.7400   19.4928 C   0  0  0  0  0  0
  -24.8933  -27.6043   19.4714 C   0  0  0  0  0  0
  -23.7000  -29.7692   20.1498 C   0  0  0  0  0  0
  -25.4133  -36.3001   24.0306 C   0  0  1  0  0  0
  -20.5930  -28.3751   23.1203 C   0  0  2  0  0  0
  -20.6805  -26.9444   22.5398 C   0  0  0  0  0  0
  -19.5780  -26.6382   21.5211 C   0  0  0  0  0  0
  -18.1959  -26.7942   22.1618 C   0  0  0  0  0  0
  -19.1573  -28.8898   23.2823 C   0  0  0  0  0  0
  -18.9487  -30.1484   23.8864 C   0  0  0  0  0  0
  -17.6484  -30.6602   24.0552 C   0  0  0  0  0  0
  -25.9084  -34.9380   23.5031 C   0  0  0  0  0  0
  -16.5375  -29.9091   23.6340 C   0  0  0  0  0  0
  -16.7296  -28.6510   23.0362 C   0  0  0  0  0  0
  -26.4551  -31.6564   25.0713 C   0  0  0  0  0  0
  -25.3702  -31.3788   26.1385 C   0  0  0  0  0  0
  -27.0445  -30.2943   24.6396 C   0  0  0  0  0  0
  -27.6044  -32.4368   25.7515 C   0  0  0  0  0  0
  -27.5574  -37.1773   24.8466 C   0  0  0  0  0  0
  -21.4296  -29.3056   22.3558 N   0  0  0  0  0  0
  -26.4286  -37.3725   23.9405 N   0  0  0  0  0  0
  -24.7353  -31.0078   22.0891 N   0  0  0  0  0  0
  -23.4195  -28.8060   23.3025 O   0  0  0  0  0  0
  -28.2529  -25.9736   20.1789 O   0  0  0  0  0  0
  -26.5678  -34.8893   22.4612 O   0  0  0  0  0  0
  -23.5624  -32.1276   23.6933 O   0  0  0  0  0  0
  -28.9514  -23.3085   20.0316 C   0  0  0  0  0  0
  -28.6482  -21.8781   20.3884 C   0  0  0  0  0  0
  -28.0961  -24.4872   20.3990 C   0  0  0  0  0  0
  -26.7584  -22.8351   21.3740 C   0  0  0  0  0  0
  -30.5196  -17.8190   20.9570 C   0  0  0  0  0  0
  -29.1371  -17.4068   19.5769 C   0  0  0  0  0  0
  -29.3107  -18.7631   20.4562 C   0  0  0  0  0  0
  -25.4996  -22.5714   22.1722 C   0  0  0  0  0  0
  -29.3750  -20.4289   19.8698 C   0  0  1  0  0  0
  -27.4741  -21.7476   21.0392 N   0  0  0  0  0  0
  -27.0008  -24.1245   21.0960 N   0  0  0  0  0  0
  -29.8757  -16.4819   20.5489 N   0  0  0  0  0  0
  -28.9772  -20.4070   18.4609 N   0  3  0  0  0  0
  -31.4514  -12.8669   19.2413 H   0  0  0  0  0  0
  -30.3907  -11.8746   20.1882 H   0  0  0  0  0  0
  -29.6946  -11.4951   17.9253 H   0  0  0  0  0  0
  -29.8586  -13.1658   17.4680 H   0  0  0  0  0  0
  -27.4359  -11.9637   18.0620 H   0  0  0  0  0  0
  -27.7217  -13.6842   18.0824 H   0  0  0  0  0  0
  -28.0582  -11.8164   20.3181 H   0  0  0  0  0  0
  -28.8446  -13.0494   21.8966 H   0  0  0  0  0  0
  -28.1418  -14.5249   21.2944 H   0  0  0  0  0  0
  -25.2412   -9.5746   22.4816 H   0  0  0  0  0  0
  -23.9887   -7.4550   22.7429 H   0  0  0  0  0  0
  -21.0601   -8.8516   19.8928 H   0  0  0  0  0  0
  -22.3223  -10.9583   19.6222 H   0  0  0  0  0  0
  -21.1942   -7.6103   23.9679 H   0  0  0  0  0  0
  -21.1467   -6.0515   25.9079 H   0  0  0  0  0  0
  -22.0629   -2.7563   23.2898 H   0  0  0  0  0  0
  -22.3980  -12.0162   22.4663 H   0  0  0  0  0  0
  -21.1153  -13.1715   22.2531 H   0  0  0  0  0  0
  -24.7971  -15.8221   20.4456 H   0  0  0  0  0  0
  -26.4177  -15.5018   20.0753 H   0  0  0  0  0  0
  -26.7315  -32.5211   23.0931 H   0  0  0  0  0  0
  -25.0100  -33.9564   25.0272 H   0  0  0  0  0  0
  -22.7728  -31.2772   21.3612 H   0  0  0  0  0  0
  -23.3763  -35.9547   23.3288 H   0  0  0  0  0  0
  -24.3567  -36.8892   22.2065 H   0  0  0  0  0  0
  -23.7234  -37.6408   23.6710 H   0  0  0  0  0  0
  -26.1992  -31.4111   20.6218 H   0  0  0  0  0  0
  -26.8910  -30.7211   22.0509 H   0  0  0  0  0  0
  -28.1412  -28.6818   21.2744 H   0  0  0  0  0  0
  -25.9156  -25.7860   18.9944 H   0  0  0  0  0  0
  -23.9971  -27.2818   18.9603 H   0  0  0  0  0  0
  -23.8512  -30.5408   19.3932 H   0  0  0  0  0  0
  -22.8117  -29.2198   19.8333 H   0  0  0  0  0  0
  -25.1329  -36.1810   25.0797 H   0  0  0  0  0  0
  -21.0017  -28.3357   24.1327 H   0  0  0  0  0  0
  -20.5708  -26.2370   23.3629 H   0  0  0  0  0  0
  -21.6670  -26.7448   22.1196 H   0  0  0  0  0  0
  -19.6946  -25.6281   21.1275 H   0  0  0  0  0  0
  -19.6719  -27.3162   20.6714 H   0  0  0  0  0  0
  -17.4229  -26.6673   21.4021 H   0  0  0  0  0  0
  -18.0357  -26.0100   22.9030 H   0  0  0  0  0  0
  -19.7963  -30.7300   24.2227 H   0  0  0  0  0  0
  -17.5042  -31.6280   24.5159 H   0  0  0  0  0  0
  -15.5374  -30.2984   23.7692 H   0  0  0  0  0  0
  -15.8694  -28.0813   22.7112 H   0  0  0  0  0  0
  -24.5875  -30.7157   25.7693 H   0  0  0  0  0  0
  -24.8908  -32.2984   26.4744 H   0  0  0  0  0  0
  -25.7951  -30.8988   27.0211 H   0  0  0  0  0  0
  -26.3093  -29.6619   24.1409 H   0  0  0  0  0  0
  -27.4017  -29.7308   25.5030 H   0  0  0  0  0  0
  -27.9019  -30.4154   23.9772 H   0  0  0  0  0  0
  -27.2598  -33.3684   26.2021 H   0  0  0  0  0  0
  -28.3889  -32.6919   25.0377 H   0  0  0  0  0  0
  -28.0678  -31.8555   26.5500 H   0  0  0  0  0  0
  -28.2582  -38.0081   24.7511 H   0  0  0  0  0  0
  -28.1082  -36.2605   24.6297 H   0  0  0  0  0  0
  -27.2283  -37.1415   25.8868 H   0  0  0  0  0  0
  -20.9534  -29.8747   21.6701 H   0  0  0  0  0  0
  -26.0144  -38.2787   24.1404 H   0  0  0  0  0  0
  -29.8474  -23.5134   19.4606 H   0  0  0  0  0  0
  -30.6936  -17.9103   22.0296 H   0  0  0  0  0  0
  -31.4558  -18.0209   20.4298 H   0  0  0  0  0  0
  -29.6255  -17.4629   18.6017 H   0  0  0  0  0  0
  -28.0898  -17.1396   19.4323 H   0  0  0  0  0  0
  -28.5407  -18.7247   21.2281 H   0  0  0  0  0  0
  -25.6348  -21.7217   22.8416 H   0  0  0  0  0  0
  -24.6677  -22.3536   21.5036 H   0  0  0  0  0  0
  -25.2313  -23.4342   22.7821 H   0  0  0  0  0  0
  -30.4331  -20.6909   19.8636 H   0  0  0  0  0  0
  -28.0120  -20.1432   18.3962 H   0  0  0  0  0  0
  -29.5512  -19.7901   17.9203 H   0  0  0  0  0  0
  -29.0641  -21.3403   18.1025 H   0  0  0  0  0  0
  1 25  1  0  0  0
  1 30  2  0  0  0
  1 82  1  0  0  0
  2  3  1  0  0  0
  2 25  1  0  0  0
  2 84  1  0  0  0
  2 85  1  0  0  0
  3  4  1  0  0  0
  3 86  1  0  0  0
  3 87  1  0  0  0
  4  5  1  0  0  0
  4 88  1  0  0  0
  4 89  1  0  0  0
  5  6  1  0  0  0
  5 26  1  0  0  0
  5 90  1  0  0  0
  6 25  1  0  0  0
  6 91  1  0  0  0
  6 92  1  0  0  0
  7  8  2  0  0  0
  7 26  1  0  0  0
  7 29  1  0  0  0
  8  9  1  0  0  0
  8 22  1  0  0  0
  9 10  1  0  0  0
  9 27  2  0  0  0
 10 11  2  0  0  0
 10 15  1  0  0  0
 11 12  1  0  0  0
 11 93  1  0  0  0
 12 13  2  0  0  0
 12 94  1  0  0  0
 13 14  1  0  0  0
 13 31  1  0  0  0
 14 15  2  0  0  0
 14 95  1  0  0  0
 15 96  1  0  0  0
 16 17  2  0  0  0
 16 21  1  0  0  0
 16 31  1  0  0  0
 17 18  1  0  0  0
 17 97  1  0  0  0
 18 19  2  0  0  0
 18 98  1  0  0  0
 19 20  1  0  0  0
 19 24  1  0  0  0
 20 21  2  0  0  0
 20 99  1  0  0  0
 21 23  1  0  0  0
 22 28  1  0  0  0
 22 32  2  0  0  0
 26 27  1  0  0  0
 28100  1  0  0  0
 28101  1  0  0  0
 29102  1  0  0  0
 29103  1  0  0  0
 33 34  1  0  0  0
 33 66  1  0  0  0
 33 70  2  0  0  0
 34 36  1  0  0  0
 34 59  1  0  0  0
 34104  1  0  0  0
 35 44  2  0  0  0
 35 45  1  0  0  0
 35 68  1  0  0  0
 36 56  1  0  0  0
 36105  1  0  0  0
 37 39  1  0  0  0
 37 47  1  0  0  0
 37 66  1  0  0  0
 37106  1  0  0  0
 38 43  2  0  0  0
 38 46  1  0  0  0
 38 47  1  0  0  0
 39 64  1  0  0  0
 39 67  2  0  0  0
 40 52  1  0  0  0
 40 53  2  0  0  0
 40 58  1  0  0  0
 41107  1  0  0  0
 41108  1  0  0  0
 41109  1  0  0  0
 41 48  1  0  0  0
 42 43  1  0  0  0
 42 66  1  0  0  0
 42110  1  0  0  0
 42111  1  0  0  0
 43 44  1  0  0  0
 44112  1  0  0  0
 45 46  2  0  0  0
 45113  1  0  0  0
 46114  1  0  0  0
 47115  1  0  0  0
 47116  1  0  0  0
 48 56  1  0  0  0
 48 65  1  0  0  0
 48117  1  0  0  0
 49 50  1  0  0  0
 49 53  1  0  0  0
 49 64  1  0  0  0
 49118  1  0  0  0
 50 51  1  0  0  0
 50119  1  0  0  0
 50120  1  0  0  0
 51 52  1  0  0  0
 51121  1  0  0  0
 51122  1  0  0  0
 52123  1  0  0  0
 52124  1  0  0  0
 53 54  1  0  0  0
 54 55  2  0  0  0
 54125  1  0  0  0
 55 57  1  0  0  0
 55126  1  0  0  0
 56 69  2  0  0  0
 57 58  2  0  0  0
 57127  1  0  0  0
 58128  1  0  0  0
 59 60  1  0  0  0
 59 61  1  0  0  0
 59 62  1  0  0  0
 60129  1  0  0  0
 60130  1  0  0  0
 60131  1  0  0  0
 61132  1  0  0  0
 61133  1  0  0  0
 61134  1  0  0  0
 62135  1  0  0  0
 62136  1  0  0  0
 62137  1  0  0  0
 63 65  1  0  0  0
 63138  1  0  0  0
 63139  1  0  0  0
 63140  1  0  0  0
 64141  1  0  0  0
 65142  1  0  0  0
 68 73  1  0  0  0
 71 72  2  0  0  0
 71 73  1  0  0  0
 71143  1  0  0  0
 72 79  1  0  0  0
 72 80  1  0  0  0
 73 81  2  0  0  0
 74 78  1  0  0  0
 74 80  2  0  0  0
 74 81  1  0  0  0
 75 82  1  0  0  0
 75144  1  0  0  0
 75145  1  0  0  0
 75 77  1  0  0  0
 76 77  1  0  0  0
 76 82  1  0  0  0
 76146  1  0  0  0
 76147  1  0  0  0
 77 79  1  0  0  0
 77148  1  0  0  0
 78149  1  0  0  0
 78150  1  0  0  0
 78151  1  0  0  0
 79 83  1  0  0  0
 79152  1  0  0  0
 83153  1  0  0  0
 83154  1  0  0  0
 83155  1  0  0  0
M  CHG  1  83   1
M  ISO  4   1 100  68 101  73 101  82 100
M  END
> <chiral flag>
0

> <version>
0

> <s_m_source_file>
/data/baiqing/PycharmProjects/Reinvent-master-3.2/result/LINK_invent/BTK/process_docking_weight1_custom_sum_contain_oxygen_bond_distance_aromatic_linkinvent_7_9_3/rearranged_h_0183.sdf

> <i_m_source_file_index>
85

> <r_mmod_Potential_Energy-OPLS-2005>
211.902313232422

> <r_mmod_Stretch_Energy-OPLS-2005>
360.100341796875

> <r_mmod_Bend_Energy-OPLS-2005>
364.740112304688

> <r_mmod_Torsional_Energy-OPLS-2005>
310.563690185547

> <r_mmod_Improper_Torsional_Energy-OPLS-2005>
9.44229793548584

> <r_mmod_Van_der_Waal_Energy-OPLS-2005>
139.40168762207

> <r_mmod_Electrostatic_Energy-OPLS-2005>
-841.771057128906

> <r_mmod_Solvation_Energy-OPLS-2005>
-541.461975097656

> <b_mmod_Minimization_Converged-OPLS-2005>
0

> <r_mmod_RMS_Derivative-OPLS-2005>
1.30796313285828

$$$$
86
                    3D
 Structure written by MMmdl.
154163  0  0  1  0            999 V2000
  -30.5165  -14.8111   19.7438 C   0  0  0  0  0  0
  -30.6203  -12.4197   19.1654 C   0  0  0  0  0  0
  -29.4960  -12.3457   18.1161 C   0  0  0  0  0  0
  -28.1429  -12.2991   18.8448 C   0  0  0  0  0  0
  -28.1313  -13.3802   19.9829 C   0  0  2  0  0  0
  -29.2256  -13.1692   20.9544 C   0  0  0  0  0  0
  -26.1855  -15.2444   20.5259 C   0  0  0  0  0  0
  -24.0502  -14.5895   20.7534 C   0  0  0  0  0  0
  -24.3731  -12.8914   21.1940 C   0  0  0  0  0  0
  -23.4796  -11.2720   21.2987 C   0  0  0  0  0  0
  -23.6233  -10.1614   22.2859 C   0  0  0  0  0  0
  -23.3090   -8.7596   22.2516 C   0  0  0  0  0  0
  -22.3876   -8.2918   21.3165 C   0  0  0  0  0  0
  -22.0680   -9.2782   20.3363 C   0  0  0  0  0  0
  -22.6176  -10.6345   20.3080 C   0  0  0  0  0  0
  -21.7432   -6.1729   22.4730 C   0  0  0  0  0  0
  -21.4273   -6.6253   23.7793 C   0  0  0  0  0  0
  -21.3652   -5.7266   24.8717 C   0  0  0  0  0  0
  -21.6002   -4.3523   24.6790 C   0  0  0  0  0  0
  -21.8784   -3.8790   23.3863 C   0  0  0  0  0  0
  -21.9389   -4.7757   22.2968 C   0  0  0  0  0  0
  -22.5719  -14.6280   20.9352 C   0  0  0  0  0  0
  -22.1818   -4.2729   21.0633 F   0  0  0  0  0  0
  -21.5530   -3.4918   25.7271 F   0  0  0  0  0  0
  -30.2604  -13.5147   20.0632 N   0  0  0  0  0  0
  -27.1589  -14.0861   20.7102 N   0  0  0  0  0  0
  -26.5180  -13.0726   21.1085 N   0  0  0  0  0  0
  -21.9913  -13.7321   21.7936 N   0  0  0  0  0  0
  -27.1269  -16.1820   20.4401 N   0  0  0  0  0  0
  -31.6793  -15.1542   19.9567 O   0  0  0  0  0  0
  -21.7803   -7.0213   21.3565 O   0  0  0  0  0  0
  -21.8916  -15.2987   20.2286 O   0  0  0  0  0  0
  -24.7843  -31.6161   23.0636 C   0  0  0  0  0  0
  -25.9883  -32.3523   23.7495 C   0  0  1  0  0  0
  -26.1980  -25.0308   20.5041 C   0  0  0  0  0  0
  -25.6000  -33.7489   24.1165 N   0  0  0  0  0  0
  -23.6073  -30.2152   21.4522 C   0  0  2  0  0  0
  -24.8682  -28.2182   20.1302 C   0  0  0  0  0  0
  -22.7871  -29.3467   22.4438 C   0  0  0  0  0  0
  -18.0314  -28.1430   22.8420 C   0  0  0  0  0  0
  -24.1504  -36.6735   23.2679 C   0  0  0  0  0  0
  -26.1325  -29.7199   21.5992 C   0  0  0  0  0  0
  -25.9628  -28.1352   20.9758 C   0  0  0  0  0  0
  -26.5957  -26.6165   21.0951 C   0  0  0  0  0  0
  -25.3915  -25.7289   19.4796 C   0  0  0  0  0  0
  -24.7473  -27.0553   19.3321 C   0  0  0  0  0  0
  -23.8763  -29.4424   20.1043 C   0  0  0  0  0  0
  -25.4186  -36.2356   24.0204 C   0  0  1  0  0  0
  -20.5929  -28.3742   23.1050 C   0  0  2  0  0  0
  -20.6682  -26.9325   22.5488 C   0  0  0  0  0  0
  -19.5719  -26.6301   21.5235 C   0  0  0  0  0  0
  -18.1892  -26.7957   22.1579 C   0  0  0  0  0  0
  -19.1588  -28.8944   23.2701 C   0  0  0  0  0  0
  -18.9521  -30.1519   23.8773 C   0  0  0  0  0  0
  -17.6513  -30.6600   24.0543 C   0  0  0  0  0  0
  -25.9261  -34.8782   23.4642 C   0  0  0  0  0  0
  -16.5391  -29.9090   23.6359 C   0  0  0  0  0  0
  -16.7306  -28.6513   23.0375 C   0  0  0  0  0  0
  -26.4766  -31.6296   25.0674 C   0  0  0  0  0  0
  -25.3568  -31.3936   26.1101 C   0  0  0  0  0  0
  -27.0927  -30.2584   24.7507 C   0  0  0  0  0  0
  -27.5972  -32.4533   25.7453 C   0  0  0  0  0  0
  -27.5562  -37.1430   24.8411 C   0  0  0  0  0  0
  -21.4483  -29.2766   22.3197 N   0  0  0  0  0  0
  -26.4153  -37.3317   23.9505 N   0  0  0  0  0  0
  -24.9054  -30.6052   22.0788 N   0  0  0  0  0  0
  -23.3850  -28.7262   23.3258 O   0  0  0  0  0  0
  -26.3555  -23.0509   20.6448 O   0  0  0  0  0  0
  -26.6123  -34.8652   22.4415 O   0  0  0  0  0  0
  -23.6719  -32.0127   23.4755 O   0  0  0  0  0  0
  -25.3391  -13.6399   19.3469 C   0  0  0  0  0  0
  -25.2372  -15.3282   18.4964 C   0  0  0  0  0  0
  -25.4233  -14.5461   22.3714 C   0  0  0  0  0  0
  -25.2575  -17.9110   20.8075 C   0  0  0  0  0  0
  -25.5999  -11.5286   19.7878 C   0  0  0  0  0  0
  -25.8694  -11.3227   22.2350 C   0  0  0  0  0  0
  -26.6952  -15.4063   17.6540 C   0  0  0  0  0  0
  -25.5051  -20.6050   20.6947 C   0  0  0  0  0  0
  -28.3766  -15.8748   18.0023 C   0  0  0  0  0  0
  -25.0310  -16.9707   19.3124 N   0  0  0  0  0  0
  -25.1935  -16.5405   22.1681 N   0  0  0  0  0  0
  -25.5893  -13.0206   23.2499 N   0  0  0  0  0  0
  -29.5210  -15.6978   19.1747 N   0  0  0  0  0  0
  -31.5739  -12.6175   18.6721 H   0  0  0  0  0  0
  -30.7337  -11.4771   19.7018 H   0  0  0  0  0  0
  -29.6133  -11.4618   17.4872 H   0  0  0  0  0  0
  -29.5305  -13.2047   17.4438 H   0  0  0  0  0  0
  -28.1745  -11.3179   19.3138 H   0  0  0  0  0  0
  -27.3426  -12.3785   18.1100 H   0  0  0  0  0  0
  -28.1310  -14.0179   19.1821 H   0  0  0  0  0  0
  -29.2715  -12.1447   21.3259 H   0  0  0  0  0  0
  -29.2323  -13.8491   21.8118 H   0  0  0  0  0  0
  -23.9787  -10.4424   23.2666 H   0  0  0  0  0  0
  -23.5925   -8.1364   23.0879 H   0  0  0  0  0  0
  -21.3860   -8.9952   19.5461 H   0  0  0  0  0  0
  -22.3462  -11.2412   19.4558 H   0  0  0  0  0  0
  -21.2337   -7.6744   23.9504 H   0  0  0  0  0  0
  -21.1337   -6.0962   25.8601 H   0  0  0  0  0  0
  -22.0441   -2.8254   23.2245 H   0  0  0  0  0  0
  -22.5228  -13.1053   22.3772 H   0  0  0  0  0  0
  -20.9830  -13.7065   21.8612 H   0  0  0  0  0  0
  -26.5740  -16.7660   19.8025 H   0  0  0  0  0  0
  -27.9855  -15.8608   20.0002 H   0  0  0  0  0  0
  -26.8076  -32.3772   23.0289 H   0  0  0  0  0  0
  -24.9807  -33.8320   24.9088 H   0  0  0  0  0  0
  -23.0229  -31.1058   21.2076 H   0  0  0  0  0  0
  -23.3921  -35.8886   23.2894 H   0  0  0  0  0  0
  -24.3618  -36.8925   22.2199 H   0  0  0  0  0  0
  -23.7057  -37.5629   23.7155 H   0  0  0  0  0  0
  -26.5860  -30.2943   20.7918 H   0  0  0  0  0  0
  -26.9246  -29.6776   22.3273 H   0  0  0  0  0  0
  -27.3599  -26.5692   21.8582 H   0  0  0  0  0  0
  -25.0087  -25.0309   18.7469 H   0  0  0  0  0  0
  -24.0088  -27.1101   18.5440 H   0  0  0  0  0  0
  -24.2553  -30.1507   19.3664 H   0  0  0  0  0  0
  -22.9227  -29.0950   19.7021 H   0  0  0  0  0  0
  -25.1426  -36.0874   25.0671 H   0  0  0  0  0  0
  -20.9992  -28.3444   24.1188 H   0  0  0  0  0  0
  -20.5379  -26.2393   23.3809 H   0  0  0  0  0  0
  -21.6555  -26.7092   22.1424 H   0  0  0  0  0  0
  -19.6835  -25.6184   21.1327 H   0  0  0  0  0  0
  -19.6733  -27.3060   20.6730 H   0  0  0  0  0  0
  -17.4194  -26.6783   21.3940 H   0  0  0  0  0  0
  -18.0184  -26.0114   22.8968 H   0  0  0  0  0  0
  -19.8015  -30.7342   24.2083 H   0  0  0  0  0  0
  -17.5080  -31.6264   24.5170 H   0  0  0  0  0  0
  -15.5389  -30.2968   23.7749 H   0  0  0  0  0  0
  -15.8704  -28.0802   22.7155 H   0  0  0  0  0  0
  -24.6013  -30.6943   25.7503 H   0  0  0  0  0  0
  -24.8466  -32.3196   26.3749 H   0  0  0  0  0  0
  -25.7576  -30.9747   27.0338 H   0  0  0  0  0  0
  -26.3526  -29.5543   24.3720 H   0  0  0  0  0  0
  -27.4940  -29.7939   25.6522 H   0  0  0  0  0  0
  -27.9307  -30.3454   24.0593 H   0  0  0  0  0  0
  -27.2365  -33.4097   26.1248 H   0  0  0  0  0  0
  -28.4105  -32.6631   25.0494 H   0  0  0  0  0  0
  -28.0257  -31.9233   26.5968 H   0  0  0  0  0  0
  -28.2188  -38.0078   24.7872 H   0  0  0  0  0  0
  -28.1441  -36.2643   24.5709 H   0  0  0  0  0  0
  -27.2376  -37.0347   25.8793 H   0  0  0  0  0  0
  -20.9990  -29.8238   21.5985 H   0  0  0  0  0  0
  -25.9828  -38.2222   24.1806 H   0  0  0  0  0  0
  -26.2782  -10.9039   19.2327 H   0  0  0  0  0  0
  -24.7554  -11.0411   19.3179 H   0  0  0  0  0  0
  -26.9582  -11.2370   22.3426 H   0  0  0  0  0  0
  -25.8246  -10.3542   22.7290 H   0  0  0  0  0  0
  -26.4321  -16.0000   16.7774 H   0  0  0  0  0  0
  -26.7765  -14.4053   17.2356 H   0  0  0  0  0  0
  -24.6297  -20.8105   21.3098 H   0  0  0  0  0  0
  -25.1385  -20.6541   19.6688 H   0  0  0  0  0  0
  -28.2934  -16.9625   17.9954 H   0  0  0  0  0  0
  -28.9157  -15.6610   17.0785 H   0  0  0  0  0  0
  -25.7237  -13.0414   24.2542 H   0  0  0  0  0  0
  -29.8819  -16.6261   19.3546 H   0  0  0  0  0  0
  1 25  1  0  0  0
  1 30  2  0  0  0
  1 83  1  0  0  0
  2  3  1  0  0  0
  2 25  1  0  0  0
  2 84  1  0  0  0
  2 85  1  0  0  0
  3  4  1  0  0  0
  3 86  1  0  0  0
  3 87  1  0  0  0
  4  5  1  0  0  0
  4 88  1  0  0  0
  4 89  1  0  0  0
  5  6  1  0  0  0
  5 26  1  0  0  0
  5 90  1  0  0  0
  6 25  1  0  0  0
  6 91  1  0  0  0
  6 92  1  0  0  0
  7  8  2  0  0  0
  7 26  1  0  0  0
  7 29  1  0  0  0
  8  9  1  0  0  0
  8 22  1  0  0  0
  9 10  1  0  0  0
  9 27  2  0  0  0
 10 11  2  0  0  0
 10 15  1  0  0  0
 11 12  1  0  0  0
 11 93  1  0  0  0
 12 13  2  0  0  0
 12 94  1  0  0  0
 13 14  1  0  0  0
 13 31  1  0  0  0
 14 15  2  0  0  0
 14 95  1  0  0  0
 15 96  1  0  0  0
 16 17  2  0  0  0
 16 21  1  0  0  0
 16 31  1  0  0  0
 17 18  1  0  0  0
 17 97  1  0  0  0
 18 19  2  0  0  0
 18 98  1  0  0  0
 19 20  1  0  0  0
 19 24  1  0  0  0
 20 21  2  0  0  0
 20 99  1  0  0  0
 21 23  1  0  0  0
 22 28  1  0  0  0
 22 32  2  0  0  0
 26 27  1  0  0  0
 28100  1  0  0  0
 28101  1  0  0  0
 29102  1  0  0  0
 29103  1  0  0  0
 33 34  1  0  0  0
 33 66  1  0  0  0
 33 70  2  0  0  0
 34 36  1  0  0  0
 34 59  1  0  0  0
 34104  1  0  0  0
 35 44  2  0  0  0
 35 45  1  0  0  0
 35 68  1  0  0  0
 36 56  1  0  0  0
 36105  1  0  0  0
 37 39  1  0  0  0
 37 47  1  0  0  0
 37 66  1  0  0  0
 37106  1  0  0  0
 38 43  2  0  0  0
 38 46  1  0  0  0
 38 47  1  0  0  0
 39 64  1  0  0  0
 39 67  2  0  0  0
 40 52  1  0  0  0
 40 53  2  0  0  0
 40 58  1  0  0  0
 41107  1  0  0  0
 41108  1  0  0  0
 41109  1  0  0  0
 41 48  1  0  0  0
 42 43  1  0  0  0
 42 66  1  0  0  0
 42110  1  0  0  0
 42111  1  0  0  0
 43 44  1  0  0  0
 44112  1  0  0  0
 45 46  2  0  0  0
 45113  1  0  0  0
 46114  1  0  0  0
 47115  1  0  0  0
 47116  1  0  0  0
 48 56  1  0  0  0
 48 65  1  0  0  0
 48117  1  0  0  0
 49 50  1  0  0  0
 49 53  1  0  0  0
 49 64  1  0  0  0
 49118  1  0  0  0
 50 51  1  0  0  0
 50119  1  0  0  0
 50120  1  0  0  0
 51 52  1  0  0  0
 51121  1  0  0  0
 51122  1  0  0  0
 52123  1  0  0  0
 52124  1  0  0  0
 53 54  1  0  0  0
 54 55  2  0  0  0
 54125  1  0  0  0
 55 57  1  0  0  0
 55126  1  0  0  0
 56 69  2  0  0  0
 57 58  2  0  0  0
 57127  1  0  0  0
 58128  1  0  0  0
 59 60  1  0  0  0
 59 61  1  0  0  0
 59 62  1  0  0  0
 60129  1  0  0  0
 60130  1  0  0  0
 60131  1  0  0  0
 61132  1  0  0  0
 61133  1  0  0  0
 61134  1  0  0  0
 62135  1  0  0  0
 62136  1  0  0  0
 62137  1  0  0  0
 63 65  1  0  0  0
 63138  1  0  0  0
 63139  1  0  0  0
 63140  1  0  0  0
 64141  1  0  0  0
 65142  1  0  0  0
 68 78  1  0  0  0
 71 72  2  0  0  0
 71 73  1  0  0  0
 71 75  1  0  0  0
 72 77  1  0  0  0
 72 80  1  0  0  0
 73 81  2  0  0  0
 73 82  1  0  0  0
 74 78  1  0  0  0
 74 80  2  0  0  0
 74 81  1  0  0  0
 75 76  1  0  0  0
 75143  1  0  0  0
 75144  1  0  0  0
 76 82  1  0  0  0
 76145  1  0  0  0
 76146  1  0  0  0
 77 79  1  0  0  0
 77147  1  0  0  0
 77148  1  0  0  0
 78149  1  0  0  0
 78150  1  0  0  0
 79 83  1  0  0  0
 79151  1  0  0  0
 79152  1  0  0  0
 82153  1  0  0  0
 83154  1  0  0  0
M  ISO  4   1 100  68 101  78 101  83 100
M  END
> <chiral flag>
0

> <version>
0

> <s_m_source_file>
/data/baiqing/PycharmProjects/Reinvent-master-3.2/result/LINK_invent/BTK/process_docking_weight1_custom_sum_contain_oxygen_bond_distance_aromatic_linkinvent_7_9_3/rearranged_h_0183.sdf

> <i_m_source_file_index>
86

> <r_mmod_Potential_Energy-OPLS-2005>
34697.05078125

> <r_mmod_Stretch_Energy-OPLS-2005>
20309.017578125

> <r_mmod_Bend_Energy-OPLS-2005>
2741.75659179688

> <r_mmod_Torsional_Energy-OPLS-2005>
574.549865722656

> <r_mmod_Improper_Torsional_Energy-OPLS-2005>
59.6649284362793

> <r_mmod_Van_der_Waal_Energy-OPLS-2005>
5708.8388671875

> <r_mmod_Electrostatic_Energy-OPLS-2005>
-662.375793457031

> <r_mmod_Solvation_Energy-OPLS-2005>
-303.785766601562

> <b_mmod_Minimization_Converged-OPLS-2005>
0

> <r_mmod_RMS_Derivative-OPLS-2005>
4.12131786346436

$$$$
87
                    3D
 Structure written by MMmdl.
157166  0  0  1  0            999 V2000
  -30.4731  -15.0553   20.4394 C   0  0  0  0  0  0
  -30.4431  -12.6668   19.5229 C   0  0  0  0  0  0
  -29.5343  -12.5488   18.2753 C   0  0  0  0  0  0
  -28.0704  -12.3031   18.6887 C   0  0  0  0  0  0
  -27.6212  -13.2494   19.8331 C   0  0  2  0  0  0
  -28.6518  -13.3054   20.9780 C   0  0  0  0  0  0
  -25.2409  -13.8193   20.5680 C   0  0  0  0  0  0
  -24.1746  -13.0436   20.9220 C   0  0  0  0  0  0
  -24.6362  -11.6905   20.8733 C   0  0  0  0  0  0
  -23.9039  -10.4290   21.0383 C   0  0  0  0  0  0
  -24.3603   -9.4217   21.9166 C   0  0  0  0  0  0
  -23.6282   -8.2251   22.0751 C   0  0  0  0  0  0
  -22.4259   -8.0277   21.3551 C   0  0  0  0  0  0
  -21.9884   -9.0240   20.4649 C   0  0  0  0  0  0
  -22.7203  -10.2120   20.3040 C   0  0  0  0  0  0
  -21.6861   -6.0724   22.5275 C   0  0  0  0  0  0
  -21.4029   -6.5624   23.8214 C   0  0  0  0  0  0
  -21.3669   -5.6772   24.9177 C   0  0  0  0  0  0
  -21.6048   -4.3033   24.7219 C   0  0  0  0  0  0
  -21.8819   -3.8131   23.4335 C   0  0  0  0  0  0
  -21.9197   -4.6953   22.3401 C   0  0  0  0  0  0
  -22.7769  -13.5206   21.1878 C   0  0  0  0  0  0
  -22.1659   -4.2143   21.0974 F   0  0  0  0  0  0
  -21.5633   -3.4515   25.7730 F   0  0  0  0  0  0
  -29.9140  -13.7695   20.3881 N   0  0  0  0  0  0
  -26.2821  -12.9426   20.3163 N   0  0  0  0  0  0
  -25.9280  -11.6558   20.5681 N   0  0  0  0  0  0
  -22.0405  -12.8241   22.0445 N   0  0  0  0  0  0
  -25.4040  -15.1938   20.4096 N   0  0  0  0  0  0
  -31.6768  -15.1273   20.1611 O   0  0  0  0  0  0
  -21.6638   -6.8862   21.4234 O   0  0  0  0  0  0
  -22.3466  -14.5511   20.6687 O   0  0  0  0  0  0
  -24.6505  -31.8411   23.1876 C   0  0  0  0  0  0
  -25.9264  -32.4681   23.8276 C   0  0  1  0  0  0
  -27.1743  -27.0556   20.1696 C   0  0  0  0  0  0
  -25.6034  -33.8498   24.2192 N   0  0  0  0  0  0
  -23.4535  -30.4671   21.5325 C   0  0  2  0  0  0
  -24.8962  -28.8862   20.1080 C   0  0  0  0  0  0
  -22.7589  -29.4559   22.4818 C   0  0  0  0  0  0
  -18.0318  -28.1389   22.8463 C   0  0  0  0  0  0
  -24.1510  -36.7249   23.2629 C   0  0  0  0  0  0
  -26.0149  -30.6913   21.3952 C   0  0  0  0  0  0
  -26.0781  -29.2954   20.7377 C   0  0  0  0  0  0
  -27.2209  -28.3977   20.7489 C   0  0  0  0  0  0
  -25.9712  -26.7755   19.4852 C   0  0  0  0  0  0
  -24.8597  -27.6427   19.4643 C   0  0  0  0  0  0
  -23.6847  -29.8075   20.1480 C   0  0  0  0  0  0
  -25.4138  -36.3026   24.0301 C   0  0  1  0  0  0
  -20.5931  -28.3743   23.1194 C   0  0  2  0  0  0
  -20.6815  -26.9445   22.5372 C   0  0  0  0  0  0
  -19.5781  -26.6369   21.5195 C   0  0  0  0  0  0
  -18.1965  -26.7932   22.1610 C   0  0  0  0  0  0
  -19.1573  -28.8882   23.2827 C   0  0  0  0  0  0
  -18.9484  -30.1470   23.8865 C   0  0  0  0  0  0
  -17.6478  -30.6585   24.0554 C   0  0  0  0  0  0
  -25.9096  -34.9402   23.5039 C   0  0  0  0  0  0
  -16.5368  -29.9073   23.6327 C   0  0  0  0  0  0
  -16.7302  -28.6488   23.0355 C   0  0  0  0  0  0
  -26.4560  -31.6551   25.0727 C   0  0  0  0  0  0
  -25.3727  -31.3753   26.1408 C   0  0  0  0  0  0
  -27.0401  -30.2939   24.6315 C   0  0  0  0  0  0
  -27.6108  -32.4285   25.7523 C   0  0  0  0  0  0
  -27.5585  -37.1779   24.8453 C   0  0  0  0  0  0
  -21.4279  -29.3078   22.3562 N   0  0  0  0  0  0
  -26.4295  -37.3736   23.9408 N   0  0  0  0  0  0
  -24.7269  -31.0223   22.0935 N   0  0  0  0  0  0
  -23.4215  -28.8104   23.2984 O   0  0  0  0  0  0
  -28.1756  -25.9992   20.2385 O   0  0  0  0  0  0
  -26.5638  -34.8897   22.4592 O   0  0  0  0  0  0
  -23.5613  -32.1337   23.7058 O   0  0  0  0  0  0
  -28.1235  -21.6499   18.8020 C   0  0  0  0  0  0
  -29.2155  -22.7337   18.8604 C   0  0  0  0  0  0
  -29.2147  -18.9518   21.4678 C   0  0  0  0  0  0
  -29.2243  -18.8257   19.5041 C   0  0  0  0  0  0
  -29.9378  -17.8436   20.5435 C   0  0  2  0  0  0
  -28.3916  -21.3574   20.2851 C   0  0  2  0  0  0
  -28.8071  -23.0478   20.3069 C   0  0  1  0  0  0
  -29.8902  -23.4055   21.3109 C   0  0  0  0  0  0
  -27.8050  -24.4523   20.3380 C   0  0  0  0  0  0
  -29.6732  -16.2468   20.6154 N   0  0  0  0  0  0
  -29.3619  -20.0554   20.4145 N   0  3  1  0  0  0
  -31.4711  -12.8563   19.2114 H   0  0  0  0  0  0
  -30.4701  -11.7256   20.0748 H   0  0  0  0  0  0
  -29.8838  -11.7428   17.6265 H   0  0  0  0  0  0
  -29.6013  -13.4672   17.6895 H   0  0  0  0  0  0
  -27.9970  -11.2661   19.0208 H   0  0  0  0  0  0
  -27.4107  -12.3937   17.8262 H   0  0  0  0  0  0
  -27.5750  -14.2433   19.3877 H   0  0  0  0  0  0
  -28.7679  -12.3259   21.4440 H   0  0  0  0  0  0
  -28.3162  -13.9828   21.7649 H   0  0  0  0  0  0
  -25.2756   -9.5721   22.4736 H   0  0  0  0  0  0
  -24.0010   -7.4648   22.7472 H   0  0  0  0  0  0
  -21.0818   -8.8741   19.8960 H   0  0  0  0  0  0
  -22.3645  -10.9651   19.6148 H   0  0  0  0  0  0
  -21.2029   -7.6132   23.9729 H   0  0  0  0  0  0
  -21.1492   -6.0491   25.9085 H   0  0  0  0  0  0
  -22.0591   -2.7587   23.2834 H   0  0  0  0  0  0
  -22.3981  -11.9929   22.4921 H   0  0  0  0  0  0
  -21.1007  -13.1289   22.2583 H   0  0  0  0  0  0
  -24.6191  -15.8275   20.5192 H   0  0  0  0  0  0
  -26.2158  -15.6391   20.0028 H   0  0  0  0  0  0
  -26.7337  -32.5259   23.1007 H   0  0  0  0  0  0
  -25.0291  -33.9627   25.0419 H   0  0  0  0  0  0
  -22.7588  -31.2969   21.3822 H   0  0  0  0  0  0
  -23.3794  -35.9551   23.3225 H   0  0  0  0  0  0
  -24.3617  -36.8946   22.2056 H   0  0  0  0  0  0
  -23.7232  -37.6417   23.6700 H   0  0  0  0  0  0
  -26.1740  -31.4419   20.6197 H   0  0  0  0  0  0
  -26.8852  -30.7455   22.0369 H   0  0  0  0  0  0
  -28.1170  -28.7022   21.2729 H   0  0  0  0  0  0
  -25.8467  -25.8378   18.9689 H   0  0  0  0  0  0
  -23.9592  -27.3318   18.9519 H   0  0  0  0  0  0
  -23.8435  -30.5905   19.4044 H   0  0  0  0  0  0
  -22.7908  -29.2727   19.8223 H   0  0  0  0  0  0
  -25.1320  -36.1846   25.0786 H   0  0  0  0  0  0
  -21.0030  -28.3345   24.1308 H   0  0  0  0  0  0
  -20.5735  -26.2364   23.3601 H   0  0  0  0  0  0
  -21.6683  -26.7467   22.1151 H   0  0  0  0  0  0
  -19.6959  -25.6260   21.1276 H   0  0  0  0  0  0
  -19.6724  -27.3138   20.6689 H   0  0  0  0  0  0
  -17.4241  -26.6672   21.4012 H   0  0  0  0  0  0
  -18.0376  -26.0067   22.9000 H   0  0  0  0  0  0
  -19.7950  -30.7297   24.2238 H   0  0  0  0  0  0
  -17.5018  -31.6267   24.5155 H   0  0  0  0  0  0
  -15.5366  -30.2965   23.7648 H   0  0  0  0  0  0
  -15.8703  -28.0787   22.7088 H   0  0  0  0  0  0
  -24.5916  -30.7102   25.7715 H   0  0  0  0  0  0
  -24.8927  -32.2942   26.4781 H   0  0  0  0  0  0
  -25.7998  -30.8954   27.0223 H   0  0  0  0  0  0
  -26.2989  -29.6659   24.1361 H   0  0  0  0  0  0
  -27.4051  -29.7251   25.4881 H   0  0  0  0  0  0
  -27.8899  -30.4175   23.9595 H   0  0  0  0  0  0
  -27.2738  -33.3606   26.2067 H   0  0  0  0  0  0
  -28.3957  -32.6795   25.0372 H   0  0  0  0  0  0
  -28.0733  -31.8424   26.5478 H   0  0  0  0  0  0
  -28.2549  -38.0128   24.7543 H   0  0  0  0  0  0
  -28.1141  -36.2656   24.6222 H   0  0  0  0  0  0
  -27.2311  -37.1336   25.8857 H   0  0  0  0  0  0
  -20.9487  -29.8814   21.6754 H   0  0  0  0  0  0
  -26.0154  -38.2796   24.1437 H   0  0  0  0  0  0
  -28.3361  -20.8551   18.0889 H   0  0  0  0  0  0
  -27.1187  -22.0457   18.6397 H   0  0  0  0  0  0
  -29.0577  -23.5549   18.1620 H   0  0  0  0  0  0
  -30.2264  -22.3340   18.7609 H   0  0  0  0  0  0
  -29.7681  -19.1961   22.3752 H   0  0  0  0  0  0
  -28.1703  -18.7400   21.7097 H   0  0  0  0  0  0
  -28.1806  -18.5688   19.3014 H   0  0  0  0  0  0
  -29.7679  -18.9454   18.5659 H   0  0  0  0  0  0
  -31.0120  -18.0407   20.5396 H   0  0  0  0  0  0
  -27.4539  -21.1646   20.8084 H   0  0  0  0  0  0
  -30.5995  -22.5915   21.4519 H   0  0  0  0  0  0
  -29.4554  -23.6408   22.2844 H   0  0  0  0  0  0
  -30.4503  -24.2828   20.9817 H   0  0  0  0  0  0
  -27.2349  -24.3924   21.2663 H   0  0  0  0  0  0
  -27.0468  -24.2749   19.5807 H   0  0  0  0  0  0
  -28.7114  -16.0208   20.8266 H   0  0  0  0  0  0
  -30.3238  -20.3565   20.4001 H   0  0  0  0  0  0
  1 25  1  0  0  0
  1 30  2  0  0  0
  1 80  1  0  0  0
  2  3  1  0  0  0
  2 25  1  0  0  0
  2 82  1  0  0  0
  2 83  1  0  0  0
  3  4  1  0  0  0
  3 84  1  0  0  0
  3 85  1  0  0  0
  4  5  1  0  0  0
  4 86  1  0  0  0
  4 87  1  0  0  0
  5  6  1  0  0  0
  5 26  1  0  0  0
  5 88  1  0  0  0
  6 25  1  0  0  0
  6 89  1  0  0  0
  6 90  1  0  0  0
  7  8  2  0  0  0
  7 26  1  0  0  0
  7 29  1  0  0  0
  8  9  1  0  0  0
  8 22  1  0  0  0
  9 10  1  0  0  0
  9 27  2  0  0  0
 10 11  2  0  0  0
 10 15  1  0  0  0
 11 12  1  0  0  0
 11 91  1  0  0  0
 12 13  2  0  0  0
 12 92  1  0  0  0
 13 14  1  0  0  0
 13 31  1  0  0  0
 14 15  2  0  0  0
 14 93  1  0  0  0
 15 94  1  0  0  0
 16 17  2  0  0  0
 16 21  1  0  0  0
 16 31  1  0  0  0
 17 18  1  0  0  0
 17 95  1  0  0  0
 18 19  2  0  0  0
 18 96  1  0  0  0
 19 20  1  0  0  0
 19 24  1  0  0  0
 20 21  2  0  0  0
 20 97  1  0  0  0
 21 23  1  0  0  0
 22 28  1  0  0  0
 22 32  2  0  0  0
 26 27  1  0  0  0
 28 98  1  0  0  0
 28 99  1  0  0  0
 29100  1  0  0  0
 29101  1  0  0  0
 33 34  1  0  0  0
 33 66  1  0  0  0
 33 70  2  0  0  0
 34 36  1  0  0  0
 34 59  1  0  0  0
 34102  1  0  0  0
 35 44  2  0  0  0
 35 45  1  0  0  0
 35 68  1  0  0  0
 36 56  1  0  0  0
 36103  1  0  0  0
 37 39  1  0  0  0
 37 47  1  0  0  0
 37 66  1  0  0  0
 37104  1  0  0  0
 38 43  2  0  0  0
 38 46  1  0  0  0
 38 47  1  0  0  0
 39 64  1  0  0  0
 39 67  2  0  0  0
 40 52  1  0  0  0
 40 53  2  0  0  0
 40 58  1  0  0  0
 41105  1  0  0  0
 41106  1  0  0  0
 41107  1  0  0  0
 41 48  1  0  0  0
 42 43  1  0  0  0
 42 66  1  0  0  0
 42108  1  0  0  0
 42109  1  0  0  0
 43 44  1  0  0  0
 44110  1  0  0  0
 45 46  2  0  0  0
 45111  1  0  0  0
 46112  1  0  0  0
 47113  1  0  0  0
 47114  1  0  0  0
 48 56  1  0  0  0
 48 65  1  0  0  0
 48115  1  0  0  0
 49 50  1  0  0  0
 49 53  1  0  0  0
 49 64  1  0  0  0
 49116  1  0  0  0
 50 51  1  0  0  0
 50117  1  0  0  0
 50118  1  0  0  0
 51 52  1  0  0  0
 51119  1  0  0  0
 51120  1  0  0  0
 52121  1  0  0  0
 52122  1  0  0  0
 53 54  1  0  0  0
 54 55  2  0  0  0
 54123  1  0  0  0
 55 57  1  0  0  0
 55124  1  0  0  0
 56 69  2  0  0  0
 57 58  2  0  0  0
 57125  1  0  0  0
 58126  1  0  0  0
 59 60  1  0  0  0
 59 61  1  0  0  0
 59 62  1  0  0  0
 60127  1  0  0  0
 60128  1  0  0  0
 60129  1  0  0  0
 61130  1  0  0  0
 61131  1  0  0  0
 61132  1  0  0  0
 62133  1  0  0  0
 62134  1  0  0  0
 62135  1  0  0  0
 63 65  1  0  0  0
 63136  1  0  0  0
 63137  1  0  0  0
 63138  1  0  0  0
 64139  1  0  0  0
 65140  1  0  0  0
 68 79  1  0  0  0
 71 72  1  0  0  0
 71141  1  0  0  0
 71142  1  0  0  0
 71 76  1  0  0  0
 72 77  1  0  0  0
 72143  1  0  0  0
 72144  1  0  0  0
 73 75  1  0  0  0
 73145  1  0  0  0
 73146  1  0  0  0
 73 81  1  0  0  0
 74 75  1  0  0  0
 74 81  1  0  0  0
 74147  1  0  0  0
 74148  1  0  0  0
 75 80  1  0  0  0
 75149  1  0  0  0
 76 77  1  0  0  0
 76 81  1  0  0  0
 76150  1  0  0  0
 77 78  1  0  0  0
 77 79  1  0  0  0
 78151  1  0  0  0
 78152  1  0  0  0
 78153  1  0  0  0
 79154  1  0  0  0
 79155  1  0  0  0
 80156  1  0  0  0
 81157  1  0  0  0
M  CHG  1  81   1
M  ISO  4   1 100  68 101  79 101  80 100
M  END
> <chiral flag>
0

> <version>
0

> <s_m_source_file>
/data/baiqing/PycharmProjects/Reinvent-master-3.2/result/LINK_invent/BTK/process_docking_weight1_custom_sum_contain_oxygen_bond_distance_aromatic_linkinvent_7_9_3/rearranged_h_0183.sdf

> <i_m_source_file_index>
87

> <r_mmod_Potential_Energy-OPLS-2005>
692.579895019531

> <r_mmod_Stretch_Energy-OPLS-2005>
354.422149658203

> <r_mmod_Bend_Energy-OPLS-2005>
372.488311767578

> <r_mmod_Torsional_Energy-OPLS-2005>
283.257965087891

> <r_mmod_Improper_Torsional_Energy-OPLS-2005>
4.0200982093811

> <r_mmod_Van_der_Waal_Energy-OPLS-2005>
118.151756286621

> <r_mmod_Electrostatic_Energy-OPLS-2005>
-241.987380981445

> <r_mmod_Solvation_Energy-OPLS-2005>
-477.849456787109

> <b_mmod_Minimization_Converged-OPLS-2005>
0

> <r_mmod_RMS_Derivative-OPLS-2005>
3.63295197486877

$$$$
88
                    3D
 Structure written by MMmdl.
157166  0  0  1  0            999 V2000
  -30.5940  -14.7525   20.4605 C   0  0  0  0  0  0
  -30.4343  -12.4580   19.4748 C   0  0  0  0  0  0
  -29.5117  -12.5095   18.2360 C   0  0  0  0  0  0
  -28.0363  -12.3351   18.6458 C   0  0  0  0  0  0
  -27.6426  -13.2299   19.8518 C   0  0  2  0  0  0
  -28.6863  -13.1567   20.9882 C   0  0  0  0  0  0
  -25.2508  -13.8186   20.5682 C   0  0  0  0  0  0
  -24.1800  -13.0432   20.9193 C   0  0  0  0  0  0
  -24.6391  -11.6910   20.8742 C   0  0  0  0  0  0
  -23.9072  -10.4289   21.0412 C   0  0  0  0  0  0
  -24.3628   -9.4203   21.9186 C   0  0  0  0  0  0
  -23.6297   -8.2243   22.0758 C   0  0  0  0  0  0
  -22.4279   -8.0278   21.3545 C   0  0  0  0  0  0
  -21.9917   -9.0250   20.4649 C   0  0  0  0  0  0
  -22.7246  -10.2129   20.3058 C   0  0  0  0  0  0
  -21.6854   -6.0732   22.5280 C   0  0  0  0  0  0
  -21.4014   -6.5637   23.8209 C   0  0  0  0  0  0
  -21.3659   -5.6793   24.9174 C   0  0  0  0  0  0
  -21.6042   -4.3055   24.7233 C   0  0  0  0  0  0
  -21.8815   -3.8143   23.4355 C   0  0  0  0  0  0
  -21.9194   -4.6961   22.3410 C   0  0  0  0  0  0
  -22.7822  -13.5217   21.1844 C   0  0  0  0  0  0
  -22.1659   -4.2137   21.0988 F   0  0  0  0  0  0
  -21.5634   -3.4543   25.7752 F   0  0  0  0  0  0
  -29.9855  -13.5172   20.4087 N   0  0  0  0  0  0
  -26.2937  -12.9395   20.3275 N   0  0  0  0  0  0
  -25.9324  -11.6539   20.5751 N   0  0  0  0  0  0
  -22.0481  -12.8215   22.0411 N   0  0  0  0  0  0
  -25.4190  -15.1914   20.4092 N   0  0  0  0  0  0
  -31.7786  -14.8662   20.1338 O   0  0  0  0  0  0
  -21.6642   -6.8876   21.4243 O   0  0  0  0  0  0
  -22.3510  -14.5525   20.6691 O   0  0  0  0  0  0
  -24.6312  -31.8529   23.1958 C   0  0  0  0  0  0
  -25.9134  -32.4741   23.8307 C   0  0  1  0  0  0
  -27.2251  -27.2531   20.1331 C   0  0  0  0  0  0
  -25.5927  -33.8545   24.2230 N   0  0  0  0  0  0
  -23.4284  -30.4728   21.5391 C   0  0  2  0  0  0
  -24.8753  -28.9129   20.1096 C   0  0  0  0  0  0
  -22.7499  -29.4585   22.4910 C   0  0  0  0  0  0
  -18.0289  -28.1390   22.8484 C   0  0  0  0  0  0
  -24.1490  -36.7278   23.2640 C   0  0  0  0  0  0
  -25.9726  -30.7636   21.3754 C   0  0  0  0  0  0
  -26.0439  -29.3844   20.7185 C   0  0  0  0  0  0
  -27.2172  -28.5658   20.7179 C   0  0  0  0  0  0
  -26.0297  -26.8408   19.5046 C   0  0  0  0  0  0
  -24.8737  -27.6506   19.4926 C   0  0  0  0  0  0
  -23.6463  -29.8014   20.1565 C   0  0  0  0  0  0
  -25.4120  -36.3058   24.0318 C   0  0  1  0  0  0
  -20.5891  -28.3694   23.1274 C   0  0  2  0  0  0
  -20.6775  -26.9411   22.5414 C   0  0  0  0  0  0
  -19.5752  -26.6385   21.5215 C   0  0  0  0  0  0
  -18.1932  -26.7933   22.1626 C   0  0  0  0  0  0
  -19.1541  -28.8861   23.2874 C   0  0  0  0  0  0
  -18.9461  -30.1465   23.8890 C   0  0  0  0  0  0
  -17.6460  -30.6590   24.0563 C   0  0  0  0  0  0
  -25.9061  -34.9430   23.5081 C   0  0  0  0  0  0
  -16.5353  -29.9087   23.6336 C   0  0  0  0  0  0
  -16.7275  -28.6508   23.0351 C   0  0  0  0  0  0
  -26.4495  -31.6581   25.0713 C   0  0  0  0  0  0
  -25.3709  -31.3737   26.1428 C   0  0  0  0  0  0
  -27.0351  -30.2998   24.6220 C   0  0  0  0  0  0
  -27.6049  -32.4324   25.7490 C   0  0  0  0  0  0
  -27.5578  -37.1793   24.8461 C   0  0  0  0  0  0
  -21.4202  -29.3036   22.3658 N   0  0  0  0  0  0
  -26.4289  -37.3762   23.9404 N   0  0  0  0  0  0
  -24.6965  -31.0481   22.0937 N   0  0  0  0  0  0
  -23.4191  -28.8136   23.3020 O   0  0  0  0  0  0
  -28.3527  -26.4039   20.2162 O   0  0  0  0  0  0
  -26.5642  -34.8911   22.4654 O   0  0  0  0  0  0
  -23.5462  -32.1351   23.7253 O   0  0  0  0  0  0
  -30.5186  -20.7264   20.0424 C   0  0  0  0  0  0
  -30.2682  -22.0554   20.0271 C   0  0  0  0  0  0
  -29.3200  -20.0661   20.4358 C   0  0  0  0  0  0
  -31.9305  -20.3994   19.6963 C   0  0  0  0  0  0
  -31.4436  -22.8847   19.6989 C   0  0  0  0  0  0
  -32.5719  -21.8174   19.5552 C   0  0  0  0  0  0
  -29.0143  -18.5121   20.6442 C   0  0  0  0  0  0
  -28.2953  -23.6898   20.7046 C   0  0  0  0  0  0
  -30.1610  -17.3661   20.4925 C   0  0  0  0  0  0
  -28.4284  -24.9786   19.7260 C   0  0  0  0  0  0
  -28.3998  -21.0770   20.6432 N   0  0  0  0  0  0
  -28.9631  -22.3422   20.3811 N   0  0  0  0  0  0
  -29.8070  -15.8787   20.6700 N   0  0  0  0  0  0
  -31.4755  -12.5869   19.1741 H   0  0  0  0  0  0
  -30.3813  -11.4797   19.9549 H   0  0  0  0  0  0
  -29.7955  -11.7379   17.5181 H   0  0  0  0  0  0
  -29.6387  -13.4650   17.7253 H   0  0  0  0  0  0
  -27.8869  -11.2856   18.9003 H   0  0  0  0  0  0
  -27.3832  -12.5377   17.7960 H   0  0  0  0  0  0
  -27.6387  -14.2524   19.4744 H   0  0  0  0  0  0
  -28.7246  -12.1546   21.4179 H   0  0  0  0  0  0
  -28.4209  -13.8282   21.8065 H   0  0  0  0  0  0
  -25.2777   -9.5678   22.4755 H   0  0  0  0  0  0
  -23.9991   -7.4647   22.7494 H   0  0  0  0  0  0
  -21.0836   -8.8777   19.8970 H   0  0  0  0  0  0
  -22.3702  -10.9667   19.6163 H   0  0  0  0  0  0
  -21.2001   -7.6144   23.9705 H   0  0  0  0  0  0
  -21.1485   -6.0531   25.9073 H   0  0  0  0  0  0
  -22.0595   -2.7606   23.2868 H   0  0  0  0  0  0
  -22.4103  -11.9876   22.4796 H   0  0  0  0  0  0
  -21.1102  -13.1238   22.2618 H   0  0  0  0  0  0
  -24.6486  -15.8423   20.5168 H   0  0  0  0  0  0
  -26.2574  -15.6318   20.0537 H   0  0  0  0  0  0
  -26.7199  -32.5380   23.1046 H   0  0  0  0  0  0
  -25.0048  -33.9678   25.0358 H   0  0  0  0  0  0
  -22.7252  -31.2948   21.3906 H   0  0  0  0  0  0
  -23.3755  -35.9608   23.3294 H   0  0  0  0  0  0
  -24.3579  -36.8916   22.2056 H   0  0  0  0  0  0
  -23.7246  -37.6473   23.6678 H   0  0  0  0  0  0
  -26.1107  -31.5230   20.6047 H   0  0  0  0  0  0
  -26.8503  -30.8130   22.0090 H   0  0  0  0  0  0
  -28.1132  -28.9210   21.2071 H   0  0  0  0  0  0
  -25.9525  -25.8688   19.0426 H   0  0  0  0  0  0
  -23.9751  -27.2818   19.0171 H   0  0  0  0  0  0
  -23.7690  -30.5749   19.3971 H   0  0  0  0  0  0
  -22.7648  -29.2326   19.8553 H   0  0  0  0  0  0
  -25.1308  -36.1894   25.0811 H   0  0  0  0  0  0
  -20.9983  -28.3273   24.1394 H   0  0  0  0  0  0
  -20.5674  -26.2301   23.3614 H   0  0  0  0  0  0
  -21.6643  -26.7436   22.1206 H   0  0  0  0  0  0
  -19.6913  -25.6292   21.1250 H   0  0  0  0  0  0
  -19.6697  -27.3190   20.6738 H   0  0  0  0  0  0
  -17.4201  -26.6677   21.4030 H   0  0  0  0  0  0
  -18.0334  -26.0080   22.9026 H   0  0  0  0  0  0
  -19.7936  -30.7288   24.2251 H   0  0  0  0  0  0
  -17.5013  -31.6270   24.5164 H   0  0  0  0  0  0
  -15.5352  -30.2986   23.7667 H   0  0  0  0  0  0
  -15.8675  -28.0830   22.7063 H   0  0  0  0  0  0
  -24.5887  -30.7089   25.7744 H   0  0  0  0  0  0
  -24.8897  -32.2909   26.4833 H   0  0  0  0  0  0
  -25.8011  -30.8920   27.0217 H   0  0  0  0  0  0
  -26.2946  -29.6739   24.1229 H   0  0  0  0  0  0
  -27.4007  -29.7271   25.4752 H   0  0  0  0  0  0
  -27.8828  -30.4269   23.9485 H   0  0  0  0  0  0
  -27.2660  -33.3627   26.2057 H   0  0  0  0  0  0
  -28.3866  -32.6878   25.0325 H   0  0  0  0  0  0
  -28.0710  -31.8456   26.5415 H   0  0  0  0  0  0
  -28.2585  -38.0099   24.7516 H   0  0  0  0  0  0
  -28.1084  -36.2629   24.6279 H   0  0  0  0  0  0
  -27.2293  -37.1431   25.8863 H   0  0  0  0  0  0
  -20.9386  -29.8744   21.6854 H   0  0  0  0  0  0
  -26.0161  -38.2830   24.1419 H   0  0  0  0  0  0
  -32.0031  -19.8413   18.7622 H   0  0  0  0  0  0
  -32.4268  -19.8148   20.4719 H   0  0  0  0  0  0
  -31.6565  -23.6049   20.4899 H   0  0  0  0  0  0
  -31.2874  -23.4269   18.7658 H   0  0  0  0  0  0
  -33.1060  -21.9220   18.6098 H   0  0  0  0  0  0
  -33.3080  -21.9621   20.3474 H   0  0  0  0  0  0
  -28.2088  -18.2455   19.9605 H   0  0  0  0  0  0
  -28.5763  -18.3942   21.6355 H   0  0  0  0  0  0
  -27.2363  -23.5049   20.8840 H   0  0  0  0  0  0
  -28.6976  -23.9859   21.6732 H   0  0  0  0  0  0
  -30.9621  -17.5945   21.1965 H   0  0  0  0  0  0
  -30.6096  -17.4717   19.5035 H   0  0  0  0  0  0
  -27.7936  -24.8311   18.8541 H   0  0  0  0  0  0
  -29.4330  -24.9245   19.3099 H   0  0  0  0  0  0
  -28.8467  -15.6840   20.9123 H   0  0  0  0  0  0
  1 25  1  0  0  0
  1 30  2  0  0  0
  1 83  1  0  0  0
  2  3  1  0  0  0
  2 25  1  0  0  0
  2 84  1  0  0  0
  2 85  1  0  0  0
  3  4  1  0  0  0
  3 86  1  0  0  0
  3 87  1  0  0  0
  4  5  1  0  0  0
  4 88  1  0  0  0
  4 89  1  0  0  0
  5  6  1  0  0  0
  5 26  1  0  0  0
  5 90  1  0  0  0
  6 25  1  0  0  0
  6 91  1  0  0  0
  6 92  1  0  0  0
  7  8  2  0  0  0
  7 26  1  0  0  0
  7 29  1  0  0  0
  8  9  1  0  0  0
  8 22  1  0  0  0
  9 10  1  0  0  0
  9 27  2  0  0  0
 10 11  2  0  0  0
 10 15  1  0  0  0
 11 12  1  0  0  0
 11 93  1  0  0  0
 12 13  2  0  0  0
 12 94  1  0  0  0
 13 14  1  0  0  0
 13 31  1  0  0  0
 14 15  2  0  0  0
 14 95  1  0  0  0
 15 96  1  0  0  0
 16 17  2  0  0  0
 16 21  1  0  0  0
 16 31  1  0  0  0
 17 18  1  0  0  0
 17 97  1  0  0  0
 18 19  2  0  0  0
 18 98  1  0  0  0
 19 20  1  0  0  0
 19 24  1  0  0  0
 20 21  2  0  0  0
 20 99  1  0  0  0
 21 23  1  0  0  0
 22 28  1  0  0  0
 22 32  2  0  0  0
 26 27  1  0  0  0
 28100  1  0  0  0
 28101  1  0  0  0
 29102  1  0  0  0
 29103  1  0  0  0
 33 34  1  0  0  0
 33 66  1  0  0  0
 33 70  2  0  0  0
 34 36  1  0  0  0
 34 59  1  0  0  0
 34104  1  0  0  0
 35 44  2  0  0  0
 35 45  1  0  0  0
 35 68  1  0  0  0
 36 56  1  0  0  0
 36105  1  0  0  0
 37 39  1  0  0  0
 37 47  1  0  0  0
 37 66  1  0  0  0
 37106  1  0  0  0
 38 43  2  0  0  0
 38 46  1  0  0  0
 38 47  1  0  0  0
 39 64  1  0  0  0
 39 67  2  0  0  0
 40 52  1  0  0  0
 40 53  2  0  0  0
 40 58  1  0  0  0
 41107  1  0  0  0
 41108  1  0  0  0
 41109  1  0  0  0
 41 48  1  0  0  0
 42 43  1  0  0  0
 42 66  1  0  0  0
 42110  1  0  0  0
 42111  1  0  0  0
 43 44  1  0  0  0
 44112  1  0  0  0
 45 46  2  0  0  0
 45113  1  0  0  0
 46114  1  0  0  0
 47115  1  0  0  0
 47116  1  0  0  0
 48 56  1  0  0  0
 48 65  1  0  0  0
 48117  1  0  0  0
 49 50  1  0  0  0
 49 53  1  0  0  0
 49 64  1  0  0  0
 49118  1  0  0  0
 50 51  1  0  0  0
 50119  1  0  0  0
 50120  1  0  0  0
 51 52  1  0  0  0
 51121  1  0  0  0
 51122  1  0  0  0
 52123  1  0  0  0
 52124  1  0  0  0
 53 54  1  0  0  0
 54 55  2  0  0  0
 54125  1  0  0  0
 55 57  1  0  0  0
 55126  1  0  0  0
 56 69  2  0  0  0
 57 58  2  0  0  0
 57127  1  0  0  0
 58128  1  0  0  0
 59 60  1  0  0  0
 59 61  1  0  0  0
 59 62  1  0  0  0
 60129  1  0  0  0
 60130  1  0  0  0
 60131  1  0  0  0
 61132  1  0  0  0
 61133  1  0  0  0
 61134  1  0  0  0
 62135  1  0  0  0
 62136  1  0  0  0
 62137  1  0  0  0
 63 65  1  0  0  0
 63138  1  0  0  0
 63139  1  0  0  0
 63140  1  0  0  0
 64141  1  0  0  0
 65142  1  0  0  0
 68 80  1  0  0  0
 71 72  2  0  0  0
 71 73  1  0  0  0
 71 74  1  0  0  0
 72 75  1  0  0  0
 72 82  1  0  0  0
 73 77  1  0  0  0
 73 81  2  0  0  0
 74 76  1  0  0  0
 74143  1  0  0  0
 74144  1  0  0  0
 75 76  1  0  0  0
 75145  1  0  0  0
 75146  1  0  0  0
 76147  1  0  0  0
 76148  1  0  0  0
 77 79  1  0  0  0
 77149  1  0  0  0
 77150  1  0  0  0
 78 80  1  0  0  0
 78 82  1  0  0  0
 78151  1  0  0  0
 78152  1  0  0  0
 79 83  1  0  0  0
 79153  1  0  0  0
 79154  1  0  0  0
 80155  1  0  0  0
 80156  1  0  0  0
 81 82  1  0  0  0
 83157  1  0  0  0
M  ISO  4   1 100  68 101  80 101  83 100
M  END
> <chiral flag>
0

> <version>
0

> <s_m_source_file>
/data/baiqing/PycharmProjects/Reinvent-master-3.2/result/LINK_invent/BTK/process_docking_weight1_custom_sum_contain_oxygen_bond_distance_aromatic_linkinvent_7_9_3/rearranged_h_0183.sdf

> <i_m_source_file_index>
88

> <r_mmod_Potential_Energy-OPLS-2005>
226.602203369141

> <r_mmod_Stretch_Energy-OPLS-2005>
135.217910766602

> <r_mmod_Bend_Energy-OPLS-2005>
269.383941650391

> <r_mmod_Torsional_Energy-OPLS-2005>
227.508926391602

> <r_mmod_Improper_Torsional_Energy-OPLS-2005>
6.1371636390686

> <r_mmod_Van_der_Waal_Energy-OPLS-2005>
104.799896240234

> <r_mmod_Electrostatic_Energy-OPLS-2005>
-372.243682861328

> <r_mmod_Solvation_Energy-OPLS-2005>
-230.684951782227

> <b_mmod_Minimization_Converged-OPLS-2005>
0

> <r_mmod_RMS_Derivative-OPLS-2005>
1.02145349979401

$$$$
89
                    3D
 Structure written by MMmdl.
165174  0  0  1  0            999 V2000
  -30.5633  -14.9791   20.5354 C   0  0  0  0  0  0
  -30.4365  -12.6342   19.5291 C   0  0  0  0  0  0
  -29.5340  -12.5740   18.2723 C   0  0  0  0  0  0
  -28.0682  -12.3287   18.6714 C   0  0  0  0  0  0
  -27.6297  -13.2484   19.8394 C   0  0  2  0  0  0
  -28.6556  -13.2676   20.9899 C   0  0  0  0  0  0
  -25.2476  -13.8192   20.5687 C   0  0  0  0  0  0
  -24.1792  -13.0418   20.9188 C   0  0  0  0  0  0
  -24.6406  -11.6910   20.8716 C   0  0  0  0  0  0
  -23.9084  -10.4290   21.0395 C   0  0  0  0  0  0
  -24.3636   -9.4221   21.9180 C   0  0  0  0  0  0
  -23.6322   -8.2245   22.0745 C   0  0  0  0  0  0
  -22.4288   -8.0281   21.3546 C   0  0  0  0  0  0
  -21.9928   -9.0251   20.4630 C   0  0  0  0  0  0
  -22.7254  -10.2138   20.3048 C   0  0  0  0  0  0
  -21.6866   -6.0748   22.5282 C   0  0  0  0  0  0
  -21.4006   -6.5642   23.8209 C   0  0  0  0  0  0
  -21.3662   -5.6805   24.9171 C   0  0  0  0  0  0
  -21.6040   -4.3063   24.7232 C   0  0  0  0  0  0
  -21.8816   -3.8147   23.4350 C   0  0  0  0  0  0
  -21.9193   -4.6971   22.3401 C   0  0  0  0  0  0
  -22.7819  -13.5212   21.1858 C   0  0  0  0  0  0
  -22.1668   -4.2161   21.0988 F   0  0  0  0  0  0
  -21.5633   -3.4529   25.7744 F   0  0  0  0  0  0
  -29.9423  -13.7237   20.4330 N   0  0  0  0  0  0
  -26.2881  -12.9422   20.3165 N   0  0  0  0  0  0
  -25.9323  -11.6553   20.5642 N   0  0  0  0  0  0
  -22.0471  -12.8195   22.0415 N   0  0  0  0  0  0
  -25.4182  -15.1929   20.4222 N   0  0  0  0  0  0
  -31.7168  -15.0441   20.0915 O   0  0  0  0  0  0
  -21.6643   -6.8891   21.4248 O   0  0  0  0  0  0
  -22.3518  -14.5546   20.6738 O   0  0  0  0  0  0
  -24.6455  -31.8462   23.1850 C   0  0  0  0  0  0
  -25.9226  -32.4712   23.8241 C   0  0  1  0  0  0
  -27.2195  -27.1123   20.1688 C   0  0  0  0  0  0
  -25.5984  -33.8519   24.2194 N   0  0  0  0  0  0
  -23.4485  -30.4640   21.5314 C   0  0  2  0  0  0
  -24.9006  -28.8879   20.1117 C   0  0  0  0  0  0
  -22.7599  -29.4552   22.4849 C   0  0  0  0  0  0
  -18.0334  -28.1450   22.8531 C   0  0  0  0  0  0
  -24.1464  -36.7216   23.2634 C   0  0  0  0  0  0
  -26.0056  -30.7170   21.3834 C   0  0  0  0  0  0
  -26.0772  -29.3217   20.7315 C   0  0  0  0  0  0
  -27.2391  -28.4521   20.7449 C   0  0  0  0  0  0
  -26.0161  -26.7929   19.5000 C   0  0  0  0  0  0
  -24.8844  -27.6380   19.4744 C   0  0  0  0  0  0
  -23.6767  -29.7956   20.1503 C   0  0  0  0  0  0
  -25.4107  -36.3040   24.0317 C   0  0  1  0  0  0
  -20.5936  -28.3757   23.1263 C   0  0  2  0  0  0
  -20.6806  -26.9445   22.5445 C   0  0  0  0  0  0
  -19.5763  -26.6429   21.5268 C   0  0  0  0  0  0
  -18.1956  -26.7988   22.1676 C   0  0  0  0  0  0
  -19.1589  -28.8914   23.2892 C   0  0  0  0  0  0
  -18.9507  -30.1518   23.8908 C   0  0  0  0  0  0
  -17.6509  -30.6638   24.0602 C   0  0  0  0  0  0
  -25.9095  -34.9425   23.5056 C   0  0  0  0  0  0
  -16.5400  -29.9135   23.6362 C   0  0  0  0  0  0
  -16.7323  -28.6546   23.0387 C   0  0  0  0  0  0
  -26.4529  -31.6575   25.0670 C   0  0  0  0  0  0
  -25.3684  -31.3820   26.1342 C   0  0  0  0  0  0
  -27.0364  -30.2974   24.6202 C   0  0  0  0  0  0
  -27.6078  -32.4301   25.7472 C   0  0  0  0  0  0
  -27.5575  -37.1741   24.8456 C   0  0  0  0  0  0
  -21.4277  -29.3061   22.3615 N   0  0  0  0  0  0
  -26.4249  -37.3784   23.9449 N   0  0  0  0  0  0
  -24.7187  -31.0322   22.0876 N   0  0  0  0  0  0
  -23.4224  -28.8131   23.3044 O   0  0  0  0  0  0
  -28.2574  -26.1004   20.2505 O   0  0  0  0  0  0
  -26.5681  -34.8931   22.4645 O   0  0  0  0  0  0
  -23.5579  -32.1365   23.7066 O   0  0  0  0  0  0
  -30.7783  -21.0904   20.4978 C   0  0  0  0  0  0
  -29.4476  -20.6391   20.4359 C   0  0  0  0  0  0
  -28.4978  -21.7897   20.3852 C   0  0  0  0  0  0
  -31.1129  -22.4656   20.5333 C   0  0  0  0  0  0
  -28.8948  -23.2328   20.3616 C   0  0  0  0  0  0
  -30.8595  -18.1607   22.1679 C   0  0  0  0  0  0
  -29.5622  -16.1355   22.4262 C   0  0  0  0  0  0
  -30.6191  -17.0015   23.1238 C   0  0  2  0  0  0
  -30.2396  -17.7408   20.8136 C   0  0  2  0  0  0
  -27.0112  -21.4691   20.3722 C   0  0  0  0  0  0
  -32.5710  -22.8559   20.6908 C   0  0  0  0  0  0
  -29.1561  -18.9916   20.3947 C   0  0  0  0  0  0
  -27.9008  -24.5680   20.1993 C   0  0  0  0  0  0
  -30.2209  -23.4924   20.4508 N   0  0  0  0  0  0
  -29.8906  -16.1761   20.9885 N   0  0  0  0  0  0
  -30.2557  -17.4091   24.4980 N   0  3  0  0  0  0
  -31.4739  -12.7883   19.2317 H   0  0  0  0  0  0
  -30.4256  -11.6763   20.0501 H   0  0  0  0  0  0
  -29.8797  -11.7906   17.5965 H   0  0  0  0  0  0
  -29.6127  -13.5122   17.7217 H   0  0  0  0  0  0
  -27.9757  -11.2821   18.9658 H   0  0  0  0  0  0
  -27.4138  -12.4647   17.8103 H   0  0  0  0  0  0
  -27.5978  -14.2551   19.4235 H   0  0  0  0  0  0
  -28.7494  -12.2810   21.4476 H   0  0  0  0  0  0
  -28.2803  -13.9233   21.7716 H   0  0  0  0  0  0
  -25.2792   -9.5690   22.4737 H   0  0  0  0  0  0
  -24.0030   -7.4635   22.7463 H   0  0  0  0  0  0
  -21.0860   -8.8775   19.8935 H   0  0  0  0  0  0
  -22.3723  -10.9674   19.6139 H   0  0  0  0  0  0
  -21.1983   -7.6141   23.9724 H   0  0  0  0  0  0
  -21.1486   -6.0519   25.9088 H   0  0  0  0  0  0
  -22.0584   -2.7607   23.2841 H   0  0  0  0  0  0
  -22.4109  -11.9866   22.4813 H   0  0  0  0  0  0
  -21.1067  -13.1180   22.2576 H   0  0  0  0  0  0
  -24.6514  -15.8456   20.5393 H   0  0  0  0  0  0
  -26.2798  -15.6394   20.1332 H   0  0  0  0  0  0
  -26.7296  -32.5308   23.0977 H   0  0  0  0  0  0
  -25.0112  -33.9622   25.0318 H   0  0  0  0  0  0
  -22.7534  -31.2916   21.3818 H   0  0  0  0  0  0
  -23.3769  -35.9496   23.3291 H   0  0  0  0  0  0
  -24.3598  -36.8873   22.2061 H   0  0  0  0  0  0
  -23.7140  -37.6371   23.6676 H   0  0  0  0  0  0
  -26.1639  -31.4653   20.6047 H   0  0  0  0  0  0
  -26.8753  -30.7732   22.0260 H   0  0  0  0  0  0
  -28.1268  -28.7824   21.2607 H   0  0  0  0  0  0
  -25.9014  -25.8428   19.0027 H   0  0  0  0  0  0
  -23.9885  -27.3043   18.9677 H   0  0  0  0  0  0
  -23.8160  -30.5735   19.3979 H   0  0  0  0  0  0
  -22.7861  -29.2433   19.8413 H   0  0  0  0  0  0
  -25.1292  -36.1854   25.0807 H   0  0  0  0  0  0
  -21.0093  -28.3369   24.1362 H   0  0  0  0  0  0
  -20.5752  -26.2375   23.3696 H   0  0  0  0  0  0
  -21.6670  -26.7492   22.1202 H   0  0  0  0  0  0
  -19.6905  -25.6344   21.1300 H   0  0  0  0  0  0
  -19.6668  -27.3233   20.6799 H   0  0  0  0  0  0
  -17.4231  -26.6810   21.4064 H   0  0  0  0  0  0
  -18.0284  -26.0136   22.9077 H   0  0  0  0  0  0
  -19.7978  -30.7364   24.2238 H   0  0  0  0  0  0
  -17.5058  -31.6306   24.5232 H   0  0  0  0  0  0
  -15.5387  -30.3064   23.7637 H   0  0  0  0  0  0
  -15.8745  -28.0878   22.7084 H   0  0  0  0  0  0
  -24.5852  -30.7186   25.7677 H   0  0  0  0  0  0
  -24.8850  -32.3013   26.4644 H   0  0  0  0  0  0
  -25.7910  -30.9088   27.0206 H   0  0  0  0  0  0
  -26.2953  -29.6728   24.1173 H   0  0  0  0  0  0
  -27.3996  -29.7260   25.4759 H   0  0  0  0  0  0
  -27.8892  -30.4288   23.9529 H   0  0  0  0  0  0
  -27.2708  -33.3646   26.1970 H   0  0  0  0  0  0
  -28.3915  -32.6758   25.0301 H   0  0  0  0  0  0
  -28.0656  -31.8425   26.5427 H   0  0  0  0  0  0
  -28.2529  -38.0102   24.7668 H   0  0  0  0  0  0
  -28.1140  -36.2659   24.6091 H   0  0  0  0  0  0
  -27.2357  -37.1194   25.8870 H   0  0  0  0  0  0
  -20.9493  -29.8769   21.6789 H   0  0  0  0  0  0
  -26.0114  -38.2829   24.1568 H   0  0  0  0  0  0
  -31.5785  -20.3650   20.5420 H   0  0  0  0  0  0
  -31.9269  -18.3677   22.0769 H   0  0  0  0  0  0
  -30.4007  -19.0716   22.5513 H   0  0  0  0  0  0
  -28.5534  -16.5210   22.5852 H   0  0  0  0  0  0
  -29.6051  -15.1415   22.8740 H   0  0  0  0  0  0
  -31.5422  -16.4223   23.1955 H   0  0  0  0  0  0
  -31.0414  -17.7710   20.0735 H   0  0  0  0  0  0
  -26.7806  -20.5588   20.9247 H   0  0  0  0  0  0
  -26.6540  -21.3468   19.3506 H   0  0  0  0  0  0
  -26.4291  -22.2608   20.8430 H   0  0  0  0  0  0
  -32.9098  -22.6261   21.7029 H   0  0  0  0  0  0
  -32.7368  -23.9182   20.5205 H   0  0  0  0  0  0
  -33.1992  -22.2973   19.9946 H   0  0  0  0  0  0
  -28.8238  -18.7833   19.3777 H   0  0  0  0  0  0
  -28.2716  -18.8348   21.0079 H   0  0  0  0  0  0
  -27.1061  -24.4331   20.9335 H   0  0  0  0  0  0
  -27.4375  -24.3959   19.2300 H   0  0  0  0  0  0
  -29.4694  -18.0347   24.5075 H   0  0  0  0  0  0
  -31.0281  -17.8747   24.9421 H   0  0  0  0  0  0
  -30.0277  -16.6095   25.0615 H   0  0  0  0  0  0
  1 25  1  0  0  0
  1 30  2  0  0  0
  1 85  1  0  0  0
  2  3  1  0  0  0
  2 25  1  0  0  0
  2 87  1  0  0  0
  2 88  1  0  0  0
  3  4  1  0  0  0
  3 89  1  0  0  0
  3 90  1  0  0  0
  4  5  1  0  0  0
  4 91  1  0  0  0
  4 92  1  0  0  0
  5  6  1  0  0  0
  5 26  1  0  0  0
  5 93  1  0  0  0
  6 25  1  0  0  0
  6 94  1  0  0  0
  6 95  1  0  0  0
  7  8  2  0  0  0
  7 26  1  0  0  0
  7 29  1  0  0  0
  8  9  1  0  0  0
  8 22  1  0  0  0
  9 10  1  0  0  0
  9 27  2  0  0  0
 10 11  2  0  0  0
 10 15  1  0  0  0
 11 12  1  0  0  0
 11 96  1  0  0  0
 12 13  2  0  0  0
 12 97  1  0  0  0
 13 14  1  0  0  0
 13 31  1  0  0  0
 14 15  2  0  0  0
 14 98  1  0  0  0
 15 99  1  0  0  0
 16 17  2  0  0  0
 16 21  1  0  0  0
 16 31  1  0  0  0
 17 18  1  0  0  0
 17100  1  0  0  0
 18 19  2  0  0  0
 18101  1  0  0  0
 19 20  1  0  0  0
 19 24  1  0  0  0
 20 21  2  0  0  0
 20102  1  0  0  0
 21 23  1  0  0  0
 22 28  1  0  0  0
 22 32  2  0  0  0
 26 27  1  0  0  0
 28103  1  0  0  0
 28104  1  0  0  0
 29105  1  0  0  0
 29106  1  0  0  0
 33 34  1  0  0  0
 33 66  1  0  0  0
 33 70  2  0  0  0
 34 36  1  0  0  0
 34 59  1  0  0  0
 34107  1  0  0  0
 35 44  2  0  0  0
 35 45  1  0  0  0
 35 68  1  0  0  0
 36 56  1  0  0  0
 36108  1  0  0  0
 37 39  1  0  0  0
 37 47  1  0  0  0
 37 66  1  0  0  0
 37109  1  0  0  0
 38 43  2  0  0  0
 38 46  1  0  0  0
 38 47  1  0  0  0
 39 64  1  0  0  0
 39 67  2  0  0  0
 40 52  1  0  0  0
 40 53  2  0  0  0
 40 58  1  0  0  0
 41110  1  0  0  0
 41111  1  0  0  0
 41112  1  0  0  0
 41 48  1  0  0  0
 42 43  1  0  0  0
 42 66  1  0  0  0
 42113  1  0  0  0
 42114  1  0  0  0
 43 44  1  0  0  0
 44115  1  0  0  0
 45 46  2  0  0  0
 45116  1  0  0  0
 46117  1  0  0  0
 47118  1  0  0  0
 47119  1  0  0  0
 48 56  1  0  0  0
 48 65  1  0  0  0
 48120  1  0  0  0
 49 50  1  0  0  0
 49 53  1  0  0  0
 49 64  1  0  0  0
 49121  1  0  0  0
 50 51  1  0  0  0
 50122  1  0  0  0
 50123  1  0  0  0
 51 52  1  0  0  0
 51124  1  0  0  0
 51125  1  0  0  0
 52126  1  0  0  0
 52127  1  0  0  0
 53 54  1  0  0  0
 54 55  2  0  0  0
 54128  1  0  0  0
 55 57  1  0  0  0
 55129  1  0  0  0
 56 69  2  0  0  0
 57 58  2  0  0  0
 57130  1  0  0  0
 58131  1  0  0  0
 59 60  1  0  0  0
 59 61  1  0  0  0
 59 62  1  0  0  0
 60132  1  0  0  0
 60133  1  0  0  0
 60134  1  0  0  0
 61135  1  0  0  0
 61136  1  0  0  0
 61137  1  0  0  0
 62138  1  0  0  0
 62139  1  0  0  0
 62140  1  0  0  0
 63 65  1  0  0  0
 63141  1  0  0  0
 63142  1  0  0  0
 63143  1  0  0  0
 64144  1  0  0  0
 65145  1  0  0  0
 68 83  1  0  0  0
 71 72  2  0  0  0
 71 74  1  0  0  0
 71146  1  0  0  0
 72 73  1  0  0  0
 72 82  1  0  0  0
 73 75  2  0  0  0
 73 80  1  0  0  0
 74 81  1  0  0  0
 74 84  2  0  0  0
 75 83  1  0  0  0
 75 84  1  0  0  0
 76 78  1  0  0  0
 76 79  1  0  0  0
 76147  1  0  0  0
 76148  1  0  0  0
 77 78  1  0  0  0
 77 85  1  0  0  0
 77149  1  0  0  0
 77150  1  0  0  0
 78 86  1  0  0  0
 78151  1  0  0  0
 79 82  1  0  0  0
 79 85  1  0  0  0
 79152  1  0  0  0
 80153  1  0  0  0
 80154  1  0  0  0
 80155  1  0  0  0
 81156  1  0  0  0
 81157  1  0  0  0
 81158  1  0  0  0
 82159  1  0  0  0
 82160  1  0  0  0
 83161  1  0  0  0
 83162  1  0  0  0
 86163  1  0  0  0
 86164  1  0  0  0
 86165  1  0  0  0
M  CHG  1  86   1
M  ISO  4   1 100  68 101  83 101  85 100
M  END
> <chiral flag>
0

> <version>
0

> <s_m_source_file>
/data/baiqing/PycharmProjects/Reinvent-master-3.2/result/LINK_invent/BTK/process_docking_weight1_custom_sum_contain_oxygen_bond_distance_aromatic_linkinvent_7_9_3/rearranged_h_0183.sdf

> <i_m_source_file_index>
89

> <r_mmod_Potential_Energy-OPLS-2005>
415.601715087891

> <r_mmod_Stretch_Energy-OPLS-2005>
315.774566650391

> <r_mmod_Bend_Energy-OPLS-2005>
302.884765625

> <r_mmod_Torsional_Energy-OPLS-2005>
331.570007324219

> <r_mmod_Improper_Torsional_Energy-OPLS-2005>
7.70624494552612

> <r_mmod_Van_der_Waal_Energy-OPLS-2005>
135.33772277832

> <r_mmod_Electrostatic_Energy-OPLS-2005>
-357.501586914062

> <r_mmod_Solvation_Energy-OPLS-2005>
-532.244995117188

> <b_mmod_Minimization_Converged-OPLS-2005>
0

> <r_mmod_RMS_Derivative-OPLS-2005>
5.06362247467041

$$$$
90
                    3D
 Structure written by MMmdl.
154163  0  0  1  0            999 V2000
  -30.4110  -15.3919   20.3431 C   0  0  0  0  0  0
  -30.4300  -12.9098   19.5075 C   0  0  0  0  0  0
  -29.5319  -12.5876   18.2866 C   0  0  0  0  0  0
  -28.0922  -12.2851   18.7330 C   0  0  0  0  0  0
  -27.5993  -13.2838   19.8077 C   0  0  2  0  0  0
  -28.6320  -13.5346   20.9260 C   0  0  0  0  0  0
  -25.2342  -13.8240   20.5764 C   0  0  0  0  0  0
  -24.1711  -13.0421   20.9269 C   0  0  0  0  0  0
  -24.6384  -11.6926   20.8770 C   0  0  0  0  0  0
  -23.9087  -10.4284   21.0410 C   0  0  0  0  0  0
  -24.3633   -9.4198   21.9186 C   0  0  0  0  0  0
  -23.6296   -8.2239   22.0754 C   0  0  0  0  0  0
  -22.4276   -8.0279   21.3545 C   0  0  0  0  0  0
  -21.9915   -9.0256   20.4649 C   0  0  0  0  0  0
  -22.7259  -10.2125   20.3059 C   0  0  0  0  0  0
  -21.6853   -6.0730   22.5275 C   0  0  0  0  0  0
  -21.4019   -6.5634   23.8208 C   0  0  0  0  0  0
  -21.3658   -5.6784   24.9168 C   0  0  0  0  0  0
  -21.6040   -4.3049   24.7221 C   0  0  0  0  0  0
  -21.8820   -3.8142   23.4346 C   0  0  0  0  0  0
  -21.9196   -4.6956   22.3399 C   0  0  0  0  0  0
  -22.7730  -13.5179   21.1908 C   0  0  0  0  0  0
  -22.1664   -4.2146   21.0976 F   0  0  0  0  0  0
  -21.5625   -3.4530   25.7734 F   0  0  0  0  0  0
  -29.8329  -14.0794   20.2658 N   0  0  0  0  0  0
  -26.2770  -12.9539   20.3203 N   0  0  0  0  0  0
  -25.9324  -11.6637   20.5715 N   0  0  0  0  0  0
  -22.0388  -12.8167   22.0464 N   0  0  0  0  0  0
  -25.3942  -15.1968   20.4197 N   0  0  0  0  0  0
  -31.6497  -15.3236   20.2689 O   0  0  0  0  0  0
  -21.6637   -6.8874   21.4239 O   0  0  0  0  0  0
  -22.3418  -14.5484   20.6747 O   0  0  0  0  0  0
  -24.6698  -31.8161   23.1633 C   0  0  0  0  0  0
  -25.9340  -32.4548   23.8125 C   0  0  1  0  0  0
  -27.2161  -26.8499   20.2026 C   0  0  0  0  0  0
  -25.5974  -33.8366   24.2026 N   0  0  0  0  0  0
  -23.4871  -30.4240   21.5152 C   0  0  2  0  0  0
  -24.9383  -28.7892   20.1218 C   0  0  0  0  0  0
  -22.7693  -29.4406   22.4769 C   0  0  0  0  0  0
  -18.0328  -28.1413   22.8466 C   0  0  0  0  0  0
  -24.1502  -36.7199   23.2660 C   0  0  0  0  0  0
  -26.0600  -30.5984   21.4026 C   0  0  0  0  0  0
  -26.1263  -29.1777   20.7536 C   0  0  0  0  0  0
  -27.2599  -28.2340   20.7585 C   0  0  0  0  0  0
  -25.9939  -26.6266   19.5291 C   0  0  0  0  0  0
  -24.9017  -27.5363   19.4874 C   0  0  0  0  0  0
  -23.7306  -29.7300   20.1462 C   0  0  0  0  0  0
  -25.4153  -36.2949   24.0290 C   0  0  1  0  0  0
  -20.5954  -28.3764   23.1177 C   0  0  2  0  0  0
  -20.6801  -26.9439   22.5402 C   0  0  0  0  0  0
  -19.5774  -26.6377   21.5215 C   0  0  0  0  0  0
  -18.1958  -26.7944   22.1622 C   0  0  0  0  0  0
  -19.1589  -28.8911   23.2806 C   0  0  0  0  0  0
  -18.9499  -30.1499   23.8845 C   0  0  0  0  0  0
  -17.6494  -30.6603   24.0554 C   0  0  0  0  0  0
  -25.9104  -34.9329   23.4986 C   0  0  0  0  0  0
  -16.5384  -29.9089   23.6348 C   0  0  0  0  0  0
  -16.7309  -28.6508   23.0367 C   0  0  0  0  0  0
  -26.4565  -31.6523   25.0687 C   0  0  0  0  0  0
  -25.3668  -31.3797   26.1328 C   0  0  0  0  0  0
  -27.0476  -30.2882   24.6477 C   0  0  0  0  0  0
  -27.6034  -32.4354   25.7503 C   0  0  0  0  0  0
  -27.5543  -37.1804   24.8499 C   0  0  0  0  0  0
  -21.4357  -29.3040   22.3515 N   0  0  0  0  0  0
  -26.4315  -37.3666   23.9348 N   0  0  0  0  0  0
  -24.7613  -30.9754   22.0803 N   0  0  0  0  0  0
  -23.4210  -28.7989   23.3044 O   0  0  0  0  0  0
  -28.2380  -25.7370   20.1977 O   0  0  0  0  0  0
  -26.5727  -34.8872   22.4591 O   0  0  0  0  0  0
  -23.5749  -32.1165   23.6680 O   0  0  0  0  0  0
  -28.4004  -18.7382   19.2395 C   0  0  0  0  0  0
  -29.1793  -23.5750   21.5685 C   0  0  0  0  0  0
  -28.5080  -17.1453   19.5635 C   0  0  0  0  0  0
  -30.0947  -18.2924   20.7097 C   0  0  0  0  0  0
  -29.2288  -21.9743   21.7158 C   0  0  0  0  0  0
  -28.3315  -22.5226   19.6749 C   0  0  0  0  0  0
  -28.9528  -19.5810   20.4228 C   0  0  1  0  0  0
  -28.1457  -24.0719   20.5048 C   0  0  2  0  0  0
  -29.7106  -16.7431   20.3616 N   0  0  0  0  0  0
  -29.1419  -21.2863   20.3886 N   0  3  2  0  0  0
  -31.4361  -13.1388   19.1536 H   0  0  0  0  0  0
  -30.5414  -12.0375   20.1534 H   0  0  0  0  0  0
  -29.9376  -11.7435   17.7275 H   0  0  0  0  0  0
  -29.5303  -13.4373   17.6028 H   0  0  0  0  0  0
  -28.0820  -11.2754   19.1462 H   0  0  0  0  0  0
  -27.4182  -12.2737   17.8757 H   0  0  0  0  0  0
  -27.4875  -14.2269   19.2719 H   0  0  0  0  0  0
  -28.8423  -12.6277   21.4950 H   0  0  0  0  0  0
  -28.2474  -14.2668   21.6378 H   0  0  0  0  0  0
  -25.2780   -9.5667   22.4762 H   0  0  0  0  0  0
  -23.9998   -7.4630   22.7480 H   0  0  0  0  0  0
  -21.0842   -8.8789   19.8962 H   0  0  0  0  0  0
  -22.3727  -10.9665   19.6170 H   0  0  0  0  0  0
  -21.2017   -7.6142   23.9711 H   0  0  0  0  0  0
  -21.1475   -6.0512   25.9068 H   0  0  0  0  0  0
  -22.0602   -2.7606   23.2841 H   0  0  0  0  0  0
  -22.4019  -11.9846   22.4871 H   0  0  0  0  0  0
  -21.1006  -13.1194   22.2670 H   0  0  0  0  0  0
  -24.6226  -15.8452   20.5348 H   0  0  0  0  0  0
  -26.2369  -15.6381   20.0785 H   0  0  0  0  0  0
  -26.7419  -32.5068   23.0842 H   0  0  0  0  0  0
  -25.0044  -33.9433   25.0123 H   0  0  0  0  0  0
  -22.8043  -31.2572   21.3375 H   0  0  0  0  0  0
  -23.3714  -35.9596   23.3458 H   0  0  0  0  0  0
  -24.3518  -36.8705   22.2044 H   0  0  0  0  0  0
  -23.7360  -37.6471   23.6631 H   0  0  0  0  0  0
  -26.2463  -31.3331   20.6181 H   0  0  0  0  0  0
  -26.9175  -30.6597   22.0606 H   0  0  0  0  0  0
  -28.1670  -28.5397   21.2609 H   0  0  0  0  0  0
  -25.8585  -25.6732   19.0381 H   0  0  0  0  0  0
  -24.0012  -27.2331   18.9716 H   0  0  0  0  0  0
  -23.8958  -30.4940   19.3854 H   0  0  0  0  0  0
  -22.8375  -29.1905   19.8262 H   0  0  0  0  0  0
  -25.1382  -36.1762   25.0791 H   0  0  0  0  0  0
  -21.0038  -28.3378   24.1302 H   0  0  0  0  0  0
  -20.5685  -26.2382   23.3648 H   0  0  0  0  0  0
  -21.6666  -26.7412   22.1208 H   0  0  0  0  0  0
  -19.6935  -25.6274   21.1282 H   0  0  0  0  0  0
  -19.6713  -27.3155   20.6720 H   0  0  0  0  0  0
  -17.4225  -26.6684   21.4029 H   0  0  0  0  0  0
  -18.0356  -26.0101   22.9034 H   0  0  0  0  0  0
  -19.7975  -30.7327   24.2189 H   0  0  0  0  0  0
  -17.5046  -31.6276   24.5162 H   0  0  0  0  0  0
  -15.5380  -30.2973   23.7705 H   0  0  0  0  0  0
  -15.8707  -28.0805   22.7118 H   0  0  0  0  0  0
  -24.5862  -30.7141   25.7630 H   0  0  0  0  0  0
  -24.8845  -32.3008   26.4610 H   0  0  0  0  0  0
  -25.7874  -30.9051   27.0202 H   0  0  0  0  0  0
  -26.3160  -29.6534   24.1470 H   0  0  0  0  0  0
  -27.3967  -29.7277   25.5161 H   0  0  0  0  0  0
  -27.9116  -30.4046   23.9932 H   0  0  0  0  0  0
  -27.2580  -33.3696   26.1944 H   0  0  0  0  0  0
  -28.3919  -32.6854   25.0392 H   0  0  0  0  0  0
  -28.0627  -31.8579   26.5536 H   0  0  0  0  0  0
  -28.2696  -37.9953   24.7305 H   0  0  0  0  0  0
  -28.0896  -36.2476   24.6663 H   0  0  0  0  0  0
  -27.2207  -37.1862   25.8890 H   0  0  0  0  0  0
  -20.9629  -29.8703   21.6610 H   0  0  0  0  0  0
  -26.0172  -38.2764   24.1190 H   0  0  0  0  0  0
  -27.3737  -19.0197   19.0027 H   0  0  0  0  0  0
  -28.9894  -18.9601   18.3484 H   0  0  0  0  0  0
  -30.1664  -23.9208   21.2630 H   0  0  0  0  0  0
  -28.9835  -24.0394   22.5344 H   0  0  0  0  0  0
  -28.4666  -16.5698   18.6373 H   0  0  0  0  0  0
  -27.6379  -16.8501   20.1484 H   0  0  0  0  0  0
  -30.4051  -18.3283   21.7538 H   0  0  0  0  0  0
  -30.9970  -18.5114   20.1368 H   0  0  0  0  0  0
  -28.3767  -21.6522   22.3157 H   0  0  0  0  0  0
  -30.1233  -21.6539   22.2505 H   0  0  0  0  0  0
  -28.8208  -22.7060   18.7183 H   0  0  0  0  0  0
  -27.3362  -22.1591   19.4169 H   0  0  0  0  0  0
  -28.2019  -19.4639   21.2052 H   0  0  0  0  0  0
  -27.1667  -23.9903   20.9781 H   0  0  0  0  0  0
  -30.0662  -21.3851   19.9952 H   0  0  0  0  0  0
  1 25  1  0  0  0
  1 30  2  0  0  0
  1 79  1  0  0  0
  2  3  1  0  0  0
  2 25  1  0  0  0
  2 81  1  0  0  0
  2 82  1  0  0  0
  3  4  1  0  0  0
  3 83  1  0  0  0
  3 84  1  0  0  0
  4  5  1  0  0  0
  4 85  1  0  0  0
  4 86  1  0  0  0
  5  6  1  0  0  0
  5 26  1  0  0  0
  5 87  1  0  0  0
  6 25  1  0  0  0
  6 88  1  0  0  0
  6 89  1  0  0  0
  7  8  2  0  0  0
  7 26  1  0  0  0
  7 29  1  0  0  0
  8  9  1  0  0  0
  8 22  1  0  0  0
  9 10  1  0  0  0
  9 27  2  0  0  0
 10 11  2  0  0  0
 10 15  1  0  0  0
 11 12  1  0  0  0
 11 90  1  0  0  0
 12 13  2  0  0  0
 12 91  1  0  0  0
 13 14  1  0  0  0
 13 31  1  0  0  0
 14 15  2  0  0  0
 14 92  1  0  0  0
 15 93  1  0  0  0
 16 17  2  0  0  0
 16 21  1  0  0  0
 16 31  1  0  0  0
 17 18  1  0  0  0
 17 94  1  0  0  0
 18 19  2  0  0  0
 18 95  1  0  0  0
 19 20  1  0  0  0
 19 24  1  0  0  0
 20 21  2  0  0  0
 20 96  1  0  0  0
 21 23  1  0  0  0
 22 28  1  0  0  0
 22 32  2  0  0  0
 26 27  1  0  0  0
 28 97  1  0  0  0
 28 98  1  0  0  0
 29 99  1  0  0  0
 29100  1  0  0  0
 33 34  1  0  0  0
 33 66  1  0  0  0
 33 70  2  0  0  0
 34 36  1  0  0  0
 34 59  1  0  0  0
 34101  1  0  0  0
 35 44  2  0  0  0
 35 45  1  0  0  0
 35 68  1  0  0  0
 36 56  1  0  0  0
 36102  1  0  0  0
 37 39  1  0  0  0
 37 47  1  0  0  0
 37 66  1  0  0  0
 37103  1  0  0  0
 38 43  2  0  0  0
 38 46  1  0  0  0
 38 47  1  0  0  0
 39 64  1  0  0  0
 39 67  2  0  0  0
 40 52  1  0  0  0
 40 53  2  0  0  0
 40 58  1  0  0  0
 41104  1  0  0  0
 41105  1  0  0  0
 41106  1  0  0  0
 41 48  1  0  0  0
 42 43  1  0  0  0
 42 66  1  0  0  0
 42107  1  0  0  0
 42108  1  0  0  0
 43 44  1  0  0  0
 44109  1  0  0  0
 45 46  2  0  0  0
 45110  1  0  0  0
 46111  1  0  0  0
 47112  1  0  0  0
 47113  1  0  0  0
 48 56  1  0  0  0
 48 65  1  0  0  0
 48114  1  0  0  0
 49 50  1  0  0  0
 49 53  1  0  0  0
 49 64  1  0  0  0
 49115  1  0  0  0
 50 51  1  0  0  0
 50116  1  0  0  0
 50117  1  0  0  0
 51 52  1  0  0  0
 51118  1  0  0  0
 51119  1  0  0  0
 52120  1  0  0  0
 52121  1  0  0  0
 53 54  1  0  0  0
 54 55  2  0  0  0
 54122  1  0  0  0
 55 57  1  0  0  0
 55123  1  0  0  0
 56 69  2  0  0  0
 57 58  2  0  0  0
 57124  1  0  0  0
 58125  1  0  0  0
 59 60  1  0  0  0
 59 61  1  0  0  0
 59 62  1  0  0  0
 60126  1  0  0  0
 60127  1  0  0  0
 60128  1  0  0  0
 61129  1  0  0  0
 61130  1  0  0  0
 61131  1  0  0  0
 62132  1  0  0  0
 62133  1  0  0  0
 62134  1  0  0  0
 63 65  1  0  0  0
 63135  1  0  0  0
 63136  1  0  0  0
 63137  1  0  0  0
 64138  1  0  0  0
 65139  1  0  0  0
 68 78  1  0  0  0
 71 73  1  0  0  0
 71140  1  0  0  0
 71141  1  0  0  0
 71 77  1  0  0  0
 72 75  1  0  0  0
 72 78  1  0  0  0
 72142  1  0  0  0
 72143  1  0  0  0
 73 79  1  0  0  0
 73144  1  0  0  0
 73145  1  0  0  0
 74 77  1  0  0  0
 74 79  1  0  0  0
 74146  1  0  0  0
 74147  1  0  0  0
 75148  1  0  0  0
 75149  1  0  0  0
 75 80  1  0  0  0
 76 78  1  0  0  0
 76 80  1  0  0  0
 76150  1  0  0  0
 76151  1  0  0  0
 77 80  1  0  0  0
 77152  1  0  0  0
 78153  1  0  0  0
 80154  1  0  0  0
M  CHG  1  80   1
M  ISO  4   1 100  68 101  78 101  79 100
M  END
> <chiral flag>
0

> <version>
0

> <s_m_source_file>
/data/baiqing/PycharmProjects/Reinvent-master-3.2/result/LINK_invent/BTK/process_docking_weight1_custom_sum_contain_oxygen_bond_distance_aromatic_linkinvent_7_9_3/rearranged_h_0183.sdf

> <i_m_source_file_index>
90

> <r_mmod_Potential_Energy-OPLS-2005>
1701.02966308594

> <r_mmod_Stretch_Energy-OPLS-2005>
641.844604492188

> <r_mmod_Bend_Energy-OPLS-2005>
615.462341308594

> <r_mmod_Torsional_Energy-OPLS-2005>
391.878753662109

> <r_mmod_Improper_Torsional_Energy-OPLS-2005>
4.27464866638184

> <r_mmod_Van_der_Waal_Energy-OPLS-2005>
96.6061782836914

> <r_mmod_Electrostatic_Energy-OPLS-2005>
-194.222106933594

> <r_mmod_Solvation_Energy-OPLS-2005>
-440.650390625

> <b_mmod_Minimization_Converged-OPLS-2005>
0

> <r_mmod_RMS_Derivative-OPLS-2005>
1.03757381439209

$$$$
91
                    3D
 Structure written by MMmdl.
154163  0  0  1  0            999 V2000
  -30.5416  -14.9946   20.3822 C   0  0  0  0  0  0
  -30.4317  -12.6147   19.4933 C   0  0  0  0  0  0
  -29.5222  -12.5279   18.2482 C   0  0  0  0  0  0
  -28.0520  -12.3208   18.6627 C   0  0  0  0  0  0
  -27.6215  -13.2604   19.8224 C   0  0  2  0  0  0
  -28.6657  -13.3278   20.9550 C   0  0  0  0  0  0
  -25.2441  -13.8246   20.5708 C   0  0  0  0  0  0
  -24.1774  -13.0447   20.9225 C   0  0  0  0  0  0
  -24.6412  -11.6942   20.8748 C   0  0  0  0  0  0
  -23.9105  -10.4298   21.0391 C   0  0  0  0  0  0
  -24.3641   -9.4214   21.9179 C   0  0  0  0  0  0
  -23.6317   -8.2247   22.0742 C   0  0  0  0  0  0
  -22.4304   -8.0284   21.3526 C   0  0  0  0  0  0
  -21.9932   -9.0268   20.4638 C   0  0  0  0  0  0
  -22.7263  -10.2147   20.3050 C   0  0  0  0  0  0
  -21.6866   -6.0745   22.5280 C   0  0  0  0  0  0
  -21.4029   -6.5645   23.8212 C   0  0  0  0  0  0
  -21.3663   -5.6795   24.9161 C   0  0  0  0  0  0
  -21.6040   -4.3056   24.7214 C   0  0  0  0  0  0
  -21.8817   -3.8152   23.4331 C   0  0  0  0  0  0
  -21.9187   -4.6973   22.3391 C   0  0  0  0  0  0
  -22.7786  -13.5208   21.1872 C   0  0  0  0  0  0
  -22.1647   -4.2170   21.0967 F   0  0  0  0  0  0
  -21.5623   -3.4526   25.7714 F   0  0  0  0  0  0
  -29.9264  -13.7408   20.3304 N   0  0  0  0  0  0
  -26.2860  -12.9497   20.3179 N   0  0  0  0  0  0
  -25.9348  -11.6627   20.5718 N   0  0  0  0  0  0
  -22.0423  -12.8222   22.0432 N   0  0  0  0  0  0
  -25.4112  -15.1974   20.4181 N   0  0  0  0  0  0
  -31.7705  -14.9972   20.2257 O   0  0  0  0  0  0
  -21.6649   -6.8894   21.4242 O   0  0  0  0  0  0
  -22.3464  -14.5501   20.6697 O   0  0  0  0  0  0
  -24.6475  -31.8385   23.1835 C   0  0  0  0  0  0
  -25.9231  -32.4667   23.8242 C   0  0  1  0  0  0
  -27.2169  -27.0867   20.1622 C   0  0  0  0  0  0
  -25.5955  -33.8468   24.2168 N   0  0  0  0  0  0
  -23.4535  -30.4540   21.5290 C   0  0  2  0  0  0
  -24.8997  -28.8585   20.1167 C   0  0  0  0  0  0
  -22.7579  -29.4524   22.4848 C   0  0  0  0  0  0
  -18.0301  -28.1390   22.8471 C   0  0  0  0  0  0
  -24.1490  -36.7247   23.2644 C   0  0  0  0  0  0
  -26.0100  -30.6927   21.3905 C   0  0  0  0  0  0
  -26.0755  -29.2958   20.7385 C   0  0  0  0  0  0
  -27.2305  -28.4239   20.7444 C   0  0  0  0  0  0
  -26.0168  -26.7549   19.5010 C   0  0  0  0  0  0
  -24.8847  -27.6045   19.4831 C   0  0  0  0  0  0
  -23.6806  -29.7698   20.1532 C   0  0  0  0  0  0
  -25.4122  -36.3006   24.0309 C   0  0  1  0  0  0
  -20.5908  -28.3715   23.1238 C   0  0  2  0  0  0
  -20.6773  -26.9416   22.5402 C   0  0  0  0  0  0
  -19.5751  -26.6372   21.5211 C   0  0  0  0  0  0
  -18.1932  -26.7926   22.1621 C   0  0  0  0  0  0
  -19.1556  -28.8870   23.2838 C   0  0  0  0  0  0
  -18.9472  -30.1463   23.8869 C   0  0  0  0  0  0
  -17.6465  -30.6581   24.0557 C   0  0  0  0  0  0
  -25.9077  -34.9385   23.5052 C   0  0  0  0  0  0
  -16.5357  -29.9067   23.6343 C   0  0  0  0  0  0
  -16.7281  -28.6482   23.0370 C   0  0  0  0  0  0
  -26.4522  -31.6558   25.0716 C   0  0  0  0  0  0
  -25.3683  -31.3783   26.1408 C   0  0  0  0  0  0
  -27.0399  -30.2945   24.6382 C   0  0  0  0  0  0
  -27.6026  -32.4341   25.7515 C   0  0  0  0  0  0
  -27.5575  -37.1774   24.8449 C   0  0  0  0  0  0
  -21.4259  -29.3039   22.3608 N   0  0  0  0  0  0
  -26.4283  -37.3730   23.9400 N   0  0  0  0  0  0
  -24.7232  -31.0183   22.0901 N   0  0  0  0  0  0
  -23.4190  -28.8102   23.3037 O   0  0  0  0  0  0
  -28.3095  -26.1385   20.1780 O   0  0  0  0  0  0
  -26.5673  -34.8895   22.4639 O   0  0  0  0  0  0
  -23.5583  -32.1297   23.7032 O   0  0  0  0  0  0
  -29.3495  -22.7626   21.4227 C   0  0  0  0  0  0
  -27.9362  -23.6260   19.3465 C   0  0  0  0  0  0
  -28.9718  -21.7336   20.4815 C   0  0  0  0  0  0
  -28.3272  -24.6556   20.2994 C   0  0  0  0  0  0
  -29.6984  -17.5174   21.0446 C   0  0  0  0  0  0
  -30.0280  -16.9508   18.9099 C   0  0  0  0  0  0
  -29.0451  -18.8459   20.2908 C   0  0  2  0  0  0
  -29.2400  -18.3191   18.8577 C   0  0  1  0  0  0
  -28.2271  -22.2398   19.4334 N   0  0  0  0  0  0
  -29.0591  -24.1268   21.3376 N   0  0  0  0  0  0
  -29.8059  -16.2209   20.1859 N   0  0  0  0  0  0
  -29.4793  -20.3258   20.6159 N   0  0  0  0  0  0
  -29.8279  -19.3172   17.9507 N   0  3  0  0  0  0
  -31.4682  -12.7647   19.1843 H   0  0  0  0  0  0
  -30.4160  -11.6781   20.0523 H   0  0  0  0  0  0
  -29.8489  -11.7150   17.5962 H   0  0  0  0  0  0
  -29.6171  -13.4444   17.6621 H   0  0  0  0  0  0
  -27.9388  -11.2810   18.9717 H   0  0  0  0  0  0
  -27.3920  -12.4561   17.8029 H   0  0  0  0  0  0
  -27.5707  -14.2580   19.3836 H   0  0  0  0  0  0
  -28.7660  -12.3694   21.4677 H   0  0  0  0  0  0
  -28.3668  -14.0617   21.7071 H   0  0  0  0  0  0
  -25.2781   -9.5701   22.4753 H   0  0  0  0  0  0
  -24.0028   -7.4651   22.7463 H   0  0  0  0  0  0
  -21.0849   -8.8802   19.8971 H   0  0  0  0  0  0
  -22.3711  -10.9691   19.6169 H   0  0  0  0  0  0
  -21.2050   -7.6162   23.9725 H   0  0  0  0  0  0
  -21.1478   -6.0510   25.9067 H   0  0  0  0  0  0
  -22.0602   -2.7620   23.2809 H   0  0  0  0  0  0
  -22.4037  -11.9927   22.4902 H   0  0  0  0  0  0
  -21.1026  -13.1247   22.2600 H   0  0  0  0  0  0
  -24.6506  -15.8544   20.5462 H   0  0  0  0  0  0
  -26.2714  -15.6387   20.1175 H   0  0  0  0  0  0
  -26.7302  -32.5245   23.0964 H   0  0  0  0  0  0
  -25.0006  -33.9545   25.0251 H   0  0  0  0  0  0
  -22.7587  -31.2801   21.3665 H   0  0  0  0  0  0
  -23.3757  -35.9572   23.3267 H   0  0  0  0  0  0
  -24.3580  -36.8931   22.2067 H   0  0  0  0  0  0
  -23.7249  -37.6429   23.6719 H   0  0  0  0  0  0
  -26.1738  -31.4420   20.6140 H   0  0  0  0  0  0
  -26.8789  -30.7447   22.0368 H   0  0  0  0  0  0
  -28.1317  -28.7550   21.2393 H   0  0  0  0  0  0
  -25.9344  -25.7963   19.0079 H   0  0  0  0  0  0
  -23.9862  -27.2708   18.9805 H   0  0  0  0  0  0
  -23.8206  -30.5370   19.3910 H   0  0  0  0  0  0
  -22.7949  -29.2083   19.8503 H   0  0  0  0  0  0
  -25.1318  -36.1815   25.0803 H   0  0  0  0  0  0
  -20.9990  -28.3309   24.1372 H   0  0  0  0  0  0
  -20.5659  -26.2334   23.3624 H   0  0  0  0  0  0
  -21.6638  -26.7409   22.1221 H   0  0  0  0  0  0
  -19.6909  -25.6278   21.1261 H   0  0  0  0  0  0
  -19.6693  -27.3161   20.6733 H   0  0  0  0  0  0
  -17.4204  -26.6670   21.4027 H   0  0  0  0  0  0
  -18.0327  -26.0070   22.9019 H   0  0  0  0  0  0
  -19.7944  -30.7287   24.2227 H   0  0  0  0  0  0
  -17.5016  -31.6264   24.5151 H   0  0  0  0  0  0
  -15.5357  -30.2957   23.7683 H   0  0  0  0  0  0
  -15.8683  -28.0793   22.7116 H   0  0  0  0  0  0
  -24.5835  -30.7175   25.7720 H   0  0  0  0  0  0
  -24.8909  -32.2971   26.4799 H   0  0  0  0  0  0
  -25.7930  -30.8952   27.0222 H   0  0  0  0  0  0
  -26.3056  -29.6638   24.1373 H   0  0  0  0  0  0
  -27.3937  -29.7278   25.5008 H   0  0  0  0  0  0
  -27.8982  -30.4124   23.9769 H   0  0  0  0  0  0
  -27.2601  -33.3634   26.2066 H   0  0  0  0  0  0
  -28.3861  -32.6929   25.0379 H   0  0  0  0  0  0
  -28.0695  -31.8510   26.5465 H   0  0  0  0  0  0
  -28.2559  -38.0103   24.7526 H   0  0  0  0  0  0
  -28.1104  -36.2634   24.6228 H   0  0  0  0  0  0
  -27.2294  -37.1361   25.8851 H   0  0  0  0  0  0
  -20.9485  -29.8709   21.6750 H   0  0  0  0  0  0
  -26.0138  -38.2794   24.1413 H   0  0  0  0  0  0
  -29.9566  -22.4909   22.2742 H   0  0  0  0  0  0
  -27.4320  -23.9230   18.4400 H   0  0  0  0  0  0
  -29.1324  -17.2877   21.9481 H   0  0  0  0  0  0
  -30.7079  -17.7581   21.3820 H   0  0  0  0  0  0
  -31.0986  -17.1463   18.8170 H   0  0  0  0  0  0
  -29.7588  -16.3221   18.0612 H   0  0  0  0  0  0
  -27.9736  -18.8135   20.4940 H   0  0  0  0  0  0
  -28.2445  -18.0988   18.4620 H   0  0  0  0  0  0
  -30.1165  -20.3020   21.4089 H   0  0  0  0  0  0
  -30.7423  -19.5795   18.2704 H   0  0  0  0  0  0
  -29.2526  -20.1418   17.9696 H   0  0  0  0  0  0
  -29.8823  -18.9787   17.0072 H   0  0  0  0  0  0
  1 25  1  0  0  0
  1 30  2  0  0  0
  1 81  1  0  0  0
  2  3  1  0  0  0
  2 25  1  0  0  0
  2 84  1  0  0  0
  2 85  1  0  0  0
  3  4  1  0  0  0
  3 86  1  0  0  0
  3 87  1  0  0  0
  4  5  1  0  0  0
  4 88  1  0  0  0
  4 89  1  0  0  0
  5  6  1  0  0  0
  5 26  1  0  0  0
  5 90  1  0  0  0
  6 25  1  0  0  0
  6 91  1  0  0  0
  6 92  1  0  0  0
  7  8  2  0  0  0
  7 26  1  0  0  0
  7 29  1  0  0  0
  8  9  1  0  0  0
  8 22  1  0  0  0
  9 10  1  0  0  0
  9 27  2  0  0  0
 10 11  2  0  0  0
 10 15  1  0  0  0
 11 12  1  0  0  0
 11 93  1  0  0  0
 12 13  2  0  0  0
 12 94  1  0  0  0
 13 14  1  0  0  0
 13 31  1  0  0  0
 14 15  2  0  0  0
 14 95  1  0  0  0
 15 96  1  0  0  0
 16 17  2  0  0  0
 16 21  1  0  0  0
 16 31  1  0  0  0
 17 18  1  0  0  0
 17 97  1  0  0  0
 18 19  2  0  0  0
 18 98  1  0  0  0
 19 20  1  0  0  0
 19 24  1  0  0  0
 20 21  2  0  0  0
 20 99  1  0  0  0
 21 23  1  0  0  0
 22 28  1  0  0  0
 22 32  2  0  0  0
 26 27  1  0  0  0
 28100  1  0  0  0
 28101  1  0  0  0
 29102  1  0  0  0
 29103  1  0  0  0
 33 34  1  0  0  0
 33 66  1  0  0  0
 33 70  2  0  0  0
 34 36  1  0  0  0
 34 59  1  0  0  0
 34104  1  0  0  0
 35 44  2  0  0  0
 35 45  1  0  0  0
 35 68  1  0  0  0
 36 56  1  0  0  0
 36105  1  0  0  0
 37 39  1  0  0  0
 37 47  1  0  0  0
 37 66  1  0  0  0
 37106  1  0  0  0
 38 43  2  0  0  0
 38 46  1  0  0  0
 38 47  1  0  0  0
 39 64  1  0  0  0
 39 67  2  0  0  0
 40 52  1  0  0  0
 40 53  2  0  0  0
 40 58  1  0  0  0
 41107  1  0  0  0
 41108  1  0  0  0
 41109  1  0  0  0
 41 48  1  0  0  0
 42 43  1  0  0  0
 42 66  1  0  0  0
 42110  1  0  0  0
 42111  1  0  0  0
 43 44  1  0  0  0
 44112  1  0  0  0
 45 46  2  0  0  0
 45113  1  0  0  0
 46114  1  0  0  0
 47115  1  0  0  0
 47116  1  0  0  0
 48 56  1  0  0  0
 48 65  1  0  0  0
 48117  1  0  0  0
 49 50  1  0  0  0
 49 53  1  0  0  0
 49 64  1  0  0  0
 49118  1  0  0  0
 50 51  1  0  0  0
 50119  1  0  0  0
 50120  1  0  0  0
 51 52  1  0  0  0
 51121  1  0  0  0
 51122  1  0  0  0
 52123  1  0  0  0
 52124  1  0  0  0
 53 54  1  0  0  0
 54 55  2  0  0  0
 54125  1  0  0  0
 55 57  1  0  0  0
 55126  1  0  0  0
 56 69  2  0  0  0
 57 58  2  0  0  0
 57127  1  0  0  0
 58128  1  0  0  0
 59 60  1  0  0  0
 59 61  1  0  0  0
 59 62  1  0  0  0
 60129  1  0  0  0
 60130  1  0  0  0
 60131  1  0  0  0
 61132  1  0  0  0
 61133  1  0  0  0
 61134  1  0  0  0
 62135  1  0  0  0
 62136  1  0  0  0
 62137  1  0  0  0
 63 65  1  0  0  0
 63138  1  0  0  0
 63139  1  0  0  0
 63140  1  0  0  0
 64141  1  0  0  0
 65142  1  0  0  0
 68 74  1  0  0  0
 71 73  2  0  0  0
 71 80  1  0  0  0
 71143  1  0  0  0
 72 74  1  0  0  0
 72 79  2  0  0  0
 72144  1  0  0  0
 73 79  1  0  0  0
 73 82  1  0  0  0
 74 80  2  0  0  0
 75 77  1  0  0  0
 75 81  1  0  0  0
 75145  1  0  0  0
 75146  1  0  0  0
 76 78  1  0  0  0
 76 81  1  0  0  0
 76147  1  0  0  0
 76148  1  0  0  0
 77 78  1  0  0  0
 77 82  1  0  0  0
 77149  1  0  0  0
 78 83  1  0  0  0
 78150  1  0  0  0
 82151  1  0  0  0
 83152  1  0  0  0
 83153  1  0  0  0
 83154  1  0  0  0
M  CHG  1  83   1
M  ISO  4   1 100  68 101  74 101  81 100
M  END
> <chiral flag>
0

> <version>
0

> <s_m_source_file>
/data/baiqing/PycharmProjects/Reinvent-master-3.2/result/LINK_invent/BTK/process_docking_weight1_custom_sum_contain_oxygen_bond_distance_aromatic_linkinvent_7_9_3/rearranged_h_0183.sdf

> <i_m_source_file_index>
91

> <r_mmod_Potential_Energy-OPLS-2005>
499.150421142578

> <r_mmod_Stretch_Energy-OPLS-2005>
248.01416015625

> <r_mmod_Bend_Energy-OPLS-2005>
347.509887695312

> <r_mmod_Torsional_Energy-OPLS-2005>
381.077026367188

> <r_mmod_Improper_Torsional_Energy-OPLS-2005>
21.2155857086182

> <r_mmod_Van_der_Waal_Energy-OPLS-2005>
126.360702514648

> <r_mmod_Electrostatic_Energy-OPLS-2005>
-365.537567138672

> <r_mmod_Solvation_Energy-OPLS-2005>
-484.917846679688

> <b_mmod_Minimization_Converged-OPLS-2005>
0

> <r_mmod_RMS_Derivative-OPLS-2005>
3.19713830947876

$$$$
92
                    3D
 Structure written by MMmdl.
144152  0  0  1  0            999 V2000
  -30.1728  -16.1227   20.2904 C   0  0  0  0  0  0
  -30.3674  -13.4633   19.5206 C   0  0  0  0  0  0
  -29.5553  -12.7890   18.3640 C   0  0  0  0  0  0
  -28.1769  -12.3258   18.8420 C   0  0  0  0  0  0
  -27.5782  -13.3661   19.8065 C   0  0  2  0  0  0
  -28.5611  -13.9226   20.8816 C   0  0  0  0  0  0
  -25.2238  -13.8382   20.5893 C   0  0  0  0  0  0
  -24.1684  -13.0450   20.9327 C   0  0  0  0  0  0
  -24.6464  -11.6987   20.8763 C   0  0  0  0  0  0
  -23.9177  -10.4304   21.0373 C   0  0  0  0  0  0
  -24.3692   -9.4213   21.9166 C   0  0  0  0  0  0
  -23.6336   -8.2262   22.0750 C   0  0  0  0  0  0
  -22.4314   -8.0302   21.3544 C   0  0  0  0  0  0
  -21.9973   -9.0278   20.4639 C   0  0  0  0  0  0
  -22.7333  -10.2142   20.3034 C   0  0  0  0  0  0
  -21.6867   -6.0750   22.5278 C   0  0  0  0  0  0
  -21.4030   -6.5648   23.8214 C   0  0  0  0  0  0
  -21.3668   -5.6797   24.9173 C   0  0  0  0  0  0
  -21.6043   -4.3059   24.7221 C   0  0  0  0  0  0
  -21.8815   -3.8155   23.4340 C   0  0  0  0  0  0
  -21.9194   -4.6975   22.3398 C   0  0  0  0  0  0
  -22.7677  -13.5129   21.1937 C   0  0  0  0  0  0
  -22.1658   -4.2160   21.0974 F   0  0  0  0  0  0
  -21.5626   -3.4539   25.7732 F   0  0  0  0  0  0
  -29.6425  -14.6964   20.1764 N   0  0  0  0  0  0
  -26.2761  -12.9830   20.3348 N   0  0  0  0  0  0
  -25.9437  -11.6832   20.5690 N   0  0  0  0  0  0
  -22.0355  -12.8093   22.0487 N   0  0  0  0  0  0
  -25.3746  -15.2136   20.4353 N   0  0  0  0  0  0
  -31.4106  -15.8849   20.2529 O   0  0  0  0  0  0
  -21.6662   -6.8904   21.4245 O   0  0  0  0  0  0
  -22.3333  -14.5416   20.6760 O   0  0  0  0  0  0
  -24.7153  -31.7614   23.1237 C   0  0  0  0  0  0
  -25.9572  -32.4279   23.7910 C   0  0  1  0  0  0
  -27.2387  -26.3703   20.2462 C   0  0  0  0  0  0
  -25.6012  -33.8123   24.1759 N   0  0  0  0  0  0
  -23.5563  -30.3481   21.4862 C   0  0  2  0  0  0
  -25.0156  -28.6177   20.1298 C   0  0  0  0  0  0
  -22.7908  -29.4110   22.4628 C   0  0  0  0  0  0
  -18.0362  -28.1437   22.8439 C   0  0  0  0  0  0
  -24.1499  -36.7076   23.2661 C   0  0  0  0  0  0
  -26.1494  -30.3847   21.4374 C   0  0  0  0  0  0
  -26.2108  -28.9117   20.7951 C   0  0  0  0  0  0
  -27.2909  -27.8280   20.8087 C   0  0  0  0  0  0
  -26.0062  -26.3703   19.5177 C   0  0  0  0  0  0
  -24.9723  -27.3764   19.4652 C   0  0  0  0  0  0
  -23.8280  -29.6138   20.1365 C   0  0  0  0  0  0
  -25.4160  -36.2786   24.0258 C   0  0  1  0  0  0
  -20.6011  -28.3812   23.1085 C   0  0  2  0  0  0
  -20.6812  -26.9442   22.5410 C   0  0  0  0  0  0
  -19.5793  -26.6360   21.5222 C   0  0  0  0  0  0
  -18.1975  -26.7958   22.1615 C   0  0  0  0  0  0
  -19.1634  -28.8956   23.2733 C   0  0  0  0  0  0
  -18.9531  -30.1532   23.8793 C   0  0  0  0  0  0
  -17.6514  -30.6610   24.0541 C   0  0  0  0  0  0
  -25.9158  -34.9185   23.4872 C   0  0  0  0  0  0
  -16.5404  -29.9085   23.6357 C   0  0  0  0  0  0
  -16.7338  -28.6509   23.0372 C   0  0  0  0  0  0
  -26.4642  -31.6457   25.0671 C   0  0  0  0  0  0
  -25.3620  -31.3868   26.1223 C   0  0  0  0  0  0
  -27.0625  -30.2762   24.6806 C   0  0  0  0  0  0
  -27.6030  -32.4396   25.7507 C   0  0  0  0  0  0
  -27.5556  -37.1693   24.8463 C   0  0  0  0  0  0
  -21.4525  -29.2994   22.3372 N   0  0  0  0  0  0
  -26.4259  -37.3582   23.9406 N   0  0  0  0  0  0
  -24.8347  -30.8728   22.0676 N   0  0  0  0  0  0
  -23.4198  -28.7766   23.3125 O   0  0  0  0  0  0
  -28.1709  -25.0079   20.2958 O   0  0  0  0  0  0
  -26.5848  -34.8828   22.4522 O   0  0  0  0  0  0
  -23.6101  -32.0841   23.5983 O   0  0  0  0  0  0
  -28.7025  -19.1735   19.9203 C   0  0  0  0  0  0
  -30.4754  -18.8382   21.0640 C   0  0  0  0  0  0
  -28.9799  -21.1103   20.2021 C   0  0  1  0  0  0
  -29.8653  -20.3939   21.3355 C   0  0  1  0  0  0
  -28.0788  -23.0750   20.2507 C   0  0  0  0  0  0
  -29.6367  -17.7158   20.4268 N   0  0  0  0  0  0
  -29.1077  -20.3199   22.4316 F   0  0  0  0  0  0
  -31.3147  -13.7838   19.0858 H   0  0  0  0  0  0
  -30.6567  -12.7251   20.2708 H   0  0  0  0  0  0
  -30.1112  -11.9503   17.9426 H   0  0  0  0  0  0
  -29.4303  -13.5107   17.5554 H   0  0  0  0  0  0
  -28.2973  -11.3763   19.3651 H   0  0  0  0  0  0
  -27.5131  -12.1378   17.9971 H   0  0  0  0  0  0
  -27.3687  -14.2124   19.1503 H   0  0  0  0  0  0
  -28.9390  -13.1369   21.5377 H   0  0  0  0  0  0
  -28.0351  -14.6206   21.5340 H   0  0  0  0  0  0
  -25.2827   -9.5681   22.4758 H   0  0  0  0  0  0
  -24.0026   -7.4658   22.7483 H   0  0  0  0  0  0
  -21.0899   -8.8815   19.8948 H   0  0  0  0  0  0
  -22.3792  -10.9683   19.6144 H   0  0  0  0  0  0
  -21.2034   -7.6158   23.9724 H   0  0  0  0  0  0
  -21.1493   -6.0524   25.9078 H   0  0  0  0  0  0
  -22.0585   -2.7617   23.2835 H   0  0  0  0  0  0
  -22.4018  -11.9790   22.4903 H   0  0  0  0  0  0
  -21.0950  -13.1062   22.2670 H   0  0  0  0  0  0
  -24.6022  -15.8592   20.5594 H   0  0  0  0  0  0
  -26.2251  -15.6671   20.1267 H   0  0  0  0  0  0
  -26.7692  -32.4671   23.0646 H   0  0  0  0  0  0
  -25.0009  -33.9103   24.9815 H   0  0  0  0  0  0
  -22.9005  -31.1937   21.2676 H   0  0  0  0  0  0
  -23.3785  -35.9378   23.3240 H   0  0  0  0  0  0
  -24.3558  -36.8843   22.2093 H   0  0  0  0  0  0
  -23.7241  -37.6212   23.6821 H   0  0  0  0  0  0
  -26.3846  -31.0859   20.6354 H   0  0  0  0  0  0
  -26.9890  -30.4657   22.1145 H   0  0  0  0  0  0
  -28.1861  -28.0764   21.3615 H   0  0  0  0  0  0
  -25.7852  -25.4558   18.9860 H   0  0  0  0  0  0
  -24.0811  -27.1361   18.9018 H   0  0  0  0  0  0
  -24.0305  -30.3591   19.3666 H   0  0  0  0  0  0
  -22.9257  -29.0970   19.8051 H   0  0  0  0  0  0
  -25.1388  -36.1500   25.0747 H   0  0  0  0  0  0
  -21.0080  -28.3461   24.1216 H   0  0  0  0  0  0
  -20.5649  -26.2445   23.3701 H   0  0  0  0  0  0
  -21.6672  -26.7335   22.1244 H   0  0  0  0  0  0
  -19.6942  -25.6242   21.1322 H   0  0  0  0  0  0
  -19.6746  -27.3112   20.6707 H   0  0  0  0  0  0
  -17.4247  -26.6704   21.4015 H   0  0  0  0  0  0
  -18.0347  -26.0126   22.9033 H   0  0  0  0  0  0
  -19.8005  -30.7375   24.2119 H   0  0  0  0  0  0
  -17.5062  -31.6278   24.5166 H   0  0  0  0  0  0
  -15.5399  -30.2950   23.7742 H   0  0  0  0  0  0
  -15.8741  -28.0791   22.7145 H   0  0  0  0  0  0
  -24.5847  -30.7180   25.7507 H   0  0  0  0  0  0
  -24.8765  -32.3116   26.4347 H   0  0  0  0  0  0
  -25.7713  -30.9221   27.0201 H   0  0  0  0  0  0
  -26.3399  -29.6277   24.1844 H   0  0  0  0  0  0
  -27.3969  -29.7341   25.5662 H   0  0  0  0  0  0
  -27.9410  -30.3819   24.0440 H   0  0  0  0  0  0
  -27.2531  -33.3807   26.1762 H   0  0  0  0  0  0
  -28.4000  -32.6783   25.0452 H   0  0  0  0  0  0
  -28.0524  -31.8749   26.5685 H   0  0  0  0  0  0
  -28.2515  -38.0040   24.7513 H   0  0  0  0  0  0
  -28.1109  -36.2557   24.6285 H   0  0  0  0  0  0
  -27.2271  -37.1314   25.8864 H   0  0  0  0  0  0
  -20.9909  -29.8600   21.6345 H   0  0  0  0  0  0
  -26.0057  -38.2615   24.1418 H   0  0  0  0  0  0
  -28.5582  -19.0475   18.8468 H   0  0  0  0  0  0
  -27.7120  -18.9750   20.3325 H   0  0  0  0  0  0
  -31.3521  -18.9432   20.4233 H   0  0  0  0  0  0
  -30.8677  -18.4552   22.0067 H   0  0  0  0  0  0
  -29.6935  -21.3128   19.4029 H   0  0  0  0  0  0
  -30.6911  -21.0543   21.6060 H   0  0  0  0  0  0
  -27.4511  -22.9944   19.3632 H   0  0  0  0  0  0
  -27.3743  -22.9359   21.0706 H   0  0  0  0  0  0
  1 25  1  0  0  0
  1 30  2  0  0  0
  1 76  1  0  0  0
  2  3  1  0  0  0
  2 25  1  0  0  0
  2 78  1  0  0  0
  2 79  1  0  0  0
  3  4  1  0  0  0
  3 80  1  0  0  0
  3 81  1  0  0  0
  4  5  1  0  0  0
  4 82  1  0  0  0
  4 83  1  0  0  0
  5  6  1  0  0  0
  5 26  1  0  0  0
  5 84  1  0  0  0
  6 25  1  0  0  0
  6 85  1  0  0  0
  6 86  1  0  0  0
  7  8  2  0  0  0
  7 26  1  0  0  0
  7 29  1  0  0  0
  8  9  1  0  0  0
  8 22  1  0  0  0
  9 10  1  0  0  0
  9 27  2  0  0  0
 10 11  2  0  0  0
 10 15  1  0  0  0
 11 12  1  0  0  0
 11 87  1  0  0  0
 12 13  2  0  0  0
 12 88  1  0  0  0
 13 14  1  0  0  0
 13 31  1  0  0  0
 14 15  2  0  0  0
 14 89  1  0  0  0
 15 90  1  0  0  0
 16 17  2  0  0  0
 16 21  1  0  0  0
 16 31  1  0  0  0
 17 18  1  0  0  0
 17 91  1  0  0  0
 18 19  2  0  0  0
 18 92  1  0  0  0
 19 20  1  0  0  0
 19 24  1  0  0  0
 20 21  2  0  0  0
 20 93  1  0  0  0
 21 23  1  0  0  0
 22 28  1  0  0  0
 22 32  2  0  0  0
 26 27  1  0  0  0
 28 94  1  0  0  0
 28 95  1  0  0  0
 29 96  1  0  0  0
 29 97  1  0  0  0
 33 34  1  0  0  0
 33 66  1  0  0  0
 33 70  2  0  0  0
 34 36  1  0  0  0
 34 59  1  0  0  0
 34 98  1  0  0  0
 35 44  2  0  0  0
 35 45  1  0  0  0
 35 68  1  0  0  0
 36 56  1  0  0  0
 36 99  1  0  0  0
 37 39  1  0  0  0
 37 47  1  0  0  0
 37 66  1  0  0  0
 37100  1  0  0  0
 38 43  2  0  0  0
 38 46  1  0  0  0
 38 47  1  0  0  0
 39 64  1  0  0  0
 39 67  2  0  0  0
 40 52  1  0  0  0
 40 53  2  0  0  0
 40 58  1  0  0  0
 41101  1  0  0  0
 41102  1  0  0  0
 41103  1  0  0  0
 41 48  1  0  0  0
 42 43  1  0  0  0
 42 66  1  0  0  0
 42104  1  0  0  0
 42105  1  0  0  0
 43 44  1  0  0  0
 44106  1  0  0  0
 45 46  2  0  0  0
 45107  1  0  0  0
 46108  1  0  0  0
 47109  1  0  0  0
 47110  1  0  0  0
 48 56  1  0  0  0
 48 65  1  0  0  0
 48111  1  0  0  0
 49 50  1  0  0  0
 49 53  1  0  0  0
 49 64  1  0  0  0
 49112  1  0  0  0
 50 51  1  0  0  0
 50113  1  0  0  0
 50114  1  0  0  0
 51 52  1  0  0  0
 51115  1  0  0  0
 51116  1  0  0  0
 52117  1  0  0  0
 52118  1  0  0  0
 53 54  1  0  0  0
 54 55  2  0  0  0
 54119  1  0  0  0
 55 57  1  0  0  0
 55120  1  0  0  0
 56 69  2  0  0  0
 57 58  2  0  0  0
 57121  1  0  0  0
 58122  1  0  0  0
 59 60  1  0  0  0
 59 61  1  0  0  0
 59 62  1  0  0  0
 60123  1  0  0  0
 60124  1  0  0  0
 60125  1  0  0  0
 61126  1  0  0  0
 61127  1  0  0  0
 61128  1  0  0  0
 62129  1  0  0  0
 62130  1  0  0  0
 62131  1  0  0  0
 63 65  1  0  0  0
 63132  1  0  0  0
 63133  1  0  0  0
 63134  1  0  0  0
 64135  1  0  0  0
 65136  1  0  0  0
 68 75  1  0  0  0
 71 73  1  0  0  0
 71 76  1  0  0  0
 71137  1  0  0  0
 71138  1  0  0  0
 72 74  1  0  0  0
 72 76  1  0  0  0
 72139  1  0  0  0
 72140  1  0  0  0
 73 74  1  0  0  0
 73 75  1  0  0  0
 73141  1  0  0  0
 74 77  1  0  0  0
 74142  1  0  0  0
 75143  1  0  0  0
 75144  1  0  0  0
M  ISO  4   1 100  68 101  75 101  76 100
M  END
> <chiral flag>
0

> <version>
0

> <s_m_source_file>
/data/baiqing/PycharmProjects/Reinvent-master-3.2/result/LINK_invent/BTK/process_docking_weight1_custom_sum_contain_oxygen_bond_distance_aromatic_linkinvent_7_9_3/rearranged_h_0183.sdf

> <i_m_source_file_index>
92

> <r_mmod_Potential_Energy-OPLS-2005>
4702.87841796875

> <r_mmod_Stretch_Energy-OPLS-2005>
1932.38073730469

> <r_mmod_Bend_Energy-OPLS-2005>
1082.03295898438

> <r_mmod_Torsional_Energy-OPLS-2005>
335.870422363281

> <r_mmod_Improper_Torsional_Energy-OPLS-2005>
4.41508150100708

> <r_mmod_Van_der_Waal_Energy-OPLS-2005>
114.785194396973

> <r_mmod_Electrostatic_Energy-OPLS-2005>
-300.119445800781

> <r_mmod_Solvation_Energy-OPLS-2005>
-213.852066040039

> <b_mmod_Minimization_Converged-OPLS-2005>
0

> <r_mmod_RMS_Derivative-OPLS-2005>
0.472532510757446

$$$$
93
                    3D
 Structure written by MMmdl.
151160  0  0  1  0            999 V2000
  -30.5056  -15.0443   20.4066 C   0  0  0  0  0  0
  -30.4475  -12.6566   19.5032 C   0  0  0  0  0  0
  -29.5297  -12.5477   18.2614 C   0  0  0  0  0  0
  -28.0629  -12.3227   18.6783 C   0  0  0  0  0  0
  -27.6256  -13.2597   19.8338 C   0  0  2  0  0  0
  -28.6687  -13.3152   20.9688 C   0  0  0  0  0  0
  -25.2430  -13.8215   20.5705 C   0  0  0  0  0  0
  -24.1775  -13.0429   20.9253 C   0  0  0  0  0  0
  -24.6413  -11.6918   20.8773 C   0  0  0  0  0  0
  -23.9097  -10.4285   21.0391 C   0  0  0  0  0  0
  -24.3633   -9.4209   21.9176 C   0  0  0  0  0  0
  -23.6303   -8.2245   22.0749 C   0  0  0  0  0  0
  -22.4286   -8.0283   21.3538 C   0  0  0  0  0  0
  -21.9922   -9.0257   20.4638 C   0  0  0  0  0  0
  -22.7255  -10.2131   20.3048 C   0  0  0  0  0  0
  -21.6844   -6.0744   22.5286 C   0  0  0  0  0  0
  -21.4003   -6.5639   23.8222 C   0  0  0  0  0  0
  -21.3673   -5.6787   24.9181 C   0  0  0  0  0  0
  -21.6053   -4.3055   24.7227 C   0  0  0  0  0  0
  -21.8816   -3.8149   23.4343 C   0  0  0  0  0  0
  -21.9189   -4.6968   22.3405 C   0  0  0  0  0  0
  -22.7791  -13.5190   21.1897 C   0  0  0  0  0  0
  -22.1646   -4.2157   21.0981 F   0  0  0  0  0  0
  -21.5648   -3.4537   25.7736 F   0  0  0  0  0  0
  -29.9291  -13.7651   20.3627 N   0  0  0  0  0  0
  -26.2876  -12.9477   20.3220 N   0  0  0  0  0  0
  -25.9352  -11.6595   20.5732 N   0  0  0  0  0  0
  -22.0413  -12.8202   22.0453 N   0  0  0  0  0  0
  -25.4051  -15.1949   20.4082 N   0  0  0  0  0  0
  -31.7171  -15.0956   20.1642 O   0  0  0  0  0  0
  -21.6639   -6.8888   21.4247 O   0  0  0  0  0  0
  -22.3480  -14.5489   20.6719 O   0  0  0  0  0  0
  -24.6485  -31.8385   23.1821 C   0  0  0  0  0  0
  -25.9226  -32.4672   23.8243 C   0  0  1  0  0  0
  -27.2184  -27.0656   20.1647 C   0  0  0  0  0  0
  -25.5943  -33.8486   24.2149 N   0  0  0  0  0  0
  -23.4572  -30.4543   21.5296 C   0  0  2  0  0  0
  -24.9085  -28.8705   20.1111 C   0  0  0  0  0  0
  -22.7604  -29.4504   22.4844 C   0  0  0  0  0  0
  -18.0300  -28.1402   22.8476 C   0  0  0  0  0  0
  -24.1488  -36.7264   23.2642 C   0  0  0  0  0  0
  -26.0177  -30.6885   21.3928 C   0  0  0  0  0  0
  -26.0866  -29.2915   20.7395 C   0  0  0  0  0  0
  -27.2385  -28.4067   20.7488 C   0  0  0  0  0  0
  -26.0162  -26.7715   19.4825 C   0  0  0  0  0  0
  -24.8922  -27.6270   19.4631 C   0  0  0  0  0  0
  -23.6880  -29.7800   20.1505 C   0  0  0  0  0  0
  -25.4122  -36.3021   24.0300 C   0  0  1  0  0  0
  -20.5922  -28.3739   23.1231 C   0  0  2  0  0  0
  -20.6799  -26.9439   22.5419 C   0  0  0  0  0  0
  -19.5775  -26.6372   21.5235 C   0  0  0  0  0  0
  -18.1950  -26.7934   22.1631 C   0  0  0  0  0  0
  -19.1561  -28.8888   23.2834 C   0  0  0  0  0  0
  -18.9474  -30.1483   23.8857 C   0  0  0  0  0  0
  -17.6471  -30.6592   24.0568 C   0  0  0  0  0  0
  -25.9080  -34.9399   23.5040 C   0  0  0  0  0  0
  -16.5357  -29.9091   23.6341 C   0  0  0  0  0  0
  -16.7283  -28.6515   23.0348 C   0  0  0  0  0  0
  -26.4509  -31.6560   25.0716 C   0  0  0  0  0  0
  -25.3659  -31.3804   26.1392 C   0  0  0  0  0  0
  -27.0373  -30.2932   24.6350 C   0  0  0  0  0  0
  -27.6011  -32.4343   25.7529 C   0  0  0  0  0  0
  -27.5565  -37.1789   24.8453 C   0  0  0  0  0  0
  -21.4287  -29.3049   22.3605 N   0  0  0  0  0  0
  -26.4273  -37.3741   23.9399 N   0  0  0  0  0  0
  -24.7279  -31.0168   22.0895 N   0  0  0  0  0  0
  -23.4222  -28.8046   23.3016 O   0  0  0  0  0  0
  -28.2668  -26.0510   20.2376 O   0  0  0  0  0  0
  -26.5682  -34.8913   22.4629 O   0  0  0  0  0  0
  -23.5585  -32.1293   23.6989 O   0  0  0  0  0  0
  -29.3351  -18.5299   21.6659 C   0  0  0  0  0  0
  -28.3235  -23.3272   21.1808 C   0  0  0  0  0  0
  -29.0958  -23.4662   19.3776 C   0  0  0  0  0  0
  -29.1509  -19.2790   20.3754 C   0  0  2  0  0  0
  -30.0411  -17.8009   20.5420 C   0  0  2  0  0  0
  -28.0622  -24.4742   20.0788 C   0  0  2  0  0  0
  -29.5579  -20.9445   20.3959 C   0  0  0  0  0  0
  -29.7149  -16.2450   20.5329 N   0  0  0  0  0  0
  -28.6100  -22.2335   20.1451 N   0  3  1  0  0  0
  -31.4749  -12.8422   19.1866 H   0  0  0  0  0  0
  -30.4768  -11.7163   20.0552 H   0  0  0  0  0  0
  -29.8654  -11.7399   17.6104 H   0  0  0  0  0  0
  -29.6062  -13.4639   17.6731 H   0  0  0  0  0  0
  -27.9678  -11.2829   18.9911 H   0  0  0  0  0  0
  -27.3998  -12.4418   17.8205 H   0  0  0  0  0  0
  -27.5775  -14.2568   19.3960 H   0  0  0  0  0  0
  -28.7774  -12.3382   21.4415 H   0  0  0  0  0  0
  -28.3594  -14.0084   21.7528 H   0  0  0  0  0  0
  -25.2766   -9.5688   22.4761 H   0  0  0  0  0  0
  -24.0007   -7.4637   22.7467 H   0  0  0  0  0  0
  -21.0854   -8.8788   19.8936 H   0  0  0  0  0  0
  -22.3715  -10.9680   19.6167 H   0  0  0  0  0  0
  -21.1977   -7.6143   23.9730 H   0  0  0  0  0  0
  -21.1498   -6.0514   25.9091 H   0  0  0  0  0  0
  -22.0582   -2.7611   23.2842 H   0  0  0  0  0  0
  -22.3983  -11.9898   22.4952 H   0  0  0  0  0  0
  -21.1005  -13.1221   22.2541 H   0  0  0  0  0  0
  -24.6298  -15.8395   20.5202 H   0  0  0  0  0  0
  -26.2367  -15.6370   20.0397 H   0  0  0  0  0  0
  -26.7298  -32.5262   23.0975 H   0  0  0  0  0  0
  -25.0046  -33.9629   25.0263 H   0  0  0  0  0  0
  -22.7632  -31.2824   21.3698 H   0  0  0  0  0  0
  -23.3745  -35.9600   23.3287 H   0  0  0  0  0  0
  -24.3576  -36.8935   22.2064 H   0  0  0  0  0  0
  -23.7256  -37.6453   23.6706 H   0  0  0  0  0  0
  -26.1738  -31.4336   20.6105 H   0  0  0  0  0  0
  -26.8876  -30.7488   22.0345 H   0  0  0  0  0  0
  -28.1318  -28.7261   21.2662 H   0  0  0  0  0  0
  -25.9059  -25.8391   18.9549 H   0  0  0  0  0  0
  -24.0003  -27.3049   18.9432 H   0  0  0  0  0  0
  -23.8257  -30.5527   19.3934 H   0  0  0  0  0  0
  -22.8013  -29.2232   19.8403 H   0  0  0  0  0  0
  -25.1309  -36.1844   25.0787 H   0  0  0  0  0  0
  -20.9990  -28.3327   24.1361 H   0  0  0  0  0  0
  -20.5719  -26.2351   23.3651 H   0  0  0  0  0  0
  -21.6665  -26.7465   22.1208 H   0  0  0  0  0  0
  -19.6943  -25.6271   21.1297 H   0  0  0  0  0  0
  -19.6704  -27.3159   20.6754 H   0  0  0  0  0  0
  -17.4226  -26.6677   21.4029 H   0  0  0  0  0  0
  -18.0338  -26.0091   22.9039 H   0  0  0  0  0  0
  -19.7946  -30.7322   24.2210 H   0  0  0  0  0  0
  -17.5013  -31.6273   24.5173 H   0  0  0  0  0  0
  -15.5357  -30.2975   23.7685 H   0  0  0  0  0  0
  -15.8689  -28.0832   22.7063 H   0  0  0  0  0  0
  -24.5837  -30.7150   25.7717 H   0  0  0  0  0  0
  -24.8852  -32.3018   26.4688 H   0  0  0  0  0  0
  -25.7907  -30.9061   27.0252 H   0  0  0  0  0  0
  -26.3004  -29.6647   24.1328 H   0  0  0  0  0  0
  -27.3913  -29.7241   25.4958 H   0  0  0  0  0  0
  -27.8948  -30.4133   23.9729 H   0  0  0  0  0  0
  -27.2558  -33.3659   26.2031 H   0  0  0  0  0  0
  -28.3871  -32.6880   25.0403 H   0  0  0  0  0  0
  -28.0610  -31.8516   26.5524 H   0  0  0  0  0  0
  -28.2551  -38.0106   24.7488 H   0  0  0  0  0  0
  -28.1082  -36.2632   24.6274 H   0  0  0  0  0  0
  -27.2293  -37.1438   25.8857 H   0  0  0  0  0  0
  -20.9506  -29.8784   21.6794 H   0  0  0  0  0  0
  -26.0130  -38.2804   24.1393 H   0  0  0  0  0  0
  -28.4319  -18.0856   22.0786 H   0  0  0  0  0  0
  -29.9807  -18.9752   22.4214 H   0  0  0  0  0  0
  -27.4533  -23.1022   21.7978 H   0  0  0  0  0  0
  -29.1829  -23.5351   21.8229 H   0  0  0  0  0  0
  -30.1396  -23.7073   19.5989 H   0  0  0  0  0  0
  -28.9664  -23.3760   18.2991 H   0  0  0  0  0  0
  -28.2190  -19.1222   19.8342 H   0  0  0  0  0  0
  -31.1079  -17.9862   20.4300 H   0  0  0  0  0  0
  -27.0775  -24.2880   19.6558 H   0  0  0  0  0  0
  -30.3337  -21.0405   19.6355 H   0  0  0  0  0  0
  -30.0867  -21.1359   21.3292 H   0  0  0  0  0  0
  -28.7361  -16.0375   20.6553 H   0  0  0  0  0  0
  -27.7458  -21.9273   19.7251 H   0  0  0  0  0  0
  1 25  1  0  0  0
  1 30  2  0  0  0
  1 78  1  0  0  0
  2  3  1  0  0  0
  2 25  1  0  0  0
  2 80  1  0  0  0
  2 81  1  0  0  0
  3  4  1  0  0  0
  3 82  1  0  0  0
  3 83  1  0  0  0
  4  5  1  0  0  0
  4 84  1  0  0  0
  4 85  1  0  0  0
  5  6  1  0  0  0
  5 26  1  0  0  0
  5 86  1  0  0  0
  6 25  1  0  0  0
  6 87  1  0  0  0
  6 88  1  0  0  0
  7  8  2  0  0  0
  7 26  1  0  0  0
  7 29  1  0  0  0
  8  9  1  0  0  0
  8 22  1  0  0  0
  9 10  1  0  0  0
  9 27  2  0  0  0
 10 11  2  0  0  0
 10 15  1  0  0  0
 11 12  1  0  0  0
 11 89  1  0  0  0
 12 13  2  0  0  0
 12 90  1  0  0  0
 13 14  1  0  0  0
 13 31  1  0  0  0
 14 15  2  0  0  0
 14 91  1  0  0  0
 15 92  1  0  0  0
 16 17  2  0  0  0
 16 21  1  0  0  0
 16 31  1  0  0  0
 17 18  1  0  0  0
 17 93  1  0  0  0
 18 19  2  0  0  0
 18 94  1  0  0  0
 19 20  1  0  0  0
 19 24  1  0  0  0
 20 21  2  0  0  0
 20 95  1  0  0  0
 21 23  1  0  0  0
 22 28  1  0  0  0
 22 32  2  0  0  0
 26 27  1  0  0  0
 28 96  1  0  0  0
 28 97  1  0  0  0
 29 98  1  0  0  0
 29 99  1  0  0  0
 33 34  1  0  0  0
 33 66  1  0  0  0
 33 70  2  0  0  0
 34 36  1  0  0  0
 34 59  1  0  0  0
 34100  1  0  0  0
 35 44  2  0  0  0
 35 45  1  0  0  0
 35 68  1  0  0  0
 36 56  1  0  0  0
 36101  1  0  0  0
 37 39  1  0  0  0
 37 47  1  0  0  0
 37 66  1  0  0  0
 37102  1  0  0  0
 38 43  2  0  0  0
 38 46  1  0  0  0
 38 47  1  0  0  0
 39 64  1  0  0  0
 39 67  2  0  0  0
 40 52  1  0  0  0
 40 53  2  0  0  0
 40 58  1  0  0  0
 41103  1  0  0  0
 41104  1  0  0  0
 41105  1  0  0  0
 41 48  1  0  0  0
 42 43  1  0  0  0
 42 66  1  0  0  0
 42106  1  0  0  0
 42107  1  0  0  0
 43 44  1  0  0  0
 44108  1  0  0  0
 45 46  2  0  0  0
 45109  1  0  0  0
 46110  1  0  0  0
 47111  1  0  0  0
 47112  1  0  0  0
 48 56  1  0  0  0
 48 65  1  0  0  0
 48113  1  0  0  0
 49 50  1  0  0  0
 49 53  1  0  0  0
 49 64  1  0  0  0
 49114  1  0  0  0
 50 51  1  0  0  0
 50115  1  0  0  0
 50116  1  0  0  0
 51 52  1  0  0  0
 51117  1  0  0  0
 51118  1  0  0  0
 52119  1  0  0  0
 52120  1  0  0  0
 53 54  1  0  0  0
 54 55  2  0  0  0
 54121  1  0  0  0
 55 57  1  0  0  0
 55122  1  0  0  0
 56 69  2  0  0  0
 57 58  2  0  0  0
 57123  1  0  0  0
 58124  1  0  0  0
 59 60  1  0  0  0
 59 61  1  0  0  0
 59 62  1  0  0  0
 60125  1  0  0  0
 60126  1  0  0  0
 60127  1  0  0  0
 61128  1  0  0  0
 61129  1  0  0  0
 61130  1  0  0  0
 62131  1  0  0  0
 62132  1  0  0  0
 62133  1  0  0  0
 63 65  1  0  0  0
 63134  1  0  0  0
 63135  1  0  0  0
 63136  1  0  0  0
 64137  1  0  0  0
 65138  1  0  0  0
 68 76  1  0  0  0
 71 74  1  0  0  0
 71 75  1  0  0  0
 71139  1  0  0  0
 71140  1  0  0  0
 72 76  1  0  0  0
 72 79  1  0  0  0
 72141  1  0  0  0
 72142  1  0  0  0
 73 76  1  0  0  0
 73 79  1  0  0  0
 73143  1  0  0  0
 73144  1  0  0  0
 74 75  1  0  0  0
 74 77  1  0  0  0
 74145  1  0  0  0
 75 78  1  0  0  0
 75146  1  0  0  0
 76147  1  0  0  0
 77148  1  0  0  0
 77149  1  0  0  0
 77 79  1  0  0  0
 78150  1  0  0  0
 79151  1  0  0  0
M  CHG  1  79   1
M  ISO  4   1 100  68 101  76 101  78 100
M  END
> <chiral flag>
0

> <version>
0

> <s_m_source_file>
/data/baiqing/PycharmProjects/Reinvent-master-3.2/result/LINK_invent/BTK/process_docking_weight1_custom_sum_contain_oxygen_bond_distance_aromatic_linkinvent_7_9_3/rearranged_h_0183.sdf

> <i_m_source_file_index>
93

> <r_mmod_Potential_Energy-OPLS-2005>
600.306884765625

> <r_mmod_Stretch_Energy-OPLS-2005>
357.053680419922

> <r_mmod_Bend_Energy-OPLS-2005>
345.378082275391

> <r_mmod_Torsional_Energy-OPLS-2005>
284.622039794922

> <r_mmod_Improper_Torsional_Energy-OPLS-2005>
3.81259346008301

> <r_mmod_Van_der_Waal_Energy-OPLS-2005>
117.194702148438

> <r_mmod_Electrostatic_Energy-OPLS-2005>
-276.992462158203

> <r_mmod_Solvation_Energy-OPLS-2005>
-491.708892822266

> <b_mmod_Minimization_Converged-OPLS-2005>
0

> <r_mmod_RMS_Derivative-OPLS-2005>
2.03017020225525

$$$$
94
                    3D
 Structure written by MMmdl.
167176  0  0  1  0            999 V2000
  -30.5662  -15.0306   20.4027 C   0  0  0  0  0  0
  -30.4276  -12.6558   19.4885 C   0  0  0  0  0  0
  -29.5157  -12.5244   18.2499 C   0  0  0  0  0  0
  -28.0586  -12.2913   18.6882 C   0  0  0  0  0  0
  -27.6153  -13.2612   19.8151 C   0  0  2  0  0  0
  -28.6590  -13.3738   20.9450 C   0  0  0  0  0  0
  -25.2428  -13.8263   20.5726 C   0  0  0  0  0  0
  -24.1745  -13.0473   20.9236 C   0  0  0  0  0  0
  -24.6378  -11.6964   20.8764 C   0  0  0  0  0  0
  -23.9081  -10.4321   21.0427 C   0  0  0  0  0  0
  -24.3639   -9.4225   21.9187 C   0  0  0  0  0  0
  -23.6306   -8.2258   22.0756 C   0  0  0  0  0  0
  -22.4271   -8.0308   21.3562 C   0  0  0  0  0  0
  -21.9929   -9.0288   20.4658 C   0  0  0  0  0  0
  -22.7275  -10.2153   20.3065 C   0  0  0  0  0  0
  -21.6854   -6.0752   22.5270 C   0  0  0  0  0  0
  -21.4031   -6.5638   23.8210 C   0  0  0  0  0  0
  -21.3664   -5.6778   24.9165 C   0  0  0  0  0  0
  -21.6029   -4.3038   24.7210 C   0  0  0  0  0  0
  -21.8818   -3.8152   23.4322 C   0  0  0  0  0  0
  -21.9186   -4.6983   22.3388 C   0  0  0  0  0  0
  -22.7752  -13.5226   21.1888 C   0  0  0  0  0  0
  -22.1648   -4.2166   21.0970 F   0  0  0  0  0  0
  -21.5636   -3.4520   25.7722 F   0  0  0  0  0  0
  -29.9113  -13.7958   20.3072 N   0  0  0  0  0  0
  -26.2833  -12.9509   20.3206 N   0  0  0  0  0  0
  -25.9307  -11.6624   20.5725 N   0  0  0  0  0  0
  -22.0389  -12.8221   22.0440 N   0  0  0  0  0  0
  -25.4147  -15.1994   20.4160 N   0  0  0  0  0  0
  -31.7962  -14.9660   20.2935 O   0  0  0  0  0  0
  -21.6629   -6.8906   21.4241 O   0  0  0  0  0  0
  -22.3426  -14.5522   20.6724 O   0  0  0  0  0  0
  -24.6481  -31.8395   23.1852 C   0  0  0  0  0  0
  -25.9228  -32.4679   23.8268 C   0  0  1  0  0  0
  -27.2197  -27.0904   20.1470 C   0  0  0  0  0  0
  -25.5952  -33.8491   24.2194 N   0  0  0  0  0  0
  -23.4568  -30.4588   21.5281 C   0  0  2  0  0  0
  -24.9096  -28.8808   20.1065 C   0  0  0  0  0  0
  -22.7619  -29.4522   22.4799 C   0  0  0  0  0  0
  -18.0331  -28.1410   22.8459 C   0  0  0  0  0  0
  -24.1507  -36.7250   23.2635 C   0  0  0  0  0  0
  -26.0169  -30.6983   21.3929 C   0  0  0  0  0  0
  -26.0873  -29.3046   20.7347 C   0  0  0  0  0  0
  -27.2403  -28.4240   20.7423 C   0  0  0  0  0  0
  -26.0198  -26.7920   19.4619 C   0  0  0  0  0  0
  -24.8919  -27.6397   19.4554 C   0  0  0  0  0  0
  -23.6889  -29.7892   20.1477 C   0  0  0  0  0  0
  -25.4128  -36.3020   24.0318 C   0  0  1  0  0  0
  -20.5947  -28.3723   23.1206 C   0  0  2  0  0  0
  -20.6796  -26.9411   22.5394 C   0  0  0  0  0  0
  -19.5764  -26.6383   21.5201 C   0  0  0  0  0  0
  -18.1953  -26.7955   22.1613 C   0  0  0  0  0  0
  -19.1587  -28.8891   23.2832 C   0  0  0  0  0  0
  -18.9489  -30.1490   23.8850 C   0  0  0  0  0  0
  -17.6473  -30.6584   24.0564 C   0  0  0  0  0  0
  -25.9063  -34.9386   23.5063 C   0  0  0  0  0  0
  -16.5368  -29.9064   23.6346 C   0  0  0  0  0  0
  -16.7316  -28.6508   23.0331 C   0  0  0  0  0  0
  -26.4530  -31.6562   25.0722 C   0  0  0  0  0  0
  -25.3712  -31.3737   26.1415 C   0  0  0  0  0  0
  -27.0403  -30.2965   24.6315 C   0  0  0  0  0  0
  -27.6086  -32.4309   25.7487 C   0  0  0  0  0  0
  -27.5593  -37.1769   24.8457 C   0  0  0  0  0  0
  -21.4294  -29.3041   22.3567 N   0  0  0  0  0  0
  -26.4292  -37.3731   23.9413 N   0  0  0  0  0  0
  -24.7273  -31.0221   22.0894 N   0  0  0  0  0  0
  -23.4245  -28.8051   23.2955 O   0  0  0  0  0  0
  -28.2408  -26.0593   20.2446 O   0  0  0  0  0  0
  -26.5645  -34.8884   22.4637 O   0  0  0  0  0  0
  -23.5582  -32.1263   23.7037 O   0  0  0  0  0  0
  -28.6641  -21.7782   19.8112 C   0  0  0  0  0  0
  -29.2666  -20.5818   20.4723 C   0  0  0  0  0  0
  -28.7185  -23.1516   20.3919 C   0  0  0  0  0  0
  -29.9050  -22.1263   22.1066 C   0  0  0  0  0  0
  -29.4094  -17.5629   20.8444 C   0  0  0  0  0  0
  -30.4636  -17.0191   18.8821 C   0  0  0  0  0  0
  -29.3926  -18.9818   19.9512 C   0  0  2  0  0  0
  -30.6502  -18.5608   19.1695 C   0  0  2  0  0  0
  -27.9640  -21.6286   18.4686 C   0  0  0  0  0  0
  -30.5846  -22.3182   23.4443 C   0  0  0  0  0  0
  -32.6703  -19.9629   16.1906 C   0  0  0  0  0  0
  -27.9668  -24.5517   19.8622 C   0  0  0  0  0  0
  -32.3111  -19.0719   17.3895 C   0  0  0  0  0  0
  -29.9042  -20.8729   21.6254 N   0  0  0  0  0  0
  -29.3697  -23.2292   21.5680 N   0  0  0  0  0  0
  -29.9296  -16.2906   20.0677 N   0  0  0  0  0  0
  -30.9676  -19.3550   17.9526 N   0  3  0  0  0  0
  -31.4591  -12.8083   19.1721 H   0  0  0  0  0  0
  -30.4277  -11.7320   20.0706 H   0  0  0  0  0  0
  -29.8578  -11.7104   17.6093 H   0  0  0  0  0  0
  -29.5745  -13.4337   17.6496 H   0  0  0  0  0  0
  -27.9925  -11.2639   19.0491 H   0  0  0  0  0  0
  -27.3813  -12.3575   17.8353 H   0  0  0  0  0  0
  -27.5547  -14.2408   19.3391 H   0  0  0  0  0  0
  -28.7731  -12.4292   21.4789 H   0  0  0  0  0  0
  -28.3445  -14.1196   21.6782 H   0  0  0  0  0  0
  -25.2803   -9.5671   22.4737 H   0  0  0  0  0  0
  -24.0017   -7.4627   22.7453 H   0  0  0  0  0  0
  -21.0873   -8.8817   19.8940 H   0  0  0  0  0  0
  -22.3777  -10.9684   19.6138 H   0  0  0  0  0  0
  -21.2046   -7.6143   23.9729 H   0  0  0  0  0  0
  -21.1483   -6.0498   25.9065 H   0  0  0  0  0  0
  -22.0599   -2.7616   23.2801 H   0  0  0  0  0  0
  -22.3988  -11.9915   22.4896 H   0  0  0  0  0  0
  -21.0998  -13.1251   22.2617 H   0  0  0  0  0  0
  -24.6610  -15.8663   20.5424 H   0  0  0  0  0  0
  -26.2778  -15.6318   20.1115 H   0  0  0  0  0  0
  -26.7294  -32.5282   23.0999 H   0  0  0  0  0  0
  -25.0118  -33.9600   25.0357 H   0  0  0  0  0  0
  -22.7610  -31.2855   21.3706 H   0  0  0  0  0  0
  -23.3772  -35.9579   23.3253 H   0  0  0  0  0  0
  -24.3607  -36.8918   22.2061 H   0  0  0  0  0  0
  -23.7258  -37.6431   23.6701 H   0  0  0  0  0  0
  -26.1781  -31.4477   20.6163 H   0  0  0  0  0  0
  -26.8844  -30.7523   22.0383 H   0  0  0  0  0  0
  -28.1318  -28.7328   21.2698 H   0  0  0  0  0  0
  -25.9101  -25.8542   18.9412 H   0  0  0  0  0  0
  -23.9968  -27.3150   18.9428 H   0  0  0  0  0  0
  -23.8314  -30.5629   19.3911 H   0  0  0  0  0  0
  -22.8041  -29.2343   19.8340 H   0  0  0  0  0  0
  -25.1320  -36.1835   25.0810 H   0  0  0  0  0  0
  -21.0068  -28.3300   24.1315 H   0  0  0  0  0  0
  -20.5667  -26.2319   23.3601 H   0  0  0  0  0  0
  -21.6660  -26.7377   22.1201 H   0  0  0  0  0  0
  -19.6892  -25.6283   21.1248 H   0  0  0  0  0  0
  -19.6723  -27.3168   20.6710 H   0  0  0  0  0  0
  -17.4221  -26.6711   21.4016 H   0  0  0  0  0  0
  -18.0336  -26.0121   22.9028 H   0  0  0  0  0  0
  -19.7951  -30.7352   24.2177 H   0  0  0  0  0  0
  -17.5006  -31.6256   24.5177 H   0  0  0  0  0  0
  -15.5356  -30.2928   23.7720 H   0  0  0  0  0  0
  -15.8727  -28.0829   22.7017 H   0  0  0  0  0  0
  -24.5910  -30.7065   25.7729 H   0  0  0  0  0  0
  -24.8869  -32.2899   26.4803 H   0  0  0  0  0  0
  -25.7994  -30.8939   27.0226 H   0  0  0  0  0  0
  -26.3016  -29.6670   24.1340 H   0  0  0  0  0  0
  -27.4030  -29.7296   25.4899 H   0  0  0  0  0  0
  -27.8928  -30.4224   23.9638 H   0  0  0  0  0  0
  -27.2739  -33.3650   26.2012 H   0  0  0  0  0  0
  -28.3921  -32.6784   25.0311 H   0  0  0  0  0  0
  -28.0730  -31.8447   26.5427 H   0  0  0  0  0  0
  -28.2567  -38.0106   24.7537 H   0  0  0  0  0  0
  -28.1131  -36.2632   24.6244 H   0  0  0  0  0  0
  -27.2313  -37.1373   25.8855 H   0  0  0  0  0  0
  -20.9487  -29.8790   21.6786 H   0  0  0  0  0  0
  -26.0151  -38.2795   24.1414 H   0  0  0  0  0  0
  -28.4168  -17.3673   21.2494 H   0  0  0  0  0  0
  -30.0610  -17.6991   21.7097 H   0  0  0  0  0  0
  -31.3987  -16.5926   18.5198 H   0  0  0  0  0  0
  -29.7422  -16.8776   18.0758 H   0  0  0  0  0  0
  -28.5417  -18.8645   19.2828 H   0  0  0  0  0  0
  -31.4955  -18.6886   19.8500 H   0  0  0  0  0  0
  -28.5484  -22.1200   17.6892 H   0  0  0  0  0  0
  -26.9820  -22.1022   18.4886 H   0  0  0  0  0  0
  -27.8164  -20.5907   18.1723 H   0  0  0  0  0  0
  -31.6354  -22.0368   23.3835 H   0  0  0  0  0  0
  -30.1028  -21.7051   24.2061 H   0  0  0  0  0  0
  -30.5353  -23.3560   23.7749 H   0  0  0  0  0  0
  -33.6555  -19.6931   15.8083 H   0  0  0  0  0  0
  -32.7103  -21.0175   16.4627 H   0  0  0  0  0  0
  -31.9599  -19.8455   15.3706 H   0  0  0  0  0  0
  -26.9296  -24.3547   20.1239 H   0  0  0  0  0  0
  -27.9999  -24.5109   18.7733 H   0  0  0  0  0  0
  -33.0647  -19.2008   18.1687 H   0  0  0  0  0  0
  -32.3616  -18.0285   17.0718 H   0  0  0  0  0  0
  -30.9511  -20.3315   18.2026 H   0  0  0  0  0  0
  -30.2696  -19.2109   17.2408 H   0  0  0  0  0  0
  1 25  1  0  0  0
  1 30  2  0  0  0
  1 86  1  0  0  0
  2  3  1  0  0  0
  2 25  1  0  0  0
  2 88  1  0  0  0
  2 89  1  0  0  0
  3  4  1  0  0  0
  3 90  1  0  0  0
  3 91  1  0  0  0
  4  5  1  0  0  0
  4 92  1  0  0  0
  4 93  1  0  0  0
  5  6  1  0  0  0
  5 26  1  0  0  0
  5 94  1  0  0  0
  6 25  1  0  0  0
  6 95  1  0  0  0
  6 96  1  0  0  0
  7  8  2  0  0  0
  7 26  1  0  0  0
  7 29  1  0  0  0
  8  9  1  0  0  0
  8 22  1  0  0  0
  9 10  1  0  0  0
  9 27  2  0  0  0
 10 11  2  0  0  0
 10 15  1  0  0  0
 11 12  1  0  0  0
 11 97  1  0  0  0
 12 13  2  0  0  0
 12 98  1  0  0  0
 13 14  1  0  0  0
 13 31  1  0  0  0
 14 15  2  0  0  0
 14 99  1  0  0  0
 15100  1  0  0  0
 16 17  2  0  0  0
 16 21  1  0  0  0
 16 31  1  0  0  0
 17 18  1  0  0  0
 17101  1  0  0  0
 18 19  2  0  0  0
 18102  1  0  0  0
 19 20  1  0  0  0
 19 24  1  0  0  0
 20 21  2  0  0  0
 20103  1  0  0  0
 21 23  1  0  0  0
 22 28  1  0  0  0
 22 32  2  0  0  0
 26 27  1  0  0  0
 28104  1  0  0  0
 28105  1  0  0  0
 29106  1  0  0  0
 29107  1  0  0  0
 33 34  1  0  0  0
 33 66  1  0  0  0
 33 70  2  0  0  0
 34 36  1  0  0  0
 34 59  1  0  0  0
 34108  1  0  0  0
 35 44  2  0  0  0
 35 45  1  0  0  0
 35 68  1  0  0  0
 36 56  1  0  0  0
 36109  1  0  0  0
 37 39  1  0  0  0
 37 47  1  0  0  0
 37 66  1  0  0  0
 37110  1  0  0  0
 38 43  2  0  0  0
 38 46  1  0  0  0
 38 47  1  0  0  0
 39 64  1  0  0  0
 39 67  2  0  0  0
 40 52  1  0  0  0
 40 53  2  0  0  0
 40 58  1  0  0  0
 41111  1  0  0  0
 41112  1  0  0  0
 41113  1  0  0  0
 41 48  1  0  0  0
 42 43  1  0  0  0
 42 66  1  0  0  0
 42114  1  0  0  0
 42115  1  0  0  0
 43 44  1  0  0  0
 44116  1  0  0  0
 45 46  2  0  0  0
 45117  1  0  0  0
 46118  1  0  0  0
 47119  1  0  0  0
 47120  1  0  0  0
 48 56  1  0  0  0
 48 65  1  0  0  0
 48121  1  0  0  0
 49 50  1  0  0  0
 49 53  1  0  0  0
 49 64  1  0  0  0
 49122  1  0  0  0
 50 51  1  0  0  0
 50123  1  0  0  0
 50124  1  0  0  0
 51 52  1  0  0  0
 51125  1  0  0  0
 51126  1  0  0  0
 52127  1  0  0  0
 52128  1  0  0  0
 53 54  1  0  0  0
 54 55  2  0  0  0
 54129  1  0  0  0
 55 57  1  0  0  0
 55130  1  0  0  0
 56 69  2  0  0  0
 57 58  2  0  0  0
 57131  1  0  0  0
 58132  1  0  0  0
 59 60  1  0  0  0
 59 61  1  0  0  0
 59 62  1  0  0  0
 60133  1  0  0  0
 60134  1  0  0  0
 60135  1  0  0  0
 61136  1  0  0  0
 61137  1  0  0  0
 61138  1  0  0  0
 62139  1  0  0  0
 62140  1  0  0  0
 62141  1  0  0  0
 63 65  1  0  0  0
 63142  1  0  0  0
 63143  1  0  0  0
 63144  1  0  0  0
 64145  1  0  0  0
 65146  1  0  0  0
 68 82  1  0  0  0
 71 72  2  0  0  0
 71 73  1  0  0  0
 71 79  1  0  0  0
 72 84  1  0  0  0
 72 77  1  0  0  0
 73 82  1  0  0  0
 73 85  2  0  0  0
 74 80  1  0  0  0
 74 84  2  0  0  0
 74 85  1  0  0  0
 75 77  1  0  0  0
 75 86  1  0  0  0
 75147  1  0  0  0
 75148  1  0  0  0
 76 78  1  0  0  0
 76 86  1  0  0  0
 76149  1  0  0  0
 76150  1  0  0  0
 77 78  1  0  0  0
 77151  1  0  0  0
 78 87  1  0  0  0
 78152  1  0  0  0
 79153  1  0  0  0
 79154  1  0  0  0
 79155  1  0  0  0
 80156  1  0  0  0
 80157  1  0  0  0
 80158  1  0  0  0
 81 83  1  0  0  0
 81159  1  0  0  0
 81160  1  0  0  0
 81161  1  0  0  0
 82162  1  0  0  0
 82163  1  0  0  0
 83 87  1  0  0  0
 83164  1  0  0  0
 83165  1  0  0  0
 87166  1  0  0  0
 87167  1  0  0  0
M  CHG  1  87   1
M  ISO  4   1 100  68 101  82 101  86 100
M  END
> <chiral flag>
0

> <version>
0

> <s_m_source_file>
/data/baiqing/PycharmProjects/Reinvent-master-3.2/result/LINK_invent/BTK/process_docking_weight1_custom_sum_contain_oxygen_bond_distance_aromatic_linkinvent_7_9_3/rearranged_h_0183.sdf

> <i_m_source_file_index>
94

> <r_mmod_Potential_Energy-OPLS-2005>
328.660308837891

> <r_mmod_Stretch_Energy-OPLS-2005>
305.001586914062

> <r_mmod_Bend_Energy-OPLS-2005>
340.444671630859

> <r_mmod_Torsional_Energy-OPLS-2005>
332.222991943359

> <r_mmod_Improper_Torsional_Energy-OPLS-2005>
23.8194675445557

> <r_mmod_Van_der_Waal_Energy-OPLS-2005>
134.593338012695

> <r_mmod_Electrostatic_Energy-OPLS-2005>
-580.323425292969

> <r_mmod_Solvation_Energy-OPLS-2005>
-483.416107177734

> <b_mmod_Minimization_Converged-OPLS-2005>
0

> <r_mmod_RMS_Derivative-OPLS-2005>
3.41157746315002

$$$$
95
                    3D
 Structure written by MMmdl.
151160  0  0  1  0            999 V2000
  -30.5388  -15.0163   20.4122 C   0  0  0  0  0  0
  -30.4296  -12.6268   19.5266 C   0  0  0  0  0  0
  -29.5299  -12.5549   18.2713 C   0  0  0  0  0  0
  -28.0664  -12.3110   18.6860 C   0  0  0  0  0  0
  -27.6224  -13.2588   19.8299 C   0  0  2  0  0  0
  -28.6547  -13.3354   20.9763 C   0  0  0  0  0  0
  -25.2418  -13.8211   20.5657 C   0  0  0  0  0  0
  -24.1755  -13.0428   20.9201 C   0  0  0  0  0  0
  -24.6384  -11.6918   20.8702 C   0  0  0  0  0  0
  -23.9058  -10.4294   21.0368 C   0  0  0  0  0  0
  -24.3610   -9.4220   21.9149 C   0  0  0  0  0  0
  -23.6310   -8.2244   22.0730 C   0  0  0  0  0  0
  -22.4293   -8.0247   21.3513 C   0  0  0  0  0  0
  -21.9916   -9.0223   20.4625 C   0  0  0  0  0  0
  -22.7216  -10.2113   20.3037 C   0  0  0  0  0  0
  -21.6843   -6.0723   22.5274 C   0  0  0  0  0  0
  -21.4026   -6.5634   23.8212 C   0  0  0  0  0  0
  -21.3688   -5.6788   24.9167 C   0  0  0  0  0  0
  -21.6030   -4.3047   24.7215 C   0  0  0  0  0  0
  -21.8824   -3.8136   23.4343 C   0  0  0  0  0  0
  -21.9200   -4.6947   22.3394 C   0  0  0  0  0  0
  -22.7772  -13.5191   21.1859 C   0  0  0  0  0  0
  -22.1644   -4.2139   21.0969 F   0  0  0  0  0  0
  -21.5642   -3.4531   25.7733 F   0  0  0  0  0  0
  -29.9320  -13.7519   20.3830 N   0  0  0  0  0  0
  -26.2839  -12.9459   20.3171 N   0  0  0  0  0  0
  -25.9312  -11.6574   20.5670 N   0  0  0  0  0  0
  -22.0430  -12.8215   22.0450 N   0  0  0  0  0  0
  -25.4095  -15.1934   20.4097 N   0  0  0  0  0  0
  -31.7485  -15.0089   20.1449 O   0  0  0  0  0  0
  -21.6632   -6.8861   21.4233 O   0  0  0  0  0  0
  -22.3455  -14.5466   20.6650 O   0  0  0  0  0  0
  -24.6482  -31.8385   23.1866 C   0  0  0  0  0  0
  -25.9236  -32.4656   23.8273 C   0  0  1  0  0  0
  -27.2067  -27.0807   20.1794 C   0  0  0  0  0  0
  -25.5974  -33.8470   24.2171 N   0  0  0  0  0  0
  -23.4551  -30.4593   21.5307 C   0  0  2  0  0  0
  -24.9021  -28.8721   20.1182 C   0  0  0  0  0  0
  -22.7586  -29.4541   22.4832 C   0  0  0  0  0  0
  -18.0315  -28.1415   22.8458 C   0  0  0  0  0  0
  -24.1499  -36.7250   23.2649 C   0  0  0  0  0  0
  -26.0140  -30.6945   21.3946 C   0  0  0  0  0  0
  -26.0813  -29.2983   20.7421 C   0  0  0  0  0  0
  -27.2348  -28.4203   20.7566 C   0  0  0  0  0  0
  -26.0061  -26.7719   19.5040 C   0  0  0  0  0  0
  -24.8781  -27.6205   19.4849 C   0  0  0  0  0  0
  -23.6862  -29.7863   20.1522 C   0  0  0  0  0  0
  -25.4133  -36.3017   24.0308 C   0  0  1  0  0  0
  -20.5924  -28.3755   23.1209 C   0  0  2  0  0  0
  -20.6791  -26.9449   22.5421 C   0  0  0  0  0  0
  -19.5783  -26.6385   21.5214 C   0  0  0  0  0  0
  -18.1954  -26.7954   22.1603 C   0  0  0  0  0  0
  -19.1577  -28.8898   23.2819 C   0  0  0  0  0  0
  -18.9489  -30.1491   23.8843 C   0  0  0  0  0  0
  -17.6486  -30.6596   24.0564 C   0  0  0  0  0  0
  -25.9082  -34.9385   23.5050 C   0  0  0  0  0  0
  -16.5372  -29.9088   23.6351 C   0  0  0  0  0  0
  -16.7298  -28.6524   23.0329 C   0  0  0  0  0  0
  -26.4536  -31.6544   25.0737 C   0  0  0  0  0  0
  -25.3703  -31.3772   26.1427 C   0  0  0  0  0  0
  -27.0404  -30.2918   24.6395 C   0  0  0  0  0  0
  -27.6063  -32.4319   25.7507 C   0  0  0  0  0  0
  -27.5585  -37.1789   24.8459 C   0  0  0  0  0  0
  -21.4281  -29.3064   22.3565 N   0  0  0  0  0  0
  -26.4300  -37.3729   23.9400 N   0  0  0  0  0  0
  -24.7253  -31.0217   22.0900 N   0  0  0  0  0  0
  -23.4210  -28.8110   23.3022 O   0  0  0  0  0  0
  -28.2404  -26.0614   20.2234 O   0  0  0  0  0  0
  -26.5676  -34.8869   22.4635 O   0  0  0  0  0  0
  -23.5598  -32.1271   23.7072 O   0  0  0  0  0  0
  -29.5061  -20.0841   20.3696 C   0  0  0  0  0  0
  -31.4678  -19.3070   19.6013 C   0  0  0  0  0  0
  -30.0393  -17.7066   20.3469 C   0  0  0  0  0  0
  -27.9025  -22.0624   19.4277 C   0  0  0  0  0  0
  -28.6016  -21.4635   20.6138 C   0  0  2  0  0  0
  -28.7403  -23.1028   20.1537 C   0  0  2  0  0  0
  -32.7936  -19.6355   18.9459 C   0  0  0  0  0  0
  -27.9249  -24.5412   20.5241 C   0  0  0  0  0  0
  -30.6973  -20.3586   19.8648 N   0  0  0  0  0  0
  -29.1301  -18.7493   20.6244 N   0  0  0  0  0  0
  -31.2193  -18.0131   19.8139 N   0  0  0  0  0  0
  -29.7911  -16.2432   20.5652 N   0  0  0  0  0  0
  -31.4752  -12.7561   19.2386 H   0  0  0  0  0  0
  -30.3923  -11.6827   20.0715 H   0  0  0  0  0  0
  -29.8778  -11.7700   17.5981 H   0  0  0  0  0  0
  -29.6023  -13.4921   17.7167 H   0  0  0  0  0  0
  -27.9912  -11.2737   19.0127 H   0  0  0  0  0  0
  -27.4012  -12.4059   17.8279 H   0  0  0  0  0  0
  -27.5706  -14.2522   19.3811 H   0  0  0  0  0  0
  -28.7433  -12.3776   21.4907 H   0  0  0  0  0  0
  -28.3342  -14.0571   21.7279 H   0  0  0  0  0  0
  -25.2755   -9.5708   22.4724 H   0  0  0  0  0  0
  -24.0016   -7.4652   22.7470 H   0  0  0  0  0  0
  -21.0828   -8.8725   19.8977 H   0  0  0  0  0  0
  -22.3631  -10.9634   19.6159 H   0  0  0  0  0  0
  -21.2008   -7.6145   23.9716 H   0  0  0  0  0  0
  -21.1511   -6.0502   25.9077 H   0  0  0  0  0  0
  -22.0585   -2.7596   23.2822 H   0  0  0  0  0  0
  -22.4028  -11.9914   22.4921 H   0  0  0  0  0  0
  -21.1042  -13.1238   22.2632 H   0  0  0  0  0  0
  -24.6297  -15.8373   20.4993 H   0  0  0  0  0  0
  -26.2452  -15.6363   20.0488 H   0  0  0  0  0  0
  -26.7306  -32.5226   23.1001 H   0  0  0  0  0  0
  -25.0087  -33.9548   25.0300 H   0  0  0  0  0  0
  -22.7612  -31.2860   21.3718 H   0  0  0  0  0  0
  -23.3742  -35.9599   23.3292 H   0  0  0  0  0  0
  -24.3618  -36.8897   22.2073 H   0  0  0  0  0  0
  -23.7239  -37.6438   23.6698 H   0  0  0  0  0  0
  -26.1805  -31.4422   20.6176 H   0  0  0  0  0  0
  -26.8791  -30.7460   22.0441 H   0  0  0  0  0  0
  -28.1286  -28.7393   21.2748 H   0  0  0  0  0  0
  -25.9069  -25.8265   18.9914 H   0  0  0  0  0  0
  -23.9788  -27.2831   18.9871 H   0  0  0  0  0  0
  -23.8390  -30.5551   19.3937 H   0  0  0  0  0  0
  -22.7961  -29.2403   19.8378 H   0  0  0  0  0  0
  -25.1318  -36.1858   25.0800 H   0  0  0  0  0  0
  -21.0030  -28.3370   24.1321 H   0  0  0  0  0  0
  -20.5676  -26.2382   23.3659 H   0  0  0  0  0  0
  -21.6660  -26.7433   22.1236 H   0  0  0  0  0  0
  -19.6948  -25.6284   21.1270 H   0  0  0  0  0  0
  -19.6723  -27.3154   20.6711 H   0  0  0  0  0  0
  -17.4242  -26.6696   21.3986 H   0  0  0  0  0  0
  -18.0332  -26.0108   22.9012 H   0  0  0  0  0  0
  -19.7966  -30.7332   24.2175 H   0  0  0  0  0  0
  -17.5032  -31.6260   24.5202 H   0  0  0  0  0  0
  -15.5369  -30.2970   23.7701 H   0  0  0  0  0  0
  -15.8696  -28.0846   22.7018 H   0  0  0  0  0  0
  -24.5894  -30.7092   25.7772 H   0  0  0  0  0  0
  -24.8876  -32.2962   26.4766 H   0  0  0  0  0  0
  -25.7975  -30.9023   27.0267 H   0  0  0  0  0  0
  -26.3046  -29.6610   24.1393 H   0  0  0  0  0  0
  -27.3939  -29.7265   25.5031 H   0  0  0  0  0  0
  -27.8988  -30.4088   23.9770 H   0  0  0  0  0  0
  -27.2650  -33.3626   26.2046 H   0  0  0  0  0  0
  -28.3886  -32.6866   25.0345 H   0  0  0  0  0  0
  -28.0722  -31.8482   26.5453 H   0  0  0  0  0  0
  -28.2605  -38.0087   24.7505 H   0  0  0  0  0  0
  -28.1081  -36.2620   24.6282 H   0  0  0  0  0  0
  -27.2332  -37.1427   25.8872 H   0  0  0  0  0  0
  -20.9515  -29.8781   21.6715 H   0  0  0  0  0  0
  -26.0160  -38.2801   24.1387 H   0  0  0  0  0  0
  -26.8174  -22.1284   19.4988 H   0  0  0  0  0  0
  -28.2603  -21.7741   18.4419 H   0  0  0  0  0  0
  -27.9949  -21.2905   21.5021 H   0  0  0  0  0  0
  -29.7201  -23.3132   19.7290 H   0  0  0  0  0  0
  -32.9729  -20.7107   18.9371 H   0  0  0  0  0  0
  -32.8011  -19.2913   17.9120 H   0  0  0  0  0  0
  -33.6247  -19.1660   19.4744 H   0  0  0  0  0  0
  -27.8181  -24.5194   21.6094 H   0  0  0  0  0  0
  -26.9075  -24.3692   20.1788 H   0  0  0  0  0  0
  -28.8410  -16.0631   20.8440 H   0  0  0  0  0  0
  1 25  1  0  0  0
  1 30  2  0  0  0
  1 82  1  0  0  0
  2  3  1  0  0  0
  2 25  1  0  0  0
  2 83  1  0  0  0
  2 84  1  0  0  0
  3  4  1  0  0  0
  3 85  1  0  0  0
  3 86  1  0  0  0
  4  5  1  0  0  0
  4 87  1  0  0  0
  4 88  1  0  0  0
  5  6  1  0  0  0
  5 26  1  0  0  0
  5 89  1  0  0  0
  6 25  1  0  0  0
  6 90  1  0  0  0
  6 91  1  0  0  0
  7  8  2  0  0  0
  7 26  1  0  0  0
  7 29  1  0  0  0
  8  9  1  0  0  0
  8 22  1  0  0  0
  9 10  1  0  0  0
  9 27  2  0  0  0
 10 11  2  0  0  0
 10 15  1  0  0  0
 11 12  1  0  0  0
 11 92  1  0  0  0
 12 13  2  0  0  0
 12 93  1  0  0  0
 13 14  1  0  0  0
 13 31  1  0  0  0
 14 15  2  0  0  0
 14 94  1  0  0  0
 15 95  1  0  0  0
 16 17  2  0  0  0
 16 21  1  0  0  0
 16 31  1  0  0  0
 17 18  1  0  0  0
 17 96  1  0  0  0
 18 19  2  0  0  0
 18 97  1  0  0  0
 19 20  1  0  0  0
 19 24  1  0  0  0
 20 21  2  0  0  0
 20 98  1  0  0  0
 21 23  1  0  0  0
 22 28  1  0  0  0
 22 32  2  0  0  0
 26 27  1  0  0  0
 28 99  1  0  0  0
 28100  1  0  0  0
 29101  1  0  0  0
 29102  1  0  0  0
 33 34  1  0  0  0
 33 66  1  0  0  0
 33 70  2  0  0  0
 34 36  1  0  0  0
 34 59  1  0  0  0
 34103  1  0  0  0
 35 44  2  0  0  0
 35 45  1  0  0  0
 35 68  1  0  0  0
 36 56  1  0  0  0
 36104  1  0  0  0
 37 39  1  0  0  0
 37 47  1  0  0  0
 37 66  1  0  0  0
 37105  1  0  0  0
 38 43  2  0  0  0
 38 46  1  0  0  0
 38 47  1  0  0  0
 39 64  1  0  0  0
 39 67  2  0  0  0
 40 52  1  0  0  0
 40 53  2  0  0  0
 40 58  1  0  0  0
 41106  1  0  0  0
 41107  1  0  0  0
 41108  1  0  0  0
 41 48  1  0  0  0
 42 43  1  0  0  0
 42 66  1  0  0  0
 42109  1  0  0  0
 42110  1  0  0  0
 43 44  1  0  0  0
 44111  1  0  0  0
 45 46  2  0  0  0
 45112  1  0  0  0
 46113  1  0  0  0
 47114  1  0  0  0
 47115  1  0  0  0
 48 56  1  0  0  0
 48 65  1  0  0  0
 48116  1  0  0  0
 49 50  1  0  0  0
 49 53  1  0  0  0
 49 64  1  0  0  0
 49117  1  0  0  0
 50 51  1  0  0  0
 50118  1  0  0  0
 50119  1  0  0  0
 51 52  1  0  0  0
 51120  1  0  0  0
 51121  1  0  0  0
 52122  1  0  0  0
 52123  1  0  0  0
 53 54  1  0  0  0
 54 55  2  0  0  0
 54124  1  0  0  0
 55 57  1  0  0  0
 55125  1  0  0  0
 56 69  2  0  0  0
 57 58  2  0  0  0
 57126  1  0  0  0
 58127  1  0  0  0
 59 60  1  0  0  0
 59 61  1  0  0  0
 59 62  1  0  0  0
 60128  1  0  0  0
 60129  1  0  0  0
 60130  1  0  0  0
 61131  1  0  0  0
 61132  1  0  0  0
 61133  1  0  0  0
 62134  1  0  0  0
 62135  1  0  0  0
 62136  1  0  0  0
 63 65  1  0  0  0
 63137  1  0  0  0
 63138  1  0  0  0
 63139  1  0  0  0
 64140  1  0  0  0
 65141  1  0  0  0
 68 78  1  0  0  0
 71 79  1  0  0  0
 71 80  2  0  0  0
 71 75  1  0  0  0
 72 77  1  0  0  0
 72 79  2  0  0  0
 72 81  1  0  0  0
 73 80  1  0  0  0
 73 81  2  0  0  0
 73 82  1  0  0  0
 74 75  1  0  0  0
 74 76  1  0  0  0
 74142  1  0  0  0
 74143  1  0  0  0
 75 76  1  0  0  0
 75144  1  0  0  0
 76 78  1  0  0  0
 76145  1  0  0  0
 77146  1  0  0  0
 77147  1  0  0  0
 77148  1  0  0  0
 78149  1  0  0  0
 78150  1  0  0  0
 82151  1  0  0  0
M  ISO  4   1 100  68 101  78 101  82 100
M  END
> <chiral flag>
0

> <version>
0

> <s_m_source_file>
/data/baiqing/PycharmProjects/Reinvent-master-3.2/result/LINK_invent/BTK/process_docking_weight1_custom_sum_contain_oxygen_bond_distance_aromatic_linkinvent_7_9_3/rearranged_h_0183.sdf

> <i_m_source_file_index>
95

> <r_mmod_Potential_Energy-OPLS-2005>
-26.7153263092041

> <r_mmod_Stretch_Energy-OPLS-2005>
317.473083496094

> <r_mmod_Bend_Energy-OPLS-2005>
280.808197021484

> <r_mmod_Torsional_Energy-OPLS-2005>
238.860916137695

> <r_mmod_Improper_Torsional_Energy-OPLS-2005>
3.64308309555054

> <r_mmod_Van_der_Waal_Energy-OPLS-2005>
148.043640136719

> <r_mmod_Electrostatic_Energy-OPLS-2005>
-1012.14538574219

> <r_mmod_Solvation_Energy-OPLS-2005>
-245.566329956055

> <b_mmod_Minimization_Converged-OPLS-2005>
0

> <r_mmod_RMS_Derivative-OPLS-2005>
3.83406448364258

$$$$
96
                    3D
 Structure written by MMmdl.
155164  0  0  1  0            999 V2000
  -30.4355  -15.2223   20.3727 C   0  0  0  0  0  0
  -30.4454  -12.7709   19.5287 C   0  0  0  0  0  0
  -29.5377  -12.5763   18.2864 C   0  0  0  0  0  0
  -28.0824  -12.3087   18.7095 C   0  0  0  0  0  0
  -27.6198  -13.2703   19.8326 C   0  0  2  0  0  0
  -28.6559  -13.4067   20.9706 C   0  0  0  0  0  0
  -25.2421  -13.8238   20.5733 C   0  0  0  0  0  0
  -24.1764  -13.0437   20.9246 C   0  0  0  0  0  0
  -24.6409  -11.6932   20.8759 C   0  0  0  0  0  0
  -23.9097  -10.4296   21.0408 C   0  0  0  0  0  0
  -24.3642   -9.4208   21.9187 C   0  0  0  0  0  0
  -23.6307   -8.2250   22.0755 C   0  0  0  0  0  0
  -22.4290   -8.0290   21.3545 C   0  0  0  0  0  0
  -21.9931   -9.0265   20.4649 C   0  0  0  0  0  0
  -22.7266  -10.2138   20.3058 C   0  0  0  0  0  0
  -21.6856   -6.0742   22.5281 C   0  0  0  0  0  0
  -21.4016   -6.5640   23.8215 C   0  0  0  0  0  0
  -21.3659   -5.6794   24.9174 C   0  0  0  0  0  0
  -21.6040   -4.3058   24.7224 C   0  0  0  0  0  0
  -21.8820   -3.8150   23.4344 C   0  0  0  0  0  0
  -21.9194   -4.6970   22.3399 C   0  0  0  0  0  0
  -22.7785  -13.5195   21.1885 C   0  0  0  0  0  0
  -22.1664   -4.2152   21.0980 F   0  0  0  0  0  0
  -21.5628   -3.4540   25.7736 F   0  0  0  0  0  0
  -29.8987  -13.9049   20.3582 N   0  0  0  0  0  0
  -26.2857  -12.9506   20.3247 N   0  0  0  0  0  0
  -25.9351  -11.6614   20.5739 N   0  0  0  0  0  0
  -22.0441  -12.8185   22.0444 N   0  0  0  0  0  0
  -25.4045  -15.1972   20.4155 N   0  0  0  0  0  0
  -31.6466  -15.2501   20.0974 O   0  0  0  0  0  0
  -21.6646   -6.8890   21.4246 O   0  0  0  0  0  0
  -22.3469  -14.5499   20.6726 O   0  0  0  0  0  0
  -24.6593  -31.8265   23.1724 C   0  0  0  0  0  0
  -25.9286  -32.4609   23.8180 C   0  0  1  0  0  0
  -27.2217  -26.9589   20.1845 C   0  0  0  0  0  0
  -25.5961  -33.8421   24.2082 N   0  0  0  0  0  0
  -23.4726  -30.4368   21.5219 C   0  0  2  0  0  0
  -24.9259  -28.8262   20.1142 C   0  0  0  0  0  0
  -22.7640  -29.4450   22.4803 C   0  0  0  0  0  0
  -18.0313  -28.1394   22.8464 C   0  0  0  0  0  0
  -24.1485  -36.7211   23.2648 C   0  0  0  0  0  0
  -26.0387  -30.6427   21.3973 C   0  0  0  0  0  0
  -26.1087  -29.2353   20.7420 C   0  0  0  0  0  0
  -27.2529  -28.3231   20.7497 C   0  0  0  0  0  0
  -26.0099  -26.6910   19.5111 C   0  0  0  0  0  0
  -24.8995  -27.5736   19.4788 C   0  0  0  0  0  0
  -23.7109  -29.7513   20.1484 C   0  0  0  0  0  0
  -25.4129  -36.2979   24.0301 C   0  0  1  0  0  0
  -20.5932  -28.3736   23.1196 C   0  0  2  0  0  0
  -20.6786  -26.9421   22.5401 C   0  0  0  0  0  0
  -19.5766  -26.6368   21.5206 C   0  0  0  0  0  0
  -18.1947  -26.7930   22.1613 C   0  0  0  0  0  0
  -19.1575  -28.8886   23.2813 C   0  0  0  0  0  0
  -18.9493  -30.1472   23.8853 C   0  0  0  0  0  0
  -17.6492  -30.6593   24.0548 C   0  0  0  0  0  0
  -25.9093  -34.9363   23.5014 C   0  0  0  0  0  0
  -16.5379  -29.9079   23.6340 C   0  0  0  0  0  0
  -16.7296  -28.6491   23.0370 C   0  0  0  0  0  0
  -26.4543  -31.6551   25.0696 C   0  0  0  0  0  0
  -25.3676  -31.3798   26.1357 C   0  0  0  0  0  0
  -27.0445  -30.2926   24.6415 C   0  0  0  0  0  0
  -27.6035  -32.4363   25.7504 C   0  0  0  0  0  0
  -27.5568  -37.1759   24.8466 C   0  0  0  0  0  0
  -21.4313  -29.3039   22.3558 N   0  0  0  0  0  0
  -26.4277  -37.3714   23.9410 N   0  0  0  0  0  0
  -24.7450  -30.9946   22.0852 N   0  0  0  0  0  0
  -23.4200  -28.8029   23.3043 O   0  0  0  0  0  0
  -28.2416  -25.8823   20.2540 O   0  0  0  0  0  0
  -26.5707  -34.8895   22.4610 O   0  0  0  0  0  0
  -23.5663  -32.1227   23.6828 O   0  0  0  0  0  0
  -29.9077  -20.2124   19.4826 C   0  0  0  0  0  0
  -29.0782  -21.0752   20.3197 C   0  0  0  0  0  0
  -28.5255  -20.1150   21.2585 C   0  0  0  0  0  0
  -29.5582  -17.9838   20.4760 C   0  0  0  0  0  0
  -28.6470  -23.5880   19.0476 C   0  0  0  0  0  0
  -29.0380  -22.8355   20.3118 C   0  0  1  0  0  0
  -27.9977  -24.2604   20.2378 C   0  0  1  0  0  0
  -28.4752  -20.5864   23.7339 C   0  0  0  0  0  0
  -26.3222  -19.9442   22.5152 C   0  0  0  0  0  0
  -27.6878  -20.6434   22.4163 C   0  0  0  0  0  0
  -30.1311  -18.8063   19.5465 N   0  0  0  0  0  0
  -28.7400  -18.7096   21.3004 N   0  0  0  0  0  0
  -29.6173  -16.4349   20.5670 N   0  0  0  0  0  0
  -31.4683  -12.9670   19.2032 H   0  0  0  0  0  0
  -30.4993  -11.8522   20.1153 H   0  0  0  0  0  0
  -29.9062  -11.7561   17.6689 H   0  0  0  0  0  0
  -29.5781  -13.4717   17.6645 H   0  0  0  0  0  0
  -28.0264  -11.2790   19.0659 H   0  0  0  0  0  0
  -27.4147  -12.3730   17.8487 H   0  0  0  0  0  0
  -27.5474  -14.2468   19.3531 H   0  0  0  0  0  0
  -28.8110  -12.4562   21.4841 H   0  0  0  0  0  0
  -28.3052  -14.1116   21.7259 H   0  0  0  0  0  0
  -25.2783   -9.5682   22.4769 H   0  0  0  0  0  0
  -24.0008   -7.4640   22.7479 H   0  0  0  0  0  0
  -21.0857   -8.8791   19.8960 H   0  0  0  0  0  0
  -22.3723  -10.9684   19.6174 H   0  0  0  0  0  0
  -21.2011   -7.6149   23.9716 H   0  0  0  0  0  0
  -21.1478   -6.0525   25.9075 H   0  0  0  0  0  0
  -22.0598   -2.7613   23.2844 H   0  0  0  0  0  0
  -22.4061  -11.9850   22.4837 H   0  0  0  0  0  0
  -21.1058  -13.1210   22.2644 H   0  0  0  0  0  0
  -24.6279  -15.8413   20.5196 H   0  0  0  0  0  0
  -26.2345  -15.6406   20.0462 H   0  0  0  0  0  0
  -26.7348  -32.5156   23.0892 H   0  0  0  0  0  0
  -25.0058  -33.9511   25.0197 H   0  0  0  0  0  0
  -22.7837  -31.2671   21.3526 H   0  0  0  0  0  0
  -23.3764  -35.9524   23.3289 H   0  0  0  0  0  0
  -24.3556  -36.8878   22.2064 H   0  0  0  0  0  0
  -23.7224  -37.6386   23.6721 H   0  0  0  0  0  0
  -26.2112  -31.3866   20.6190 H   0  0  0  0  0  0
  -26.8999  -30.6996   22.0508 H   0  0  0  0  0  0
  -28.1507  -28.6366   21.2632 H   0  0  0  0  0  0
  -25.8929  -25.7332   19.0250 H   0  0  0  0  0  0
  -23.9998  -27.2542   18.9720 H   0  0  0  0  0  0
  -23.8638  -30.5203   19.3902 H   0  0  0  0  0  0
  -22.8206  -29.2044   19.8334 H   0  0  0  0  0  0
  -25.1322  -36.1782   25.0791 H   0  0  0  0  0  0
  -21.0011  -28.3338   24.1321 H   0  0  0  0  0  0
  -20.5655  -26.2355   23.3637 H   0  0  0  0  0  0
  -21.6654  -26.7393   22.1219 H   0  0  0  0  0  0
  -19.6935  -25.6266   21.1268 H   0  0  0  0  0  0
  -19.6713  -27.3143   20.6710 H   0  0  0  0  0  0
  -17.4214  -26.6661   21.4018 H   0  0  0  0  0  0
  -18.0349  -26.0074   22.9014 H   0  0  0  0  0  0
  -19.7976  -30.7286   24.2209 H   0  0  0  0  0  0
  -17.5052  -31.6277   24.5145 H   0  0  0  0  0  0
  -15.5377  -30.2974   23.7698 H   0  0  0  0  0  0
  -15.8687  -28.0794   22.7130 H   0  0  0  0  0  0
  -24.5867  -30.7140   25.7664 H   0  0  0  0  0  0
  -24.8852  -32.3000   26.4664 H   0  0  0  0  0  0
  -25.7899  -30.9040   27.0216 H   0  0  0  0  0  0
  -26.3112  -29.6605   24.1395 H   0  0  0  0  0  0
  -27.3966  -29.7281   25.5059 H   0  0  0  0  0  0
  -27.9051  -30.4118   23.9831 H   0  0  0  0  0  0
  -27.2599  -33.3706   26.1959 H   0  0  0  0  0  0
  -28.3912  -32.6862   25.0384 H   0  0  0  0  0  0
  -28.0635  -31.8578   26.5525 H   0  0  0  0  0  0
  -28.2566  -38.0072   24.7520 H   0  0  0  0  0  0
  -28.1084  -36.2601   24.6292 H   0  0  0  0  0  0
  -27.2285  -37.1399   25.8867 H   0  0  0  0  0  0
  -20.9562  -29.8725   21.6685 H   0  0  0  0  0  0
  -26.0129  -38.2771   24.1437 H   0  0  0  0  0  0
  -30.4825  -20.6959   18.7066 H   0  0  0  0  0  0
  -27.9547  -23.1010   18.3636 H   0  0  0  0  0  0
  -29.4505  -24.1226   18.5434 H   0  0  0  0  0  0
  -30.0015  -23.0971   20.7461 H   0  0  0  0  0  0
  -26.9462  -24.0608   20.4367 H   0  0  0  0  0  0
  -29.4028  -21.1545   23.6528 H   0  0  0  0  0  0
  -28.7375  -19.5606   23.9935 H   0  0  0  0  0  0
  -27.9014  -21.0073   24.5590 H   0  0  0  0  0  0
  -25.7656  -20.0451   21.5833 H   0  0  0  0  0  0
  -25.7176  -20.3755   23.3127 H   0  0  0  0  0  0
  -26.4328  -18.8799   22.7247 H   0  0  0  0  0  0
  -27.4791  -21.6949   22.2174 H   0  0  0  0  0  0
  -28.7300  -16.1173   20.9180 H   0  0  0  0  0  0
  1 25  1  0  0  0
  1 30  2  0  0  0
  1 83  1  0  0  0
  2  3  1  0  0  0
  2 25  1  0  0  0
  2 84  1  0  0  0
  2 85  1  0  0  0
  3  4  1  0  0  0
  3 86  1  0  0  0
  3 87  1  0  0  0
  4  5  1  0  0  0
  4 88  1  0  0  0
  4 89  1  0  0  0
  5  6  1  0  0  0
  5 26  1  0  0  0
  5 90  1  0  0  0
  6 25  1  0  0  0
  6 91  1  0  0  0
  6 92  1  0  0  0
  7  8  2  0  0  0
  7 26  1  0  0  0
  7 29  1  0  0  0
  8  9  1  0  0  0
  8 22  1  0  0  0
  9 10  1  0  0  0
  9 27  2  0  0  0
 10 11  2  0  0  0
 10 15  1  0  0  0
 11 12  1  0  0  0
 11 93  1  0  0  0
 12 13  2  0  0  0
 12 94  1  0  0  0
 13 14  1  0  0  0
 13 31  1  0  0  0
 14 15  2  0  0  0
 14 95  1  0  0  0
 15 96  1  0  0  0
 16 17  2  0  0  0
 16 21  1  0  0  0
 16 31  1  0  0  0
 17 18  1  0  0  0
 17 97  1  0  0  0
 18 19  2  0  0  0
 18 98  1  0  0  0
 19 20  1  0  0  0
 19 24  1  0  0  0
 20 21  2  0  0  0
 20 99  1  0  0  0
 21 23  1  0  0  0
 22 28  1  0  0  0
 22 32  2  0  0  0
 26 27  1  0  0  0
 28100  1  0  0  0
 28101  1  0  0  0
 29102  1  0  0  0
 29103  1  0  0  0
 33 34  1  0  0  0
 33 66  1  0  0  0
 33 70  2  0  0  0
 34 36  1  0  0  0
 34 59  1  0  0  0
 34104  1  0  0  0
 35 44  2  0  0  0
 35 45  1  0  0  0
 35 68  1  0  0  0
 36 56  1  0  0  0
 36105  1  0  0  0
 37 39  1  0  0  0
 37 47  1  0  0  0
 37 66  1  0  0  0
 37106  1  0  0  0
 38 43  2  0  0  0
 38 46  1  0  0  0
 38 47  1  0  0  0
 39 64  1  0  0  0
 39 67  2  0  0  0
 40 52  1  0  0  0
 40 53  2  0  0  0
 40 58  1  0  0  0
 41107  1  0  0  0
 41108  1  0  0  0
 41109  1  0  0  0
 41 48  1  0  0  0
 42 43  1  0  0  0
 42 66  1  0  0  0
 42110  1  0  0  0
 42111  1  0  0  0
 43 44  1  0  0  0
 44112  1  0  0  0
 45 46  2  0  0  0
 45113  1  0  0  0
 46114  1  0  0  0
 47115  1  0  0  0
 47116  1  0  0  0
 48 56  1  0  0  0
 48 65  1  0  0  0
 48117  1  0  0  0
 49 50  1  0  0  0
 49 53  1  0  0  0
 49 64  1  0  0  0
 49118  1  0  0  0
 50 51  1  0  0  0
 50119  1  0  0  0
 50120  1  0  0  0
 51 52  1  0  0  0
 51121  1  0  0  0
 51122  1  0  0  0
 52123  1  0  0  0
 52124  1  0  0  0
 53 54  1  0  0  0
 54 55  2  0  0  0
 54125  1  0  0  0
 55 57  1  0  0  0
 55126  1  0  0  0
 56 69  2  0  0  0
 57 58  2  0  0  0
 57127  1  0  0  0
 58128  1  0  0  0
 59 60  1  0  0  0
 59 61  1  0  0  0
 59 62  1  0  0  0
 60129  1  0  0  0
 60130  1  0  0  0
 60131  1  0  0  0
 61132  1  0  0  0
 61133  1  0  0  0
 61134  1  0  0  0
 62135  1  0  0  0
 62136  1  0  0  0
 62137  1  0  0  0
 63 65  1  0  0  0
 63138  1  0  0  0
 63139  1  0  0  0
 63140  1  0  0  0
 64141  1  0  0  0
 65142  1  0  0  0
 68 77  1  0  0  0
 71 72  2  0  0  0
 71 81  1  0  0  0
 71143  1  0  0  0
 72 73  1  0  0  0
 72 76  1  0  0  0
 73 80  1  0  0  0
 73 82  2  0  0  0
 74 81  2  0  0  0
 74 82  1  0  0  0
 74 83  1  0  0  0
 75 76  1  0  0  0
 75 77  1  0  0  0
 75144  1  0  0  0
 75145  1  0  0  0
 76 77  1  0  0  0
 76146  1  0  0  0
 77147  1  0  0  0
 78148  1  0  0  0
 78149  1  0  0  0
 78150  1  0  0  0
 78 80  1  0  0  0
 79 80  1  0  0  0
 79151  1  0  0  0
 79152  1  0  0  0
 79153  1  0  0  0
 80154  1  0  0  0
 83155  1  0  0  0
M  ISO  4   1 100  68 101  77 101  83 100
M  END
> <chiral flag>
0

> <version>
0

> <s_m_source_file>
/data/baiqing/PycharmProjects/Reinvent-master-3.2/result/LINK_invent/BTK/process_docking_weight1_custom_sum_contain_oxygen_bond_distance_aromatic_linkinvent_7_9_3/rearranged_h_0183.sdf

> <i_m_source_file_index>
96

> <r_mmod_Potential_Energy-OPLS-2005>
640.239624023438

> <r_mmod_Stretch_Energy-OPLS-2005>
482.720550537109

> <r_mmod_Bend_Energy-OPLS-2005>
423.304962158203

> <r_mmod_Torsional_Energy-OPLS-2005>
231.811477661133

> <r_mmod_Improper_Torsional_Energy-OPLS-2005>
5.03997755050659

> <r_mmod_Van_der_Waal_Energy-OPLS-2005>
130.476959228516

> <r_mmod_Electrostatic_Energy-OPLS-2005>
-810.261779785156

> <r_mmod_Solvation_Energy-OPLS-2005>
-231.858154296875

> <b_mmod_Minimization_Converged-OPLS-2005>
0

> <r_mmod_RMS_Derivative-OPLS-2005>
1.12715065479279

$$$$
