0
                    3D
 Structure written by MMmdl.
176187  0  0  1  0            999 V2000
  -30.7452  -14.4648   20.2677 C   0  0  0  0  0  0
  -30.3824  -12.2277   19.4073 C   0  0  0  0  0  0
  -29.4454  -12.3540   18.1848 C   0  0  0  0  0  0
  -27.9761  -12.2944   18.6302 C   0  0  0  0  0  0
  -27.6449  -13.2131   19.8396 C   0  0  2  0  0  0
  -28.7171  -13.1253   20.9504 C   0  0  0  0  0  0
  -25.2545  -13.8217   20.5732 C   0  0  0  0  0  0
  -24.1810  -13.0465   20.9222 C   0  0  0  0  0  0
  -24.6380  -11.6940   20.8801 C   0  0  0  0  0  0
  -23.9052  -10.4305   21.0438 C   0  0  0  0  0  0
  -24.3609   -9.4211   21.9202 C   0  0  0  0  0  0
  -23.6295   -8.2238   22.0756 C   0  0  0  0  0  0
  -22.4277   -8.0276   21.3541 C   0  0  0  0  0  0
  -21.9913   -9.0253   20.4641 C   0  0  0  0  0  0
  -22.7236  -10.2142   20.3070 C   0  0  0  0  0  0
  -21.6854   -6.0728   22.5276 C   0  0  0  0  0  0
  -21.4020   -6.5637   23.8205 C   0  0  0  0  0  0
  -21.3662   -5.6797   24.9168 C   0  0  0  0  0  0
  -21.6045   -4.3055   24.7233 C   0  0  0  0  0  0
  -21.8817   -3.8141   23.4351 C   0  0  0  0  0  0
  -21.9191   -4.6955   22.3403 C   0  0  0  0  0  0
  -22.7823  -13.5231   21.1864 C   0  0  0  0  0  0
  -22.1656   -4.2133   21.0984 F   0  0  0  0  0  0
  -21.5634   -3.4548   25.7747 F   0  0  0  0  0  0
  -30.0345  -13.3102   20.3273 N   0  0  0  0  0  0
  -26.2991  -12.9408   20.3401 N   0  0  0  0  0  0
  -25.9319  -11.6570   20.5930 N   0  0  0  0  0  0
  -22.0479  -12.8199   22.0425 N   0  0  0  0  0  0
  -25.4244  -15.1936   20.4082 N   0  0  0  0  0  0
  -31.8946  -14.5638   20.6741 O   0  0  0  0  0  0
  -21.6649   -6.8872   21.4230 O   0  0  0  0  0  0
  -22.3472  -14.5523   20.6706 O   0  0  0  0  0  0
  -24.6075  -31.8747   23.2125 C   0  0  0  0  0  0
  -25.8997  -32.4844   23.8420 C   0  0  1  0  0  0
  -27.2330  -27.4785   20.1041 C   0  0  0  0  0  0
  -25.5873  -33.8631   24.2368 N   0  0  0  0  0  0
  -23.3941  -30.4988   21.5532 C   0  0  2  0  0  0
  -24.8349  -28.9642   20.1220 C   0  0  0  0  0  0
  -22.7390  -29.4723   22.5031 C   0  0  0  0  0  0
  -18.0272  -28.1420   22.8531 C   0  0  0  0  0  0
  -24.1456  -36.7253   23.2652 C   0  0  0  0  0  0
  -25.9160  -30.8545   21.3574 C   0  0  0  0  0  0
  -25.9917  -29.4903   20.7090 C   0  0  0  0  0  0
  -27.1890  -28.7553   20.6938 C   0  0  0  0  0  0
  -26.0622  -26.9562   19.5013 C   0  0  0  0  0  0
  -24.8629  -27.6910   19.5229 C   0  0  0  0  0  0
  -23.5971  -29.8280   20.1672 C   0  0  0  0  0  0
  -25.4095  -36.3122   24.0365 C   0  0  1  0  0  0
  -20.5870  -28.3686   23.1349 C   0  0  2  0  0  0
  -20.6738  -26.9427   22.5444 C   0  0  0  0  0  0
  -19.5706  -26.6453   21.5239 C   0  0  0  0  0  0
  -18.1903  -26.7988   22.1648 C   0  0  0  0  0  0
  -19.1537  -28.8870   23.2947 C   0  0  0  0  0  0
  -18.9469  -30.1459   23.8996 C   0  0  0  0  0  0
  -17.6480  -30.6622   24.0592 C   0  0  0  0  0  0
  -25.9048  -34.9483   23.5207 C   0  0  0  0  0  0
  -16.5368  -29.9129   23.6345 C   0  0  0  0  0  0
  -16.7268  -28.6521   23.0417 C   0  0  0  0  0  0
  -26.4461  -31.6579   25.0704 C   0  0  0  0  0  0
  -25.3756  -31.3572   26.1458 C   0  0  0  0  0  0
  -27.0286  -30.3061   24.5984 C   0  0  0  0  0  0
  -27.6121  -32.4212   25.7422 C   0  0  0  0  0  0
  -27.5571  -37.1780   24.8504 C   0  0  0  0  0  0
  -21.4144  -29.3026   22.3756 N   0  0  0  0  0  0
  -26.4278  -37.3811   23.9453 N   0  0  0  0  0  0
  -24.6575  -31.0906   22.0985 N   0  0  0  0  0  0
  -23.4181  -28.8326   23.3127 O   0  0  0  0  0  0
  -28.4406  -26.8285   20.1272 O   0  0  0  0  0  0
  -26.5619  -34.8934   22.4774 O   0  0  0  0  0  0
  -23.5280  -32.1502   23.7538 O   0  0  0  0  0  0
  -29.8308  -17.8053   16.0171 C   0  0  0  0  0  0
  -30.6595  -19.4845   16.9210 C   0  0  0  0  0  0
  -30.6910  -15.6563   14.7984 C   0  0  0  0  0  0
  -29.4372  -16.0744   14.0856 C   0  0  0  0  0  0
  -32.1119  -16.5202   17.9827 C   0  0  0  0  0  0
  -31.5509  -15.1142   18.0962 C   0  0  0  0  0  0
  -29.9122  -16.4996   19.0754 C   0  0  0  0  0  0
  -31.5796  -22.0515   19.7380 C   0  0  0  0  0  0
  -29.7370  -21.9818   18.7309 C   0  0  0  0  0  0
  -29.6062  -16.3931   15.5662 C   0  0  0  0  0  0
  -30.8423  -20.9613   18.9669 C   0  0  1  0  0  0
  -30.9354  -17.4090   18.3363 C   0  0  2  0  0  0
  -31.5418  -20.3490   17.7624 C   0  0  0  0  0  0
  -29.3165  -25.0153   18.8539 C   0  0  0  0  0  0
  -30.6127  -24.2620   19.2040 C   0  0  0  0  0  0
  -28.4841  -25.4124   20.0792 C   0  0  0  0  0  0
  -29.5006  -18.8406   15.2341 N   0  0  0  0  0  0
  -30.0482  -19.9436   15.8254 N   0  0  0  0  0  0
  -30.4494  -18.1711   17.1714 N   0  0  0  0  0  0
  -30.4929  -15.1484   19.1226 N   0  0  0  0  0  0
  -30.3798  -22.8814   19.6860 N   0  3  2  0  0  0
  -31.4284  -12.2718   19.1003 H   0  0  0  0  0  0
  -30.2452  -11.2644   19.8999 H   0  0  0  0  0  0
  -29.6493  -11.5517   17.4750 H   0  0  0  0  0  0
  -29.6032  -13.2724   17.6273 H   0  0  0  0  0  0
  -27.7733  -11.2539   18.8871 H   0  0  0  0  0  0
  -27.3165  -12.5276   17.7941 H   0  0  0  0  0  0
  -27.6529  -14.2351   19.4599 H   0  0  0  0  0  0
  -28.6751  -12.1632   21.4639 H   0  0  0  0  0  0
  -28.5383  -13.8926   21.7051 H   0  0  0  0  0  0
  -25.2766   -9.5687   22.4757 H   0  0  0  0  0  0
  -24.0012   -7.4634   22.7467 H   0  0  0  0  0  0
  -21.0856   -8.8765   19.8943 H   0  0  0  0  0  0
  -22.3708  -10.9668   19.6159 H   0  0  0  0  0  0
  -21.2019   -7.6149   23.9698 H   0  0  0  0  0  0
  -21.1488   -6.0534   25.9067 H   0  0  0  0  0  0
  -22.0594   -2.7601   23.2867 H   0  0  0  0  0  0
  -22.4143  -11.9890   22.4832 H   0  0  0  0  0  0
  -21.1084  -13.1178   22.2657 H   0  0  0  0  0  0
  -24.6616  -15.8518   20.5272 H   0  0  0  0  0  0
  -26.2870  -15.6349   20.1151 H   0  0  0  0  0  0
  -26.7066  -32.5613   23.1198 H   0  0  0  0  0  0
  -24.9925  -33.9773   25.0441 H   0  0  0  0  0  0
  -22.6787  -31.3113   21.4202 H   0  0  0  0  0  0
  -23.3752  -35.9543   23.3344 H   0  0  0  0  0  0
  -24.3547  -36.8810   22.2059 H   0  0  0  0  0  0
  -23.7144  -37.6445   23.6621 H   0  0  0  0  0  0
  -26.0245  -31.6182   20.5855 H   0  0  0  0  0  0
  -26.8029  -30.9076   21.9765 H   0  0  0  0  0  0
  -28.0840  -29.1677   21.1421 H   0  0  0  0  0  0
  -26.0574  -25.9975   19.0042 H   0  0  0  0  0  0
  -23.9711  -27.2739   19.0761 H   0  0  0  0  0  0
  -23.6993  -30.6014   19.4034 H   0  0  0  0  0  0
  -22.7236  -29.2434   19.8767 H   0  0  0  0  0  0
  -25.1242  -36.2022   25.0846 H   0  0  0  0  0  0
  -20.9967  -28.3262   24.1472 H   0  0  0  0  0  0
  -20.5692  -26.2288   23.3620 H   0  0  0  0  0  0
  -21.6609  -26.7483   22.1239 H   0  0  0  0  0  0
  -19.6852  -25.6391   21.1193 H   0  0  0  0  0  0
  -19.6653  -27.3317   20.6820 H   0  0  0  0  0  0
  -17.4180  -26.6790   21.4037 H   0  0  0  0  0  0
  -18.0264  -26.0132   22.9033 H   0  0  0  0  0  0
  -19.7960  -30.7236   24.2439 H   0  0  0  0  0  0
  -17.5050  -31.6326   24.5161 H   0  0  0  0  0  0
  -15.5375  -30.3055   23.7661 H   0  0  0  0  0  0
  -15.8653  -28.0829   22.7173 H   0  0  0  0  0  0
  -24.6042  -30.6776   25.7804 H   0  0  0  0  0  0
  -24.8778  -32.2633   26.4911 H   0  0  0  0  0  0
  -25.8158  -30.8799   27.0228 H   0  0  0  0  0  0
  -26.2780  -29.6798   24.1136 H   0  0  0  0  0  0
  -27.4242  -29.7290   25.4349 H   0  0  0  0  0  0
  -27.8524  -30.4411   23.8965 H   0  0  0  0  0  0
  -27.2885  -33.3565   26.1988 H   0  0  0  0  0  0
  -28.3930  -32.6647   25.0204 H   0  0  0  0  0  0
  -28.0780  -31.8293   26.5312 H   0  0  0  0  0  0
  -28.2659  -38.0024   24.7578 H   0  0  0  0  0  0
  -28.0999  -36.2572   24.6308 H   0  0  0  0  0  0
  -27.2297  -37.1431   25.8912 H   0  0  0  0  0  0
  -20.9324  -29.8649   21.6876 H   0  0  0  0  0  0
  -26.0172  -38.2881   24.1499 H   0  0  0  0  0  0
  -31.6065  -16.2029   14.5767 H   0  0  0  0  0  0
  -30.8172  -14.5897   14.9696 H   0  0  0  0  0  0
  -28.7404  -15.2885   13.8034 H   0  0  0  0  0  0
  -29.5454  -16.8771   13.3563 H   0  0  0  0  0  0
  -32.5495  -16.7278   17.0047 H   0  0  0  0  0  0
  -32.9028  -16.6486   18.7252 H   0  0  0  0  0  0
  -32.3488  -14.3926   18.2807 H   0  0  0  0  0  0
  -31.0990  -14.8004   17.1680 H   0  0  0  0  0  0
  -28.9419  -16.4778   18.5786 H   0  0  0  0  0  0
  -29.7323  -16.8741   20.0877 H   0  0  0  0  0  0
  -32.4302  -22.4610   19.1884 H   0  0  0  0  0  0
  -31.8685  -21.7735   20.7540 H   0  0  0  0  0  0
  -28.7464  -21.6481   19.0463 H   0  0  0  0  0  0
  -29.7161  -22.3643   17.7086 H   0  0  0  0  0  0
  -29.0203  -15.8293   16.2881 H   0  0  0  0  0  0
  -30.4819  -20.2036   19.6656 H   0  0  0  0  0  0
  -31.2884  -18.1238   19.0782 H   0  0  0  0  0  0
  -31.9185  -21.1438   17.1174 H   0  0  0  0  0  0
  -32.4294  -19.7888   18.0551 H   0  0  0  0  0  0
  -28.7012  -24.4557   18.1478 H   0  0  0  0  0  0
  -29.6072  -25.9176   18.3129 H   0  0  0  0  0  0
  -31.1799  -24.8069   19.9594 H   0  0  0  0  0  0
  -31.2432  -24.2339   18.3154 H   0  0  0  0  0  0
  -28.9797  -25.1000   20.9983 H   0  0  0  0  0  0
  -27.5206  -24.9041   20.0990 H   0  0  0  0  0  0
  -29.9105  -22.8576   20.5788 H   0  0  0  0  0  0
  1 25  1  0  0  0
  1 30  2  0  0  0
  1 90  1  0  0  0
  2  3  1  0  0  0
  2 25  1  0  0  0
  2 92  1  0  0  0
  2 93  1  0  0  0
  3  4  1  0  0  0
  3 94  1  0  0  0
  3 95  1  0  0  0
  4  5  1  0  0  0
  4 96  1  0  0  0
  4 97  1  0  0  0
  5  6  1  0  0  0
  5 26  1  0  0  0
  5 98  1  0  0  0
  6 25  1  0  0  0
  6 99  1  0  0  0
  6100  1  0  0  0
  7  8  2  0  0  0
  7 26  1  0  0  0
  7 29  1  0  0  0
  8  9  1  0  0  0
  8 22  1  0  0  0
  9 10  1  0  0  0
  9 27  2  0  0  0
 10 11  2  0  0  0
 10 15  1  0  0  0
 11 12  1  0  0  0
 11101  1  0  0  0
 12 13  2  0  0  0
 12102  1  0  0  0
 13 14  1  0  0  0
 13 31  1  0  0  0
 14 15  2  0  0  0
 14103  1  0  0  0
 15104  1  0  0  0
 16 17  2  0  0  0
 16 21  1  0  0  0
 16 31  1  0  0  0
 17 18  1  0  0  0
 17105  1  0  0  0
 18 19  2  0  0  0
 18106  1  0  0  0
 19 20  1  0  0  0
 19 24  1  0  0  0
 20 21  2  0  0  0
 20107  1  0  0  0
 21 23  1  0  0  0
 22 28  1  0  0  0
 22 32  2  0  0  0
 26 27  1  0  0  0
 28108  1  0  0  0
 28109  1  0  0  0
 29110  1  0  0  0
 29111  1  0  0  0
 33 34  1  0  0  0
 33 66  1  0  0  0
 33 70  2  0  0  0
 34 36  1  0  0  0
 34 59  1  0  0  0
 34112  1  0  0  0
 35 44  2  0  0  0
 35 45  1  0  0  0
 35 68  1  0  0  0
 36 56  1  0  0  0
 36113  1  0  0  0
 37 39  1  0  0  0
 37 47  1  0  0  0
 37 66  1  0  0  0
 37114  1  0  0  0
 38 43  2  0  0  0
 38 46  1  0  0  0
 38 47  1  0  0  0
 39 64  1  0  0  0
 39 67  2  0  0  0
 40 52  1  0  0  0
 40 53  2  0  0  0
 40 58  1  0  0  0
 41115  1  0  0  0
 41116  1  0  0  0
 41117  1  0  0  0
 41 48  1  0  0  0
 42 43  1  0  0  0
 42 66  1  0  0  0
 42118  1  0  0  0
 42119  1  0  0  0
 43 44  1  0  0  0
 44120  1  0  0  0
 45 46  2  0  0  0
 45121  1  0  0  0
 46122  1  0  0  0
 47123  1  0  0  0
 47124  1  0  0  0
 48 56  1  0  0  0
 48 65  1  0  0  0
 48125  1  0  0  0
 49 50  1  0  0  0
 49 53  1  0  0  0
 49 64  1  0  0  0
 49126  1  0  0  0
 50 51  1  0  0  0
 50127  1  0  0  0
 50128  1  0  0  0
 51 52  1  0  0  0
 51129  1  0  0  0
 51130  1  0  0  0
 52131  1  0  0  0
 52132  1  0  0  0
 53 54  1  0  0  0
 54 55  2  0  0  0
 54133  1  0  0  0
 55 57  1  0  0  0
 55134  1  0  0  0
 56 69  2  0  0  0
 57 58  2  0  0  0
 57135  1  0  0  0
 58136  1  0  0  0
 59 60  1  0  0  0
 59 61  1  0  0  0
 59 62  1  0  0  0
 60137  1  0  0  0
 60138  1  0  0  0
 60139  1  0  0  0
 61140  1  0  0  0
 61141  1  0  0  0
 61142  1  0  0  0
 62143  1  0  0  0
 62144  1  0  0  0
 62145  1  0  0  0
 63 65  1  0  0  0
 63146  1  0  0  0
 63147  1  0  0  0
 63148  1  0  0  0
 64149  1  0  0  0
 65150  1  0  0  0
 68 86  1  0  0  0
 71 87  2  0  0  0
 71 89  1  0  0  0
 71 80  1  0  0  0
 72 83  1  0  0  0
 72 88  2  0  0  0
 72 89  1  0  0  0
 73 74  1  0  0  0
 73 80  1  0  0  0
 73151  1  0  0  0
 73152  1  0  0  0
 74 80  1  0  0  0
 74153  1  0  0  0
 74154  1  0  0  0
 75 76  1  0  0  0
 75 82  1  0  0  0
 75155  1  0  0  0
 75156  1  0  0  0
 76 90  1  0  0  0
 76157  1  0  0  0
 76158  1  0  0  0
 77 82  1  0  0  0
 77 90  1  0  0  0
 77159  1  0  0  0
 77160  1  0  0  0
 78 81  1  0  0  0
 78 91  1  0  0  0
 78161  1  0  0  0
 78162  1  0  0  0
 79 81  1  0  0  0
 79 91  1  0  0  0
 79163  1  0  0  0
 79164  1  0  0  0
 80165  1  0  0  0
 81 83  1  0  0  0
 81166  1  0  0  0
 82 89  1  0  0  0
 82167  1  0  0  0
 83168  1  0  0  0
 83169  1  0  0  0
 84 85  1  0  0  0
 84 86  1  0  0  0
 84170  1  0  0  0
 84171  1  0  0  0
 85172  1  0  0  0
 85173  1  0  0  0
 85 91  1  0  0  0
 86174  1  0  0  0
 86175  1  0  0  0
 87 88  1  0  0  0
 91176  1  0  0  0
M  CHG  1  91   1
M  ISO  4   1 100  68 101  86 101  90 100
M  END
> <chiral flag>
0

> <version>
0

> <s_m_source_file>
/data/baiqing/PycharmProjects/Reinvent-master-3.2/result/LINK_invent/BTK/process_docking_weight1_custom_sum_contain_oxygen_bond_distance_aromatic_linkinvent_7_9_3/rearranged_h_0199.sdf

> <i_m_source_file_index>
1

> <r_mmod_Potential_Energy-OPLS-2005>
247.01383972168

> <r_mmod_Stretch_Energy-OPLS-2005>
35.2661399841309

> <r_mmod_Bend_Energy-OPLS-2005>
158.417266845703

> <r_mmod_Torsional_Energy-OPLS-2005>
499.634368896484

> <r_mmod_Improper_Torsional_Energy-OPLS-2005>
34.9475135803223

> <r_mmod_Van_der_Waal_Energy-OPLS-2005>
130.375518798828

> <r_mmod_Electrostatic_Energy-OPLS-2005>
-205.833358764648

> <r_mmod_Solvation_Energy-OPLS-2005>
-482.985656738281

> <b_mmod_Minimization_Converged-OPLS-2005>
0

> <r_mmod_RMS_Derivative-OPLS-2005>
4.58379983901978

$$$$
1
                    3D
 Structure written by MMmdl.
183193  0  0  1  0            999 V2000
  -30.6137  -14.8334   20.4332 C   0  0  0  0  0  0
  -30.4218  -12.5111   19.4859 C   0  0  0  0  0  0
  -29.5134  -12.5262   18.2383 C   0  0  0  0  0  0
  -28.0384  -12.3480   18.6476 C   0  0  0  0  0  0
  -27.6337  -13.2551   19.8438 C   0  0  2  0  0  0
  -28.6790  -13.2405   20.9802 C   0  0  0  0  0  0
  -25.2503  -13.8229   20.5766 C   0  0  0  0  0  0
  -24.1798  -13.0444   20.9234 C   0  0  0  0  0  0
  -24.6418  -11.6931   20.8728 C   0  0  0  0  0  0
  -23.9107  -10.4296   21.0375 C   0  0  0  0  0  0
  -24.3640   -9.4210   21.9170 C   0  0  0  0  0  0
  -23.6318   -8.2239   22.0751 C   0  0  0  0  0  0
  -22.4293   -8.0289   21.3546 C   0  0  0  0  0  0
  -21.9920   -9.0271   20.4653 C   0  0  0  0  0  0
  -22.7266  -10.2140   20.3045 C   0  0  0  0  0  0
  -21.6881   -6.0746   22.5288 C   0  0  0  0  0  0
  -21.4031   -6.5642   23.8226 C   0  0  0  0  0  0
  -21.3650   -5.6790   24.9186 C   0  0  0  0  0  0
  -21.6023   -4.3054   24.7227 C   0  0  0  0  0  0
  -21.8819   -3.8151   23.4350 C   0  0  0  0  0  0
  -21.9199   -4.6967   22.3403 C   0  0  0  0  0  0
  -22.7810  -13.5216   21.1872 C   0  0  0  0  0  0
  -22.1674   -4.2146   21.0983 F   0  0  0  0  0  0
  -21.5607   -3.4534   25.7741 F   0  0  0  0  0  0
  -29.9649  -13.6085   20.3798 N   0  0  0  0  0  0
  -26.2942  -12.9482   20.3302 N   0  0  0  0  0  0
  -25.9359  -11.6600   20.5718 N   0  0  0  0  0  0
  -22.0463  -12.8212   22.0428 N   0  0  0  0  0  0
  -25.4157  -15.1972   20.4243 N   0  0  0  0  0  0
  -31.8115  -14.8590   20.1360 O   0  0  0  0  0  0
  -21.6654   -6.8887   21.4255 O   0  0  0  0  0  0
  -22.3488  -14.5517   20.6724 O   0  0  0  0  0  0
  -24.6354  -31.8490   23.1939 C   0  0  0  0  0  0
  -25.9160  -32.4726   23.8300 C   0  0  1  0  0  0
  -27.2154  -27.1915   20.1544 C   0  0  0  0  0  0
  -25.5930  -33.8531   24.2223 N   0  0  0  0  0  0
  -23.4363  -30.4728   21.5333 C   0  0  2  0  0  0
  -24.8867  -28.9027   20.1114 C   0  0  0  0  0  0
  -22.7514  -29.4603   22.4838 C   0  0  0  0  0  0
  -18.0295  -28.1421   22.8466 C   0  0  0  0  0  0
  -24.1484  -36.7263   23.2642 C   0  0  0  0  0  0
  -25.9873  -30.7404   21.3849 C   0  0  0  0  0  0
  -26.0578  -29.3543   20.7315 C   0  0  0  0  0  0
  -27.2222  -28.5119   20.7416 C   0  0  0  0  0  0
  -26.0252  -26.8311   19.4863 C   0  0  0  0  0  0
  -24.8786  -27.6505   19.4771 C   0  0  0  0  0  0
  -23.6625  -29.8003   20.1513 C   0  0  0  0  0  0
  -25.4117  -36.3052   24.0328 C   0  0  1  0  0  0
  -20.5907  -28.3735   23.1225 C   0  0  2  0  0  0
  -20.6792  -26.9447   22.5384 C   0  0  0  0  0  0
  -19.5776  -26.6410   21.5193 C   0  0  0  0  0  0
  -18.1958  -26.7964   22.1610 C   0  0  0  0  0  0
  -19.1557  -28.8897   23.2854 C   0  0  0  0  0  0
  -18.9476  -30.1492   23.8895 C   0  0  0  0  0  0
  -17.6477  -30.6617   24.0576 C   0  0  0  0  0  0
  -25.9048  -34.9424   23.5082 C   0  0  0  0  0  0
  -16.5361  -29.9112   23.6347 C   0  0  0  0  0  0
  -16.7285  -28.6532   23.0355 C   0  0  0  0  0  0
  -26.4504  -31.6571   25.0711 C   0  0  0  0  0  0
  -25.3723  -31.3742   26.1426 C   0  0  0  0  0  0
  -27.0357  -30.2981   24.6258 C   0  0  0  0  0  0
  -27.6056  -32.4312   25.7487 C   0  0  0  0  0  0
  -27.5578  -37.1798   24.8474 C   0  0  0  0  0  0
  -21.4220  -29.3065   22.3584 N   0  0  0  0  0  0
  -26.4278  -37.3770   23.9433 N   0  0  0  0  0  0
  -24.7058  -31.0413   22.0915 N   0  0  0  0  0  0
  -23.4171  -28.8140   23.2973 O   0  0  0  0  0  0
  -28.3007  -26.2711   20.2468 O   0  0  0  0  0  0
  -26.5625  -34.8902   22.4645 O   0  0  0  0  0  0
  -23.5489  -32.1299   23.7218 O   0  0  0  0  0  0
  -28.8960  -22.0709   21.1199 C   0  0  0  0  0  0
  -29.4850  -21.7778   22.3245 C   0  0  0  0  0  0
  -29.6184  -20.9164   20.4987 C   0  0  0  0  0  0
  -28.9595  -22.2189   23.6386 C   0  0  0  0  0  0
  -30.0276  -18.5072   19.2667 C   0  0  0  0  0  0
  -29.6194  -18.3932   21.6316 C   0  0  0  0  0  0
  -29.8199  -16.9193   19.1614 C   0  0  0  0  0  0
  -29.3183  -16.8163   21.5391 C   0  0  0  0  0  0
  -27.8365  -24.0401   22.3913 C   0  0  0  0  0  0
  -28.7285  -23.7118   21.1530 C   0  0  2  0  0  0
  -29.2850  -19.3157   20.3917 C   0  0  0  0  0  0
  -33.8661  -20.2328   24.0157 C   0  0  0  0  0  0
  -26.9522  -24.9505   26.8788 C   0  0  0  0  0  0
  -25.7197  -23.8305   24.3995 C   0  0  0  0  0  0
  -28.1900  -24.7538   20.0101 C   0  0  0  0  0  0
  -32.6017  -20.1654   23.1548 C   0  0  0  0  0  0
  -27.8327  -24.5598   25.6829 C   0  0  0  0  0  0
  -32.0131  -21.5515   22.8623 C   0  0  0  0  0  0
  -27.1826  -23.4961   24.7779 C   0  0  2  0  0  0
  -30.9027  -21.1151   20.7455 N   0  0  0  0  0  0
  -30.8102  -21.4683   22.0472 N   0  0  0  0  0  0
  -28.0368  -23.2094   23.6016 N   0  0  0  0  0  0
  -29.8786  -16.0431   20.3841 N   0  0  0  0  0  0
  -29.3340  -21.6697   24.6794 O   0  0  0  0  0  0
  -31.4672  -12.6143   19.1966 H   0  0  0  0  0  0
  -30.3527  -11.5512   19.9983 H   0  0  0  0  0  0
  -29.8111  -11.7413   17.5407 H   0  0  0  0  0  0
  -29.6365  -13.4723   17.7083 H   0  0  0  0  0  0
  -27.8983  -11.3014   18.9169 H   0  0  0  0  0  0
  -27.3839  -12.5274   17.7934 H   0  0  0  0  0  0
  -27.6106  -14.2710   19.4505 H   0  0  0  0  0  0
  -28.7343  -12.2578   21.4505 H   0  0  0  0  0  0
  -28.4025  -13.9516   21.7615 H   0  0  0  0  0  0
  -25.2779   -9.5686   22.4756 H   0  0  0  0  0  0
  -24.0028   -7.4613   22.7461 H   0  0  0  0  0  0
  -21.0847   -8.8807   19.8960 H   0  0  0  0  0  0
  -22.3738  -10.9680   19.6145 H   0  0  0  0  0  0
  -21.2060   -7.6153   23.9738 H   0  0  0  0  0  0
  -21.1462   -6.0515   25.9087 H   0  0  0  0  0  0
  -22.0603   -2.7618   23.2858 H   0  0  0  0  0  0
  -22.4122  -11.9909   22.4853 H   0  0  0  0  0  0
  -21.1069  -13.1216   22.2598 H   0  0  0  0  0  0
  -24.6513  -15.8506   20.5520 H   0  0  0  0  0  0
  -26.2738  -15.6415   20.1226 H   0  0  0  0  0  0
  -26.7216  -32.5377   23.1028 H   0  0  0  0  0  0
  -25.0110  -33.9654   25.0399 H   0  0  0  0  0  0
  -22.7362  -31.2989   21.3810 H   0  0  0  0  0  0
  -23.3743  -35.9594   23.3288 H   0  0  0  0  0  0
  -24.3563  -36.8901   22.2057 H   0  0  0  0  0  0
  -23.7232  -37.6460   23.6662 H   0  0  0  0  0  0
  -26.1333  -31.4919   20.6066 H   0  0  0  0  0  0
  -26.8634  -30.7986   22.0191 H   0  0  0  0  0  0
  -28.1129  -28.8458   21.2542 H   0  0  0  0  0  0
  -25.9451  -25.8882   18.9688 H   0  0  0  0  0  0
  -23.9877  -27.2999   18.9752 H   0  0  0  0  0  0
  -23.7992  -30.5735   19.3949 H   0  0  0  0  0  0
  -22.7790  -29.2404   19.8392 H   0  0  0  0  0  0
  -25.1308  -36.1882   25.0823 H   0  0  0  0  0  0
  -21.0043  -28.3351   24.1334 H   0  0  0  0  0  0
  -20.5697  -26.2368   23.3600 H   0  0  0  0  0  0
  -21.6667  -26.7467   22.1210 H   0  0  0  0  0  0
  -19.6936  -25.6312   21.1259 H   0  0  0  0  0  0
  -19.6737  -27.3182   20.6694 H   0  0  0  0  0  0
  -17.4226  -26.6683   21.4014 H   0  0  0  0  0  0
  -18.0386  -26.0116   22.9025 H   0  0  0  0  0  0
  -19.7949  -30.7317   24.2263 H   0  0  0  0  0  0
  -17.5028  -31.6295   24.5171 H   0  0  0  0  0  0
  -15.5371  -30.3020   23.7689 H   0  0  0  0  0  0
  -15.8677  -28.0865   22.7071 H   0  0  0  0  0  0
  -24.5907  -30.7074   25.7759 H   0  0  0  0  0  0
  -24.8884  -32.2910   26.4805 H   0  0  0  0  0  0
  -25.8025  -30.8955   27.0232 H   0  0  0  0  0  0
  -26.2950  -29.6722   24.1265 H   0  0  0  0  0  0
  -27.3981  -29.7268   25.4815 H   0  0  0  0  0  0
  -27.8860  -30.4237   23.9552 H   0  0  0  0  0  0
  -27.2673  -33.3632   26.2023 H   0  0  0  0  0  0
  -28.3883  -32.6834   25.0323 H   0  0  0  0  0  0
  -28.0690  -31.8453   26.5433 H   0  0  0  0  0  0
  -28.2604  -38.0089   24.7519 H   0  0  0  0  0  0
  -28.1061  -36.2621   24.6288 H   0  0  0  0  0  0
  -27.2295  -37.1445   25.8875 H   0  0  0  0  0  0
  -20.9383  -29.8770   21.6782 H   0  0  0  0  0  0
  -26.0137  -38.2842   24.1417 H   0  0  0  0  0  0
  -29.7624  -18.9525   18.3089 H   0  0  0  0  0  0
  -31.0969  -18.6911   19.3764 H   0  0  0  0  0  0
  -30.6838  -18.4976   21.8375 H   0  0  0  0  0  0
  -29.1127  -18.7919   22.5120 H   0  0  0  0  0  0
  -30.5199  -16.5373   18.4155 H   0  0  0  0  0  0
  -28.8362  -16.7424   18.7229 H   0  0  0  0  0  0
  -28.2368  -16.6836   21.5040 H   0  0  0  0  0  0
  -29.6423  -16.3387   22.4659 H   0  0  0  0  0  0
  -26.8024  -23.9181   22.0759 H   0  0  0  0  0  0
  -27.9487  -25.0911   22.6613 H   0  0  0  0  0  0
  -29.7206  -24.1146   21.3742 H   0  0  0  0  0  0
  -28.2120  -19.2287   20.2132 H   0  0  0  0  0  0
  -34.2363  -19.2290   24.2280 H   0  0  0  0  0  0
  -33.6673  -20.7310   24.9650 H   0  0  0  0  0  0
  -34.6615  -20.7822   23.5092 H   0  0  0  0  0  0
  -27.5076  -25.5653   27.5868 H   0  0  0  0  0  0
  -26.5843  -24.0730   27.4111 H   0  0  0  0  0  0
  -26.0855  -25.5294   26.5579 H   0  0  0  0  0  0
  -25.0670  -23.7868   25.2723 H   0  0  0  0  0  0
  -25.3190  -23.1200   23.6767 H   0  0  0  0  0  0
  -25.6307  -24.8324   23.9782 H   0  0  0  0  0  0
  -27.1627  -24.4664   19.8106 H   0  0  0  0  0  0
  -28.7305  -24.5435   19.0866 H   0  0  0  0  0  0
  -31.8527  -19.5619   23.6671 H   0  0  0  0  0  0
  -32.8256  -19.6508   22.2196 H   0  0  0  0  0  0
  -28.7859  -24.1790   26.0532 H   0  0  0  0  0  0
  -28.0714  -25.4538   25.1063 H   0  0  0  0  0  0
  -32.7404  -22.1723   22.3353 H   0  0  0  0  0  0
  -31.7894  -22.0724   23.7935 H   0  0  0  0  0  0
  -27.1100  -22.5814   25.3722 H   0  0  0  0  0  0
  1 25  1  0  0  0
  1 30  2  0  0  0
  1 93  1  0  0  0
  2  3  1  0  0  0
  2 25  1  0  0  0
  2 95  1  0  0  0
  2 96  1  0  0  0
  3  4  1  0  0  0
  3 97  1  0  0  0
  3 98  1  0  0  0
  4  5  1  0  0  0
  4 99  1  0  0  0
  4100  1  0  0  0
  5  6  1  0  0  0
  5 26  1  0  0  0
  5101  1  0  0  0
  6 25  1  0  0  0
  6102  1  0  0  0
  6103  1  0  0  0
  7  8  2  0  0  0
  7 26  1  0  0  0
  7 29  1  0  0  0
  8  9  1  0  0  0
  8 22  1  0  0  0
  9 10  1  0  0  0
  9 27  2  0  0  0
 10 11  2  0  0  0
 10 15  1  0  0  0
 11 12  1  0  0  0
 11104  1  0  0  0
 12 13  2  0  0  0
 12105  1  0  0  0
 13 14  1  0  0  0
 13 31  1  0  0  0
 14 15  2  0  0  0
 14106  1  0  0  0
 15107  1  0  0  0
 16 17  2  0  0  0
 16 21  1  0  0  0
 16 31  1  0  0  0
 17 18  1  0  0  0
 17108  1  0  0  0
 18 19  2  0  0  0
 18109  1  0  0  0
 19 20  1  0  0  0
 19 24  1  0  0  0
 20 21  2  0  0  0
 20110  1  0  0  0
 21 23  1  0  0  0
 22 28  1  0  0  0
 22 32  2  0  0  0
 26 27  1  0  0  0
 28111  1  0  0  0
 28112  1  0  0  0
 29113  1  0  0  0
 29114  1  0  0  0
 33 34  1  0  0  0
 33 66  1  0  0  0
 33 70  2  0  0  0
 34 36  1  0  0  0
 34 59  1  0  0  0
 34115  1  0  0  0
 35 44  2  0  0  0
 35 45  1  0  0  0
 35 68  1  0  0  0
 36 56  1  0  0  0
 36116  1  0  0  0
 37 39  1  0  0  0
 37 47  1  0  0  0
 37 66  1  0  0  0
 37117  1  0  0  0
 38 43  2  0  0  0
 38 46  1  0  0  0
 38 47  1  0  0  0
 39 64  1  0  0  0
 39 67  2  0  0  0
 40 52  1  0  0  0
 40 53  2  0  0  0
 40 58  1  0  0  0
 41118  1  0  0  0
 41119  1  0  0  0
 41120  1  0  0  0
 41 48  1  0  0  0
 42 43  1  0  0  0
 42 66  1  0  0  0
 42121  1  0  0  0
 42122  1  0  0  0
 43 44  1  0  0  0
 44123  1  0  0  0
 45 46  2  0  0  0
 45124  1  0  0  0
 46125  1  0  0  0
 47126  1  0  0  0
 47127  1  0  0  0
 48 56  1  0  0  0
 48 65  1  0  0  0
 48128  1  0  0  0
 49 50  1  0  0  0
 49 53  1  0  0  0
 49 64  1  0  0  0
 49129  1  0  0  0
 50 51  1  0  0  0
 50130  1  0  0  0
 50131  1  0  0  0
 51 52  1  0  0  0
 51132  1  0  0  0
 51133  1  0  0  0
 52134  1  0  0  0
 52135  1  0  0  0
 53 54  1  0  0  0
 54 55  2  0  0  0
 54136  1  0  0  0
 55 57  1  0  0  0
 55137  1  0  0  0
 56 69  2  0  0  0
 57 58  2  0  0  0
 57138  1  0  0  0
 58139  1  0  0  0
 59 60  1  0  0  0
 59 61  1  0  0  0
 59 62  1  0  0  0
 60140  1  0  0  0
 60141  1  0  0  0
 60142  1  0  0  0
 61143  1  0  0  0
 61144  1  0  0  0
 61145  1  0  0  0
 62146  1  0  0  0
 62147  1  0  0  0
 62148  1  0  0  0
 63 65  1  0  0  0
 63149  1  0  0  0
 63150  1  0  0  0
 63151  1  0  0  0
 64152  1  0  0  0
 65153  1  0  0  0
 68 85  1  0  0  0
 71 72  2  0  0  0
 71 73  1  0  0  0
 71 80  1  0  0  0
 72 74  1  0  0  0
 72 91  1  0  0  0
 73 90  2  0  0  0
 73 81  1  0  0  0
 74 92  1  0  0  0
 74 94  2  0  0  0
 75 77  1  0  0  0
 75 81  1  0  0  0
 75154  1  0  0  0
 75155  1  0  0  0
 76 78  1  0  0  0
 76 81  1  0  0  0
 76156  1  0  0  0
 76157  1  0  0  0
 77 93  1  0  0  0
 77158  1  0  0  0
 77159  1  0  0  0
 78 93  1  0  0  0
 78160  1  0  0  0
 78161  1  0  0  0
 79 80  1  0  0  0
 79 92  1  0  0  0
 79162  1  0  0  0
 79163  1  0  0  0
 80 85  1  0  0  0
 80164  1  0  0  0
 81165  1  0  0  0
 82 86  1  0  0  0
 82166  1  0  0  0
 82167  1  0  0  0
 82168  1  0  0  0
 83 87  1  0  0  0
 83169  1  0  0  0
 83170  1  0  0  0
 83171  1  0  0  0
 84172  1  0  0  0
 84173  1  0  0  0
 84174  1  0  0  0
 84 89  1  0  0  0
 85175  1  0  0  0
 85176  1  0  0  0
 86 88  1  0  0  0
 86177  1  0  0  0
 86178  1  0  0  0
 87 89  1  0  0  0
 87179  1  0  0  0
 87180  1  0  0  0
 88 91  1  0  0  0
 88181  1  0  0  0
 88182  1  0  0  0
 89 92  1  0  0  0
 89183  1  0  0  0
 90 91  1  0  0  0
M  ISO  4   1 100  68 101  85 101  93 100
M  END
> <chiral flag>
0

> <version>
0

> <s_m_source_file>
/data/baiqing/PycharmProjects/Reinvent-master-3.2/result/LINK_invent/BTK/process_docking_weight1_custom_sum_contain_oxygen_bond_distance_aromatic_linkinvent_7_9_3/rearranged_h_0199.sdf

> <i_m_source_file_index>
2

> <r_mmod_Potential_Energy-OPLS-2005>
1025.52490234375

> <r_mmod_Stretch_Energy-OPLS-2005>
195.855514526367

> <r_mmod_Bend_Energy-OPLS-2005>
347.473419189453

> <r_mmod_Torsional_Energy-OPLS-2005>
599.215881347656

> <r_mmod_Improper_Torsional_Energy-OPLS-2005>
61.5283889770508

> <r_mmod_Van_der_Waal_Energy-OPLS-2005>
124.513252258301

> <r_mmod_Electrostatic_Energy-OPLS-2005>
-223.298477172852

> <r_mmod_Solvation_Energy-OPLS-2005>
-209.978515625

> <b_mmod_Minimization_Converged-OPLS-2005>
0

> <r_mmod_RMS_Derivative-OPLS-2005>
3.90519142150879

$$$$
2
                    3D
 Structure written by MMmdl.
156165  0  0  1  0            999 V2000
  -30.5301  -14.9599   20.4344 C   0  0  0  0  0  0
  -30.4416  -12.6022   19.4932 C   0  0  0  0  0  0
  -29.5210  -12.5338   18.2526 C   0  0  0  0  0  0
  -28.0528  -12.3220   18.6684 C   0  0  0  0  0  0
  -27.6280  -13.2482   19.8375 C   0  0  2  0  0  0
  -28.6704  -13.2730   20.9750 C   0  0  0  0  0  0
  -25.2455  -13.8207   20.5709 C   0  0  0  0  0  0
  -24.1780  -13.0431   20.9250 C   0  0  0  0  0  0
  -24.6394  -11.6918   20.8761 C   0  0  0  0  0  0
  -23.9075  -10.4288   21.0401 C   0  0  0  0  0  0
  -24.3623   -9.4200   21.9181 C   0  0  0  0  0  0
  -23.6295   -8.2241   22.0747 C   0  0  0  0  0  0
  -22.4275   -8.0283   21.3544 C   0  0  0  0  0  0
  -21.9913   -9.0251   20.4638 C   0  0  0  0  0  0
  -22.7245  -10.2128   20.3049 C   0  0  0  0  0  0
  -21.6855   -6.0734   22.5276 C   0  0  0  0  0  0
  -21.4015   -6.5636   23.8209 C   0  0  0  0  0  0
  -21.3661   -5.6786   24.9173 C   0  0  0  0  0  0
  -21.6043   -4.3048   24.7219 C   0  0  0  0  0  0
  -21.8822   -3.8145   23.4340 C   0  0  0  0  0  0
  -21.9188   -4.6964   22.3395 C   0  0  0  0  0  0
  -22.7796  -13.5207   21.1897 C   0  0  0  0  0  0
  -22.1663   -4.2153   21.0972 F   0  0  0  0  0  0
  -21.5625   -3.4527   25.7729 F   0  0  0  0  0  0
  -29.9413  -13.6972   20.3741 N   0  0  0  0  0  0
  -26.2871  -12.9440   20.3218 N   0  0  0  0  0  0
  -25.9325  -11.6567   20.5728 N   0  0  0  0  0  0
  -22.0442  -12.8192   22.0443 N   0  0  0  0  0  0
  -25.4104  -15.1947   20.4120 N   0  0  0  0  0  0
  -31.7369  -15.0310   20.1808 O   0  0  0  0  0  0
  -21.6644   -6.8880   21.4240 O   0  0  0  0  0  0
  -22.3482  -14.5509   20.6728 O   0  0  0  0  0  0
  -24.6461  -31.8414   23.1874 C   0  0  0  0  0  0
  -25.9226  -32.4676   23.8272 C   0  0  1  0  0  0
  -27.2131  -27.1103   20.1530 C   0  0  0  0  0  0
  -25.5966  -33.8485   24.2182 N   0  0  0  0  0  0
  -23.4518  -30.4616   21.5334 C   0  0  2  0  0  0
  -24.8997  -28.8865   20.1111 C   0  0  0  0  0  0
  -22.7577  -29.4536   22.4851 C   0  0  0  0  0  0
  -18.0306  -28.1389   22.8478 C   0  0  0  0  0  0
  -24.1488  -36.7245   23.2647 C   0  0  0  0  0  0
  -26.0103  -30.7070   21.3920 C   0  0  0  0  0  0
  -26.0784  -29.3166   20.7332 C   0  0  0  0  0  0
  -27.2345  -28.4449   20.7360 C   0  0  0  0  0  0
  -26.0064  -26.7926   19.4895 C   0  0  0  0  0  0
  -24.8788  -27.6395   19.4734 C   0  0  0  0  0  0
  -23.6788  -29.7911   20.1528 C   0  0  0  0  0  0
  -25.4129  -36.3024   24.0311 C   0  0  1  0  0  0
  -20.5920  -28.3723   23.1227 C   0  0  2  0  0  0
  -20.6794  -26.9421   22.5404 C   0  0  0  0  0  0
  -19.5769  -26.6380   21.5209 C   0  0  0  0  0  0
  -18.1949  -26.7932   22.1617 C   0  0  0  0  0  0
  -19.1566  -28.8877   23.2844 C   0  0  0  0  0  0
  -18.9478  -30.1478   23.8865 C   0  0  0  0  0  0
  -17.6475  -30.6590   24.0557 C   0  0  0  0  0  0
  -25.9081  -34.9396   23.5058 C   0  0  0  0  0  0
  -16.5363  -29.9086   23.6341 C   0  0  0  0  0  0
  -16.7290  -28.6503   23.0361 C   0  0  0  0  0  0
  -26.4539  -31.6559   25.0728 C   0  0  0  0  0  0
  -25.3717  -31.3748   26.1415 C   0  0  0  0  0  0
  -27.0422  -30.2953   24.6341 C   0  0  0  0  0  0
  -27.6064  -32.4336   25.7504 C   0  0  0  0  0  0
  -27.5574  -37.1781   24.8472 C   0  0  0  0  0  0
  -21.4262  -29.3051   22.3590 N   0  0  0  0  0  0
  -26.4290  -37.3741   23.9406 N   0  0  0  0  0  0
  -24.7230  -31.0253   22.0925 N   0  0  0  0  0  0
  -23.4207  -28.8076   23.3011 O   0  0  0  0  0  0
  -28.2649  -26.1155   20.2218 O   0  0  0  0  0  0
  -26.5659  -34.8900   22.4630 O   0  0  0  0  0  0
  -23.5574  -32.1306   23.7083 O   0  0  0  0  0  0
  -27.8570  -23.8969   21.3472 C   0  0  0  0  0  0
  -29.1093  -18.8638   19.9039 C   0  0  0  0  0  0
  -29.6800  -19.9218   21.8248 C   0  0  0  0  0  0
  -28.8511  -23.1744   20.4545 C   0  0  2  0  0  0
  -30.0611  -17.7039   20.5675 C   0  0  1  0  0  0
  -30.1978  -18.4200   21.9441 C   0  0  2  0  0  0
  -28.0233  -24.5757   20.0128 C   0  0  2  0  0  0
  -28.5571  -21.5519   20.1219 C   0  0  0  0  0  0
  -29.4341  -20.2770   20.4178 N   0  0  0  0  0  0
  -29.7406  -16.1394   20.5859 N   0  0  0  0  0  0
  -29.4811  -17.6893   23.0054 N   0  3  0  0  0  0
  -31.4720  -12.7739   19.1781 H   0  0  0  0  0  0
  -30.4483  -11.6500   20.0265 H   0  0  0  0  0  0
  -29.8410  -11.7300   17.5883 H   0  0  0  0  0  0
  -29.6103  -13.4583   17.6804 H   0  0  0  0  0  0
  -27.9430  -11.2788   18.9678 H   0  0  0  0  0  0
  -27.3922  -12.4642   17.8121 H   0  0  0  0  0  0
  -27.5903  -14.2526   19.4151 H   0  0  0  0  0  0
  -28.7644  -12.2925   21.4444 H   0  0  0  0  0  0
  -28.3677  -13.9649   21.7620 H   0  0  0  0  0  0
  -25.2762   -9.5686   22.4764 H   0  0  0  0  0  0
  -24.0003   -7.4629   22.7459 H   0  0  0  0  0  0
  -21.0846   -8.8766   19.8934 H   0  0  0  0  0  0
  -22.3696  -10.9673   19.6166 H   0  0  0  0  0  0
  -21.2014   -7.6144   23.9720 H   0  0  0  0  0  0
  -21.1487   -6.0513   25.9074 H   0  0  0  0  0  0
  -22.0603   -2.7609   23.2834 H   0  0  0  0  0  0
  -22.4066  -11.9862   22.4848 H   0  0  0  0  0  0
  -21.1046  -13.1199   22.2627 H   0  0  0  0  0  0
  -24.6278  -15.8330   20.5033 H   0  0  0  0  0  0
  -26.2202  -15.6224   19.9832 H   0  0  0  0  0  0
  -26.7294  -32.5270   23.0993 H   0  0  0  0  0  0
  -25.0107  -33.9598   25.0328 H   0  0  0  0  0  0
  -22.7580  -31.2900   21.3776 H   0  0  0  0  0  0
  -23.3755  -35.9571   23.3302 H   0  0  0  0  0  0
  -24.3579  -36.8887   22.2067 H   0  0  0  0  0  0
  -23.7231  -37.6436   23.6688 H   0  0  0  0  0  0
  -26.1734  -31.4604   20.6198 H   0  0  0  0  0  0
  -26.8788  -30.7536   22.0382 H   0  0  0  0  0  0
  -28.1314  -28.7687   21.2455 H   0  0  0  0  0  0
  -25.8849  -25.8502   18.9836 H   0  0  0  0  0  0
  -23.9787  -27.3080   18.9717 H   0  0  0  0  0  0
  -23.8188  -30.5655   19.3983 H   0  0  0  0  0  0
  -22.7924  -29.2366   19.8396 H   0  0  0  0  0  0
  -25.1312  -36.1859   25.0802 H   0  0  0  0  0  0
  -21.0009  -28.3314   24.1350 H   0  0  0  0  0  0
  -20.5682  -26.2332   23.3626 H   0  0  0  0  0  0
  -21.6657  -26.7421   22.1202 H   0  0  0  0  0  0
  -19.6927  -25.6285   21.1261 H   0  0  0  0  0  0
  -19.6706  -27.3168   20.6724 H   0  0  0  0  0  0
  -17.4218  -26.6669   21.4025 H   0  0  0  0  0  0
  -18.0345  -26.0080   22.9022 H   0  0  0  0  0  0
  -19.7954  -30.7306   24.2204 H   0  0  0  0  0  0
  -17.5030  -31.6259   24.5168 H   0  0  0  0  0  0
  -15.5365  -30.2974   23.7690 H   0  0  0  0  0  0
  -15.8687  -28.0812   22.7093 H   0  0  0  0  0  0
  -24.5906  -30.7078   25.7732 H   0  0  0  0  0  0
  -24.8896  -32.2934   26.4776 H   0  0  0  0  0  0
  -25.8007  -30.8968   27.0232 H   0  0  0  0  0  0
  -26.3058  -29.6656   24.1338 H   0  0  0  0  0  0
  -27.4005  -29.7269   25.4934 H   0  0  0  0  0  0
  -27.8973  -30.4178   23.9693 H   0  0  0  0  0  0
  -27.2650  -33.3659   26.2013 H   0  0  0  0  0  0
  -28.3910  -32.6858   25.0357 H   0  0  0  0  0  0
  -28.0696  -31.8512   26.5481 H   0  0  0  0  0  0
  -28.2584  -38.0084   24.7516 H   0  0  0  0  0  0
  -28.1071  -36.2609   24.6300 H   0  0  0  0  0  0
  -27.2290  -37.1440   25.8876 H   0  0  0  0  0  0
  -20.9470  -29.8766   21.6762 H   0  0  0  0  0  0
  -26.0151  -38.2804   24.1414 H   0  0  0  0  0  0
  -28.2745  -24.3924   22.2206 H   0  0  0  0  0  0
  -26.8940  -23.4236   21.5248 H   0  0  0  0  0  0
  -28.0675  -18.6474   20.1484 H   0  0  0  0  0  0
  -29.1759  -18.8376   18.8153 H   0  0  0  0  0  0
  -30.3850  -20.6212   22.2775 H   0  0  0  0  0  0
  -28.7415  -20.0368   22.3701 H   0  0  0  0  0  0
  -29.9076  -23.3569   20.6404 H   0  0  0  0  0  0
  -31.0249  -17.7924   20.0640 H   0  0  0  0  0  0
  -31.2535  -18.4324   22.2192 H   0  0  0  0  0  0
  -27.3099  -24.3864   19.2170 H   0  0  0  0  0  0
  -28.4149  -21.5238   19.0406 H   0  0  0  0  0  0
  -27.5643  -21.3329   20.5183 H   0  0  0  0  0  0
  -28.7579  -15.9290   20.6733 H   0  0  0  0  0  0
  -28.4920  -17.6698   22.8344 H   0  0  0  0  0  0
  -29.6413  -18.1282   23.8948 H   0  0  0  0  0  0
  -29.8194  -16.7465   23.0593 H   0  0  0  0  0  0
  1 25  1  0  0  0
  1 30  2  0  0  0
  1 80  1  0  0  0
  2  3  1  0  0  0
  2 25  1  0  0  0
  2 82  1  0  0  0
  2 83  1  0  0  0
  3  4  1  0  0  0
  3 84  1  0  0  0
  3 85  1  0  0  0
  4  5  1  0  0  0
  4 86  1  0  0  0
  4 87  1  0  0  0
  5  6  1  0  0  0
  5 26  1  0  0  0
  5 88  1  0  0  0
  6 25  1  0  0  0
  6 89  1  0  0  0
  6 90  1  0  0  0
  7  8  2  0  0  0
  7 26  1  0  0  0
  7 29  1  0  0  0
  8  9  1  0  0  0
  8 22  1  0  0  0
  9 10  1  0  0  0
  9 27  2  0  0  0
 10 11  2  0  0  0
 10 15  1  0  0  0
 11 12  1  0  0  0
 11 91  1  0  0  0
 12 13  2  0  0  0
 12 92  1  0  0  0
 13 14  1  0  0  0
 13 31  1  0  0  0
 14 15  2  0  0  0
 14 93  1  0  0  0
 15 94  1  0  0  0
 16 17  2  0  0  0
 16 21  1  0  0  0
 16 31  1  0  0  0
 17 18  1  0  0  0
 17 95  1  0  0  0
 18 19  2  0  0  0
 18 96  1  0  0  0
 19 20  1  0  0  0
 19 24  1  0  0  0
 20 21  2  0  0  0
 20 97  1  0  0  0
 21 23  1  0  0  0
 22 28  1  0  0  0
 22 32  2  0  0  0
 26 27  1  0  0  0
 28 98  1  0  0  0
 28 99  1  0  0  0
 29100  1  0  0  0
 29101  1  0  0  0
 33 34  1  0  0  0
 33 66  1  0  0  0
 33 70  2  0  0  0
 34 36  1  0  0  0
 34 59  1  0  0  0
 34102  1  0  0  0
 35 44  2  0  0  0
 35 45  1  0  0  0
 35 68  1  0  0  0
 36 56  1  0  0  0
 36103  1  0  0  0
 37 39  1  0  0  0
 37 47  1  0  0  0
 37 66  1  0  0  0
 37104  1  0  0  0
 38 43  2  0  0  0
 38 46  1  0  0  0
 38 47  1  0  0  0
 39 64  1  0  0  0
 39 67  2  0  0  0
 40 52  1  0  0  0
 40 53  2  0  0  0
 40 58  1  0  0  0
 41105  1  0  0  0
 41106  1  0  0  0
 41107  1  0  0  0
 41 48  1  0  0  0
 42 43  1  0  0  0
 42 66  1  0  0  0
 42108  1  0  0  0
 42109  1  0  0  0
 43 44  1  0  0  0
 44110  1  0  0  0
 45 46  2  0  0  0
 45111  1  0  0  0
 46112  1  0  0  0
 47113  1  0  0  0
 47114  1  0  0  0
 48 56  1  0  0  0
 48 65  1  0  0  0
 48115  1  0  0  0
 49 50  1  0  0  0
 49 53  1  0  0  0
 49 64  1  0  0  0
 49116  1  0  0  0
 50 51  1  0  0  0
 50117  1  0  0  0
 50118  1  0  0  0
 51 52  1  0  0  0
 51119  1  0  0  0
 51120  1  0  0  0
 52121  1  0  0  0
 52122  1  0  0  0
 53 54  1  0  0  0
 54 55  2  0  0  0
 54123  1  0  0  0
 55 57  1  0  0  0
 55124  1  0  0  0
 56 69  2  0  0  0
 57 58  2  0  0  0
 57125  1  0  0  0
 58126  1  0  0  0
 59 60  1  0  0  0
 59 61  1  0  0  0
 59 62  1  0  0  0
 60127  1  0  0  0
 60128  1  0  0  0
 60129  1  0  0  0
 61130  1  0  0  0
 61131  1  0  0  0
 61132  1  0  0  0
 62133  1  0  0  0
 62134  1  0  0  0
 62135  1  0  0  0
 63 65  1  0  0  0
 63136  1  0  0  0
 63137  1  0  0  0
 63138  1  0  0  0
 64139  1  0  0  0
 65140  1  0  0  0
 68 77  1  0  0  0
 71 74  1  0  0  0
 71 77  1  0  0  0
 71141  1  0  0  0
 71142  1  0  0  0
 72 75  1  0  0  0
 72 79  1  0  0  0
 72143  1  0  0  0
 72144  1  0  0  0
 73 76  1  0  0  0
 73 79  1  0  0  0
 73145  1  0  0  0
 73146  1  0  0  0
 74 77  1  0  0  0
 74 78  1  0  0  0
 74147  1  0  0  0
 75 76  1  0  0  0
 75 80  1  0  0  0
 75148  1  0  0  0
 76 81  1  0  0  0
 76149  1  0  0  0
 77150  1  0  0  0
 78 79  1  0  0  0
 78151  1  0  0  0
 78152  1  0  0  0
 80153  1  0  0  0
 81154  1  0  0  0
 81155  1  0  0  0
 81156  1  0  0  0
M  CHG  1  81   1
M  ISO  4   1 100  68 101  77 101  80 100
M  END
> <chiral flag>
0

> <version>
0

> <s_m_source_file>
/data/baiqing/PycharmProjects/Reinvent-master-3.2/result/LINK_invent/BTK/process_docking_weight1_custom_sum_contain_oxygen_bond_distance_aromatic_linkinvent_7_9_3/rearranged_h_0199.sdf

> <i_m_source_file_index>
3

> <r_mmod_Potential_Energy-OPLS-2005>
320.158477783203

> <r_mmod_Stretch_Energy-OPLS-2005>
277.109436035156

> <r_mmod_Bend_Energy-OPLS-2005>
310.133087158203

> <r_mmod_Torsional_Energy-OPLS-2005>
319.987670898438

> <r_mmod_Improper_Torsional_Energy-OPLS-2005>
4.41506671905518

> <r_mmod_Van_der_Waal_Energy-OPLS-2005>
112.972534179688

> <r_mmod_Electrostatic_Energy-OPLS-2005>
-375.030181884766

> <r_mmod_Solvation_Energy-OPLS-2005>
-536.772644042969

> <b_mmod_Minimization_Converged-OPLS-2005>
0

> <r_mmod_RMS_Derivative-OPLS-2005>
1.5990686416626

$$$$
3
                    3D
 Structure written by MMmdl.
163172  0  0  1  0            999 V2000
  -30.6995  -14.6448   20.4784 C   0  0  0  0  0  0
  -30.4160  -12.4034   19.4402 C   0  0  0  0  0  0
  -29.4817  -12.4728   18.2150 C   0  0  0  0  0  0
  -28.0177  -12.2765   18.6504 C   0  0  0  0  0  0
  -27.6267  -13.1884   19.8390 C   0  0  2  0  0  0
  -28.6870  -13.1661   20.9665 C   0  0  0  0  0  0
  -25.2489  -13.8056   20.5721 C   0  0  0  0  0  0
  -24.1755  -13.0370   20.9240 C   0  0  0  0  0  0
  -24.6302  -11.6833   20.8799 C   0  0  0  0  0  0
  -23.8984  -10.4245   21.0444 C   0  0  0  0  0  0
  -24.3556   -9.4165   21.9212 C   0  0  0  0  0  0
  -23.6249   -8.2198   22.0760 C   0  0  0  0  0  0
  -22.4241   -8.0240   21.3534 C   0  0  0  0  0  0
  -21.9866   -9.0212   20.4638 C   0  0  0  0  0  0
  -22.7177  -10.2096   20.3067 C   0  0  0  0  0  0
  -21.6834   -6.0707   22.5274 C   0  0  0  0  0  0
  -21.4000   -6.5623   23.8206 C   0  0  0  0  0  0
  -21.3657   -5.6785   24.9171 C   0  0  0  0  0  0
  -21.6044   -4.3045   24.7229 C   0  0  0  0  0  0
  -21.8821   -3.8130   23.4355 C   0  0  0  0  0  0
  -21.9184   -4.6939   22.3400 C   0  0  0  0  0  0
  -22.7791  -13.5189   21.1888 C   0  0  0  0  0  0
  -22.1659   -4.2118   21.0982 F   0  0  0  0  0  0
  -21.5630   -3.4540   25.7750 F   0  0  0  0  0  0
  -29.9972  -13.4697   20.3717 N   0  0  0  0  0  0
  -26.2859  -12.9172   20.3318 N   0  0  0  0  0  0
  -25.9214  -11.6373   20.5821 N   0  0  0  0  0  0
  -22.0431  -12.8185   22.0433 N   0  0  0  0  0  0
  -25.4185  -15.1783   20.4085 N   0  0  0  0  0  0
  -31.9032  -14.6869   20.2160 O   0  0  0  0  0  0
  -21.6614   -6.8839   21.4227 O   0  0  0  0  0  0
  -22.3505  -14.5508   20.6731 O   0  0  0  0  0  0
  -24.6246  -31.8609   23.2023 C   0  0  0  0  0  0
  -25.9102  -32.4784   23.8349 C   0  0  1  0  0  0
  -27.2301  -27.3445   20.1021 C   0  0  0  0  0  0
  -25.5918  -33.8580   24.2287 N   0  0  0  0  0  0
  -23.4147  -30.4860   21.5438 C   0  0  2  0  0  0
  -24.8588  -28.9378   20.1128 C   0  0  0  0  0  0
  -22.7456  -29.4635   22.4916 C   0  0  0  0  0  0
  -18.0290  -28.1414   22.8471 C   0  0  0  0  0  0
  -24.1491  -36.7305   23.2638 C   0  0  0  0  0  0
  -25.9509  -30.8024   21.3606 C   0  0  0  0  0  0
  -26.0249  -29.4267   20.7119 C   0  0  0  0  0  0
  -27.2088  -28.6382   20.7005 C   0  0  0  0  0  0
  -26.0305  -26.8873   19.5049 C   0  0  0  0  0  0
  -24.8610  -27.6721   19.5057 C   0  0  0  0  0  0
  -23.6270  -29.8183   20.1595 C   0  0  0  0  0  0
  -25.4115  -36.3079   24.0317 C   0  0  1  0  0  0
  -20.5880  -28.3704   23.1295 C   0  0  2  0  0  0
  -20.6771  -26.9433   22.5400 C   0  0  0  0  0  0
  -19.5752  -26.6417   21.5196 C   0  0  0  0  0  0
  -18.1939  -26.7957   22.1615 C   0  0  0  0  0  0
  -19.1538  -28.8874   23.2884 C   0  0  0  0  0  0
  -18.9458  -30.1471   23.8902 C   0  0  0  0  0  0
  -17.6457  -30.6604   24.0571 C   0  0  0  0  0  0
  -25.9052  -34.9445   23.5105 C   0  0  0  0  0  0
  -16.5351  -29.9115   23.6325 C   0  0  0  0  0  0
  -16.7277  -28.6539   23.0325 C   0  0  0  0  0  0
  -26.4506  -31.6569   25.0691 C   0  0  0  0  0  0
  -25.3752  -31.3597   26.1413 C   0  0  0  0  0  0
  -27.0353  -30.3033   24.6042 C   0  0  0  0  0  0
  -27.6081  -32.4267   25.7479 C   0  0  0  0  0  0
  -27.5578  -37.1822   24.8465 C   0  0  0  0  0  0
  -21.4165  -29.3059   22.3675 N   0  0  0  0  0  0
  -26.4295  -37.3773   23.9394 N   0  0  0  0  0  0
  -24.6830  -31.0655   22.0944 N   0  0  0  0  0  0
  -23.4201  -28.8163   23.2972 O   0  0  0  0  0  0
  -28.3970  -26.5744   20.1493 O   0  0  0  0  0  0
  -26.5628  -34.8899   22.4678 O   0  0  0  0  0  0
  -23.5420  -32.1391   23.7367 O   0  0  0  0  0  0
  -29.7791  -23.7382   21.2782 C   0  0  0  0  0  0
  -30.1357  -22.2229   21.2720 C   0  0  0  0  0  0
  -30.5872  -18.3468   21.1854 C   0  0  0  0  0  0
  -29.0483  -17.7790   19.3777 C   0  0  0  0  0  0
  -28.4426  -22.6018   19.6298 C   0  0  0  0  0  0
  -30.5337  -16.8572   21.6970 C   0  0  0  0  0  0
  -28.9342  -16.3153   19.8898 C   0  0  0  0  0  0
  -28.5196  -23.9534   20.4067 C   0  0  2  0  0  0
  -28.9936  -21.4736   20.5596 C   0  0  1  0  0  0
  -29.3083  -18.8464   20.4630 C   0  0  0  0  0  0
  -28.5135  -25.2594   19.5083 C   0  0  0  0  0  0
  -30.0240  -15.8189   20.7554 N   0  0  0  0  0  0
  -29.4171  -20.2196   19.8304 N   0  3  0  0  0  0
  -31.4538  -12.5081   19.1202 H   0  0  0  0  0  0
  -30.3474  -11.4290   19.9264 H   0  0  0  0  0  0
  -29.7551  -11.7089   17.4862 H   0  0  0  0  0  0
  -29.5930  -13.4331   17.7095 H   0  0  0  0  0  0
  -27.8954  -11.2305   18.9357 H   0  0  0  0  0  0
  -27.3444  -12.4404   17.8079 H   0  0  0  0  0  0
  -27.5701  -14.1762   19.4079 H   0  0  0  0  0  0
  -28.7145  -12.1929   21.4562 H   0  0  0  0  0  0
  -28.4316  -13.8939   21.7388 H   0  0  0  0  0  0
  -25.2696   -9.5647   22.4799 H   0  0  0  0  0  0
  -23.9953   -7.4584   22.7481 H   0  0  0  0  0  0
  -21.0803   -8.8718   19.8944 H   0  0  0  0  0  0
  -22.3633  -10.9638   19.6181 H   0  0  0  0  0  0
  -21.1996   -7.6135   23.9689 H   0  0  0  0  0  0
  -21.1481   -6.0527   25.9072 H   0  0  0  0  0  0
  -22.0606   -2.7594   23.2868 H   0  0  0  0  0  0
  -22.4033  -11.9826   22.4799 H   0  0  0  0  0  0
  -21.1050  -13.1207   22.2653 H   0  0  0  0  0  0
  -24.6499  -15.8313   20.5136 H   0  0  0  0  0  0
  -26.2661  -15.6146   20.0738 H   0  0  0  0  0  0
  -26.7166  -32.5485   23.1098 H   0  0  0  0  0  0
  -25.0003  -33.9716   25.0385 H   0  0  0  0  0  0
  -22.7077  -31.3062   21.4022 H   0  0  0  0  0  0
  -23.3727  -35.9665   23.3280 H   0  0  0  0  0  0
  -24.3583  -36.8972   22.2060 H   0  0  0  0  0  0
  -23.7276  -37.6508   23.6689 H   0  0  0  0  0  0
  -26.0607  -31.5571   20.5809 H   0  0  0  0  0  0
  -26.8429  -30.8716   21.9716 H   0  0  0  0  0  0
  -28.1089  -29.0106   21.1694 H   0  0  0  0  0  0
  -25.9475  -25.9136   19.0486 H   0  0  0  0  0  0
  -23.9612  -27.2870   19.0463 H   0  0  0  0  0  0
  -23.7526  -30.5962   19.4059 H   0  0  0  0  0  0
  -22.7449  -29.2522   19.8533 H   0  0  0  0  0  0
  -25.1298  -36.1938   25.0809 H   0  0  0  0  0  0
  -20.9979  -28.3289   24.1413 H   0  0  0  0  0  0
  -20.5681  -26.2300   23.3585 H   0  0  0  0  0  0
  -21.6643  -26.7488   22.1201 H   0  0  0  0  0  0
  -19.6909  -25.6327   21.1235 H   0  0  0  0  0  0
  -19.6706  -27.3199   20.6695 H   0  0  0  0  0  0
  -17.4202  -26.6675   21.4032 H   0  0  0  0  0  0
  -18.0357  -26.0118   22.9035 H   0  0  0  0  0  0
  -19.7931  -30.7289   24.2272 H   0  0  0  0  0  0
  -17.5017  -31.6274   24.5199 H   0  0  0  0  0  0
  -15.5353  -30.3023   23.7637 H   0  0  0  0  0  0
  -15.8671  -28.0880   22.7008 H   0  0  0  0  0  0
  -24.6007  -30.6873   25.7704 H   0  0  0  0  0  0
  -24.8819  -32.2683   26.4865 H   0  0  0  0  0  0
  -25.8119  -30.8782   27.0173 H   0  0  0  0  0  0
  -26.2886  -29.6764   24.1152 H   0  0  0  0  0  0
  -27.4218  -29.7302   25.4477 H   0  0  0  0  0  0
  -27.8671  -30.4371   23.9119 H   0  0  0  0  0  0
  -27.2767  -33.3621   26.1987 H   0  0  0  0  0  0
  -28.3951  -32.6723   25.0335 H   0  0  0  0  0  0
  -28.0658  -31.8399   26.5455 H   0  0  0  0  0  0
  -28.2582  -38.0133   24.7524 H   0  0  0  0  0  0
  -28.1104  -36.2667   24.6300 H   0  0  0  0  0  0
  -27.2282  -37.1463   25.8865 H   0  0  0  0  0  0
  -20.9321  -29.8837   21.6942 H   0  0  0  0  0  0
  -26.0170  -38.2850   24.1393 H   0  0  0  0  0  0
  -30.6234  -24.3149   20.8964 H   0  0  0  0  0  0
  -29.5998  -24.0914   22.2942 H   0  0  0  0  0  0
  -30.2976  -21.8378   22.2798 H   0  0  0  0  0  0
  -31.0734  -22.0874   20.7305 H   0  0  0  0  0  0
  -31.4412  -18.4479   20.5142 H   0  0  0  0  0  0
  -30.7978  -19.0039   22.0312 H   0  0  0  0  0  0
  -28.1317  -18.0209   18.8377 H   0  0  0  0  0  0
  -29.8467  -17.8196   18.6349 H   0  0  0  0  0  0
  -29.0632  -22.6750   18.7356 H   0  0  0  0  0  0
  -27.4246  -22.3918   19.2973 H   0  0  0  0  0  0
  -29.8855  -16.8178   22.5734 H   0  0  0  0  0  0
  -31.5247  -16.5789   22.0609 H   0  0  0  0  0  0
  -28.8850  -15.7022   18.9909 H   0  0  0  0  0  0
  -28.0012  -16.1950   20.4383 H   0  0  0  0  0  0
  -27.6523  -23.9915   21.0674 H   0  0  0  0  0  0
  -28.2172  -21.2265   21.2862 H   0  0  0  0  0  0
  -28.4662  -18.8428   21.1578 H   0  0  0  0  0  0
  -27.7993  -25.1319   18.6986 H   0  0  0  0  0  0
  -29.4641  -25.2859   18.9760 H   0  0  0  0  0  0
  -30.3272  -20.3463   19.4185 H   0  0  0  0  0  0
  -28.7723  -20.1750   19.0584 H   0  0  0  0  0  0
  1 25  1  0  0  0
  1 30  2  0  0  0
  1 82  1  0  0  0
  2  3  1  0  0  0
  2 25  1  0  0  0
  2 84  1  0  0  0
  2 85  1  0  0  0
  3  4  1  0  0  0
  3 86  1  0  0  0
  3 87  1  0  0  0
  4  5  1  0  0  0
  4 88  1  0  0  0
  4 89  1  0  0  0
  5  6  1  0  0  0
  5 26  1  0  0  0
  5 90  1  0  0  0
  6 25  1  0  0  0
  6 91  1  0  0  0
  6 92  1  0  0  0
  7  8  2  0  0  0
  7 26  1  0  0  0
  7 29  1  0  0  0
  8  9  1  0  0  0
  8 22  1  0  0  0
  9 10  1  0  0  0
  9 27  2  0  0  0
 10 11  2  0  0  0
 10 15  1  0  0  0
 11 12  1  0  0  0
 11 93  1  0  0  0
 12 13  2  0  0  0
 12 94  1  0  0  0
 13 14  1  0  0  0
 13 31  1  0  0  0
 14 15  2  0  0  0
 14 95  1  0  0  0
 15 96  1  0  0  0
 16 17  2  0  0  0
 16 21  1  0  0  0
 16 31  1  0  0  0
 17 18  1  0  0  0
 17 97  1  0  0  0
 18 19  2  0  0  0
 18 98  1  0  0  0
 19 20  1  0  0  0
 19 24  1  0  0  0
 20 21  2  0  0  0
 20 99  1  0  0  0
 21 23  1  0  0  0
 22 28  1  0  0  0
 22 32  2  0  0  0
 26 27  1  0  0  0
 28100  1  0  0  0
 28101  1  0  0  0
 29102  1  0  0  0
 29103  1  0  0  0
 33 34  1  0  0  0
 33 66  1  0  0  0
 33 70  2  0  0  0
 34 36  1  0  0  0
 34 59  1  0  0  0
 34104  1  0  0  0
 35 44  2  0  0  0
 35 45  1  0  0  0
 35 68  1  0  0  0
 36 56  1  0  0  0
 36105  1  0  0  0
 37 39  1  0  0  0
 37 47  1  0  0  0
 37 66  1  0  0  0
 37106  1  0  0  0
 38 43  2  0  0  0
 38 46  1  0  0  0
 38 47  1  0  0  0
 39 64  1  0  0  0
 39 67  2  0  0  0
 40 52  1  0  0  0
 40 53  2  0  0  0
 40 58  1  0  0  0
 41107  1  0  0  0
 41108  1  0  0  0
 41109  1  0  0  0
 41 48  1  0  0  0
 42 43  1  0  0  0
 42 66  1  0  0  0
 42110  1  0  0  0
 42111  1  0  0  0
 43 44  1  0  0  0
 44112  1  0  0  0
 45 46  2  0  0  0
 45113  1  0  0  0
 46114  1  0  0  0
 47115  1  0  0  0
 47116  1  0  0  0
 48 56  1  0  0  0
 48 65  1  0  0  0
 48117  1  0  0  0
 49 50  1  0  0  0
 49 53  1  0  0  0
 49 64  1  0  0  0
 49118  1  0  0  0
 50 51  1  0  0  0
 50119  1  0  0  0
 50120  1  0  0  0
 51 52  1  0  0  0
 51121  1  0  0  0
 51122  1  0  0  0
 52123  1  0  0  0
 52124  1  0  0  0
 53 54  1  0  0  0
 54 55  2  0  0  0
 54125  1  0  0  0
 55 57  1  0  0  0
 55126  1  0  0  0
 56 69  2  0  0  0
 57 58  2  0  0  0
 57127  1  0  0  0
 58128  1  0  0  0
 59 60  1  0  0  0
 59 61  1  0  0  0
 59 62  1  0  0  0
 60129  1  0  0  0
 60130  1  0  0  0
 60131  1  0  0  0
 61132  1  0  0  0
 61133  1  0  0  0
 61134  1  0  0  0
 62135  1  0  0  0
 62136  1  0  0  0
 62137  1  0  0  0
 63 65  1  0  0  0
 63138  1  0  0  0
 63139  1  0  0  0
 63140  1  0  0  0
 64141  1  0  0  0
 65142  1  0  0  0
 68 81  1  0  0  0
 71 72  1  0  0  0
 71 78  1  0  0  0
 71143  1  0  0  0
 71144  1  0  0  0
 72 79  1  0  0  0
 72145  1  0  0  0
 72146  1  0  0  0
 73 76  1  0  0  0
 73 80  1  0  0  0
 73147  1  0  0  0
 73148  1  0  0  0
 74 77  1  0  0  0
 74 80  1  0  0  0
 74149  1  0  0  0
 74150  1  0  0  0
 75 78  1  0  0  0
 75 79  1  0  0  0
 75151  1  0  0  0
 75152  1  0  0  0
 76 82  1  0  0  0
 76153  1  0  0  0
 76154  1  0  0  0
 77 82  1  0  0  0
 77155  1  0  0  0
 77156  1  0  0  0
 78 81  1  0  0  0
 78157  1  0  0  0
 79 83  1  0  0  0
 79158  1  0  0  0
 80 83  1  0  0  0
 80159  1  0  0  0
 81160  1  0  0  0
 81161  1  0  0  0
 83162  1  0  0  0
 83163  1  0  0  0
M  CHG  1  83   1
M  ISO  4   1 100  68 101  81 101  82 100
M  END
> <chiral flag>
0

> <version>
0

> <s_m_source_file>
/data/baiqing/PycharmProjects/Reinvent-master-3.2/result/LINK_invent/BTK/process_docking_weight1_custom_sum_contain_oxygen_bond_distance_aromatic_linkinvent_7_9_3/rearranged_h_0199.sdf

> <i_m_source_file_index>
4

> <r_mmod_Potential_Energy-OPLS-2005>
209.216934204102

> <r_mmod_Stretch_Energy-OPLS-2005>
65.2275772094727

> <r_mmod_Bend_Energy-OPLS-2005>
176.703887939453

> <r_mmod_Torsional_Energy-OPLS-2005>
386.531921386719

> <r_mmod_Improper_Torsional_Energy-OPLS-2005>
3.2895200252533

> <r_mmod_Van_der_Waal_Energy-OPLS-2005>
125.96208190918

> <r_mmod_Electrostatic_Energy-OPLS-2005>
-144.714126586914

> <r_mmod_Solvation_Energy-OPLS-2005>
-455.120727539062

> <b_mmod_Minimization_Converged-OPLS-2005>
0

> <r_mmod_RMS_Derivative-OPLS-2005>
2.04825186729431

$$$$
4
                    3D
 Structure written by MMmdl.
159168  0  0  1  0            999 V2000
  -30.6881  -14.5575   20.4959 C   0  0  0  0  0  0
  -30.4149  -12.3370   19.4465 C   0  0  0  0  0  0
  -29.4979  -12.4959   18.2154 C   0  0  0  0  0  0
  -28.0193  -12.3523   18.6253 C   0  0  0  0  0  0
  -27.6515  -13.2183   19.8607 C   0  0  2  0  0  0
  -28.6960  -13.0726   20.9916 C   0  0  0  0  0  0
  -25.2550  -13.8178   20.5675 C   0  0  0  0  0  0
  -24.1825  -13.0443   20.9192 C   0  0  0  0  0  0
  -24.6391  -11.6916   20.8743 C   0  0  0  0  0  0
  -23.9058  -10.4299   21.0408 C   0  0  0  0  0  0
  -24.3614   -9.4214   21.9187 C   0  0  0  0  0  0
  -23.6297   -8.2246   22.0755 C   0  0  0  0  0  0
  -22.4281   -8.0282   21.3546 C   0  0  0  0  0  0
  -21.9910   -9.0248   20.4642 C   0  0  0  0  0  0
  -22.7233  -10.2133   20.3053 C   0  0  0  0  0  0
  -21.6851   -6.0735   22.5281 C   0  0  0  0  0  0
  -21.4011   -6.5641   23.8214 C   0  0  0  0  0  0
  -21.3660   -5.6792   24.9178 C   0  0  0  0  0  0
  -21.6044   -4.3053   24.7229 C   0  0  0  0  0  0
  -21.8820   -3.8145   23.4347 C   0  0  0  0  0  0
  -21.9195   -4.6962   22.3404 C   0  0  0  0  0  0
  -22.7850  -13.5238   21.1855 C   0  0  0  0  0  0
  -22.1664   -4.2147   21.0979 F   0  0  0  0  0  0
  -21.5629   -3.4534   25.7742 F   0  0  0  0  0  0
  -30.0177  -13.3695   20.4226 N   0  0  0  0  0  0
  -26.2977  -12.9361   20.3309 N   0  0  0  0  0  0
  -25.9320  -11.6513   20.5758 N   0  0  0  0  0  0
  -22.0484  -12.8226   22.0397 N   0  0  0  0  0  0
  -25.4256  -15.1901   20.4076 N   0  0  0  0  0  0
  -31.8643  -14.6334   20.1283 O   0  0  0  0  0  0
  -21.6643   -6.8878   21.4243 O   0  0  0  0  0  0
  -22.3547  -14.5552   20.6711 O   0  0  0  0  0  0
  -24.6183  -31.8655   23.2060 C   0  0  0  0  0  0
  -25.9064  -32.4800   23.8373 C   0  0  1  0  0  0
  -27.2260  -27.3945   20.1110 C   0  0  0  0  0  0
  -25.5915  -33.8601   24.2306 N   0  0  0  0  0  0
  -23.4080  -30.4887   21.5470 C   0  0  2  0  0  0
  -24.8543  -28.9468   20.1138 C   0  0  0  0  0  0
  -22.7425  -29.4659   22.4972 C   0  0  0  0  0  0
  -18.0281  -28.1384   22.8488 C   0  0  0  0  0  0
  -24.1484  -36.7292   23.2641 C   0  0  0  0  0  0
  -25.9403  -30.8203   21.3628 C   0  0  0  0  0  0
  -26.0178  -29.4517   20.7095 C   0  0  0  0  0  0
  -27.2110  -28.6860   20.6977 C   0  0  0  0  0  0
  -26.0474  -26.9120   19.5070 C   0  0  0  0  0  0
  -24.8662  -27.6791   19.5060 C   0  0  0  0  0  0
  -23.6178  -29.8183   20.1625 C   0  0  0  0  0  0
  -25.4106  -36.3091   24.0337 C   0  0  1  0  0  0
  -20.5874  -28.3673   23.1316 C   0  0  2  0  0  0
  -20.6771  -26.9405   22.5425 C   0  0  0  0  0  0
  -19.5751  -26.6388   21.5221 C   0  0  0  0  0  0
  -18.1925  -26.7936   22.1617 C   0  0  0  0  0  0
  -19.1529  -28.8842   23.2903 C   0  0  0  0  0  0
  -18.9458  -30.1448   23.8904 C   0  0  0  0  0  0
  -17.6458  -30.6587   24.0562 C   0  0  0  0  0  0
  -25.9042  -34.9463   23.5118 C   0  0  0  0  0  0
  -16.5350  -29.9083   23.6330 C   0  0  0  0  0  0
  -16.7267  -28.6508   23.0340 C   0  0  0  0  0  0
  -26.4483  -31.6579   25.0707 C   0  0  0  0  0  0
  -25.3737  -31.3692   26.1442 C   0  0  0  0  0  0
  -27.0323  -30.3021   24.6091 C   0  0  0  0  0  0
  -27.6052  -32.4302   25.7483 C   0  0  0  0  0  0
  -27.5580  -37.1795   24.8463 C   0  0  0  0  0  0
  -21.4152  -29.3040   22.3710 N   0  0  0  0  0  0
  -26.4285  -37.3781   23.9417 N   0  0  0  0  0  0
  -24.6741  -31.0730   22.0968 N   0  0  0  0  0  0
  -23.4186  -28.8218   23.3036 O   0  0  0  0  0  0
  -28.3591  -26.6003   20.1237 O   0  0  0  0  0  0
  -26.5602  -34.8930   22.4678 O   0  0  0  0  0  0
  -23.5365  -32.1425   23.7432 O   0  0  0  0  0  0
  -29.2404  -18.0399   20.6893 C   0  0  0  0  0  0
  -30.8955  -19.7831   20.3590 C   0  0  0  0  0  0
  -29.5673  -19.4188   20.5287 C   0  0  0  0  0  0
  -31.8873  -18.7874   20.3548 C   0  0  0  0  0  0
  -30.2857  -17.0622   20.6618 C   0  0  0  0  0  0
  -31.0058  -21.2480   20.2014 C   0  0  0  0  0  0
  -29.6431  -21.8297   20.2710 C   0  0  0  0  0  0
  -29.4544  -23.1714   20.0813 C   0  0  0  0  0  0
  -28.6606  -20.6595   20.5162 C   0  0  2  0  0  0
  -33.3601  -19.1029   20.1680 C   0  0  0  0  0  0
  -27.8824  -20.7925   21.8347 C   0  0  0  0  0  0
  -28.1739  -24.0226   20.0325 C   0  0  0  0  0  0
  -28.2404  -25.3526   20.8600 C   0  0  0  0  0  0
  -31.5742  -17.4772   20.5106 N   0  0  0  0  0  0
  -29.9409  -15.6622   20.7906 N   0  0  0  0  0  0
  -32.0544  -21.8780   20.0355 O   0  0  0  0  0  0
  -31.4623  -12.4135   19.1507 H   0  0  0  0  0  0
  -30.3028  -11.3425   19.8816 H   0  0  0  0  0  0
  -29.7511  -11.7529   17.4578 H   0  0  0  0  0  0
  -29.6601  -13.4708   17.7532 H   0  0  0  0  0  0
  -27.8405  -11.2992   18.8453 H   0  0  0  0  0  0
  -27.3691  -12.6003   17.7852 H   0  0  0  0  0  0
  -27.6713  -14.2545   19.5234 H   0  0  0  0  0  0
  -28.6841  -12.0594   21.3961 H   0  0  0  0  0  0
  -28.4598  -13.7314   21.8285 H   0  0  0  0  0  0
  -25.2763   -9.5699   22.4755 H   0  0  0  0  0  0
  -24.0010   -7.4634   22.7472 H   0  0  0  0  0  0
  -21.0843   -8.8758   19.8947 H   0  0  0  0  0  0
  -22.3691  -10.9664   19.6152 H   0  0  0  0  0  0
  -21.1998   -7.6151   23.9716 H   0  0  0  0  0  0
  -21.1480   -6.0524   25.9081 H   0  0  0  0  0  0
  -22.0598   -2.7608   23.2845 H   0  0  0  0  0  0
  -22.4088  -11.9883   22.4788 H   0  0  0  0  0  0
  -21.1098  -13.1248   22.2577 H   0  0  0  0  0  0
  -24.6530  -15.8407   20.5045 H   0  0  0  0  0  0
  -26.2652  -15.6259   20.0488 H   0  0  0  0  0  0
  -26.7134  -32.5498   23.1136 H   0  0  0  0  0  0
  -25.0082  -33.9759   25.0465 H   0  0  0  0  0  0
  -22.6990  -31.3076   21.4067 H   0  0  0  0  0  0
  -23.3756  -35.9611   23.3292 H   0  0  0  0  0  0
  -24.3593  -36.8917   22.2059 H   0  0  0  0  0  0
  -23.7225  -37.6490   23.6660 H   0  0  0  0  0  0
  -26.0576  -31.5848   20.5936 H   0  0  0  0  0  0
  -26.8261  -30.8721   21.9843 H   0  0  0  0  0  0
  -28.1090  -29.0693   21.1618 H   0  0  0  0  0  0
  -26.0417  -25.9364   19.0416 H   0  0  0  0  0  0
  -23.9718  -27.2869   19.0413 H   0  0  0  0  0  0
  -23.7277  -30.5931   19.4028 H   0  0  0  0  0  0
  -22.7407  -29.2402   19.8656 H   0  0  0  0  0  0
  -25.1283  -36.1936   25.0826 H   0  0  0  0  0  0
  -20.9978  -28.3239   24.1433 H   0  0  0  0  0  0
  -20.5691  -26.2275   23.3611 H   0  0  0  0  0  0
  -21.6637  -26.7454   22.1206 H   0  0  0  0  0  0
  -19.6915  -25.6306   21.1237 H   0  0  0  0  0  0
  -19.6704  -27.3215   20.6768 H   0  0  0  0  0  0
  -17.4210  -26.6707   21.3998 H   0  0  0  0  0  0
  -18.0306  -26.0072   22.9003 H   0  0  0  0  0  0
  -19.7936  -30.7262   24.2272 H   0  0  0  0  0  0
  -17.5018  -31.6267   24.5163 H   0  0  0  0  0  0
  -15.5349  -30.2982   23.7667 H   0  0  0  0  0  0
  -15.8672  -28.0835   22.7025 H   0  0  0  0  0  0
  -24.5935  -30.7007   25.7778 H   0  0  0  0  0  0
  -24.8891  -32.2842   26.4855 H   0  0  0  0  0  0
  -25.8084  -30.8897   27.0218 H   0  0  0  0  0  0
  -26.2870  -29.6780   24.1136 H   0  0  0  0  0  0
  -27.4095  -29.7253   25.4547 H   0  0  0  0  0  0
  -27.8707  -30.4350   23.9248 H   0  0  0  0  0  0
  -27.2658  -33.3597   26.2067 H   0  0  0  0  0  0
  -28.3861  -32.6859   25.0310 H   0  0  0  0  0  0
  -28.0714  -31.8413   26.5392 H   0  0  0  0  0  0
  -28.2576  -38.0111   24.7521 H   0  0  0  0  0  0
  -28.1094  -36.2643   24.6257 H   0  0  0  0  0  0
  -27.2309  -37.1397   25.8868 H   0  0  0  0  0  0
  -20.9312  -29.8737   21.6911 H   0  0  0  0  0  0
  -26.0167  -38.2855   24.1421 H   0  0  0  0  0  0
  -28.2074  -17.7451   20.8175 H   0  0  0  0  0  0
  -30.3385  -23.7652   19.8910 H   0  0  0  0  0  0
  -27.9714  -20.5915   19.6738 H   0  0  0  0  0  0
  -33.7169  -19.7470   20.9718 H   0  0  0  0  0  0
  -33.5202  -19.6178   19.2205 H   0  0  0  0  0  0
  -33.9706  -18.1994   20.1645 H   0  0  0  0  0  0
  -28.5603  -20.8763   22.6849 H   0  0  0  0  0  0
  -27.2524  -19.9185   22.0009 H   0  0  0  0  0  0
  -27.2333  -21.6669   21.8382 H   0  0  0  0  0  0
  -27.3368  -23.4185   20.3811 H   0  0  0  0  0  0
  -27.9553  -24.2579   18.9906 H   0  0  0  0  0  0
  -29.0869  -25.3051   21.5460 H   0  0  0  0  0  0
  -27.3689  -25.3932   21.5168 H   0  0  0  0  0  0
  -28.9820  -15.4713   21.0270 H   0  0  0  0  0  0
  1 25  1  0  0  0
  1 30  2  0  0  0
  1 85  1  0  0  0
  2  3  1  0  0  0
  2 25  1  0  0  0
  2 87  1  0  0  0
  2 88  1  0  0  0
  3  4  1  0  0  0
  3 89  1  0  0  0
  3 90  1  0  0  0
  4  5  1  0  0  0
  4 91  1  0  0  0
  4 92  1  0  0  0
  5  6  1  0  0  0
  5 26  1  0  0  0
  5 93  1  0  0  0
  6 25  1  0  0  0
  6 94  1  0  0  0
  6 95  1  0  0  0
  7  8  2  0  0  0
  7 26  1  0  0  0
  7 29  1  0  0  0
  8  9  1  0  0  0
  8 22  1  0  0  0
  9 10  1  0  0  0
  9 27  2  0  0  0
 10 11  2  0  0  0
 10 15  1  0  0  0
 11 12  1  0  0  0
 11 96  1  0  0  0
 12 13  2  0  0  0
 12 97  1  0  0  0
 13 14  1  0  0  0
 13 31  1  0  0  0
 14 15  2  0  0  0
 14 98  1  0  0  0
 15 99  1  0  0  0
 16 17  2  0  0  0
 16 21  1  0  0  0
 16 31  1  0  0  0
 17 18  1  0  0  0
 17100  1  0  0  0
 18 19  2  0  0  0
 18101  1  0  0  0
 19 20  1  0  0  0
 19 24  1  0  0  0
 20 21  2  0  0  0
 20102  1  0  0  0
 21 23  1  0  0  0
 22 28  1  0  0  0
 22 32  2  0  0  0
 26 27  1  0  0  0
 28103  1  0  0  0
 28104  1  0  0  0
 29105  1  0  0  0
 29106  1  0  0  0
 33 34  1  0  0  0
 33 66  1  0  0  0
 33 70  2  0  0  0
 34 36  1  0  0  0
 34 59  1  0  0  0
 34107  1  0  0  0
 35 44  2  0  0  0
 35 45  1  0  0  0
 35 68  1  0  0  0
 36 56  1  0  0  0
 36108  1  0  0  0
 37 39  1  0  0  0
 37 47  1  0  0  0
 37 66  1  0  0  0
 37109  1  0  0  0
 38 43  2  0  0  0
 38 46  1  0  0  0
 38 47  1  0  0  0
 39 64  1  0  0  0
 39 67  2  0  0  0
 40 52  1  0  0  0
 40 53  2  0  0  0
 40 58  1  0  0  0
 41110  1  0  0  0
 41111  1  0  0  0
 41112  1  0  0  0
 41 48  1  0  0  0
 42 43  1  0  0  0
 42 66  1  0  0  0
 42113  1  0  0  0
 42114  1  0  0  0
 43 44  1  0  0  0
 44115  1  0  0  0
 45 46  2  0  0  0
 45116  1  0  0  0
 46117  1  0  0  0
 47118  1  0  0  0
 47119  1  0  0  0
 48 56  1  0  0  0
 48 65  1  0  0  0
 48120  1  0  0  0
 49 50  1  0  0  0
 49 53  1  0  0  0
 49 64  1  0  0  0
 49121  1  0  0  0
 50 51  1  0  0  0
 50122  1  0  0  0
 50123  1  0  0  0
 51 52  1  0  0  0
 51124  1  0  0  0
 51125  1  0  0  0
 52126  1  0  0  0
 52127  1  0  0  0
 53 54  1  0  0  0
 54 55  2  0  0  0
 54128  1  0  0  0
 55 57  1  0  0  0
 55129  1  0  0  0
 56 69  2  0  0  0
 57 58  2  0  0  0
 57130  1  0  0  0
 58131  1  0  0  0
 59 60  1  0  0  0
 59 61  1  0  0  0
 59 62  1  0  0  0
 60132  1  0  0  0
 60133  1  0  0  0
 60134  1  0  0  0
 61135  1  0  0  0
 61136  1  0  0  0
 61137  1  0  0  0
 62138  1  0  0  0
 62139  1  0  0  0
 62140  1  0  0  0
 63 65  1  0  0  0
 63141  1  0  0  0
 63142  1  0  0  0
 63143  1  0  0  0
 64144  1  0  0  0
 65145  1  0  0  0
 68 83  1  0  0  0
 71 73  2  0  0  0
 71 75  1  0  0  0
 71146  1  0  0  0
 72 73  1  0  0  0
 72 74  2  0  0  0
 72 76  1  0  0  0
 73 79  1  0  0  0
 74 80  1  0  0  0
 74 84  1  0  0  0
 75 84  2  0  0  0
 75 85  1  0  0  0
 76 77  1  0  0  0
 76 86  2  0  0  0
 77 78  2  0  0  0
 77 79  1  0  0  0
 78 82  1  0  0  0
 78147  1  0  0  0
 79 81  1  0  0  0
 79148  1  0  0  0
 80149  1  0  0  0
 80150  1  0  0  0
 80151  1  0  0  0
 81152  1  0  0  0
 81153  1  0  0  0
 81154  1  0  0  0
 82 83  1  0  0  0
 82155  1  0  0  0
 82156  1  0  0  0
 83157  1  0  0  0
 83158  1  0  0  0
 85159  1  0  0  0
M  ISO  4   1 100  68 101  83 101  85 100
M  END
> <chiral flag>
0

> <version>
0

> <s_m_source_file>
/data/baiqing/PycharmProjects/Reinvent-master-3.2/result/LINK_invent/BTK/process_docking_weight1_custom_sum_contain_oxygen_bond_distance_aromatic_linkinvent_7_9_3/rearranged_h_0199.sdf

> <i_m_source_file_index>
5

> <r_mmod_Potential_Energy-OPLS-2005>
-73.3548202514648

> <r_mmod_Stretch_Energy-OPLS-2005>
52.6238746643066

> <r_mmod_Bend_Energy-OPLS-2005>
167.318817138672

> <r_mmod_Torsional_Energy-OPLS-2005>
219.939071655273

> <r_mmod_Improper_Torsional_Energy-OPLS-2005>
4.81814193725586

> <r_mmod_Van_der_Waal_Energy-OPLS-2005>
144.144424438477

> <r_mmod_Electrostatic_Energy-OPLS-2005>
-449.846923828125

> <r_mmod_Solvation_Energy-OPLS-2005>
-239.168914794922

> <b_mmod_Minimization_Converged-OPLS-2005>
0

> <r_mmod_RMS_Derivative-OPLS-2005>
1.08875119686127

$$$$
5
                    3D
 Structure written by MMmdl.
170179  0  0  1  0            999 V2000
  -30.7082  -14.3475   20.6104 C   0  0  0  0  0  0
  -30.4391  -12.2813   19.2958 C   0  0  0  0  0  0
  -29.4853  -12.6226   18.1354 C   0  0  0  0  0  0
  -27.9898  -12.5170   18.5438 C   0  0  0  0  0  0
  -27.6815  -13.2049   19.8984 C   0  0  2  0  0  0
  -28.7440  -12.7594   20.9297 C   0  0  0  0  0  0
  -25.2645  -13.8119   20.5546 C   0  0  0  0  0  0
  -24.1907  -13.0409   20.9144 C   0  0  0  0  0  0
  -24.6484  -11.6878   20.8707 C   0  0  0  0  0  0
  -23.9129  -10.4242   21.0361 C   0  0  0  0  0  0
  -24.3628   -9.4128   21.9137 C   0  0  0  0  0  0
  -23.6268   -8.2180   22.0677 C   0  0  0  0  0  0
  -22.4216   -8.0267   21.3515 C   0  0  0  0  0  0
  -21.9917   -9.0258   20.4595 C   0  0  0  0  0  0
  -22.7318  -10.2112   20.3028 C   0  0  0  0  0  0
  -21.6822   -6.0722   22.5304 C   0  0  0  0  0  0
  -21.3997   -6.5630   23.8216 C   0  0  0  0  0  0
  -21.3641   -5.6790   24.9194 C   0  0  0  0  0  0
  -21.6038   -4.3031   24.7240 C   0  0  0  0  0  0
  -21.8806   -3.8119   23.4390 C   0  0  0  0  0  0
  -21.9167   -4.6917   22.3414 C   0  0  0  0  0  0
  -22.7900  -13.5201   21.1779 C   0  0  0  0  0  0
  -22.1630   -4.2131   21.1002 F   0  0  0  0  0  0
  -21.5632   -3.4518   25.7761 F   0  0  0  0  0  0
  -30.0674  -13.1555   20.4152 N   0  0  0  0  0  0
  -26.3148  -12.9309   20.3434 N   0  0  0  0  0  0
  -25.9417  -11.6439   20.5731 N   0  0  0  0  0  0
  -22.0546  -12.8197   22.0350 N   0  0  0  0  0  0
  -25.4380  -15.1830   20.3756 N   0  0  0  0  0  0
  -31.8303  -14.5747   20.1348 O   0  0  0  0  0  0
  -21.6569   -6.8870   21.4218 O   0  0  0  0  0  0
  -22.3571  -14.5479   20.6640 O   0  0  0  0  0  0
  -24.6013  -31.8817   23.2195 C   0  0  0  0  0  0
  -25.8992  -32.4857   23.8441 C   0  0  1  0  0  0
  -27.2205  -27.5190   20.0605 C   0  0  0  0  0  0
  -25.5893  -33.8649   24.2384 N   0  0  0  0  0  0
  -23.3799  -30.5096   21.5620 C   0  0  2  0  0  0
  -24.8231  -28.9912   20.1149 C   0  0  0  0  0  0
  -22.7318  -29.4747   22.5059 C   0  0  0  0  0  0
  -18.0244  -28.1386   22.8523 C   0  0  0  0  0  0
  -24.1490  -36.7247   23.2642 C   0  0  0  0  0  0
  -25.9058  -30.8699   21.3712 C   0  0  0  0  0  0
  -25.9796  -29.5179   20.6994 C   0  0  0  0  0  0
  -27.1810  -28.7869   20.6663 C   0  0  0  0  0  0
  -26.0437  -26.9879   19.4769 C   0  0  0  0  0  0
  -24.8464  -27.7237   19.5073 C   0  0  0  0  0  0
  -23.5800  -29.8487   20.1716 C   0  0  0  0  0  0
  -25.4126  -36.3111   24.0357 C   0  0  1  0  0  0
  -20.5832  -28.3691   23.1347 C   0  0  2  0  0  0
  -20.6749  -26.9454   22.5437 C   0  0  0  0  0  0
  -19.5707  -26.6427   21.5231 C   0  0  0  0  0  0
  -18.1889  -26.7929   22.1656 C   0  0  0  0  0  0
  -19.1505  -28.8824   23.2920 C   0  0  0  0  0  0
  -18.9425  -30.1434   23.8947 C   0  0  0  0  0  0
  -17.6432  -30.6578   24.0558 C   0  0  0  0  0  0
  -25.9055  -34.9477   23.5183 C   0  0  0  0  0  0
  -16.5305  -29.9100   23.6320 C   0  0  0  0  0  0
  -16.7240  -28.6496   23.0356 C   0  0  0  0  0  0
  -26.4469  -31.6558   25.0700 C   0  0  0  0  0  0
  -25.3732  -31.3627   26.1434 C   0  0  0  0  0  0
  -27.0279  -30.2961   24.6087 C   0  0  0  0  0  0
  -27.6078  -32.4256   25.7381 C   0  0  0  0  0  0
  -27.5586  -37.1779   24.8485 C   0  0  0  0  0  0
  -21.4050  -29.3037   22.3723 N   0  0  0  0  0  0
  -26.4311  -37.3790   23.9424 N   0  0  0  0  0  0
  -24.6449  -31.1007   22.1062 N   0  0  0  0  0  0
  -23.4136  -28.8346   23.3072 O   0  0  0  0  0  0
  -28.4248  -26.8755   20.0662 O   0  0  0  0  0  0
  -26.5594  -34.8926   22.4726 O   0  0  0  0  0  0
  -23.5232  -32.1534   23.7658 O   0  0  0  0  0  0
  -29.7392  -19.8665   17.1731 C   0  0  0  0  0  0
  -30.6771  -20.8032   17.4058 C   0  0  0  0  0  0
  -29.4122  -19.4767   19.4665 C   0  0  0  0  0  0
  -30.5463  -20.4659   19.7760 C   0  0  0  0  0  0
  -28.9093  -17.0682   22.2795 C   0  0  0  0  0  0
  -29.2771  -15.5878   22.2428 C   0  0  0  0  0  0
  -29.9398  -16.6259   20.2033 C   0  0  0  0  0  0
  -28.7894  -17.4510   20.8045 C   0  0  2  0  0  0
  -31.9880  -23.3918   21.1903 C   0  0  0  0  0  0
  -32.1092  -22.1891   18.8763 C   0  0  0  0  0  0
  -29.9580  -25.2097   19.7944 C   0  0  0  0  0  0
  -28.4909  -25.5534   19.5809 C   0  0  0  0  0  0
  -31.6896  -23.4593   19.6768 C   0  0  1  0  0  0
  -29.0980  -19.2092   18.2318 N   0  0  0  0  0  0
  -31.0729  -21.1414   18.7166 N   0  0  0  0  0  0
  -29.9091  -15.3717   20.9402 N   0  0  0  0  0  0
  -28.8825  -18.8948   20.6136 N   0  0  0  0  0  0
  -30.2766  -23.8205   19.4329 N   0  3  0  0  0  0
  -30.9251  -20.6001   20.9446 O   0  0  0  0  0  0
  -31.4712  -12.4175   18.9666 H   0  0  0  0  0  0
  -30.3535  -11.2248   19.5591 H   0  0  0  0  0  0
  -29.6846  -12.0067   17.2566 H   0  0  0  0  0  0
  -29.6900  -13.6479   17.8198 H   0  0  0  0  0  0
  -27.7049  -11.4607   18.5700 H   0  0  0  0  0  0
  -27.3798  -12.9734   17.7597 H   0  0  0  0  0  0
  -27.7635  -14.2837   19.7562 H   0  0  0  0  0  0
  -28.7027  -11.6752   20.9980 H   0  0  0  0  0  0
  -28.5549  -13.0662   21.9486 H   0  0  0  0  0  0
  -25.2769   -9.5519   22.4751 H   0  0  0  0  0  0
  -23.9931   -7.4516   22.7401 H   0  0  0  0  0  0
  -21.0835   -8.8844   19.8924 H   0  0  0  0  0  0
  -22.3794  -10.9660   19.6128 H   0  0  0  0  0  0
  -21.1980   -7.6100   23.9741 H   0  0  0  0  0  0
  -21.1468   -6.0474   25.9092 H   0  0  0  0  0  0
  -22.0589   -2.7601   23.2893 H   0  0  0  0  0  0
  -22.4212  -11.9909   22.4821 H   0  0  0  0  0  0
  -21.1122  -13.1182   22.2610 H   0  0  0  0  0  0
  -24.6818  -15.8529   20.4531 H   0  0  0  0  0  0
  -26.2766  -15.5724   19.9682 H   0  0  0  0  0  0
  -26.7024  -32.5603   23.1174 H   0  0  0  0  0  0
  -25.0039  -33.9844   25.0521 H   0  0  0  0  0  0
  -22.6622  -31.3231   21.4329 H   0  0  0  0  0  0
  -23.3797  -35.9534   23.3340 H   0  0  0  0  0  0
  -24.3577  -36.8808   22.2037 H   0  0  0  0  0  0
  -23.7181  -37.6450   23.6606 H   0  0  0  0  0  0
  -26.0484  -31.6715   20.6438 H   0  0  0  0  0  0
  -26.7774  -30.8812   22.0148 H   0  0  0  0  0  0
  -28.0832  -29.2105   21.0917 H   0  0  0  0  0  0
  -26.0309  -26.0311   18.9781 H   0  0  0  0  0  0
  -23.9526  -27.3202   19.0584 H   0  0  0  0  0  0
  -23.6721  -30.6300   19.4173 H   0  0  0  0  0  0
  -22.7041  -29.2650   19.8816 H   0  0  0  0  0  0
  -25.1290  -36.2004   25.0844 H   0  0  0  0  0  0
  -20.9911  -28.3270   24.1449 H   0  0  0  0  0  0
  -20.5724  -26.2287   23.3603 H   0  0  0  0  0  0
  -21.6620  -26.7546   22.1157 H   0  0  0  0  0  0
  -19.6919  -25.6360   21.1163 H   0  0  0  0  0  0
  -19.6617  -27.3318   20.6784 H   0  0  0  0  0  0
  -17.4167  -26.6672   21.4033 H   0  0  0  0  0  0
  -18.0311  -26.0047   22.9014 H   0  0  0  0  0  0
  -19.7897  -30.7217   24.2361 H   0  0  0  0  0  0
  -17.4987  -31.6299   24.5147 H   0  0  0  0  0  0
  -15.5324  -30.3010   23.7628 H   0  0  0  0  0  0
  -15.8621  -28.0823   22.7081 H   0  0  0  0  0  0
  -24.5966  -30.6929   25.7717 H   0  0  0  0  0  0
  -24.8860  -32.2741   26.4846 H   0  0  0  0  0  0
  -25.8085  -30.8785   27.0175 H   0  0  0  0  0  0
  -26.2821  -29.6708   24.1161 H   0  0  0  0  0  0
  -27.4003  -29.7216   25.4583 H   0  0  0  0  0  0
  -27.8680  -30.4192   23.9261 H   0  0  0  0  0  0
  -27.2757  -33.3567   26.1969 H   0  0  0  0  0  0
  -28.3815  -32.6801   25.0119 H   0  0  0  0  0  0
  -28.0825  -31.8373   26.5242 H   0  0  0  0  0  0
  -28.2645  -38.0045   24.7540 H   0  0  0  0  0  0
  -28.1058  -36.2579   24.6332 H   0  0  0  0  0  0
  -27.2298  -37.1439   25.8893 H   0  0  0  0  0  0
  -20.9258  -29.8595   21.6820 H   0  0  0  0  0  0
  -26.0226  -38.2885   24.1411 H   0  0  0  0  0  0
  -29.4448  -19.5957   16.1701 H   0  0  0  0  0  0
  -31.1882  -21.3271   16.6060 H   0  0  0  0  0  0
  -29.7266  -17.6392   22.7303 H   0  0  0  0  0  0
  -28.0032  -17.2542   22.8489 H   0  0  0  0  0  0
  -28.3491  -15.0371   22.3236 H   0  0  0  0  0  0
  -29.9314  -15.2855   23.0630 H   0  0  0  0  0  0
  -29.8216  -16.4596   19.1298 H   0  0  0  0  0  0
  -30.9042  -17.1054   20.3717 H   0  0  0  0  0  0
  -27.8400  -17.0743   20.4163 H   0  0  0  0  0  0
  -32.9338  -22.8924   21.3983 H   0  0  0  0  0  0
  -31.2070  -22.8785   21.7465 H   0  0  0  0  0  0
  -32.0590  -24.3853   21.6277 H   0  0  0  0  0  0
  -33.0347  -21.7622   19.2722 H   0  0  0  0  0  0
  -32.3970  -22.5525   17.8890 H   0  0  0  0  0  0
  -30.2019  -25.3843   20.8425 H   0  0  0  0  0  0
  -30.5670  -25.8952   19.2004 H   0  0  0  0  0  0
  -27.8371  -24.8886   20.1592 H   0  0  0  0  0  0
  -28.2150  -25.4961   18.5325 H   0  0  0  0  0  0
  -32.3083  -24.2711   19.2889 H   0  0  0  0  0  0
  -28.9392  -19.4052   21.4808 H   0  0  0  0  0  0
  -30.0650  -23.7011   18.4529 H   0  0  0  0  0  0
  -29.6826  -23.1973   19.9575 H   0  0  0  0  0  0
  1 25  1  0  0  0
  1 30  2  0  0  0
  1 86  1  0  0  0
  2  3  1  0  0  0
  2 25  1  0  0  0
  2 90  1  0  0  0
  2 91  1  0  0  0
  3  4  1  0  0  0
  3 92  1  0  0  0
  3 93  1  0  0  0
  4  5  1  0  0  0
  4 94  1  0  0  0
  4 95  1  0  0  0
  5  6  1  0  0  0
  5 26  1  0  0  0
  5 96  1  0  0  0
  6 25  1  0  0  0
  6 97  1  0  0  0
  6 98  1  0  0  0
  7  8  2  0  0  0
  7 26  1  0  0  0
  7 29  1  0  0  0
  8  9  1  0  0  0
  8 22  1  0  0  0
  9 10  1  0  0  0
  9 27  2  0  0  0
 10 11  2  0  0  0
 10 15  1  0  0  0
 11 12  1  0  0  0
 11 99  1  0  0  0
 12 13  2  0  0  0
 12100  1  0  0  0
 13 14  1  0  0  0
 13 31  1  0  0  0
 14 15  2  0  0  0
 14101  1  0  0  0
 15102  1  0  0  0
 16 17  2  0  0  0
 16 21  1  0  0  0
 16 31  1  0  0  0
 17 18  1  0  0  0
 17103  1  0  0  0
 18 19  2  0  0  0
 18104  1  0  0  0
 19 20  1  0  0  0
 19 24  1  0  0  0
 20 21  2  0  0  0
 20105  1  0  0  0
 21 23  1  0  0  0
 22 28  1  0  0  0
 22 32  2  0  0  0
 26 27  1  0  0  0
 28106  1  0  0  0
 28107  1  0  0  0
 29108  1  0  0  0
 29109  1  0  0  0
 33 34  1  0  0  0
 33 66  1  0  0  0
 33 70  2  0  0  0
 34 36  1  0  0  0
 34 59  1  0  0  0
 34110  1  0  0  0
 35 44  2  0  0  0
 35 45  1  0  0  0
 35 68  1  0  0  0
 36 56  1  0  0  0
 36111  1  0  0  0
 37 39  1  0  0  0
 37 47  1  0  0  0
 37 66  1  0  0  0
 37112  1  0  0  0
 38 43  2  0  0  0
 38 46  1  0  0  0
 38 47  1  0  0  0
 39 64  1  0  0  0
 39 67  2  0  0  0
 40 52  1  0  0  0
 40 53  2  0  0  0
 40 58  1  0  0  0
 41113  1  0  0  0
 41114  1  0  0  0
 41115  1  0  0  0
 41 48  1  0  0  0
 42 43  1  0  0  0
 42 66  1  0  0  0
 42116  1  0  0  0
 42117  1  0  0  0
 43 44  1  0  0  0
 44118  1  0  0  0
 45 46  2  0  0  0
 45119  1  0  0  0
 46120  1  0  0  0
 47121  1  0  0  0
 47122  1  0  0  0
 48 56  1  0  0  0
 48 65  1  0  0  0
 48123  1  0  0  0
 49 50  1  0  0  0
 49 53  1  0  0  0
 49 64  1  0  0  0
 49124  1  0  0  0
 50 51  1  0  0  0
 50125  1  0  0  0
 50126  1  0  0  0
 51 52  1  0  0  0
 51127  1  0  0  0
 51128  1  0  0  0
 52129  1  0  0  0
 52130  1  0  0  0
 53 54  1  0  0  0
 54 55  2  0  0  0
 54131  1  0  0  0
 55 57  1  0  0  0
 55132  1  0  0  0
 56 69  2  0  0  0
 57 58  2  0  0  0
 57133  1  0  0  0
 58134  1  0  0  0
 59 60  1  0  0  0
 59 61  1  0  0  0
 59 62  1  0  0  0
 60135  1  0  0  0
 60136  1  0  0  0
 60137  1  0  0  0
 61138  1  0  0  0
 61139  1  0  0  0
 61140  1  0  0  0
 62141  1  0  0  0
 62142  1  0  0  0
 62143  1  0  0  0
 63 65  1  0  0  0
 63144  1  0  0  0
 63145  1  0  0  0
 63146  1  0  0  0
 64147  1  0  0  0
 65148  1  0  0  0
 68 82  1  0  0  0
 71 72  2  0  0  0
 71 84  1  0  0  0
 71149  1  0  0  0
 72 85  1  0  0  0
 72150  1  0  0  0
 73 74  1  0  0  0
 73 84  2  0  0  0
 73 87  1  0  0  0
 74 85  1  0  0  0
 74 89  2  0  0  0
 75 76  1  0  0  0
 75 78  1  0  0  0
 75151  1  0  0  0
 75152  1  0  0  0
 76 86  1  0  0  0
 76153  1  0  0  0
 76154  1  0  0  0
 77 78  1  0  0  0
 77 86  1  0  0  0
 77155  1  0  0  0
 77156  1  0  0  0
 78 87  1  0  0  0
 78157  1  0  0  0
 79158  1  0  0  0
 79159  1  0  0  0
 79160  1  0  0  0
 79 83  1  0  0  0
 80 83  1  0  0  0
 80 85  1  0  0  0
 80161  1  0  0  0
 80162  1  0  0  0
 81 82  1  0  0  0
 81 88  1  0  0  0
 81163  1  0  0  0
 81164  1  0  0  0
 82165  1  0  0  0
 82166  1  0  0  0
 83 88  1  0  0  0
 83167  1  0  0  0
 87168  1  0  0  0
 88169  1  0  0  0
 88170  1  0  0  0
M  CHG  1  88   1
M  ISO  4   1 100  68 101  82 101  86 100
M  END
> <chiral flag>
0

> <version>
0

> <s_m_source_file>
/data/baiqing/PycharmProjects/Reinvent-master-3.2/result/LINK_invent/BTK/process_docking_weight1_custom_sum_contain_oxygen_bond_distance_aromatic_linkinvent_7_9_3/rearranged_h_0199.sdf

> <i_m_source_file_index>
6

> <r_mmod_Potential_Energy-OPLS-2005>
124.145278930664

> <r_mmod_Stretch_Energy-OPLS-2005>
41.3009223937988

> <r_mmod_Bend_Energy-OPLS-2005>
149.573471069336

> <r_mmod_Torsional_Energy-OPLS-2005>
376.931457519531

> <r_mmod_Improper_Torsional_Energy-OPLS-2005>
17.0280990600586

> <r_mmod_Van_der_Waal_Energy-OPLS-2005>
183.79670715332

> <r_mmod_Electrostatic_Energy-OPLS-2005>
-199.203002929688

> <r_mmod_Solvation_Energy-OPLS-2005>
-466.971710205078

> <b_mmod_Minimization_Converged-OPLS-2005>
0

> <r_mmod_RMS_Derivative-OPLS-2005>
10.2858390808105

$$$$
6
                    3D
 Structure written by MMmdl.
157166  0  0  1  0            999 V2000
  -30.6987  -14.5127   20.4933 C   0  0  0  0  0  0
  -30.4096  -12.3152   19.4322 C   0  0  0  0  0  0
  -29.4907  -12.4850   18.2060 C   0  0  0  0  0  0
  -28.0134  -12.3439   18.6215 C   0  0  0  0  0  0
  -27.6520  -13.2126   19.8557 C   0  0  2  0  0  0
  -28.6964  -13.0687   20.9847 C   0  0  0  0  0  0
  -25.2581  -13.8157   20.5659 C   0  0  0  0  0  0
  -24.1861  -13.0451   20.9206 C   0  0  0  0  0  0
  -24.6411  -11.6905   20.8765 C   0  0  0  0  0  0
  -23.9093  -10.4296   21.0458 C   0  0  0  0  0  0
  -24.3655   -9.4195   21.9209 C   0  0  0  0  0  0
  -23.6316   -8.2241   22.0765 C   0  0  0  0  0  0
  -22.4278   -8.0306   21.3567 C   0  0  0  0  0  0
  -21.9945   -9.0295   20.4653 C   0  0  0  0  0  0
  -22.7293  -10.2154   20.3076 C   0  0  0  0  0  0
  -21.6852   -6.0752   22.5289 C   0  0  0  0  0  0
  -21.4020   -6.5666   23.8221 C   0  0  0  0  0  0
  -21.3644   -5.6824   24.9184 C   0  0  0  0  0  0
  -21.6046   -4.3086   24.7243 C   0  0  0  0  0  0
  -21.8809   -3.8169   23.4361 C   0  0  0  0  0  0
  -21.9194   -4.6980   22.3418 C   0  0  0  0  0  0
  -22.7866  -13.5239   21.1884 C   0  0  0  0  0  0
  -22.1658   -4.2176   21.0989 F   0  0  0  0  0  0
  -21.5620   -3.4552   25.7743 F   0  0  0  0  0  0
  -30.0162  -13.3412   20.4085 N   0  0  0  0  0  0
  -26.3003  -12.9336   20.3286 N   0  0  0  0  0  0
  -25.9339  -11.6491   20.5761 N   0  0  0  0  0  0
  -22.0521  -12.8220   22.0407 N   0  0  0  0  0  0
  -25.4344  -15.1883   20.4052 N   0  0  0  0  0  0
  -31.8849  -14.6107   20.1877 O   0  0  0  0  0  0
  -21.6640   -6.8898   21.4246 O   0  0  0  0  0  0
  -22.3565  -14.5577   20.6736 O   0  0  0  0  0  0
  -24.6231  -31.8697   23.2167 C   0  0  0  0  0  0
  -25.9119  -32.4822   23.8435 C   0  0  1  0  0  0
  -27.1830  -27.3879   20.0698 C   0  0  0  0  0  0
  -25.5977  -33.8627   24.2370 N   0  0  0  0  0  0
  -23.4022  -30.5084   21.5641 C   0  0  2  0  0  0
  -24.8328  -28.9718   20.1095 C   0  0  0  0  0  0
  -22.7485  -29.4699   22.5066 C   0  0  0  0  0  0
  -18.0303  -28.1357   22.8496 C   0  0  0  0  0  0
  -24.1480  -36.7327   23.2641 C   0  0  0  0  0  0
  -25.9461  -30.8039   21.3826 C   0  0  0  0  0  0
  -26.0028  -29.4430   20.7186 C   0  0  0  0  0  0
  -27.1776  -28.6531   20.7090 C   0  0  0  0  0  0
  -26.0139  -26.9788   19.3974 C   0  0  0  0  0  0
  -24.8299  -27.7346   19.4543 C   0  0  0  0  0  0
  -23.6084  -29.8583   20.1744 C   0  0  0  0  0  0
  -25.4125  -36.3164   24.0362 C   0  0  1  0  0  0
  -20.5884  -28.3737   23.1369 C   0  0  2  0  0  0
  -20.6785  -26.9450   22.5491 C   0  0  0  0  0  0
  -19.5803  -26.6426   21.5245 C   0  0  0  0  0  0
  -18.2003  -26.7890   22.1659 C   0  0  0  0  0  0
  -19.1523  -28.8878   23.2881 C   0  0  0  0  0  0
  -18.9393  -30.1473   23.8896 C   0  0  0  0  0  0
  -17.6364  -30.6568   24.0523 C   0  0  0  0  0  0
  -25.9061  -34.9512   23.5175 C   0  0  0  0  0  0
  -16.5291  -29.9046   23.6251 C   0  0  0  0  0  0
  -16.7265  -28.6436   23.0357 C   0  0  0  0  0  0
  -26.4503  -31.6611   25.0796 C   0  0  0  0  0  0
  -25.3760  -31.3677   26.1534 C   0  0  0  0  0  0
  -27.0313  -30.3061   24.6198 C   0  0  0  0  0  0
  -27.6106  -32.4331   25.7535 C   0  0  0  0  0  0
  -27.5611  -37.1830   24.8482 C   0  0  0  0  0  0
  -21.4220  -29.3074   22.3829 N   0  0  0  0  0  0
  -26.4334  -37.3855   23.9401 N   0  0  0  0  0  0
  -24.6762  -31.0806   22.1072 N   0  0  0  0  0  0
  -23.4265  -28.8222   23.3105 O   0  0  0  0  0  0
  -28.2983  -26.5742   20.1459 O   0  0  0  0  0  0
  -26.5627  -34.8933   22.4733 O   0  0  0  0  0  0
  -23.5437  -32.1494   23.7581 O   0  0  0  0  0  0
  -28.6589  -21.1782   22.3460 C   0  0  0  0  0  0
  -28.1277  -20.6594   20.0905 C   0  0  0  0  0  0
  -28.4582  -20.1747   21.3774 C   0  0  0  0  0  0
  -28.0586  -22.8183   20.8720 C   0  0  0  0  0  0
  -26.5552  -24.7325   21.8909 C   0  0  0  0  0  0
  -25.8760  -24.0516   20.7444 C   0  0  0  0  0  0
  -27.4020  -24.1850   20.7426 C   0  0  0  0  0  0
  -28.1832  -25.1607   19.8116 C   0  0  0  0  0  0
  -29.3617  -17.9280   20.9056 C   0  0  0  0  0  0
  -29.2472  -16.4292   21.2927 C   0  0  0  0  0  0
  -28.4842  -22.4854   22.0852 N   0  0  0  0  0  0
  -27.9055  -21.9699   19.8539 N   0  0  0  0  0  0
  -28.5256  -18.8025   21.7257 N   0  0  0  0  0  0
  -29.9570  -15.6185   20.3052 N   0  0  0  0  0  0
  -31.4566  -12.3976   19.1379 H   0  0  0  0  0  0
  -30.2891  -11.3209   19.8657 H   0  0  0  0  0  0
  -29.7367  -11.7462   17.4435 H   0  0  0  0  0  0
  -29.6561  -13.4607   17.7483 H   0  0  0  0  0  0
  -27.8376  -11.2905   18.8457 H   0  0  0  0  0  0
  -27.3597  -12.5888   17.7826 H   0  0  0  0  0  0
  -27.6697  -14.2466   19.5149 H   0  0  0  0  0  0
  -28.6754  -12.0649   21.4095 H   0  0  0  0  0  0
  -28.4727  -13.7536   21.8038 H   0  0  0  0  0  0
  -25.2789   -9.5670   22.4789 H   0  0  0  0  0  0
  -24.0021   -7.4626   22.7488 H   0  0  0  0  0  0
  -21.0870   -8.8834   19.8968 H   0  0  0  0  0  0
  -22.3771  -10.9711   19.6197 H   0  0  0  0  0  0
  -21.2006   -7.6170   23.9736 H   0  0  0  0  0  0
  -21.1475   -6.0546   25.9090 H   0  0  0  0  0  0
  -22.0596   -2.7631   23.2860 H   0  0  0  0  0  0
  -22.4133  -11.9834   22.4742 H   0  0  0  0  0  0
  -21.1159  -13.1267   22.2665 H   0  0  0  0  0  0
  -24.6802  -15.8545   20.5299 H   0  0  0  0  0  0
  -26.2860  -15.6101   20.0598 H   0  0  0  0  0  0
  -26.7180  -32.5429   23.1146 H   0  0  0  0  0  0
  -25.0077  -33.9709   25.0508 H   0  0  0  0  0  0
  -22.6886  -31.3276   21.4464 H   0  0  0  0  0  0
  -23.3759  -35.9627   23.3339 H   0  0  0  0  0  0
  -24.3576  -36.8919   22.2042 H   0  0  0  0  0  0
  -23.7158  -37.6536   23.6612 H   0  0  0  0  0  0
  -26.0893  -31.5636   20.6149 H   0  0  0  0  0  0
  -26.8240  -30.8337   22.0183 H   0  0  0  0  0  0
  -28.0731  -28.9971   21.2047 H   0  0  0  0  0  0
  -25.9857  -26.0706   18.8154 H   0  0  0  0  0  0
  -23.9298  -27.3743   18.9729 H   0  0  0  0  0  0
  -23.7300  -30.6460   19.4310 H   0  0  0  0  0  0
  -22.7113  -29.3234   19.8620 H   0  0  0  0  0  0
  -25.1257  -36.2081   25.0867 H   0  0  0  0  0  0
  -20.9876  -28.3257   24.1521 H   0  0  0  0  0  0
  -20.5645  -26.2336   23.3697 H   0  0  0  0  0  0
  -21.6682  -26.7483   22.1332 H   0  0  0  0  0  0
  -19.7019  -25.6389   21.1202 H   0  0  0  0  0  0
  -19.6705  -27.3302   20.6844 H   0  0  0  0  0  0
  -17.4244  -26.6568   21.4102 H   0  0  0  0  0  0
  -18.0451  -26.0051   22.9105 H   0  0  0  0  0  0
  -19.7862  -30.7314   24.2288 H   0  0  0  0  0  0
  -17.4902  -31.6258   24.5116 H   0  0  0  0  0  0
  -15.5290  -30.2909   23.7596 H   0  0  0  0  0  0
  -15.8683  -28.0725   22.7100 H   0  0  0  0  0  0
  -24.5921  -30.7051   25.7859 H   0  0  0  0  0  0
  -24.8916  -32.2783   26.5072 H   0  0  0  0  0  0
  -25.8081  -30.8771   27.0260 H   0  0  0  0  0  0
  -26.2856  -29.6851   24.1226 H   0  0  0  0  0  0
  -27.4068  -29.7268   25.4640 H   0  0  0  0  0  0
  -27.8711  -30.4401   23.9372 H   0  0  0  0  0  0
  -27.2763  -33.3619   26.2151 H   0  0  0  0  0  0
  -28.3848  -32.6918   25.0313 H   0  0  0  0  0  0
  -28.0844  -31.8438   26.5393 H   0  0  0  0  0  0
  -28.2672  -38.0101   24.7551 H   0  0  0  0  0  0
  -28.1059  -36.2637   24.6275 H   0  0  0  0  0  0
  -27.2316  -37.1463   25.8889 H   0  0  0  0  0  0
  -20.9472  -29.8854   21.7058 H   0  0  0  0  0  0
  -26.0244  -38.2963   24.1372 H   0  0  0  0  0  0
  -28.9148  -20.9316   23.3629 H   0  0  0  0  0  0
  -27.9615  -19.9850   19.2621 H   0  0  0  0  0  0
  -26.5824  -24.2062   22.8457 H   0  0  0  0  0  0
  -26.4200  -25.8045   21.9783 H   0  0  0  0  0  0
  -25.2508  -24.6412   20.0892 H   0  0  0  0  0  0
  -25.4640  -23.0583   20.9335 H   0  0  0  0  0  0
  -29.2238  -24.8289   19.7876 H   0  0  0  0  0  0
  -27.8576  -25.0138   18.7864 H   0  0  0  0  0  0
  -29.0977  -18.0460   19.8513 H   0  0  0  0  0  0
  -30.4026  -18.2472   21.0042 H   0  0  0  0  0  0
  -28.2031  -16.1162   21.3006 H   0  0  0  0  0  0
  -29.6419  -16.2486   22.2924 H   0  0  0  0  0  0
  -27.6205  -18.3876   21.9512 H   0  0  0  0  0  0
  -30.4579  -16.2300   19.6793 H   0  0  0  0  0  0
  1 25  1  0  0  0
  1 30  2  0  0  0
  1 84  1  0  0  0
  2  3  1  0  0  0
  2 25  1  0  0  0
  2 85  1  0  0  0
  2 86  1  0  0  0
  3  4  1  0  0  0
  3 87  1  0  0  0
  3 88  1  0  0  0
  4  5  1  0  0  0
  4 89  1  0  0  0
  4 90  1  0  0  0
  5  6  1  0  0  0
  5 26  1  0  0  0
  5 91  1  0  0  0
  6 25  1  0  0  0
  6 92  1  0  0  0
  6 93  1  0  0  0
  7  8  2  0  0  0
  7 26  1  0  0  0
  7 29  1  0  0  0
  8  9  1  0  0  0
  8 22  1  0  0  0
  9 10  1  0  0  0
  9 27  2  0  0  0
 10 11  2  0  0  0
 10 15  1  0  0  0
 11 12  1  0  0  0
 11 94  1  0  0  0
 12 13  2  0  0  0
 12 95  1  0  0  0
 13 14  1  0  0  0
 13 31  1  0  0  0
 14 15  2  0  0  0
 14 96  1  0  0  0
 15 97  1  0  0  0
 16 17  2  0  0  0
 16 21  1  0  0  0
 16 31  1  0  0  0
 17 18  1  0  0  0
 17 98  1  0  0  0
 18 19  2  0  0  0
 18 99  1  0  0  0
 19 20  1  0  0  0
 19 24  1  0  0  0
 20 21  2  0  0  0
 20100  1  0  0  0
 21 23  1  0  0  0
 22 28  1  0  0  0
 22 32  2  0  0  0
 26 27  1  0  0  0
 28101  1  0  0  0
 28102  1  0  0  0
 29103  1  0  0  0
 29104  1  0  0  0
 33 34  1  0  0  0
 33 66  1  0  0  0
 33 70  2  0  0  0
 34 36  1  0  0  0
 34 59  1  0  0  0
 34105  1  0  0  0
 35 44  2  0  0  0
 35 45  1  0  0  0
 35 68  1  0  0  0
 36 56  1  0  0  0
 36106  1  0  0  0
 37 39  1  0  0  0
 37 47  1  0  0  0
 37 66  1  0  0  0
 37107  1  0  0  0
 38 43  2  0  0  0
 38 46  1  0  0  0
 38 47  1  0  0  0
 39 64  1  0  0  0
 39 67  2  0  0  0
 40 52  1  0  0  0
 40 53  2  0  0  0
 40 58  1  0  0  0
 41108  1  0  0  0
 41109  1  0  0  0
 41110  1  0  0  0
 41 48  1  0  0  0
 42 43  1  0  0  0
 42 66  1  0  0  0
 42111  1  0  0  0
 42112  1  0  0  0
 43 44  1  0  0  0
 44113  1  0  0  0
 45 46  2  0  0  0
 45114  1  0  0  0
 46115  1  0  0  0
 47116  1  0  0  0
 47117  1  0  0  0
 48 56  1  0  0  0
 48 65  1  0  0  0
 48118  1  0  0  0
 49 50  1  0  0  0
 49 53  1  0  0  0
 49 64  1  0  0  0
 49119  1  0  0  0
 50 51  1  0  0  0
 50120  1  0  0  0
 50121  1  0  0  0
 51 52  1  0  0  0
 51122  1  0  0  0
 51123  1  0  0  0
 52124  1  0  0  0
 52125  1  0  0  0
 53 54  1  0  0  0
 54 55  2  0  0  0
 54126  1  0  0  0
 55 57  1  0  0  0
 55127  1  0  0  0
 56 69  2  0  0  0
 57 58  2  0  0  0
 57128  1  0  0  0
 58129  1  0  0  0
 59 60  1  0  0  0
 59 61  1  0  0  0
 59 62  1  0  0  0
 60130  1  0  0  0
 60131  1  0  0  0
 60132  1  0  0  0
 61133  1  0  0  0
 61134  1  0  0  0
 61135  1  0  0  0
 62136  1  0  0  0
 62137  1  0  0  0
 62138  1  0  0  0
 63 65  1  0  0  0
 63139  1  0  0  0
 63140  1  0  0  0
 63141  1  0  0  0
 64142  1  0  0  0
 65143  1  0  0  0
 68 78  1  0  0  0
 71 73  2  0  0  0
 71 81  1  0  0  0
 71144  1  0  0  0
 72 73  1  0  0  0
 72 82  2  0  0  0
 72145  1  0  0  0
 73 83  1  0  0  0
 74 77  1  0  0  0
 74 81  2  0  0  0
 74 82  1  0  0  0
 75 76  1  0  0  0
 75 77  1  0  0  0
 75146  1  0  0  0
 75147  1  0  0  0
 76 77  1  0  0  0
 76148  1  0  0  0
 76149  1  0  0  0
 77 78  1  0  0  0
 78150  1  0  0  0
 78151  1  0  0  0
 79 80  1  0  0  0
 79 83  1  0  0  0
 79152  1  0  0  0
 79153  1  0  0  0
 80 84  1  0  0  0
 80154  1  0  0  0
 80155  1  0  0  0
 83156  1  0  0  0
 84157  1  0  0  0
M  ISO  4   1 100  68 101  78 101  84 100
M  END
> <chiral flag>
0

> <version>
0

> <s_m_source_file>
/data/baiqing/PycharmProjects/Reinvent-master-3.2/result/LINK_invent/BTK/process_docking_weight1_custom_sum_contain_oxygen_bond_distance_aromatic_linkinvent_7_9_3/rearranged_h_0199.sdf

> <i_m_source_file_index>
7

> <r_mmod_Potential_Energy-OPLS-2005>
-219.652877807617

> <r_mmod_Stretch_Energy-OPLS-2005>
41.7561187744141

> <r_mmod_Bend_Energy-OPLS-2005>
134.670425415039

> <r_mmod_Torsional_Energy-OPLS-2005>
294.039642333984

> <r_mmod_Improper_Torsional_Energy-OPLS-2005>
32.0054702758789

> <r_mmod_Van_der_Waal_Energy-OPLS-2005>
160.101989746094

> <r_mmod_Electrostatic_Energy-OPLS-2005>
-681.262145996094

> <r_mmod_Solvation_Energy-OPLS-2005>
-233.659301757812

> <b_mmod_Minimization_Converged-OPLS-2005>
0

> <r_mmod_RMS_Derivative-OPLS-2005>
7.25818920135498

$$$$
7
                    3D
 Structure written by MMmdl.
174184  0  0  1  0            999 V2000
  -30.7152  -14.3893   20.5702 C   0  0  0  0  0  0
  -30.4115  -12.2662   19.3812 C   0  0  0  0  0  0
  -29.4725  -12.5164   18.1808 C   0  0  0  0  0  0
  -27.9882  -12.3846   18.5875 C   0  0  0  0  0  0
  -27.6519  -13.1890   19.8691 C   0  0  2  0  0  0
  -28.7019  -12.9237   20.9751 C   0  0  0  0  0  0
  -25.2540  -13.8129   20.5693 C   0  0  0  0  0  0
  -24.1789  -13.0403   20.9223 C   0  0  0  0  0  0
  -24.6341  -11.6864   20.8777 C   0  0  0  0  0  0
  -23.9020  -10.4273   21.0418 C   0  0  0  0  0  0
  -24.3570   -9.4196   21.9181 C   0  0  0  0  0  0
  -23.6257   -8.2213   22.0720 C   0  0  0  0  0  0
  -22.4242   -8.0261   21.3497 C   0  0  0  0  0  0
  -21.9896   -9.0238   20.4621 C   0  0  0  0  0  0
  -22.7215  -10.2114   20.3024 C   0  0  0  0  0  0
  -21.6841   -6.0728   22.5260 C   0  0  0  0  0  0
  -21.3995   -6.5640   23.8196 C   0  0  0  0  0  0
  -21.3680   -5.6785   24.9153 C   0  0  0  0  0  0
  -21.6064   -4.3042   24.7216 C   0  0  0  0  0  0
  -21.8853   -3.8133   23.4331 C   0  0  0  0  0  0
  -21.9209   -4.6948   22.3384 C   0  0  0  0  0  0
  -22.7827  -13.5175   21.1927 C   0  0  0  0  0  0
  -22.1690   -4.2112   21.0985 F   0  0  0  0  0  0
  -21.5612   -3.4535   25.7739 F   0  0  0  0  0  0
  -30.0358  -13.2243   20.4264 N   0  0  0  0  0  0
  -26.2945  -12.9252   20.3379 N   0  0  0  0  0  0
  -25.9242  -11.6437   20.5809 N   0  0  0  0  0  0
  -22.0482  -12.8098   22.0462 N   0  0  0  0  0  0
  -25.4300  -15.1824   20.4059 N   0  0  0  0  0  0
  -31.8268  -14.5988   20.0826 O   0  0  0  0  0  0
  -21.6611   -6.8857   21.4202 O   0  0  0  0  0  0
  -22.3520  -14.5520   20.6842 O   0  0  0  0  0  0
  -24.6152  -31.8722   23.2139 C   0  0  0  0  0  0
  -25.9071  -32.4835   23.8413 C   0  0  1  0  0  0
  -27.2118  -27.4515   20.0484 C   0  0  0  0  0  0
  -25.5962  -33.8629   24.2338 N   0  0  0  0  0  0
  -23.3934  -30.5037   21.5579 C   0  0  2  0  0  0
  -24.8256  -28.9660   20.1182 C   0  0  0  0  0  0
  -22.7375  -29.4722   22.5030 C   0  0  0  0  0  0
  -18.0235  -28.1387   22.8468 C   0  0  0  0  0  0
  -24.1475  -36.7290   23.2639 C   0  0  0  0  0  0
  -25.9250  -30.8313   21.3662 C   0  0  0  0  0  0
  -25.9894  -29.4683   20.7132 C   0  0  0  0  0  0
  -27.1791  -28.7103   20.6900 C   0  0  0  0  0  0
  -26.0217  -26.9544   19.4644 C   0  0  0  0  0  0
  -24.8326  -27.7052   19.5060 C   0  0  0  0  0  0
  -23.5930  -29.8377   20.1721 C   0  0  0  0  0  0
  -25.4089  -36.3101   24.0346 C   0  0  1  0  0  0
  -20.5830  -28.3669   23.1324 C   0  0  2  0  0  0
  -20.6712  -26.9407   22.5419 C   0  0  0  0  0  0
  -19.5735  -26.6383   21.5190 C   0  0  0  0  0  0
  -18.1888  -26.7960   22.1529 C   0  0  0  0  0  0
  -19.1482  -28.8835   23.2879 C   0  0  0  0  0  0
  -18.9426  -30.1438   23.8895 C   0  0  0  0  0  0
  -17.6455  -30.6619   24.0534 C   0  0  0  0  0  0
  -25.9047  -34.9493   23.5138 C   0  0  0  0  0  0
  -16.5324  -29.9097   23.6335 C   0  0  0  0  0  0
  -16.7232  -28.6510   23.0387 C   0  0  0  0  0  0
  -26.4469  -31.6614   25.0775 C   0  0  0  0  0  0
  -25.3712  -31.3727   26.1510 C   0  0  0  0  0  0
  -27.0271  -30.3056   24.6137 C   0  0  0  0  0  0
  -27.6042  -32.4341   25.7546 C   0  0  0  0  0  0
  -27.5606  -37.1754   24.8411 C   0  0  0  0  0  0
  -21.4108  -29.3066   22.3776 N   0  0  0  0  0  0
  -26.4229  -37.3844   23.9489 N   0  0  0  0  0  0
  -24.6646  -31.0851   22.1021 N   0  0  0  0  0  0
  -23.4190  -28.8229   23.2999 O   0  0  0  0  0  0
  -28.4055  -26.7624   20.0212 O   0  0  0  0  0  0
  -26.5588  -34.8946   22.4669 O   0  0  0  0  0  0
  -23.5386  -32.1441   23.7568 O   0  0  0  0  0  0
  -29.0286  -19.5348   22.8024 C   0  0  0  0  0  0
  -29.5530  -18.7400   21.8180 C   0  0  0  0  0  0
  -30.0854  -20.8692   21.3793 C   0  0  0  0  0  0
  -31.8322  -22.8088   21.2718 C   0  0  0  0  0  0
  -29.2913  -16.3915   20.5109 C   0  0  0  0  0  0
  -30.7717  -16.4231   21.9401 C   0  0  0  0  0  0
  -31.6987  -24.2814   20.8273 C   0  0  0  0  0  0
  -29.5408  -23.2935   20.9205 C   0  0  0  0  0  0
  -29.5040  -17.2459   21.7556 C   0  0  0  0  0  0
  -30.5500  -22.1587   20.7387 C   0  0  2  0  0  0
  -30.9023  -18.7802   17.2115 C   0  0  0  0  0  0
  -30.1184  -19.2866   18.4325 C   0  0  0  0  0  0
  -30.9554  -19.2336   19.7232 C   0  0  0  0  0  0
  -29.9467  -25.0886   19.2319 C   0  0  0  0  0  0
  -28.5207  -25.6545   19.1260 C   0  0  0  0  0  0
  -30.2042  -19.5948   20.9425 N   0  0  0  0  0  0
  -29.4362  -20.8053   22.5463 N   0  3  0  0  0  0
  -30.0528  -15.3510   21.2354 N   0  0  0  0  0  0
  -30.2520  -24.5441   20.5830 N   0  3  2  0  0  0
  -31.4571  -12.3573   19.0821 H   0  0  0  0  0  0
  -30.3036  -11.2517   19.7625 H   0  0  0  0  0  0
  -29.6984  -11.8301   17.3635 H   0  0  0  0  0  0
  -29.6479  -13.5244   17.7990 H   0  0  0  0  0  0
  -27.7524  -11.3306   18.7246 H   0  0  0  0  0  0
  -27.3498  -12.7280   17.7717 H   0  0  0  0  0  0
  -27.6982  -14.2322   19.5738 H   0  0  0  0  0  0
  -28.6684  -11.8726   21.2708 H   0  0  0  0  0  0
  -28.4793  -13.4855   21.8826 H   0  0  0  0  0  0
  -25.2717   -9.5678   22.4732 H   0  0  0  0  0  0
  -24.0007   -7.4600   22.7416 H   0  0  0  0  0  0
  -21.0817   -8.8789   19.8888 H   0  0  0  0  0  0
  -22.3744  -10.9642   19.6090 H   0  0  0  0  0  0
  -21.1983   -7.6138   23.9690 H   0  0  0  0  0  0
  -21.1454   -6.0488   25.9056 H   0  0  0  0  0  0
  -22.0616   -2.7594   23.2823 H   0  0  0  0  0  0
  -22.4041  -11.9595   22.4585 H   0  0  0  0  0  0
  -21.1152  -13.1132   22.2896 H   0  0  0  0  0  0
  -24.6670  -15.8485   20.4749 H   0  0  0  0  0  0
  -26.2956  -15.6006   20.0916 H   0  0  0  0  0  0
  -26.7145  -32.5503   23.1184 H   0  0  0  0  0  0
  -25.0129  -33.9796   25.0506 H   0  0  0  0  0  0
  -22.6825  -31.3232   21.4292 H   0  0  0  0  0  0
  -23.3832  -35.9518   23.3132 H   0  0  0  0  0  0
  -24.3611  -36.9076   22.2093 H   0  0  0  0  0  0
  -23.7077  -37.6382   23.6751 H   0  0  0  0  0  0
  -26.0441  -31.5908   20.5928 H   0  0  0  0  0  0
  -26.8157  -30.8741   21.9824 H   0  0  0  0  0  0
  -28.0801  -29.0969   21.1444 H   0  0  0  0  0  0
  -25.9679  -25.9971   18.9663 H   0  0  0  0  0  0
  -23.9269  -27.3167   19.0544 H   0  0  0  0  0  0
  -23.6952  -30.6097   19.4102 H   0  0  0  0  0  0
  -22.7139  -29.2601   19.8864 H   0  0  0  0  0  0
  -25.1232  -36.1912   25.0829 H   0  0  0  0  0  0
  -20.9904  -28.3212   24.1450 H   0  0  0  0  0  0
  -20.5566  -26.2308   23.3602 H   0  0  0  0  0  0
  -21.6595  -26.7430   22.1269 H   0  0  0  0  0  0
  -19.6906  -25.6271   21.1281 H   0  0  0  0  0  0
  -19.6774  -27.3133   20.6676 H   0  0  0  0  0  0
  -17.4229  -26.6798   21.3845 H   0  0  0  0  0  0
  -18.0202  -26.0043   22.8856 H   0  0  0  0  0  0
  -19.7929  -30.7203   24.2300 H   0  0  0  0  0  0
  -17.5037  -31.6318   24.5105 H   0  0  0  0  0  0
  -15.5329  -30.3014   23.7700 H   0  0  0  0  0  0
  -15.8607  -28.0819   22.7134 H   0  0  0  0  0  0
  -24.5972  -30.6966   25.7868 H   0  0  0  0  0  0
  -24.8793  -32.2876   26.4829 H   0  0  0  0  0  0
  -25.8082  -30.9046   27.0353 H   0  0  0  0  0  0
  -26.2807  -29.6881   24.1150 H   0  0  0  0  0  0
  -27.3974  -29.7226   25.4588 H   0  0  0  0  0  0
  -27.8673  -30.4365   23.9313 H   0  0  0  0  0  0
  -27.2654  -33.3670   26.2053 H   0  0  0  0  0  0
  -28.3892  -32.6847   25.0405 H   0  0  0  0  0  0
  -28.0657  -31.8500   26.5528 H   0  0  0  0  0  0
  -28.2438  -38.0237   24.7756 H   0  0  0  0  0  0
  -28.1264  -36.2799   24.5813 H   0  0  0  0  0  0
  -27.2414  -37.0881   25.8811 H   0  0  0  0  0  0
  -20.9277  -29.8811   21.7016 H   0  0  0  0  0  0
  -26.0097  -38.2874   24.1666 H   0  0  0  0  0  0
  -28.4483  -19.2879   23.6815 H   0  0  0  0  0  0
  -31.8622  -22.7672   22.3609 H   0  0  0  0  0  0
  -32.7447  -22.3396   20.9038 H   0  0  0  0  0  0
  -29.7710  -16.7277   19.5905 H   0  0  0  0  0  0
  -28.2366  -16.1811   20.3248 H   0  0  0  0  0  0
  -31.0361  -16.2199   22.9802 H   0  0  0  0  0  0
  -31.6388  -16.8183   21.4072 H   0  0  0  0  0  0
  -32.2897  -24.4588   19.9256 H   0  0  0  0  0  0
  -32.0787  -24.9622   21.5903 H   0  0  0  0  0  0
  -29.2681  -23.3838   21.9718 H   0  0  0  0  0  0
  -28.6124  -23.1181   20.3781 H   0  0  0  0  0  0
  -28.7602  -16.9347   22.4981 H   0  0  0  0  0  0
  -30.6691  -21.9681   19.6737 H   0  0  0  0  0  0
  -30.3237  -18.9125   16.2975 H   0  0  0  0  0  0
  -31.1492  -17.7193   17.2824 H   0  0  0  0  0  0
  -31.8366  -19.3267   17.0889 H   0  0  0  0  0  0
  -29.2025  -18.7066   18.5350 H   0  0  0  0  0  0
  -29.8017  -20.3119   18.2534 H   0  0  0  0  0  0
  -31.8291  -19.8764   19.6425 H   0  0  0  0  0  0
  -31.3681  -18.2382   19.8527 H   0  0  0  0  0  0
  -30.6495  -25.8916   19.0008 H   0  0  0  0  0  0
  -30.0929  -24.3146   18.4766 H   0  0  0  0  0  0
  -27.7857  -24.8805   19.3442 H   0  0  0  0  0  0
  -28.3380  -25.9898   18.1018 H   0  0  0  0  0  0
  -29.2729  -21.5817   23.1732 H   0  0  0  0  0  0
  -29.9535  -25.2503   21.2426 H   0  0  0  0  0  0
  1 25  1  0  0  0
  1 30  2  0  0  0
  1 88  1  0  0  0
  2  3  1  0  0  0
  2 25  1  0  0  0
  2 90  1  0  0  0
  2 91  1  0  0  0
  3  4  1  0  0  0
  3 92  1  0  0  0
  3 93  1  0  0  0
  4  5  1  0  0  0
  4 94  1  0  0  0
  4 95  1  0  0  0
  5  6  1  0  0  0
  5 26  1  0  0  0
  5 96  1  0  0  0
  6 25  1  0  0  0
  6 97  1  0  0  0
  6 98  1  0  0  0
  7  8  2  0  0  0
  7 26  1  0  0  0
  7 29  1  0  0  0
  8  9  1  0  0  0
  8 22  1  0  0  0
  9 10  1  0  0  0
  9 27  2  0  0  0
 10 11  2  0  0  0
 10 15  1  0  0  0
 11 12  1  0  0  0
 11 99  1  0  0  0
 12 13  2  0  0  0
 12100  1  0  0  0
 13 14  1  0  0  0
 13 31  1  0  0  0
 14 15  2  0  0  0
 14101  1  0  0  0
 15102  1  0  0  0
 16 17  2  0  0  0
 16 21  1  0  0  0
 16 31  1  0  0  0
 17 18  1  0  0  0
 17103  1  0  0  0
 18 19  2  0  0  0
 18104  1  0  0  0
 19 20  1  0  0  0
 19 24  1  0  0  0
 20 21  2  0  0  0
 20105  1  0  0  0
 21 23  1  0  0  0
 22 28  1  0  0  0
 22 32  2  0  0  0
 26 27  1  0  0  0
 28106  1  0  0  0
 28107  1  0  0  0
 29108  1  0  0  0
 29109  1  0  0  0
 33 34  1  0  0  0
 33 66  1  0  0  0
 33 70  2  0  0  0
 34 36  1  0  0  0
 34 59  1  0  0  0
 34110  1  0  0  0
 35 44  2  0  0  0
 35 45  1  0  0  0
 35 68  1  0  0  0
 36 56  1  0  0  0
 36111  1  0  0  0
 37 39  1  0  0  0
 37 47  1  0  0  0
 37 66  1  0  0  0
 37112  1  0  0  0
 38 43  2  0  0  0
 38 46  1  0  0  0
 38 47  1  0  0  0
 39 64  1  0  0  0
 39 67  2  0  0  0
 40 52  1  0  0  0
 40 53  2  0  0  0
 40 58  1  0  0  0
 41113  1  0  0  0
 41114  1  0  0  0
 41115  1  0  0  0
 41 48  1  0  0  0
 42 43  1  0  0  0
 42 66  1  0  0  0
 42116  1  0  0  0
 42117  1  0  0  0
 43 44  1  0  0  0
 44118  1  0  0  0
 45 46  2  0  0  0
 45119  1  0  0  0
 46120  1  0  0  0
 47121  1  0  0  0
 47122  1  0  0  0
 48 56  1  0  0  0
 48 65  1  0  0  0
 48123  1  0  0  0
 49 50  1  0  0  0
 49 53  1  0  0  0
 49 64  1  0  0  0
 49124  1  0  0  0
 50 51  1  0  0  0
 50125  1  0  0  0
 50126  1  0  0  0
 51 52  1  0  0  0
 51127  1  0  0  0
 51128  1  0  0  0
 52129  1  0  0  0
 52130  1  0  0  0
 53 54  1  0  0  0
 54 55  2  0  0  0
 54131  1  0  0  0
 55 57  1  0  0  0
 55132  1  0  0  0
 56 69  2  0  0  0
 57 58  2  0  0  0
 57133  1  0  0  0
 58134  1  0  0  0
 59 60  1  0  0  0
 59 61  1  0  0  0
 59 62  1  0  0  0
 60135  1  0  0  0
 60136  1  0  0  0
 60137  1  0  0  0
 61138  1  0  0  0
 61139  1  0  0  0
 61140  1  0  0  0
 62141  1  0  0  0
 62142  1  0  0  0
 62143  1  0  0  0
 63 65  1  0  0  0
 63144  1  0  0  0
 63145  1  0  0  0
 63146  1  0  0  0
 64147  1  0  0  0
 65148  1  0  0  0
 68 85  1  0  0  0
 71 72  2  0  0  0
 71 87  1  0  0  0
 71149  1  0  0  0
 72 86  1  0  0  0
 72 79  1  0  0  0
 73 86  1  0  0  0
 73 87  2  0  0  0
 73 80  1  0  0  0
 74 77  1  0  0  0
 74 80  1  0  0  0
 74150  1  0  0  0
 74151  1  0  0  0
 75 79  1  0  0  0
 75 88  1  0  0  0
 75152  1  0  0  0
 75153  1  0  0  0
 76 79  1  0  0  0
 76 88  1  0  0  0
 76154  1  0  0  0
 76155  1  0  0  0
 77 89  1  0  0  0
 77156  1  0  0  0
 77157  1  0  0  0
 78 80  1  0  0  0
 78 89  1  0  0  0
 78158  1  0  0  0
 78159  1  0  0  0
 79160  1  0  0  0
 80161  1  0  0  0
 81 82  1  0  0  0
 81162  1  0  0  0
 81163  1  0  0  0
 81164  1  0  0  0
 82 83  1  0  0  0
 82165  1  0  0  0
 82166  1  0  0  0
 83 86  1  0  0  0
 83167  1  0  0  0
 83168  1  0  0  0
 84 85  1  0  0  0
 84169  1  0  0  0
 84170  1  0  0  0
 84 89  1  0  0  0
 85171  1  0  0  0
 85172  1  0  0  0
 87173  1  0  0  0
 89174  1  0  0  0
M  CHG  2  87   1  89   1
M  ISO  4   1 100  68 101  85 101  88 100
M  END
> <chiral flag>
0

> <version>
0

> <s_m_source_file>
/data/baiqing/PycharmProjects/Reinvent-master-3.2/result/LINK_invent/BTK/process_docking_weight1_custom_sum_contain_oxygen_bond_distance_aromatic_linkinvent_7_9_3/rearranged_h_0199.sdf

> <i_m_source_file_index>
8

> <r_mmod_Potential_Energy-OPLS-2005>
-49.3738327026367

> <r_mmod_Stretch_Energy-OPLS-2005>
35.598316192627

> <r_mmod_Bend_Energy-OPLS-2005>
142.440979003906

> <r_mmod_Torsional_Energy-OPLS-2005>
357.524078369141

> <r_mmod_Improper_Torsional_Energy-OPLS-2005>
10.0687198638916

> <r_mmod_Van_der_Waal_Energy-OPLS-2005>
131.163146972656

> <r_mmod_Electrostatic_Energy-OPLS-2005>
167.493530273438

> <r_mmod_Solvation_Energy-OPLS-2005>
-905.095825195312

> <b_mmod_Minimization_Converged-OPLS-2005>
0

> <r_mmod_RMS_Derivative-OPLS-2005>
6.49983024597168

$$$$
8
                    3D
 Structure written by MMmdl.
162170  0  0  1  0            999 V2000
  -30.7103  -14.4909   20.5760 C   0  0  0  0  0  0
  -30.4295  -12.3240   19.4203 C   0  0  0  0  0  0
  -29.4927  -12.4945   18.2063 C   0  0  0  0  0  0
  -28.0164  -12.3546   18.6258 C   0  0  0  0  0  0
  -27.6622  -13.2061   19.8733 C   0  0  2  0  0  0
  -28.7064  -13.0005   20.9931 C   0  0  0  0  0  0
  -25.2599  -13.8174   20.5691 C   0  0  0  0  0  0
  -24.1839  -13.0450   20.9177 C   0  0  0  0  0  0
  -24.6393  -11.6919   20.8743 C   0  0  0  0  0  0
  -23.9058  -10.4297   21.0403 C   0  0  0  0  0  0
  -24.3605   -9.4219   21.9183 C   0  0  0  0  0  0
  -23.6289   -8.2251   22.0753 C   0  0  0  0  0  0
  -22.4273   -8.0283   21.3538 C   0  0  0  0  0  0
  -21.9911   -9.0254   20.4640 C   0  0  0  0  0  0
  -22.7234  -10.2139   20.3057 C   0  0  0  0  0  0
  -21.6852   -6.0747   22.5272 C   0  0  0  0  0  0
  -21.4011   -6.5643   23.8208 C   0  0  0  0  0  0
  -21.3654   -5.6789   24.9172 C   0  0  0  0  0  0
  -21.6046   -4.3052   24.7220 C   0  0  0  0  0  0
  -21.8820   -3.8151   23.4335 C   0  0  0  0  0  0
  -21.9191   -4.6974   22.3394 C   0  0  0  0  0  0
  -22.7861  -13.5241   21.1840 C   0  0  0  0  0  0
  -22.1662   -4.2164   21.0969 F   0  0  0  0  0  0
  -21.5628   -3.4532   25.7734 F   0  0  0  0  0  0
  -30.0357  -13.3127   20.4381 N   0  0  0  0  0  0
  -26.3028  -12.9334   20.3372 N   0  0  0  0  0  0
  -25.9320  -11.6495   20.5788 N   0  0  0  0  0  0
  -22.0491  -12.8234   22.0388 N   0  0  0  0  0  0
  -25.4365  -15.1888   20.4113 N   0  0  0  0  0  0
  -31.8108  -14.6884   20.0476 O   0  0  0  0  0  0
  -21.6630   -6.8892   21.4240 O   0  0  0  0  0  0
  -22.3551  -14.5556   20.6708 O   0  0  0  0  0  0
  -24.6159  -31.8676   23.2037 C   0  0  0  0  0  0
  -25.9038  -32.4817   23.8376 C   0  0  1  0  0  0
  -27.2399  -27.4086   20.0868 C   0  0  0  0  0  0
  -25.5867  -33.8610   24.2284 N   0  0  0  0  0  0
  -23.4044  -30.4873   21.5478 C   0  0  2  0  0  0
  -24.8509  -28.9479   20.1123 C   0  0  0  0  0  0
  -22.7435  -29.4649   22.5002 C   0  0  0  0  0  0
  -18.0273  -28.1384   22.8486 C   0  0  0  0  0  0
  -24.1495  -36.7317   23.2640 C   0  0  0  0  0  0
  -25.9353  -30.8197   21.3649 C   0  0  0  0  0  0
  -26.0107  -29.4518   20.7117 C   0  0  0  0  0  0
  -27.2005  -28.6837   20.7032 C   0  0  0  0  0  0
  -26.0570  -26.9306   19.4713 C   0  0  0  0  0  0
  -24.8689  -27.6855   19.4938 C   0  0  0  0  0  0
  -23.6119  -29.8158   20.1644 C   0  0  0  0  0  0
  -25.4122  -36.3101   24.0325 C   0  0  1  0  0  0
  -20.5867  -28.3668   23.1323 C   0  0  2  0  0  0
  -20.6775  -26.9418   22.5405 C   0  0  0  0  0  0
  -19.5742  -26.6390   21.5221 C   0  0  0  0  0  0
  -18.1914  -26.7921   22.1638 C   0  0  0  0  0  0
  -19.1524  -28.8844   23.2886 C   0  0  0  0  0  0
  -18.9462  -30.1442   23.8909 C   0  0  0  0  0  0
  -17.6460  -30.6576   24.0575 C   0  0  0  0  0  0
  -25.9065  -34.9475   23.5125 C   0  0  0  0  0  0
  -16.5349  -29.9083   23.6332 C   0  0  0  0  0  0
  -16.7267  -28.6515   23.0335 C   0  0  0  0  0  0
  -26.4467  -31.6617   25.0724 C   0  0  0  0  0  0
  -25.3712  -31.3709   26.1461 C   0  0  0  0  0  0
  -27.0331  -30.3064   24.6105 C   0  0  0  0  0  0
  -27.6010  -32.4378   25.7507 C   0  0  0  0  0  0
  -27.5585  -37.1792   24.8458 C   0  0  0  0  0  0
  -21.4162  -29.3031   22.3750 N   0  0  0  0  0  0
  -26.4306  -37.3785   23.9401 N   0  0  0  0  0  0
  -24.6706  -31.0727   22.0977 N   0  0  0  0  0  0
  -23.4211  -28.8210   23.3050 O   0  0  0  0  0  0
  -28.4261  -26.6898   20.1299 O   0  0  0  0  0  0
  -26.5633  -34.8928   22.4687 O   0  0  0  0  0  0
  -23.5340  -32.1469   23.7404 O   0  0  0  0  0  0
  -29.8167  -17.1881   22.8720 C   0  0  0  0  0  0
  -30.2340  -15.7433   22.5955 C   0  0  0  0  0  0
  -29.8273  -16.8288   20.5103 C   0  0  0  0  0  0
  -30.0478  -17.9429   21.5650 C   0  0  1  0  0  0
  -26.7869  -24.0126   20.8496 C   0  0  0  0  0  0
  -29.1411  -19.2141   21.4960 C   0  0  0  0  0  0
  -29.5550  -20.4174   20.5984 C   0  0  0  0  0  0
  -28.7146  -21.6896   20.9447 C   0  0  0  0  0  0
  -28.5583  -25.3662   19.5569 C   0  0  0  0  0  0
  -28.2915  -24.1669   20.5325 C   0  0  2  0  0  0
  -30.0356  -15.5129   21.1655 N   0  0  0  0  0  0
  -28.8986  -22.8736   20.0495 N   0  3  0  0  0  0
  -31.4694  -12.4391   19.1074 H   0  0  0  0  0  0
  -30.3566  -11.3168   19.8316 H   0  0  0  0  0  0
  -29.7328  -11.7530   17.4436 H   0  0  0  0  0  0
  -29.6537  -13.4699   17.7460 H   0  0  0  0  0  0
  -27.8314  -11.3004   18.8363 H   0  0  0  0  0  0
  -27.3618  -12.6155   17.7937 H   0  0  0  0  0  0
  -27.7043  -14.2513   19.5661 H   0  0  0  0  0  0
  -28.6908  -11.9684   21.3459 H   0  0  0  0  0  0
  -28.4576  -13.6118   21.8601 H   0  0  0  0  0  0
  -25.2748   -9.5694   22.4763 H   0  0  0  0  0  0
  -24.0004   -7.4639   22.7460 H   0  0  0  0  0  0
  -21.0856   -8.8766   19.8928 H   0  0  0  0  0  0
  -22.3690  -10.9682   19.6166 H   0  0  0  0  0  0
  -21.2005   -7.6150   23.9725 H   0  0  0  0  0  0
  -21.1471   -6.0509   25.9075 H   0  0  0  0  0  0
  -22.0607   -2.7616   23.2821 H   0  0  0  0  0  0
  -22.4090  -11.9889   22.4770 H   0  0  0  0  0  0
  -21.1108  -13.1257   22.2583 H   0  0  0  0  0  0
  -24.6800  -15.8543   20.5296 H   0  0  0  0  0  0
  -26.3073  -15.6235   20.1310 H   0  0  0  0  0  0
  -26.7096  -32.5522   23.1146 H   0  0  0  0  0  0
  -24.9962  -33.9778   25.0381 H   0  0  0  0  0  0
  -22.6933  -31.3043   21.4072 H   0  0  0  0  0  0
  -23.3750  -35.9654   23.3303 H   0  0  0  0  0  0
  -24.3574  -36.8956   22.2052 H   0  0  0  0  0  0
  -23.7266  -37.6519   23.6688 H   0  0  0  0  0  0
  -26.0483  -31.5875   20.5986 H   0  0  0  0  0  0
  -26.8209  -30.8736   21.9872 H   0  0  0  0  0  0
  -28.0947  -29.0627   21.1782 H   0  0  0  0  0  0
  -26.0203  -25.9716   18.9780 H   0  0  0  0  0  0
  -23.9750  -27.2909   19.0285 H   0  0  0  0  0  0
  -23.7179  -30.5919   19.4054 H   0  0  0  0  0  0
  -22.7345  -29.2359   19.8709 H   0  0  0  0  0  0
  -25.1284  -36.1971   25.0813 H   0  0  0  0  0  0
  -20.9934  -28.3263   24.1461 H   0  0  0  0  0  0
  -20.5748  -26.2292   23.3607 H   0  0  0  0  0  0
  -21.6630  -26.7509   22.1150 H   0  0  0  0  0  0
  -19.6939  -25.6315   21.1225 H   0  0  0  0  0  0
  -19.6667  -27.3246   20.6786 H   0  0  0  0  0  0
  -17.4190  -26.6681   21.4036 H   0  0  0  0  0  0
  -18.0291  -26.0065   22.9039 H   0  0  0  0  0  0
  -19.7939  -30.7212   24.2326 H   0  0  0  0  0  0
  -17.5030  -31.6270   24.5156 H   0  0  0  0  0  0
  -15.5353  -30.2968   23.7653 H   0  0  0  0  0  0
  -15.8685  -28.0831   22.7014 H   0  0  0  0  0  0
  -24.5864  -30.7110   25.7766 H   0  0  0  0  0  0
  -24.8929  -32.2859   26.4960 H   0  0  0  0  0  0
  -25.8022  -30.8821   27.0203 H   0  0  0  0  0  0
  -26.2893  -29.6812   24.1150 H   0  0  0  0  0  0
  -27.4118  -29.7320   25.4565 H   0  0  0  0  0  0
  -27.8717  -30.4414   23.9265 H   0  0  0  0  0  0
  -27.2591  -33.3674   26.2082 H   0  0  0  0  0  0
  -28.3816  -32.6959   25.0336 H   0  0  0  0  0  0
  -28.0696  -31.8527   26.5442 H   0  0  0  0  0  0
  -28.2545  -38.0133   24.7520 H   0  0  0  0  0  0
  -28.1122  -36.2646   24.6260 H   0  0  0  0  0  0
  -27.2275  -37.1405   25.8850 H   0  0  0  0  0  0
  -20.9374  -29.8776   21.6967 H   0  0  0  0  0  0
  -26.0196  -38.2866   24.1385 H   0  0  0  0  0  0
  -30.3650  -17.6225   23.7081 H   0  0  0  0  0  0
  -28.7556  -17.2099   23.1295 H   0  0  0  0  0  0
  -29.6624  -15.0427   23.2037 H   0  0  0  0  0  0
  -31.2883  -15.6086   22.8430 H   0  0  0  0  0  0
  -30.4902  -16.9750   19.6536 H   0  0  0  0  0  0
  -28.8058  -16.8536   20.1275 H   0  0  0  0  0  0
  -31.0970  -18.2463   21.5379 H   0  0  0  0  0  0
  -26.3754  -24.9415   21.2397 H   0  0  0  0  0  0
  -26.5959  -23.2679   21.6192 H   0  0  0  0  0  0
  -26.2110  -23.7344   19.9651 H   0  0  0  0  0  0
  -29.0849  -19.6083   22.5126 H   0  0  0  0  0  0
  -28.1208  -18.9158   21.2511 H   0  0  0  0  0  0
  -29.4278  -20.1442   19.5505 H   0  0  0  0  0  0
  -30.6163  -20.6295   20.7394 H   0  0  0  0  0  0
  -28.9445  -21.9929   21.9681 H   0  0  0  0  0  0
  -27.6602  -21.4128   20.9346 H   0  0  0  0  0  0
  -28.0092  -25.2618   18.6217 H   0  0  0  0  0  0
  -29.6057  -25.3107   19.2587 H   0  0  0  0  0  0
  -28.8025  -24.4056   21.4671 H   0  0  0  0  0  0
  -28.5327  -22.6383   19.1381 H   0  0  0  0  0  0
  -29.8911  -23.0178   19.9354 H   0  0  0  0  0  0
  1 25  1  0  0  0
  1 30  2  0  0  0
  1 81  1  0  0  0
  2  3  1  0  0  0
  2 25  1  0  0  0
  2 83  1  0  0  0
  2 84  1  0  0  0
  3  4  1  0  0  0
  3 85  1  0  0  0
  3 86  1  0  0  0
  4  5  1  0  0  0
  4 87  1  0  0  0
  4 88  1  0  0  0
  5  6  1  0  0  0
  5 26  1  0  0  0
  5 89  1  0  0  0
  6 25  1  0  0  0
  6 90  1  0  0  0
  6 91  1  0  0  0
  7  8  2  0  0  0
  7 26  1  0  0  0
  7 29  1  0  0  0
  8  9  1  0  0  0
  8 22  1  0  0  0
  9 10  1  0  0  0
  9 27  2  0  0  0
 10 11  2  0  0  0
 10 15  1  0  0  0
 11 12  1  0  0  0
 11 92  1  0  0  0
 12 13  2  0  0  0
 12 93  1  0  0  0
 13 14  1  0  0  0
 13 31  1  0  0  0
 14 15  2  0  0  0
 14 94  1  0  0  0
 15 95  1  0  0  0
 16 17  2  0  0  0
 16 21  1  0  0  0
 16 31  1  0  0  0
 17 18  1  0  0  0
 17 96  1  0  0  0
 18 19  2  0  0  0
 18 97  1  0  0  0
 19 20  1  0  0  0
 19 24  1  0  0  0
 20 21  2  0  0  0
 20 98  1  0  0  0
 21 23  1  0  0  0
 22 28  1  0  0  0
 22 32  2  0  0  0
 26 27  1  0  0  0
 28 99  1  0  0  0
 28100  1  0  0  0
 29101  1  0  0  0
 29102  1  0  0  0
 33 34  1  0  0  0
 33 66  1  0  0  0
 33 70  2  0  0  0
 34 36  1  0  0  0
 34 59  1  0  0  0
 34103  1  0  0  0
 35 44  2  0  0  0
 35 45  1  0  0  0
 35 68  1  0  0  0
 36 56  1  0  0  0
 36104  1  0  0  0
 37 39  1  0  0  0
 37 47  1  0  0  0
 37 66  1  0  0  0
 37105  1  0  0  0
 38 43  2  0  0  0
 38 46  1  0  0  0
 38 47  1  0  0  0
 39 64  1  0  0  0
 39 67  2  0  0  0
 40 52  1  0  0  0
 40 53  2  0  0  0
 40 58  1  0  0  0
 41106  1  0  0  0
 41107  1  0  0  0
 41108  1  0  0  0
 41 48  1  0  0  0
 42 43  1  0  0  0
 42 66  1  0  0  0
 42109  1  0  0  0
 42110  1  0  0  0
 43 44  1  0  0  0
 44111  1  0  0  0
 45 46  2  0  0  0
 45112  1  0  0  0
 46113  1  0  0  0
 47114  1  0  0  0
 47115  1  0  0  0
 48 56  1  0  0  0
 48 65  1  0  0  0
 48116  1  0  0  0
 49 50  1  0  0  0
 49 53  1  0  0  0
 49 64  1  0  0  0
 49117  1  0  0  0
 50 51  1  0  0  0
 50118  1  0  0  0
 50119  1  0  0  0
 51 52  1  0  0  0
 51120  1  0  0  0
 51121  1  0  0  0
 52122  1  0  0  0
 52123  1  0  0  0
 53 54  1  0  0  0
 54 55  2  0  0  0
 54124  1  0  0  0
 55 57  1  0  0  0
 55125  1  0  0  0
 56 69  2  0  0  0
 57 58  2  0  0  0
 57126  1  0  0  0
 58127  1  0  0  0
 59 60  1  0  0  0
 59 61  1  0  0  0
 59 62  1  0  0  0
 60128  1  0  0  0
 60129  1  0  0  0
 60130  1  0  0  0
 61131  1  0  0  0
 61132  1  0  0  0
 61133  1  0  0  0
 62134  1  0  0  0
 62135  1  0  0  0
 62136  1  0  0  0
 63 65  1  0  0  0
 63137  1  0  0  0
 63138  1  0  0  0
 63139  1  0  0  0
 64140  1  0  0  0
 65141  1  0  0  0
 68 79  1  0  0  0
 71 72  1  0  0  0
 71 74  1  0  0  0
 71142  1  0  0  0
 71143  1  0  0  0
 72 81  1  0  0  0
 72144  1  0  0  0
 72145  1  0  0  0
 73 74  1  0  0  0
 73 81  1  0  0  0
 73146  1  0  0  0
 73147  1  0  0  0
 74 76  1  0  0  0
 74148  1  0  0  0
 75149  1  0  0  0
 75150  1  0  0  0
 75151  1  0  0  0
 75 80  1  0  0  0
 76 77  1  0  0  0
 76152  1  0  0  0
 76153  1  0  0  0
 77 78  1  0  0  0
 77154  1  0  0  0
 77155  1  0  0  0
 78 82  1  0  0  0
 78156  1  0  0  0
 78157  1  0  0  0
 79 80  1  0  0  0
 79158  1  0  0  0
 79159  1  0  0  0
 80 82  1  0  0  0
 80160  1  0  0  0
 82161  1  0  0  0
 82162  1  0  0  0
M  CHG  1  82   1
M  ISO  4   1 100  68 101  79 101  81 100
M  END
> <chiral flag>
0

> <version>
0

> <s_m_source_file>
/data/baiqing/PycharmProjects/Reinvent-master-3.2/result/LINK_invent/BTK/process_docking_weight1_custom_sum_contain_oxygen_bond_distance_aromatic_linkinvent_7_9_3/rearranged_h_0199.sdf

> <i_m_source_file_index>
9

> <r_mmod_Potential_Energy-OPLS-2005>
93.7658462524414

> <r_mmod_Stretch_Energy-OPLS-2005>
45.9720687866211

> <r_mmod_Bend_Energy-OPLS-2005>
138.908813476562

> <r_mmod_Torsional_Energy-OPLS-2005>
331.212768554688

> <r_mmod_Improper_Torsional_Energy-OPLS-2005>
7.16125106811523

> <r_mmod_Van_der_Waal_Energy-OPLS-2005>
126.495155334473

> <r_mmod_Electrostatic_Energy-OPLS-2005>
-141.432723999023

> <r_mmod_Solvation_Energy-OPLS-2005>
-430.1552734375

> <b_mmod_Minimization_Converged-OPLS-2005>
0

> <r_mmod_RMS_Derivative-OPLS-2005>
3.20225310325623

$$$$
9
                    3D
 Structure written by MMmdl.
165174  0  0  1  0            999 V2000
  -30.6323  -14.7726   20.4145 C   0  0  0  0  0  0
  -30.4261  -12.4769   19.4600 C   0  0  0  0  0  0
  -29.4997  -12.4989   18.2268 C   0  0  0  0  0  0
  -28.0336  -12.3079   18.6582 C   0  0  0  0  0  0
  -27.6319  -13.2388   19.8330 C   0  0  2  0  0  0
  -28.6808  -13.2341   20.9655 C   0  0  0  0  0  0
  -25.2501  -13.8226   20.5689 C   0  0  0  0  0  0
  -24.1798  -13.0451   20.9218 C   0  0  0  0  0  0
  -24.6405  -11.6937   20.8750 C   0  0  0  0  0  0
  -23.9086  -10.4317   21.0423 C   0  0  0  0  0  0
  -24.3631   -9.4226   21.9195 C   0  0  0  0  0  0
  -23.6302   -8.2259   22.0756 C   0  0  0  0  0  0
  -22.4288   -8.0289   21.3549 C   0  0  0  0  0  0
  -21.9932   -9.0274   20.4662 C   0  0  0  0  0  0
  -22.7259  -10.2155   20.3074 C   0  0  0  0  0  0
  -21.6859   -6.0744   22.5282 C   0  0  0  0  0  0
  -21.4020   -6.5649   23.8216 C   0  0  0  0  0  0
  -21.3650   -5.6797   24.9172 C   0  0  0  0  0  0
  -21.6044   -4.3063   24.7222 C   0  0  0  0  0  0
  -21.8810   -3.8155   23.4344 C   0  0  0  0  0  0
  -21.9199   -4.6973   22.3401 C   0  0  0  0  0  0
  -22.7824  -13.5233   21.1875 C   0  0  0  0  0  0
  -22.1652   -4.2152   21.0979 F   0  0  0  0  0  0
  -21.5635   -3.4544   25.7743 F   0  0  0  0  0  0
  -29.9704  -13.5669   20.3528 N   0  0  0  0  0  0
  -26.2908  -12.9430   20.3231 N   0  0  0  0  0  0
  -25.9330  -11.6568   20.5722 N   0  0  0  0  0  0
  -22.0474  -12.8215   22.0435 N   0  0  0  0  0  0
  -25.4225  -15.1935   20.4134 N   0  0  0  0  0  0
  -31.8595  -14.7734   20.2707 O   0  0  0  0  0  0
  -21.6639   -6.8885   21.4249 O   0  0  0  0  0  0
  -22.3500  -14.5543   20.6746 O   0  0  0  0  0  0
  -24.6326  -31.8527   23.1963 C   0  0  0  0  0  0
  -25.9148  -32.4737   23.8318 C   0  0  1  0  0  0
  -27.2247  -27.2521   20.1398 C   0  0  0  0  0  0
  -25.5924  -33.8537   24.2240 N   0  0  0  0  0  0
  -23.4285  -30.4747   21.5413 C   0  0  2  0  0  0
  -24.8753  -28.9008   20.1288 C   0  0  0  0  0  0
  -22.7505  -29.4601   22.4922 C   0  0  0  0  0  0
  -18.0291  -28.1400   22.8484 C   0  0  0  0  0  0
  -24.1499  -36.7289   23.2642 C   0  0  0  0  0  0
  -25.9749  -30.7602   21.3751 C   0  0  0  0  0  0
  -26.0478  -29.3759   20.7307 C   0  0  0  0  0  0
  -27.2278  -28.5655   20.7208 C   0  0  0  0  0  0
  -26.0295  -26.8322   19.5260 C   0  0  0  0  0  0
  -24.8673  -27.6343   19.5191 C   0  0  0  0  0  0
  -23.6506  -29.7980   20.1629 C   0  0  0  0  0  0
  -25.4118  -36.3060   24.0331 C   0  0  1  0  0  0
  -20.5904  -28.3700   23.1274 C   0  0  2  0  0  0
  -20.6815  -26.9412   22.5431 C   0  0  0  0  0  0
  -19.5782  -26.6378   21.5243 C   0  0  0  0  0  0
  -18.1953  -26.7931   22.1649 C   0  0  0  0  0  0
  -19.1547  -28.8876   23.2865 C   0  0  0  0  0  0
  -18.9457  -30.1477   23.8893 C   0  0  0  0  0  0
  -17.6456  -30.6611   24.0561 C   0  0  0  0  0  0
  -25.9052  -34.9425   23.5094 C   0  0  0  0  0  0
  -16.5350  -29.9096   23.6344 C   0  0  0  0  0  0
  -16.7273  -28.6519   23.0343 C   0  0  0  0  0  0
  -26.4505  -31.6578   25.0726 C   0  0  0  0  0  0
  -25.3736  -31.3726   26.1452 C   0  0  0  0  0  0
  -27.0352  -30.3001   24.6210 C   0  0  0  0  0  0
  -27.6063  -32.4315   25.7481 C   0  0  0  0  0  0
  -27.5577  -37.1796   24.8461 C   0  0  0  0  0  0
  -21.4215  -29.3041   22.3664 N   0  0  0  0  0  0
  -26.4291  -37.3762   23.9405 N   0  0  0  0  0  0
  -24.6985  -31.0471   22.0945 N   0  0  0  0  0  0
  -23.4200  -28.8126   23.3017 O   0  0  0  0  0  0
  -28.3621  -26.4290   20.0219 O   0  0  0  0  0  0
  -26.5626  -34.8898   22.4665 O   0  0  0  0  0  0
  -23.5469  -32.1315   23.7270 O   0  0  0  0  0  0
  -29.7028  -17.9493   18.6522 C   0  0  0  0  0  0
  -30.2789  -16.5243   18.7480 C   0  0  0  0  0  0
  -29.4964  -17.1478   20.8645 C   0  0  0  0  0  0
  -29.0579  -22.3816   20.0729 C   0  0  0  0  0  0
  -27.2291  -21.4717   21.1153 C   0  0  0  0  0  0
  -29.6521  -18.5446   20.0630 C   0  0  1  0  0  0
  -28.0477  -23.6292   20.2988 C   0  0  1  0  0  0
  -27.1586  -22.9919   21.3777 C   0  0  1  0  0  0
  -24.9354  -23.0533   22.4877 C   0  0  0  0  0  0
  -28.5359  -19.7328   20.0828 C   0  0  0  0  0  0
  -28.5524  -25.1211   20.7361 C   0  0  0  0  0  0
  -29.9318  -15.9322   20.0502 N   0  0  0  0  0  0
  -28.6034  -21.1058   20.7539 N   0  0  0  0  0  0
  -25.7677  -23.5002   21.3521 N   0  3  0  0  0  0
  -31.4648  -12.6001   19.1457 H   0  0  0  0  0  0
  -30.3788  -11.5154   19.9705 H   0  0  0  0  0  0
  -29.7887  -11.7260   17.5158 H   0  0  0  0  0  0
  -29.6089  -13.4465   17.6987 H   0  0  0  0  0  0
  -27.9208  -11.2660   18.9620 H   0  0  0  0  0  0
  -27.3646  -12.4496   17.8089 H   0  0  0  0  0  0
  -27.6107  -14.2454   19.4141 H   0  0  0  0  0  0
  -28.7261  -12.2673   21.4675 H   0  0  0  0  0  0
  -28.4226  -13.9759   21.7243 H   0  0  0  0  0  0
  -25.2779   -9.5688   22.4760 H   0  0  0  0  0  0
  -24.0016   -7.4650   22.7473 H   0  0  0  0  0  0
  -21.0859   -8.8801   19.8970 H   0  0  0  0  0  0
  -22.3718  -10.9693   19.6180 H   0  0  0  0  0  0
  -21.1996   -7.6155   23.9715 H   0  0  0  0  0  0
  -21.1482   -6.0532   25.9075 H   0  0  0  0  0  0
  -22.0598   -2.7618   23.2850 H   0  0  0  0  0  0
  -22.4072  -11.9843   22.4778 H   0  0  0  0  0  0
  -21.1098  -13.1248   22.2653 H   0  0  0  0  0  0
  -24.6656  -15.8578   20.5319 H   0  0  0  0  0  0
  -26.2858  -15.6297   20.1133 H   0  0  0  0  0  0
  -26.7213  -32.5389   23.1050 H   0  0  0  0  0  0
  -25.0085  -33.9662   25.0391 H   0  0  0  0  0  0
  -22.7262  -31.2984   21.3910 H   0  0  0  0  0  0
  -23.3749  -35.9636   23.3301 H   0  0  0  0  0  0
  -24.3588  -36.8916   22.2057 H   0  0  0  0  0  0
  -23.7252  -37.6492   23.6661 H   0  0  0  0  0  0
  -26.1085  -31.5106   20.5950 H   0  0  0  0  0  0
  -26.8555  -30.8189   22.0043 H   0  0  0  0  0  0
  -28.1407  -28.9352   21.1676 H   0  0  0  0  0  0
  -26.0018  -25.8754   19.0255 H   0  0  0  0  0  0
  -23.9704  -27.2674   19.0383 H   0  0  0  0  0  0
  -23.7817  -30.5681   19.4020 H   0  0  0  0  0  0
  -22.7672  -29.2366   19.8576 H   0  0  0  0  0  0
  -25.1297  -36.1908   25.0825 H   0  0  0  0  0  0
  -20.9978  -28.3322   24.1402 H   0  0  0  0  0  0
  -20.5755  -26.2313   23.3646 H   0  0  0  0  0  0
  -21.6682  -26.7458   22.1213 H   0  0  0  0  0  0
  -19.6933  -25.6273   21.1325 H   0  0  0  0  0  0
  -19.6748  -27.3178   20.6756 H   0  0  0  0  0  0
  -17.4211  -26.6623   21.4070 H   0  0  0  0  0  0
  -18.0374  -26.0101   22.9081 H   0  0  0  0  0  0
  -19.7921  -30.7309   24.2259 H   0  0  0  0  0  0
  -17.4999  -31.6293   24.5141 H   0  0  0  0  0  0
  -15.5342  -30.2991   23.7650 H   0  0  0  0  0  0
  -15.8681  -28.0826   22.7051 H   0  0  0  0  0  0
  -24.5913  -30.7064   25.7790 H   0  0  0  0  0  0
  -24.8919  -32.2891   26.4867 H   0  0  0  0  0  0
  -25.8065  -30.8913   27.0231 H   0  0  0  0  0  0
  -26.2937  -29.6729   24.1250 H   0  0  0  0  0  0
  -27.4055  -29.7277   25.4720 H   0  0  0  0  0  0
  -27.8798  -30.4282   23.9444 H   0  0  0  0  0  0
  -27.2690  -33.3616   26.2053 H   0  0  0  0  0  0
  -28.3866  -32.6864   25.0307 H   0  0  0  0  0  0
  -28.0733  -31.8440   26.5386 H   0  0  0  0  0  0
  -28.2595  -38.0094   24.7494 H   0  0  0  0  0  0
  -28.1076  -36.2614   24.6306 H   0  0  0  0  0  0
  -27.2297  -37.1477   25.8870 H   0  0  0  0  0  0
  -20.9391  -29.8766   21.6880 H   0  0  0  0  0  0
  -26.0172  -38.2844   24.1392 H   0  0  0  0  0  0
  -28.6868  -17.8702   18.2600 H   0  0  0  0  0  0
  -30.2580  -18.5739   17.9486 H   0  0  0  0  0  0
  -29.8902  -15.9036   17.9388 H   0  0  0  0  0  0
  -31.3643  -16.5762   18.6265 H   0  0  0  0  0  0
  -28.4490  -16.9992   21.1263 H   0  0  0  0  0  0
  -30.0483  -17.1902   21.8045 H   0  0  0  0  0  0
  -30.0437  -22.6328   20.4706 H   0  0  0  0  0  0
  -29.1954  -22.2104   19.0031 H   0  0  0  0  0  0
  -26.5635  -21.2341   20.2823 H   0  0  0  0  0  0
  -26.8923  -20.8944   21.9781 H   0  0  0  0  0  0
  -30.6320  -18.9704   20.2823 H   0  0  0  0  0  0
  -27.4772  -23.7324   19.3767 H   0  0  0  0  0  0
  -27.5975  -23.1891   22.3575 H   0  0  0  0  0  0
  -25.4054  -23.2993   23.4402 H   0  0  0  0  0  0
  -24.7570  -21.9774   22.4631 H   0  0  0  0  0  0
  -23.9666  -23.5498   22.4565 H   0  0  0  0  0  0
  -27.6471  -19.2312   20.4707 H   0  0  0  0  0  0
  -28.2715  -19.9494   19.0467 H   0  0  0  0  0  0
  -29.6369  -25.0370   20.8127 H   0  0  0  0  0  0
  -28.2461  -25.3063   21.7656 H   0  0  0  0  0  0
  -25.3185  -23.2207   20.4943 H   0  0  0  0  0  0
  -25.7881  -24.5071   21.3782 H   0  0  0  0  0  0
  1 25  1  0  0  0
  1 30  2  0  0  0
  1 82  1  0  0  0
  2  3  1  0  0  0
  2 25  1  0  0  0
  2 85  1  0  0  0
  2 86  1  0  0  0
  3  4  1  0  0  0
  3 87  1  0  0  0
  3 88  1  0  0  0
  4  5  1  0  0  0
  4 89  1  0  0  0
  4 90  1  0  0  0
  5  6  1  0  0  0
  5 26  1  0  0  0
  5 91  1  0  0  0
  6 25  1  0  0  0
  6 92  1  0  0  0
  6 93  1  0  0  0
  7  8  2  0  0  0
  7 26  1  0  0  0
  7 29  1  0  0  0
  8  9  1  0  0  0
  8 22  1  0  0  0
  9 10  1  0  0  0
  9 27  2  0  0  0
 10 11  2  0  0  0
 10 15  1  0  0  0
 11 12  1  0  0  0
 11 94  1  0  0  0
 12 13  2  0  0  0
 12 95  1  0  0  0
 13 14  1  0  0  0
 13 31  1  0  0  0
 14 15  2  0  0  0
 14 96  1  0  0  0
 15 97  1  0  0  0
 16 17  2  0  0  0
 16 21  1  0  0  0
 16 31  1  0  0  0
 17 18  1  0  0  0
 17 98  1  0  0  0
 18 19  2  0  0  0
 18 99  1  0  0  0
 19 20  1  0  0  0
 19 24  1  0  0  0
 20 21  2  0  0  0
 20100  1  0  0  0
 21 23  1  0  0  0
 22 28  1  0  0  0
 22 32  2  0  0  0
 26 27  1  0  0  0
 28101  1  0  0  0
 28102  1  0  0  0
 29103  1  0  0  0
 29104  1  0  0  0
 33 34  1  0  0  0
 33 66  1  0  0  0
 33 70  2  0  0  0
 34 36  1  0  0  0
 34 59  1  0  0  0
 34105  1  0  0  0
 35 44  2  0  0  0
 35 45  1  0  0  0
 35 68  1  0  0  0
 36 56  1  0  0  0
 36106  1  0  0  0
 37 39  1  0  0  0
 37 47  1  0  0  0
 37 66  1  0  0  0
 37107  1  0  0  0
 38 43  2  0  0  0
 38 46  1  0  0  0
 38 47  1  0  0  0
 39 64  1  0  0  0
 39 67  2  0  0  0
 40 52  1  0  0  0
 40 53  2  0  0  0
 40 58  1  0  0  0
 41108  1  0  0  0
 41109  1  0  0  0
 41110  1  0  0  0
 41 48  1  0  0  0
 42 43  1  0  0  0
 42 66  1  0  0  0
 42111  1  0  0  0
 42112  1  0  0  0
 43 44  1  0  0  0
 44113  1  0  0  0
 45 46  2  0  0  0
 45114  1  0  0  0
 46115  1  0  0  0
 47116  1  0  0  0
 47117  1  0  0  0
 48 56  1  0  0  0
 48 65  1  0  0  0
 48118  1  0  0  0
 49 50  1  0  0  0
 49 53  1  0  0  0
 49 64  1  0  0  0
 49119  1  0  0  0
 50 51  1  0  0  0
 50120  1  0  0  0
 50121  1  0  0  0
 51 52  1  0  0  0
 51122  1  0  0  0
 51123  1  0  0  0
 52124  1  0  0  0
 52125  1  0  0  0
 53 54  1  0  0  0
 54 55  2  0  0  0
 54126  1  0  0  0
 55 57  1  0  0  0
 55127  1  0  0  0
 56 69  2  0  0  0
 57 58  2  0  0  0
 57128  1  0  0  0
 58129  1  0  0  0
 59 60  1  0  0  0
 59 61  1  0  0  0
 59 62  1  0  0  0
 60130  1  0  0  0
 60131  1  0  0  0
 60132  1  0  0  0
 61133  1  0  0  0
 61134  1  0  0  0
 61135  1  0  0  0
 62136  1  0  0  0
 62137  1  0  0  0
 62138  1  0  0  0
 63 65  1  0  0  0
 63139  1  0  0  0
 63140  1  0  0  0
 63141  1  0  0  0
 64142  1  0  0  0
 65143  1  0  0  0
 68 81  1  0  0  0
 71 72  1  0  0  0
 71 76  1  0  0  0
 71144  1  0  0  0
 71145  1  0  0  0
 72 82  1  0  0  0
 72146  1  0  0  0
 72147  1  0  0  0
 73 76  1  0  0  0
 73 82  1  0  0  0
 73148  1  0  0  0
 73149  1  0  0  0
 74 77  1  0  0  0
 74 83  1  0  0  0
 74150  1  0  0  0
 74151  1  0  0  0
 75 78  1  0  0  0
 75 83  1  0  0  0
 75152  1  0  0  0
 75153  1  0  0  0
 76 80  1  0  0  0
 76154  1  0  0  0
 77 78  1  0  0  0
 77 81  1  0  0  0
 77155  1  0  0  0
 78 84  1  0  0  0
 78156  1  0  0  0
 79 84  1  0  0  0
 79157  1  0  0  0
 79158  1  0  0  0
 79159  1  0  0  0
 80 83  1  0  0  0
 80160  1  0  0  0
 80161  1  0  0  0
 81162  1  0  0  0
 81163  1  0  0  0
 84164  1  0  0  0
 84165  1  0  0  0
M  CHG  1  84   1
M  ISO  4   1 100  68 101  81 101  82 100
M  END
> <chiral flag>
0

> <version>
0

> <s_m_source_file>
/data/baiqing/PycharmProjects/Reinvent-master-3.2/result/LINK_invent/BTK/process_docking_weight1_custom_sum_contain_oxygen_bond_distance_aromatic_linkinvent_7_9_3/rearranged_h_0199.sdf

> <i_m_source_file_index>
10

> <r_mmod_Potential_Energy-OPLS-2005>
480.991546630859

> <r_mmod_Stretch_Energy-OPLS-2005>
133.297134399414

> <r_mmod_Bend_Energy-OPLS-2005>
284.148651123047

> <r_mmod_Torsional_Energy-OPLS-2005>
470.132843017578

> <r_mmod_Improper_Torsional_Energy-OPLS-2005>
24.0151138305664

> <r_mmod_Van_der_Waal_Energy-OPLS-2005>
107.986137390137

> <r_mmod_Electrostatic_Energy-OPLS-2005>
-172.811416625977

> <r_mmod_Solvation_Energy-OPLS-2005>
-461.384552001953

> <b_mmod_Minimization_Converged-OPLS-2005>
0

> <r_mmod_RMS_Derivative-OPLS-2005>
3.51877212524414

$$$$
10
                    3D
 Structure written by MMmdl.
151160  0  0  1  0            999 V2000
  -30.5812  -14.8187   20.4169 C   0  0  0  0  0  0
  -30.4303  -12.4949   19.4806 C   0  0  0  0  0  0
  -29.5126  -12.5080   18.2382 C   0  0  0  0  0  0
  -28.0393  -12.3263   18.6523 C   0  0  0  0  0  0
  -27.6341  -13.2403   19.8413 C   0  0  2  0  0  0
  -28.6787  -13.2189   20.9765 C   0  0  0  0  0  0
  -25.2477  -13.8220   20.5694 C   0  0  0  0  0  0
  -24.1780  -13.0453   20.9215 C   0  0  0  0  0  0
  -24.6392  -11.6936   20.8758 C   0  0  0  0  0  0
  -23.9080  -10.4308   21.0414 C   0  0  0  0  0  0
  -24.3623   -9.4217   21.9185 C   0  0  0  0  0  0
  -23.6311   -8.2244   22.0744 C   0  0  0  0  0  0
  -22.4292   -8.0281   21.3539 C   0  0  0  0  0  0
  -21.9929   -9.0261   20.4645 C   0  0  0  0  0  0
  -22.7249  -10.2147   20.3068 C   0  0  0  0  0  0
  -21.6851   -6.0742   22.5283 C   0  0  0  0  0  0
  -21.4022   -6.5648   23.8220 C   0  0  0  0  0  0
  -21.3662   -5.6796   24.9177 C   0  0  0  0  0  0
  -21.6039   -4.3056   24.7222 C   0  0  0  0  0  0
  -21.8811   -3.8152   23.4342 C   0  0  0  0  0  0
  -21.9194   -4.6971   22.3404 C   0  0  0  0  0  0
  -22.7794  -13.5224   21.1866 C   0  0  0  0  0  0
  -22.1649   -4.2155   21.0979 F   0  0  0  0  0  0
  -21.5637   -3.4534   25.7731 F   0  0  0  0  0  0
  -29.9663  -13.5822   20.3764 N   0  0  0  0  0  0
  -26.2906  -12.9435   20.3258 N   0  0  0  0  0  0
  -25.9327  -11.6573   20.5753 N   0  0  0  0  0  0
  -22.0437  -12.8235   22.0437 N   0  0  0  0  0  0
  -25.4166  -15.1947   20.4110 N   0  0  0  0  0  0
  -31.7873  -14.8827   20.1601 O   0  0  0  0  0  0
  -21.6643   -6.8885   21.4244 O   0  0  0  0  0  0
  -22.3466  -14.5518   20.6694 O   0  0  0  0  0  0
  -24.6386  -31.8500   23.1926 C   0  0  0  0  0  0
  -25.9185  -32.4725   23.8296 C   0  0  1  0  0  0
  -27.2115  -27.1985   20.1309 C   0  0  0  0  0  0
  -25.5960  -33.8525   24.2223 N   0  0  0  0  0  0
  -23.4367  -30.4720   21.5388 C   0  0  2  0  0  0
  -24.8815  -28.9091   20.1069 C   0  0  0  0  0  0
  -22.7531  -29.4579   22.4894 C   0  0  0  0  0  0
  -18.0299  -28.1386   22.8485 C   0  0  0  0  0  0
  -24.1490  -36.7278   23.2640 C   0  0  0  0  0  0
  -25.9889  -30.7407   21.3817 C   0  0  0  0  0  0
  -26.0569  -29.3583   20.7224 C   0  0  0  0  0  0
  -27.2246  -28.5171   20.7199 C   0  0  0  0  0  0
  -26.0102  -26.8336   19.4848 C   0  0  0  0  0  0
  -24.8668  -27.6578   19.4740 C   0  0  0  0  0  0
  -23.6562  -29.8058   20.1549 C   0  0  0  0  0  0
  -25.4118  -36.3052   24.0320 C   0  0  1  0  0  0
  -20.5907  -28.3707   23.1248 C   0  0  2  0  0  0
  -20.6789  -26.9419   22.5404 C   0  0  0  0  0  0
  -19.5766  -26.6375   21.5214 C   0  0  0  0  0  0
  -18.1943  -26.7924   22.1626 C   0  0  0  0  0  0
  -19.1552  -28.8869   23.2856 C   0  0  0  0  0  0
  -18.9470  -30.1465   23.8877 C   0  0  0  0  0  0
  -17.6464  -30.6582   24.0561 C   0  0  0  0  0  0
  -25.9070  -34.9424   23.5082 C   0  0  0  0  0  0
  -16.5359  -29.9079   23.6329 C   0  0  0  0  0  0
  -16.7282  -28.6496   23.0358 C   0  0  0  0  0  0
  -26.4521  -31.6566   25.0716 C   0  0  0  0  0  0
  -25.3723  -31.3733   26.1429 C   0  0  0  0  0  0
  -27.0377  -30.2973   24.6240 C   0  0  0  0  0  0
  -27.6059  -32.4327   25.7501 C   0  0  0  0  0  0
  -27.5579  -37.1796   24.8464 C   0  0  0  0  0  0
  -21.4239  -29.3043   22.3633 N   0  0  0  0  0  0
  -26.4289  -37.3758   23.9409 N   0  0  0  0  0  0
  -24.7082  -31.0406   22.0938 N   0  0  0  0  0  0
  -23.4209  -28.8134   23.3020 O   0  0  0  0  0  0
  -28.2858  -26.2587   20.1895 O   0  0  0  0  0  0
  -26.5642  -34.8913   22.4651 O   0  0  0  0  0  0
  -23.5518  -32.1369   23.7182 O   0  0  0  0  0  0
  -29.8385  -20.9796   20.4969 C   0  0  0  0  0  0
  -27.8353  -21.3608   19.8543 C   0  0  0  0  0  0
  -29.2627  -19.7029   20.2827 C   0  0  0  0  0  0
  -29.2936  -16.9869   21.2738 C   0  0  0  0  0  0
  -29.9686  -17.1074   19.3061 C   0  0  0  0  0  0
  -29.8375  -18.1917   20.4222 C   0  0  0  0  0  0
  -29.1515  -23.5986   20.3540 C   0  0  0  0  0  0
  -28.0259  -24.7557   20.0339 C   0  0  0  0  0  0
  -27.9595  -20.0121   19.8613 N   0  0  0  0  0  0
  -28.9223  -22.0622   20.2330 N   0  0  0  0  0  0
  -29.7871  -15.9723   20.2774 N   0  0  0  0  0  0
  -31.4718  -12.6219   19.1812 H   0  0  0  0  0  0
  -30.3777  -11.5310   19.9885 H   0  0  0  0  0  0
  -29.8082  -11.7218   17.5414 H   0  0  0  0  0  0
  -29.6262  -13.4523   17.7030 H   0  0  0  0  0  0
  -27.9065  -11.2798   18.9305 H   0  0  0  0  0  0
  -27.3801  -12.4970   17.8002 H   0  0  0  0  0  0
  -27.6140  -14.2548   19.4420 H   0  0  0  0  0  0
  -28.7305  -12.2368   21.4499 H   0  0  0  0  0  0
  -28.4089  -13.9307   21.7576 H   0  0  0  0  0  0
  -25.2766   -9.5696   22.4753 H   0  0  0  0  0  0
  -24.0021   -7.4641   22.7468 H   0  0  0  0  0  0
  -21.0852   -8.8784   19.8968 H   0  0  0  0  0  0
  -22.3700  -10.9682   19.6179 H   0  0  0  0  0  0
  -21.2012   -7.6150   23.9730 H   0  0  0  0  0  0
  -21.1490   -6.0516   25.9080 H   0  0  0  0  0  0
  -22.0592   -2.7613   23.2832 H   0  0  0  0  0  0
  -22.4055  -11.9925   22.4873 H   0  0  0  0  0  0
  -21.1045  -13.1258   22.2626 H   0  0  0  0  0  0
  -24.6519  -15.8508   20.5237 H   0  0  0  0  0  0
  -26.2745  -15.6336   20.1001 H   0  0  0  0  0  0
  -26.7258  -32.5346   23.1034 H   0  0  0  0  0  0
  -25.0096  -33.9645   25.0365 H   0  0  0  0  0  0
  -22.7365  -31.2968   21.3908 H   0  0  0  0  0  0
  -23.3747  -35.9619   23.3306 H   0  0  0  0  0  0
  -24.3574  -36.8902   22.2057 H   0  0  0  0  0  0
  -23.7254  -37.6481   23.6668 H   0  0  0  0  0  0
  -26.1368  -31.4939   20.6067 H   0  0  0  0  0  0
  -26.8637  -30.7892   22.0180 H   0  0  0  0  0  0
  -28.1223  -28.8522   21.2203 H   0  0  0  0  0  0
  -25.9200  -25.8771   18.9918 H   0  0  0  0  0  0
  -23.9694  -27.3083   18.9810 H   0  0  0  0  0  0
  -23.7878  -30.5829   19.4014 H   0  0  0  0  0  0
  -22.7710  -29.2464   19.8476 H   0  0  0  0  0  0
  -25.1299  -36.1893   25.0812 H   0  0  0  0  0  0
  -21.0001  -28.3297   24.1370 H   0  0  0  0  0  0
  -20.5689  -26.2326   23.3619 H   0  0  0  0  0  0
  -21.6656  -26.7437   22.1203 H   0  0  0  0  0  0
  -19.6929  -25.6281   21.1259 H   0  0  0  0  0  0
  -19.6698  -27.3174   20.6734 H   0  0  0  0  0  0
  -17.4217  -26.6672   21.4023 H   0  0  0  0  0  0
  -18.0335  -26.0058   22.9015 H   0  0  0  0  0  0
  -19.7949  -30.7284   24.2233 H   0  0  0  0  0  0
  -17.5022  -31.6258   24.5169 H   0  0  0  0  0  0
  -15.5359  -30.2979   23.7650 H   0  0  0  0  0  0
  -15.8687  -28.0802   22.7088 H   0  0  0  0  0  0
  -24.5893  -30.7093   25.7751 H   0  0  0  0  0  0
  -24.8928  -32.2910   26.4840 H   0  0  0  0  0  0
  -25.8026  -30.8915   27.0217 H   0  0  0  0  0  0
  -26.2974  -29.6707   24.1256 H   0  0  0  0  0  0
  -27.4032  -29.7248   25.4773 H   0  0  0  0  0  0
  -27.8862  -30.4233   23.9512 H   0  0  0  0  0  0
  -27.2645  -33.3627   26.2054 H   0  0  0  0  0  0
  -28.3876  -32.6891   25.0341 H   0  0  0  0  0  0
  -28.0722  -31.8477   26.5438 H   0  0  0  0  0  0
  -28.2590  -38.0096   24.7502 H   0  0  0  0  0  0
  -28.1075  -36.2627   24.6295 H   0  0  0  0  0  0
  -27.2299  -37.1449   25.8866 H   0  0  0  0  0  0
  -20.9436  -29.8763   21.6827 H   0  0  0  0  0  0
  -26.0163  -38.2832   24.1395 H   0  0  0  0  0  0
  -30.8470  -21.2035   20.8204 H   0  0  0  0  0  0
  -26.9154  -21.8481   19.5597 H   0  0  0  0  0  0
  -28.2059  -17.0001   21.3606 H   0  0  0  0  0  0
  -29.7490  -16.9144   22.2620 H   0  0  0  0  0  0
  -30.9345  -17.1242   18.7980 H   0  0  0  0  0  0
  -29.1654  -17.1675   18.5699 H   0  0  0  0  0  0
  -30.8601  -18.3321   20.7768 H   0  0  0  0  0  0
  -29.4964  -23.7675   21.3740 H   0  0  0  0  0  0
  -30.0159  -23.8192   19.7270 H   0  0  0  0  0  0
  -27.1524  -24.5220   20.6441 H   0  0  0  0  0  0
  -27.7149  -24.5919   19.0022 H   0  0  0  0  0  0
  1 25  1  0  0  0
  1 30  2  0  0  0
  1 81  1  0  0  0
  2  3  1  0  0  0
  2 25  1  0  0  0
  2 82  1  0  0  0
  2 83  1  0  0  0
  3  4  1  0  0  0
  3 84  1  0  0  0
  3 85  1  0  0  0
  4  5  1  0  0  0
  4 86  1  0  0  0
  4 87  1  0  0  0
  5  6  1  0  0  0
  5 26  1  0  0  0
  5 88  1  0  0  0
  6 25  1  0  0  0
  6 89  1  0  0  0
  6 90  1  0  0  0
  7  8  2  0  0  0
  7 26  1  0  0  0
  7 29  1  0  0  0
  8  9  1  0  0  0
  8 22  1  0  0  0
  9 10  1  0  0  0
  9 27  2  0  0  0
 10 11  2  0  0  0
 10 15  1  0  0  0
 11 12  1  0  0  0
 11 91  1  0  0  0
 12 13  2  0  0  0
 12 92  1  0  0  0
 13 14  1  0  0  0
 13 31  1  0  0  0
 14 15  2  0  0  0
 14 93  1  0  0  0
 15 94  1  0  0  0
 16 17  2  0  0  0
 16 21  1  0  0  0
 16 31  1  0  0  0
 17 18  1  0  0  0
 17 95  1  0  0  0
 18 19  2  0  0  0
 18 96  1  0  0  0
 19 20  1  0  0  0
 19 24  1  0  0  0
 20 21  2  0  0  0
 20 97  1  0  0  0
 21 23  1  0  0  0
 22 28  1  0  0  0
 22 32  2  0  0  0
 26 27  1  0  0  0
 28 98  1  0  0  0
 28 99  1  0  0  0
 29100  1  0  0  0
 29101  1  0  0  0
 33 34  1  0  0  0
 33 66  1  0  0  0
 33 70  2  0  0  0
 34 36  1  0  0  0
 34 59  1  0  0  0
 34102  1  0  0  0
 35 44  2  0  0  0
 35 45  1  0  0  0
 35 68  1  0  0  0
 36 56  1  0  0  0
 36103  1  0  0  0
 37 39  1  0  0  0
 37 47  1  0  0  0
 37 66  1  0  0  0
 37104  1  0  0  0
 38 43  2  0  0  0
 38 46  1  0  0  0
 38 47  1  0  0  0
 39 64  1  0  0  0
 39 67  2  0  0  0
 40 52  1  0  0  0
 40 53  2  0  0  0
 40 58  1  0  0  0
 41105  1  0  0  0
 41106  1  0  0  0
 41107  1  0  0  0
 41 48  1  0  0  0
 42 43  1  0  0  0
 42 66  1  0  0  0
 42108  1  0  0  0
 42109  1  0  0  0
 43 44  1  0  0  0
 44110  1  0  0  0
 45 46  2  0  0  0
 45111  1  0  0  0
 46112  1  0  0  0
 47113  1  0  0  0
 47114  1  0  0  0
 48 56  1  0  0  0
 48 65  1  0  0  0
 48115  1  0  0  0
 49 50  1  0  0  0
 49 53  1  0  0  0
 49 64  1  0  0  0
 49116  1  0  0  0
 50 51  1  0  0  0
 50117  1  0  0  0
 50118  1  0  0  0
 51 52  1  0  0  0
 51119  1  0  0  0
 51120  1  0  0  0
 52121  1  0  0  0
 52122  1  0  0  0
 53 54  1  0  0  0
 54 55  2  0  0  0
 54123  1  0  0  0
 55 57  1  0  0  0
 55124  1  0  0  0
 56 69  2  0  0  0
 57 58  2  0  0  0
 57125  1  0  0  0
 58126  1  0  0  0
 59 60  1  0  0  0
 59 61  1  0  0  0
 59 62  1  0  0  0
 60127  1  0  0  0
 60128  1  0  0  0
 60129  1  0  0  0
 61130  1  0  0  0
 61131  1  0  0  0
 61132  1  0  0  0
 62133  1  0  0  0
 62134  1  0  0  0
 62135  1  0  0  0
 63 65  1  0  0  0
 63136  1  0  0  0
 63137  1  0  0  0
 63138  1  0  0  0
 64139  1  0  0  0
 65140  1  0  0  0
 68 78  1  0  0  0
 71 73  2  0  0  0
 71 80  1  0  0  0
 71141  1  0  0  0
 72 79  2  0  0  0
 72 80  1  0  0  0
 72142  1  0  0  0
 73 79  1  0  0  0
 73 76  1  0  0  0
 74 76  1  0  0  0
 74 81  1  0  0  0
 74143  1  0  0  0
 74144  1  0  0  0
 75 76  1  0  0  0
 75 81  1  0  0  0
 75145  1  0  0  0
 75146  1  0  0  0
 76147  1  0  0  0
 77 78  1  0  0  0
 77 80  1  0  0  0
 77148  1  0  0  0
 77149  1  0  0  0
 78150  1  0  0  0
 78151  1  0  0  0
M  ISO  4   1 100  68 101  78 101  81 100
M  END
> <chiral flag>
0

> <version>
0

> <s_m_source_file>
/data/baiqing/PycharmProjects/Reinvent-master-3.2/result/LINK_invent/BTK/process_docking_weight1_custom_sum_contain_oxygen_bond_distance_aromatic_linkinvent_7_9_3/rearranged_h_0199.sdf

> <i_m_source_file_index>
11

> <r_mmod_Potential_Energy-OPLS-2005>
344.995300292969

> <r_mmod_Stretch_Energy-OPLS-2005>
159.29133605957

> <r_mmod_Bend_Energy-OPLS-2005>
209.420623779297

> <r_mmod_Torsional_Energy-OPLS-2005>
272.692718505859

> <r_mmod_Improper_Torsional_Energy-OPLS-2005>
19.1601486206055

> <r_mmod_Van_der_Waal_Energy-OPLS-2005>
107.989097595215

> <r_mmod_Electrostatic_Energy-OPLS-2005>
-330.683013916016

> <r_mmod_Solvation_Energy-OPLS-2005>
-219.248764038086

> <b_mmod_Minimization_Converged-OPLS-2005>
0

> <r_mmod_RMS_Derivative-OPLS-2005>
2.01254057884216

$$$$
11
                    3D
 Structure written by MMmdl.
174182  0  0  1  0            999 V2000
  -30.7644  -14.4028   20.5873 C   0  0  0  0  0  0
  -30.4011  -12.2699   19.4225 C   0  0  0  0  0  0
  -29.4873  -12.4990   18.2037 C   0  0  0  0  0  0
  -28.0075  -12.3693   18.6118 C   0  0  0  0  0  0
  -27.6570  -13.2094   19.8698 C   0  0  2  0  0  0
  -28.6947  -12.9960   20.9930 C   0  0  0  0  0  0
  -25.2542  -13.8166   20.5599 C   0  0  0  0  0  0
  -24.1812  -13.0443   20.9148 C   0  0  0  0  0  0
  -24.6370  -11.6915   20.8738 C   0  0  0  0  0  0
  -23.9037  -10.4304   21.0404 C   0  0  0  0  0  0
  -24.3601   -9.4221   21.9175 C   0  0  0  0  0  0
  -23.6287   -8.2253   22.0748 C   0  0  0  0  0  0
  -22.4276   -8.0275   21.3532 C   0  0  0  0  0  0
  -21.9896   -9.0244   20.4640 C   0  0  0  0  0  0
  -22.7209  -10.2130   20.3053 C   0  0  0  0  0  0
  -21.6852   -6.0728   22.5266 C   0  0  0  0  0  0
  -21.4022   -6.5641   23.8202 C   0  0  0  0  0  0
  -21.3662   -5.6793   24.9163 C   0  0  0  0  0  0
  -21.6041   -4.3058   24.7215 C   0  0  0  0  0  0
  -21.8820   -3.8141   23.4344 C   0  0  0  0  0  0
  -21.9195   -4.6954   22.3396 C   0  0  0  0  0  0
  -22.7844  -13.5239   21.1821 C   0  0  0  0  0  0
  -22.1657   -4.2135   21.0974 F   0  0  0  0  0  0
  -21.5617   -3.4547   25.7735 F   0  0  0  0  0  0
  -30.0313  -13.2657   20.4407 N   0  0  0  0  0  0
  -26.2992  -12.9350   20.3342 N   0  0  0  0  0  0
  -25.9308  -11.6512   20.5791 N   0  0  0  0  0  0
  -22.0490  -12.8254   22.0406 N   0  0  0  0  0  0
  -25.4216  -15.1879   20.3866 N   0  0  0  0  0  0
  -31.8975  -14.5221   20.1139 O   0  0  0  0  0  0
  -21.6643   -6.8868   21.4231 O   0  0  0  0  0  0
  -22.3545  -14.5545   20.6668 O   0  0  0  0  0  0
  -24.6111  -31.8710   23.2129 C   0  0  0  0  0  0
  -25.9022  -32.4850   23.8414 C   0  0  1  0  0  0
  -27.2396  -27.4872   20.0721 C   0  0  0  0  0  0
  -25.5890  -33.8641   24.2344 N   0  0  0  0  0  0
  -23.3982  -30.4946   21.5520 C   0  0  2  0  0  0
  -24.8436  -28.9647   20.1173 C   0  0  0  0  0  0
  -22.7383  -29.4670   22.4997 C   0  0  0  0  0  0
  -18.0272  -28.1363   22.8503 C   0  0  0  0  0  0
  -24.1484  -36.7323   23.2638 C   0  0  0  0  0  0
  -25.9220  -30.8512   21.3591 C   0  0  0  0  0  0
  -26.0009  -29.4876   20.7097 C   0  0  0  0  0  0
  -27.2020  -28.7523   20.6896 C   0  0  0  0  0  0
  -26.0721  -26.9647   19.4790 C   0  0  0  0  0  0
  -24.8699  -27.6978   19.5060 C   0  0  0  0  0  0
  -23.6034  -29.8272   20.1664 C   0  0  0  0  0  0
  -25.4101  -36.3119   24.0345 C   0  0  1  0  0  0
  -20.5842  -28.3647   23.1314 C   0  0  2  0  0  0
  -20.6785  -26.9412   22.5372 C   0  0  0  0  0  0
  -19.5765  -26.6358   21.5197 C   0  0  0  0  0  0
  -18.1953  -26.7917   22.1624 C   0  0  0  0  0  0
  -19.1507  -28.8822   23.2918 C   0  0  0  0  0  0
  -18.9408  -30.1435   23.8915 C   0  0  0  0  0  0
  -17.6413  -30.6572   24.0564 C   0  0  0  0  0  0
  -25.9042  -34.9487   23.5141 C   0  0  0  0  0  0
  -16.5320  -29.9060   23.6319 C   0  0  0  0  0  0
  -16.7264  -28.6471   23.0351 C   0  0  0  0  0  0
  -26.4465  -31.6628   25.0734 C   0  0  0  0  0  0
  -25.3733  -31.3728   26.1485 C   0  0  0  0  0  0
  -27.0298  -30.3080   24.6082 C   0  0  0  0  0  0
  -27.6066  -32.4324   25.7491 C   0  0  0  0  0  0
  -27.5578  -37.1816   24.8465 C   0  0  0  0  0  0
  -21.4124  -29.3018   22.3722 N   0  0  0  0  0  0
  -26.4293  -37.3789   23.9401 N   0  0  0  0  0  0
  -24.6622  -31.0858   22.1006 N   0  0  0  0  0  0
  -23.4184  -28.8218   23.3021 O   0  0  0  0  0  0
  -28.4068  -26.7701   20.0455 O   0  0  0  0  0  0
  -26.5575  -34.8942   22.4690 O   0  0  0  0  0  0
  -23.5306  -32.1431   23.7540 O   0  0  0  0  0  0
  -30.3011  -16.6813   20.0913 C   0  0  0  0  0  0
  -30.0760  -15.8346   22.4174 C   0  0  0  0  0  0
  -29.4667  -17.9071   20.4689 C   0  0  0  0  0  0
  -29.2454  -17.0946   22.7564 C   0  0  0  0  0  0
  -30.2021  -21.5156   23.7721 C   0  0  0  0  0  0
  -25.5282  -21.1183   22.3691 C   0  0  0  0  0  0
  -29.8523  -20.0206   23.6399 C   0  0  0  0  0  0
  -28.2166  -24.3989   20.5859 C   0  0  0  0  0  0
  -27.6508  -19.7407   22.2332 C   0  0  0  0  0  0
  -27.7012  -23.4868   21.7111 C   0  0  0  0  0  0
  -28.4981  -25.8208   21.1005 C   0  0  0  0  0  0
  -29.2016  -19.5965   22.2951 C   0  0  2  0  0  0
  -27.0677  -21.1684   22.3621 C   0  0  1  0  0  0
  -30.0954  -15.5138   20.9759 N   0  0  0  0  0  0
  -29.6642  -18.2312   21.8985 N   0  3  0  0  0  0
  -27.5460  -22.0770   21.2871 N   0  3  0  0  0  0
  -31.4500  -12.3321   19.1237 H   0  0  0  0  0  0
  -30.2648  -11.2619   19.8190 H   0  0  0  0  0  0
  -29.7238  -11.7817   17.4164 H   0  0  0  0  0  0
  -29.6692  -13.4906   17.7859 H   0  0  0  0  0  0
  -27.8090  -11.3153   18.8069 H   0  0  0  0  0  0
  -27.3608  -12.6508   17.7793 H   0  0  0  0  0  0
  -27.7023  -14.2580   19.5753 H   0  0  0  0  0  0
  -28.6535  -11.9707   21.3650 H   0  0  0  0  0  0
  -28.4530  -13.6258   21.8468 H   0  0  0  0  0  0
  -25.2745   -9.5709   22.4744 H   0  0  0  0  0  0
  -23.9988   -7.4664   22.7494 H   0  0  0  0  0  0
  -21.0805   -8.8760   19.8973 H   0  0  0  0  0  0
  -22.3647  -10.9661   19.6164 H   0  0  0  0  0  0
  -21.2029   -7.6156   23.9690 H   0  0  0  0  0  0
  -21.1475   -6.0534   25.9058 H   0  0  0  0  0  0
  -22.0601   -2.7608   23.2845 H   0  0  0  0  0  0
  -22.4102  -11.9925   22.4814 H   0  0  0  0  0  0
  -21.1113  -13.1297   22.2623 H   0  0  0  0  0  0
  -24.6315  -15.8224   20.4153 H   0  0  0  0  0  0
  -26.2540  -15.6085   19.9957 H   0  0  0  0  0  0
  -26.7086  -32.5576   23.1179 H   0  0  0  0  0  0
  -25.0086  -33.9816   25.0516 H   0  0  0  0  0  0
  -22.6825  -31.3079   21.4145 H   0  0  0  0  0  0
  -23.3753  -35.9655   23.3323 H   0  0  0  0  0  0
  -24.3581  -36.8905   22.2051 H   0  0  0  0  0  0
  -23.7258  -37.6544   23.6632 H   0  0  0  0  0  0
  -26.0258  -31.6175   20.5892 H   0  0  0  0  0  0
  -26.8135  -30.9058   21.9724 H   0  0  0  0  0  0
  -28.0988  -29.1516   21.1416 H   0  0  0  0  0  0
  -26.0917  -26.0041   18.9875 H   0  0  0  0  0  0
  -23.9799  -27.2898   19.0455 H   0  0  0  0  0  0
  -23.7026  -30.6034   19.4046 H   0  0  0  0  0  0
  -22.7303  -29.2397   19.8770 H   0  0  0  0  0  0
  -25.1284  -36.1985   25.0840 H   0  0  0  0  0  0
  -20.9937  -28.3172   24.1424 H   0  0  0  0  0  0
  -20.5768  -26.2267   23.3546 H   0  0  0  0  0  0
  -21.6667  -26.7528   22.1155 H   0  0  0  0  0  0
  -19.6726  -27.3105   20.6685 H   0  0  0  0  0  0
  -19.6917  -25.6237   21.1296 H   0  0  0  0  0  0
  -17.4228  -26.6636   21.4020 H   0  0  0  0  0  0
  -18.0398  -26.0061   22.9032 H   0  0  0  0  0  0
  -19.7859  -30.7250   24.2339 H   0  0  0  0  0  0
  -17.4929  -31.6282   24.5087 H   0  0  0  0  0  0
  -15.5310  -30.2950   23.7580 H   0  0  0  0  0  0
  -15.8686  -28.0787   22.7037 H   0  0  0  0  0  0
  -24.5881  -30.7113   25.7800 H   0  0  0  0  0  0
  -24.8976  -32.2902   26.4961 H   0  0  0  0  0  0
  -25.8083  -30.8852   27.0218 H   0  0  0  0  0  0
  -26.2845  -29.6845   24.1137 H   0  0  0  0  0  0
  -27.4088  -29.7304   25.4519 H   0  0  0  0  0  0
  -27.8655  -30.4425   23.9215 H   0  0  0  0  0  0
  -27.2710  -33.3592   26.2146 H   0  0  0  0  0  0
  -28.3849  -32.6928   25.0308 H   0  0  0  0  0  0
  -28.0777  -31.8405   26.5343 H   0  0  0  0  0  0
  -28.2615  -38.0092   24.7487 H   0  0  0  0  0  0
  -28.1048  -36.2629   24.6310 H   0  0  0  0  0  0
  -27.2296  -37.1497   25.8867 H   0  0  0  0  0  0
  -20.9275  -29.8720   21.6921 H   0  0  0  0  0  0
  -26.0194  -38.2869   24.1387 H   0  0  0  0  0  0
  -31.3557  -16.9695   20.1022 H   0  0  0  0  0  0
  -30.0742  -16.4075   19.0582 H   0  0  0  0  0  0
  -29.7041  -14.9932   23.0014 H   0  0  0  0  0  0
  -31.1049  -15.9835   22.7502 H   0  0  0  0  0  0
  -28.4146  -17.7114   20.2607 H   0  0  0  0  0  0
  -29.7654  -18.7454   19.8368 H   0  0  0  0  0  0
  -29.3720  -17.3340   23.8129 H   0  0  0  0  0  0
  -28.1825  -16.8931   22.6095 H   0  0  0  0  0  0
  -30.9479  -21.6585   24.5554 H   0  0  0  0  0  0
  -29.3472  -22.1232   24.0575 H   0  0  0  0  0  0
  -30.6280  -21.9278   22.8553 H   0  0  0  0  0  0
  -25.1645  -20.4790   23.1737 H   0  0  0  0  0  0
  -25.1286  -20.7240   21.4351 H   0  0  0  0  0  0
  -25.0888  -22.1047   22.5203 H   0  0  0  0  0  0
  -29.2364  -19.7069   24.4837 H   0  0  0  0  0  0
  -30.7955  -19.4854   23.7595 H   0  0  0  0  0  0
  -27.4848  -24.4221   19.7813 H   0  0  0  0  0  0
  -29.1290  -23.9962   20.1465 H   0  0  0  0  0  0
  -27.2144  -19.1207   23.0181 H   0  0  0  0  0  0
  -27.2764  -19.3299   21.2977 H   0  0  0  0  0  0
  -26.7397  -23.8560   22.0722 H   0  0  0  0  0  0
  -28.3964  -23.5452   22.5488 H   0  0  0  0  0  0
  -29.5029  -25.8671   21.5203 H   0  0  0  0  0  0
  -27.8209  -26.0800   21.9192 H   0  0  0  0  0  0
  -29.6259  -20.2536   21.5371 H   0  0  0  0  0  0
  -27.3697  -21.5631   23.3300 H   0  0  0  0  0  0
  -30.6672  -18.2793   22.0049 H   0  0  0  0  0  0
  -28.4452  -21.7714   20.9555 H   0  0  0  0  0  0
  -26.9075  -22.0269   20.5076 H   0  0  0  0  0  0
  1 25  1  0  0  0
  1 30  2  0  0  0
  1 84  1  0  0  0
  2  3  1  0  0  0
  2 25  1  0  0  0
  2 87  1  0  0  0
  2 88  1  0  0  0
  3  4  1  0  0  0
  3 89  1  0  0  0
  3 90  1  0  0  0
  4  5  1  0  0  0
  4 91  1  0  0  0
  4 92  1  0  0  0
  5  6  1  0  0  0
  5 26  1  0  0  0
  5 93  1  0  0  0
  6 25  1  0  0  0
  6 94  1  0  0  0
  6 95  1  0  0  0
  7  8  2  0  0  0
  7 26  1  0  0  0
  7 29  1  0  0  0
  8  9  1  0  0  0
  8 22  1  0  0  0
  9 10  1  0  0  0
  9 27  2  0  0  0
 10 11  2  0  0  0
 10 15  1  0  0  0
 11 12  1  0  0  0
 11 96  1  0  0  0
 12 13  2  0  0  0
 12 97  1  0  0  0
 13 14  1  0  0  0
 13 31  1  0  0  0
 14 15  2  0  0  0
 14 98  1  0  0  0
 15 99  1  0  0  0
 16 17  2  0  0  0
 16 21  1  0  0  0
 16 31  1  0  0  0
 17 18  1  0  0  0
 17100  1  0  0  0
 18 19  2  0  0  0
 18101  1  0  0  0
 19 20  1  0  0  0
 19 24  1  0  0  0
 20 21  2  0  0  0
 20102  1  0  0  0
 21 23  1  0  0  0
 22 28  1  0  0  0
 22 32  2  0  0  0
 26 27  1  0  0  0
 28103  1  0  0  0
 28104  1  0  0  0
 29105  1  0  0  0
 29106  1  0  0  0
 33 34  1  0  0  0
 33 66  1  0  0  0
 33 70  2  0  0  0
 34 36  1  0  0  0
 34 59  1  0  0  0
 34107  1  0  0  0
 35 44  2  0  0  0
 35 45  1  0  0  0
 35 68  1  0  0  0
 36 56  1  0  0  0
 36108  1  0  0  0
 37 39  1  0  0  0
 37 47  1  0  0  0
 37 66  1  0  0  0
 37109  1  0  0  0
 38 43  2  0  0  0
 38 46  1  0  0  0
 38 47  1  0  0  0
 39 64  1  0  0  0
 39 67  2  0  0  0
 40 52  1  0  0  0
 40 53  2  0  0  0
 40 58  1  0  0  0
 41110  1  0  0  0
 41111  1  0  0  0
 41112  1  0  0  0
 41 48  1  0  0  0
 42 43  1  0  0  0
 42 66  1  0  0  0
 42113  1  0  0  0
 42114  1  0  0  0
 43 44  1  0  0  0
 44115  1  0  0  0
 45 46  2  0  0  0
 45116  1  0  0  0
 46117  1  0  0  0
 47118  1  0  0  0
 47119  1  0  0  0
 48 56  1  0  0  0
 48 65  1  0  0  0
 48120  1  0  0  0
 49 50  1  0  0  0
 49 53  1  0  0  0
 49 64  1  0  0  0
 49121  1  0  0  0
 50 51  1  0  0  0
 50122  1  0  0  0
 50123  1  0  0  0
 51 52  1  0  0  0
 51124  1  0  0  0
 51125  1  0  0  0
 52126  1  0  0  0
 52127  1  0  0  0
 53 54  1  0  0  0
 54 55  2  0  0  0
 54128  1  0  0  0
 55 57  1  0  0  0
 55129  1  0  0  0
 56 69  2  0  0  0
 57 58  2  0  0  0
 57130  1  0  0  0
 58131  1  0  0  0
 59 60  1  0  0  0
 59 61  1  0  0  0
 59 62  1  0  0  0
 60132  1  0  0  0
 60133  1  0  0  0
 60134  1  0  0  0
 61135  1  0  0  0
 61136  1  0  0  0
 61137  1  0  0  0
 62138  1  0  0  0
 62139  1  0  0  0
 62140  1  0  0  0
 63 65  1  0  0  0
 63141  1  0  0  0
 63142  1  0  0  0
 63143  1  0  0  0
 64144  1  0  0  0
 65145  1  0  0  0
 68 81  1  0  0  0
 71 73  1  0  0  0
 71 84  1  0  0  0
 71146  1  0  0  0
 71147  1  0  0  0
 72 74  1  0  0  0
 72 84  1  0  0  0
 72148  1  0  0  0
 72149  1  0  0  0
 73150  1  0  0  0
 73151  1  0  0  0
 73 85  1  0  0  0
 74 85  1  0  0  0
 74152  1  0  0  0
 74153  1  0  0  0
 75 77  1  0  0  0
 75154  1  0  0  0
 75155  1  0  0  0
 75156  1  0  0  0
 76157  1  0  0  0
 76158  1  0  0  0
 76159  1  0  0  0
 76 83  1  0  0  0
 77160  1  0  0  0
 77161  1  0  0  0
 77 82  1  0  0  0
 78 80  1  0  0  0
 78 81  1  0  0  0
 78162  1  0  0  0
 78163  1  0  0  0
 79 82  1  0  0  0
 79 83  1  0  0  0
 79164  1  0  0  0
 79165  1  0  0  0
 80 86  1  0  0  0
 80166  1  0  0  0
 80167  1  0  0  0
 81168  1  0  0  0
 81169  1  0  0  0
 82 85  1  0  0  0
 82170  1  0  0  0
 83 86  1  0  0  0
 83171  1  0  0  0
 85172  1  0  0  0
 86173  1  0  0  0
 86174  1  0  0  0
M  CHG  2  85   1  86   1
M  ISO  4   1 100  68 101  81 101  84 100
M  END
> <chiral flag>
0

> <version>
0

> <s_m_source_file>
/data/baiqing/PycharmProjects/Reinvent-master-3.2/result/LINK_invent/BTK/process_docking_weight1_custom_sum_contain_oxygen_bond_distance_aromatic_linkinvent_7_9_3/rearranged_h_0199.sdf

> <i_m_source_file_index>
12

> <r_mmod_Potential_Energy-OPLS-2005>
-10.2463216781616

> <r_mmod_Stretch_Energy-OPLS-2005>
35.9415550231934

> <r_mmod_Bend_Energy-OPLS-2005>
108.915794372559

> <r_mmod_Torsional_Energy-OPLS-2005>
435.202545166016

> <r_mmod_Improper_Torsional_Energy-OPLS-2005>
12.2846384048462

> <r_mmod_Van_der_Waal_Energy-OPLS-2005>
137.984786987305

> <r_mmod_Electrostatic_Energy-OPLS-2005>
200.350631713867

> <r_mmod_Solvation_Energy-OPLS-2005>
-952.751953125

> <b_mmod_Minimization_Converged-OPLS-2005>
0

> <r_mmod_RMS_Derivative-OPLS-2005>
3.40007209777832

$$$$
12
                    3D
 Structure written by MMmdl.
166176  0  0  1  0            999 V2000
  -30.7175  -14.5127   20.4938 C   0  0  0  0  0  0
  -30.4082  -12.3028   19.4405 C   0  0  0  0  0  0
  -29.4967  -12.4701   18.2079 C   0  0  0  0  0  0
  -28.0125  -12.3518   18.6134 C   0  0  0  0  0  0
  -27.6545  -13.2134   19.8581 C   0  0  2  0  0  0
  -28.7009  -13.0671   20.9849 C   0  0  0  0  0  0
  -25.2541  -13.8183   20.5664 C   0  0  0  0  0  0
  -24.1806  -13.0455   20.9157 C   0  0  0  0  0  0
  -24.6382  -11.6934   20.8718 C   0  0  0  0  0  0
  -23.9015  -10.4304   21.0367 C   0  0  0  0  0  0
  -24.3577   -9.4241   21.9151 C   0  0  0  0  0  0
  -23.6286   -8.2256   22.0712 C   0  0  0  0  0  0
  -22.4284   -8.0272   21.3497 C   0  0  0  0  0  0
  -21.9878   -9.0250   20.4615 C   0  0  0  0  0  0
  -22.7179  -10.2158   20.3020 C   0  0  0  0  0  0
  -21.6882   -6.0718   22.5248 C   0  0  0  0  0  0
  -21.4072   -6.5620   23.8181 C   0  0  0  0  0  0
  -21.3656   -5.6759   24.9126 C   0  0  0  0  0  0
  -21.6025   -4.3018   24.7188 C   0  0  0  0  0  0
  -21.8845   -3.8114   23.4312 C   0  0  0  0  0  0
  -21.9202   -4.6945   22.3377 C   0  0  0  0  0  0
  -22.7825  -13.5248   21.1788 C   0  0  0  0  0  0
  -22.1647   -4.2130   21.0967 F   0  0  0  0  0  0
  -21.5606   -3.4502   25.7703 F   0  0  0  0  0  0
  -30.0247  -13.3442   20.4087 N   0  0  0  0  0  0
  -26.2990  -12.9365   20.3314 N   0  0  0  0  0  0
  -25.9315  -11.6530   20.5774 N   0  0  0  0  0  0
  -22.0429  -12.8292   22.0369 N   0  0  0  0  0  0
  -25.4239  -15.1892   20.4080 N   0  0  0  0  0  0
  -31.8865  -14.6140   20.1086 O   0  0  0  0  0  0
  -21.6656   -6.8869   21.4206 O   0  0  0  0  0  0
  -22.3535  -14.5543   20.6589 O   0  0  0  0  0  0
  -24.6227  -31.8608   23.2006 C   0  0  0  0  0  0
  -25.9118  -32.4769   23.8270 C   0  0  1  0  0  0
  -27.2490  -27.4024   20.0416 C   0  0  0  0  0  0
  -25.5953  -33.8560   24.2206 N   0  0  0  0  0  0
  -23.4060  -30.4840   21.5488 C   0  0  2  0  0  0
  -24.8446  -28.9426   20.1019 C   0  0  0  0  0  0
  -22.7392  -29.4658   22.4985 C   0  0  0  0  0  0
  -18.0288  -28.1400   22.8488 C   0  0  0  0  0  0
  -24.1505  -36.7320   23.2614 C   0  0  0  0  0  0
  -25.9345  -30.8052   21.3556 C   0  0  0  0  0  0
  -26.0084  -29.4364   20.7032 C   0  0  0  0  0  0
  -27.2019  -28.6698   20.6842 C   0  0  0  0  0  0
  -26.0544  -26.9301   19.4446 C   0  0  0  0  0  0
  -24.8671  -27.6866   19.4743 C   0  0  0  0  0  0
  -23.6024  -29.8098   20.1640 C   0  0  0  0  0  0
  -25.4125  -36.3059   24.0284 C   0  0  1  0  0  0
  -20.5862  -28.3709   23.1284 C   0  0  2  0  0  0
  -20.6781  -26.9457   22.5376 C   0  0  0  0  0  0
  -19.5757  -26.6415   21.5181 C   0  0  0  0  0  0
  -18.1946  -26.7948   22.1616 C   0  0  0  0  0  0
  -19.1533  -28.8868   23.2888 C   0  0  0  0  0  0
  -18.9464  -30.1469   23.8912 C   0  0  0  0  0  0
  -17.6469  -30.6616   24.0562 C   0  0  0  0  0  0
  -25.9085  -34.9450   23.5038 C   0  0  0  0  0  0
  -16.5360  -29.9106   23.6330 C   0  0  0  0  0  0
  -16.7278  -28.6511   23.0372 C   0  0  0  0  0  0
  -26.4505  -31.6586   25.0650 C   0  0  0  0  0  0
  -25.3719  -31.3730   26.1365 C   0  0  0  0  0  0
  -27.0277  -30.2998   24.6050 C   0  0  0  0  0  0
  -27.6079  -32.4295   25.7455 C   0  0  0  0  0  0
  -27.5582  -37.1796   24.8435 C   0  0  0  0  0  0
  -21.4136  -29.3054   22.3669 N   0  0  0  0  0  0
  -26.4272  -37.3777   23.9413 N   0  0  0  0  0  0
  -24.6731  -31.0637   22.0937 N   0  0  0  0  0  0
  -23.4133  -28.8197   23.3066 O   0  0  0  0  0  0
  -28.4296  -26.6634   20.0662 O   0  0  0  0  0  0
  -26.5652  -34.8940   22.4625 O   0  0  0  0  0  0
  -23.5436  -32.1389   23.7419 O   0  0  0  0  0  0
  -29.8279  -21.3436   22.9435 C   0  0  0  0  0  0
  -29.3301  -21.3764   21.6092 C   0  0  0  0  0  0
  -29.3374  -22.7292   21.3042 C   0  0  0  0  0  0
  -28.4892  -20.1651   19.3835 C   0  0  0  0  0  0
  -29.5858  -16.5867   19.7786 C   0  0  0  0  0  0
  -30.7130  -16.8075   21.4369 C   0  0  0  0  0  0
  -29.8506  -19.5237   19.1450 C   0  0  0  0  0  0
  -28.8273  -20.1257   20.8721 C   0  0  1  0  0  0
  -29.5691  -17.6583   20.8785 C   0  0  0  0  0  0
  -30.2152  -24.7877   22.6082 C   0  0  0  0  0  0
  -29.5549  -24.4401   19.4678 C   0  0  0  0  0  0
  -28.7382  -25.7016   19.0247 C   0  0  0  0  0  0
  -30.2208  -22.5236   23.3836 N   0  0  0  0  0  0
  -29.9232  -23.3809   22.3878 N   0  0  0  0  0  0
  -30.0232  -15.6317   20.8321 N   0  0  0  0  0  0
  -28.7800  -23.4501   20.2335 N   0  0  0  0  0  0
  -29.8758  -19.1078   20.5554 N   0  3  1  0  0  0
  -31.4602  -12.3464   19.1521 H   0  0  0  0  0  0
  -30.2691  -11.3152   19.8847 H   0  0  0  0  0  0
  -29.7410  -11.7131   17.4585 H   0  0  0  0  0  0
  -29.6696  -13.4352   17.7316 H   0  0  0  0  0  0
  -27.8104  -11.3001   18.8202 H   0  0  0  0  0  0
  -27.3720  -12.6145   17.7707 H   0  0  0  0  0  0
  -27.6811  -14.2503   19.5239 H   0  0  0  0  0  0
  -28.6859  -12.0626   21.4131 H   0  0  0  0  0  0
  -28.4766  -13.7473   21.8065 H   0  0  0  0  0  0
  -25.2704   -9.5778   22.4719 H   0  0  0  0  0  0
  -24.0001   -7.4686   22.7463 H   0  0  0  0  0  0
  -21.0777   -8.8803   19.8981 H   0  0  0  0  0  0
  -22.3590  -10.9700   19.6147 H   0  0  0  0  0  0
  -21.2143   -7.6146   23.9689 H   0  0  0  0  0  0
  -21.1415   -6.0474   25.9022 H   0  0  0  0  0  0
  -22.0636   -2.7591   23.2793 H   0  0  0  0  0  0
  -22.4054  -12.0049   22.4902 H   0  0  0  0  0  0
  -21.1031  -13.1346   22.2501 H   0  0  0  0  0  0
  -24.6532  -15.8384   20.5197 H   0  0  0  0  0  0
  -26.2773  -15.6303   20.0927 H   0  0  0  0  0  0
  -26.7168  -32.5426   23.0999 H   0  0  0  0  0  0
  -25.0030  -33.9677   25.0288 H   0  0  0  0  0  0
  -22.6968  -31.3041   21.4169 H   0  0  0  0  0  0
  -23.3743  -35.9674   23.3239 H   0  0  0  0  0  0
  -24.3570  -36.9005   22.2029 H   0  0  0  0  0  0
  -23.7296  -37.6518   23.6694 H   0  0  0  0  0  0
  -26.0402  -31.5610   20.5771 H   0  0  0  0  0  0
  -26.8239  -30.8578   21.9688 H   0  0  0  0  0  0
  -28.0966  -29.0536   21.1543 H   0  0  0  0  0  0
  -26.0013  -25.9700   18.9562 H   0  0  0  0  0  0
  -23.9728  -27.2963   19.0059 H   0  0  0  0  0  0
  -23.6877  -30.5818   19.3987 H   0  0  0  0  0  0
  -22.7199  -29.2262   19.8909 H   0  0  0  0  0  0
  -25.1310  -36.1850   25.0758 H   0  0  0  0  0  0
  -20.9985  -28.3314   24.1388 H   0  0  0  0  0  0
  -20.5714  -26.2327   23.3565 H   0  0  0  0  0  0
  -21.6652  -26.7519   22.1156 H   0  0  0  0  0  0
  -19.6930  -25.6312   21.1243 H   0  0  0  0  0  0
  -19.6705  -27.3188   20.6676 H   0  0  0  0  0  0
  -17.4198  -26.6663   21.4045 H   0  0  0  0  0  0
  -18.0426  -26.0101   22.9039 H   0  0  0  0  0  0
  -19.7943  -30.7284   24.2296 H   0  0  0  0  0  0
  -17.5032  -31.6315   24.5156 H   0  0  0  0  0  0
  -15.5361  -30.3024   23.7669 H   0  0  0  0  0  0
  -15.8670  -28.0835   22.7106 H   0  0  0  0  0  0
  -24.5925  -30.7056   25.7669 H   0  0  0  0  0  0
  -24.8880  -32.2902   26.4739 H   0  0  0  0  0  0
  -25.8022  -30.8930   27.0162 H   0  0  0  0  0  0
  -26.2759  -29.6808   24.1140 H   0  0  0  0  0  0
  -27.4018  -29.7220   25.4512 H   0  0  0  0  0  0
  -27.8641  -30.4263   23.9167 H   0  0  0  0  0  0
  -27.2709  -33.3626   26.1999 H   0  0  0  0  0  0
  -28.3950  -32.6799   25.0322 H   0  0  0  0  0  0
  -28.0681  -31.8414   26.5413 H   0  0  0  0  0  0
  -28.2557  -38.0137   24.7549 H   0  0  0  0  0  0
  -28.1125  -36.2672   24.6183 H   0  0  0  0  0  0
  -27.2303  -37.1352   25.8833 H   0  0  0  0  0  0
  -20.9300  -29.8665   21.6790 H   0  0  0  0  0  0
  -26.0138  -38.2833   24.1459 H   0  0  0  0  0  0
  -29.9094  -20.4912   23.6037 H   0  0  0  0  0  0
  -27.6569  -19.5071   19.1280 H   0  0  0  0  0  0
  -28.3681  -21.1506   18.9353 H   0  0  0  0  0  0
  -30.3316  -16.7355   18.9888 H   0  0  0  0  0  0
  -28.6012  -16.3838   19.3509 H   0  0  0  0  0  0
  -30.7698  -16.7923   22.5253 H   0  0  0  0  0  0
  -31.6942  -17.0345   21.0034 H   0  0  0  0  0  0
  -30.6280  -20.2629   18.9403 H   0  0  0  0  0  0
  -29.8397  -18.7496   18.3791 H   0  0  0  0  0  0
  -27.9951  -19.6868   21.4233 H   0  0  0  0  0  0
  -28.6824  -17.5712   21.5107 H   0  0  0  0  0  0
  -31.1276  -25.0615   22.0750 H   0  0  0  0  0  0
  -30.3793  -24.9846   23.6703 H   0  0  0  0  0  0
  -29.3851  -25.4076   22.2688 H   0  0  0  0  0  0
  -30.4992  -24.7123   19.9385 H   0  0  0  0  0  0
  -29.8520  -23.9259   18.5496 H   0  0  0  0  0  0
  -27.8929  -25.3632   18.4337 H   0  0  0  0  0  0
  -29.3623  -26.2494   18.3160 H   0  0  0  0  0  0
  -27.8888  -23.8379   20.5228 H   0  0  0  0  0  0
  -30.7526  -19.3650   20.9799 H   0  0  0  0  0  0
  1 25  1  0  0  0
  1 30  2  0  0  0
  1 85  1  0  0  0
  2  3  1  0  0  0
  2 25  1  0  0  0
  2 88  1  0  0  0
  2 89  1  0  0  0
  3  4  1  0  0  0
  3 90  1  0  0  0
  3 91  1  0  0  0
  4  5  1  0  0  0
  4 92  1  0  0  0
  4 93  1  0  0  0
  5  6  1  0  0  0
  5 26  1  0  0  0
  5 94  1  0  0  0
  6 25  1  0  0  0
  6 95  1  0  0  0
  6 96  1  0  0  0
  7  8  2  0  0  0
  7 26  1  0  0  0
  7 29  1  0  0  0
  8  9  1  0  0  0
  8 22  1  0  0  0
  9 10  1  0  0  0
  9 27  2  0  0  0
 10 11  2  0  0  0
 10 15  1  0  0  0
 11 12  1  0  0  0
 11 97  1  0  0  0
 12 13  2  0  0  0
 12 98  1  0  0  0
 13 14  1  0  0  0
 13 31  1  0  0  0
 14 15  2  0  0  0
 14 99  1  0  0  0
 15100  1  0  0  0
 16 17  2  0  0  0
 16 21  1  0  0  0
 16 31  1  0  0  0
 17 18  1  0  0  0
 17101  1  0  0  0
 18 19  2  0  0  0
 18102  1  0  0  0
 19 20  1  0  0  0
 19 24  1  0  0  0
 20 21  2  0  0  0
 20103  1  0  0  0
 21 23  1  0  0  0
 22 28  1  0  0  0
 22 32  2  0  0  0
 26 27  1  0  0  0
 28104  1  0  0  0
 28105  1  0  0  0
 29106  1  0  0  0
 29107  1  0  0  0
 33 34  1  0  0  0
 33 66  1  0  0  0
 33 70  2  0  0  0
 34 36  1  0  0  0
 34 59  1  0  0  0
 34108  1  0  0  0
 35 44  2  0  0  0
 35 45  1  0  0  0
 35 68  1  0  0  0
 36 56  1  0  0  0
 36109  1  0  0  0
 37 39  1  0  0  0
 37 47  1  0  0  0
 37 66  1  0  0  0
 37110  1  0  0  0
 38 43  2  0  0  0
 38 46  1  0  0  0
 38 47  1  0  0  0
 39 64  1  0  0  0
 39 67  2  0  0  0
 40 52  1  0  0  0
 40 53  2  0  0  0
 40 58  1  0  0  0
 41111  1  0  0  0
 41112  1  0  0  0
 41113  1  0  0  0
 41 48  1  0  0  0
 42 43  1  0  0  0
 42 66  1  0  0  0
 42114  1  0  0  0
 42115  1  0  0  0
 43 44  1  0  0  0
 44116  1  0  0  0
 45 46  2  0  0  0
 45117  1  0  0  0
 46118  1  0  0  0
 47119  1  0  0  0
 47120  1  0  0  0
 48 56  1  0  0  0
 48 65  1  0  0  0
 48121  1  0  0  0
 49 50  1  0  0  0
 49 53  1  0  0  0
 49 64  1  0  0  0
 49122  1  0  0  0
 50 51  1  0  0  0
 50123  1  0  0  0
 50124  1  0  0  0
 51 52  1  0  0  0
 51125  1  0  0  0
 51126  1  0  0  0
 52127  1  0  0  0
 52128  1  0  0  0
 53 54  1  0  0  0
 54 55  2  0  0  0
 54129  1  0  0  0
 55 57  1  0  0  0
 55130  1  0  0  0
 56 69  2  0  0  0
 57 58  2  0  0  0
 57131  1  0  0  0
 58132  1  0  0  0
 59 60  1  0  0  0
 59 61  1  0  0  0
 59 62  1  0  0  0
 60133  1  0  0  0
 60134  1  0  0  0
 60135  1  0  0  0
 61136  1  0  0  0
 61137  1  0  0  0
 61138  1  0  0  0
 62139  1  0  0  0
 62140  1  0  0  0
 62141  1  0  0  0
 63 65  1  0  0  0
 63142  1  0  0  0
 63143  1  0  0  0
 63144  1  0  0  0
 64145  1  0  0  0
 65146  1  0  0  0
 68 82  1  0  0  0
 71 72  1  0  0  0
 71 83  2  0  0  0
 71147  1  0  0  0
 72 73  2  0  0  0
 72 78  1  0  0  0
 73 84  1  0  0  0
 73 86  1  0  0  0
 74 77  1  0  0  0
 74 78  1  0  0  0
 74148  1  0  0  0
 74149  1  0  0  0
 75 85  1  0  0  0
 75150  1  0  0  0
 75151  1  0  0  0
 75 79  1  0  0  0
 76 79  1  0  0  0
 76 85  1  0  0  0
 76152  1  0  0  0
 76153  1  0  0  0
 77154  1  0  0  0
 77155  1  0  0  0
 77 87  1  0  0  0
 78 87  1  0  0  0
 78156  1  0  0  0
 79 87  1  0  0  0
 79157  1  0  0  0
 80 84  1  0  0  0
 80158  1  0  0  0
 80159  1  0  0  0
 80160  1  0  0  0
 81 82  1  0  0  0
 81 86  1  0  0  0
 81161  1  0  0  0
 81162  1  0  0  0
 82163  1  0  0  0
 82164  1  0  0  0
 83 84  1  0  0  0
 86165  1  0  0  0
 87166  1  0  0  0
M  CHG  1  87   1
M  ISO  4   1 100  68 101  82 101  85 100
M  END
> <chiral flag>
0

> <version>
0

> <s_m_source_file>
/data/baiqing/PycharmProjects/Reinvent-master-3.2/result/LINK_invent/BTK/process_docking_weight1_custom_sum_contain_oxygen_bond_distance_aromatic_linkinvent_7_9_3/rearranged_h_0199.sdf

> <i_m_source_file_index>
13

> <r_mmod_Potential_Energy-OPLS-2005>
-62.056957244873

> <r_mmod_Stretch_Energy-OPLS-2005>
53.2530288696289

> <r_mmod_Bend_Energy-OPLS-2005>
161.335678100586

> <r_mmod_Torsional_Energy-OPLS-2005>
356.365020751953

> <r_mmod_Improper_Torsional_Energy-OPLS-2005>
17.7899837493896

> <r_mmod_Van_der_Waal_Energy-OPLS-2005>
127.62873840332

> <r_mmod_Electrostatic_Energy-OPLS-2005>
-324.982360839844

> <r_mmod_Solvation_Energy-OPLS-2005>
-477.008575439453

> <b_mmod_Minimization_Converged-OPLS-2005>
0

> <r_mmod_RMS_Derivative-OPLS-2005>
5.90545082092285

$$$$
13
                    3D
 Structure written by MMmdl.
164173  0  0  1  0            999 V2000
  -30.6877  -14.4204   20.5068 C   0  0  0  0  0  0
  -30.4182  -12.2491   19.4282 C   0  0  0  0  0  0
  -29.4980  -12.4866   18.2103 C   0  0  0  0  0  0
  -28.0151  -12.3642   18.6174 C   0  0  0  0  0  0
  -27.6645  -13.1921   19.8817 C   0  0  2  0  0  0
  -28.7066  -12.9560   21.0043 C   0  0  0  0  0  0
  -25.2595  -13.8123   20.5692 C   0  0  0  0  0  0
  -24.1832  -13.0415   20.9185 C   0  0  0  0  0  0
  -24.6367  -11.6878   20.8738 C   0  0  0  0  0  0
  -23.9042  -10.4271   21.0410 C   0  0  0  0  0  0
  -24.3595   -9.4191   21.9191 C   0  0  0  0  0  0
  -23.6267   -8.2234   22.0752 C   0  0  0  0  0  0
  -22.4258   -8.0264   21.3542 C   0  0  0  0  0  0
  -21.9888   -9.0245   20.4657 C   0  0  0  0  0  0
  -22.7215  -10.2124   20.3066 C   0  0  0  0  0  0
  -21.6847   -6.0727   22.5281 C   0  0  0  0  0  0
  -21.4019   -6.5636   23.8213 C   0  0  0  0  0  0
  -21.3653   -5.6786   24.9175 C   0  0  0  0  0  0
  -21.6045   -4.3051   24.7225 C   0  0  0  0  0  0
  -21.8813   -3.8141   23.4346 C   0  0  0  0  0  0
  -21.9186   -4.6957   22.3400 C   0  0  0  0  0  0
  -22.7866  -13.5223   21.1844 C   0  0  0  0  0  0
  -22.1661   -4.2142   21.0978 F   0  0  0  0  0  0
  -21.5618   -3.4532   25.7735 F   0  0  0  0  0  0
  -30.0487  -13.2269   20.4579 N   0  0  0  0  0  0
  -26.3029  -12.9273   20.3392 N   0  0  0  0  0  0
  -25.9293  -11.6452   20.5784 N   0  0  0  0  0  0
  -22.0503  -12.8239   22.0411 N   0  0  0  0  0  0
  -25.4298  -15.1844   20.4089 N   0  0  0  0  0  0
  -31.8351  -14.6084   20.0952 O   0  0  0  0  0  0
  -21.6622   -6.8870   21.4247 O   0  0  0  0  0  0
  -22.3571  -14.5540   20.6687 O   0  0  0  0  0  0
  -24.6092  -31.8660   23.2095 C   0  0  0  0  0  0
  -25.8977  -32.4799   23.8385 C   0  0  1  0  0  0
  -27.2394  -27.4599   20.0707 C   0  0  0  0  0  0
  -25.5831  -33.8615   24.2252 N   0  0  0  0  0  0
  -23.3966  -30.4880   21.5514 C   0  0  2  0  0  0
  -24.8378  -28.9561   20.1208 C   0  0  0  0  0  0
  -22.7386  -29.4628   22.5019 C   0  0  0  0  0  0
  -18.0250  -28.1368   22.8469 C   0  0  0  0  0  0
  -24.1495  -36.7367   23.2653 C   0  0  0  0  0  0
  -25.9219  -30.8400   21.3575 C   0  0  0  0  0  0
  -25.9975  -29.4754   20.7090 C   0  0  0  0  0  0
  -27.1958  -28.7315   20.6831 C   0  0  0  0  0  0
  -26.0509  -26.9346   19.5082 C   0  0  0  0  0  0
  -24.8586  -27.6813   19.5272 C   0  0  0  0  0  0
  -23.6010  -29.8214   20.1668 C   0  0  0  0  0  0
  -25.4120  -36.3112   24.0305 C   0  0  1  0  0  0
  -20.5832  -28.3634   23.1344 C   0  0  2  0  0  0
  -20.6744  -26.9380   22.5419 C   0  0  0  0  0  0
  -19.5732  -26.6379   21.5196 C   0  0  0  0  0  0
  -18.1906  -26.7906   22.1607 C   0  0  0  0  0  0
  -19.1497  -28.8823   23.2889 C   0  0  0  0  0  0
  -18.9418  -30.1425   23.8908 C   0  0  0  0  0  0
  -17.6424  -30.6564   24.0566 C   0  0  0  0  0  0
  -25.9023  -34.9474   23.5077 C   0  0  0  0  0  0
  -16.5317  -29.9066   23.6328 C   0  0  0  0  0  0
  -16.7240  -28.6487   23.0339 C   0  0  0  0  0  0
  -26.4411  -31.6601   25.0739 C   0  0  0  0  0  0
  -25.3679  -31.3718   26.1492 C   0  0  0  0  0  0
  -27.0227  -30.3034   24.6108 C   0  0  0  0  0  0
  -27.5983  -32.4337   25.7481 C   0  0  0  0  0  0
  -27.5574  -37.1822   24.8456 C   0  0  0  0  0  0
  -21.4119  -29.3002   22.3757 N   0  0  0  0  0  0
  -26.4297  -37.3786   23.9387 N   0  0  0  0  0  0
  -24.6604  -31.0784   22.0982 N   0  0  0  0  0  0
  -23.4153  -28.8150   23.3040 O   0  0  0  0  0  0
  -28.4604  -26.8171   20.0439 O   0  0  0  0  0  0
  -26.5630  -34.8925   22.4666 O   0  0  0  0  0  0
  -23.5287  -32.1410   23.7503 O   0  0  0  0  0  0
  -31.5446  -19.1309   21.7271 C   0  0  0  0  0  0
  -30.8166  -20.2598   21.3410 C   0  0  0  0  0  0
  -29.8004  -20.1067   20.4406 C   0  0  0  0  0  0
  -30.1989  -17.8865   20.3290 C   0  0  0  0  0  0
  -30.9208  -21.6971   21.7694 C   0  0  0  0  0  0
  -29.1324  -21.4214   20.1507 C   0  0  0  0  0  0
  -30.7769  -26.0105   21.8967 C   0  0  0  0  0  0
  -29.8247  -16.5489   19.7339 C   0  0  0  0  0  0
  -30.2576  -24.5844   22.1129 C   0  0  0  0  0  0
  -28.4854  -24.3571   20.2237 C   0  0  0  0  0  0
  -28.6437  -25.6028   19.3233 C   0  0  0  0  0  0
  -29.8017  -23.7858   20.8523 C   0  0  2  0  0  0
  -31.2132  -17.9300   21.2022 N   0  0  0  0  0  0
  -29.4642  -18.9194   19.9170 N   0  0  0  0  0  0
  -29.8469  -15.4379   20.6780 N   0  0  0  0  0  0
  -29.6803  -22.3308   21.2067 N   0  3  2  0  0  0
  -31.4682  -12.3230   19.1401 H   0  0  0  0  0  0
  -30.2837  -11.2373   19.8142 H   0  0  0  0  0  0
  -29.7263  -11.7699   17.4209 H   0  0  0  0  0  0
  -29.6859  -13.4757   17.7890 H   0  0  0  0  0  0
  -27.8098  -11.3104   18.8047 H   0  0  0  0  0  0
  -27.3704  -12.6573   17.7883 H   0  0  0  0  0  0
  -27.7064  -14.2378   19.5825 H   0  0  0  0  0  0
  -28.6581  -11.9251   21.3538 H   0  0  0  0  0  0
  -28.4909  -13.5730   21.8776 H   0  0  0  0  0  0
  -25.2748   -9.5652   22.4753 H   0  0  0  0  0  0
  -23.9971   -7.4618   22.7458 H   0  0  0  0  0  0
  -21.0813   -8.8773   19.8964 H   0  0  0  0  0  0
  -22.3678  -10.9667   19.6166 H   0  0  0  0  0  0
  -21.2039   -7.6146   23.9718 H   0  0  0  0  0  0
  -21.1482   -6.0519   25.9074 H   0  0  0  0  0  0
  -22.0598   -2.7601   23.2851 H   0  0  0  0  0  0
  -22.4111  -11.9898   22.4820 H   0  0  0  0  0  0
  -21.1128  -13.1297   22.2620 H   0  0  0  0  0  0
  -24.6544  -15.8297   20.5099 H   0  0  0  0  0  0
  -26.2693  -15.6296   20.0624 H   0  0  0  0  0  0
  -26.7034  -32.5510   23.1154 H   0  0  0  0  0  0
  -24.9881  -33.9801   25.0311 H   0  0  0  0  0  0
  -22.6823  -31.3008   21.4121 H   0  0  0  0  0  0
  -23.3732  -35.9726   23.3354 H   0  0  0  0  0  0
  -24.3550  -36.8998   22.2055 H   0  0  0  0  0  0
  -23.7317  -37.6582   23.6699 H   0  0  0  0  0  0
  -26.0317  -31.6087   20.5911 H   0  0  0  0  0  0
  -26.8098  -30.8903   21.9752 H   0  0  0  0  0  0
  -28.0973  -29.1382   21.1198 H   0  0  0  0  0  0
  -26.0151  -25.9579   19.0513 H   0  0  0  0  0  0
  -23.9626  -27.2712   19.0826 H   0  0  0  0  0  0
  -23.7070  -30.5952   19.4054 H   0  0  0  0  0  0
  -22.7270  -29.2377   19.8739 H   0  0  0  0  0  0
  -25.1314  -36.1947   25.0790 H   0  0  0  0  0  0
  -20.9899  -28.3195   24.1469 H   0  0  0  0  0  0
  -20.5644  -26.2234   23.3592 H   0  0  0  0  0  0
  -21.6617  -26.7423   22.1204 H   0  0  0  0  0  0
  -19.6899  -25.6290   21.1221 H   0  0  0  0  0  0
  -19.6692  -27.3195   20.6734 H   0  0  0  0  0  0
  -17.4171  -26.6605   21.4018 H   0  0  0  0  0  0
  -18.0324  -26.0048   22.9016 H   0  0  0  0  0  0
  -19.7896  -30.7226   24.2288 H   0  0  0  0  0  0
  -17.4984  -31.6258   24.5157 H   0  0  0  0  0  0
  -15.5316  -30.2985   23.7648 H   0  0  0  0  0  0
  -15.8633  -28.0832   22.7058 H   0  0  0  0  0  0
  -24.5825  -30.7081   25.7868 H   0  0  0  0  0  0
  -24.8900  -32.2896   26.4919 H   0  0  0  0  0  0
  -25.8039  -30.8906   27.0238 H   0  0  0  0  0  0
  -26.2727  -29.6778   24.1251 H   0  0  0  0  0  0
  -27.4099  -29.7316   25.4561 H   0  0  0  0  0  0
  -27.8522  -30.4326   23.9165 H   0  0  0  0  0  0
  -27.2575  -33.3593   26.2105 H   0  0  0  0  0  0
  -28.3715  -32.6965   25.0258 H   0  0  0  0  0  0
  -28.0719  -31.8441   26.5341 H   0  0  0  0  0  0
  -28.2591  -38.0113   24.7479 H   0  0  0  0  0  0
  -28.1071  -36.2646   24.6322 H   0  0  0  0  0  0
  -27.2267  -37.1489   25.8847 H   0  0  0  0  0  0
  -20.9266  -29.8753   21.7021 H   0  0  0  0  0  0
  -26.0197  -38.2859   24.1425 H   0  0  0  0  0  0
  -32.3601  -19.1763   22.4329 H   0  0  0  0  0  0
  -31.8287  -22.1300   21.3480 H   0  0  0  0  0  0
  -30.9525  -21.7761   22.8566 H   0  0  0  0  0  0
  -28.0459  -21.3388   20.2090 H   0  0  0  0  0  0
  -29.4224  -21.7345   19.1483 H   0  0  0  0  0  0
  -31.4053  -26.3108   22.7347 H   0  0  0  0  0  0
  -29.9695  -26.7357   21.8553 H   0  0  0  0  0  0
  -31.3784  -26.0924   20.9906 H   0  0  0  0  0  0
  -30.4632  -16.3687   18.8676 H   0  0  0  0  0  0
  -28.8104  -16.6062   19.3361 H   0  0  0  0  0  0
  -29.4592  -24.5905   22.8572 H   0  0  0  0  0  0
  -31.0921  -24.0746   22.5873 H   0  0  0  0  0  0
  -28.0429  -23.6164   19.5618 H   0  0  0  0  0  0
  -27.7277  -24.5349   20.9887 H   0  0  0  0  0  0
  -27.9896  -25.5439   18.4528 H   0  0  0  0  0  0
  -29.6458  -25.6213   18.8949 H   0  0  0  0  0  0
  -30.5905  -23.8467   20.0998 H   0  0  0  0  0  0
  -28.9696  -15.2326   21.1248 H   0  0  0  0  0  0
  -29.0056  -22.2644   21.9535 H   0  0  0  0  0  0
  1 25  1  0  0  0
  1 30  2  0  0  0
  1 85  1  0  0  0
  2  3  1  0  0  0
  2 25  1  0  0  0
  2 87  1  0  0  0
  2 88  1  0  0  0
  3  4  1  0  0  0
  3 89  1  0  0  0
  3 90  1  0  0  0
  4  5  1  0  0  0
  4 91  1  0  0  0
  4 92  1  0  0  0
  5  6  1  0  0  0
  5 26  1  0  0  0
  5 93  1  0  0  0
  6 25  1  0  0  0
  6 94  1  0  0  0
  6 95  1  0  0  0
  7  8  2  0  0  0
  7 26  1  0  0  0
  7 29  1  0  0  0
  8  9  1  0  0  0
  8 22  1  0  0  0
  9 10  1  0  0  0
  9 27  2  0  0  0
 10 11  2  0  0  0
 10 15  1  0  0  0
 11 12  1  0  0  0
 11 96  1  0  0  0
 12 13  2  0  0  0
 12 97  1  0  0  0
 13 14  1  0  0  0
 13 31  1  0  0  0
 14 15  2  0  0  0
 14 98  1  0  0  0
 15 99  1  0  0  0
 16 17  2  0  0  0
 16 21  1  0  0  0
 16 31  1  0  0  0
 17 18  1  0  0  0
 17100  1  0  0  0
 18 19  2  0  0  0
 18101  1  0  0  0
 19 20  1  0  0  0
 19 24  1  0  0  0
 20 21  2  0  0  0
 20102  1  0  0  0
 21 23  1  0  0  0
 22 28  1  0  0  0
 22 32  2  0  0  0
 26 27  1  0  0  0
 28103  1  0  0  0
 28104  1  0  0  0
 29105  1  0  0  0
 29106  1  0  0  0
 33 34  1  0  0  0
 33 66  1  0  0  0
 33 70  2  0  0  0
 34 36  1  0  0  0
 34 59  1  0  0  0
 34107  1  0  0  0
 35 44  2  0  0  0
 35 45  1  0  0  0
 35 68  1  0  0  0
 36 56  1  0  0  0
 36108  1  0  0  0
 37 39  1  0  0  0
 37 47  1  0  0  0
 37 66  1  0  0  0
 37109  1  0  0  0
 38 43  2  0  0  0
 38 46  1  0  0  0
 38 47  1  0  0  0
 39 64  1  0  0  0
 39 67  2  0  0  0
 40 52  1  0  0  0
 40 53  2  0  0  0
 40 58  1  0  0  0
 41110  1  0  0  0
 41111  1  0  0  0
 41112  1  0  0  0
 41 48  1  0  0  0
 42 43  1  0  0  0
 42 66  1  0  0  0
 42113  1  0  0  0
 42114  1  0  0  0
 43 44  1  0  0  0
 44115  1  0  0  0
 45 46  2  0  0  0
 45116  1  0  0  0
 46117  1  0  0  0
 47118  1  0  0  0
 47119  1  0  0  0
 48 56  1  0  0  0
 48 65  1  0  0  0
 48120  1  0  0  0
 49 50  1  0  0  0
 49 53  1  0  0  0
 49 64  1  0  0  0
 49121  1  0  0  0
 50 51  1  0  0  0
 50122  1  0  0  0
 50123  1  0  0  0
 51 52  1  0  0  0
 51124  1  0  0  0
 51125  1  0  0  0
 52126  1  0  0  0
 52127  1  0  0  0
 53 54  1  0  0  0
 54 55  2  0  0  0
 54128  1  0  0  0
 55 57  1  0  0  0
 55129  1  0  0  0
 56 69  2  0  0  0
 57 58  2  0  0  0
 57130  1  0  0  0
 58131  1  0  0  0
 59 60  1  0  0  0
 59 61  1  0  0  0
 59 62  1  0  0  0
 60132  1  0  0  0
 60133  1  0  0  0
 60134  1  0  0  0
 61135  1  0  0  0
 61136  1  0  0  0
 61137  1  0  0  0
 62138  1  0  0  0
 62139  1  0  0  0
 62140  1  0  0  0
 63 65  1  0  0  0
 63141  1  0  0  0
 63142  1  0  0  0
 63143  1  0  0  0
 64144  1  0  0  0
 65145  1  0  0  0
 68 81  1  0  0  0
 71 72  2  0  0  0
 71 83  1  0  0  0
 71146  1  0  0  0
 72 73  1  0  0  0
 72 75  1  0  0  0
 73 76  1  0  0  0
 73 84  2  0  0  0
 74 78  1  0  0  0
 74 83  2  0  0  0
 74 84  1  0  0  0
 75147  1  0  0  0
 75148  1  0  0  0
 75 86  1  0  0  0
 76 86  1  0  0  0
 76149  1  0  0  0
 76150  1  0  0  0
 77 79  1  0  0  0
 77151  1  0  0  0
 77152  1  0  0  0
 77153  1  0  0  0
 78 85  1  0  0  0
 78154  1  0  0  0
 78155  1  0  0  0
 79156  1  0  0  0
 79157  1  0  0  0
 79 82  1  0  0  0
 80 81  1  0  0  0
 80 82  1  0  0  0
 80158  1  0  0  0
 80159  1  0  0  0
 81160  1  0  0  0
 81161  1  0  0  0
 82 86  1  0  0  0
 82162  1  0  0  0
 85163  1  0  0  0
 86164  1  0  0  0
M  CHG  1  86   1
M  ISO  4   1 100  68 101  81 101  85 100
M  END
> <chiral flag>
0

> <version>
0

> <s_m_source_file>
/data/baiqing/PycharmProjects/Reinvent-master-3.2/result/LINK_invent/BTK/process_docking_weight1_custom_sum_contain_oxygen_bond_distance_aromatic_linkinvent_7_9_3/rearranged_h_0199.sdf

> <i_m_source_file_index>
14

> <r_mmod_Potential_Energy-OPLS-2005>
-684.293762207031

> <r_mmod_Stretch_Energy-OPLS-2005>
39.315673828125

> <r_mmod_Bend_Energy-OPLS-2005>
163.092208862305

> <r_mmod_Torsional_Energy-OPLS-2005>
248.566299438477

> <r_mmod_Improper_Torsional_Energy-OPLS-2005>
12.8191175460815

> <r_mmod_Van_der_Waal_Energy-OPLS-2005>
172.756484985352

> <r_mmod_Electrostatic_Energy-OPLS-2005>
-847.674987792969

> <r_mmod_Solvation_Energy-OPLS-2005>
-485.791809082031

> <b_mmod_Minimization_Converged-OPLS-2005>
0

> <r_mmod_RMS_Derivative-OPLS-2005>
3.38273930549622

$$$$
14
                    3D
 Structure written by MMmdl.
155164  0  0  1  0            999 V2000
  -30.6730  -14.5507   20.5225 C   0  0  0  0  0  0
  -30.4243  -12.3404   19.4449 C   0  0  0  0  0  0
  -29.5008  -12.5025   18.2183 C   0  0  0  0  0  0
  -28.0225  -12.3536   18.6277 C   0  0  0  0  0  0
  -27.6559  -13.2127   19.8673 C   0  0  2  0  0  0
  -28.6986  -13.0464   20.9968 C   0  0  0  0  0  0
  -25.2575  -13.8159   20.5704 C   0  0  0  0  0  0
  -24.1835  -13.0430   20.9189 C   0  0  0  0  0  0
  -24.6392  -11.6900   20.8730 C   0  0  0  0  0  0
  -23.9052  -10.4289   21.0396 C   0  0  0  0  0  0
  -24.3607   -9.4209   21.9177 C   0  0  0  0  0  0
  -23.6287   -8.2241   22.0750 C   0  0  0  0  0  0
  -22.4272   -8.0275   21.3540 C   0  0  0  0  0  0
  -21.9902   -9.0247   20.4643 C   0  0  0  0  0  0
  -22.7222  -10.2130   20.3049 C   0  0  0  0  0  0
  -21.6858   -6.0733   22.5284 C   0  0  0  0  0  0
  -21.4013   -6.5640   23.8214 C   0  0  0  0  0  0
  -21.3662   -5.6788   24.9177 C   0  0  0  0  0  0
  -21.6046   -4.3049   24.7225 C   0  0  0  0  0  0
  -21.8820   -3.8145   23.4346 C   0  0  0  0  0  0
  -21.9196   -4.6961   22.3403 C   0  0  0  0  0  0
  -22.7861  -13.5235   21.1853 C   0  0  0  0  0  0
  -22.1668   -4.2146   21.0981 F   0  0  0  0  0  0
  -21.5634   -3.4532   25.7736 F   0  0  0  0  0  0
  -30.0227  -13.3540   20.4366 N   0  0  0  0  0  0
  -26.3001  -12.9336   20.3328 N   0  0  0  0  0  0
  -25.9321  -11.6491   20.5749 N   0  0  0  0  0  0
  -22.0489  -12.8240   22.0408 N   0  0  0  0  0  0
  -25.4303  -15.1884   20.4170 N   0  0  0  0  0  0
  -31.8246  -14.7024   20.1079 O   0  0  0  0  0  0
  -21.6637   -6.8874   21.4244 O   0  0  0  0  0  0
  -22.3560  -14.5542   20.6699 O   0  0  0  0  0  0
  -24.6204  -31.8643   23.2073 C   0  0  0  0  0  0
  -25.9075  -32.4807   23.8387 C   0  0  1  0  0  0
  -27.2253  -27.3831   20.1123 C   0  0  0  0  0  0
  -25.5915  -33.8605   24.2319 N   0  0  0  0  0  0
  -23.4122  -30.4889   21.5472 C   0  0  2  0  0  0
  -24.8607  -28.9536   20.1089 C   0  0  0  0  0  0
  -22.7445  -29.4646   22.4944 C   0  0  0  0  0  0
  -18.0281  -28.1378   22.8484 C   0  0  0  0  0  0
  -24.1486  -36.7307   23.2636 C   0  0  0  0  0  0
  -25.9472  -30.8159   21.3688 C   0  0  0  0  0  0
  -26.0251  -29.4482   20.7120 C   0  0  0  0  0  0
  -27.2152  -28.6725   20.7073 C   0  0  0  0  0  0
  -26.0484  -26.9279   19.4805 C   0  0  0  0  0  0
  -24.8704  -27.6956   19.4849 C   0  0  0  0  0  0
  -23.6251  -29.8255   20.1609 C   0  0  0  0  0  0
  -25.4104  -36.3102   24.0340 C   0  0  1  0  0  0
  -20.5877  -28.3677   23.1291 C   0  0  2  0  0  0
  -20.6769  -26.9408   22.5406 C   0  0  0  0  0  0
  -19.5751  -26.6385   21.5201 C   0  0  0  0  0  0
  -18.1930  -26.7924   22.1615 C   0  0  0  0  0  0
  -19.1531  -28.8842   23.2886 C   0  0  0  0  0  0
  -18.9456  -30.1443   23.8903 C   0  0  0  0  0  0
  -17.6461  -30.6584   24.0559 C   0  0  0  0  0  0
  -25.9035  -34.9470   23.5127 C   0  0  0  0  0  0
  -16.5351  -29.9085   23.6325 C   0  0  0  0  0  0
  -16.7270  -28.6499   23.0349 C   0  0  0  0  0  0
  -26.4484  -31.6593   25.0728 C   0  0  0  0  0  0
  -25.3748  -31.3713   26.1478 C   0  0  0  0  0  0
  -27.0313  -30.3027   24.6131 C   0  0  0  0  0  0
  -27.6057  -32.4310   25.7490 C   0  0  0  0  0  0
  -27.5584  -37.1803   24.8460 C   0  0  0  0  0  0
  -21.4163  -29.3041   22.3692 N   0  0  0  0  0  0
  -26.4286  -37.3793   23.9418 N   0  0  0  0  0  0
  -24.6784  -31.0712   22.0993 N   0  0  0  0  0  0
  -23.4193  -28.8179   23.2998 O   0  0  0  0  0  0
  -28.3262  -26.5387   20.1551 O   0  0  0  0  0  0
  -26.5589  -34.8926   22.4683 O   0  0  0  0  0  0
  -23.5381  -32.1402   23.7441 O   0  0  0  0  0  0
  -30.4667  -22.9425   19.3466 C   0  0  0  0  0  0
  -28.3772  -22.7283   21.0037 C   0  0  0  0  0  0
  -29.1041  -21.5771   20.5921 C   0  0  0  0  0  0
  -28.7890  -23.9963   20.5018 C   0  0  0  0  0  0
  -29.9355  -18.0460   21.8201 C   0  0  0  0  0  0
  -29.2941  -17.9362   19.8980 C   0  0  0  0  0  0
  -30.2826  -17.0604   20.6925 C   0  0  2  0  0  0
  -28.7162  -20.1483   21.0522 C   0  0  0  0  0  0
  -28.0821  -25.3148   20.9220 C   0  0  0  0  0  0
  -30.1644  -21.7085   19.7638 N   0  0  0  0  0  0
  -29.8454  -24.0774   19.6646 N   0  0  0  0  0  0
  -29.9219  -15.6228   20.8866 N   0  0  0  0  0  0
  -29.7136  -19.0661   20.7636 N   0  3  1  0  0  0
  -27.0326  -22.5827   22.0837 Cl  0  0  0  0  0  0
  -31.4703  -12.4371   19.1481 H   0  0  0  0  0  0
  -30.3274  -11.3402   19.8703 H   0  0  0  0  0  0
  -29.7538  -11.7659   17.4552 H   0  0  0  0  0  0
  -29.6584  -13.4812   17.7623 H   0  0  0  0  0  0
  -27.8451  -11.2989   18.8414 H   0  0  0  0  0  0
  -27.3707  -12.6063   17.7905 H   0  0  0  0  0  0
  -27.6836  -14.2518   19.5385 H   0  0  0  0  0  0
  -28.6874  -12.0250   21.3805 H   0  0  0  0  0  0
  -28.4571  -13.6857   21.8475 H   0  0  0  0  0  0
  -25.2751   -9.5692   22.4748 H   0  0  0  0  0  0
  -23.9999   -7.4637   22.7474 H   0  0  0  0  0  0
  -21.0830   -8.8760   19.8954 H   0  0  0  0  0  0
  -22.3674  -10.9664   19.6155 H   0  0  0  0  0  0
  -21.2001   -7.6148   23.9719 H   0  0  0  0  0  0
  -21.1485   -6.0516   25.9079 H   0  0  0  0  0  0
  -22.0595   -2.7606   23.2839 H   0  0  0  0  0  0
  -22.4081  -11.9889   22.4788 H   0  0  0  0  0  0
  -21.1106  -13.1276   22.2598 H   0  0  0  0  0  0
  -24.6602  -15.8392   20.5300 H   0  0  0  0  0  0
  -26.2771  -15.6286   20.0826 H   0  0  0  0  0  0
  -26.7147  -32.5502   23.1146 H   0  0  0  0  0  0
  -25.0104  -33.9763   25.0493 H   0  0  0  0  0  0
  -22.7027  -31.3074   21.4073 H   0  0  0  0  0  0
  -23.3755  -35.9632   23.3283 H   0  0  0  0  0  0
  -24.3594  -36.8931   22.2054 H   0  0  0  0  0  0
  -23.7223  -37.6502   23.6657 H   0  0  0  0  0  0
  -26.0678  -31.5824   20.6017 H   0  0  0  0  0  0
  -26.8320  -30.8666   21.9923 H   0  0  0  0  0  0
  -28.1086  -29.0440   21.1891 H   0  0  0  0  0  0
  -26.0333  -25.9589   19.0009 H   0  0  0  0  0  0
  -23.9782  -27.3117   19.0090 H   0  0  0  0  0  0
  -23.7399  -30.6028   19.4044 H   0  0  0  0  0  0
  -22.7475  -29.2506   19.8596 H   0  0  0  0  0  0
  -25.1280  -36.1962   25.0833 H   0  0  0  0  0  0
  -20.9975  -28.3251   24.1409 H   0  0  0  0  0  0
  -20.5661  -26.2289   23.3598 H   0  0  0  0  0  0
  -21.6640  -26.7443   22.1205 H   0  0  0  0  0  0
  -19.6914  -25.6294   21.1235 H   0  0  0  0  0  0
  -19.6695  -27.3186   20.6726 H   0  0  0  0  0  0
  -17.4200  -26.6663   21.4019 H   0  0  0  0  0  0
  -18.0342  -26.0065   22.9015 H   0  0  0  0  0  0
  -19.7934  -30.7250   24.2280 H   0  0  0  0  0  0
  -17.5020  -31.6266   24.5158 H   0  0  0  0  0  0
  -15.5351  -30.2990   23.7651 H   0  0  0  0  0  0
  -15.8667  -28.0824   22.7065 H   0  0  0  0  0  0
  -24.5898  -30.7088   25.7812 H   0  0  0  0  0  0
  -24.8969  -32.2878   26.4948 H   0  0  0  0  0  0
  -25.8101  -30.8855   27.0223 H   0  0  0  0  0  0
  -26.2865  -29.6787   24.1175 H   0  0  0  0  0  0
  -27.4054  -29.7266   25.4604 H   0  0  0  0  0  0
  -27.8718  -30.4326   23.9309 H   0  0  0  0  0  0
  -27.2677  -33.3600   26.2094 H   0  0  0  0  0  0
  -28.3855  -32.6888   25.0312 H   0  0  0  0  0  0
  -28.0741  -31.8418   26.5384 H   0  0  0  0  0  0
  -28.2583  -38.0119   24.7539 H   0  0  0  0  0  0
  -28.1099  -36.2653   24.6245 H   0  0  0  0  0  0
  -27.2315  -37.1398   25.8864 H   0  0  0  0  0  0
  -20.9325  -29.8780   21.6926 H   0  0  0  0  0  0
  -26.0174  -38.2870   24.1433 H   0  0  0  0  0  0
  -31.3131  -23.0296   18.6823 H   0  0  0  0  0  0
  -30.7624  -18.2823   22.4912 H   0  0  0  0  0  0
  -29.0308  -17.7866   22.3755 H   0  0  0  0  0  0
  -28.2467  -17.6509   20.0237 H   0  0  0  0  0  0
  -29.5482  -18.0722   18.8458 H   0  0  0  0  0  0
  -31.3096  -17.2074   20.3459 H   0  0  0  0  0  0
  -27.7526  -19.8945   20.6106 H   0  0  0  0  0  0
  -28.5547  -20.1879   22.1291 H   0  0  0  0  0  0
  -28.3845  -25.5208   21.9491 H   0  0  0  0  0  0
  -27.0175  -25.0909   20.9836 H   0  0  0  0  0  0
  -28.9889  -15.4129   21.2087 H   0  0  0  0  0  0
  -30.5712  -19.4907   20.4398 H   0  0  0  0  0  0
  1 25  1  0  0  0
  1 30  2  0  0  0
  1 82  1  0  0  0
  2  3  1  0  0  0
  2 25  1  0  0  0
  2 85  1  0  0  0
  2 86  1  0  0  0
  3  4  1  0  0  0
  3 87  1  0  0  0
  3 88  1  0  0  0
  4  5  1  0  0  0
  4 89  1  0  0  0
  4 90  1  0  0  0
  5  6  1  0  0  0
  5 26  1  0  0  0
  5 91  1  0  0  0
  6 25  1  0  0  0
  6 92  1  0  0  0
  6 93  1  0  0  0
  7  8  2  0  0  0
  7 26  1  0  0  0
  7 29  1  0  0  0
  8  9  1  0  0  0
  8 22  1  0  0  0
  9 10  1  0  0  0
  9 27  2  0  0  0
 10 11  2  0  0  0
 10 15  1  0  0  0
 11 12  1  0  0  0
 11 94  1  0  0  0
 12 13  2  0  0  0
 12 95  1  0  0  0
 13 14  1  0  0  0
 13 31  1  0  0  0
 14 15  2  0  0  0
 14 96  1  0  0  0
 15 97  1  0  0  0
 16 17  2  0  0  0
 16 21  1  0  0  0
 16 31  1  0  0  0
 17 18  1  0  0  0
 17 98  1  0  0  0
 18 19  2  0  0  0
 18 99  1  0  0  0
 19 20  1  0  0  0
 19 24  1  0  0  0
 20 21  2  0  0  0
 20100  1  0  0  0
 21 23  1  0  0  0
 22 28  1  0  0  0
 22 32  2  0  0  0
 26 27  1  0  0  0
 28101  1  0  0  0
 28102  1  0  0  0
 29103  1  0  0  0
 29104  1  0  0  0
 33 34  1  0  0  0
 33 66  1  0  0  0
 33 70  2  0  0  0
 34 36  1  0  0  0
 34 59  1  0  0  0
 34105  1  0  0  0
 35 44  2  0  0  0
 35 45  1  0  0  0
 35 68  1  0  0  0
 36 56  1  0  0  0
 36106  1  0  0  0
 37 39  1  0  0  0
 37 47  1  0  0  0
 37 66  1  0  0  0
 37107  1  0  0  0
 38 43  2  0  0  0
 38 46  1  0  0  0
 38 47  1  0  0  0
 39 64  1  0  0  0
 39 67  2  0  0  0
 40 52  1  0  0  0
 40 53  2  0  0  0
 40 58  1  0  0  0
 41108  1  0  0  0
 41109  1  0  0  0
 41110  1  0  0  0
 41 48  1  0  0  0
 42 43  1  0  0  0
 42 66  1  0  0  0
 42111  1  0  0  0
 42112  1  0  0  0
 43 44  1  0  0  0
 44113  1  0  0  0
 45 46  2  0  0  0
 45114  1  0  0  0
 46115  1  0  0  0
 47116  1  0  0  0
 47117  1  0  0  0
 48 56  1  0  0  0
 48 65  1  0  0  0
 48118  1  0  0  0
 49 50  1  0  0  0
 49 53  1  0  0  0
 49 64  1  0  0  0
 49119  1  0  0  0
 50 51  1  0  0  0
 50120  1  0  0  0
 50121  1  0  0  0
 51 52  1  0  0  0
 51122  1  0  0  0
 51123  1  0  0  0
 52124  1  0  0  0
 52125  1  0  0  0
 53 54  1  0  0  0
 54 55  2  0  0  0
 54126  1  0  0  0
 55 57  1  0  0  0
 55127  1  0  0  0
 56 69  2  0  0  0
 57 58  2  0  0  0
 57128  1  0  0  0
 58129  1  0  0  0
 59 60  1  0  0  0
 59 61  1  0  0  0
 59 62  1  0  0  0
 60130  1  0  0  0
 60131  1  0  0  0
 60132  1  0  0  0
 61133  1  0  0  0
 61134  1  0  0  0
 61135  1  0  0  0
 62136  1  0  0  0
 62137  1  0  0  0
 62138  1  0  0  0
 63 65  1  0  0  0
 63139  1  0  0  0
 63140  1  0  0  0
 63141  1  0  0  0
 64142  1  0  0  0
 65143  1  0  0  0
 68 79  1  0  0  0
 71 80  2  0  0  0
 71 81  1  0  0  0
 71144  1  0  0  0
 72 73  2  0  0  0
 72 74  1  0  0  0
 72 84  1  0  0  0
 73 78  1  0  0  0
 73 80  1  0  0  0
 74 79  1  0  0  0
 74 81  2  0  0  0
 75 77  1  0  0  0
 75 83  1  0  0  0
 75145  1  0  0  0
 75146  1  0  0  0
 76 77  1  0  0  0
 76 83  1  0  0  0
 76147  1  0  0  0
 76148  1  0  0  0
 77 82  1  0  0  0
 77149  1  0  0  0
 78150  1  0  0  0
 78151  1  0  0  0
 78 83  1  0  0  0
 79152  1  0  0  0
 79153  1  0  0  0
 82154  1  0  0  0
 83155  1  0  0  0
M  CHG  1  83   1
M  ISO  4   1 100  68 101  79 101  82 100
M  END
> <chiral flag>
0

> <version>
0

> <s_m_source_file>
/data/baiqing/PycharmProjects/Reinvent-master-3.2/result/LINK_invent/BTK/process_docking_weight1_custom_sum_contain_oxygen_bond_distance_aromatic_linkinvent_7_9_3/rearranged_h_0199.sdf

> <i_m_source_file_index>
15

> <r_mmod_Potential_Energy-OPLS-2005>
-549.020446777344

> <r_mmod_Stretch_Energy-OPLS-2005>
53.2255821228027

> <r_mmod_Bend_Energy-OPLS-2005>
131.557052612305

> <r_mmod_Torsional_Energy-OPLS-2005>
263.420593261719

> <r_mmod_Improper_Torsional_Energy-OPLS-2005>
4.9450044631958

> <r_mmod_Van_der_Waal_Energy-OPLS-2005>
159.019622802734

> <r_mmod_Electrostatic_Energy-OPLS-2005>
-689.043884277344

> <r_mmod_Solvation_Energy-OPLS-2005>
-500.214904785156

> <b_mmod_Minimization_Converged-OPLS-2005>
0

> <r_mmod_RMS_Derivative-OPLS-2005>
0.948697507381439

$$$$
15
                    3D
 Structure written by MMmdl.
157166  0  0  1  0            999 V2000
  -30.4359  -15.0901   20.5112 C   0  0  0  0  0  0
  -30.4718  -12.7165   19.4864 C   0  0  0  0  0  0
  -29.5291  -12.5964   18.2546 C   0  0  0  0  0  0
  -28.0601  -12.3442   18.6596 C   0  0  0  0  0  0
  -27.6373  -13.2331   19.8536 C   0  0  2  0  0  0
  -28.6930  -13.1417   20.9679 C   0  0  0  0  0  0
  -25.2498  -13.8153   20.5672 C   0  0  0  0  0  0
  -24.1795  -13.0409   20.9189 C   0  0  0  0  0  0
  -24.6388  -11.6885   20.8724 C   0  0  0  0  0  0
  -23.9058  -10.4269   21.0382 C   0  0  0  0  0  0
  -24.3615   -9.4197   21.9169 C   0  0  0  0  0  0
  -23.6283   -8.2238   22.0751 C   0  0  0  0  0  0
  -22.4264   -8.0274   21.3547 C   0  0  0  0  0  0
  -21.9893   -9.0236   20.4642 C   0  0  0  0  0  0
  -22.7220  -10.2117   20.3039 C   0  0  0  0  0  0
  -21.6844   -6.0729   22.5273 C   0  0  0  0  0  0
  -21.4007   -6.5642   23.8204 C   0  0  0  0  0  0
  -21.3662   -5.6804   24.9170 C   0  0  0  0  0  0
  -21.6040   -4.3065   24.7221 C   0  0  0  0  0  0
  -21.8820   -3.8147   23.4345 C   0  0  0  0  0  0
  -21.9183   -4.6957   22.3396 C   0  0  0  0  0  0
  -22.7826  -13.5201   21.1861 C   0  0  0  0  0  0
  -22.1666   -4.2145   21.0975 F   0  0  0  0  0  0
  -21.5622   -3.4552   25.7738 F   0  0  0  0  0  0
  -29.9299  -13.7593   20.4266 N   0  0  0  0  0  0
  -26.2920  -12.9351   20.3275 N   0  0  0  0  0  0
  -25.9330  -11.6498   20.5724 N   0  0  0  0  0  0
  -22.0506  -12.8171   22.0422 N   0  0  0  0  0  0
  -25.4199  -15.1872   20.4052 N   0  0  0  0  0  0
  -31.5834  -15.2245   20.0586 O   0  0  0  0  0  0
  -21.6642   -6.8869   21.4235 O   0  0  0  0  0  0
  -22.3501  -14.5508   20.6717 O   0  0  0  0  0  0
  -24.6525  -31.8349   23.1808 C   0  0  0  0  0  0
  -25.9259  -32.4638   23.8236 C   0  0  1  0  0  0
  -27.2289  -27.0570   20.1584 C   0  0  0  0  0  0
  -25.5966  -33.8448   24.2145 N   0  0  0  0  0  0
  -23.4608  -30.4501   21.5286 C   0  0  2  0  0  0
  -24.9122  -28.8598   20.1122 C   0  0  0  0  0  0
  -22.7615  -29.4505   22.4848 C   0  0  0  0  0  0
  -18.0320  -28.1400   22.8477 C   0  0  0  0  0  0
  -24.1495  -36.7232   23.2645 C   0  0  0  0  0  0
  -26.0216  -30.6829   21.3912 C   0  0  0  0  0  0
  -26.0931  -29.2863   20.7336 C   0  0  0  0  0  0
  -27.2489  -28.4030   20.7345 C   0  0  0  0  0  0
  -26.0162  -26.7502   19.5000 C   0  0  0  0  0  0
  -24.8920  -27.6081   19.4779 C   0  0  0  0  0  0
  -23.6911  -29.7699   20.1523 C   0  0  0  0  0  0
  -25.4127  -36.2998   24.0311 C   0  0  1  0  0  0
  -20.5939  -28.3731   23.1223 C   0  0  2  0  0  0
  -20.6805  -26.9427   22.5406 C   0  0  0  0  0  0
  -19.5779  -26.6380   21.5220 C   0  0  0  0  0  0
  -18.1959  -26.7938   22.1629 C   0  0  0  0  0  0
  -19.1579  -28.8889   23.2834 C   0  0  0  0  0  0
  -18.9487  -30.1487   23.8852 C   0  0  0  0  0  0
  -17.6478  -30.6586   24.0564 C   0  0  0  0  0  0
  -25.9078  -34.9372   23.5040 C   0  0  0  0  0  0
  -16.5373  -29.9068   23.6347 C   0  0  0  0  0  0
  -16.7305  -28.6498   23.0354 C   0  0  0  0  0  0
  -26.4552  -31.6530   25.0707 C   0  0  0  0  0  0
  -25.3715  -31.3747   26.1389 C   0  0  0  0  0  0
  -27.0425  -30.2909   24.6345 C   0  0  0  0  0  0
  -27.6066  -32.4309   25.7501 C   0  0  0  0  0  0
  -27.5573  -37.1772   24.8470 C   0  0  0  0  0  0
  -21.4301  -29.3034   22.3576 N   0  0  0  0  0  0
  -26.4287  -37.3717   23.9408 N   0  0  0  0  0  0
  -24.7322  -31.0131   22.0880 N   0  0  0  0  0  0
  -23.4213  -28.8086   23.3057 O   0  0  0  0  0  0
  -28.2710  -26.0301   20.2207 O   0  0  0  0  0  0
  -26.5679  -34.8892   22.4626 O   0  0  0  0  0  0
  -23.5622  -32.1273   23.6970 O   0  0  0  0  0  0
  -28.6290  -17.1069   23.0758 C   0  0  0  0  0  0
  -29.1707  -18.2866   22.3244 C   0  0  0  0  0  0
  -28.8616  -15.9021   22.1771 C   0  0  0  0  0  0
  -28.8502  -21.7520   21.1908 C   0  0  0  0  0  0
  -29.2660  -21.8703   19.1968 C   0  0  0  0  0  0
  -29.0169  -23.0634   20.2510 C   0  0  1  0  0  0
  -29.2763  -17.8520   20.8597 C   0  0  1  0  0  0
  -28.0034  -24.4635   20.0746 C   0  0  0  0  0  0
  -29.8195  -19.2996   20.1147 C   0  0  0  0  0  0
  -29.6242  -16.2344   20.9530 N   0  0  0  0  0  0
  -28.9581  -20.6868   20.1066 N   0  3  2  0  0  0
  -31.4779  -12.9642   19.1449 H   0  0  0  0  0  0
  -30.5810  -11.7517   19.9841 H   0  0  0  0  0  0
  -29.8739  -11.8031   17.5903 H   0  0  0  0  0  0
  -29.5816  -13.5207   17.6771 H   0  0  0  0  0  0
  -27.9609  -11.2924   18.9317 H   0  0  0  0  0  0
  -27.3945  -12.5035   17.8101 H   0  0  0  0  0  0
  -27.6227  -14.2603   19.4883 H   0  0  0  0  0  0
  -28.8588  -12.0936   21.2238 H   0  0  0  0  0  0
  -28.3256  -13.5266   21.9077 H   0  0  0  0  0  0
  -25.2770   -9.5674   22.4732 H   0  0  0  0  0  0
  -23.9987   -7.4631   22.7482 H   0  0  0  0  0  0
  -21.0816   -8.8739   19.8950 H   0  0  0  0  0  0
  -22.3665  -10.9651   19.6143 H   0  0  0  0  0  0
  -21.2019   -7.6156   23.9697 H   0  0  0  0  0  0
  -21.1483   -6.0546   25.9073 H   0  0  0  0  0  0
  -22.0594   -2.7606   23.2848 H   0  0  0  0  0  0
  -22.4162  -11.9827   22.4759 H   0  0  0  0  0  0
  -21.1124  -13.1162   22.2668 H   0  0  0  0  0  0
  -24.6527  -15.8429   20.5049 H   0  0  0  0  0  0
  -26.2681  -15.6182   20.0620 H   0  0  0  0  0  0
  -26.7325  -32.5222   23.0964 H   0  0  0  0  0  0
  -25.0093  -33.9543   25.0283 H   0  0  0  0  0  0
  -22.7675  -31.2774   21.3655 H   0  0  0  0  0  0
  -23.3756  -35.9562   23.3293 H   0  0  0  0  0  0
  -24.3584  -36.8881   22.2062 H   0  0  0  0  0  0
  -23.7245  -37.6420   23.6698 H   0  0  0  0  0  0
  -26.1849  -31.4313   20.6151 H   0  0  0  0  0  0
  -26.8894  -30.7368   22.0369 H   0  0  0  0  0  0
  -28.1469  -28.7265   21.2423 H   0  0  0  0  0  0
  -25.9016  -25.7944   19.0127 H   0  0  0  0  0  0
  -23.9917  -27.2755   18.9783 H   0  0  0  0  0  0
  -23.8280  -30.5387   19.3915 H   0  0  0  0  0  0
  -22.8058  -29.2097   19.8460 H   0  0  0  0  0  0
  -25.1315  -36.1822   25.0801 H   0  0  0  0  0  0
  -21.0026  -28.3329   24.1351 H   0  0  0  0  0  0
  -20.5713  -26.2343   23.3624 H   0  0  0  0  0  0
  -21.6661  -26.7431   22.1194 H   0  0  0  0  0  0
  -19.6934  -25.6281   21.1261 H   0  0  0  0  0  0
  -19.6712  -27.3181   20.6741 H   0  0  0  0  0  0
  -17.4226  -26.6695   21.4027 H   0  0  0  0  0  0
  -18.0354  -26.0080   22.9028 H   0  0  0  0  0  0
  -19.7959  -30.7332   24.2186 H   0  0  0  0  0  0
  -17.5022  -31.6264   24.5170 H   0  0  0  0  0  0
  -15.5368  -30.2950   23.7689 H   0  0  0  0  0  0
  -15.8719  -28.0804   22.7076 H   0  0  0  0  0  0
  -24.5912  -30.7069   25.7728 H   0  0  0  0  0  0
  -24.8881  -32.2924   26.4736 H   0  0  0  0  0  0
  -25.7984  -30.8987   27.0224 H   0  0  0  0  0  0
  -26.3060  -29.6612   24.1337 H   0  0  0  0  0  0
  -27.3996  -29.7238   25.4954 H   0  0  0  0  0  0
  -27.8991  -30.4131   23.9713 H   0  0  0  0  0  0
  -27.2653  -33.3647   26.1992 H   0  0  0  0  0  0
  -28.3927  -32.6805   25.0357 H   0  0  0  0  0  0
  -28.0680  -31.8482   26.5487 H   0  0  0  0  0  0
  -28.2580  -38.0077   24.7498 H   0  0  0  0  0  0
  -28.1077  -36.2597   24.6319 H   0  0  0  0  0  0
  -27.2291  -37.1445   25.8875 H   0  0  0  0  0  0
  -20.9541  -29.8693   21.6687 H   0  0  0  0  0  0
  -26.0147  -38.2787   24.1394 H   0  0  0  0  0  0
  -27.5621  -17.2291   23.2714 H   0  0  0  0  0  0
  -29.1203  -16.9973   24.0432 H   0  0  0  0  0  0
  -30.1580  -18.5439   22.7112 H   0  0  0  0  0  0
  -28.5278  -19.1556   22.4681 H   0  0  0  0  0  0
  -27.8760  -15.5434   21.8812 H   0  0  0  0  0  0
  -29.3610  -15.1447   22.7876 H   0  0  0  0  0  0
  -29.6474  -21.6568   21.9288 H   0  0  0  0  0  0
  -27.8795  -21.7080   21.6848 H   0  0  0  0  0  0
  -28.5897  -21.9038   18.3430 H   0  0  0  0  0  0
  -30.2988  -21.8435   18.8482 H   0  0  0  0  0  0
  -30.0080  -23.4504   20.4905 H   0  0  0  0  0  0
  -28.2607  -17.7852   20.4678 H   0  0  0  0  0  0
  -27.1469  -24.2902   20.7268 H   0  0  0  0  0  0
  -27.5840  -24.3733   19.0721 H   0  0  0  0  0  0
  -29.9780  -19.0618   19.0626 H   0  0  0  0  0  0
  -30.8122  -19.5429   20.4935 H   0  0  0  0  0  0
  -28.0155  -20.4111   19.8764 H   0  0  0  0  0  0
  1 25  1  0  0  0
  1 30  2  0  0  0
  1 80  1  0  0  0
  2  3  1  0  0  0
  2 25  1  0  0  0
  2 82  1  0  0  0
  2 83  1  0  0  0
  3  4  1  0  0  0
  3 84  1  0  0  0
  3 85  1  0  0  0
  4  5  1  0  0  0
  4 86  1  0  0  0
  4 87  1  0  0  0
  5  6  1  0  0  0
  5 26  1  0  0  0
  5 88  1  0  0  0
  6 25  1  0  0  0
  6 89  1  0  0  0
  6 90  1  0  0  0
  7  8  2  0  0  0
  7 26  1  0  0  0
  7 29  1  0  0  0
  8  9  1  0  0  0
  8 22  1  0  0  0
  9 10  1  0  0  0
  9 27  2  0  0  0
 10 11  2  0  0  0
 10 15  1  0  0  0
 11 12  1  0  0  0
 11 91  1  0  0  0
 12 13  2  0  0  0
 12 92  1  0  0  0
 13 14  1  0  0  0
 13 31  1  0  0  0
 14 15  2  0  0  0
 14 93  1  0  0  0
 15 94  1  0  0  0
 16 17  2  0  0  0
 16 21  1  0  0  0
 16 31  1  0  0  0
 17 18  1  0  0  0
 17 95  1  0  0  0
 18 19  2  0  0  0
 18 96  1  0  0  0
 19 20  1  0  0  0
 19 24  1  0  0  0
 20 21  2  0  0  0
 20 97  1  0  0  0
 21 23  1  0  0  0
 22 28  1  0  0  0
 22 32  2  0  0  0
 26 27  1  0  0  0
 28 98  1  0  0  0
 28 99  1  0  0  0
 29100  1  0  0  0
 29101  1  0  0  0
 33 34  1  0  0  0
 33 66  1  0  0  0
 33 70  2  0  0  0
 34 36  1  0  0  0
 34 59  1  0  0  0
 34102  1  0  0  0
 35 44  2  0  0  0
 35 45  1  0  0  0
 35 68  1  0  0  0
 36 56  1  0  0  0
 36103  1  0  0  0
 37 39  1  0  0  0
 37 47  1  0  0  0
 37 66  1  0  0  0
 37104  1  0  0  0
 38 43  2  0  0  0
 38 46  1  0  0  0
 38 47  1  0  0  0
 39 64  1  0  0  0
 39 67  2  0  0  0
 40 52  1  0  0  0
 40 53  2  0  0  0
 40 58  1  0  0  0
 41105  1  0  0  0
 41106  1  0  0  0
 41107  1  0  0  0
 41 48  1  0  0  0
 42 43  1  0  0  0
 42 66  1  0  0  0
 42108  1  0  0  0
 42109  1  0  0  0
 43 44  1  0  0  0
 44110  1  0  0  0
 45 46  2  0  0  0
 45111  1  0  0  0
 46112  1  0  0  0
 47113  1  0  0  0
 47114  1  0  0  0
 48 56  1  0  0  0
 48 65  1  0  0  0
 48115  1  0  0  0
 49 50  1  0  0  0
 49 53  1  0  0  0
 49 64  1  0  0  0
 49116  1  0  0  0
 50 51  1  0  0  0
 50117  1  0  0  0
 50118  1  0  0  0
 51 52  1  0  0  0
 51119  1  0  0  0
 51120  1  0  0  0
 52121  1  0  0  0
 52122  1  0  0  0
 53 54  1  0  0  0
 54 55  2  0  0  0
 54123  1  0  0  0
 55 57  1  0  0  0
 55124  1  0  0  0
 56 69  2  0  0  0
 57 58  2  0  0  0
 57125  1  0  0  0
 58126  1  0  0  0
 59 60  1  0  0  0
 59 61  1  0  0  0
 59 62  1  0  0  0
 60127  1  0  0  0
 60128  1  0  0  0
 60129  1  0  0  0
 61130  1  0  0  0
 61131  1  0  0  0
 61132  1  0  0  0
 62133  1  0  0  0
 62134  1  0  0  0
 62135  1  0  0  0
 63 65  1  0  0  0
 63136  1  0  0  0
 63137  1  0  0  0
 63138  1  0  0  0
 64139  1  0  0  0
 65140  1  0  0  0
 68 78  1  0  0  0
 71 72  1  0  0  0
 71 73  1  0  0  0
 71141  1  0  0  0
 71142  1  0  0  0
 72 77  1  0  0  0
 72143  1  0  0  0
 72144  1  0  0  0
 73 80  1  0  0  0
 73145  1  0  0  0
 73146  1  0  0  0
 74 76  1  0  0  0
 74 81  1  0  0  0
 74147  1  0  0  0
 74148  1  0  0  0
 75 76  1  0  0  0
 75 81  1  0  0  0
 75149  1  0  0  0
 75150  1  0  0  0
 76 78  1  0  0  0
 76151  1  0  0  0
 77 79  1  0  0  0
 77 80  1  0  0  0
 77152  1  0  0  0
 78153  1  0  0  0
 78154  1  0  0  0
 79155  1  0  0  0
 79156  1  0  0  0
 79 81  1  0  0  0
 81157  1  0  0  0
M  CHG  1  81   1
M  ISO  4   1 100  68 101  78 101  80 100
M  END
> <chiral flag>
0

> <version>
0

> <s_m_source_file>
/data/baiqing/PycharmProjects/Reinvent-master-3.2/result/LINK_invent/BTK/process_docking_weight1_custom_sum_contain_oxygen_bond_distance_aromatic_linkinvent_7_9_3/rearranged_h_0199.sdf

> <i_m_source_file_index>
16

> <r_mmod_Potential_Energy-OPLS-2005>
1043.14172363281

> <r_mmod_Stretch_Energy-OPLS-2005>
400.312561035156

> <r_mmod_Bend_Energy-OPLS-2005>
502.419219970703

> <r_mmod_Torsional_Energy-OPLS-2005>
374.881378173828

> <r_mmod_Improper_Torsional_Energy-OPLS-2005>
3.57126116752625

> <r_mmod_Van_der_Waal_Energy-OPLS-2005>
125.468627929688

> <r_mmod_Electrostatic_Energy-OPLS-2005>
-177.700653076172

> <r_mmod_Solvation_Energy-OPLS-2005>
-466.771881103516

> <b_mmod_Minimization_Converged-OPLS-2005>
0

> <r_mmod_RMS_Derivative-OPLS-2005>
1.96900880336761

$$$$
16
                    3D
 Structure written by MMmdl.
163172  0  0  1  0            999 V2000
  -30.6258  -14.7329   20.4786 C   0  0  0  0  0  0
  -30.4301  -12.4537   19.4640 C   0  0  0  0  0  0
  -29.5050  -12.5191   18.2278 C   0  0  0  0  0  0
  -28.0298  -12.3467   18.6389 C   0  0  0  0  0  0
  -27.6412  -13.2268   19.8599 C   0  0  2  0  0  0
  -28.6925  -13.1132   20.9842 C   0  0  0  0  0  0
  -25.2560  -13.8176   20.5878 C   0  0  0  0  0  0
  -24.1800  -13.0451   20.9264 C   0  0  0  0  0  0
  -24.6348  -11.6892   20.8718 C   0  0  0  0  0  0
  -23.9025  -10.4278   21.0341 C   0  0  0  0  0  0
  -24.3579   -9.4225   21.9145 C   0  0  0  0  0  0
  -23.6288   -8.2254   22.0751 C   0  0  0  0  0  0
  -22.4276   -8.0252   21.3530 C   0  0  0  0  0  0
  -21.9879   -9.0217   20.4644 C   0  0  0  0  0  0
  -22.7198  -10.2105   20.3021 C   0  0  0  0  0  0
  -21.6884   -6.0719   22.5288 C   0  0  0  0  0  0
  -21.4032   -6.5629   23.8214 C   0  0  0  0  0  0
  -21.3661   -5.6785   24.9179 C   0  0  0  0  0  0
  -21.6029   -4.3044   24.7232 C   0  0  0  0  0  0
  -21.8833   -3.8122   23.4355 C   0  0  0  0  0  0
  -21.9203   -4.6933   22.3409 C   0  0  0  0  0  0
  -22.7800  -13.5212   21.1895 C   0  0  0  0  0  0
  -22.1683   -4.2127   21.0990 F   0  0  0  0  0  0
  -21.5606   -3.4533   25.7740 F   0  0  0  0  0  0
  -29.9830  -13.5098   20.4042 N   0  0  0  0  0  0
  -26.2935  -12.9375   20.3349 N   0  0  0  0  0  0
  -25.9268  -11.6508   20.5724 N   0  0  0  0  0  0
  -22.0380  -12.8238   22.0417 N   0  0  0  0  0  0
  -25.4415  -15.1927   20.4577 N   0  0  0  0  0  0
  -31.8061  -14.8033   20.1166 O   0  0  0  0  0  0
  -21.6659   -6.8845   21.4244 O   0  0  0  0  0  0
  -22.3512  -14.5535   20.6731 O   0  0  0  0  0  0
  -24.6237  -31.8499   23.1953 C   0  0  0  0  0  0
  -25.9103  -32.4729   23.8244 C   0  0  1  0  0  0
  -27.2283  -27.2630   20.1249 C   0  0  0  0  0  0
  -25.5949  -33.8528   24.2146 N   0  0  0  0  0  0
  -23.4190  -30.4660   21.5397 C   0  0  2  0  0  0
  -24.8732  -28.9123   20.1029 C   0  0  0  0  0  0
  -22.7445  -29.4490   22.4927 C   0  0  0  0  0  0
  -18.0244  -28.1325   22.8538 C   0  0  0  0  0  0
  -24.1499  -36.7249   23.2626 C   0  0  0  0  0  0
  -25.9590  -30.7611   21.3747 C   0  0  0  0  0  0
  -26.0371  -29.3840   20.7194 C   0  0  0  0  0  0
  -27.2118  -28.5671   20.7251 C   0  0  0  0  0  0
  -26.0429  -26.8501   19.4821 C   0  0  0  0  0  0
  -24.8796  -27.6516   19.4798 C   0  0  0  0  0  0
  -23.6401  -29.7971   20.1540 C   0  0  0  0  0  0
  -25.4126  -36.3002   24.0274 C   0  0  1  0  0  0
  -20.5841  -28.3557   23.1364 C   0  0  2  0  0  0
  -20.6731  -26.9289   22.5450 C   0  0  0  0  0  0
  -19.5724  -26.6321   21.5234 C   0  0  0  0  0  0
  -18.1894  -26.7876   22.1641 C   0  0  0  0  0  0
  -19.1502  -28.8762   23.2936 C   0  0  0  0  0  0
  -18.9447  -30.1384   23.8906 C   0  0  0  0  0  0
  -17.6463  -30.6562   24.0525 C   0  0  0  0  0  0
  -25.9058  -34.9404   23.4976 C   0  0  0  0  0  0
  -16.5337  -29.9043   23.6364 C   0  0  0  0  0  0
  -16.7230  -28.6451   23.0407 C   0  0  0  0  0  0
  -26.4463  -31.6630   25.0696 C   0  0  0  0  0  0
  -25.3709  -31.3900   26.1466 C   0  0  0  0  0  0
  -27.0292  -30.3029   24.6219 C   0  0  0  0  0  0
  -27.5954  -32.4402   25.7559 C   0  0  0  0  0  0
  -27.5527  -37.1787   24.8441 C   0  0  0  0  0  0
  -21.4133  -29.2944   22.3785 N   0  0  0  0  0  0
  -26.4252  -37.3739   23.9391 N   0  0  0  0  0  0
  -24.6866  -31.0422   22.0953 N   0  0  0  0  0  0
  -23.4196  -28.8012   23.2976 O   0  0  0  0  0  0
  -28.3517  -26.4125   20.2213 O   0  0  0  0  0  0
  -26.5606  -34.8888   22.4528 O   0  0  0  0  0  0
  -23.5409  -32.1343   23.7265 O   0  0  0  0  0  0
  -31.7284  -21.3045   20.1727 C   0  0  0  0  0  0
  -31.6392  -20.6847   18.7877 C   0  0  0  0  0  0
  -28.6620  -17.8150   21.5564 C   0  0  0  0  0  0
  -29.1023  -16.3409   21.7401 C   0  0  0  0  0  0
  -30.1491  -17.2007   19.8127 C   0  0  0  0  0  0
  -29.6109  -18.5017   20.5638 C   0  0  1  0  0  0
  -30.5894  -21.6704   19.2477 C   0  0  0  0  0  0
  -28.8874  -19.6822   19.7014 C   0  0  0  0  0  0
  -28.0083  -23.6433   20.2852 C   0  0  0  0  0  0
  -28.6503  -22.1769   20.7188 C   0  0  0  0  0  0
  -28.4819  -25.0513   19.6038 C   0  0  0  0  0  0
  -29.8772  -15.9157   20.5672 N   0  0  0  0  0  0
  -29.2413  -21.1968   19.6972 N   0  3  1  0  0  0
  -31.4724  -12.5688   19.1607 H   0  0  0  0  0  0
  -30.3682  -11.4741   19.9392 H   0  0  0  0  0  0
  -29.7873  -11.7614   17.4986 H   0  0  0  0  0  0
  -29.6315  -13.4785   17.7262 H   0  0  0  0  0  0
  -27.8776  -11.2967   18.8884 H   0  0  0  0  0  0
  -27.3748  -12.5596   17.7945 H   0  0  0  0  0  0
  -27.6417  -14.2558   19.5059 H   0  0  0  0  0  0
  -28.7297  -12.0898   21.3582 H   0  0  0  0  0  0
  -28.4314  -13.7133   21.8460 H   0  0  0  0  0  0
  -25.2709   -9.5767   22.4719 H   0  0  0  0  0  0
  -24.0008   -7.4680   22.7495 H   0  0  0  0  0  0
  -21.0802   -8.8714   19.8982 H   0  0  0  0  0  0
  -22.3612  -10.9616   19.6113 H   0  0  0  0  0  0
  -21.2063   -7.6141   23.9725 H   0  0  0  0  0  0
  -21.1469   -6.0511   25.9093 H   0  0  0  0  0  0
  -22.0611   -2.7587   23.2871 H   0  0  0  0  0  0
  -22.3956  -11.9910   22.4876 H   0  0  0  0  0  0
  -21.0967  -13.1251   22.2517 H   0  0  0  0  0  0
  -24.7118  -15.8606   20.6864 H   0  0  0  0  0  0
  -26.3409  -15.6228   20.2935 H   0  0  0  0  0  0
  -26.7128  -32.5367   23.0939 H   0  0  0  0  0  0
  -25.0226  -33.9711   25.0367 H   0  0  0  0  0  0
  -22.7115  -31.2839   21.3919 H   0  0  0  0  0  0
  -23.3741  -35.9612   23.3317 H   0  0  0  0  0  0
  -24.3533  -36.8860   22.2025 H   0  0  0  0  0  0
  -23.7313  -37.6460   23.6669 H   0  0  0  0  0  0
  -26.0853  -31.5215   20.6011 H   0  0  0  0  0  0
  -26.8372  -30.8139   22.0050 H   0  0  0  0  0  0
  -28.0952  -28.9138   21.2423 H   0  0  0  0  0  0
  -25.9950  -25.8841   18.9994 H   0  0  0  0  0  0
  -23.9854  -27.2869   18.9983 H   0  0  0  0  0  0
  -23.7578  -30.5746   19.3974 H   0  0  0  0  0  0
  -22.7612  -29.2250   19.8516 H   0  0  0  0  0  0
  -25.1344  -36.1761   25.0770 H   0  0  0  0  0  0
  -20.9898  -28.3035   24.1482 H   0  0  0  0  0  0
  -20.5601  -26.2107   23.3591 H   0  0  0  0  0  0
  -21.6616  -26.7316   22.1259 H   0  0  0  0  0  0
  -19.6871  -25.6229   21.1240 H   0  0  0  0  0  0
  -19.6694  -27.3171   20.6809 H   0  0  0  0  0  0
  -17.4171  -26.6625   21.4022 H   0  0  0  0  0  0
  -18.0251  -25.9985   22.9003 H   0  0  0  0  0  0
  -19.7925  -30.7185   24.2278 H   0  0  0  0  0  0
  -17.5021  -31.6283   24.5045 H   0  0  0  0  0  0
  -15.5334  -30.2942   23.7709 H   0  0  0  0  0  0
  -15.8617  -28.0748   22.7175 H   0  0  0  0  0  0
  -24.5911  -30.7148   25.7932 H   0  0  0  0  0  0
  -24.8907  -32.3153   26.4688 H   0  0  0  0  0  0
  -25.8093  -30.9325   27.0351 H   0  0  0  0  0  0
  -26.2901  -29.6856   24.1114 H   0  0  0  0  0  0
  -27.3787  -29.7216   25.4752 H   0  0  0  0  0  0
  -27.8845  -30.4251   23.9572 H   0  0  0  0  0  0
  -27.2468  -33.3729   26.2005 H   0  0  0  0  0  0
  -28.3921  -32.6920   25.0555 H   0  0  0  0  0  0
  -28.0427  -31.8622   26.5642 H   0  0  0  0  0  0
  -28.2550  -38.0075   24.7434 H   0  0  0  0  0  0
  -28.1004  -36.2582   24.6344 H   0  0  0  0  0  0
  -27.2205  -37.1518   25.8835 H   0  0  0  0  0  0
  -20.9205  -29.8732   21.7124 H   0  0  0  0  0  0
  -26.0072  -38.2764   24.1492 H   0  0  0  0  0  0
  -32.4872  -22.0656   20.3416 H   0  0  0  0  0  0
  -31.5385  -20.6754   21.0356 H   0  0  0  0  0  0
  -31.3727  -19.6371   18.6847 H   0  0  0  0  0  0
  -32.3747  -21.0374   18.0650 H   0  0  0  0  0  0
  -28.6014  -18.3439   22.5121 H   0  0  0  0  0  0
  -27.6503  -17.8056   21.1490 H   0  0  0  0  0  0
  -28.2019  -15.7484   21.8782 H   0  0  0  0  0  0
  -29.7174  -16.2300   22.6322 H   0  0  0  0  0  0
  -31.2169  -17.3048   19.6090 H   0  0  0  0  0  0
  -29.6709  -17.1070   18.8384 H   0  0  0  0  0  0
  -30.4320  -18.9039   21.1501 H   0  0  0  0  0  0
  -30.5832  -22.6757   18.8270 H   0  0  0  0  0  0
  -27.8184  -19.6395   19.9104 H   0  0  0  0  0  0
  -28.9317  -19.3728   18.6570 H   0  0  0  0  0  0
  -28.1415  -23.2634   19.2740 H   0  0  0  0  0  0
  -28.6950  -24.0075   21.0482 H   0  0  0  0  0  0
  -27.8552  -21.6335   21.2310 H   0  0  0  0  0  0
  -29.4125  -22.2672   21.4961 H   0  0  0  0  0  0
  -28.0784  -25.1254   18.5924 H   0  0  0  0  0  0
  -29.5536  -24.9569   19.4061 H   0  0  0  0  0  0
  -28.6820  -21.4237   18.8874 H   0  0  0  0  0  0
  1 25  1  0  0  0
  1 30  2  0  0  0
  1 82  1  0  0  0
  2  3  1  0  0  0
  2 25  1  0  0  0
  2 84  1  0  0  0
  2 85  1  0  0  0
  3  4  1  0  0  0
  3 86  1  0  0  0
  3 87  1  0  0  0
  4  5  1  0  0  0
  4 88  1  0  0  0
  4 89  1  0  0  0
  5  6  1  0  0  0
  5 26  1  0  0  0
  5 90  1  0  0  0
  6 25  1  0  0  0
  6 91  1  0  0  0
  6 92  1  0  0  0
  7  8  2  0  0  0
  7 26  1  0  0  0
  7 29  1  0  0  0
  8  9  1  0  0  0
  8 22  1  0  0  0
  9 10  1  0  0  0
  9 27  2  0  0  0
 10 11  2  0  0  0
 10 15  1  0  0  0
 11 12  1  0  0  0
 11 93  1  0  0  0
 12 13  2  0  0  0
 12 94  1  0  0  0
 13 14  1  0  0  0
 13 31  1  0  0  0
 14 15  2  0  0  0
 14 95  1  0  0  0
 15 96  1  0  0  0
 16 17  2  0  0  0
 16 21  1  0  0  0
 16 31  1  0  0  0
 17 18  1  0  0  0
 17 97  1  0  0  0
 18 19  2  0  0  0
 18 98  1  0  0  0
 19 20  1  0  0  0
 19 24  1  0  0  0
 20 21  2  0  0  0
 20 99  1  0  0  0
 21 23  1  0  0  0
 22 28  1  0  0  0
 22 32  2  0  0  0
 26 27  1  0  0  0
 28100  1  0  0  0
 28101  1  0  0  0
 29102  1  0  0  0
 29103  1  0  0  0
 33 34  1  0  0  0
 33 66  1  0  0  0
 33 70  2  0  0  0
 34 36  1  0  0  0
 34 59  1  0  0  0
 34104  1  0  0  0
 35 44  2  0  0  0
 35 45  1  0  0  0
 35 68  1  0  0  0
 36 56  1  0  0  0
 36105  1  0  0  0
 37 39  1  0  0  0
 37 47  1  0  0  0
 37 66  1  0  0  0
 37106  1  0  0  0
 38 43  2  0  0  0
 38 46  1  0  0  0
 38 47  1  0  0  0
 39 64  1  0  0  0
 39 67  2  0  0  0
 40 52  1  0  0  0
 40 53  2  0  0  0
 40 58  1  0  0  0
 41107  1  0  0  0
 41108  1  0  0  0
 41109  1  0  0  0
 41 48  1  0  0  0
 42 43  1  0  0  0
 42 66  1  0  0  0
 42110  1  0  0  0
 42111  1  0  0  0
 43 44  1  0  0  0
 44112  1  0  0  0
 45 46  2  0  0  0
 45113  1  0  0  0
 46114  1  0  0  0
 47115  1  0  0  0
 47116  1  0  0  0
 48 56  1  0  0  0
 48 65  1  0  0  0
 48117  1  0  0  0
 49 50  1  0  0  0
 49 53  1  0  0  0
 49 64  1  0  0  0
 49118  1  0  0  0
 50 51  1  0  0  0
 50119  1  0  0  0
 50120  1  0  0  0
 51 52  1  0  0  0
 51121  1  0  0  0
 51122  1  0  0  0
 52123  1  0  0  0
 52124  1  0  0  0
 53 54  1  0  0  0
 54 55  2  0  0  0
 54125  1  0  0  0
 55 57  1  0  0  0
 55126  1  0  0  0
 56 69  2  0  0  0
 57 58  2  0  0  0
 57127  1  0  0  0
 58128  1  0  0  0
 59 60  1  0  0  0
 59 61  1  0  0  0
 59 62  1  0  0  0
 60129  1  0  0  0
 60130  1  0  0  0
 60131  1  0  0  0
 61132  1  0  0  0
 61133  1  0  0  0
 61134  1  0  0  0
 62135  1  0  0  0
 62136  1  0  0  0
 62137  1  0  0  0
 63 65  1  0  0  0
 63138  1  0  0  0
 63139  1  0  0  0
 63140  1  0  0  0
 64141  1  0  0  0
 65142  1  0  0  0
 68 81  1  0  0  0
 71 72  1  0  0  0
 71143  1  0  0  0
 71144  1  0  0  0
 71 77  1  0  0  0
 72 77  1  0  0  0
 72145  1  0  0  0
 72146  1  0  0  0
 73 74  1  0  0  0
 73 76  1  0  0  0
 73147  1  0  0  0
 73148  1  0  0  0
 74 82  1  0  0  0
 74149  1  0  0  0
 74150  1  0  0  0
 75 76  1  0  0  0
 75 82  1  0  0  0
 75151  1  0  0  0
 75152  1  0  0  0
 76 78  1  0  0  0
 76153  1  0  0  0
 77 83  1  0  0  0
 77154  1  0  0  0
 78155  1  0  0  0
 78156  1  0  0  0
 78 83  1  0  0  0
 79 80  1  0  0  0
 79 81  1  0  0  0
 79157  1  0  0  0
 79158  1  0  0  0
 80 83  1  0  0  0
 80159  1  0  0  0
 80160  1  0  0  0
 81161  1  0  0  0
 81162  1  0  0  0
 83163  1  0  0  0
M  CHG  1  83   1
M  ISO  4   1 100  68 101  81 101  82 100
M  END
> <chiral flag>
0

> <version>
0

> <s_m_source_file>
/data/baiqing/PycharmProjects/Reinvent-master-3.2/result/LINK_invent/BTK/process_docking_weight1_custom_sum_contain_oxygen_bond_distance_aromatic_linkinvent_7_9_3/rearranged_h_0199.sdf

> <i_m_source_file_index>
17

> <r_mmod_Potential_Energy-OPLS-2005>
683.673095703125

> <r_mmod_Stretch_Energy-OPLS-2005>
137.574691772461

> <r_mmod_Bend_Energy-OPLS-2005>
502.318023681641

> <r_mmod_Torsional_Energy-OPLS-2005>
410.295074462891

> <r_mmod_Improper_Torsional_Energy-OPLS-2005>
12.8851976394653

> <r_mmod_Van_der_Waal_Energy-OPLS-2005>
126.632369995117

> <r_mmod_Electrostatic_Energy-OPLS-2005>
-132.088272094727

> <r_mmod_Solvation_Energy-OPLS-2005>
-451.688446044922

> <b_mmod_Minimization_Converged-OPLS-2005>
0

> <r_mmod_RMS_Derivative-OPLS-2005>
6.14951276779175

$$$$
17
                    3D
 Structure written by MMmdl.
179188  0  0  1  0            999 V2000
  -30.6679  -14.4802   20.4136 C   0  0  0  0  0  0
  -30.4176  -12.2623   19.4328 C   0  0  0  0  0  0
  -29.4920  -12.4473   18.2111 C   0  0  0  0  0  0
  -28.0040  -12.3449   18.6122 C   0  0  0  0  0  0
  -27.6465  -13.2002   19.8575 C   0  0  2  0  0  0
  -28.6966  -13.0295   20.9826 C   0  0  0  0  0  0
  -25.2485  -13.8121   20.5618 C   0  0  0  0  0  0
  -24.1775  -13.0373   20.9245 C   0  0  0  0  0  0
  -24.6361  -11.6871   20.8836 C   0  0  0  0  0  0
  -23.9025  -10.4263   21.0451 C   0  0  0  0  0  0
  -24.3573   -9.4187   21.9216 C   0  0  0  0  0  0
  -23.6257   -8.2197   22.0767 C   0  0  0  0  0  0
  -22.4243   -8.0268   21.3554 C   0  0  0  0  0  0
  -21.9914   -9.0210   20.4630 C   0  0  0  0  0  0
  -22.7235  -10.2089   20.3053 C   0  0  0  0  0  0
  -21.6817   -6.0747   22.5295 C   0  0  0  0  0  0
  -21.3991   -6.5635   23.8244 C   0  0  0  0  0  0
  -21.3651   -5.6787   24.9198 C   0  0  0  0  0  0
  -21.6039   -4.3054   24.7234 C   0  0  0  0  0  0
  -21.8791   -3.8148   23.4347 C   0  0  0  0  0  0
  -21.9168   -4.6978   22.3408 C   0  0  0  0  0  0
  -22.7787  -13.5204   21.1817 C   0  0  0  0  0  0
  -22.1664   -4.2179   21.0976 F   0  0  0  0  0  0
  -21.5604   -3.4534   25.7735 F   0  0  0  0  0  0
  -30.0319  -13.2833   20.4155 N   0  0  0  0  0  0
  -26.2936  -12.9300   20.3317 N   0  0  0  0  0  0
  -25.9302  -11.6486   20.5843 N   0  0  0  0  0  0
  -22.0386  -12.8234   22.0376 N   0  0  0  0  0  0
  -25.4014  -15.1821   20.3808 N   0  0  0  0  0  0
  -31.8590  -14.6263   20.1366 O   0  0  0  0  0  0
  -21.6581   -6.8876   21.4265 O   0  0  0  0  0  0
  -22.3473  -14.5450   20.6571 O   0  0  0  0  0  0
  -24.6090  -31.8677   23.2111 C   0  0  0  0  0  0
  -25.8987  -32.4808   23.8368 C   0  0  1  0  0  0
  -27.2321  -27.4683   20.0758 C   0  0  0  0  0  0
  -25.5894  -33.8607   24.2329 N   0  0  0  0  0  0
  -23.3963  -30.4958   21.5490 C   0  0  2  0  0  0
  -24.8437  -28.9614   20.1170 C   0  0  0  0  0  0
  -22.7368  -29.4647   22.4944 C   0  0  0  0  0  0
  -18.0257  -28.1353   22.8527 C   0  0  0  0  0  0
  -24.1491  -36.7312   23.2643 C   0  0  0  0  0  0
  -25.9239  -30.8399   21.3604 C   0  0  0  0  0  0
  -26.0005  -29.4742   20.7177 C   0  0  0  0  0  0
  -27.1993  -28.7300   20.7076 C   0  0  0  0  0  0
  -26.0645  -26.9672   19.4666 C   0  0  0  0  0  0
  -24.8658  -27.6998   19.4983 C   0  0  0  0  0  0
  -23.6065  -29.8273   20.1646 C   0  0  0  0  0  0
  -25.4106  -36.3101   24.0343 C   0  0  1  0  0  0
  -20.5859  -28.3622   23.1315 C   0  0  2  0  0  0
  -20.6746  -26.9342   22.5448 C   0  0  0  0  0  0
  -19.5729  -26.6371   21.5229 C   0  0  0  0  0  0
  -18.1903  -26.7916   22.1640 C   0  0  0  0  0  0
  -19.1510  -28.8802   23.2934 C   0  0  0  0  0  0
  -18.9469  -30.1425   23.8917 C   0  0  0  0  0  0
  -17.6476  -30.6583   24.0552 C   0  0  0  0  0  0
  -25.9051  -34.9473   23.5138 C   0  0  0  0  0  0
  -16.5355  -29.9091   23.6329 C   0  0  0  0  0  0
  -16.7253  -28.6500   23.0366 C   0  0  0  0  0  0
  -26.4476  -31.6521   25.0643 C   0  0  0  0  0  0
  -25.3802  -31.3544   26.1410 C   0  0  0  0  0  0
  -27.0241  -30.2966   24.5891 C   0  0  0  0  0  0
  -27.6063  -32.4209   25.7433 C   0  0  0  0  0  0
  -27.5576  -37.1806   24.8474 C   0  0  0  0  0  0
  -21.4098  -29.2978   22.3675 N   0  0  0  0  0  0
  -26.4286  -37.3805   23.9435 N   0  0  0  0  0  0
  -24.6606  -31.0842   22.0969 N   0  0  0  0  0  0
  -23.4149  -28.8162   23.2953 O   0  0  0  0  0  0
  -28.3777  -26.7172   20.0236 O   0  0  0  0  0  0
  -26.5620  -34.8945   22.4699 O   0  0  0  0  0  0
  -23.5283  -32.1350   23.7545 O   0  0  0  0  0  0
  -27.4957  -24.9267   23.1246 C   0  0  0  0  0  0
  -27.8045  -25.0421   21.7503 C   0  0  0  0  0  0
  -25.9729  -23.2588   22.6545 C   0  0  0  0  0  0
  -26.3076  -23.3381   21.2699 C   0  0  0  0  0  0
  -30.2614  -18.0383   20.2290 C   0  0  0  0  0  0
  -30.0306  -19.0529   19.0984 C   0  0  0  0  0  0
  -28.8898  -17.0372   18.5111 C   0  0  0  0  0  0
  -30.0490  -16.7202   19.4876 C   0  0  1  0  0  0
  -23.5886  -23.1444   23.4730 C   0  0  0  0  0  0
  -24.8839  -22.3599   23.2195 C   0  0  0  0  0  0
  -25.6935  -22.4534   20.1821 C   0  0  0  0  0  0
  -28.7613  -26.1331   21.2694 C   0  0  0  0  0  0
  -27.9951  -20.5002   17.0396 C   0  0  0  0  0  0
  -26.4949  -20.6051   17.4177 C   0  0  0  0  0  0
  -28.5769  -19.0589   17.0069 C   0  0  0  0  0  0
  -26.1618  -20.3404   18.9068 C   0  0  0  0  0  0
  -26.5854  -24.0380   23.5785 N   0  0  0  0  0  0
  -27.2458  -24.2135   20.8270 N   0  0  0  0  0  0
  -29.8183  -15.5185   20.3166 N   0  0  0  0  0  0
  -28.8660  -18.5130   18.3623 N   0  3  2  0  0  0
  -26.6509  -21.3908   19.8306 N   0  3  0  0  0  0
  -31.4641  -12.3423   19.1299 H   0  0  0  0  0  0
  -30.3016  -11.2659   19.8645 H   0  0  0  0  0  0
  -29.7222  -11.6963   17.4549 H   0  0  0  0  0  0
  -29.6861  -13.4156   17.7508 H   0  0  0  0  0  0
  -27.7817  -11.2957   18.8072 H   0  0  0  0  0  0
  -27.3719  -12.6364   17.7711 H   0  0  0  0  0  0
  -27.6579  -14.2330   19.5188 H   0  0  0  0  0  0
  -28.6505  -12.0212   21.3949 H   0  0  0  0  0  0
  -28.4912  -13.7061   21.8160 H   0  0  0  0  0  0
  -25.2670   -9.5684   22.4840 H   0  0  0  0  0  0
  -23.9920   -7.4623   22.7521 H   0  0  0  0  0  0
  -21.0842   -8.8733   19.8939 H   0  0  0  0  0  0
  -22.3698  -10.9619   19.6159 H   0  0  0  0  0  0
  -21.1992   -7.6150   23.9772 H   0  0  0  0  0  0
  -21.1498   -6.0502   25.9098 H   0  0  0  0  0  0
  -22.0575   -2.7610   23.2824 H   0  0  0  0  0  0
  -22.3970  -11.9960   22.4895 H   0  0  0  0  0  0
  -21.0999  -13.1327   22.2500 H   0  0  0  0  0  0
  -24.5732  -15.7686   20.3920 H   0  0  0  0  0  0
  -26.1623  -15.5993   19.8676 H   0  0  0  0  0  0
  -26.7034  -32.5532   23.1118 H   0  0  0  0  0  0
  -24.9996  -33.9737   25.0436 H   0  0  0  0  0  0
  -22.6793  -31.3093   21.4077 H   0  0  0  0  0  0
  -23.3756  -35.9650   23.3309 H   0  0  0  0  0  0
  -24.3582  -36.8898   22.2057 H   0  0  0  0  0  0
  -23.7271  -37.6534   23.6653 H   0  0  0  0  0  0
  -26.0277  -31.5920   20.5772 H   0  0  0  0  0  0
  -26.8165  -30.9008   21.9721 H   0  0  0  0  0  0
  -28.0987  -29.1231   21.1628 H   0  0  0  0  0  0
  -26.0813  -26.0045   18.9774 H   0  0  0  0  0  0
  -23.9757  -27.2927   19.0398 H   0  0  0  0  0  0
  -23.7223  -30.5984   19.4036 H   0  0  0  0  0  0
  -22.7294  -29.2510   19.8711 H   0  0  0  0  0  0
  -25.1297  -36.1956   25.0845 H   0  0  0  0  0  0
  -21.0003  -28.3226   24.1421 H   0  0  0  0  0  0
  -20.5602  -26.2218   23.3639 H   0  0  0  0  0  0
  -21.6606  -26.7351   22.1243 H   0  0  0  0  0  0
  -19.6865  -25.6303   21.1210 H   0  0  0  0  0  0
  -19.6681  -27.3219   20.6799 H   0  0  0  0  0  0
  -17.4163  -26.6685   21.4046 H   0  0  0  0  0  0
  -18.0284  -26.0041   22.9019 H   0  0  0  0  0  0
  -19.7942  -30.7238   24.2283 H   0  0  0  0  0  0
  -17.5034  -31.6275   24.5115 H   0  0  0  0  0  0
  -15.5353  -30.2989   23.7668 H   0  0  0  0  0  0
  -15.8658  -28.0833   22.7066 H   0  0  0  0  0  0
  -24.6077  -30.6753   25.7796 H   0  0  0  0  0  0
  -24.8875  -32.2622   26.4882 H   0  0  0  0  0  0
  -25.8234  -30.8770   27.0146 H   0  0  0  0  0  0
  -26.2677  -29.6773   24.1039 H   0  0  0  0  0  0
  -27.4138  -29.7157   25.4262 H   0  0  0  0  0  0
  -27.8490  -30.4300   23.8889 H   0  0  0  0  0  0
  -27.2692  -33.3514   26.2017 H   0  0  0  0  0  0
  -28.3904  -32.6695   25.0280 H   0  0  0  0  0  0
  -28.0664  -31.8270   26.5341 H   0  0  0  0  0  0
  -28.2614  -38.0085   24.7505 H   0  0  0  0  0  0
  -28.1039  -36.2609   24.6318 H   0  0  0  0  0  0
  -27.2263  -37.1474   25.8868 H   0  0  0  0  0  0
  -20.9196  -29.8669   21.6907 H   0  0  0  0  0  0
  -26.0151  -38.2877   24.1456 H   0  0  0  0  0  0
  -27.9633  -25.5686   23.8563 H   0  0  0  0  0  0
  -29.5075  -18.1663   21.0057 H   0  0  0  0  0  0
  -31.2464  -18.1293   20.6865 H   0  0  0  0  0  0
  -30.9057  -19.0877   18.4439 H   0  0  0  0  0  0
  -29.8609  -20.0649   19.4676 H   0  0  0  0  0  0
  -27.9196  -16.7481   18.9134 H   0  0  0  0  0  0
  -29.0203  -16.5223   17.5579 H   0  0  0  0  0  0
  -30.9339  -16.5698   18.8654 H   0  0  0  0  0  0
  -23.7416  -23.9144   24.2323 H   0  0  0  0  0  0
  -22.7922  -22.4906   23.8259 H   0  0  0  0  0  0
  -23.2376  -23.6371   22.5633 H   0  0  0  0  0  0
  -25.2304  -21.9383   24.1644 H   0  0  0  0  0  0
  -24.6939  -21.5043   22.5716 H   0  0  0  0  0  0
  -25.4824  -23.0582   19.3005 H   0  0  0  0  0  0
  -24.7353  -22.0307   20.4828 H   0  0  0  0  0  0
  -29.7560  -25.7008   21.1578 H   0  0  0  0  0  0
  -28.8425  -26.9102   22.0343 H   0  0  0  0  0  0
  -28.6089  -21.1694   17.6411 H   0  0  0  0  0  0
  -28.0810  -20.8958   16.0274 H   0  0  0  0  0  0
  -25.9367  -19.8984   16.8028 H   0  0  0  0  0  0
  -26.1035  -21.5832   17.1306 H   0  0  0  0  0  0
  -29.4785  -19.0347   16.3921 H   0  0  0  0  0  0
  -27.8568  -18.4144   16.5016 H   0  0  0  0  0  0
  -26.6117  -19.4012   19.2180 H   0  0  0  0  0  0
  -25.0912  -20.1753   19.0373 H   0  0  0  0  0  0
  -28.8660  -15.2822   20.5504 H   0  0  0  0  0  0
  -28.0674  -18.7672   18.9163 H   0  0  0  0  0  0
  -26.8954  -20.9519   20.7021 H   0  0  0  0  0  0
  -27.4807  -21.8445   19.4830 H   0  0  0  0  0  0
  1 25  1  0  0  0
  1 30  2  0  0  0
  1 89  1  0  0  0
  2  3  1  0  0  0
  2 25  1  0  0  0
  2 92  1  0  0  0
  2 93  1  0  0  0
  3  4  1  0  0  0
  3 94  1  0  0  0
  3 95  1  0  0  0
  4  5  1  0  0  0
  4 96  1  0  0  0
  4 97  1  0  0  0
  5  6  1  0  0  0
  5 26  1  0  0  0
  5 98  1  0  0  0
  6 25  1  0  0  0
  6 99  1  0  0  0
  6100  1  0  0  0
  7  8  2  0  0  0
  7 26  1  0  0  0
  7 29  1  0  0  0
  8  9  1  0  0  0
  8 22  1  0  0  0
  9 10  1  0  0  0
  9 27  2  0  0  0
 10 11  2  0  0  0
 10 15  1  0  0  0
 11 12  1  0  0  0
 11101  1  0  0  0
 12 13  2  0  0  0
 12102  1  0  0  0
 13 14  1  0  0  0
 13 31  1  0  0  0
 14 15  2  0  0  0
 14103  1  0  0  0
 15104  1  0  0  0
 16 17  2  0  0  0
 16 21  1  0  0  0
 16 31  1  0  0  0
 17 18  1  0  0  0
 17105  1  0  0  0
 18 19  2  0  0  0
 18106  1  0  0  0
 19 20  1  0  0  0
 19 24  1  0  0  0
 20 21  2  0  0  0
 20107  1  0  0  0
 21 23  1  0  0  0
 22 28  1  0  0  0
 22 32  2  0  0  0
 26 27  1  0  0  0
 28108  1  0  0  0
 28109  1  0  0  0
 29110  1  0  0  0
 29111  1  0  0  0
 33 34  1  0  0  0
 33 66  1  0  0  0
 33 70  2  0  0  0
 34 36  1  0  0  0
 34 59  1  0  0  0
 34112  1  0  0  0
 35 44  2  0  0  0
 35 45  1  0  0  0
 35 68  1  0  0  0
 36 56  1  0  0  0
 36113  1  0  0  0
 37 39  1  0  0  0
 37 47  1  0  0  0
 37 66  1  0  0  0
 37114  1  0  0  0
 38 43  2  0  0  0
 38 46  1  0  0  0
 38 47  1  0  0  0
 39 64  1  0  0  0
 39 67  2  0  0  0
 40 52  1  0  0  0
 40 53  2  0  0  0
 40 58  1  0  0  0
 41115  1  0  0  0
 41116  1  0  0  0
 41117  1  0  0  0
 41 48  1  0  0  0
 42 43  1  0  0  0
 42 66  1  0  0  0
 42118  1  0  0  0
 42119  1  0  0  0
 43 44  1  0  0  0
 44120  1  0  0  0
 45 46  2  0  0  0
 45121  1  0  0  0
 46122  1  0  0  0
 47123  1  0  0  0
 47124  1  0  0  0
 48 56  1  0  0  0
 48 65  1  0  0  0
 48125  1  0  0  0
 49 50  1  0  0  0
 49 53  1  0  0  0
 49 64  1  0  0  0
 49126  1  0  0  0
 50 51  1  0  0  0
 50127  1  0  0  0
 50128  1  0  0  0
 51 52  1  0  0  0
 51129  1  0  0  0
 51130  1  0  0  0
 52131  1  0  0  0
 52132  1  0  0  0
 53 54  1  0  0  0
 54 55  2  0  0  0
 54133  1  0  0  0
 55 57  1  0  0  0
 55134  1  0  0  0
 56 69  2  0  0  0
 57 58  2  0  0  0
 57135  1  0  0  0
 58136  1  0  0  0
 59 60  1  0  0  0
 59 61  1  0  0  0
 59 62  1  0  0  0
 60137  1  0  0  0
 60138  1  0  0  0
 60139  1  0  0  0
 61140  1  0  0  0
 61141  1  0  0  0
 61142  1  0  0  0
 62143  1  0  0  0
 62144  1  0  0  0
 62145  1  0  0  0
 63 65  1  0  0  0
 63146  1  0  0  0
 63147  1  0  0  0
 63148  1  0  0  0
 64149  1  0  0  0
 65150  1  0  0  0
 68 82  1  0  0  0
 71 72  2  0  0  0
 71 87  1  0  0  0
 71151  1  0  0  0
 72 82  1  0  0  0
 72 88  1  0  0  0
 73 74  1  0  0  0
 73 80  1  0  0  0
 73 87  2  0  0  0
 74 81  1  0  0  0
 74 88  2  0  0  0
 75 76  1  0  0  0
 75 78  1  0  0  0
 75152  1  0  0  0
 75153  1  0  0  0
 76 90  1  0  0  0
 76154  1  0  0  0
 76155  1  0  0  0
 77 78  1  0  0  0
 77 90  1  0  0  0
 77156  1  0  0  0
 77157  1  0  0  0
 78 89  1  0  0  0
 78158  1  0  0  0
 79 80  1  0  0  0
 79159  1  0  0  0
 79160  1  0  0  0
 79161  1  0  0  0
 80162  1  0  0  0
 80163  1  0  0  0
 81 91  1  0  0  0
 81164  1  0  0  0
 81165  1  0  0  0
 82166  1  0  0  0
 82167  1  0  0  0
 83 84  1  0  0  0
 83 85  1  0  0  0
 83168  1  0  0  0
 83169  1  0  0  0
 84 86  1  0  0  0
 84170  1  0  0  0
 84171  1  0  0  0
 85172  1  0  0  0
 85173  1  0  0  0
 85 90  1  0  0  0
 86 91  1  0  0  0
 86174  1  0  0  0
 86175  1  0  0  0
 89176  1  0  0  0
 90177  1  0  0  0
 91178  1  0  0  0
 91179  1  0  0  0
M  CHG  2  90   1  91   1
M  ISO  4   1 100  68 101  82 101  89 100
M  END
> <chiral flag>
0

> <version>
0

> <s_m_source_file>
/data/baiqing/PycharmProjects/Reinvent-master-3.2/result/LINK_invent/BTK/process_docking_weight1_custom_sum_contain_oxygen_bond_distance_aromatic_linkinvent_7_9_3/rearranged_h_0199.sdf

> <i_m_source_file_index>
18

> <r_mmod_Potential_Energy-OPLS-2005>
-178.403503417969

> <r_mmod_Stretch_Energy-OPLS-2005>
38.6633262634277

> <r_mmod_Bend_Energy-OPLS-2005>
139.221237182617

> <r_mmod_Torsional_Energy-OPLS-2005>
320.674224853516

> <r_mmod_Improper_Torsional_Energy-OPLS-2005>
15.1353254318237

> <r_mmod_Van_der_Waal_Energy-OPLS-2005>
135.547775268555

> <r_mmod_Electrostatic_Energy-OPLS-2005>
182.48030090332

> <r_mmod_Solvation_Energy-OPLS-2005>
-1029.37365722656

> <b_mmod_Minimization_Converged-OPLS-2005>
0

> <r_mmod_RMS_Derivative-OPLS-2005>
5.88231039047241

$$$$
18
                    3D
 Structure written by MMmdl.
155164  0  0  1  0            999 V2000
  -30.6929  -14.5333   20.5521 C   0  0  0  0  0  0
  -30.4245  -12.3442   19.4301 C   0  0  0  0  0  0
  -29.5001  -12.5116   18.2069 C   0  0  0  0  0  0
  -28.0180  -12.3734   18.6128 C   0  0  0  0  0  0
  -27.6572  -13.2084   19.8715 C   0  0  2  0  0  0
  -28.7023  -12.9850   20.9860 C   0  0  0  0  0  0
  -25.2579  -13.8149   20.5650 C   0  0  0  0  0  0
  -24.1844  -13.0431   20.9188 C   0  0  0  0  0  0
  -24.6407  -11.6896   20.8761 C   0  0  0  0  0  0
  -23.9059  -10.4290   21.0418 C   0  0  0  0  0  0
  -24.3604   -9.4199   21.9197 C   0  0  0  0  0  0
  -23.6283   -8.2233   22.0749 C   0  0  0  0  0  0
  -22.4274   -8.0277   21.3532 C   0  0  0  0  0  0
  -21.9907   -9.0259   20.4639 C   0  0  0  0  0  0
  -22.7237  -10.2139   20.3057 C   0  0  0  0  0  0
  -21.6836   -6.0739   22.5286 C   0  0  0  0  0  0
  -21.4010   -6.5644   23.8223 C   0  0  0  0  0  0
  -21.3678   -5.6795   24.9184 C   0  0  0  0  0  0
  -21.6059   -4.3059   24.7232 C   0  0  0  0  0  0
  -21.8810   -3.8148   23.4351 C   0  0  0  0  0  0
  -21.9180   -4.6969   22.3419 C   0  0  0  0  0  0
  -22.7875  -13.5233   21.1857 C   0  0  0  0  0  0
  -22.1638   -4.2159   21.0986 F   0  0  0  0  0  0
  -21.5642   -3.4535   25.7742 F   0  0  0  0  0  0
  -30.0130  -13.3508   20.4293 N   0  0  0  0  0  0
  -26.3006  -12.9317   20.3344 N   0  0  0  0  0  0
  -25.9327  -11.6471   20.5788 N   0  0  0  0  0  0
  -22.0490  -12.8249   22.0418 N   0  0  0  0  0  0
  -25.4296  -15.1867   20.4002 N   0  0  0  0  0  0
  -31.8549  -14.6295   20.1406 O   0  0  0  0  0  0
  -21.6621   -6.8887   21.4243 O   0  0  0  0  0  0
  -22.3593  -14.5541   20.6694 O   0  0  0  0  0  0
  -24.6170  -31.8695   23.2063 C   0  0  0  0  0  0
  -25.9055  -32.4828   23.8366 C   0  0  1  0  0  0
  -27.2233  -27.4035   20.1055 C   0  0  0  0  0  0
  -25.5894  -33.8622   24.2301 N   0  0  0  0  0  0
  -23.4045  -30.4934   21.5522 C   0  0  2  0  0  0
  -24.8461  -28.9605   20.1106 C   0  0  0  0  0  0
  -22.7434  -29.4669   22.5002 C   0  0  0  0  0  0
  -18.0283  -28.1403   22.8519 C   0  0  0  0  0  0
  -24.1491  -36.7331   23.2627 C   0  0  0  0  0  0
  -25.9327  -30.8323   21.3523 C   0  0  0  0  0  0
  -26.0105  -29.4616   20.7049 C   0  0  0  0  0  0
  -27.2022  -28.6944   20.6944 C   0  0  0  0  0  0
  -26.0349  -26.9300   19.4989 C   0  0  0  0  0  0
  -24.8557  -27.6966   19.5006 C   0  0  0  0  0  0
  -23.6108  -29.8327   20.1640 C   0  0  0  0  0  0
  -25.4105  -36.3110   24.0331 C   0  0  1  0  0  0
  -20.5879  -28.3685   23.1354 C   0  0  2  0  0  0
  -20.6788  -26.9425   22.5447 C   0  0  0  0  0  0
  -19.5749  -26.6398   21.5273 C   0  0  0  0  0  0
  -18.1932  -26.7948   22.1671 C   0  0  0  0  0  0
  -19.1531  -28.8861   23.2932 C   0  0  0  0  0  0
  -18.9448  -30.1474   23.8926 C   0  0  0  0  0  0
  -17.6449  -30.6605   24.0583 C   0  0  0  0  0  0
  -25.9041  -34.9485   23.5113 C   0  0  0  0  0  0
  -16.5342  -29.9112   23.6317 C   0  0  0  0  0  0
  -16.7274  -28.6536   23.0326 C   0  0  0  0  0  0
  -26.4438  -31.6574   25.0680 C   0  0  0  0  0  0
  -25.3676  -31.3709   26.1401 C   0  0  0  0  0  0
  -27.0204  -30.3008   24.5989 C   0  0  0  0  0  0
  -27.6011  -32.4253   25.7475 C   0  0  0  0  0  0
  -27.5586  -37.1815   24.8452 C   0  0  0  0  0  0
  -21.4164  -29.3038   22.3748 N   0  0  0  0  0  0
  -26.4278  -37.3807   23.9419 N   0  0  0  0  0  0
  -24.6717  -31.0774   22.0980 N   0  0  0  0  0  0
  -23.4209  -28.8210   23.3048 O   0  0  0  0  0  0
  -28.3782  -26.6340   20.1430 O   0  0  0  0  0  0
  -26.5627  -34.8947   22.4691 O   0  0  0  0  0  0
  -23.5353  -32.1459   23.7445 O   0  0  0  0  0  0
  -30.2499  -21.9988   21.0339 C   0  0  0  0  0  0
  -29.7369  -20.7633   20.7139 C   0  0  0  0  0  0
  -30.3641  -19.4662   21.0666 C   0  0  0  0  0  0
  -29.1133  -17.4878   22.1098 C   0  0  0  0  0  0
  -29.0241  -15.9809   21.8203 C   0  0  0  0  0  0
  -30.4138  -16.9875   20.1718 C   0  0  0  0  0  0
  -29.5843  -18.1407   20.8070 C   0  0  2  0  0  0
  -29.4915  -24.3985   20.4743 C   0  0  0  0  0  0
  -28.2194  -25.1944   20.0615 C   0  0  0  0  0  0
  -28.5646  -20.9910   19.9809 N   0  0  0  0  0  0
  -28.3709  -22.2739   19.8372 N   0  0  0  0  0  0
  -29.3766  -22.9233   20.4798 N   0  0  0  0  0  0
  -29.9774  -15.6884   20.7453 N   0  0  0  0  0  0
  -31.4785  -19.3895   21.5960 O   0  0  0  0  0  0
  -31.4681  -12.4468   19.1272 H   0  0  0  0  0  0
  -30.3399  -11.3380   19.8443 H   0  0  0  0  0  0
  -29.7506  -11.7748   17.4428 H   0  0  0  0  0  0
  -29.6673  -13.4889   17.7515 H   0  0  0  0  0  0
  -27.8274  -11.3164   18.8011 H   0  0  0  0  0  0
  -27.3731  -12.6513   17.7792 H   0  0  0  0  0  0
  -27.6976  -14.2570   19.5792 H   0  0  0  0  0  0
  -28.7075  -11.9333   21.2763 H   0  0  0  0  0  0
  -28.4537  -13.5087   21.9026 H   0  0  0  0  0  0
  -25.2735   -9.5660   22.4778 H   0  0  0  0  0  0
  -23.9983   -7.4611   22.7452 H   0  0  0  0  0  0
  -21.0843   -8.8776   19.8945 H   0  0  0  0  0  0
  -22.3698  -10.9671   19.6157 H   0  0  0  0  0  0
  -21.1973   -7.6153   23.9742 H   0  0  0  0  0  0
  -21.1521   -6.0517   25.9100 H   0  0  0  0  0  0
  -22.0567   -2.7610   23.2842 H   0  0  0  0  0  0
  -22.4037  -11.9896   22.4832 H   0  0  0  0  0  0
  -21.1110  -13.1313   22.2580 H   0  0  0  0  0  0
  -24.6627  -15.8434   20.4971 H   0  0  0  0  0  0
  -26.2886  -15.6205   20.0874 H   0  0  0  0  0  0
  -26.7128  -32.5542   23.1139 H   0  0  0  0  0  0
  -24.9981  -33.9775   25.0390 H   0  0  0  0  0  0
  -22.6938  -31.3111   21.4197 H   0  0  0  0  0  0
  -23.3748  -35.9666   23.3255 H   0  0  0  0  0  0
  -24.3611  -36.8980   22.2054 H   0  0  0  0  0  0
  -23.7236  -37.6524   23.6664 H   0  0  0  0  0  0
  -26.0215  -31.5897   20.5709 H   0  0  0  0  0  0
  -26.8312  -30.9072   21.9538 H   0  0  0  0  0  0
  -28.0975  -29.0814   21.1602 H   0  0  0  0  0  0
  -25.9899  -25.9634   19.0200 H   0  0  0  0  0  0
  -23.9609  -27.3061   19.0343 H   0  0  0  0  0  0
  -23.7249  -30.6154   19.4130 H   0  0  0  0  0  0
  -22.7313  -29.2616   19.8623 H   0  0  0  0  0  0
  -25.1274  -36.1970   25.0818 H   0  0  0  0  0  0
  -20.9981  -28.3251   24.1473 H   0  0  0  0  0  0
  -20.5797  -26.2281   23.3633 H   0  0  0  0  0  0
  -21.6640  -26.7543   22.1163 H   0  0  0  0  0  0
  -19.6910  -25.6319   21.1279 H   0  0  0  0  0  0
  -19.6676  -27.3232   20.6830 H   0  0  0  0  0  0
  -17.4221  -26.6736   21.4048 H   0  0  0  0  0  0
  -18.0283  -26.0093   22.9060 H   0  0  0  0  0  0
  -19.7921  -30.7297   24.2287 H   0  0  0  0  0  0
  -17.4997  -31.6283   24.5190 H   0  0  0  0  0  0
  -15.5339  -30.3016   23.7617 H   0  0  0  0  0  0
  -15.8687  -28.0881   22.6968 H   0  0  0  0  0  0
  -24.5876  -30.7021   25.7739 H   0  0  0  0  0  0
  -24.8823  -32.2876   26.4766 H   0  0  0  0  0  0
  -25.7988  -30.8944   27.0207 H   0  0  0  0  0  0
  -26.2718  -29.6863   24.0967 H   0  0  0  0  0  0
  -27.3901  -29.7134   25.4400 H   0  0  0  0  0  0
  -27.8587  -30.4315   23.9142 H   0  0  0  0  0  0
  -27.2630  -33.3553   26.2059 H   0  0  0  0  0  0
  -28.3842  -32.6799   25.0322 H   0  0  0  0  0  0
  -28.0633  -31.8350   26.5393 H   0  0  0  0  0  0
  -28.2553  -38.0160   24.7552 H   0  0  0  0  0  0
  -28.1130  -36.2696   24.6189 H   0  0  0  0  0  0
  -27.2332  -37.1358   25.8858 H   0  0  0  0  0  0
  -20.9324  -29.8740   21.6954 H   0  0  0  0  0  0
  -26.0162  -38.2874   24.1452 H   0  0  0  0  0  0
  -31.1409  -22.2728   21.5841 H   0  0  0  0  0  0
  -29.8457  -17.6492   22.9026 H   0  0  0  0  0  0
  -28.1660  -17.8976   22.4612 H   0  0  0  0  0  0
  -28.0176  -15.7391   21.4794 H   0  0  0  0  0  0
  -29.2280  -15.4072   22.7251 H   0  0  0  0  0  0
  -31.4796  -17.1325   20.3591 H   0  0  0  0  0  0
  -30.2837  -16.9700   19.0887 H   0  0  0  0  0  0
  -28.7186  -18.3433   20.1771 H   0  0  0  0  0  0
  -29.7959  -24.7090   21.4735 H   0  0  0  0  0  0
  -30.3136  -24.6616   19.8091 H   0  0  0  0  0  0
  -27.3964  -24.8848   20.7090 H   0  0  0  0  0  0
  -27.9570  -24.9219   19.0392 H   0  0  0  0  0  0
  1 25  1  0  0  0
  1 30  2  0  0  0
  1 83  1  0  0  0
  2  3  1  0  0  0
  2 25  1  0  0  0
  2 85  1  0  0  0
  2 86  1  0  0  0
  3  4  1  0  0  0
  3 87  1  0  0  0
  3 88  1  0  0  0
  4  5  1  0  0  0
  4 89  1  0  0  0
  4 90  1  0  0  0
  5  6  1  0  0  0
  5 26  1  0  0  0
  5 91  1  0  0  0
  6 25  1  0  0  0
  6 92  1  0  0  0
  6 93  1  0  0  0
  7  8  2  0  0  0
  7 26  1  0  0  0
  7 29  1  0  0  0
  8  9  1  0  0  0
  8 22  1  0  0  0
  9 10  1  0  0  0
  9 27  2  0  0  0
 10 11  2  0  0  0
 10 15  1  0  0  0
 11 12  1  0  0  0
 11 94  1  0  0  0
 12 13  2  0  0  0
 12 95  1  0  0  0
 13 14  1  0  0  0
 13 31  1  0  0  0
 14 15  2  0  0  0
 14 96  1  0  0  0
 15 97  1  0  0  0
 16 17  2  0  0  0
 16 21  1  0  0  0
 16 31  1  0  0  0
 17 18  1  0  0  0
 17 98  1  0  0  0
 18 19  2  0  0  0
 18 99  1  0  0  0
 19 20  1  0  0  0
 19 24  1  0  0  0
 20 21  2  0  0  0
 20100  1  0  0  0
 21 23  1  0  0  0
 22 28  1  0  0  0
 22 32  2  0  0  0
 26 27  1  0  0  0
 28101  1  0  0  0
 28102  1  0  0  0
 29103  1  0  0  0
 29104  1  0  0  0
 33 34  1  0  0  0
 33 66  1  0  0  0
 33 70  2  0  0  0
 34 36  1  0  0  0
 34 59  1  0  0  0
 34105  1  0  0  0
 35 44  2  0  0  0
 35 45  1  0  0  0
 35 68  1  0  0  0
 36 56  1  0  0  0
 36106  1  0  0  0
 37 39  1  0  0  0
 37 47  1  0  0  0
 37 66  1  0  0  0
 37107  1  0  0  0
 38 43  2  0  0  0
 38 46  1  0  0  0
 38 47  1  0  0  0
 39 64  1  0  0  0
 39 67  2  0  0  0
 40 52  1  0  0  0
 40 53  2  0  0  0
 40 58  1  0  0  0
 41108  1  0  0  0
 41109  1  0  0  0
 41110  1  0  0  0
 41 48  1  0  0  0
 42 43  1  0  0  0
 42 66  1  0  0  0
 42111  1  0  0  0
 42112  1  0  0  0
 43 44  1  0  0  0
 44113  1  0  0  0
 45 46  2  0  0  0
 45114  1  0  0  0
 46115  1  0  0  0
 47116  1  0  0  0
 47117  1  0  0  0
 48 56  1  0  0  0
 48 65  1  0  0  0
 48118  1  0  0  0
 49 50  1  0  0  0
 49 53  1  0  0  0
 49 64  1  0  0  0
 49119  1  0  0  0
 50 51  1  0  0  0
 50120  1  0  0  0
 50121  1  0  0  0
 51 52  1  0  0  0
 51122  1  0  0  0
 51123  1  0  0  0
 52124  1  0  0  0
 52125  1  0  0  0
 53 54  1  0  0  0
 54 55  2  0  0  0
 54126  1  0  0  0
 55 57  1  0  0  0
 55127  1  0  0  0
 56 69  2  0  0  0
 57 58  2  0  0  0
 57128  1  0  0  0
 58129  1  0  0  0
 59 60  1  0  0  0
 59 61  1  0  0  0
 59 62  1  0  0  0
 60130  1  0  0  0
 60131  1  0  0  0
 60132  1  0  0  0
 61133  1  0  0  0
 61134  1  0  0  0
 61135  1  0  0  0
 62136  1  0  0  0
 62137  1  0  0  0
 62138  1  0  0  0
 63 65  1  0  0  0
 63139  1  0  0  0
 63140  1  0  0  0
 63141  1  0  0  0
 64142  1  0  0  0
 65143  1  0  0  0
 68 79  1  0  0  0
 71 72  2  0  0  0
 71 82  1  0  0  0
 71144  1  0  0  0
 72 73  1  0  0  0
 72 80  1  0  0  0
 73 84  2  0  0  0
 73 77  1  0  0  0
 74 75  1  0  0  0
 74 77  1  0  0  0
 74145  1  0  0  0
 74146  1  0  0  0
 75 83  1  0  0  0
 75147  1  0  0  0
 75148  1  0  0  0
 76 77  1  0  0  0
 76 83  1  0  0  0
 76149  1  0  0  0
 76150  1  0  0  0
 77151  1  0  0  0
 78 79  1  0  0  0
 78 82  1  0  0  0
 78152  1  0  0  0
 78153  1  0  0  0
 79154  1  0  0  0
 79155  1  0  0  0
 80 81  2  0  0  0
 81 82  1  0  0  0
M  ISO  4   1 100  68 101  79 101  83 100
M  END
> <chiral flag>
0

> <version>
0

> <s_m_source_file>
/data/baiqing/PycharmProjects/Reinvent-master-3.2/result/LINK_invent/BTK/process_docking_weight1_custom_sum_contain_oxygen_bond_distance_aromatic_linkinvent_7_9_3/rearranged_h_0199.sdf

> <i_m_source_file_index>
19

> <r_mmod_Potential_Energy-OPLS-2005>
227.675659179688

> <r_mmod_Stretch_Energy-OPLS-2005>
47.8734588623047

> <r_mmod_Bend_Energy-OPLS-2005>
133.5322265625

> <r_mmod_Torsional_Energy-OPLS-2005>
315.152770996094

> <r_mmod_Improper_Torsional_Energy-OPLS-2005>
12.621771812439

> <r_mmod_Van_der_Waal_Energy-OPLS-2005>
132.866058349609

> <r_mmod_Electrostatic_Energy-OPLS-2005>
-214.675231933594

> <r_mmod_Solvation_Energy-OPLS-2005>
-220.922271728516

> <b_mmod_Minimization_Converged-OPLS-2005>
0

> <r_mmod_RMS_Derivative-OPLS-2005>
2.62191963195801

$$$$
19
                    3D
 Structure written by MMmdl.
161170  0  0  1  0            999 V2000
  -30.5424  -15.0647   20.4203 C   0  0  0  0  0  0
  -30.4347  -12.6760   19.5051 C   0  0  0  0  0  0
  -29.5225  -12.5549   18.2620 C   0  0  0  0  0  0
  -28.0606  -12.3166   18.6818 C   0  0  0  0  0  0
  -27.6214  -13.2581   19.8329 C   0  0  2  0  0  0
  -28.6668  -13.3296   20.9668 C   0  0  0  0  0  0
  -25.2386  -13.8196   20.5695 C   0  0  0  0  0  0
  -24.1740  -13.0406   20.9239 C   0  0  0  0  0  0
  -24.6392  -11.6909   20.8764 C   0  0  0  0  0  0
  -23.9086  -10.4278   21.0408 C   0  0  0  0  0  0
  -24.3629   -9.4196   21.9188 C   0  0  0  0  0  0
  -23.6301   -8.2235   22.0758 C   0  0  0  0  0  0
  -22.4282   -8.0276   21.3547 C   0  0  0  0  0  0
  -21.9922   -9.0249   20.4648 C   0  0  0  0  0  0
  -22.7256  -10.2124   20.3056 C   0  0  0  0  0  0
  -21.6851   -6.0733   22.5280 C   0  0  0  0  0  0
  -21.4011   -6.5637   23.8214 C   0  0  0  0  0  0
  -21.3660   -5.6791   24.9175 C   0  0  0  0  0  0
  -21.6046   -4.3054   24.7224 C   0  0  0  0  0  0
  -21.8817   -3.8142   23.4345 C   0  0  0  0  0  0
  -21.9192   -4.6962   22.3403 C   0  0  0  0  0  0
  -22.7764  -13.5181   21.1880 C   0  0  0  0  0  0
  -22.1663   -4.2149   21.0978 F   0  0  0  0  0  0
  -21.5632   -3.4535   25.7738 F   0  0  0  0  0  0
  -29.9197  -13.8011   20.3557 N   0  0  0  0  0  0
  -26.2846  -12.9470   20.3239 N   0  0  0  0  0  0
  -25.9332  -11.6588   20.5751 N   0  0  0  0  0  0
  -22.0407  -12.8189   22.0441 N   0  0  0  0  0  0
  -25.3911  -15.1917   20.4056 N   0  0  0  0  0  0
  -31.7491  -15.0522   20.1416 O   0  0  0  0  0  0
  -21.6641   -6.8876   21.4243 O   0  0  0  0  0  0
  -22.3457  -14.5480   20.6708 O   0  0  0  0  0  0
  -24.6509  -31.8381   23.1829 C   0  0  0  0  0  0
  -25.9247  -32.4661   23.8246 C   0  0  1  0  0  0
  -27.2143  -27.0617   20.1585 C   0  0  0  0  0  0
  -25.5967  -33.8471   24.2158 N   0  0  0  0  0  0
  -23.4581  -30.4560   21.5309 C   0  0  2  0  0  0
  -24.9090  -28.8734   20.1109 C   0  0  0  0  0  0
  -22.7605  -29.4519   22.4837 C   0  0  0  0  0  0
  -18.0312  -28.1397   22.8479 C   0  0  0  0  0  0
  -24.1493  -36.7242   23.2643 C   0  0  0  0  0  0
  -26.0208  -30.6876   21.3943 C   0  0  0  0  0  0
  -26.0908  -29.2923   20.7350 C   0  0  0  0  0  0
  -27.2432  -28.4049   20.7401 C   0  0  0  0  0  0
  -26.0034  -26.7693   19.4882 C   0  0  0  0  0  0
  -24.8828  -27.6277   19.4703 C   0  0  0  0  0  0
  -23.6888  -29.7836   20.1521 C   0  0  0  0  0  0
  -25.4127  -36.3012   24.0310 C   0  0  1  0  0  0
  -20.5931  -28.3730   23.1218 C   0  0  2  0  0  0
  -20.6796  -26.9426   22.5401 C   0  0  0  0  0  0
  -19.5766  -26.6376   21.5216 C   0  0  0  0  0  0
  -18.1947  -26.7934   22.1627 C   0  0  0  0  0  0
  -19.1571  -28.8884   23.2836 C   0  0  0  0  0  0
  -18.9485  -30.1479   23.8861 C   0  0  0  0  0  0
  -17.6480  -30.6593   24.0555 C   0  0  0  0  0  0
  -25.9084  -34.9388   23.5045 C   0  0  0  0  0  0
  -16.5371  -29.9082   23.6340 C   0  0  0  0  0  0
  -16.7296  -28.6501   23.0362 C   0  0  0  0  0  0
  -26.4536  -31.6553   25.0717 C   0  0  0  0  0  0
  -25.3695  -31.3777   26.1396 C   0  0  0  0  0  0
  -27.0406  -30.2934   24.6357 C   0  0  0  0  0  0
  -27.6048  -32.4336   25.7512 C   0  0  0  0  0  0
  -27.5577  -37.1776   24.8462 C   0  0  0  0  0  0
  -21.4291  -29.3045   22.3583 N   0  0  0  0  0  0
  -26.4283  -37.3734   23.9412 N   0  0  0  0  0  0
  -24.7305  -31.0164   22.0904 N   0  0  0  0  0  0
  -23.4214  -28.8068   23.3012 O   0  0  0  0  0  0
  -28.2286  -26.0100   20.2367 O   0  0  0  0  0  0
  -26.5679  -34.8899   22.4630 O   0  0  0  0  0  0
  -23.5607  -32.1295   23.6996 O   0  0  0  0  0  0
  -30.3791  -21.4856   20.4485 C   0  0  0  0  0  0
  -29.2727  -20.6581   20.3228 C   0  0  0  0  0  0
  -28.6891  -23.0346   20.2499 C   0  0  0  0  0  0
  -28.3648  -18.2329   21.3383 C   0  0  0  0  0  0
  -28.5675  -16.6696   21.1492 C   0  0  0  0  0  0
  -30.3173  -17.8129   20.1434 C   0  0  0  0  0  0
  -29.1333  -18.9786   20.2337 C   0  0  2  0  0  0
  -24.6614  -20.9008   21.4176 C   0  0  0  0  0  0
  -27.8409  -24.4792   20.0533 C   0  0  0  0  0  0
  -26.8159  -21.3930   20.1196 C   0  0  0  0  0  0
  -26.1341  -21.3150   21.4991 C   0  0  1  0  0  0
  -28.2507  -21.6895   20.2315 N   0  0  0  0  0  0
  -30.0113  -22.8413   20.3978 N   0  3  0  0  0  0
  -29.8549  -16.3506   20.4953 N   0  0  0  0  0  0
  -26.1948  -22.5033   22.0994 F   0  0  0  0  0  0
  -31.4644  -12.8386   19.1835 H   0  0  0  0  0  0
  -30.4520  -11.7395   20.0646 H   0  0  0  0  0  0
  -29.8664  -11.7472   17.6143 H   0  0  0  0  0  0
  -29.5891  -13.4700   17.6712 H   0  0  0  0  0  0
  -27.9755  -11.2780   19.0031 H   0  0  0  0  0  0
  -27.3956  -12.4248   17.8241 H   0  0  0  0  0  0
  -27.5668  -14.2491   19.3833 H   0  0  0  0  0  0
  -28.7963  -12.3573   21.4439 H   0  0  0  0  0  0
  -28.3381  -14.0030   21.7555 H   0  0  0  0  0  0
  -25.2766   -9.5677   22.4773 H   0  0  0  0  0  0
  -24.0003   -7.4627   22.7480 H   0  0  0  0  0  0
  -21.0852   -8.8769   19.8960 H   0  0  0  0  0  0
  -22.3710  -10.9663   19.6170 H   0  0  0  0  0  0
  -21.2000   -7.6148   23.9720 H   0  0  0  0  0  0
  -21.1488   -6.0519   25.9081 H   0  0  0  0  0  0
  -22.0596   -2.7606   23.2842 H   0  0  0  0  0  0
  -22.4023  -11.9864   22.4851 H   0  0  0  0  0  0
  -21.1020  -13.1213   22.2616 H   0  0  0  0  0  0
  -24.6123  -15.8319   20.5138 H   0  0  0  0  0  0
  -26.2233  -15.6362   20.0439 H   0  0  0  0  0  0
  -26.7313  -32.5243   23.0970 H   0  0  0  0  0  0
  -25.0074  -33.9577   25.0278 H   0  0  0  0  0  0
  -22.7647  -31.2843   21.3719 H   0  0  0  0  0  0
  -23.3767  -35.9561   23.3275 H   0  0  0  0  0  0
  -24.3576  -36.8906   22.2063 H   0  0  0  0  0  0
  -23.7230  -37.6419   23.6705 H   0  0  0  0  0  0
  -26.1857  -31.4393   20.6210 H   0  0  0  0  0  0
  -26.8870  -30.7389   22.0418 H   0  0  0  0  0  0
  -28.1389  -28.7211   21.2570 H   0  0  0  0  0  0
  -25.8739  -25.8231   18.9871 H   0  0  0  0  0  0
  -23.9826  -27.3020   18.9675 H   0  0  0  0  0  0
  -23.8309  -30.5572   19.3966 H   0  0  0  0  0  0
  -22.8019  -29.2296   19.8389 H   0  0  0  0  0  0
  -25.1317  -36.1832   25.0800 H   0  0  0  0  0  0
  -21.0021  -28.3324   24.1340 H   0  0  0  0  0  0
  -20.5687  -26.2346   23.3628 H   0  0  0  0  0  0
  -21.6658  -26.7419   22.1199 H   0  0  0  0  0  0
  -19.6922  -25.6277   21.1268 H   0  0  0  0  0  0
  -19.6700  -27.3165   20.6730 H   0  0  0  0  0  0
  -17.4216  -26.6682   21.4029 H   0  0  0  0  0  0
  -18.0339  -26.0082   22.9027 H   0  0  0  0  0  0
  -19.7961  -30.7307   24.2209 H   0  0  0  0  0  0
  -17.5033  -31.6271   24.5158 H   0  0  0  0  0  0
  -15.5369  -30.2970   23.7686 H   0  0  0  0  0  0
  -15.8697  -28.0806   22.7096 H   0  0  0  0  0  0
  -24.5865  -30.7139   25.7712 H   0  0  0  0  0  0
  -24.8899  -32.2974   26.4757 H   0  0  0  0  0  0
  -25.7948  -30.8980   27.0220 H   0  0  0  0  0  0
  -26.3043  -29.6643   24.1344 H   0  0  0  0  0  0
  -27.3960  -29.7252   25.4962 H   0  0  0  0  0  0
  -27.8976  -30.4138   23.9729 H   0  0  0  0  0  0
  -27.2624  -33.3659   26.2017 H   0  0  0  0  0  0
  -28.3901  -32.6862   25.0375 H   0  0  0  0  0  0
  -28.0673  -31.8514   26.5492 H   0  0  0  0  0  0
  -28.2572  -38.0095   24.7524 H   0  0  0  0  0  0
  -28.1096  -36.2623   24.6269 H   0  0  0  0  0  0
  -27.2298  -37.1390   25.8864 H   0  0  0  0  0  0
  -20.9515  -29.8760   21.6756 H   0  0  0  0  0  0
  -26.0146  -38.2799   24.1419 H   0  0  0  0  0  0
  -31.4182  -21.2051   20.5485 H   0  0  0  0  0  0
  -28.7693  -18.5293   22.3072 H   0  0  0  0  0  0
  -27.3060  -18.4920   21.3456 H   0  0  0  0  0  0
  -27.7820  -16.2884   20.5037 H   0  0  0  0  0  0
  -28.4806  -16.1665   22.1121 H   0  0  0  0  0  0
  -31.1137  -18.0645   20.8450 H   0  0  0  0  0  0
  -30.7762  -17.8199   19.1541 H   0  0  0  0  0  0
  -28.5515  -18.8262   19.3234 H   0  0  0  0  0  0
  -24.5547  -19.9086   20.9787 H   0  0  0  0  0  0
  -24.0849  -21.6002   20.8118 H   0  0  0  0  0  0
  -24.2109  -20.8730   22.4103 H   0  0  0  0  0  0
  -26.9444  -24.3365   20.6542 H   0  0  0  0  0  0
  -27.5130  -24.3936   19.0179 H   0  0  0  0  0  0
  -26.3454  -22.1487   19.4903 H   0  0  0  0  0  0
  -26.7120  -20.4454   19.5915 H   0  0  0  0  0  0
  -26.6715  -20.6216   22.1477 H   0  0  0  0  0  0
  -30.6755  -23.6046   20.4476 H   0  0  0  0  0  0
  1 25  1  0  0  0
  1 30  2  0  0  0
  1 84  1  0  0  0
  2  3  1  0  0  0
  2 25  1  0  0  0
  2 86  1  0  0  0
  2 87  1  0  0  0
  3  4  1  0  0  0
  3 88  1  0  0  0
  3 89  1  0  0  0
  4  5  1  0  0  0
  4 90  1  0  0  0
  4 91  1  0  0  0
  5  6  1  0  0  0
  5 26  1  0  0  0
  5 92  1  0  0  0
  6 25  1  0  0  0
  6 93  1  0  0  0
  6 94  1  0  0  0
  7  8  2  0  0  0
  7 26  1  0  0  0
  7 29  1  0  0  0
  8  9  1  0  0  0
  8 22  1  0  0  0
  9 10  1  0  0  0
  9 27  2  0  0  0
 10 11  2  0  0  0
 10 15  1  0  0  0
 11 12  1  0  0  0
 11 95  1  0  0  0
 12 13  2  0  0  0
 12 96  1  0  0  0
 13 14  1  0  0  0
 13 31  1  0  0  0
 14 15  2  0  0  0
 14 97  1  0  0  0
 15 98  1  0  0  0
 16 17  2  0  0  0
 16 21  1  0  0  0
 16 31  1  0  0  0
 17 18  1  0  0  0
 17 99  1  0  0  0
 18 19  2  0  0  0
 18100  1  0  0  0
 19 20  1  0  0  0
 19 24  1  0  0  0
 20 21  2  0  0  0
 20101  1  0  0  0
 21 23  1  0  0  0
 22 28  1  0  0  0
 22 32  2  0  0  0
 26 27  1  0  0  0
 28102  1  0  0  0
 28103  1  0  0  0
 29104  1  0  0  0
 29105  1  0  0  0
 33 34  1  0  0  0
 33 66  1  0  0  0
 33 70  2  0  0  0
 34 36  1  0  0  0
 34 59  1  0  0  0
 34106  1  0  0  0
 35 44  2  0  0  0
 35 45  1  0  0  0
 35 68  1  0  0  0
 36 56  1  0  0  0
 36107  1  0  0  0
 37 39  1  0  0  0
 37 47  1  0  0  0
 37 66  1  0  0  0
 37108  1  0  0  0
 38 43  2  0  0  0
 38 46  1  0  0  0
 38 47  1  0  0  0
 39 64  1  0  0  0
 39 67  2  0  0  0
 40 52  1  0  0  0
 40 53  2  0  0  0
 40 58  1  0  0  0
 41109  1  0  0  0
 41110  1  0  0  0
 41111  1  0  0  0
 41 48  1  0  0  0
 42 43  1  0  0  0
 42 66  1  0  0  0
 42112  1  0  0  0
 42113  1  0  0  0
 43 44  1  0  0  0
 44114  1  0  0  0
 45 46  2  0  0  0
 45115  1  0  0  0
 46116  1  0  0  0
 47117  1  0  0  0
 47118  1  0  0  0
 48 56  1  0  0  0
 48 65  1  0  0  0
 48119  1  0  0  0
 49 50  1  0  0  0
 49 53  1  0  0  0
 49 64  1  0  0  0
 49120  1  0  0  0
 50 51  1  0  0  0
 50121  1  0  0  0
 50122  1  0  0  0
 51 52  1  0  0  0
 51123  1  0  0  0
 51124  1  0  0  0
 52125  1  0  0  0
 52126  1  0  0  0
 53 54  1  0  0  0
 54 55  2  0  0  0
 54127  1  0  0  0
 55 57  1  0  0  0
 55128  1  0  0  0
 56 69  2  0  0  0
 57 58  2  0  0  0
 57129  1  0  0  0
 58130  1  0  0  0
 59 60  1  0  0  0
 59 61  1  0  0  0
 59 62  1  0  0  0
 60131  1  0  0  0
 60132  1  0  0  0
 60133  1  0  0  0
 61134  1  0  0  0
 61135  1  0  0  0
 61136  1  0  0  0
 62137  1  0  0  0
 62138  1  0  0  0
 62139  1  0  0  0
 63 65  1  0  0  0
 63140  1  0  0  0
 63141  1  0  0  0
 63142  1  0  0  0
 64143  1  0  0  0
 65144  1  0  0  0
 68 79  1  0  0  0
 71 72  2  0  0  0
 71 83  1  0  0  0
 71145  1  0  0  0
 72 82  1  0  0  0
 72 77  1  0  0  0
 73 79  1  0  0  0
 73 82  1  0  0  0
 73 83  2  0  0  0
 74 75  1  0  0  0
 74 77  1  0  0  0
 74146  1  0  0  0
 74147  1  0  0  0
 75 84  1  0  0  0
 75148  1  0  0  0
 75149  1  0  0  0
 76 77  1  0  0  0
 76 84  1  0  0  0
 76150  1  0  0  0
 76151  1  0  0  0
 77152  1  0  0  0
 78153  1  0  0  0
 78154  1  0  0  0
 78155  1  0  0  0
 78 81  1  0  0  0
 79156  1  0  0  0
 79157  1  0  0  0
 80 81  1  0  0  0
 80 82  1  0  0  0
 80158  1  0  0  0
 80159  1  0  0  0
 81 85  1  0  0  0
 81160  1  0  0  0
 83161  1  0  0  0
M  CHG  1  83   1
M  ISO  4   1 100  68 101  79 101  84 100
M  END
> <chiral flag>
0

> <version>
0

> <s_m_source_file>
/data/baiqing/PycharmProjects/Reinvent-master-3.2/result/LINK_invent/BTK/process_docking_weight1_custom_sum_contain_oxygen_bond_distance_aromatic_linkinvent_7_9_3/rearranged_h_0199.sdf

> <i_m_source_file_index>
20

> <r_mmod_Potential_Energy-OPLS-2005>
764.43408203125

> <r_mmod_Stretch_Energy-OPLS-2005>
330.577362060547

> <r_mmod_Bend_Energy-OPLS-2005>
337.084899902344

> <r_mmod_Torsional_Energy-OPLS-2005>
318.803100585938

> <r_mmod_Improper_Torsional_Energy-OPLS-2005>
7.49488353729248

> <r_mmod_Van_der_Waal_Energy-OPLS-2005>
101.901702880859

> <r_mmod_Electrostatic_Energy-OPLS-2005>
-181.737670898438

> <r_mmod_Solvation_Energy-OPLS-2005>
-421.933929443359

> <b_mmod_Minimization_Converged-OPLS-2005>
0

> <r_mmod_RMS_Derivative-OPLS-2005>
0.837604582309723

$$$$
20
                    3D
 Structure written by MMmdl.
154163  0  0  1  0            999 V2000
  -30.5717  -14.7771   20.4644 C   0  0  0  0  0  0
  -30.4405  -12.4827   19.4621 C   0  0  0  0  0  0
  -29.5073  -12.5042   18.2307 C   0  0  0  0  0  0
  -28.0363  -12.3159   18.6517 C   0  0  0  0  0  0
  -27.6365  -13.2246   19.8436 C   0  0  2  0  0  0
  -28.6811  -13.1670   20.9765 C   0  0  0  0  0  0
  -25.2510  -13.8175   20.5684 C   0  0  0  0  0  0
  -24.1799  -13.0431   20.9211 C   0  0  0  0  0  0
  -24.6378  -11.6901   20.8773 C   0  0  0  0  0  0
  -23.9056  -10.4281   21.0429 C   0  0  0  0  0  0
  -24.3616   -9.4192   21.9200 C   0  0  0  0  0  0
  -23.6290   -8.2229   22.0755 C   0  0  0  0  0  0
  -22.4283   -8.0269   21.3535 C   0  0  0  0  0  0
  -21.9914   -9.0246   20.4645 C   0  0  0  0  0  0
  -22.7238  -10.2126   20.3062 C   0  0  0  0  0  0
  -21.6851   -6.0744   22.5277 C   0  0  0  0  0  0
  -21.4002   -6.5646   23.8214 C   0  0  0  0  0  0
  -21.3658   -5.6802   24.9175 C   0  0  0  0  0  0
  -21.6035   -4.3061   24.7232 C   0  0  0  0  0  0
  -21.8818   -3.8158   23.4351 C   0  0  0  0  0  0
  -21.9189   -4.6971   22.3400 C   0  0  0  0  0  0
  -22.7827  -13.5222   21.1881 C   0  0  0  0  0  0
  -22.1664   -4.2163   21.0981 F   0  0  0  0  0  0
  -21.5633   -3.4543   25.7744 F   0  0  0  0  0  0
  -29.9739  -13.5394   20.3869 N   0  0  0  0  0  0
  -26.2910  -12.9357   20.3247 N   0  0  0  0  0  0
  -25.9302  -11.6509   20.5745 N   0  0  0  0  0  0
  -22.0475  -12.8207   22.0438 N   0  0  0  0  0  0
  -25.4196  -15.1901   20.4079 N   0  0  0  0  0  0
  -31.7735  -14.8982   20.2087 O   0  0  0  0  0  0
  -21.6636   -6.8883   21.4235 O   0  0  0  0  0  0
  -22.3510  -14.5535   20.6739 O   0  0  0  0  0  0
  -24.6322  -31.8545   23.1931 C   0  0  0  0  0  0
  -25.9134  -32.4756   23.8280 C   0  0  1  0  0  0
  -27.2220  -27.2566   20.1459 C   0  0  0  0  0  0
  -25.5908  -33.8550   24.2189 N   0  0  0  0  0  0
  -23.4274  -30.4755   21.5389 C   0  0  2  0  0  0
  -24.8757  -28.9162   20.1169 C   0  0  0  0  0  0
  -22.7512  -29.4597   22.4915 C   0  0  0  0  0  0
  -18.0291  -28.1379   22.8493 C   0  0  0  0  0  0
  -24.1477  -36.7269   23.2643 C   0  0  0  0  0  0
  -25.9737  -30.7710   21.3685 C   0  0  0  0  0  0
  -26.0507  -29.3908   20.7163 C   0  0  0  0  0  0
  -27.2313  -28.5771   20.7107 C   0  0  0  0  0  0
  -26.0257  -26.8473   19.5211 C   0  0  0  0  0  0
  -24.8678  -27.6512   19.5108 C   0  0  0  0  0  0
  -23.6444  -29.8021   20.1588 C   0  0  0  0  0  0
  -25.4109  -36.3047   24.0309 C   0  0  1  0  0  0
  -20.5899  -28.3678   23.1274 C   0  0  2  0  0  0
  -20.6776  -26.9387   22.5415 C   0  0  0  0  0  0
  -19.5744  -26.6347   21.5230 C   0  0  0  0  0  0
  -18.1913  -26.7911   22.1632 C   0  0  0  0  0  0
  -19.1550  -28.8851   23.2867 C   0  0  0  0  0  0
  -18.9488  -30.1458   23.8877 C   0  0  0  0  0  0
  -17.6492  -30.6586   24.0571 C   0  0  0  0  0  0
  -25.9065  -34.9440   23.5055 C   0  0  0  0  0  0
  -16.5377  -29.9082   23.6348 C   0  0  0  0  0  0
  -16.7280  -28.6502   23.0351 C   0  0  0  0  0  0
  -26.4486  -31.6606   25.0700 C   0  0  0  0  0  0
  -25.3695  -31.3799   26.1430 C   0  0  0  0  0  0
  -27.0337  -30.3011   24.6192 C   0  0  0  0  0  0
  -27.6013  -32.4376   25.7481 C   0  0  0  0  0  0
  -27.5554  -37.1784   24.8463 C   0  0  0  0  0  0
  -21.4214  -29.3040   22.3682 N   0  0  0  0  0  0
  -26.4258  -37.3764   23.9421 N   0  0  0  0  0  0
  -24.6973  -31.0514   22.0906 N   0  0  0  0  0  0
  -23.4224  -28.8151   23.3010 O   0  0  0  0  0  0
  -28.3051  -26.3462   20.1655 O   0  0  0  0  0  0
  -26.5661  -34.8939   22.4637 O   0  0  0  0  0  0
  -23.5463  -32.1362   23.7222 O   0  0  0  0  0  0
  -30.2462  -22.6590   18.7816 C   0  0  0  0  0  0
  -28.5490  -22.3175   20.7968 C   0  0  0  0  0  0
  -28.7774  -23.6417   20.2421 C   0  0  0  0  0  0
  -29.2458  -21.1704   20.2339 C   0  0  0  0  0  0
  -29.1689  -17.8574   22.1317 C   0  0  0  0  0  0
  -29.1360  -19.4034   22.0571 C   0  0  0  0  0  0
  -29.6907  -18.5503   19.9158 C   0  0  0  0  0  0
  -30.0233  -17.3645   20.9470 C   0  0  2  0  0  0
  -28.0547  -24.9769   20.7525 C   0  0  0  0  0  0
  -29.6522  -23.7686   19.2240 N   0  0  0  0  0  0
  -30.0854  -21.4030   19.2103 N   0  0  0  0  0  0
  -29.1629  -19.7661   20.6440 N   0  0  0  0  0  0
  -29.7470  -15.8848   20.6384 N   0  0  0  0  0  0
  -27.4136  -22.1551   22.0929 Cl  0  0  0  0  0  0
  -31.4756  -12.6387   19.1536 H   0  0  0  0  0  0
  -30.4154  -11.5091   19.9548 H   0  0  0  0  0  0
  -29.7968  -11.7226   17.5283 H   0  0  0  0  0  0
  -29.6159  -13.4506   17.6975 H   0  0  0  0  0  0
  -27.9117  -11.2688   18.9309 H   0  0  0  0  0  0
  -27.3712  -12.4842   17.8045 H   0  0  0  0  0  0
  -27.6253  -14.2423   19.4518 H   0  0  0  0  0  0
  -28.7309  -12.1690   21.4127 H   0  0  0  0  0  0
  -28.4090  -13.8419   21.7905 H   0  0  0  0  0  0
  -25.2755   -9.5686   22.4770 H   0  0  0  0  0  0
  -24.0015   -7.4627   22.7471 H   0  0  0  0  0  0
  -21.0848   -8.8756   19.8948 H   0  0  0  0  0  0
  -22.3697  -10.9670   19.6176 H   0  0  0  0  0  0
  -21.1976   -7.6149   23.9723 H   0  0  0  0  0  0
  -21.1481   -6.0531   25.9087 H   0  0  0  0  0  0
  -22.0594   -2.7618   23.2846 H   0  0  0  0  0  0
  -22.4110  -11.9868   22.4821 H   0  0  0  0  0  0
  -21.1084  -13.1208   22.2664 H   0  0  0  0  0  0
  -24.6417  -15.8347   20.5002 H   0  0  0  0  0  0
  -26.2520  -15.6282   20.0368 H   0  0  0  0  0  0
  -26.7222  -32.5421   23.1041 H   0  0  0  0  0  0
  -25.0024  -33.9668   25.0311 H   0  0  0  0  0  0
  -22.7217  -31.2964   21.3903 H   0  0  0  0  0  0
  -23.3745  -35.9593   23.3293 H   0  0  0  0  0  0
  -24.3542  -36.8910   22.2054 H   0  0  0  0  0  0
  -23.7242  -37.6458   23.6718 H   0  0  0  0  0  0
  -26.1028  -31.5288   20.5945 H   0  0  0  0  0  0
  -26.8540  -30.8262   21.9971 H   0  0  0  0  0  0
  -28.1340  -28.9409   21.1792 H   0  0  0  0  0  0
  -25.9706  -25.8727   19.0570 H   0  0  0  0  0  0
  -23.9659  -27.2731   19.0492 H   0  0  0  0  0  0
  -23.7626  -30.5763   19.4001 H   0  0  0  0  0  0
  -22.7631  -29.2326   19.8572 H   0  0  0  0  0  0
  -25.1294  -36.1858   25.0793 H   0  0  0  0  0  0
  -20.9986  -28.3250   24.1399 H   0  0  0  0  0  0
  -20.5672  -26.2274   23.3613 H   0  0  0  0  0  0
  -21.6642  -26.7391   22.1214 H   0  0  0  0  0  0
  -19.6895  -25.6258   21.1238 H   0  0  0  0  0  0
  -19.6680  -27.3180   20.6783 H   0  0  0  0  0  0
  -17.4186  -26.6693   21.4024 H   0  0  0  0  0  0
  -18.0288  -26.0037   22.9004 H   0  0  0  0  0  0
  -19.7988  -30.7288   24.2185 H   0  0  0  0  0  0
  -17.5060  -31.6268   24.5170 H   0  0  0  0  0  0
  -15.5382  -30.2997   23.7687 H   0  0  0  0  0  0
  -15.8670  -28.0840   22.7059 H   0  0  0  0  0  0
  -24.5845  -30.7170   25.7774 H   0  0  0  0  0  0
  -24.8946  -32.3012   26.4839 H   0  0  0  0  0  0
  -25.7991  -30.8989   27.0231 H   0  0  0  0  0  0
  -26.2938  -29.6757   24.1196 H   0  0  0  0  0  0
  -27.4001  -29.7267   25.4710 H   0  0  0  0  0  0
  -27.8799  -30.4267   23.9431 H   0  0  0  0  0  0
  -27.2600  -33.3718   26.1955 H   0  0  0  0  0  0
  -28.3892  -32.6877   25.0365 H   0  0  0  0  0  0
  -28.0609  -31.8582   26.5497 H   0  0  0  0  0  0
  -28.2579  -38.0075   24.7508 H   0  0  0  0  0  0
  -28.1045  -36.2608   24.6304 H   0  0  0  0  0  0
  -27.2266  -37.1439   25.8861 H   0  0  0  0  0  0
  -20.9383  -29.8767   21.6908 H   0  0  0  0  0  0
  -26.0116  -38.2811   24.1484 H   0  0  0  0  0  0
  -30.9600  -22.7942   17.9828 H   0  0  0  0  0  0
  -28.1464  -17.4912   22.0233 H   0  0  0  0  0  0
  -29.5320  -17.5014   23.0957 H   0  0  0  0  0  0
  -30.0110  -19.8318   22.5473 H   0  0  0  0  0  0
  -28.2511  -19.7775   22.5689 H   0  0  0  0  0  0
  -28.9366  -18.2270   19.1957 H   0  0  0  0  0  0
  -30.5807  -18.8036   19.3363 H   0  0  0  0  0  0
  -31.0731  -17.4551   21.2330 H   0  0  0  0  0  0
  -28.3352  -25.0703   21.8021 H   0  0  0  0  0  0
  -26.9877  -24.7575   20.7797 H   0  0  0  0  0  0
  -28.7708  -15.6369   20.6862 H   0  0  0  0  0  0
  1 25  1  0  0  0
  1 30  2  0  0  0
  1 83  1  0  0  0
  2  3  1  0  0  0
  2 25  1  0  0  0
  2 85  1  0  0  0
  2 86  1  0  0  0
  3  4  1  0  0  0
  3 87  1  0  0  0
  3 88  1  0  0  0
  4  5  1  0  0  0
  4 89  1  0  0  0
  4 90  1  0  0  0
  5  6  1  0  0  0
  5 26  1  0  0  0
  5 91  1  0  0  0
  6 25  1  0  0  0
  6 92  1  0  0  0
  6 93  1  0  0  0
  7  8  2  0  0  0
  7 26  1  0  0  0
  7 29  1  0  0  0
  8  9  1  0  0  0
  8 22  1  0  0  0
  9 10  1  0  0  0
  9 27  2  0  0  0
 10 11  2  0  0  0
 10 15  1  0  0  0
 11 12  1  0  0  0
 11 94  1  0  0  0
 12 13  2  0  0  0
 12 95  1  0  0  0
 13 14  1  0  0  0
 13 31  1  0  0  0
 14 15  2  0  0  0
 14 96  1  0  0  0
 15 97  1  0  0  0
 16 17  2  0  0  0
 16 21  1  0  0  0
 16 31  1  0  0  0
 17 18  1  0  0  0
 17 98  1  0  0  0
 18 19  2  0  0  0
 18 99  1  0  0  0
 19 20  1  0  0  0
 19 24  1  0  0  0
 20 21  2  0  0  0
 20100  1  0  0  0
 21 23  1  0  0  0
 22 28  1  0  0  0
 22 32  2  0  0  0
 26 27  1  0  0  0
 28101  1  0  0  0
 28102  1  0  0  0
 29103  1  0  0  0
 29104  1  0  0  0
 33 34  1  0  0  0
 33 66  1  0  0  0
 33 70  2  0  0  0
 34 36  1  0  0  0
 34 59  1  0  0  0
 34105  1  0  0  0
 35 44  2  0  0  0
 35 45  1  0  0  0
 35 68  1  0  0  0
 36 56  1  0  0  0
 36106  1  0  0  0
 37 39  1  0  0  0
 37 47  1  0  0  0
 37 66  1  0  0  0
 37107  1  0  0  0
 38 43  2  0  0  0
 38 46  1  0  0  0
 38 47  1  0  0  0
 39 64  1  0  0  0
 39 67  2  0  0  0
 40 52  1  0  0  0
 40 53  2  0  0  0
 40 58  1  0  0  0
 41108  1  0  0  0
 41109  1  0  0  0
 41110  1  0  0  0
 41 48  1  0  0  0
 42 43  1  0  0  0
 42 66  1  0  0  0
 42111  1  0  0  0
 42112  1  0  0  0
 43 44  1  0  0  0
 44113  1  0  0  0
 45 46  2  0  0  0
 45114  1  0  0  0
 46115  1  0  0  0
 47116  1  0  0  0
 47117  1  0  0  0
 48 56  1  0  0  0
 48 65  1  0  0  0
 48118  1  0  0  0
 49 50  1  0  0  0
 49 53  1  0  0  0
 49 64  1  0  0  0
 49119  1  0  0  0
 50 51  1  0  0  0
 50120  1  0  0  0
 50121  1  0  0  0
 51 52  1  0  0  0
 51122  1  0  0  0
 51123  1  0  0  0
 52124  1  0  0  0
 52125  1  0  0  0
 53 54  1  0  0  0
 54 55  2  0  0  0
 54126  1  0  0  0
 55 57  1  0  0  0
 55127  1  0  0  0
 56 69  2  0  0  0
 57 58  2  0  0  0
 57128  1  0  0  0
 58129  1  0  0  0
 59 60  1  0  0  0
 59 61  1  0  0  0
 59 62  1  0  0  0
 60130  1  0  0  0
 60131  1  0  0  0
 60132  1  0  0  0
 61133  1  0  0  0
 61134  1  0  0  0
 61135  1  0  0  0
 62136  1  0  0  0
 62137  1  0  0  0
 62138  1  0  0  0
 63 65  1  0  0  0
 63139  1  0  0  0
 63140  1  0  0  0
 63141  1  0  0  0
 64142  1  0  0  0
 65143  1  0  0  0
 68 79  1  0  0  0
 71 80  2  0  0  0
 71 81  1  0  0  0
 71144  1  0  0  0
 72 73  2  0  0  0
 72 74  1  0  0  0
 72 84  1  0  0  0
 73 79  1  0  0  0
 73 80  1  0  0  0
 74 81  2  0  0  0
 74 82  1  0  0  0
 75 76  1  0  0  0
 75 78  1  0  0  0
 75145  1  0  0  0
 75146  1  0  0  0
 76 82  1  0  0  0
 76147  1  0  0  0
 76148  1  0  0  0
 77 78  1  0  0  0
 77 82  1  0  0  0
 77149  1  0  0  0
 77150  1  0  0  0
 78 83  1  0  0  0
 78151  1  0  0  0
 79152  1  0  0  0
 79153  1  0  0  0
 83154  1  0  0  0
M  ISO  4   1 100  68 101  79 101  83 100
M  END
> <chiral flag>
0

> <version>
0

> <s_m_source_file>
/data/baiqing/PycharmProjects/Reinvent-master-3.2/result/LINK_invent/BTK/process_docking_weight1_custom_sum_contain_oxygen_bond_distance_aromatic_linkinvent_7_9_3/rearranged_h_0199.sdf

> <i_m_source_file_index>
21

> <r_mmod_Potential_Energy-OPLS-2005>
-164.172454833984

> <r_mmod_Stretch_Energy-OPLS-2005>
122.015213012695

> <r_mmod_Bend_Energy-OPLS-2005>
205.99577331543

> <r_mmod_Torsional_Energy-OPLS-2005>
272.344024658203

> <r_mmod_Improper_Torsional_Energy-OPLS-2005>
6.56859254837036

> <r_mmod_Van_der_Waal_Energy-OPLS-2005>
142.107208251953

> <r_mmod_Electrostatic_Energy-OPLS-2005>
-770.4326171875

> <r_mmod_Solvation_Energy-OPLS-2005>
-240.79280090332

> <b_mmod_Minimization_Converged-OPLS-2005>
0

> <r_mmod_RMS_Derivative-OPLS-2005>
2.69205760955811

$$$$
21
                    3D
 Structure written by MMmdl.
155165  0  0  1  0            999 V2000
  -30.7044  -14.4995   20.5668 C   0  0  0  0  0  0
  -30.4205  -12.3263   19.4259 C   0  0  0  0  0  0
  -29.4925  -12.5046   18.2072 C   0  0  0  0  0  0
  -28.0157  -12.3597   18.6226 C   0  0  0  0  0  0
  -27.6573  -13.2112   19.8701 C   0  0  2  0  0  0
  -28.7007  -13.0196   20.9936 C   0  0  0  0  0  0
  -25.2571  -13.8169   20.5683 C   0  0  0  0  0  0
  -24.1830  -13.0439   20.9182 C   0  0  0  0  0  0
  -24.6390  -11.6909   20.8739 C   0  0  0  0  0  0
  -23.9060  -10.4293   21.0406 C   0  0  0  0  0  0
  -24.3614   -9.4207   21.9182 C   0  0  0  0  0  0
  -23.6291   -8.2243   22.0753 C   0  0  0  0  0  0
  -22.4274   -8.0281   21.3543 C   0  0  0  0  0  0
  -21.9906   -9.0254   20.4647 C   0  0  0  0  0  0
  -22.7232  -10.2134   20.3056 C   0  0  0  0  0  0
  -21.6851   -6.0734   22.5278 C   0  0  0  0  0  0
  -21.4014   -6.5639   23.8211 C   0  0  0  0  0  0
  -21.3660   -5.6792   24.9175 C   0  0  0  0  0  0
  -21.6044   -4.3055   24.7225 C   0  0  0  0  0  0
  -21.8819   -3.8147   23.4347 C   0  0  0  0  0  0
  -21.9193   -4.6963   22.3403 C   0  0  0  0  0  0
  -22.7854  -13.5236   21.1845 C   0  0  0  0  0  0
  -22.1661   -4.2148   21.0980 F   0  0  0  0  0  0
  -21.5629   -3.4540   25.7739 F   0  0  0  0  0  0
  -30.0264  -13.3254   20.4331 N   0  0  0  0  0  0
  -26.3005  -12.9345   20.3352 N   0  0  0  0  0  0
  -25.9318  -11.6503   20.5765 N   0  0  0  0  0  0
  -22.0496  -12.8231   22.0404 N   0  0  0  0  0  0
  -25.4294  -15.1887   20.4088 N   0  0  0  0  0  0
  -31.8392  -14.6644   20.1117 O   0  0  0  0  0  0
  -21.6639   -6.8878   21.4241 O   0  0  0  0  0  0
  -22.3541  -14.5545   20.6697 O   0  0  0  0  0  0
  -24.6183  -31.8663   23.2090 C   0  0  0  0  0  0
  -25.9066  -32.4810   23.8388 C   0  0  1  0  0  0
  -27.2277  -27.4013   20.0982 C   0  0  0  0  0  0
  -25.5917  -33.8612   24.2318 N   0  0  0  0  0  0
  -23.4069  -30.4914   21.5508 C   0  0  2  0  0  0
  -24.8513  -28.9569   20.1130 C   0  0  0  0  0  0
  -22.7428  -29.4657   22.4982 C   0  0  0  0  0  0
  -18.0278  -28.1378   22.8495 C   0  0  0  0  0  0
  -24.1485  -36.7305   23.2627 C   0  0  0  0  0  0
  -25.9403  -30.8224   21.3666 C   0  0  0  0  0  0
  -26.0160  -29.4567   20.7090 C   0  0  0  0  0  0
  -27.2080  -28.6892   20.6932 C   0  0  0  0  0  0
  -26.0398  -26.9299   19.4904 C   0  0  0  0  0  0
  -24.8603  -27.6949   19.4988 C   0  0  0  0  0  0
  -23.6155  -29.8270   20.1647 C   0  0  0  0  0  0
  -25.4102  -36.3104   24.0335 C   0  0  1  0  0  0
  -20.5871  -28.3673   23.1311 C   0  0  2  0  0  0
  -20.6768  -26.9406   22.5416 C   0  0  0  0  0  0
  -19.5744  -26.6386   21.5215 C   0  0  0  0  0  0
  -18.1923  -26.7926   22.1623 C   0  0  0  0  0  0
  -19.1527  -28.8842   23.2899 C   0  0  0  0  0  0
  -18.9452  -30.1447   23.8911 C   0  0  0  0  0  0
  -17.6453  -30.6584   24.0568 C   0  0  0  0  0  0
  -25.9045  -34.9473   23.5124 C   0  0  0  0  0  0
  -16.5346  -29.9087   23.6327 C   0  0  0  0  0  0
  -16.7267  -28.6502   23.0354 C   0  0  0  0  0  0
  -26.4481  -31.6597   25.0726 C   0  0  0  0  0  0
  -25.3740  -31.3711   26.1470 C   0  0  0  0  0  0
  -27.0305  -30.3031   24.6121 C   0  0  0  0  0  0
  -27.6062  -32.4311   25.7482 C   0  0  0  0  0  0
  -27.5602  -37.1771   24.8436 C   0  0  0  0  0  0
  -21.4152  -29.3038   22.3715 N   0  0  0  0  0  0
  -26.4271  -37.3809   23.9448 N   0  0  0  0  0  0
  -24.6738  -31.0745   22.1000 N   0  0  0  0  0  0
  -23.4186  -28.8195   23.3031 O   0  0  0  0  0  0
  -28.3790  -26.6266   20.1301 O   0  0  0  0  0  0
  -26.5607  -34.8930   22.4686 O   0  0  0  0  0  0
  -23.5370  -32.1429   23.7471 O   0  0  0  0  0  0
  -29.7948  -21.8171   19.1658 C   0  0  0  0  0  0
  -29.5176  -22.8195   20.1254 C   0  0  0  0  0  0
  -30.0406  -20.1798   20.8257 C   0  0  0  0  0  0
  -29.7117  -21.1999   21.7802 C   0  0  0  0  0  0
  -28.4081  -24.6810   18.6621 C   0  0  0  0  0  0
  -29.6620  -17.9373   21.9435 C   0  0  0  0  0  0
  -30.7127  -17.8203   20.1609 C   0  0  0  0  0  0
  -29.3905  -24.2929   19.7507 C   0  0  1  0  0  0
  -30.6118  -16.8628   21.3683 C   0  0  0  0  0  0
  -28.1891  -25.1903   20.0628 C   0  0  1  0  0  0
  -30.0502  -20.5267   19.5096 N   0  0  0  0  0  0
  -29.4575  -22.4946   21.4383 N   0  0  0  0  0  0
  -30.5013  -18.8577   21.1742 N   0  0  0  0  0  0
  -30.0284  -15.5304   21.1144 N   0  0  0  0  0  0
  -29.7098  -20.8486   23.4727 Cl  0  0  0  0  0  0
  -31.4645  -12.4247   19.1233 H   0  0  0  0  0  0
  -30.3250  -11.3205   19.8380 H   0  0  0  0  0  0
  -29.7366  -11.7727   17.4360 H   0  0  0  0  0  0
  -29.6543  -13.4866   17.7592 H   0  0  0  0  0  0
  -27.8347  -11.3046   18.8311 H   0  0  0  0  0  0
  -27.3625  -12.6198   17.7888 H   0  0  0  0  0  0
  -27.6935  -14.2551   19.5578 H   0  0  0  0  0  0
  -28.6846  -11.9910   21.3571 H   0  0  0  0  0  0
  -28.4608  -13.6395   21.8587 H   0  0  0  0  0  0
  -25.2760   -9.5683   22.4755 H   0  0  0  0  0  0
  -24.0002   -7.4634   22.7471 H   0  0  0  0  0  0
  -21.0839   -8.8771   19.8955 H   0  0  0  0  0  0
  -22.3689  -10.9673   19.6168 H   0  0  0  0  0  0
  -21.2007   -7.6147   23.9715 H   0  0  0  0  0  0
  -21.1481   -6.0523   25.9077 H   0  0  0  0  0  0
  -22.0599   -2.7610   23.2847 H   0  0  0  0  0  0
  -22.4112  -11.9891   22.4791 H   0  0  0  0  0  0
  -21.1116  -13.1259   22.2615 H   0  0  0  0  0  0
  -24.6617  -15.8436   20.5115 H   0  0  0  0  0  0
  -26.2788  -15.6253   20.0733 H   0  0  0  0  0  0
  -26.7137  -32.5509   23.1149 H   0  0  0  0  0  0
  -25.0075  -33.9771   25.0467 H   0  0  0  0  0  0
  -22.6972  -31.3096   21.4125 H   0  0  0  0  0  0
  -23.3777  -35.9602   23.3215 H   0  0  0  0  0  0
  -24.3604  -36.9000   22.2059 H   0  0  0  0  0  0
  -23.7185  -37.6465   23.6690 H   0  0  0  0  0  0
  -26.0594  -31.5900   20.6009 H   0  0  0  0  0  0
  -26.8256  -30.8715   21.9889 H   0  0  0  0  0  0
  -28.1057  -29.0706   21.1593 H   0  0  0  0  0  0
  -26.0020  -25.9668   19.0034 H   0  0  0  0  0  0
  -23.9662  -27.3053   19.0318 H   0  0  0  0  0  0
  -23.7258  -30.6037   19.4069 H   0  0  0  0  0  0
  -22.7374  -29.2506   19.8674 H   0  0  0  0  0  0
  -25.1261  -36.1951   25.0820 H   0  0  0  0  0  0
  -20.9960  -28.3241   24.1432 H   0  0  0  0  0  0
  -20.5676  -26.2280   23.3607 H   0  0  0  0  0  0
  -21.6639  -26.7449   22.1210 H   0  0  0  0  0  0
  -19.6909  -25.6300   21.1235 H   0  0  0  0  0  0
  -19.6684  -27.3204   20.6750 H   0  0  0  0  0  0
  -17.4197  -26.6686   21.4022 H   0  0  0  0  0  0
  -18.0316  -26.0060   22.9009 H   0  0  0  0  0  0
  -19.7928  -30.7260   24.2291 H   0  0  0  0  0  0
  -17.5008  -31.6266   24.5165 H   0  0  0  0  0  0
  -15.5349  -30.2992   23.7638 H   0  0  0  0  0  0
  -15.8667  -28.0822   22.7067 H   0  0  0  0  0  0
  -24.5920  -30.7049   25.7808 H   0  0  0  0  0  0
  -24.8922  -32.2869   26.4909 H   0  0  0  0  0  0
  -25.8090  -30.8889   27.0234 H   0  0  0  0  0  0
  -26.2852  -29.6796   24.1168 H   0  0  0  0  0  0
  -27.4053  -29.7268   25.4590 H   0  0  0  0  0  0
  -27.8701  -30.4336   23.9289 H   0  0  0  0  0  0
  -27.2696  -33.3607   26.2086 H   0  0  0  0  0  0
  -28.3857  -32.6877   25.0294 H   0  0  0  0  0  0
  -28.0747  -31.8415   26.5375 H   0  0  0  0  0  0
  -28.2511  -38.0178   24.7670 H   0  0  0  0  0  0
  -28.1209  -36.2729   24.6015 H   0  0  0  0  0  0
  -27.2361  -37.1122   25.8838 H   0  0  0  0  0  0
  -20.9314  -29.8760   21.6935 H   0  0  0  0  0  0
  -26.0150  -38.2856   24.1568 H   0  0  0  0  0  0
  -29.8596  -22.0611   18.1153 H   0  0  0  0  0  0
  -27.7097  -23.9270   18.3055 H   0  0  0  0  0  0
  -28.7422  -25.3972   17.9142 H   0  0  0  0  0  0
  -29.7215  -18.0543   23.0265 H   0  0  0  0  0  0
  -28.6331  -17.8829   21.5797 H   0  0  0  0  0  0
  -29.8931  -17.7349   19.4432 H   0  0  0  0  0  0
  -31.6919  -17.8489   19.6809 H   0  0  0  0  0  0
  -30.3720  -24.7620   19.7294 H   0  0  0  0  0  0
  -31.5506  -16.8066   21.9286 H   0  0  0  0  0  0
  -27.3909  -24.7879   20.6860 H   0  0  0  0  0  0
  -29.0879  -15.3545   21.4333 H   0  0  0  0  0  0
  1 25  1  0  0  0
  1 30  2  0  0  0
  1 84  1  0  0  0
  2  3  1  0  0  0
  2 25  1  0  0  0
  2 86  1  0  0  0
  2 87  1  0  0  0
  3  4  1  0  0  0
  3 88  1  0  0  0
  3 89  1  0  0  0
  4  5  1  0  0  0
  4 90  1  0  0  0
  4 91  1  0  0  0
  5  6  1  0  0  0
  5 26  1  0  0  0
  5 92  1  0  0  0
  6 25  1  0  0  0
  6 93  1  0  0  0
  6 94  1  0  0  0
  7  8  2  0  0  0
  7 26  1  0  0  0
  7 29  1  0  0  0
  8  9  1  0  0  0
  8 22  1  0  0  0
  9 10  1  0  0  0
  9 27  2  0  0  0
 10 11  2  0  0  0
 10 15  1  0  0  0
 11 12  1  0  0  0
 11 95  1  0  0  0
 12 13  2  0  0  0
 12 96  1  0  0  0
 13 14  1  0  0  0
 13 31  1  0  0  0
 14 15  2  0  0  0
 14 97  1  0  0  0
 15 98  1  0  0  0
 16 17  2  0  0  0
 16 21  1  0  0  0
 16 31  1  0  0  0
 17 18  1  0  0  0
 17 99  1  0  0  0
 18 19  2  0  0  0
 18100  1  0  0  0
 19 20  1  0  0  0
 19 24  1  0  0  0
 20 21  2  0  0  0
 20101  1  0  0  0
 21 23  1  0  0  0
 22 28  1  0  0  0
 22 32  2  0  0  0
 26 27  1  0  0  0
 28102  1  0  0  0
 28103  1  0  0  0
 29104  1  0  0  0
 29105  1  0  0  0
 33 34  1  0  0  0
 33 66  1  0  0  0
 33 70  2  0  0  0
 34 36  1  0  0  0
 34 59  1  0  0  0
 34106  1  0  0  0
 35 44  2  0  0  0
 35 45  1  0  0  0
 35 68  1  0  0  0
 36 56  1  0  0  0
 36107  1  0  0  0
 37 39  1  0  0  0
 37 47  1  0  0  0
 37 66  1  0  0  0
 37108  1  0  0  0
 38 43  2  0  0  0
 38 46  1  0  0  0
 38 47  1  0  0  0
 39 64  1  0  0  0
 39 67  2  0  0  0
 40 52  1  0  0  0
 40 53  2  0  0  0
 40 58  1  0  0  0
 41109  1  0  0  0
 41110  1  0  0  0
 41111  1  0  0  0
 41 48  1  0  0  0
 42 43  1  0  0  0
 42 66  1  0  0  0
 42112  1  0  0  0
 42113  1  0  0  0
 43 44  1  0  0  0
 44114  1  0  0  0
 45 46  2  0  0  0
 45115  1  0  0  0
 46116  1  0  0  0
 47117  1  0  0  0
 47118  1  0  0  0
 48 56  1  0  0  0
 48 65  1  0  0  0
 48119  1  0  0  0
 49 50  1  0  0  0
 49 53  1  0  0  0
 49 64  1  0  0  0
 49120  1  0  0  0
 50 51  1  0  0  0
 50121  1  0  0  0
 50122  1  0  0  0
 51 52  1  0  0  0
 51123  1  0  0  0
 51124  1  0  0  0
 52125  1  0  0  0
 52126  1  0  0  0
 53 54  1  0  0  0
 54 55  2  0  0  0
 54127  1  0  0  0
 55 57  1  0  0  0
 55128  1  0  0  0
 56 69  2  0  0  0
 57 58  2  0  0  0
 57129  1  0  0  0
 58130  1  0  0  0
 59 60  1  0  0  0
 59 61  1  0  0  0
 59 62  1  0  0  0
 60131  1  0  0  0
 60132  1  0  0  0
 60133  1  0  0  0
 61134  1  0  0  0
 61135  1  0  0  0
 61136  1  0  0  0
 62137  1  0  0  0
 62138  1  0  0  0
 62139  1  0  0  0
 63 65  1  0  0  0
 63140  1  0  0  0
 63141  1  0  0  0
 63142  1  0  0  0
 64143  1  0  0  0
 65144  1  0  0  0
 68 80  1  0  0  0
 71 72  2  0  0  0
 71 81  1  0  0  0
 71145  1  0  0  0
 72 82  1  0  0  0
 72 78  1  0  0  0
 73 74  1  0  0  0
 73 81  2  0  0  0
 73 83  1  0  0  0
 74 82  2  0  0  0
 74 85  1  0  0  0
 75 78  1  0  0  0
 75 80  1  0  0  0
 75146  1  0  0  0
 75147  1  0  0  0
 76 79  1  0  0  0
 76 83  1  0  0  0
 76148  1  0  0  0
 76149  1  0  0  0
 77 79  1  0  0  0
 77 83  1  0  0  0
 77150  1  0  0  0
 77151  1  0  0  0
 78 80  1  0  0  0
 78152  1  0  0  0
 79 84  1  0  0  0
 79153  1  0  0  0
 80154  1  0  0  0
 84155  1  0  0  0
M  ISO  4   1 100  68 101  80 101  84 100
M  END
> <chiral flag>
0

> <version>
0

> <s_m_source_file>
/data/baiqing/PycharmProjects/Reinvent-master-3.2/result/LINK_invent/BTK/process_docking_weight1_custom_sum_contain_oxygen_bond_distance_aromatic_linkinvent_7_9_3/rearranged_h_0199.sdf

> <i_m_source_file_index>
22

> <r_mmod_Potential_Energy-OPLS-2005>
90.5441513061523

> <r_mmod_Stretch_Energy-OPLS-2005>
46.7687873840332

> <r_mmod_Bend_Energy-OPLS-2005>
157.115829467773

> <r_mmod_Torsional_Energy-OPLS-2005>
247.214492797852

> <r_mmod_Improper_Torsional_Energy-OPLS-2005>
10.878809928894

> <r_mmod_Van_der_Waal_Energy-OPLS-2005>
157.442962646484

> <r_mmod_Electrostatic_Energy-OPLS-2005>
-309.443878173828

> <r_mmod_Solvation_Energy-OPLS-2005>
-237.747680664062

> <b_mmod_Minimization_Converged-OPLS-2005>
0

> <r_mmod_RMS_Derivative-OPLS-2005>
0.441291362047195

$$$$
22
                    3D
 Structure written by MMmdl.
168177  0  0  1  0            999 V2000
  -29.8895  -14.4387   20.4023 C   0  0  0  0  0  0
  -31.0036  -12.7241   19.0805 C   0  0  0  0  0  0
  -29.9559  -12.7886   17.9739 C   0  0  0  0  0  0
  -28.6948  -12.1378   18.3946 C   0  0  0  0  0  0
  -28.1824  -12.3387   19.9124 C   0  0  2  0  0  0
  -29.5702  -12.1512   20.7680 C   0  0  0  0  0  0
  -25.4831  -13.7929   20.7504 C   0  0  0  0  0  0
  -24.1000  -13.2199   20.7948 C   0  0  0  0  0  0
  -24.2541  -11.8374   20.7860 C   0  0  0  0  0  0
  -23.6480  -10.5160   21.0109 C   0  0  0  0  0  0
  -24.1510   -9.5439   21.9254 C   0  0  0  0  0  0
  -23.5333   -8.2890   22.0676 C   0  0  0  0  0  0
  -22.3660   -8.0185   21.3233 C   0  0  0  0  0  0
  -21.8879   -8.9685   20.4070 C   0  0  0  0  0  0
  -22.5367  -10.1978   20.2335 C   0  0  0  0  0  0
  -21.6863   -6.0619   22.5232 C   0  0  0  0  0  0
  -21.4019   -6.5614   23.8126 C   0  0  0  0  0  0
  -21.3635   -5.6827   24.9128 C   0  0  0  0  0  0
  -21.6020   -4.3054   24.7242 C   0  0  0  0  0  0
  -21.8855   -3.8104   23.4395 C   0  0  0  0  0  0
  -21.9227   -4.6852   22.3430 C   0  0  0  0  0  0
  -22.7148  -13.7324   21.1366 C   0  0  0  0  0  0
  -22.1676   -4.2016   21.1020 F   0  0  0  0  0  0
  -21.5573   -3.4590   25.7793 F   0  0  0  0  0  0
  -30.3924  -13.2032   20.3009 N   0  0  0  0  0  0
  -26.0595  -12.8702   20.6760 N   0  0  0  0  0  0
  -25.1418  -12.1881   21.4797 N   0  0  0  0  0  0
  -22.0150  -12.9975   22.0012 N   0  0  0  0  0  0
  -26.5578  -15.5455   20.8592 N   0  0  0  0  0  0
  -30.7573  -15.3034   20.1707 O   0  0  0  0  0  0
  -21.6525   -6.8523   21.4056 O   0  0  0  0  0  0
  -22.2304  -14.7534   20.6764 O   0  0  0  0  0  0
  -24.6358  -31.8620   23.2160 C   0  0  0  0  0  0
  -25.9208  -32.4783   23.8449 C   0  0  1  0  0  0
  -27.0787  -27.2023   20.0925 C   0  0  0  0  0  0
  -25.6014  -33.8589   24.2341 N   0  0  0  0  0  0
  -23.4220  -30.5080   21.5620 C   0  0  2  0  0  0
  -24.8406  -28.9865   20.0941 C   0  0  0  0  0  0
  -22.7489  -29.4677   22.4923 C   0  0  0  0  0  0
  -18.0304  -28.1380   22.8486 C   0  0  0  0  0  0
  -24.1475  -36.7249   23.2636 C   0  0  0  0  0  0
  -25.9813  -30.7428   21.4167 C   0  0  0  0  0  0
  -26.0209  -29.3716   20.7441 C   0  0  0  0  0  0
  -27.1501  -28.4814   20.7564 C   0  0  0  0  0  0
  -25.9314  -26.9940   19.2993 C   0  0  0  0  0  0
  -24.8060  -27.8098   19.3540 C   0  0  0  0  0  0
  -23.6313  -29.8887   20.1631 C   0  0  0  0  0  0
  -25.4110  -36.3077   24.0335 C   0  0  1  0  0  0
  -20.5902  -28.3706   23.1238 C   0  0  2  0  0  0
  -20.6793  -26.9437   22.5365 C   0  0  0  0  0  0
  -19.5758  -26.6380   21.5187 C   0  0  0  0  0  0
  -18.1948  -26.7927   22.1620 C   0  0  0  0  0  0
  -19.1555  -28.8860   23.2857 C   0  0  0  0  0  0
  -18.9480  -30.1459   23.8876 C   0  0  0  0  0  0
  -17.6478  -30.6588   24.0554 C   0  0  0  0  0  0
  -25.9080  -34.9449   23.5127 C   0  0  0  0  0  0
  -16.5370  -29.9073   23.6338 C   0  0  0  0  0  0
  -16.7290  -28.6481   23.0381 C   0  0  0  0  0  0
  -26.4549  -31.6621   25.0847 C   0  0  0  0  0  0
  -25.3750  -31.3807   26.1553 C   0  0  0  0  0  0
  -27.0410  -30.3016   24.6406 C   0  0  0  0  0  0
  -27.6065  -32.4405   25.7634 C   0  0  0  0  0  0
  -27.5573  -37.1789   24.8465 C   0  0  0  0  0  0
  -21.4204  -29.3074   22.3645 N   0  0  0  0  0  0
  -26.4272  -37.3785   23.9432 N   0  0  0  0  0  0
  -24.7002  -31.0563   22.1179 N   0  0  0  0  0  0
  -23.4196  -28.8175   23.2980 O   0  0  0  0  0  0
  -28.0034  -26.1341   20.2101 O   0  0  0  0  0  0
  -26.5617  -34.8911   22.4674 O   0  0  0  0  0  0
  -23.5508  -32.1502   23.7427 O   0  0  0  0  0  0
  -27.1982  -11.1859   21.5435 C   0  0  0  0  0  0
  -26.3487  -11.5213   19.0282 C   0  0  0  0  0  0
  -25.2598  -15.0604   22.5134 C   0  0  0  0  0  0
  -24.7711  -15.5737   19.6813 C   0  0  2  0  0  0
  -27.4524  -13.6800   22.1865 C   0  0  2  0  0  0
  -26.8322  -14.1235   18.9444 C   0  0  1  0  0  0
  -24.9745  -21.4010   20.9813 C   0  0  0  0  0  0
  -25.0283  -17.1324   19.1727 C   0  0  0  0  0  0
  -27.5334  -23.3263   20.5660 C   0  0  0  0  0  0
  -26.0863  -19.5589   19.5246 C   0  0  0  0  0  0
  -27.5749  -24.7299   19.7528 C   0  0  0  0  0  0
  -26.3287  -20.9022   20.4435 C   0  0  1  0  0  0
  -28.4088  -14.4482   20.5051 N   0  0  0  0  0  0
  -26.9970  -22.1135   19.7957 N   0  0  0  0  0  0
  -25.4690  -18.2675   20.1220 N   0  3  0  0  0  0
  -31.8299  -13.3784   18.8012 H   0  0  0  0  0  0
  -31.4533  -11.7334   19.1678 H   0  0  0  0  0  0
  -30.3343  -12.3242   17.0639 H   0  0  0  0  0  0
  -29.7458  -13.8238   17.6969 H   0  0  0  0  0  0
  -28.8864  -11.0669   18.2907 H   0  0  0  0  0  0
  -28.0056  -12.4004   17.5881 H   0  0  0  0  0  0
  -28.5988  -12.4004   20.8115 H   0  0  0  0  0  0
  -29.9930  -11.1627   20.5046 H   0  0  0  0  0  0
  -29.8066  -12.0956   21.9017 H   0  0  0  0  0  0
  -24.9563   -9.7495   22.5975 H   0  0  0  0  0  0
  -23.9315   -7.5761   22.7760 H   0  0  0  0  0  0
  -21.0006   -8.7454   19.8279 H   0  0  0  0  0  0
  -22.1445  -10.9094   19.5196 H   0  0  0  0  0  0
  -21.2003   -7.6139   23.9530 H   0  0  0  0  0  0
  -21.1397   -6.0625   25.8988 H   0  0  0  0  0  0
  -22.0686   -2.7575   23.2927 H   0  0  0  0  0  0
  -22.4178  -12.1647   22.4076 H   0  0  0  0  0  0
  -21.0963  -13.3019   22.2868 H   0  0  0  0  0  0
  -26.3451  -15.7379   21.8319 H   0  0  0  0  0  0
  -27.5044  -15.1719   20.7919 H   0  0  0  0  0  0
  -26.7251  -32.5380   23.1158 H   0  0  0  0  0  0
  -25.0234  -33.9738   25.0535 H   0  0  0  0  0  0
  -22.7234  -31.3391   21.4424 H   0  0  0  0  0  0
  -23.3773  -35.9544   23.3303 H   0  0  0  0  0  0
  -24.3562  -36.8864   22.2048 H   0  0  0  0  0  0
  -23.7185  -37.6432   23.6655 H   0  0  0  0  0  0
  -26.1472  -31.5036   20.6528 H   0  0  0  0  0  0
  -26.8531  -30.7669   22.0572 H   0  0  0  0  0  0
  -28.0302  -28.7381   21.3307 H   0  0  0  0  0  0
  -25.8301  -26.1926   18.5906 H   0  0  0  0  0  0
  -23.9351  -27.5564   18.7635 H   0  0  0  0  0  0
  -23.7735  -30.6889   19.4365 H   0  0  0  0  0  0
  -22.7403  -29.3507   19.8359 H   0  0  0  0  0  0
  -25.1285  -36.1930   25.0826 H   0  0  0  0  0  0
  -20.9997  -28.3283   24.1354 H   0  0  0  0  0  0
  -20.5684  -26.2348   23.3577 H   0  0  0  0  0  0
  -21.6674  -26.7464   22.1178 H   0  0  0  0  0  0
  -19.6931  -25.6275   21.1254 H   0  0  0  0  0  0
  -19.6677  -27.3155   20.6686 H   0  0  0  0  0  0
  -17.4215  -26.6665   21.4030 H   0  0  0  0  0  0
  -18.0371  -26.0047   22.8997 H   0  0  0  0  0  0
  -19.7961  -30.7280   24.2232 H   0  0  0  0  0  0
  -17.5045  -31.6277   24.5153 H   0  0  0  0  0  0
  -15.5376  -30.2983   23.7673 H   0  0  0  0  0  0
  -15.8687  -28.0786   22.7137 H   0  0  0  0  0  0
  -24.5881  -30.7207   25.7895 H   0  0  0  0  0  0
  -24.8998  -32.2996   26.4992 H   0  0  0  0  0  0
  -25.8029  -30.8967   27.0337 H   0  0  0  0  0  0
  -26.3026  -29.6755   24.1381 H   0  0  0  0  0  0
  -27.3991  -29.7299   25.4981 H   0  0  0  0  0  0
  -27.8967  -30.4269   23.9768 H   0  0  0  0  0  0
  -27.2611  -33.3681   26.2221 H   0  0  0  0  0  0
  -28.3873  -32.7030   25.0483 H   0  0  0  0  0  0
  -28.0754  -31.8563   26.5565 H   0  0  0  0  0  0
  -28.2574  -38.0104   24.7576 H   0  0  0  0  0  0
  -28.1087  -36.2646   24.6225 H   0  0  0  0  0  0
  -27.2299  -37.1358   25.8865 H   0  0  0  0  0  0
  -20.9391  -29.8842   21.6890 H   0  0  0  0  0  0
  -26.0150  -38.2846   24.1476 H   0  0  0  0  0  0
  -28.0764  -10.5394   21.6248 H   0  0  0  0  0  0
  -26.6334  -10.6213   22.2692 H   0  0  0  0  0  0
  -26.7848  -10.8035   18.3283 H   0  0  0  0  0  0
  -25.3137  -11.3192   18.7683 H   0  0  0  0  0  0
  -24.4883  -14.5111   23.0577 H   0  0  0  0  0  0
  -25.4173  -15.9809   23.0857 H   0  0  0  0  0  0
  -23.8894  -15.1997   19.1605 H   0  0  0  0  0  0
  -28.0885  -13.7630   23.0691 H   0  0  0  0  0  0
  -27.1702  -14.4562   17.9617 H   0  0  0  0  0  0
  -24.4569  -20.6244   21.5445 H   0  0  0  0  0  0
  -24.3142  -21.7043   20.1678 H   0  0  0  0  0  0
  -25.0799  -22.2506   21.6556 H   0  0  0  0  0  0
  -24.1464  -17.4742   18.6297 H   0  0  0  0  0  0
  -25.8140  -17.0677   18.4168 H   0  0  0  0  0  0
  -26.9264  -23.4782   21.4591 H   0  0  0  0  0  0
  -28.5348  -23.0863   20.9261 H   0  0  0  0  0  0
  -27.0497  -19.2650   19.1062 H   0  0  0  0  0  0
  -25.4786  -19.8460   18.6657 H   0  0  0  0  0  0
  -26.5227  -24.6827   19.5202 H   0  0  0  0  0  0
  -28.0947  -24.5637   18.8092 H   0  0  0  0  0  0
  -26.9562  -20.6130   21.2878 H   0  0  0  0  0  0
  -26.4310  -22.4357   19.0147 H   0  0  0  0  0  0
  -26.1419  -17.8471   20.7459 H   0  0  0  0  0  0
  -24.6598  -18.5213   20.6642 H   0  0  0  0  0  0
  1 25  1  0  0  0
  1 30  2  0  0  0
  1 83  1  0  0  0
  2  3  1  0  0  0
  2 25  1  0  0  0
  2 86  1  0  0  0
  2 87  1  0  0  0
  3  4  1  0  0  0
  3 88  1  0  0  0
  3 89  1  0  0  0
  4  5  1  0  0  0
  4 90  1  0  0  0
  4 91  1  0  0  0
  5  6  1  0  0  0
  5 26  1  0  0  0
  5 92  1  0  0  0
  6 25  1  0  0  0
  6 93  1  0  0  0
  6 94  1  0  0  0
  7  8  2  0  0  0
  7 26  1  0  0  0
  7 29  1  0  0  0
  8  9  1  0  0  0
  8 22  1  0  0  0
  9 10  1  0  0  0
  9 27  2  0  0  0
 10 11  2  0  0  0
 10 15  1  0  0  0
 11 12  1  0  0  0
 11 95  1  0  0  0
 12 13  2  0  0  0
 12 96  1  0  0  0
 13 14  1  0  0  0
 13 31  1  0  0  0
 14 15  2  0  0  0
 14 97  1  0  0  0
 15 98  1  0  0  0
 16 17  2  0  0  0
 16 21  1  0  0  0
 16 31  1  0  0  0
 17 18  1  0  0  0
 17 99  1  0  0  0
 18 19  2  0  0  0
 18100  1  0  0  0
 19 20  1  0  0  0
 19 24  1  0  0  0
 20 21  2  0  0  0
 20101  1  0  0  0
 21 23  1  0  0  0
 22 28  1  0  0  0
 22 32  2  0  0  0
 26 27  1  0  0  0
 28102  1  0  0  0
 28103  1  0  0  0
 29104  1  0  0  0
 29105  1  0  0  0
 33 34  1  0  0  0
 33 66  1  0  0  0
 33 70  2  0  0  0
 34 36  1  0  0  0
 34 59  1  0  0  0
 34106  1  0  0  0
 35 44  2  0  0  0
 35 45  1  0  0  0
 35 68  1  0  0  0
 36 56  1  0  0  0
 36107  1  0  0  0
 37 39  1  0  0  0
 37 47  1  0  0  0
 37 66  1  0  0  0
 37108  1  0  0  0
 38 43  2  0  0  0
 38 46  1  0  0  0
 38 47  1  0  0  0
 39 64  1  0  0  0
 39 67  2  0  0  0
 40 52  1  0  0  0
 40 53  2  0  0  0
 40 58  1  0  0  0
 41109  1  0  0  0
 41110  1  0  0  0
 41111  1  0  0  0
 41 48  1  0  0  0
 42 43  1  0  0  0
 42 66  1  0  0  0
 42112  1  0  0  0
 42113  1  0  0  0
 43 44  1  0  0  0
 44114  1  0  0  0
 45 46  2  0  0  0
 45115  1  0  0  0
 46116  1  0  0  0
 47117  1  0  0  0
 47118  1  0  0  0
 48 56  1  0  0  0
 48 65  1  0  0  0
 48119  1  0  0  0
 49 50  1  0  0  0
 49 53  1  0  0  0
 49 64  1  0  0  0
 49120  1  0  0  0
 50 51  1  0  0  0
 50121  1  0  0  0
 50122  1  0  0  0
 51 52  1  0  0  0
 51123  1  0  0  0
 51124  1  0  0  0
 52125  1  0  0  0
 52126  1  0  0  0
 53 54  1  0  0  0
 54 55  2  0  0  0
 54127  1  0  0  0
 55 57  1  0  0  0
 55128  1  0  0  0
 56 69  2  0  0  0
 57 58  2  0  0  0
 57129  1  0  0  0
 58130  1  0  0  0
 59 60  1  0  0  0
 59 61  1  0  0  0
 59 62  1  0  0  0
 60131  1  0  0  0
 60132  1  0  0  0
 60133  1  0  0  0
 61134  1  0  0  0
 61135  1  0  0  0
 61136  1  0  0  0
 62137  1  0  0  0
 62138  1  0  0  0
 62139  1  0  0  0
 63 65  1  0  0  0
 63140  1  0  0  0
 63141  1  0  0  0
 63142  1  0  0  0
 64143  1  0  0  0
 65144  1  0  0  0
 68 81  1  0  0  0
 71 72  1  0  0  0
 71145  1  0  0  0
 71146  1  0  0  0
 71 75  1  0  0  0
 72147  1  0  0  0
 72148  1  0  0  0
 72 76  1  0  0  0
 73 74  1  0  0  0
 73 75  1  0  0  0
 73149  1  0  0  0
 73150  1  0  0  0
 74 76  1  0  0  0
 74 78  1  0  0  0
 74151  1  0  0  0
 75 83  1  0  0  0
 75152  1  0  0  0
 76 83  1  0  0  0
 76153  1  0  0  0
 77154  1  0  0  0
 77155  1  0  0  0
 77156  1  0  0  0
 77 82  1  0  0  0
 78 85  1  0  0  0
 78157  1  0  0  0
 78158  1  0  0  0
 79 81  1  0  0  0
 79 84  1  0  0  0
 79159  1  0  0  0
 79160  1  0  0  0
 80 82  1  0  0  0
 80 85  1  0  0  0
 80161  1  0  0  0
 80162  1  0  0  0
 81163  1  0  0  0
 81164  1  0  0  0
 82 84  1  0  0  0
 82165  1  0  0  0
 84166  1  0  0  0
 85167  1  0  0  0
 85168  1  0  0  0
M  CHG  1  85   1
M  ISO  4   1 100  68 101  81 101  83 100
M  END
> <chiral flag>
0

> <version>
0

> <s_m_source_file>
/data/baiqing/PycharmProjects/Reinvent-master-3.2/result/LINK_invent/BTK/process_docking_weight1_custom_sum_contain_oxygen_bond_distance_aromatic_linkinvent_7_9_3/rearranged_h_0199.sdf

> <i_m_source_file_index>
23

> <r_mmod_Potential_Energy-OPLS-2005>
20115.15625

> <r_mmod_Stretch_Energy-OPLS-2005>
12696.8427734375

> <r_mmod_Bend_Energy-OPLS-2005>
1087.88110351562

> <r_mmod_Torsional_Energy-OPLS-2005>
702.909790039062

> <r_mmod_Improper_Torsional_Energy-OPLS-2005>
33.891529083252

> <r_mmod_Van_der_Waal_Energy-OPLS-2005>
5096.2158203125

> <r_mmod_Electrostatic_Energy-OPLS-2005>
-270.338623046875

> <r_mmod_Solvation_Energy-OPLS-2005>
-411.677001953125

> <b_mmod_Minimization_Converged-OPLS-2005>
0

> <r_mmod_RMS_Derivative-OPLS-2005>
9.07873344421387

$$$$
23
                    3D
 Structure written by MMmdl.
163172  0  0  1  0            999 V2000
  -30.7305  -14.4182   20.5226 C   0  0  0  0  0  0
  -30.4073  -12.2500   19.4384 C   0  0  0  0  0  0
  -29.4902  -12.4738   18.2173 C   0  0  0  0  0  0
  -28.0126  -12.3482   18.6339 C   0  0  0  0  0  0
  -27.6629  -13.2001   19.8829 C   0  0  2  0  0  0
  -28.7061  -13.0002   21.0092 C   0  0  0  0  0  0
  -25.2612  -13.8137   20.5725 C   0  0  0  0  0  0
  -24.1863  -13.0427   20.9212 C   0  0  0  0  0  0
  -24.6396  -11.6886   20.8773 C   0  0  0  0  0  0
  -23.9030  -10.4310   21.0469 C   0  0  0  0  0  0
  -24.3575   -9.4210   21.9226 C   0  0  0  0  0  0
  -23.6259   -8.2237   22.0773 C   0  0  0  0  0  0
  -22.4249   -8.0285   21.3555 C   0  0  0  0  0  0
  -21.9895   -9.0269   20.4678 C   0  0  0  0  0  0
  -22.7203  -10.2152   20.3112 C   0  0  0  0  0  0
  -21.6841   -6.0743   22.5277 C   0  0  0  0  0  0
  -21.4025   -6.5649   23.8213 C   0  0  0  0  0  0
  -21.3664   -5.6796   24.9174 C   0  0  0  0  0  0
  -21.6017   -4.3057   24.7237 C   0  0  0  0  0  0
  -21.8794   -3.8157   23.4362 C   0  0  0  0  0  0
  -21.9196   -4.6978   22.3413 C   0  0  0  0  0  0
  -22.7881  -13.5253   21.1871 C   0  0  0  0  0  0
  -22.1660   -4.2162   21.1003 F   0  0  0  0  0  0
  -21.5642   -3.4528   25.7758 F   0  0  0  0  0  0
  -30.0464  -13.2511   20.4528 N   0  0  0  0  0  0
  -26.3059  -12.9285   20.3450 N   0  0  0  0  0  0
  -25.9327  -11.6451   20.5824 N   0  0  0  0  0  0
  -22.0516  -12.8252   22.0425 N   0  0  0  0  0  0
  -25.4317  -15.1851   20.4142 N   0  0  0  0  0  0
  -31.8820  -14.5622   20.1057 O   0  0  0  0  0  0
  -21.6611   -6.8887   21.4236 O   0  0  0  0  0  0
  -22.3569  -14.5559   20.6746 O   0  0  0  0  0  0
  -24.6120  -31.8675   23.2101 C   0  0  0  0  0  0
  -25.9019  -32.4800   23.8371 C   0  0  1  0  0  0
  -27.2427  -27.4805   20.0871 C   0  0  0  0  0  0
  -25.5842  -33.8579   24.2312 N   0  0  0  0  0  0
  -23.3988  -30.4882   21.5536 C   0  0  2  0  0  0
  -24.8468  -28.9660   20.1042 C   0  0  0  0  0  0
  -22.7411  -29.4620   22.5033 C   0  0  0  0  0  0
  -18.0252  -28.1390   22.8506 C   0  0  0  0  0  0
  -24.1499  -36.7379   23.2642 C   0  0  0  0  0  0
  -25.9240  -30.8463   21.3613 C   0  0  0  0  0  0
  -26.0001  -29.4860   20.7055 C   0  0  0  0  0  0
  -27.2012  -28.7505   20.6959 C   0  0  0  0  0  0
  -26.0796  -26.9651   19.4765 C   0  0  0  0  0  0
  -24.8788  -27.7010   19.4887 C   0  0  0  0  0  0
  -23.6004  -29.8166   20.1660 C   0  0  0  0  0  0
  -25.4101  -36.3110   24.0348 C   0  0  1  0  0  0
  -20.5844  -28.3647   23.1350 C   0  0  2  0  0  0
  -20.6748  -26.9388   22.5436 C   0  0  0  0  0  0
  -19.5726  -26.6390   21.5237 C   0  0  0  0  0  0
  -18.1901  -26.7931   22.1635 C   0  0  0  0  0  0
  -19.1507  -28.8829   23.2920 C   0  0  0  0  0  0
  -18.9425  -30.1445   23.8926 C   0  0  0  0  0  0
  -17.6434  -30.6581   24.0565 C   0  0  0  0  0  0
  -25.9017  -34.9467   23.5150 C   0  0  0  0  0  0
  -16.5319  -29.9114   23.6314 C   0  0  0  0  0  0
  -16.7240  -28.6524   23.0331 C   0  0  0  0  0  0
  -26.4474  -31.6517   25.0679 C   0  0  0  0  0  0
  -25.3802  -31.3670   26.1473 C   0  0  0  0  0  0
  -27.0224  -30.2917   24.6078 C   0  0  0  0  0  0
  -27.6157  -32.4175   25.7326 C   0  0  0  0  0  0
  -27.5570  -37.1827   24.8472 C   0  0  0  0  0  0
  -21.4132  -29.3016   22.3772 N   0  0  0  0  0  0
  -26.4282  -37.3782   23.9415 N   0  0  0  0  0  0
  -24.6635  -31.0819   22.0995 N   0  0  0  0  0  0
  -23.4205  -28.8133   23.3032 O   0  0  0  0  0  0
  -28.3868  -26.7236   20.0982 O   0  0  0  0  0  0
  -26.5605  -34.8959   22.4734 O   0  0  0  0  0  0
  -23.5311  -32.1412   23.7511 O   0  0  0  0  0  0
  -32.1813  -21.8683   20.2444 C   0  0  0  0  0  0
  -32.0186  -20.4689   20.1978 C   0  0  0  0  0  0
  -31.0150  -22.6488   20.1382 C   0  0  0  0  0  0
  -30.7198  -19.9331   20.0306 C   0  0  0  0  0  0
  -31.3662  -17.5266   20.0867 C   0  0  0  0  0  0
  -29.3247  -17.9024   20.3390 C   0  0  0  0  0  0
  -30.1055  -16.6588   19.8993 C   0  0  0  0  0  0
  -31.0599  -24.1595   20.0203 C   0  0  0  0  0  0
  -31.4821  -24.8556   21.3229 C   0  0  0  0  0  0
  -30.0419  -26.8467   21.9127 C   0  0  0  0  0  0
  -28.7210  -26.2328   21.4022 C   0  0  0  0  0  0
  -29.7835  -22.0927   20.0939 N   0  0  0  0  0  0
  -29.6476  -20.7655   20.0314 N   0  0  0  0  0  0
  -30.4460  -18.5858   19.7015 N   0  0  0  0  0  0
  -29.9726  -15.4909   20.7681 N   0  0  0  0  0  0
  -31.2741  -26.3221   21.2649 N   0  3  0  0  0  0
  -31.4573  -12.3040   19.1453 H   0  0  0  0  0  0
  -30.2607  -11.2467   19.8400 H   0  0  0  0  0  0
  -29.7166  -11.7457   17.4348 H   0  0  0  0  0  0
  -29.6692  -13.4593   17.7860 H   0  0  0  0  0  0
  -27.8214  -11.2943   18.8417 H   0  0  0  0  0  0
  -27.3556  -12.6147   17.8043 H   0  0  0  0  0  0
  -27.6982  -14.2436   19.5704 H   0  0  0  0  0  0
  -28.6579  -11.9837   21.3996 H   0  0  0  0  0  0
  -28.4882  -13.6476   21.8600 H   0  0  0  0  0  0
  -25.2740   -9.5655   22.4762 H   0  0  0  0  0  0
  -23.9982   -7.4619   22.7462 H   0  0  0  0  0  0
  -21.0837   -8.8774   19.8968 H   0  0  0  0  0  0
  -22.3683  -10.9689   19.6217 H   0  0  0  0  0  0
  -21.2001   -7.6157   23.9715 H   0  0  0  0  0  0
  -21.1515   -6.0549   25.9073 H   0  0  0  0  0  0
  -22.0572   -2.7630   23.2855 H   0  0  0  0  0  0
  -22.4101  -11.9902   22.4798 H   0  0  0  0  0  0
  -21.1169  -13.1323   22.2698 H   0  0  0  0  0  0
  -24.6552  -15.8295   20.5230 H   0  0  0  0  0  0
  -26.2728  -15.6287   20.0664 H   0  0  0  0  0  0
  -26.7096  -32.5485   23.1136 H   0  0  0  0  0  0
  -24.9871  -33.9727   25.0383 H   0  0  0  0  0  0
  -22.6862  -31.3023   21.4167 H   0  0  0  0  0  0
  -23.3711  -35.9763   23.3295 H   0  0  0  0  0  0
  -24.3611  -36.8988   22.2067 H   0  0  0  0  0  0
  -23.7347  -37.6630   23.6656 H   0  0  0  0  0  0
  -26.0435  -31.6193   20.6000 H   0  0  0  0  0  0
  -26.8129  -30.8874   21.9793 H   0  0  0  0  0  0
  -28.0865  -29.1596   21.1593 H   0  0  0  0  0  0
  -26.0943  -25.9896   19.0098 H   0  0  0  0  0  0
  -23.9927  -27.2945   19.0186 H   0  0  0  0  0  0
  -23.6845  -30.5917   19.4040 H   0  0  0  0  0  0
  -22.7291  -29.2201   19.8812 H   0  0  0  0  0  0
  -25.1274  -36.1961   25.0842 H   0  0  0  0  0  0
  -20.9913  -28.3219   24.1473 H   0  0  0  0  0  0
  -20.5647  -26.2274   23.3627 H   0  0  0  0  0  0
  -21.6624  -26.7432   22.1219 H   0  0  0  0  0  0
  -19.6881  -25.6312   21.1243 H   0  0  0  0  0  0
  -19.6670  -27.3224   20.6793 H   0  0  0  0  0  0
  -17.4179  -26.6691   21.4026 H   0  0  0  0  0  0
  -18.0250  -26.0086   22.9029 H   0  0  0  0  0  0
  -19.7896  -30.7250   24.2334 H   0  0  0  0  0  0
  -17.4976  -31.6237   24.5204 H   0  0  0  0  0  0
  -15.5322  -30.3001   23.7638 H   0  0  0  0  0  0
  -15.8646  -28.0848   22.7043 H   0  0  0  0  0  0
  -24.5938  -30.7059   25.7869 H   0  0  0  0  0  0
  -24.9067  -32.2858   26.4968 H   0  0  0  0  0  0
  -25.8170  -30.8844   27.0232 H   0  0  0  0  0  0
  -26.2703  -29.6724   24.1183 H   0  0  0  0  0  0
  -27.3953  -29.7117   25.4526 H   0  0  0  0  0  0
  -27.8581  -30.4112   23.9220 H   0  0  0  0  0  0
  -27.2975  -33.3651   26.1683 H   0  0  0  0  0  0
  -28.4010  -32.6371   25.0100 H   0  0  0  0  0  0
  -28.0713  -31.8365   26.5351 H   0  0  0  0  0  0
  -28.2586  -38.0130   24.7462 H   0  0  0  0  0  0
  -28.1069  -36.2649   24.6330 H   0  0  0  0  0  0
  -27.2280  -37.1496   25.8874 H   0  0  0  0  0  0
  -20.9323  -29.8745   21.6972 H   0  0  0  0  0  0
  -26.0172  -38.2853   24.1375 H   0  0  0  0  0  0
  -33.1612  -22.3167   20.3133 H   0  0  0  0  0  0
  -32.8933  -19.8340   20.2179 H   0  0  0  0  0  0
  -32.1697  -17.3372   19.3710 H   0  0  0  0  0  0
  -31.7248  -17.6080   21.1154 H   0  0  0  0  0  0
  -29.2820  -18.0491   21.4217 H   0  0  0  0  0  0
  -28.3542  -18.0329   19.8543 H   0  0  0  0  0  0
  -29.9244  -16.4126   18.8472 H   0  0  0  0  0  0
  -30.0815  -24.5084   19.6896 H   0  0  0  0  0  0
  -31.7417  -24.4239   19.2117 H   0  0  0  0  0  0
  -32.5457  -24.6668   21.4772 H   0  0  0  0  0  0
  -30.9746  -24.4274   22.1881 H   0  0  0  0  0  0
  -30.1169  -26.6689   22.9847 H   0  0  0  0  0  0
  -30.0154  -27.9304   21.7919 H   0  0  0  0  0  0
  -27.9375  -26.4643   22.1264 H   0  0  0  0  0  0
  -28.7515  -25.1441   21.3832 H   0  0  0  0  0  0
  -29.0540  -15.3059   21.1475 H   0  0  0  0  0  0
  -31.3321  -26.6381   20.3108 H   0  0  0  0  0  0
  -32.0488  -26.7425   21.7550 H   0  0  0  0  0  0
  1 25  1  0  0  0
  1 30  2  0  0  0
  1 85  1  0  0  0
  2  3  1  0  0  0
  2 25  1  0  0  0
  2 87  1  0  0  0
  2 88  1  0  0  0
  3  4  1  0  0  0
  3 89  1  0  0  0
  3 90  1  0  0  0
  4  5  1  0  0  0
  4 91  1  0  0  0
  4 92  1  0  0  0
  5  6  1  0  0  0
  5 26  1  0  0  0
  5 93  1  0  0  0
  6 25  1  0  0  0
  6 94  1  0  0  0
  6 95  1  0  0  0
  7  8  2  0  0  0
  7 26  1  0  0  0
  7 29  1  0  0  0
  8  9  1  0  0  0
  8 22  1  0  0  0
  9 10  1  0  0  0
  9 27  2  0  0  0
 10 11  2  0  0  0
 10 15  1  0  0  0
 11 12  1  0  0  0
 11 96  1  0  0  0
 12 13  2  0  0  0
 12 97  1  0  0  0
 13 14  1  0  0  0
 13 31  1  0  0  0
 14 15  2  0  0  0
 14 98  1  0  0  0
 15 99  1  0  0  0
 16 17  2  0  0  0
 16 21  1  0  0  0
 16 31  1  0  0  0
 17 18  1  0  0  0
 17100  1  0  0  0
 18 19  2  0  0  0
 18101  1  0  0  0
 19 20  1  0  0  0
 19 24  1  0  0  0
 20 21  2  0  0  0
 20102  1  0  0  0
 21 23  1  0  0  0
 22 28  1  0  0  0
 22 32  2  0  0  0
 26 27  1  0  0  0
 28103  1  0  0  0
 28104  1  0  0  0
 29105  1  0  0  0
 29106  1  0  0  0
 33 34  1  0  0  0
 33 66  1  0  0  0
 33 70  2  0  0  0
 34 36  1  0  0  0
 34 59  1  0  0  0
 34107  1  0  0  0
 35 44  2  0  0  0
 35 45  1  0  0  0
 35 68  1  0  0  0
 36 56  1  0  0  0
 36108  1  0  0  0
 37 39  1  0  0  0
 37 47  1  0  0  0
 37 66  1  0  0  0
 37109  1  0  0  0
 38 43  2  0  0  0
 38 46  1  0  0  0
 38 47  1  0  0  0
 39 64  1  0  0  0
 39 67  2  0  0  0
 40 52  1  0  0  0
 40 53  2  0  0  0
 40 58  1  0  0  0
 41110  1  0  0  0
 41111  1  0  0  0
 41112  1  0  0  0
 41 48  1  0  0  0
 42 43  1  0  0  0
 42 66  1  0  0  0
 42113  1  0  0  0
 42114  1  0  0  0
 43 44  1  0  0  0
 44115  1  0  0  0
 45 46  2  0  0  0
 45116  1  0  0  0
 46117  1  0  0  0
 47118  1  0  0  0
 47119  1  0  0  0
 48 56  1  0  0  0
 48 65  1  0  0  0
 48120  1  0  0  0
 49 50  1  0  0  0
 49 53  1  0  0  0
 49 64  1  0  0  0
 49121  1  0  0  0
 50 51  1  0  0  0
 50122  1  0  0  0
 50123  1  0  0  0
 51 52  1  0  0  0
 51124  1  0  0  0
 51125  1  0  0  0
 52126  1  0  0  0
 52127  1  0  0  0
 53 54  1  0  0  0
 54 55  2  0  0  0
 54128  1  0  0  0
 55 57  1  0  0  0
 55129  1  0  0  0
 56 69  2  0  0  0
 57 58  2  0  0  0
 57130  1  0  0  0
 58131  1  0  0  0
 59 60  1  0  0  0
 59 61  1  0  0  0
 59 62  1  0  0  0
 60132  1  0  0  0
 60133  1  0  0  0
 60134  1  0  0  0
 61135  1  0  0  0
 61136  1  0  0  0
 61137  1  0  0  0
 62138  1  0  0  0
 62139  1  0  0  0
 62140  1  0  0  0
 63 65  1  0  0  0
 63141  1  0  0  0
 63142  1  0  0  0
 63143  1  0  0  0
 64144  1  0  0  0
 65145  1  0  0  0
 68 81  1  0  0  0
 71 72  2  0  0  0
 71 73  1  0  0  0
 71146  1  0  0  0
 72 74  1  0  0  0
 72147  1  0  0  0
 73 78  1  0  0  0
 73 82  2  0  0  0
 74 83  2  0  0  0
 74 84  1  0  0  0
 75 77  1  0  0  0
 75 84  1  0  0  0
 75148  1  0  0  0
 75149  1  0  0  0
 76 77  1  0  0  0
 76 84  1  0  0  0
 76150  1  0  0  0
 76151  1  0  0  0
 77 85  1  0  0  0
 77152  1  0  0  0
 78 79  1  0  0  0
 78153  1  0  0  0
 78154  1  0  0  0
 79 86  1  0  0  0
 79155  1  0  0  0
 79156  1  0  0  0
 80 81  1  0  0  0
 80 86  1  0  0  0
 80157  1  0  0  0
 80158  1  0  0  0
 81159  1  0  0  0
 81160  1  0  0  0
 82 83  1  0  0  0
 85161  1  0  0  0
 86162  1  0  0  0
 86163  1  0  0  0
M  CHG  1  86   1
M  ISO  4   1 100  68 101  81 101  85 100
M  END
> <chiral flag>
0

> <version>
0

> <s_m_source_file>
/data/baiqing/PycharmProjects/Reinvent-master-3.2/result/LINK_invent/BTK/process_docking_weight1_custom_sum_contain_oxygen_bond_distance_aromatic_linkinvent_7_9_3/rearranged_h_0199.sdf

> <i_m_source_file_index>
24

> <r_mmod_Potential_Energy-OPLS-2005>
-194.428482055664

> <r_mmod_Stretch_Energy-OPLS-2005>
32.5508346557617

> <r_mmod_Bend_Energy-OPLS-2005>
147.186981201172

> <r_mmod_Torsional_Energy-OPLS-2005>
292.656280517578

> <r_mmod_Improper_Torsional_Energy-OPLS-2005>
18.6920604705811

> <r_mmod_Van_der_Waal_Energy-OPLS-2005>
159.727020263672

> <r_mmod_Electrostatic_Energy-OPLS-2005>
-353.338806152344

> <r_mmod_Solvation_Energy-OPLS-2005>
-504.91357421875

> <b_mmod_Minimization_Converged-OPLS-2005>
0

> <r_mmod_RMS_Derivative-OPLS-2005>
5.63563919067383

$$$$
24
                    3D
 Structure written by MMmdl.
170180  0  0  1  0            999 V2000
  -30.7323  -14.3736   20.6730 C   0  0  0  0  0  0
  -30.4263  -12.2882   19.3906 C   0  0  0  0  0  0
  -29.4870  -12.5282   18.1922 C   0  0  0  0  0  0
  -28.0089  -12.3858   18.6063 C   0  0  0  0  0  0
  -27.6690  -13.1967   19.8842 C   0  0  2  0  0  0
  -28.7062  -12.9099   20.9923 C   0  0  0  0  0  0
  -25.2622  -13.8151   20.5660 C   0  0  0  0  0  0
  -24.1859  -13.0440   20.9156 C   0  0  0  0  0  0
  -24.6398  -11.6895   20.8736 C   0  0  0  0  0  0
  -23.9070  -10.4289   21.0416 C   0  0  0  0  0  0
  -24.3621   -9.4203   21.9191 C   0  0  0  0  0  0
  -23.6293   -8.2239   22.0758 C   0  0  0  0  0  0
  -22.4274   -8.0284   21.3547 C   0  0  0  0  0  0
  -21.9912   -9.0258   20.4649 C   0  0  0  0  0  0
  -22.7246  -10.2139   20.3060 C   0  0  0  0  0  0
  -21.6850   -6.0742   22.5281 C   0  0  0  0  0  0
  -21.4006   -6.5640   23.8213 C   0  0  0  0  0  0
  -21.3660   -5.6793   24.9175 C   0  0  0  0  0  0
  -21.6049   -4.3057   24.7224 C   0  0  0  0  0  0
  -21.8817   -3.8152   23.4339 C   0  0  0  0  0  0
  -21.9190   -4.6973   22.3395 C   0  0  0  0  0  0
  -22.7880  -13.5248   21.1825 C   0  0  0  0  0  0
  -22.1660   -4.2158   21.0974 F   0  0  0  0  0  0
  -21.5638   -3.4539   25.7737 F   0  0  0  0  0  0
  -30.0488  -13.2205   20.4615 N   0  0  0  0  0  0
  -26.3058  -12.9296   20.3392 N   0  0  0  0  0  0
  -25.9323  -11.6463   20.5764 N   0  0  0  0  0  0
  -22.0517  -12.8242   22.0380 N   0  0  0  0  0  0
  -25.4357  -15.1863   20.4064 N   0  0  0  0  0  0
  -31.7565  -14.6799   20.0566 O   0  0  0  0  0  0
  -21.6627   -6.8883   21.4243 O   0  0  0  0  0  0
  -22.3561  -14.5558   20.6686 O   0  0  0  0  0  0
  -24.6126  -31.8684   23.2109 C   0  0  0  0  0  0
  -25.9030  -32.4820   23.8393 C   0  0  1  0  0  0
  -27.2328  -27.4505   20.0814 C   0  0  0  0  0  0
  -25.5902  -33.8620   24.2318 N   0  0  0  0  0  0
  -23.3994  -30.4940   21.5508 C   0  0  2  0  0  0
  -24.8421  -28.9593   20.1188 C   0  0  0  0  0  0
  -22.7399  -29.4663   22.4986 C   0  0  0  0  0  0
  -18.0274  -28.1364   22.8470 C   0  0  0  0  0  0
  -24.1492  -36.7313   23.2642 C   0  0  0  0  0  0
  -25.9276  -30.8369   21.3636 C   0  0  0  0  0  0
  -26.0027  -29.4730   20.7105 C   0  0  0  0  0  0
  -27.2005  -28.7272   20.6852 C   0  0  0  0  0  0
  -26.0520  -26.9472   19.4882 C   0  0  0  0  0  0
  -24.8610  -27.6946   19.5072 C   0  0  0  0  0  0
  -23.6060  -29.8267   20.1657 C   0  0  0  0  0  0
  -25.4110  -36.3102   24.0339 C   0  0  1  0  0  0
  -20.5862  -28.3649   23.1311 C   0  0  2  0  0  0
  -20.6754  -26.9385   22.5412 C   0  0  0  0  0  0
  -19.5741  -26.6374   21.5197 C   0  0  0  0  0  0
  -18.1919  -26.7911   22.1602 C   0  0  0  0  0  0
  -19.1519  -28.8822   23.2889 C   0  0  0  0  0  0
  -18.9457  -30.1429   23.8905 C   0  0  0  0  0  0
  -17.6461  -30.6567   24.0566 C   0  0  0  0  0  0
  -25.9035  -34.9469   23.5124 C   0  0  0  0  0  0
  -16.5349  -29.9069   23.6329 C   0  0  0  0  0  0
  -16.7263  -28.6498   23.0324 C   0  0  0  0  0  0
  -26.4458  -31.6603   25.0727 C   0  0  0  0  0  0
  -25.3730  -31.3734   26.1492 C   0  0  0  0  0  0
  -27.0289  -30.3050   24.6102 C   0  0  0  0  0  0
  -27.6038  -32.4331   25.7481 C   0  0  0  0  0  0
  -27.5577  -37.1812   24.8462 C   0  0  0  0  0  0
  -21.4131  -29.3031   22.3735 N   0  0  0  0  0  0
  -26.4295  -37.3782   23.9407 N   0  0  0  0  0  0
  -24.6646  -31.0807   22.0994 N   0  0  0  0  0  0
  -23.4196  -28.8184   23.2992 O   0  0  0  0  0  0
  -28.4250  -26.7638   20.0352 O   0  0  0  0  0  0
  -26.5591  -34.8921   22.4679 O   0  0  0  0  0  0
  -23.5330  -32.1411   23.7525 O   0  0  0  0  0  0
  -33.2442  -21.0766   20.7667 C   0  0  0  0  0  0
  -33.4718  -19.7425   21.4823 C   0  0  0  0  0  0
  -29.8287  -24.5772   18.2951 C   0  0  0  0  0  0
  -30.5101  -23.2184   18.0488 C   0  0  0  0  0  0
  -29.9000  -23.2787   20.3289 C   0  0  0  0  0  0
  -30.2879  -17.6317   20.9044 C   0  0  0  0  0  0
  -31.9253  -17.0592   21.9985 C   0  0  0  0  0  0
  -31.7501  -20.7123   20.6585 C   0  0  2  0  0  0
  -29.7028  -24.7128   19.8224 C   0  0  2  0  0  0
  -30.4765  -16.5647   21.9788 C   0  0  2  0  0  0
  -32.2070  -19.2343   20.7720 C   0  0  2  0  0  0
  -30.9656  -21.1888   19.4280 C   0  0  0  0  0  0
  -28.3890  -25.3599   20.2970 C   0  0  0  0  0  0
  -30.1788  -15.1766   21.5940 N   0  0  0  0  0  0
  -31.3504  -18.3594   21.6141 N   0  3  1  0  0  0
  -30.8527  -22.6696   19.3780 N   0  3  1  0  0  0
  -31.4680  -12.4060   19.0847 H   0  0  0  0  0  0
  -30.3388  -11.2605   19.7471 H   0  0  0  0  0  0
  -29.7189  -11.8304   17.3870 H   0  0  0  0  0  0
  -29.6573  -13.5282   17.7899 H   0  0  0  0  0  0
  -27.8077  -11.3272   18.7744 H   0  0  0  0  0  0
  -27.3589  -12.6903   17.7855 H   0  0  0  0  0  0
  -27.7338  -14.2540   19.6264 H   0  0  0  0  0  0
  -28.6711  -11.8559   21.2727 H   0  0  0  0  0  0
  -28.4514  -13.4479   21.9059 H   0  0  0  0  0  0
  -25.2771   -9.5668   22.4760 H   0  0  0  0  0  0
  -24.0007   -7.4627   22.7470 H   0  0  0  0  0  0
  -21.0848   -8.8786   19.8943 H   0  0  0  0  0  0
  -22.3723  -10.9683   19.6163 H   0  0  0  0  0  0
  -21.1991   -7.6151   23.9715 H   0  0  0  0  0  0
  -21.1488   -6.0525   25.9078 H   0  0  0  0  0  0
  -22.0599   -2.7616   23.2833 H   0  0  0  0  0  0
  -22.4126  -11.9892   22.4747 H   0  0  0  0  0  0
  -21.1131  -13.1259   22.2588 H   0  0  0  0  0  0
  -24.6704  -15.8446   20.5105 H   0  0  0  0  0  0
  -26.2946  -15.6230   20.0956 H   0  0  0  0  0  0
  -26.7100  -32.5534   23.1156 H   0  0  0  0  0  0
  -25.0084  -33.9782   25.0486 H   0  0  0  0  0  0
  -22.6869  -31.3099   21.4114 H   0  0  0  0  0  0
  -23.3749  -35.9650   23.3309 H   0  0  0  0  0  0
  -24.3597  -36.8925   22.2056 H   0  0  0  0  0  0
  -23.7249  -37.6525   23.6654 H   0  0  0  0  0  0
  -26.0412  -31.6049   20.5972 H   0  0  0  0  0  0
  -26.8150  -30.8861   21.9822 H   0  0  0  0  0  0
  -28.1021  -29.1272   21.1287 H   0  0  0  0  0  0
  -26.0364  -25.9973   18.9753 H   0  0  0  0  0  0
  -23.9708  -27.2967   19.0391 H   0  0  0  0  0  0
  -23.7131  -30.5994   19.4029 H   0  0  0  0  0  0
  -22.7307  -29.2452   19.8710 H   0  0  0  0  0  0
  -25.1291  -36.1969   25.0834 H   0  0  0  0  0  0
  -20.9952  -28.3201   24.1423 H   0  0  0  0  0  0
  -20.5618  -26.2262   23.3597 H   0  0  0  0  0  0
  -21.6632  -26.7382   22.1235 H   0  0  0  0  0  0
  -19.6907  -25.6283   21.1224 H   0  0  0  0  0  0
  -19.6697  -27.3189   20.6729 H   0  0  0  0  0  0
  -17.4189  -26.6653   21.4007 H   0  0  0  0  0  0
  -18.0320  -26.0042   22.8988 H   0  0  0  0  0  0
  -19.7935  -30.7244   24.2277 H   0  0  0  0  0  0
  -17.5017  -31.6252   24.5157 H   0  0  0  0  0  0
  -15.5358  -30.2980   23.7652 H   0  0  0  0  0  0
  -15.8656  -28.0850   22.6996 H   0  0  0  0  0  0
  -24.5900  -30.7069   25.7861 H   0  0  0  0  0  0
  -24.8924  -32.2904   26.4921 H   0  0  0  0  0  0
  -25.8093  -30.8936   27.0264 H   0  0  0  0  0  0
  -26.2825  -29.6827   24.1152 H   0  0  0  0  0  0
  -27.4064  -29.7280   25.4555 H   0  0  0  0  0  0
  -27.8656  -30.4386   23.9240 H   0  0  0  0  0  0
  -27.2654  -33.3637   26.2054 H   0  0  0  0  0  0
  -28.3839  -32.6888   25.0297 H   0  0  0  0  0  0
  -28.0705  -31.8461   26.5400 H   0  0  0  0  0  0
  -28.2600  -38.0095   24.7496 H   0  0  0  0  0  0
  -28.1068  -36.2637   24.6308 H   0  0  0  0  0  0
  -27.2311  -37.1491   25.8867 H   0  0  0  0  0  0
  -20.9278  -29.8811   21.7010 H   0  0  0  0  0  0
  -26.0189  -38.2870   24.1392 H   0  0  0  0  0  0
  -33.7479  -21.1239   19.7983 H   0  0  0  0  0  0
  -33.4620  -21.9576   21.3718 H   0  0  0  0  0  0
  -33.3706  -19.8279   22.5666 H   0  0  0  0  0  0
  -34.3928  -19.2274   21.2054 H   0  0  0  0  0  0
  -28.8527  -24.5941   17.8080 H   0  0  0  0  0  0
  -30.4101  -25.3982   17.8748 H   0  0  0  0  0  0
  -31.3989  -23.3082   17.4234 H   0  0  0  0  0  0
  -29.8157  -22.5509   17.5351 H   0  0  0  0  0  0
  -28.9528  -22.7375   20.2973 H   0  0  0  0  0  0
  -30.2648  -23.2530   21.3560 H   0  0  0  0  0  0
  -29.3239  -18.1403   20.9214 H   0  0  0  0  0  0
  -30.5678  -17.3181   19.8958 H   0  0  0  0  0  0
  -32.5961  -16.6598   21.2377 H   0  0  0  0  0  0
  -32.3942  -17.0666   22.9828 H   0  0  0  0  0  0
  -31.2499  -21.0115   21.5828 H   0  0  0  0  0  0
  -30.5423  -25.3092   20.1859 H   0  0  0  0  0  0
  -29.9555  -16.8359   22.9019 H   0  0  0  0  0  0
  -32.4486  -18.7901   19.8033 H   0  0  0  0  0  0
  -29.9707  -20.7417   19.4025 H   0  0  0  0  0  0
  -31.4707  -20.8465   18.5230 H   0  0  0  0  0  0
  -28.2714  -25.2214   21.3725 H   0  0  0  0  0  0
  -27.5575  -24.8399   19.8261 H   0  0  0  0  0  0
  -29.3678  -14.7722   22.0390 H   0  0  0  0  0  0
  -30.9798  -18.8259   22.4286 H   0  0  0  0  0  0
  -31.7636  -23.0450   19.5979 H   0  0  0  0  0  0
  1 25  1  0  0  0
  1 30  2  0  0  0
  1 84  1  0  0  0
  2  3  1  0  0  0
  2 25  1  0  0  0
  2 87  1  0  0  0
  2 88  1  0  0  0
  3  4  1  0  0  0
  3 89  1  0  0  0
  3 90  1  0  0  0
  4  5  1  0  0  0
  4 91  1  0  0  0
  4 92  1  0  0  0
  5  6  1  0  0  0
  5 26  1  0  0  0
  5 93  1  0  0  0
  6 25  1  0  0  0
  6 94  1  0  0  0
  6 95  1  0  0  0
  7  8  2  0  0  0
  7 26  1  0  0  0
  7 29  1  0  0  0
  8  9  1  0  0  0
  8 22  1  0  0  0
  9 10  1  0  0  0
  9 27  2  0  0  0
 10 11  2  0  0  0
 10 15  1  0  0  0
 11 12  1  0  0  0
 11 96  1  0  0  0
 12 13  2  0  0  0
 12 97  1  0  0  0
 13 14  1  0  0  0
 13 31  1  0  0  0
 14 15  2  0  0  0
 14 98  1  0  0  0
 15 99  1  0  0  0
 16 17  2  0  0  0
 16 21  1  0  0  0
 16 31  1  0  0  0
 17 18  1  0  0  0
 17100  1  0  0  0
 18 19  2  0  0  0
 18101  1  0  0  0
 19 20  1  0  0  0
 19 24  1  0  0  0
 20 21  2  0  0  0
 20102  1  0  0  0
 21 23  1  0  0  0
 22 28  1  0  0  0
 22 32  2  0  0  0
 26 27  1  0  0  0
 28103  1  0  0  0
 28104  1  0  0  0
 29105  1  0  0  0
 29106  1  0  0  0
 33 34  1  0  0  0
 33 66  1  0  0  0
 33 70  2  0  0  0
 34 36  1  0  0  0
 34 59  1  0  0  0
 34107  1  0  0  0
 35 44  2  0  0  0
 35 45  1  0  0  0
 35 68  1  0  0  0
 36 56  1  0  0  0
 36108  1  0  0  0
 37 39  1  0  0  0
 37 47  1  0  0  0
 37 66  1  0  0  0
 37109  1  0  0  0
 38 43  2  0  0  0
 38 46  1  0  0  0
 38 47  1  0  0  0
 39 64  1  0  0  0
 39 67  2  0  0  0
 40 52  1  0  0  0
 40 53  2  0  0  0
 40 58  1  0  0  0
 41110  1  0  0  0
 41111  1  0  0  0
 41112  1  0  0  0
 41 48  1  0  0  0
 42 43  1  0  0  0
 42 66  1  0  0  0
 42113  1  0  0  0
 42114  1  0  0  0
 43 44  1  0  0  0
 44115  1  0  0  0
 45 46  2  0  0  0
 45116  1  0  0  0
 46117  1  0  0  0
 47118  1  0  0  0
 47119  1  0  0  0
 48 56  1  0  0  0
 48 65  1  0  0  0
 48120  1  0  0  0
 49 50  1  0  0  0
 49 53  1  0  0  0
 49 64  1  0  0  0
 49121  1  0  0  0
 50 51  1  0  0  0
 50122  1  0  0  0
 50123  1  0  0  0
 51 52  1  0  0  0
 51124  1  0  0  0
 51125  1  0  0  0
 52126  1  0  0  0
 52127  1  0  0  0
 53 54  1  0  0  0
 54 55  2  0  0  0
 54128  1  0  0  0
 55 57  1  0  0  0
 55129  1  0  0  0
 56 69  2  0  0  0
 57 58  2  0  0  0
 57130  1  0  0  0
 58131  1  0  0  0
 59 60  1  0  0  0
 59 61  1  0  0  0
 59 62  1  0  0  0
 60132  1  0  0  0
 60133  1  0  0  0
 60134  1  0  0  0
 61135  1  0  0  0
 61136  1  0  0  0
 61137  1  0  0  0
 62138  1  0  0  0
 62139  1  0  0  0
 62140  1  0  0  0
 63 65  1  0  0  0
 63141  1  0  0  0
 63142  1  0  0  0
 63143  1  0  0  0
 64144  1  0  0  0
 65145  1  0  0  0
 68 83  1  0  0  0
 71 72  1  0  0  0
 71 78  1  0  0  0
 71146  1  0  0  0
 71147  1  0  0  0
 72148  1  0  0  0
 72149  1  0  0  0
 72 81  1  0  0  0
 73 74  1  0  0  0
 73 79  1  0  0  0
 73150  1  0  0  0
 73151  1  0  0  0
 74 86  1  0  0  0
 74152  1  0  0  0
 74153  1  0  0  0
 75 79  1  0  0  0
 75 86  1  0  0  0
 75154  1  0  0  0
 75155  1  0  0  0
 76 80  1  0  0  0
 76156  1  0  0  0
 76157  1  0  0  0
 76 85  1  0  0  0
 77 80  1  0  0  0
 77 85  1  0  0  0
 77158  1  0  0  0
 77159  1  0  0  0
 78 81  1  0  0  0
 78 82  1  0  0  0
 78160  1  0  0  0
 79 83  1  0  0  0
 79161  1  0  0  0
 80 84  1  0  0  0
 80162  1  0  0  0
 81 85  1  0  0  0
 81163  1  0  0  0
 82164  1  0  0  0
 82165  1  0  0  0
 82 86  1  0  0  0
 83166  1  0  0  0
 83167  1  0  0  0
 84168  1  0  0  0
 85169  1  0  0  0
 86170  1  0  0  0
M  CHG  2  85   1  86   1
M  ISO  4   1 100  68 101  83 101  84 100
M  END
> <chiral flag>
0

> <version>
0

> <s_m_source_file>
/data/baiqing/PycharmProjects/Reinvent-master-3.2/result/LINK_invent/BTK/process_docking_weight1_custom_sum_contain_oxygen_bond_distance_aromatic_linkinvent_7_9_3/rearranged_h_0199.sdf

> <i_m_source_file_index>
25

> <r_mmod_Potential_Energy-OPLS-2005>
-172.352981567383

> <r_mmod_Stretch_Energy-OPLS-2005>
33.821907043457

> <r_mmod_Bend_Energy-OPLS-2005>
167.07551574707

> <r_mmod_Torsional_Energy-OPLS-2005>
337.764404296875

> <r_mmod_Improper_Torsional_Energy-OPLS-2005>
2.06669116020203

> <r_mmod_Van_der_Waal_Energy-OPLS-2005>
134.945053100586

> <r_mmod_Electrostatic_Energy-OPLS-2005>
90.240104675293

> <r_mmod_Solvation_Energy-OPLS-2005>
-945.854309082031

> <b_mmod_Minimization_Converged-OPLS-2005>
0

> <r_mmod_RMS_Derivative-OPLS-2005>
1.74839663505554

$$$$
25
                    3D
 Structure written by MMmdl.
149158  0  0  1  0            999 V2000
  -30.5221  -15.1120   20.3985 C   0  0  0  0  0  0
  -30.4379  -12.7035   19.5104 C   0  0  0  0  0  0
  -29.5312  -12.5631   18.2651 C   0  0  0  0  0  0
  -28.0709  -12.3200   18.6846 C   0  0  0  0  0  0
  -27.6217  -13.2708   19.8261 C   0  0  2  0  0  0
  -28.6600  -13.3930   20.9603 C   0  0  0  0  0  0
  -25.2453  -13.8258   20.5733 C   0  0  0  0  0  0
  -24.1786  -13.0454   20.9221 C   0  0  0  0  0  0
  -24.6420  -11.6939   20.8718 C   0  0  0  0  0  0
  -23.9105  -10.4302   21.0381 C   0  0  0  0  0  0
  -24.3649   -9.4214   21.9166 C   0  0  0  0  0  0
  -23.6306   -8.2258   22.0746 C   0  0  0  0  0  0
  -22.4291   -8.0299   21.3544 C   0  0  0  0  0  0
  -21.9927   -9.0265   20.4639 C   0  0  0  0  0  0
  -22.7271  -10.2139   20.3032 C   0  0  0  0  0  0
  -21.6867   -6.0732   22.5273 C   0  0  0  0  0  0
  -21.4030   -6.5633   23.8200 C   0  0  0  0  0  0
  -21.3667   -5.6786   24.9163 C   0  0  0  0  0  0
  -21.6055   -4.3047   24.7214 C   0  0  0  0  0  0
  -21.8823   -3.8139   23.4331 C   0  0  0  0  0  0
  -21.9199   -4.6961   22.3391 C   0  0  0  0  0  0
  -22.7804  -13.5202   21.1880 C   0  0  0  0  0  0
  -22.1670   -4.2144   21.0973 F   0  0  0  0  0  0
  -21.5627   -3.4528   25.7730 F   0  0  0  0  0  0
  -29.9159  -13.8398   20.3426 N   0  0  0  0  0  0
  -26.2878  -12.9519   20.3214 N   0  0  0  0  0  0
  -25.9359  -11.6635   20.5695 N   0  0  0  0  0  0
  -22.0463  -12.8185   22.0440 N   0  0  0  0  0  0
  -25.4138  -15.1997   20.4233 N   0  0  0  0  0  0
  -31.7367  -15.1121   20.1644 O   0  0  0  0  0  0
  -21.6668   -6.8890   21.4246 O   0  0  0  0  0  0
  -22.3474  -14.5497   20.6721 O   0  0  0  0  0  0
  -24.6544  -31.8322   23.1790 C   0  0  0  0  0  0
  -25.9261  -32.4638   23.8229 C   0  0  1  0  0  0
  -27.2185  -27.0156   20.1746 C   0  0  0  0  0  0
  -25.5975  -33.8457   24.2136 N   0  0  0  0  0  0
  -23.4656  -30.4456   21.5264 C   0  0  2  0  0  0
  -24.9193  -28.8537   20.1115 C   0  0  0  0  0  0
  -22.7630  -29.4468   22.4816 C   0  0  0  0  0  0
  -18.0310  -28.1398   22.8459 C   0  0  0  0  0  0
  -24.1499  -36.7242   23.2643 C   0  0  0  0  0  0
  -26.0302  -30.6674   21.3968 C   0  0  0  0  0  0
  -26.1004  -29.2667   20.7400 C   0  0  0  0  0  0
  -27.2485  -28.3673   20.7495 C   0  0  0  0  0  0
  -26.0091  -26.7380   19.4978 C   0  0  0  0  0  0
  -24.8942  -27.6073   19.4704 C   0  0  0  0  0  0
  -23.7002  -29.7683   20.1490 C   0  0  0  0  0  0
  -25.4141  -36.3016   24.0302 C   0  0  1  0  0  0
  -20.5937  -28.3740   23.1203 C   0  0  2  0  0  0
  -20.6796  -26.9430   22.5396 C   0  0  0  0  0  0
  -19.5769  -26.6372   21.5211 C   0  0  0  0  0  0
  -18.1950  -26.7928   22.1618 C   0  0  0  0  0  0
  -19.1570  -28.8885   23.2815 C   0  0  0  0  0  0
  -18.9480  -30.1478   23.8852 C   0  0  0  0  0  0
  -17.6470  -30.6585   24.0556 C   0  0  0  0  0  0
  -25.9094  -34.9388   23.5034 C   0  0  0  0  0  0
  -16.5362  -29.9074   23.6341 C   0  0  0  0  0  0
  -16.7288  -28.6494   23.0357 C   0  0  0  0  0  0
  -26.4551  -31.6539   25.0711 C   0  0  0  0  0  0
  -25.3702  -31.3751   26.1373 C   0  0  0  0  0  0
  -27.0413  -30.2913   24.6376 C   0  0  0  0  0  0
  -27.6060  -32.4313   25.7503 C   0  0  0  0  0  0
  -27.5576  -37.1787   24.8462 C   0  0  0  0  0  0
  -21.4309  -29.3042   22.3569 N   0  0  0  0  0  0
  -26.4302  -37.3730   23.9385 N   0  0  0  0  0  0
  -24.7368  -31.0067   22.0889 N   0  0  0  0  0  0
  -23.4199  -28.8026   23.3029 O   0  0  0  0  0  0
  -28.2339  -25.9505   20.2454 O   0  0  0  0  0  0
  -26.5692  -34.8901   22.4625 O   0  0  0  0  0  0
  -23.5629  -32.1256   23.6928 O   0  0  0  0  0  0
  -31.0299  -22.1466   20.2842 C   0  0  0  0  0  0
  -28.4871  -21.5171   20.3601 C   0  0  0  0  0  0
  -29.4885  -20.3906   20.3856 C   0  0  0  0  0  0
  -28.8608  -22.9822   20.2930 C   0  0  0  0  0  0
  -29.7405  -17.5049   19.4405 C   0  0  0  0  0  0
  -30.1261  -17.5967   21.3782 C   0  0  0  0  0  0
  -29.3542  -18.6810   20.4685 C   0  0  0  0  0  0
  -27.8796  -24.3776   20.1938 C   0  0  0  0  0  0
  -30.7661  -20.8301   20.3327 N   0  0  0  0  0  0
  -30.1949  -23.1976   20.2608 N   0  0  0  0  0  0
  -29.7936  -16.3777   20.4928 N   0  0  0  0  0  0
  -26.8106  -21.1112   20.4061 Cl  0  0  0  0  0  0
  -31.4701  -12.8656   19.1951 H   0  0  0  0  0  0
  -30.4464  -11.7744   20.0835 H   0  0  0  0  0  0
  -29.8803  -11.7487   17.6285 H   0  0  0  0  0  0
  -29.5977  -13.4727   17.6667 H   0  0  0  0  0  0
  -27.9852  -11.2826   19.0122 H   0  0  0  0  0  0
  -27.4113  -12.4224   17.8237 H   0  0  0  0  0  0
  -27.5531  -14.2554   19.3612 H   0  0  0  0  0  0
  -28.7846  -12.4481   21.4906 H   0  0  0  0  0  0
  -28.3297  -14.1287   21.6956 H   0  0  0  0  0  0
  -25.2803   -9.5699   22.4737 H   0  0  0  0  0  0
  -24.0028   -7.4649   22.7452 H   0  0  0  0  0  0
  -21.0873   -8.8785   19.8923 H   0  0  0  0  0  0
  -22.3741  -10.9674   19.6136 H   0  0  0  0  0  0
  -21.2021   -7.6137   23.9718 H   0  0  0  0  0  0
  -21.1499   -6.0505   25.9078 H   0  0  0  0  0  0
  -22.0590   -2.7596   23.2845 H   0  0  0  0  0  0
  -22.4092  -11.9877   22.4883 H   0  0  0  0  0  0
  -21.1048  -13.1167   22.2566 H   0  0  0  0  0  0
  -24.6543  -15.8586   20.5520 H   0  0  0  0  0  0
  -26.2798  -15.6424   20.1419 H   0  0  0  0  0  0
  -26.7336  -32.5208   23.0952 H   0  0  0  0  0  0
  -25.0090  -33.9552   25.0268 H   0  0  0  0  0  0
  -22.7755  -31.2757   21.3622 H   0  0  0  0  0  0
  -23.3759  -35.9570   23.3306 H   0  0  0  0  0  0
  -24.3566  -36.8876   22.2053 H   0  0  0  0  0  0
  -23.7253  -37.6442   23.6684 H   0  0  0  0  0  0
  -26.2015  -31.4128   20.6188 H   0  0  0  0  0  0
  -26.8961  -30.7227   22.0445 H   0  0  0  0  0  0
  -28.1460  -28.6770   21.2666 H   0  0  0  0  0  0
  -25.8857  -25.7911   18.9967 H   0  0  0  0  0  0
  -23.9981  -27.2849   18.9570 H   0  0  0  0  0  0
  -23.8480  -30.5405   19.3931 H   0  0  0  0  0  0
  -22.8135  -29.2152   19.8331 H   0  0  0  0  0  0
  -25.1341  -36.1843   25.0795 H   0  0  0  0  0  0
  -21.0025  -28.3338   24.1324 H   0  0  0  0  0  0
  -20.5688  -26.2359   23.3629 H   0  0  0  0  0  0
  -21.6662  -26.7405   22.1199 H   0  0  0  0  0  0
  -19.6933  -25.6271   21.1271 H   0  0  0  0  0  0
  -19.6717  -27.3165   20.6730 H   0  0  0  0  0  0
  -17.4223  -26.6659   21.4022 H   0  0  0  0  0  0
  -18.0343  -26.0081   22.9029 H   0  0  0  0  0  0
  -19.7958  -30.7308   24.2201 H   0  0  0  0  0  0
  -17.5019  -31.6268   24.5162 H   0  0  0  0  0  0
  -15.5360  -30.2958   23.7685 H   0  0  0  0  0  0
  -15.8691  -28.0793   22.7097 H   0  0  0  0  0  0
  -24.5902  -30.7085   25.7679 H   0  0  0  0  0  0
  -24.8875  -32.2941   26.4720 H   0  0  0  0  0  0
  -25.7958  -30.8970   27.0209 H   0  0  0  0  0  0
  -26.3050  -29.6612   24.1376 H   0  0  0  0  0  0
  -27.3964  -29.7242   25.4997 H   0  0  0  0  0  0
  -27.9000  -30.4099   23.9756 H   0  0  0  0  0  0
  -27.2653  -33.3644   26.2008 H   0  0  0  0  0  0
  -28.3926  -32.6817   25.0368 H   0  0  0  0  0  0
  -28.0684  -31.8488   26.5488 H   0  0  0  0  0  0
  -28.2599  -38.0081   24.7498 H   0  0  0  0  0  0
  -28.1076  -36.2608   24.6325 H   0  0  0  0  0  0
  -27.2286  -37.1475   25.8866 H   0  0  0  0  0  0
  -20.9543  -29.8735   21.6714 H   0  0  0  0  0  0
  -26.0168  -38.2801   24.1368 H   0  0  0  0  0  0
  -32.0792  -22.3976   20.2591 H   0  0  0  0  0  0
  -30.7042  -17.6822   18.9548 H   0  0  0  0  0  0
  -28.9793  -17.3638   18.6730 H   0  0  0  0  0  0
  -29.7323  -17.5383   22.3936 H   0  0  0  0  0  0
  -31.1997  -17.7996   21.4329 H   0  0  0  0  0  0
  -28.2946  -18.5495   20.6909 H   0  0  0  0  0  0
  -27.1130  -24.2337   20.9544 H   0  0  0  0  0  0
  -27.3614  -24.2287   19.2496 H   0  0  0  0  0  0
  1 25  1  0  0  0
  1 30  2  0  0  0
  1 81  1  0  0  0
  2  3  1  0  0  0
  2 25  1  0  0  0
  2 83  1  0  0  0
  2 84  1  0  0  0
  3  4  1  0  0  0
  3 85  1  0  0  0
  3 86  1  0  0  0
  4  5  1  0  0  0
  4 87  1  0  0  0
  4 88  1  0  0  0
  5  6  1  0  0  0
  5 26  1  0  0  0
  5 89  1  0  0  0
  6 25  1  0  0  0
  6 90  1  0  0  0
  6 91  1  0  0  0
  7  8  2  0  0  0
  7 26  1  0  0  0
  7 29  1  0  0  0
  8  9  1  0  0  0
  8 22  1  0  0  0
  9 10  1  0  0  0
  9 27  2  0  0  0
 10 11  2  0  0  0
 10 15  1  0  0  0
 11 12  1  0  0  0
 11 92  1  0  0  0
 12 13  2  0  0  0
 12 93  1  0  0  0
 13 14  1  0  0  0
 13 31  1  0  0  0
 14 15  2  0  0  0
 14 94  1  0  0  0
 15 95  1  0  0  0
 16 17  2  0  0  0
 16 21  1  0  0  0
 16 31  1  0  0  0
 17 18  1  0  0  0
 17 96  1  0  0  0
 18 19  2  0  0  0
 18 97  1  0  0  0
 19 20  1  0  0  0
 19 24  1  0  0  0
 20 21  2  0  0  0
 20 98  1  0  0  0
 21 23  1  0  0  0
 22 28  1  0  0  0
 22 32  2  0  0  0
 26 27  1  0  0  0
 28 99  1  0  0  0
 28100  1  0  0  0
 29101  1  0  0  0
 29102  1  0  0  0
 33 34  1  0  0  0
 33 66  1  0  0  0
 33 70  2  0  0  0
 34 36  1  0  0  0
 34 59  1  0  0  0
 34103  1  0  0  0
 35 44  2  0  0  0
 35 45  1  0  0  0
 35 68  1  0  0  0
 36 56  1  0  0  0
 36104  1  0  0  0
 37 39  1  0  0  0
 37 47  1  0  0  0
 37 66  1  0  0  0
 37105  1  0  0  0
 38 43  2  0  0  0
 38 46  1  0  0  0
 38 47  1  0  0  0
 39 64  1  0  0  0
 39 67  2  0  0  0
 40 52  1  0  0  0
 40 53  2  0  0  0
 40 58  1  0  0  0
 41106  1  0  0  0
 41107  1  0  0  0
 41108  1  0  0  0
 41 48  1  0  0  0
 42 43  1  0  0  0
 42 66  1  0  0  0
 42109  1  0  0  0
 42110  1  0  0  0
 43 44  1  0  0  0
 44111  1  0  0  0
 45 46  2  0  0  0
 45112  1  0  0  0
 46113  1  0  0  0
 47114  1  0  0  0
 47115  1  0  0  0
 48 56  1  0  0  0
 48 65  1  0  0  0
 48116  1  0  0  0
 49 50  1  0  0  0
 49 53  1  0  0  0
 49 64  1  0  0  0
 49117  1  0  0  0
 50 51  1  0  0  0
 50118  1  0  0  0
 50119  1  0  0  0
 51 52  1  0  0  0
 51120  1  0  0  0
 51121  1  0  0  0
 52122  1  0  0  0
 52123  1  0  0  0
 53 54  1  0  0  0
 54 55  2  0  0  0
 54124  1  0  0  0
 55 57  1  0  0  0
 55125  1  0  0  0
 56 69  2  0  0  0
 57 58  2  0  0  0
 57126  1  0  0  0
 58127  1  0  0  0
 59 60  1  0  0  0
 59 61  1  0  0  0
 59 62  1  0  0  0
 60128  1  0  0  0
 60129  1  0  0  0
 60130  1  0  0  0
 61131  1  0  0  0
 61132  1  0  0  0
 61133  1  0  0  0
 62134  1  0  0  0
 62135  1  0  0  0
 62136  1  0  0  0
 63 65  1  0  0  0
 63137  1  0  0  0
 63138  1  0  0  0
 63139  1  0  0  0
 64140  1  0  0  0
 65141  1  0  0  0
 68 78  1  0  0  0
 71 79  2  0  0  0
 71 80  1  0  0  0
 71142  1  0  0  0
 72 73  2  0  0  0
 72 74  1  0  0  0
 72 82  1  0  0  0
 73 79  1  0  0  0
 73 77  1  0  0  0
 74 78  1  0  0  0
 74 80  2  0  0  0
 75 77  1  0  0  0
 75 81  1  0  0  0
 75143  1  0  0  0
 75144  1  0  0  0
 76 77  1  0  0  0
 76 81  1  0  0  0
 76145  1  0  0  0
 76146  1  0  0  0
 77147  1  0  0  0
 78148  1  0  0  0
 78149  1  0  0  0
M  ISO  4   1 100  68 101  78 101  81 100
M  END
> <chiral flag>
0

> <version>
0

> <s_m_source_file>
/data/baiqing/PycharmProjects/Reinvent-master-3.2/result/LINK_invent/BTK/process_docking_weight1_custom_sum_contain_oxygen_bond_distance_aromatic_linkinvent_7_9_3/rearranged_h_0199.sdf

> <i_m_source_file_index>
26

> <r_mmod_Potential_Energy-OPLS-2005>
578.703247070312

> <r_mmod_Stretch_Energy-OPLS-2005>
375.948272705078

> <r_mmod_Bend_Energy-OPLS-2005>
326.149108886719

> <r_mmod_Torsional_Energy-OPLS-2005>
255.043914794922

> <r_mmod_Improper_Torsional_Energy-OPLS-2005>
11.909351348877

> <r_mmod_Van_der_Waal_Energy-OPLS-2005>
131.144836425781

> <r_mmod_Electrostatic_Energy-OPLS-2005>
-616

> <r_mmod_Solvation_Energy-OPLS-2005>
-227.607879638672

> <b_mmod_Minimization_Converged-OPLS-2005>
0

> <r_mmod_RMS_Derivative-OPLS-2005>
2.60326910018921

$$$$
26
                    3D
 Structure written by MMmdl.
174184  0  0  1  0            999 V2000
  -30.7637  -14.5830   20.4908 C   0  0  0  0  0  0
  -30.4133  -12.3744   19.4331 C   0  0  0  0  0  0
  -29.4818  -12.4769   18.2118 C   0  0  0  0  0  0
  -28.0165  -12.2772   18.6440 C   0  0  0  0  0  0
  -27.6278  -13.1672   19.8494 C   0  0  2  0  0  0
  -28.7012  -13.1412   20.9739 C   0  0  0  0  0  0
  -25.2499  -13.8023   20.5736 C   0  0  0  0  0  0
  -24.1751  -13.0362   20.9278 C   0  0  0  0  0  0
  -24.6289  -11.6835   20.8882 C   0  0  0  0  0  0
  -23.8963  -10.4253   21.0498 C   0  0  0  0  0  0
  -24.3562   -9.4161   21.9227 C   0  0  0  0  0  0
  -23.6277   -8.2188   22.0767 C   0  0  0  0  0  0
  -22.4239   -8.0253   21.3552 C   0  0  0  0  0  0
  -21.9873   -9.0215   20.4649 C   0  0  0  0  0  0
  -22.7190  -10.2109   20.3097 C   0  0  0  0  0  0
  -21.6809   -6.0752   22.5312 C   0  0  0  0  0  0
  -21.3990   -6.5657   23.8241 C   0  0  0  0  0  0
  -21.3643   -5.6801   24.9187 C   0  0  0  0  0  0
  -21.6049   -4.3054   24.7215 C   0  0  0  0  0  0
  -21.8815   -3.8167   23.4332 C   0  0  0  0  0  0
  -21.9185   -4.6996   22.3396 C   0  0  0  0  0  0
  -22.7761  -13.5220   21.1858 C   0  0  0  0  0  0
  -22.1642   -4.2200   21.0973 F   0  0  0  0  0  0
  -21.5636   -3.4528   25.7717 F   0  0  0  0  0  0
  -30.0177  -13.4337   20.3794 N   0  0  0  0  0  0
  -26.2863  -12.9058   20.3414 N   0  0  0  0  0  0
  -25.9199  -11.6301   20.5909 N   0  0  0  0  0  0
  -22.0364  -12.8276   22.0420 N   0  0  0  0  0  0
  -25.4177  -15.1745   20.4092 N   0  0  0  0  0  0
  -31.9592  -14.5887   20.1997 O   0  0  0  0  0  0
  -21.6592   -6.8876   21.4261 O   0  0  0  0  0  0
  -22.3488  -14.5528   20.6669 O   0  0  0  0  0  0
  -24.6102  -31.8713   23.2125 C   0  0  0  0  0  0
  -25.8996  -32.4832   23.8423 C   0  0  1  0  0  0
  -27.2570  -27.4674   20.1156 C   0  0  0  0  0  0
  -25.5877  -33.8631   24.2371 N   0  0  0  0  0  0
  -23.3988  -30.4960   21.5469 C   0  0  2  0  0  0
  -24.8546  -28.9611   20.1134 C   0  0  0  0  0  0
  -22.7394  -29.4696   22.4957 C   0  0  0  0  0  0
  -18.0259  -28.1395   22.8512 C   0  0  0  0  0  0
  -24.1481  -36.7299   23.2648 C   0  0  0  0  0  0
  -25.9206  -30.8520   21.3556 C   0  0  0  0  0  0
  -26.0038  -29.4825   20.7194 C   0  0  0  0  0  0
  -27.2052  -28.7447   20.7263 C   0  0  0  0  0  0
  -26.0930  -26.9629   19.4953 C   0  0  0  0  0  0
  -24.8916  -27.6970   19.5002 C   0  0  0  0  0  0
  -23.6110  -29.8206   20.1616 C   0  0  0  0  0  0
  -25.4102  -36.3090   24.0352 C   0  0  1  0  0  0
  -20.5871  -28.3694   23.1314 C   0  0  2  0  0  0
  -20.6742  -26.9412   22.5439 C   0  0  0  0  0  0
  -19.5717  -26.6398   21.5224 C   0  0  0  0  0  0
  -18.1894  -26.7952   22.1617 C   0  0  0  0  0  0
  -19.1514  -28.8852   23.2922 C   0  0  0  0  0  0
  -18.9453  -30.1465   23.8930 C   0  0  0  0  0  0
  -17.6460  -30.6614   24.0583 C   0  0  0  0  0  0
  -25.9042  -34.9467   23.5164 C   0  0  0  0  0  0
  -16.5353  -29.9137   23.6329 C   0  0  0  0  0  0
  -16.7245  -28.6542   23.0357 C   0  0  0  0  0  0
  -26.4470  -31.6572   25.0709 C   0  0  0  0  0  0
  -25.3780  -31.3642   26.1489 C   0  0  0  0  0  0
  -27.0291  -30.3023   24.6012 C   0  0  0  0  0  0
  -27.6082  -32.4267   25.7447 C   0  0  0  0  0  0
  -27.5572  -37.1799   24.8464 C   0  0  0  0  0  0
  -21.4127  -29.3045   22.3686 N   0  0  0  0  0  0
  -26.4284  -37.3772   23.9410 N   0  0  0  0  0  0
  -24.6603  -31.0883   22.0971 N   0  0  0  0  0  0
  -23.4176  -28.8245   23.3005 O   0  0  0  0  0  0
  -28.3864  -26.6768   20.0905 O   0  0  0  0  0  0
  -26.5599  -34.8946   22.4721 O   0  0  0  0  0  0
  -23.5305  -32.1443   23.7539 O   0  0  0  0  0  0
  -28.7682  -22.2222   19.2353 C   0  0  0  0  0  0
  -28.3295  -21.4795   18.1774 C   0  0  0  0  0  0
  -29.1227  -20.0776   19.7480 C   0  0  0  0  0  0
  -27.1306  -23.2620   16.6632 C   0  0  0  0  0  0
  -26.1736  -22.1023   16.8346 C   0  0  0  0  0  0
  -28.8380  -17.5909   19.5176 C   0  0  0  0  0  0
  -30.8052  -18.2994   20.7487 C   0  0  0  0  0  0
  -28.9180  -16.1736   20.0960 C   0  0  0  0  0  0
  -30.8787  -16.9012   21.4525 C   0  0  0  0  0  0
  -27.6645  -21.8673   16.8963 C   0  0  0  0  0  0
  -29.3554  -18.7187   20.4217 C   0  0  0  0  0  0
  -29.7511  -21.7624   21.5267 C   0  0  0  0  0  0
  -30.4976  -23.1329   21.5293 C   0  0  0  0  0  0
  -30.2666  -25.6076   21.1994 C   0  0  0  0  0  0
  -29.2990  -26.8096   21.1842 C   0  0  0  0  0  0
  -29.2547  -21.3544   20.1921 N   0  0  0  0  0  0
  -28.5952  -20.1844   18.5175 N   0  3  0  0  0  0
  -30.1537  -15.7785   20.7882 N   0  0  0  0  0  0
  -29.6123  -24.3321   21.6030 N   0  3  0  0  0  0
  -31.4506  -12.4572   19.1102 H   0  0  0  0  0  0
  -30.3257  -11.3913   19.8998 H   0  0  0  0  0  0
  -29.7584  -11.7322   17.4642 H   0  0  0  0  0  0
  -29.6035  -13.4499   17.7324 H   0  0  0  0  0  0
  -27.8830  -11.2265   18.9039 H   0  0  0  0  0  0
  -27.3449  -12.4654   17.8071 H   0  0  0  0  0  0
  -27.5397  -14.1476   19.4193 H   0  0  0  0  0  0
  -28.7284  -12.1667   21.4635 H   0  0  0  0  0  0
  -28.4527  -13.8598   21.7571 H   0  0  0  0  0  0
  -25.2699   -9.5646   22.4793 H   0  0  0  0  0  0
  -24.0024   -7.4561   22.7453 H   0  0  0  0  0  0
  -21.0819   -8.8709   19.8918 H   0  0  0  0  0  0
  -22.3656  -10.9651   19.6206 H   0  0  0  0  0  0
  -21.1972   -7.6170   23.9751 H   0  0  0  0  0  0
  -21.1457   -6.0513   25.9085 H   0  0  0  0  0  0
  -22.0619   -2.7638   23.2801 H   0  0  0  0  0  0
  -22.3951  -11.9957   22.4862 H   0  0  0  0  0  0
  -21.0952  -13.1286   22.2578 H   0  0  0  0  0  0
  -24.6429  -15.8181   20.5195 H   0  0  0  0  0  0
  -26.2617  -15.6157   20.0715 H   0  0  0  0  0  0
  -26.7072  -32.5595   23.1209 H   0  0  0  0  0  0
  -25.0027  -33.9785   25.0524 H   0  0  0  0  0  0
  -22.6885  -31.3146   21.4073 H   0  0  0  0  0  0
  -23.3740  -35.9621   23.3277 H   0  0  0  0  0  0
  -24.3596  -36.8938   22.2059 H   0  0  0  0  0  0
  -23.7259  -37.6521   23.6689 H   0  0  0  0  0  0
  -26.0244  -31.6144   20.5804 H   0  0  0  0  0  0
  -26.8115  -30.9188   21.9668 H   0  0  0  0  0  0
  -28.0822  -29.1782   21.1856 H   0  0  0  0  0  0
  -26.1201  -25.9933   19.0190 H   0  0  0  0  0  0
  -24.0071  -27.2931   19.0296 H   0  0  0  0  0  0
  -23.7216  -30.5950   19.4028 H   0  0  0  0  0  0
  -22.7361  -29.2373   19.8635 H   0  0  0  0  0  0
  -25.1284  -36.1921   25.0841 H   0  0  0  0  0  0
  -20.9987  -28.3236   24.1420 H   0  0  0  0  0  0
  -20.5618  -26.2293   23.3629 H   0  0  0  0  0  0
  -21.6616  -26.7433   22.1228 H   0  0  0  0  0  0
  -19.6866  -25.6304   21.1226 H   0  0  0  0  0  0
  -19.6668  -27.3231   20.6757 H   0  0  0  0  0  0
  -17.4185  -26.6749   21.3974 H   0  0  0  0  0  0
  -18.0260  -26.0098   22.8995 H   0  0  0  0  0  0
  -19.7954  -30.7265   24.2293 H   0  0  0  0  0  0
  -17.5051  -31.6284   24.5198 H   0  0  0  0  0  0
  -15.5368  -30.3066   23.7678 H   0  0  0  0  0  0
  -15.8625  -28.0894   22.7063 H   0  0  0  0  0  0
  -24.5981  -30.6943   25.7840 H   0  0  0  0  0  0
  -24.8951  -32.2789   26.4935 H   0  0  0  0  0  0
  -25.8191  -30.8842   27.0236 H   0  0  0  0  0  0
  -26.2776  -29.6753   24.1198 H   0  0  0  0  0  0
  -27.4242  -29.7268   25.4395 H   0  0  0  0  0  0
  -27.8537  -30.4353   23.9007 H   0  0  0  0  0  0
  -27.2719  -33.3547   26.2077 H   0  0  0  0  0  0
  -28.3860  -32.6840   25.0241 H   0  0  0  0  0  0
  -28.0802  -31.8369   26.5318 H   0  0  0  0  0  0
  -28.2584  -38.0096   24.7506 H   0  0  0  0  0  0
  -28.1091  -36.2650   24.6279 H   0  0  0  0  0  0
  -27.2327  -37.1400   25.8879 H   0  0  0  0  0  0
  -20.9271  -29.8766   21.6910 H   0  0  0  0  0  0
  -26.0157  -38.2839   24.1444 H   0  0  0  0  0  0
  -28.7254  -23.2945   19.3445 H   0  0  0  0  0  0
  -27.1712  -23.9858   17.4751 H   0  0  0  0  0  0
  -27.2338  -23.6834   15.6642 H   0  0  0  0  0  0
  -25.6423  -21.7493   15.9520 H   0  0  0  0  0  0
  -25.6069  -22.0663   17.7624 H   0  0  0  0  0  0
  -27.7999  -17.7714   19.2377 H   0  0  0  0  0  0
  -29.4104  -17.5981   18.5863 H   0  0  0  0  0  0
  -31.3955  -18.2769   19.8308 H   0  0  0  0  0  0
  -31.2882  -19.0411   21.3846 H   0  0  0  0  0  0
  -28.8471  -15.5848   19.1866 H   0  0  0  0  0  0
  -28.0688  -15.9772   20.7493 H   0  0  0  0  0  0
  -30.4513  -16.9892   22.4523 H   0  0  0  0  0  0
  -31.9306  -16.6535   21.6171 H   0  0  0  0  0  0
  -28.1410  -21.3698   16.0538 H   0  0  0  0  0  0
  -28.7683  -18.7567   21.3390 H   0  0  0  0  0  0
  -28.9129  -21.7549   22.2229 H   0  0  0  0  0  0
  -30.4392  -20.9971   21.8772 H   0  0  0  0  0  0
  -31.1399  -23.1898   20.6491 H   0  0  0  0  0  0
  -31.1742  -23.1725   22.3843 H   0  0  0  0  0  0
  -31.0698  -25.8213   21.9015 H   0  0  0  0  0  0
  -30.7299  -25.5127   20.2173 H   0  0  0  0  0  0
  -29.8746  -27.7286   21.0627 H   0  0  0  0  0  0
  -28.7724  -26.8782   22.1395 H   0  0  0  0  0  0
  -28.3674  -19.3936   17.9288 H   0  0  0  0  0  0
  -29.2765  -24.4223   22.5511 H   0  0  0  0  0  0
  -28.7996  -24.2074   21.0251 H   0  0  0  0  0  0
  1 25  1  0  0  0
  1 30  2  0  0  0
  1 88  1  0  0  0
  2  3  1  0  0  0
  2 25  1  0  0  0
  2 90  1  0  0  0
  2 91  1  0  0  0
  3  4  1  0  0  0
  3 92  1  0  0  0
  3 93  1  0  0  0
  4  5  1  0  0  0
  4 94  1  0  0  0
  4 95  1  0  0  0
  5  6  1  0  0  0
  5 26  1  0  0  0
  5 96  1  0  0  0
  6 25  1  0  0  0
  6 97  1  0  0  0
  6 98  1  0  0  0
  7  8  2  0  0  0
  7 26  1  0  0  0
  7 29  1  0  0  0
  8  9  1  0  0  0
  8 22  1  0  0  0
  9 10  1  0  0  0
  9 27  2  0  0  0
 10 11  2  0  0  0
 10 15  1  0  0  0
 11 12  1  0  0  0
 11 99  1  0  0  0
 12 13  2  0  0  0
 12100  1  0  0  0
 13 14  1  0  0  0
 13 31  1  0  0  0
 14 15  2  0  0  0
 14101  1  0  0  0
 15102  1  0  0  0
 16 17  2  0  0  0
 16 21  1  0  0  0
 16 31  1  0  0  0
 17 18  1  0  0  0
 17103  1  0  0  0
 18 19  2  0  0  0
 18104  1  0  0  0
 19 20  1  0  0  0
 19 24  1  0  0  0
 20 21  2  0  0  0
 20105  1  0  0  0
 21 23  1  0  0  0
 22 28  1  0  0  0
 22 32  2  0  0  0
 26 27  1  0  0  0
 28106  1  0  0  0
 28107  1  0  0  0
 29108  1  0  0  0
 29109  1  0  0  0
 33 34  1  0  0  0
 33 66  1  0  0  0
 33 70  2  0  0  0
 34 36  1  0  0  0
 34 59  1  0  0  0
 34110  1  0  0  0
 35 44  2  0  0  0
 35 45  1  0  0  0
 35 68  1  0  0  0
 36 56  1  0  0  0
 36111  1  0  0  0
 37 39  1  0  0  0
 37 47  1  0  0  0
 37 66  1  0  0  0
 37112  1  0  0  0
 38 43  2  0  0  0
 38 46  1  0  0  0
 38 47  1  0  0  0
 39 64  1  0  0  0
 39 67  2  0  0  0
 40 52  1  0  0  0
 40 53  2  0  0  0
 40 58  1  0  0  0
 41113  1  0  0  0
 41114  1  0  0  0
 41115  1  0  0  0
 41 48  1  0  0  0
 42 43  1  0  0  0
 42 66  1  0  0  0
 42116  1  0  0  0
 42117  1  0  0  0
 43 44  1  0  0  0
 44118  1  0  0  0
 45 46  2  0  0  0
 45119  1  0  0  0
 46120  1  0  0  0
 47121  1  0  0  0
 47122  1  0  0  0
 48 56  1  0  0  0
 48 65  1  0  0  0
 48123  1  0  0  0
 49 50  1  0  0  0
 49 53  1  0  0  0
 49 64  1  0  0  0
 49124  1  0  0  0
 50 51  1  0  0  0
 50125  1  0  0  0
 50126  1  0  0  0
 51 52  1  0  0  0
 51127  1  0  0  0
 51128  1  0  0  0
 52129  1  0  0  0
 52130  1  0  0  0
 53 54  1  0  0  0
 54 55  2  0  0  0
 54131  1  0  0  0
 55 57  1  0  0  0
 55132  1  0  0  0
 56 69  2  0  0  0
 57 58  2  0  0  0
 57133  1  0  0  0
 58134  1  0  0  0
 59 60  1  0  0  0
 59 61  1  0  0  0
 59 62  1  0  0  0
 60135  1  0  0  0
 60136  1  0  0  0
 60137  1  0  0  0
 61138  1  0  0  0
 61139  1  0  0  0
 61140  1  0  0  0
 62141  1  0  0  0
 62142  1  0  0  0
 62143  1  0  0  0
 63 65  1  0  0  0
 63144  1  0  0  0
 63145  1  0  0  0
 63146  1  0  0  0
 64147  1  0  0  0
 65148  1  0  0  0
 68 85  1  0  0  0
 71 72  2  0  0  0
 71 86  1  0  0  0
 71149  1  0  0  0
 72 87  1  0  0  0
 72 80  1  0  0  0
 73 86  1  0  0  0
 73 87  2  0  0  0
 73 81  1  0  0  0
 74 75  1  0  0  0
 74 80  1  0  0  0
 74150  1  0  0  0
 74151  1  0  0  0
 75 80  1  0  0  0
 75152  1  0  0  0
 75153  1  0  0  0
 76 78  1  0  0  0
 76 81  1  0  0  0
 76154  1  0  0  0
 76155  1  0  0  0
 77 79  1  0  0  0
 77 81  1  0  0  0
 77156  1  0  0  0
 77157  1  0  0  0
 78 88  1  0  0  0
 78158  1  0  0  0
 78159  1  0  0  0
 79 88  1  0  0  0
 79160  1  0  0  0
 79161  1  0  0  0
 80162  1  0  0  0
 81163  1  0  0  0
 82 83  1  0  0  0
 82 86  1  0  0  0
 82164  1  0  0  0
 82165  1  0  0  0
 83 89  1  0  0  0
 83166  1  0  0  0
 83167  1  0  0  0
 84 85  1  0  0  0
 84 89  1  0  0  0
 84168  1  0  0  0
 84169  1  0  0  0
 85170  1  0  0  0
 85171  1  0  0  0
 87172  1  0  0  0
 89173  1  0  0  0
 89174  1  0  0  0
M  CHG  2  87   1  89   1
M  ISO  4   1 100  68 101  85 101  88 100
M  END
> <chiral flag>
0

> <version>
0

> <s_m_source_file>
/data/baiqing/PycharmProjects/Reinvent-master-3.2/result/LINK_invent/BTK/process_docking_weight1_custom_sum_contain_oxygen_bond_distance_aromatic_linkinvent_7_9_3/rearranged_h_0199.sdf

> <i_m_source_file_index>
27

> <r_mmod_Potential_Energy-OPLS-2005>
42.4690628051758

> <r_mmod_Stretch_Energy-OPLS-2005>
48.0721626281738

> <r_mmod_Bend_Energy-OPLS-2005>
139.350250244141

> <r_mmod_Torsional_Energy-OPLS-2005>
381.223205566406

> <r_mmod_Improper_Torsional_Energy-OPLS-2005>
4.52376127243042

> <r_mmod_Van_der_Waal_Energy-OPLS-2005>
139.816940307617

> <r_mmod_Electrostatic_Energy-OPLS-2005>
212.456756591797

> <r_mmod_Solvation_Energy-OPLS-2005>
-917.279541015625

> <b_mmod_Minimization_Converged-OPLS-2005>
0

> <r_mmod_RMS_Derivative-OPLS-2005>
4.78198194503784

$$$$
27
                    3D
 Structure written by MMmdl.
170179  0  0  1  0            999 V2000
  -30.6434  -14.4742   20.6122 C   0  0  0  0  0  0
  -30.4266  -12.3247   19.4189 C   0  0  0  0  0  0
  -29.4898  -12.5435   18.2113 C   0  0  0  0  0  0
  -28.0105  -12.3800   18.6183 C   0  0  0  0  0  0
  -27.6577  -13.2008   19.8901 C   0  0  2  0  0  0
  -28.6950  -12.9462   21.0062 C   0  0  0  0  0  0
  -25.2554  -13.8158   20.5705 C   0  0  0  0  0  0
  -24.1798  -13.0401   20.9210 C   0  0  0  0  0  0
  -24.6366  -11.6891   20.8716 C   0  0  0  0  0  0
  -23.9066  -10.4284   21.0425 C   0  0  0  0  0  0
  -24.3621   -9.4200   21.9208 C   0  0  0  0  0  0
  -23.6307   -8.2227   22.0769 C   0  0  0  0  0  0
  -22.4274   -8.0277   21.3574 C   0  0  0  0  0  0
  -21.9902   -9.0240   20.4675 C   0  0  0  0  0  0
  -22.7216  -10.2136   20.3108 C   0  0  0  0  0  0
  -21.6846   -6.0732   22.5299 C   0  0  0  0  0  0
  -21.3987   -6.5647   23.8221 C   0  0  0  0  0  0
  -21.3643   -5.6838   24.9193 C   0  0  0  0  0  0
  -21.6071   -4.3107   24.7254 C   0  0  0  0  0  0
  -21.8809   -3.8143   23.4381 C   0  0  0  0  0  0
  -21.9204   -4.6957   22.3426 C   0  0  0  0  0  0
  -22.7852  -13.5219   21.1884 C   0  0  0  0  0  0
  -22.1672   -4.2124   21.1008 F   0  0  0  0  0  0
  -21.5623   -3.4592   25.7765 F   0  0  0  0  0  0
  -30.0236  -13.2750   20.4656 N   0  0  0  0  0  0
  -26.2975  -12.9314   20.3419 N   0  0  0  0  0  0
  -25.9302  -11.6462   20.5740 N   0  0  0  0  0  0
  -22.0557  -12.8162   22.0484 N   0  0  0  0  0  0
  -25.4279  -15.1884   20.4080 N   0  0  0  0  0  0
  -31.7779  -14.6975   20.1726 O   0  0  0  0  0  0
  -21.6667   -6.8844   21.4239 O   0  0  0  0  0  0
  -22.3526  -14.5524   20.6782 O   0  0  0  0  0  0
  -24.6147  -31.8718   23.2164 C   0  0  0  0  0  0
  -25.9072  -32.4838   23.8409 C   0  0  1  0  0  0
  -27.2097  -27.4360   20.1072 C   0  0  0  0  0  0
  -25.5922  -33.8610   24.2342 N   0  0  0  0  0  0
  -23.3946  -30.5045   21.5634 C   0  0  2  0  0  0
  -24.8287  -28.9760   20.1187 C   0  0  0  0  0  0
  -22.7399  -29.4708   22.5099 C   0  0  0  0  0  0
  -18.0342  -28.1301   22.8509 C   0  0  0  0  0  0
  -24.1519  -36.7329   23.2628 C   0  0  0  0  0  0
  -25.9254  -30.8396   21.3751 C   0  0  0  0  0  0
  -25.9899  -29.4752   20.7204 C   0  0  0  0  0  0
  -27.1800  -28.7117   20.7147 C   0  0  0  0  0  0
  -26.0327  -26.9637   19.4779 C   0  0  0  0  0  0
  -24.8443  -27.7135   19.5051 C   0  0  0  0  0  0
  -23.5933  -29.8456   20.1702 C   0  0  0  0  0  0
  -25.4116  -36.3113   24.0355 C   0  0  1  0  0  0
  -20.5943  -28.3571   23.1383 C   0  0  2  0  0  0
  -20.6826  -26.9387   22.5306 C   0  0  0  0  0  0
  -19.5763  -26.6454   21.5103 C   0  0  0  0  0  0
  -18.1960  -26.7932   22.1502 C   0  0  0  0  0  0
  -19.1595  -28.8748   23.2980 C   0  0  0  0  0  0
  -18.9464  -30.1351   23.8962 C   0  0  0  0  0  0
  -17.6476  -30.6535   24.0560 C   0  0  0  0  0  0
  -25.9074  -34.9494   23.5163 C   0  0  0  0  0  0
  -16.5377  -29.9017   23.6303 C   0  0  0  0  0  0
  -16.7330  -28.6419   23.0377 C   0  0  0  0  0  0
  -26.4483  -31.6591   25.0742 C   0  0  0  0  0  0
  -25.3670  -31.3729   26.1429 C   0  0  0  0  0  0
  -27.0246  -30.2977   24.6131 C   0  0  0  0  0  0
  -27.6145  -32.4228   25.7466 C   0  0  0  0  0  0
  -27.5606  -37.1789   24.8458 C   0  0  0  0  0  0
  -21.4147  -29.3047   22.3885 N   0  0  0  0  0  0
  -26.4320  -37.3769   23.9382 N   0  0  0  0  0  0
  -24.6624  -31.0868   22.1074 N   0  0  0  0  0  0
  -23.4163  -28.8185   23.3072 O   0  0  0  0  0  0
  -28.3923  -26.7204   20.1051 O   0  0  0  0  0  0
  -26.5611  -34.8911   22.4710 O   0  0  0  0  0  0
  -23.5347  -32.1439   23.7601 O   0  0  0  0  0  0
  -27.9131  -22.3788   21.4734 C   0  0  0  0  0  0
  -27.7442  -19.7705   21.9047 C   0  0  0  0  0  0
  -28.8033  -17.7154   19.4643 C   0  0  0  0  0  0
  -30.3037  -17.4227   19.6060 C   0  0  0  0  0  0
  -29.5630  -22.9544   23.0117 C   0  0  0  0  0  0
  -27.9391  -21.2119   22.4828 C   0  0  1  0  0  0
  -29.2313  -21.4728   23.2905 C   0  0  2  0  0  0
  -28.6866  -17.7062   20.9968 C   0  0  1  0  0  0
  -30.0428  -16.9188   21.0378 C   0  0  1  0  0  0
  -29.0880  -21.1444   24.7950 C   0  0  0  0  0  0
  -25.1417  -20.0282   22.5078 C   0  0  0  0  0  0
  -26.2876  -19.2130   21.8668 C   0  0  0  0  0  0
  -28.6461  -24.8232   21.6252 C   0  0  0  0  0  0
  -28.3480  -25.2825   20.1795 C   0  0  0  0  0  0
  -28.7737  -19.0733   21.5430 N   0  0  0  0  0  0
  -28.7536  -23.3637   21.8660 N   0  0  0  0  0  0
  -29.8484  -15.4555   21.0922 N   0  0  0  0  0  0
  -27.1137  -22.4439   20.5341 O   0  0  0  0  0  0
  -31.4672  -12.4569   19.1186 H   0  0  0  0  0  0
  -30.3424  -11.3013   19.7894 H   0  0  0  0  0  0
  -29.7294  -11.8615   17.3940 H   0  0  0  0  0  0
  -29.6382  -13.5551   17.8271 H   0  0  0  0  0  0
  -27.8210  -11.3206   18.7838 H   0  0  0  0  0  0
  -27.3605  -12.6725   17.7911 H   0  0  0  0  0  0
  -27.7131  -14.2547   19.6206 H   0  0  0  0  0  0
  -28.6771  -11.9012   21.3233 H   0  0  0  0  0  0
  -28.4449  -13.5123   21.9044 H   0  0  0  0  0  0
  -25.2784   -9.5681   22.4737 H   0  0  0  0  0  0
  -24.0038   -7.4648   22.7518 H   0  0  0  0  0  0
  -21.0811   -8.8769   19.9014 H   0  0  0  0  0  0
  -22.3698  -10.9659   19.6206 H   0  0  0  0  0  0
  -21.1946   -7.6177   23.9685 H   0  0  0  0  0  0
  -21.1478   -6.0602   25.9107 H   0  0  0  0  0  0
  -22.0595   -2.7606   23.2929 H   0  0  0  0  0  0
  -22.4193  -11.9705   22.4636 H   0  0  0  0  0  0
  -21.1253  -13.1133   22.2920 H   0  0  0  0  0  0
  -24.6501  -15.8337   20.4973 H   0  0  0  0  0  0
  -26.2630  -15.6204   20.0356 H   0  0  0  0  0  0
  -26.7096  -32.5513   23.1120 H   0  0  0  0  0  0
  -24.9897  -33.9739   25.0349 H   0  0  0  0  0  0
  -22.6793  -31.3230   21.4435 H   0  0  0  0  0  0
  -23.3788  -35.9673   23.3266 H   0  0  0  0  0  0
  -24.3639  -36.8969   22.2067 H   0  0  0  0  0  0
  -23.7274  -37.6536   23.6598 H   0  0  0  0  0  0
  -26.0519  -31.6141   20.6199 H   0  0  0  0  0  0
  -26.8052  -30.8688   22.0045 H   0  0  0  0  0  0
  -28.0688  -29.0949   21.1933 H   0  0  0  0  0  0
  -26.0025  -26.0287   18.9458 H   0  0  0  0  0  0
  -23.9435  -27.3281   19.0439 H   0  0  0  0  0  0
  -23.6897  -30.6264   19.4108 H   0  0  0  0  0  0
  -22.7146  -29.2668   19.8798 H   0  0  0  0  0  0
  -25.1280  -36.2007   25.0857 H   0  0  0  0  0  0
  -21.0170  -28.3008   24.1419 H   0  0  0  0  0  0
  -20.5751  -26.2116   23.3394 H   0  0  0  0  0  0
  -21.6670  -26.7461   22.1017 H   0  0  0  0  0  0
  -19.6858  -25.6446   21.0927 H   0  0  0  0  0  0
  -19.6676  -27.3416   20.6791 H   0  0  0  0  0  0
  -17.4297  -26.6806   21.3861 H   0  0  0  0  0  0
  -18.0354  -25.9985   22.8775 H   0  0  0  0  0  0
  -19.7923  -30.7162   24.2386 H   0  0  0  0  0  0
  -17.5025  -31.6217   24.5108 H   0  0  0  0  0  0
  -15.5382  -30.2901   23.7560 H   0  0  0  0  0  0
  -15.8707  -28.0730   22.7125 H   0  0  0  0  0  0
  -24.6294  -30.6473   25.7965 H   0  0  0  0  0  0
  -24.8327  -32.2814   26.4238 H   0  0  0  0  0  0
  -25.8032  -30.9605   27.0530 H   0  0  0  0  0  0
  -26.2670  -29.6664   24.1460 H   0  0  0  0  0  0
  -27.4153  -29.7338   25.4598 H   0  0  0  0  0  0
  -27.8499  -30.4142   23.9114 H   0  0  0  0  0  0
  -27.2895  -33.3571   26.2036 H   0  0  0  0  0  0
  -28.3983  -32.6667   25.0302 H   0  0  0  0  0  0
  -28.0792  -31.8269   26.5346 H   0  0  0  0  0  0
  -28.2592  -38.0123   24.7552 H   0  0  0  0  0  0
  -28.1133  -36.2636   24.6253 H   0  0  0  0  0  0
  -27.2277  -37.1388   25.8847 H   0  0  0  0  0  0
  -20.9181  -29.8696   21.7112 H   0  0  0  0  0  0
  -26.0281  -38.2898   24.1228 H   0  0  0  0  0  0
  -28.5867  -18.6568   18.9584 H   0  0  0  0  0  0
  -28.2443  -16.8984   19.0053 H   0  0  0  0  0  0
  -30.9066  -18.3286   19.6045 H   0  0  0  0  0  0
  -30.6912  -16.7065   18.8815 H   0  0  0  0  0  0
  -30.6273  -23.0868   22.7913 H   0  0  0  0  0  0
  -29.3327  -23.5992   23.8610 H   0  0  0  0  0  0
  -27.1186  -21.4543   23.1538 H   0  0  0  0  0  0
  -30.0511  -20.8729   22.8889 H   0  0  0  0  0  0
  -27.8375  -17.1272   21.3573 H   0  0  0  0  0  0
  -30.7444  -17.2954   21.7860 H   0  0  0  0  0  0
  -28.7350  -20.1225   24.9460 H   0  0  0  0  0  0
  -30.0364  -21.2369   25.3270 H   0  0  0  0  0  0
  -28.3739  -21.8131   25.2774 H   0  0  0  0  0  0
  -24.9320  -20.9356   21.9355 H   0  0  0  0  0  0
  -25.3342  -20.2957   23.5473 H   0  0  0  0  0  0
  -24.2137  -19.4518   22.5351 H   0  0  0  0  0  0
  -26.2771  -18.2520   22.3851 H   0  0  0  0  0  0
  -26.0105  -19.0046   20.8329 H   0  0  0  0  0  0
  -27.8695  -25.2200   22.2813 H   0  0  0  0  0  0
  -29.5766  -25.2944   21.9465 H   0  0  0  0  0  0
  -27.4176  -24.8472   19.8359 H   0  0  0  0  0  0
  -29.1097  -24.8993   19.5031 H   0  0  0  0  0  0
  -28.9620  -15.1504   21.4641 H   0  0  0  0  0  0
  1 25  1  0  0  0
  1 30  2  0  0  0
  1 87  1  0  0  0
  2  3  1  0  0  0
  2 25  1  0  0  0
  2 89  1  0  0  0
  2 90  1  0  0  0
  3  4  1  0  0  0
  3 91  1  0  0  0
  3 92  1  0  0  0
  4  5  1  0  0  0
  4 93  1  0  0  0
  4 94  1  0  0  0
  5  6  1  0  0  0
  5 26  1  0  0  0
  5 95  1  0  0  0
  6 25  1  0  0  0
  6 96  1  0  0  0
  6 97  1  0  0  0
  7  8  2  0  0  0
  7 26  1  0  0  0
  7 29  1  0  0  0
  8  9  1  0  0  0
  8 22  1  0  0  0
  9 10  1  0  0  0
  9 27  2  0  0  0
 10 11  2  0  0  0
 10 15  1  0  0  0
 11 12  1  0  0  0
 11 98  1  0  0  0
 12 13  2  0  0  0
 12 99  1  0  0  0
 13 14  1  0  0  0
 13 31  1  0  0  0
 14 15  2  0  0  0
 14100  1  0  0  0
 15101  1  0  0  0
 16 17  2  0  0  0
 16 21  1  0  0  0
 16 31  1  0  0  0
 17 18  1  0  0  0
 17102  1  0  0  0
 18 19  2  0  0  0
 18103  1  0  0  0
 19 20  1  0  0  0
 19 24  1  0  0  0
 20 21  2  0  0  0
 20104  1  0  0  0
 21 23  1  0  0  0
 22 28  1  0  0  0
 22 32  2  0  0  0
 26 27  1  0  0  0
 28105  1  0  0  0
 28106  1  0  0  0
 29107  1  0  0  0
 29108  1  0  0  0
 33 34  1  0  0  0
 33 66  1  0  0  0
 33 70  2  0  0  0
 34 36  1  0  0  0
 34 59  1  0  0  0
 34109  1  0  0  0
 35 44  2  0  0  0
 35 45  1  0  0  0
 35 68  1  0  0  0
 36 56  1  0  0  0
 36110  1  0  0  0
 37 39  1  0  0  0
 37 47  1  0  0  0
 37 66  1  0  0  0
 37111  1  0  0  0
 38 43  2  0  0  0
 38 46  1  0  0  0
 38 47  1  0  0  0
 39 64  1  0  0  0
 39 67  2  0  0  0
 40 52  1  0  0  0
 40 53  2  0  0  0
 40 58  1  0  0  0
 41112  1  0  0  0
 41113  1  0  0  0
 41114  1  0  0  0
 41 48  1  0  0  0
 42 43  1  0  0  0
 42 66  1  0  0  0
 42115  1  0  0  0
 42116  1  0  0  0
 43 44  1  0  0  0
 44117  1  0  0  0
 45 46  2  0  0  0
 45118  1  0  0  0
 46119  1  0  0  0
 47120  1  0  0  0
 47121  1  0  0  0
 48 56  1  0  0  0
 48 65  1  0  0  0
 48122  1  0  0  0
 49 50  1  0  0  0
 49 53  1  0  0  0
 49 64  1  0  0  0
 49123  1  0  0  0
 50 51  1  0  0  0
 50124  1  0  0  0
 50125  1  0  0  0
 51 52  1  0  0  0
 51126  1  0  0  0
 51127  1  0  0  0
 52128  1  0  0  0
 52129  1  0  0  0
 53 54  1  0  0  0
 54 55  2  0  0  0
 54130  1  0  0  0
 55 57  1  0  0  0
 55131  1  0  0  0
 56 69  2  0  0  0
 57 58  2  0  0  0
 57132  1  0  0  0
 58133  1  0  0  0
 59 60  1  0  0  0
 59 61  1  0  0  0
 59 62  1  0  0  0
 60134  1  0  0  0
 60135  1  0  0  0
 60136  1  0  0  0
 61137  1  0  0  0
 61138  1  0  0  0
 61139  1  0  0  0
 62140  1  0  0  0
 62141  1  0  0  0
 62142  1  0  0  0
 63 65  1  0  0  0
 63143  1  0  0  0
 63144  1  0  0  0
 63145  1  0  0  0
 64146  1  0  0  0
 65147  1  0  0  0
 68 84  1  0  0  0
 71 76  1  0  0  0
 71 86  1  0  0  0
 71 88  2  0  0  0
 72 82  1  0  0  0
 72 85  2  0  0  0
 72 76  1  0  0  0
 73 74  1  0  0  0
 73 78  1  0  0  0
 73148  1  0  0  0
 73149  1  0  0  0
 74 79  1  0  0  0
 74150  1  0  0  0
 74151  1  0  0  0
 75 77  1  0  0  0
 75 86  1  0  0  0
 75152  1  0  0  0
 75153  1  0  0  0
 76 77  1  0  0  0
 76154  1  0  0  0
 77 80  1  0  0  0
 77155  1  0  0  0
 78 79  1  0  0  0
 78 85  1  0  0  0
 78156  1  0  0  0
 79 87  1  0  0  0
 79157  1  0  0  0
 80158  1  0  0  0
 80159  1  0  0  0
 80160  1  0  0  0
 81 82  1  0  0  0
 81161  1  0  0  0
 81162  1  0  0  0
 81163  1  0  0  0
 82164  1  0  0  0
 82165  1  0  0  0
 83 84  1  0  0  0
 83 86  1  0  0  0
 83166  1  0  0  0
 83167  1  0  0  0
 84168  1  0  0  0
 84169  1  0  0  0
 87170  1  0  0  0
M  ISO  4   1 100  68 101  84 101  87 100
M  END
> <chiral flag>
0

> <version>
0

> <s_m_source_file>
/data/baiqing/PycharmProjects/Reinvent-master-3.2/result/LINK_invent/BTK/process_docking_weight1_custom_sum_contain_oxygen_bond_distance_aromatic_linkinvent_7_9_3/rearranged_h_0199.sdf

> <i_m_source_file_index>
28

> <r_mmod_Potential_Energy-OPLS-2005>
48.4025230407715

> <r_mmod_Stretch_Energy-OPLS-2005>
50.0317764282227

> <r_mmod_Bend_Energy-OPLS-2005>
167.48291015625

> <r_mmod_Torsional_Energy-OPLS-2005>
284.256042480469

> <r_mmod_Improper_Torsional_Energy-OPLS-2005>
8.12319183349609

> <r_mmod_Van_der_Waal_Energy-OPLS-2005>
137.861633300781

> <r_mmod_Electrostatic_Energy-OPLS-2005>
-387.100616455078

> <r_mmod_Solvation_Energy-OPLS-2005>
-226.736358642578

> <b_mmod_Minimization_Converged-OPLS-2005>
0

> <r_mmod_RMS_Derivative-OPLS-2005>
9.06199264526367

$$$$
28
                    3D
 Structure written by MMmdl.
157166  0  0  1  0            999 V2000
  -30.7243  -14.4088   20.6250 C   0  0  0  0  0  0
  -30.4216  -12.2864   19.4094 C   0  0  0  0  0  0
  -29.4934  -12.5104   18.1994 C   0  0  0  0  0  0
  -28.0157  -12.3689   18.6137 C   0  0  0  0  0  0
  -27.6644  -13.1992   19.8772 C   0  0  2  0  0  0
  -28.7007  -12.9520   20.9948 C   0  0  0  0  0  0
  -25.2612  -13.8143   20.5682 C   0  0  0  0  0  0
  -24.1838  -13.0441   20.9154 C   0  0  0  0  0  0
  -24.6359  -11.6894   20.8688 C   0  0  0  0  0  0
  -23.9019  -10.4291   21.0375 C   0  0  0  0  0  0
  -24.3583   -9.4219   21.9162 C   0  0  0  0  0  0
  -23.6273   -8.2245   22.0743 C   0  0  0  0  0  0
  -22.4259   -8.0267   21.3536 C   0  0  0  0  0  0
  -21.9874   -9.0236   20.4645 C   0  0  0  0  0  0
  -22.7189  -10.2120   20.3042 C   0  0  0  0  0  0
  -21.6859   -6.0719   22.5271 C   0  0  0  0  0  0
  -21.4028   -6.5623   23.8204 C   0  0  0  0  0  0
  -21.3663   -5.6779   24.9167 C   0  0  0  0  0  0
  -21.6040   -4.3039   24.7224 C   0  0  0  0  0  0
  -21.8824   -3.8128   23.4343 C   0  0  0  0  0  0
  -21.9206   -4.6949   22.3397 C   0  0  0  0  0  0
  -22.7863  -13.5255   21.1822 C   0  0  0  0  0  0
  -22.1674   -4.2127   21.0980 F   0  0  0  0  0  0
  -21.5624   -3.4527   25.7739 F   0  0  0  0  0  0
  -30.0385  -13.2489   20.4530 N   0  0  0  0  0  0
  -26.3028  -12.9297   20.3352 N   0  0  0  0  0  0
  -25.9281  -11.6463   20.5693 N   0  0  0  0  0  0
  -22.0494  -12.8264   22.0380 N   0  0  0  0  0  0
  -25.4358  -15.1860   20.4133 N   0  0  0  0  0  0
  -31.8248  -14.6291   20.1113 O   0  0  0  0  0  0
  -21.6630   -6.8857   21.4232 O   0  0  0  0  0  0
  -22.3555  -14.5563   20.6675 O   0  0  0  0  0  0
  -24.6115  -31.8697   23.2097 C   0  0  0  0  0  0
  -25.9022  -32.4838   23.8377 C   0  0  1  0  0  0
  -27.2375  -27.4643   20.0936 C   0  0  0  0  0  0
  -25.5885  -33.8631   24.2318 N   0  0  0  0  0  0
  -23.3976  -30.4917   21.5512 C   0  0  2  0  0  0
  -24.8452  -28.9580   20.1166 C   0  0  0  0  0  0
  -22.7389  -29.4665   22.5008 C   0  0  0  0  0  0
  -18.0270  -28.1383   22.8492 C   0  0  0  0  0  0
  -24.1489  -36.7324   23.2638 C   0  0  0  0  0  0
  -25.9209  -30.8481   21.3530 C   0  0  0  0  0  0
  -26.0032  -29.4822   20.7057 C   0  0  0  0  0  0
  -27.2058  -28.7425   20.6893 C   0  0  0  0  0  0
  -26.0658  -26.9440   19.5049 C   0  0  0  0  0  0
  -24.8686  -27.6861   19.5157 C   0  0  0  0  0  0
  -23.6040  -29.8207   20.1665 C   0  0  0  0  0  0
  -25.4111  -36.3120   24.0337 C   0  0  1  0  0  0
  -20.5856  -28.3659   23.1338 C   0  0  2  0  0  0
  -20.6765  -26.9398   22.5435 C   0  0  0  0  0  0
  -19.5752  -26.6390   21.5218 C   0  0  0  0  0  0
  -18.1923  -26.7933   22.1615 C   0  0  0  0  0  0
  -19.1517  -28.8835   23.2913 C   0  0  0  0  0  0
  -18.9451  -30.1446   23.8919 C   0  0  0  0  0  0
  -17.6454  -30.6590   24.0568 C   0  0  0  0  0  0
  -25.9037  -34.9489   23.5126 C   0  0  0  0  0  0
  -16.5343  -29.9096   23.6325 C   0  0  0  0  0  0
  -16.7262  -28.6515   23.0340 C   0  0  0  0  0  0
  -26.4474  -31.6598   25.0678 C   0  0  0  0  0  0
  -25.3753  -31.3683   26.1428 C   0  0  0  0  0  0
  -27.0292  -30.3055   24.5993 C   0  0  0  0  0  0
  -27.6062  -32.4300   25.7439 C   0  0  0  0  0  0
  -27.5584  -37.1812   24.8465 C   0  0  0  0  0  0
  -21.4121  -29.3025   22.3744 N   0  0  0  0  0  0
  -26.4298  -37.3804   23.9409 N   0  0  0  0  0  0
  -24.6623  -31.0827   22.0981 N   0  0  0  0  0  0
  -23.4173  -28.8216   23.3047 O   0  0  0  0  0  0
  -28.4017  -26.7364   20.0781 O   0  0  0  0  0  0
  -26.5602  -34.8939   22.4689 O   0  0  0  0  0  0
  -23.5320  -32.1433   23.7515 O   0  0  0  0  0  0
  -30.3065  -20.5260   18.4366 C   0  0  0  0  0  0
  -29.7574  -21.7140   18.9471 C   0  0  0  0  0  0
  -30.5560  -19.4622   19.3177 C   0  0  0  0  0  0
  -29.4911  -21.8024   20.3272 C   0  0  0  0  0  0
  -30.2440  -19.6207   20.6847 C   0  0  0  0  0  0
  -30.7449  -16.2664   22.2777 C   0  0  0  0  0  0
  -29.5740  -16.5620   20.6098 C   0  0  0  0  0  0
  -30.7521  -17.3363   21.1930 C   0  0  0  0  0  0
  -28.8802  -23.0489   20.9651 C   0  0  0  0  0  0
  -28.9070  -24.3380   20.1119 C   0  0  0  0  0  0
  -28.3694  -25.5558   20.8826 C   0  0  0  0  0  0
  -29.7346  -20.7732   21.1727 N   0  0  0  0  0  0
  -30.0737  -15.3699   21.3164 N   0  0  0  0  0  0
  -30.4104  -18.6448   21.6454 O   0  0  0  0  0  0
  -31.4662  -12.3871   19.1109 H   0  0  0  0  0  0
  -30.3211  -11.2681   19.7861 H   0  0  0  0  0  0
  -29.7265  -11.7981   17.4075 H   0  0  0  0  0  0
  -29.6681  -13.5019   17.7802 H   0  0  0  0  0  0
  -27.8248  -11.3116   18.8025 H   0  0  0  0  0  0
  -27.3659  -12.6535   17.7841 H   0  0  0  0  0  0
  -27.7209  -14.2494   19.5960 H   0  0  0  0  0  0
  -28.6643  -11.9117   21.3206 H   0  0  0  0  0  0
  -28.4587  -13.5404   21.8805 H   0  0  0  0  0  0
  -25.2729   -9.5715   22.4723 H   0  0  0  0  0  0
  -24.0000   -7.4644   22.7462 H   0  0  0  0  0  0
  -21.0800   -8.8753   19.8950 H   0  0  0  0  0  0
  -22.3639  -10.9660   19.6147 H   0  0  0  0  0  0
  -21.2023   -7.6131   23.9707 H   0  0  0  0  0  0
  -21.1478   -6.0500   25.9070 H   0  0  0  0  0  0
  -22.0600   -2.7594   23.2843 H   0  0  0  0  0  0
  -22.4115  -11.9966   22.4830 H   0  0  0  0  0  0
  -21.1111  -13.1320   22.2548 H   0  0  0  0  0  0
  -24.6746  -15.8458   20.5271 H   0  0  0  0  0  0
  -26.2983  -15.6237   20.1135 H   0  0  0  0  0  0
  -26.7091  -32.5573   23.1146 H   0  0  0  0  0  0
  -25.0012  -33.9800   25.0444 H   0  0  0  0  0  0
  -22.6840  -31.3065   21.4121 H   0  0  0  0  0  0
  -23.3747  -35.9661   23.3319 H   0  0  0  0  0  0
  -24.3581  -36.8920   22.2048 H   0  0  0  0  0  0
  -23.7251  -37.6537   23.6647 H   0  0  0  0  0  0
  -26.0165  -31.6114   20.5800 H   0  0  0  0  0  0
  -26.8157  -30.9133   21.9606 H   0  0  0  0  0  0
  -28.1031  -29.1431   21.1391 H   0  0  0  0  0  0
  -26.0811  -25.9673   19.0415 H   0  0  0  0  0  0
  -23.9767  -27.2744   19.0635 H   0  0  0  0  0  0
  -23.7071  -30.5930   19.4036 H   0  0  0  0  0  0
  -22.7292  -29.2370   19.8751 H   0  0  0  0  0  0
  -25.1289  -36.1984   25.0832 H   0  0  0  0  0  0
  -20.9951  -28.3232   24.1457 H   0  0  0  0  0  0
  -20.5675  -26.2261   23.3615 H   0  0  0  0  0  0
  -21.6642  -26.7454   22.1225 H   0  0  0  0  0  0
  -19.6917  -25.6305   21.1239 H   0  0  0  0  0  0
  -19.6709  -27.3208   20.6755 H   0  0  0  0  0  0
  -17.4201  -26.6687   21.4007 H   0  0  0  0  0  0
  -18.0312  -26.0071   22.9006 H   0  0  0  0  0  0
  -19.7930  -30.7256   24.2294 H   0  0  0  0  0  0
  -17.5016  -31.6274   24.5162 H   0  0  0  0  0  0
  -15.5347  -30.3006   23.7649 H   0  0  0  0  0  0
  -15.8658  -28.0853   22.7033 H   0  0  0  0  0  0
  -24.5920  -30.7046   25.7748 H   0  0  0  0  0  0
  -24.8947  -32.2830   26.4901 H   0  0  0  0  0  0
  -25.8110  -30.8821   27.0162 H   0  0  0  0  0  0
  -26.2796  -29.6808   24.1117 H   0  0  0  0  0  0
  -27.4173  -29.7295   25.4402 H   0  0  0  0  0  0
  -27.8582  -30.4399   23.9040 H   0  0  0  0  0  0
  -27.2694  -33.3582   26.2067 H   0  0  0  0  0  0
  -28.3845  -32.6884   25.0247 H   0  0  0  0  0  0
  -28.0758  -31.8380   26.5304 H   0  0  0  0  0  0
  -28.2615  -38.0096   24.7506 H   0  0  0  0  0  0
  -28.1066  -36.2629   24.6301 H   0  0  0  0  0  0
  -27.2303  -37.1480   25.8869 H   0  0  0  0  0  0
  -20.9271  -29.8734   21.6961 H   0  0  0  0  0  0
  -26.0190  -38.2882   24.1414 H   0  0  0  0  0  0
  -30.5276  -20.4268   17.3838 H   0  0  0  0  0  0
  -29.5492  -22.5329   18.2740 H   0  0  0  0  0  0
  -30.9760  -18.5521   18.9159 H   0  0  0  0  0  0
  -30.1246  -16.5183   23.1401 H   0  0  0  0  0  0
  -31.7427  -15.9566   22.5951 H   0  0  0  0  0  0
  -29.5852  -16.5078   19.5189 H   0  0  0  0  0  0
  -28.6010  -16.9032   20.9686 H   0  0  0  0  0  0
  -31.6673  -17.2885   20.5974 H   0  0  0  0  0  0
  -29.3959  -23.2357   21.9078 H   0  0  0  0  0  0
  -27.8472  -22.8152   21.2253 H   0  0  0  0  0  0
  -28.3118  -24.1974   19.2091 H   0  0  0  0  0  0
  -29.9289  -24.5414   19.7884 H   0  0  0  0  0  0
  -28.9886  -25.7397   21.7611 H   0  0  0  0  0  0
  -27.3683  -25.3390   21.2628 H   0  0  0  0  0  0
  1 25  1  0  0  0
  1 30  2  0  0  0
  1 83  1  0  0  0
  2  3  1  0  0  0
  2 25  1  0  0  0
  2 85  1  0  0  0
  2 86  1  0  0  0
  3  4  1  0  0  0
  3 87  1  0  0  0
  3 88  1  0  0  0
  4  5  1  0  0  0
  4 89  1  0  0  0
  4 90  1  0  0  0
  5  6  1  0  0  0
  5 26  1  0  0  0
  5 91  1  0  0  0
  6 25  1  0  0  0
  6 92  1  0  0  0
  6 93  1  0  0  0
  7  8  2  0  0  0
  7 26  1  0  0  0
  7 29  1  0  0  0
  8  9  1  0  0  0
  8 22  1  0  0  0
  9 10  1  0  0  0
  9 27  2  0  0  0
 10 11  2  0  0  0
 10 15  1  0  0  0
 11 12  1  0  0  0
 11 94  1  0  0  0
 12 13  2  0  0  0
 12 95  1  0  0  0
 13 14  1  0  0  0
 13 31  1  0  0  0
 14 15  2  0  0  0
 14 96  1  0  0  0
 15 97  1  0  0  0
 16 17  2  0  0  0
 16 21  1  0  0  0
 16 31  1  0  0  0
 17 18  1  0  0  0
 17 98  1  0  0  0
 18 19  2  0  0  0
 18 99  1  0  0  0
 19 20  1  0  0  0
 19 24  1  0  0  0
 20 21  2  0  0  0
 20100  1  0  0  0
 21 23  1  0  0  0
 22 28  1  0  0  0
 22 32  2  0  0  0
 26 27  1  0  0  0
 28101  1  0  0  0
 28102  1  0  0  0
 29103  1  0  0  0
 29104  1  0  0  0
 33 34  1  0  0  0
 33 66  1  0  0  0
 33 70  2  0  0  0
 34 36  1  0  0  0
 34 59  1  0  0  0
 34105  1  0  0  0
 35 44  2  0  0  0
 35 45  1  0  0  0
 35 68  1  0  0  0
 36 56  1  0  0  0
 36106  1  0  0  0
 37 39  1  0  0  0
 37 47  1  0  0  0
 37 66  1  0  0  0
 37107  1  0  0  0
 38 43  2  0  0  0
 38 46  1  0  0  0
 38 47  1  0  0  0
 39 64  1  0  0  0
 39 67  2  0  0  0
 40 52  1  0  0  0
 40 53  2  0  0  0
 40 58  1  0  0  0
 41108  1  0  0  0
 41109  1  0  0  0
 41110  1  0  0  0
 41 48  1  0  0  0
 42 43  1  0  0  0
 42 66  1  0  0  0
 42111  1  0  0  0
 42112  1  0  0  0
 43 44  1  0  0  0
 44113  1  0  0  0
 45 46  2  0  0  0
 45114  1  0  0  0
 46115  1  0  0  0
 47116  1  0  0  0
 47117  1  0  0  0
 48 56  1  0  0  0
 48 65  1  0  0  0
 48118  1  0  0  0
 49 50  1  0  0  0
 49 53  1  0  0  0
 49 64  1  0  0  0
 49119  1  0  0  0
 50 51  1  0  0  0
 50120  1  0  0  0
 50121  1  0  0  0
 51 52  1  0  0  0
 51122  1  0  0  0
 51123  1  0  0  0
 52124  1  0  0  0
 52125  1  0  0  0
 53 54  1  0  0  0
 54 55  2  0  0  0
 54126  1  0  0  0
 55 57  1  0  0  0
 55127  1  0  0  0
 56 69  2  0  0  0
 57 58  2  0  0  0
 57128  1  0  0  0
 58129  1  0  0  0
 59 60  1  0  0  0
 59 61  1  0  0  0
 59 62  1  0  0  0
 60130  1  0  0  0
 60131  1  0  0  0
 60132  1  0  0  0
 61133  1  0  0  0
 61134  1  0  0  0
 61135  1  0  0  0
 62136  1  0  0  0
 62137  1  0  0  0
 62138  1  0  0  0
 63 65  1  0  0  0
 63139  1  0  0  0
 63140  1  0  0  0
 63141  1  0  0  0
 64142  1  0  0  0
 65143  1  0  0  0
 68 81  1  0  0  0
 71 72  2  0  0  0
 71 73  1  0  0  0
 71144  1  0  0  0
 72 74  1  0  0  0
 72145  1  0  0  0
 73 75  2  0  0  0
 73146  1  0  0  0
 74 79  1  0  0  0
 74 82  2  0  0  0
 75 82  1  0  0  0
 75 84  1  0  0  0
 76 78  1  0  0  0
 76 83  1  0  0  0
 76147  1  0  0  0
 76148  1  0  0  0
 77 78  1  0  0  0
 77 83  1  0  0  0
 77149  1  0  0  0
 77150  1  0  0  0
 78 84  1  0  0  0
 78151  1  0  0  0
 79 80  1  0  0  0
 79152  1  0  0  0
 79153  1  0  0  0
 80 81  1  0  0  0
 80154  1  0  0  0
 80155  1  0  0  0
 81156  1  0  0  0
 81157  1  0  0  0
M  ISO  4   1 100  68 101  81 101  83 100
M  END
> <chiral flag>
0

> <version>
0

> <s_m_source_file>
/data/baiqing/PycharmProjects/Reinvent-master-3.2/result/LINK_invent/BTK/process_docking_weight1_custom_sum_contain_oxygen_bond_distance_aromatic_linkinvent_7_9_3/rearranged_h_0199.sdf

> <i_m_source_file_index>
29

> <r_mmod_Potential_Energy-OPLS-2005>
-195.680969238281

> <r_mmod_Stretch_Energy-OPLS-2005>
34.1099128723145

> <r_mmod_Bend_Energy-OPLS-2005>
102.626907348633

> <r_mmod_Torsional_Energy-OPLS-2005>
271.068420410156

> <r_mmod_Improper_Torsional_Energy-OPLS-2005>
9.91060256958008

> <r_mmod_Van_der_Waal_Energy-OPLS-2005>
164.733581542969

> <r_mmod_Electrostatic_Energy-OPLS-2005>
-571.368225097656

> <r_mmod_Solvation_Energy-OPLS-2005>
-214.899658203125

> <b_mmod_Minimization_Converged-OPLS-2005>
0

> <r_mmod_RMS_Derivative-OPLS-2005>
2.04361462593079

$$$$
29
                    3D
 Structure written by MMmdl.
160169  0  0  1  0            999 V2000
  -30.6474  -14.7207   20.4622 C   0  0  0  0  0  0
  -30.4240  -12.4415   19.4696 C   0  0  0  0  0  0
  -29.5038  -12.5035   18.2321 C   0  0  0  0  0  0
  -28.0308  -12.3344   18.6487 C   0  0  0  0  0  0
  -27.6413  -13.2342   19.8526 C   0  0  2  0  0  0
  -28.6886  -13.1685   20.9855 C   0  0  0  0  0  0
  -25.2510  -13.8210   20.5713 C   0  0  0  0  0  0
  -24.1798  -13.0450   20.9212 C   0  0  0  0  0  0
  -24.6395  -11.6928   20.8756 C   0  0  0  0  0  0
  -23.9073  -10.4300   21.0415 C   0  0  0  0  0  0
  -24.3623   -9.4213   21.9190 C   0  0  0  0  0  0
  -23.6296   -8.2248   22.0757 C   0  0  0  0  0  0
  -22.4280   -8.0285   21.3544 C   0  0  0  0  0  0
  -21.9918   -9.0257   20.4645 C   0  0  0  0  0  0
  -22.7248  -10.2137   20.3062 C   0  0  0  0  0  0
  -21.6853   -6.0739   22.5281 C   0  0  0  0  0  0
  -21.4015   -6.5642   23.8214 C   0  0  0  0  0  0
  -21.3659   -5.6796   24.9175 C   0  0  0  0  0  0
  -21.6046   -4.3059   24.7225 C   0  0  0  0  0  0
  -21.8818   -3.8149   23.4348 C   0  0  0  0  0  0
  -21.9192   -4.6965   22.3405 C   0  0  0  0  0  0
  -22.7817  -13.5226   21.1863 C   0  0  0  0  0  0
  -22.1662   -4.2150   21.0983 F   0  0  0  0  0  0
  -21.5628   -3.4544   25.7737 F   0  0  0  0  0  0
  -29.9865  -13.5135   20.3946 N   0  0  0  0  0  0
  -26.2942  -12.9420   20.3318 N   0  0  0  0  0  0
  -25.9329  -11.6558   20.5778 N   0  0  0  0  0  0
  -22.0466  -12.8210   22.0418 N   0  0  0  0  0  0
  -25.4208  -15.1930   20.4120 N   0  0  0  0  0  0
  -31.8404  -14.7650   20.1455 O   0  0  0  0  0  0
  -21.6641   -6.8885   21.4244 O   0  0  0  0  0  0
  -22.3495  -14.5528   20.6711 O   0  0  0  0  0  0
  -24.6321  -31.8566   23.2024 C   0  0  0  0  0  0
  -25.9153  -32.4760   23.8356 C   0  0  1  0  0  0
  -27.2097  -27.2627   20.1156 C   0  0  0  0  0  0
  -25.5954  -33.8563   24.2276 N   0  0  0  0  0  0
  -23.4280  -30.4833   21.5463 C   0  0  2  0  0  0
  -24.8724  -28.9390   20.1091 C   0  0  0  0  0  0
  -22.7505  -29.4611   22.4917 C   0  0  0  0  0  0
  -18.0294  -28.1385   22.8485 C   0  0  0  0  0  0
  -24.1491  -36.7283   23.2637 C   0  0  0  0  0  0
  -25.9769  -30.7675   21.3862 C   0  0  0  0  0  0
  -26.0470  -29.3934   20.7222 C   0  0  0  0  0  0
  -27.2182  -28.5668   20.7193 C   0  0  0  0  0  0
  -26.0111  -26.8921   19.4577 C   0  0  0  0  0  0
  -24.8597  -27.6956   19.4672 C   0  0  0  0  0  0
  -23.6454  -29.8264   20.1600 C   0  0  0  0  0  0
  -25.4117  -36.3070   24.0328 C   0  0  1  0  0  0
  -20.5898  -28.3697   23.1263 C   0  0  2  0  0  0
  -20.6783  -26.9416   22.5403 C   0  0  0  0  0  0
  -19.5758  -26.6383   21.5205 C   0  0  0  0  0  0
  -18.1936  -26.7930   22.1615 C   0  0  0  0  0  0
  -19.1548  -28.8858   23.2870 C   0  0  0  0  0  0
  -18.9467  -30.1456   23.8889 C   0  0  0  0  0  0
  -17.6465  -30.6586   24.0559 C   0  0  0  0  0  0
  -25.9060  -34.9440   23.5101 C   0  0  0  0  0  0
  -16.5357  -29.9081   23.6333 C   0  0  0  0  0  0
  -16.7278  -28.6499   23.0358 C   0  0  0  0  0  0
  -26.4516  -31.6586   25.0747 C   0  0  0  0  0  0
  -25.3738  -31.3737   26.1466 C   0  0  0  0  0  0
  -27.0373  -30.2998   24.6254 C   0  0  0  0  0  0
  -27.6066  -32.4333   25.7523 C   0  0  0  0  0  0
  -27.5588  -37.1788   24.8456 C   0  0  0  0  0  0
  -21.4212  -29.3050   22.3656 N   0  0  0  0  0  0
  -26.4287  -37.3775   23.9417 N   0  0  0  0  0  0
  -24.6981  -31.0533   22.1005 N   0  0  0  0  0  0
  -23.4206  -28.8141   23.3007 O   0  0  0  0  0  0
  -28.2828  -26.3367   20.1872 O   0  0  0  0  0  0
  -26.5624  -34.8912   22.4663 O   0  0  0  0  0  0
  -23.5472  -32.1392   23.7311 O   0  0  0  0  0  0
  -29.7650  -21.8422   20.7014 C   0  0  0  0  0  0
  -30.2014  -23.9036   20.7964 C   0  0  0  0  0  0
  -29.4744  -18.0884   21.7542 C   0  0  0  0  0  0
  -30.3798  -18.3302   19.5113 C   0  0  0  0  0  0
  -29.1379  -16.5609   21.4748 C   0  0  0  0  0  0
  -29.9943  -16.8285   19.2205 C   0  0  0  0  0  0
  -29.4947  -19.0908   20.5446 C   0  0  0  0  0  0
  -32.1912  -25.4638   21.3956 C   0  0  0  0  0  0
  -27.9615  -24.9201   19.9153 C   0  0  0  0  0  0
  -30.7591  -22.7164   21.0452 N   0  0  0  0  0  0
  -28.6508  -22.4684   20.2535 N   0  0  0  0  0  0
  -28.9457  -23.8426   20.3384 N   0  0  0  0  0  0
  -29.9056  -15.9015   20.3863 N   0  0  0  0  0  0
  -30.0776  -20.4306   20.9216 N   0  0  0  0  0  0
  -30.8433  -25.1168   20.9779 N   0  0  0  0  0  0
  -31.4661  -12.5483   19.1635 H   0  0  0  0  0  0
  -30.3555  -11.4669   19.9556 H   0  0  0  0  0  0
  -29.7803  -11.7307   17.5140 H   0  0  0  0  0  0
  -29.6342  -13.4587   17.7204 H   0  0  0  0  0  0
  -27.8838  -11.2857   18.9100 H   0  0  0  0  0  0
  -27.3723  -12.5310   17.8024 H   0  0  0  0  0  0
  -27.6358  -14.2565   19.4738 H   0  0  0  0  0  0
  -28.7217  -12.1728   21.4293 H   0  0  0  0  0  0
  -28.4283  -13.8539   21.7919 H   0  0  0  0  0  0
  -25.2770   -9.5686   22.4758 H   0  0  0  0  0  0
  -24.0005   -7.4639   22.7473 H   0  0  0  0  0  0
  -21.0854   -8.8780   19.8945 H   0  0  0  0  0  0
  -22.3713  -10.9674   19.6169 H   0  0  0  0  0  0
  -21.2010   -7.6150   23.9721 H   0  0  0  0  0  0
  -21.1482   -6.0526   25.9081 H   0  0  0  0  0  0
  -22.0595   -2.7611   23.2852 H   0  0  0  0  0  0
  -22.4091  -11.9873   22.4800 H   0  0  0  0  0  0
  -21.1081  -13.1223   22.2627 H   0  0  0  0  0  0
  -24.6559  -15.8497   20.5224 H   0  0  0  0  0  0
  -26.2749  -15.6290   20.0895 H   0  0  0  0  0  0
  -26.7220  -32.5402   23.1095 H   0  0  0  0  0  0
  -25.0114  -33.9707   25.0430 H   0  0  0  0  0  0
  -22.7248  -31.3065   21.4048 H   0  0  0  0  0  0
  -23.3766  -35.9601   23.3270 H   0  0  0  0  0  0
  -24.3588  -36.8935   22.2057 H   0  0  0  0  0  0
  -23.7227  -37.6467   23.6682 H   0  0  0  0  0  0
  -26.1231  -31.5314   20.6213 H   0  0  0  0  0  0
  -26.8520  -30.8086   22.0231 H   0  0  0  0  0  0
  -28.1124  -28.9051   21.2236 H   0  0  0  0  0  0
  -25.9135  -25.9529   18.9354 H   0  0  0  0  0  0
  -23.9627  -27.3452   18.9752 H   0  0  0  0  0  0
  -23.7727  -30.6072   19.4095 H   0  0  0  0  0  0
  -22.7626  -29.2643   19.8502 H   0  0  0  0  0  0
  -25.1293  -36.1915   25.0820 H   0  0  0  0  0  0
  -20.9990  -28.3274   24.1383 H   0  0  0  0  0  0
  -20.5679  -26.2306   23.3608 H   0  0  0  0  0  0
  -21.6651  -26.7437   22.1199 H   0  0  0  0  0  0
  -19.6920  -25.6291   21.1241 H   0  0  0  0  0  0
  -19.6697  -27.3186   20.6733 H   0  0  0  0  0  0
  -17.4208  -26.6680   21.4016 H   0  0  0  0  0  0
  -18.0333  -26.0068   22.9008 H   0  0  0  0  0  0
  -19.7942  -30.7275   24.2259 H   0  0  0  0  0  0
  -17.5019  -31.6265   24.5161 H   0  0  0  0  0  0
  -15.5356  -30.2979   23.7663 H   0  0  0  0  0  0
  -15.8678  -28.0809   22.7085 H   0  0  0  0  0  0
  -24.5908  -30.7096   25.7794 H   0  0  0  0  0  0
  -24.8939  -32.2907   26.4891 H   0  0  0  0  0  0
  -25.8052  -30.8911   27.0245 H   0  0  0  0  0  0
  -26.2968  -29.6734   24.1267 H   0  0  0  0  0  0
  -27.4032  -29.7276   25.4791 H   0  0  0  0  0  0
  -27.8860  -30.4268   23.9528 H   0  0  0  0  0  0
  -27.2667  -33.3632   26.2095 H   0  0  0  0  0  0
  -28.3879  -32.6895   25.0356 H   0  0  0  0  0  0
  -28.0735  -31.8467   26.5444 H   0  0  0  0  0  0
  -28.2569  -38.0121   24.7552 H   0  0  0  0  0  0
  -28.1121  -36.2653   24.6218 H   0  0  0  0  0  0
  -27.2315  -37.1358   25.8859 H   0  0  0  0  0  0
  -20.9395  -29.8786   21.6873 H   0  0  0  0  0  0
  -26.0163  -38.2841   24.1448 H   0  0  0  0  0  0
  -30.4541  -18.1130   22.2334 H   0  0  0  0  0  0
  -28.7808  -18.4631   22.5081 H   0  0  0  0  0  0
  -30.3746  -18.8810   18.5696 H   0  0  0  0  0  0
  -31.4171  -18.3452   19.8505 H   0  0  0  0  0  0
  -28.0791  -16.4712   21.2288 H   0  0  0  0  0  0
  -29.2755  -15.9993   22.4003 H   0  0  0  0  0  0
  -30.6906  -16.4287   18.4814 H   0  0  0  0  0  0
  -29.0214  -16.8108   18.7276 H   0  0  0  0  0  0
  -28.4866  -19.2254   20.1494 H   0  0  0  0  0  0
  -32.2398  -26.5031   21.7223 H   0  0  0  0  0  0
  -32.8911  -25.3320   20.5695 H   0  0  0  0  0  0
  -32.5159  -24.8289   22.2213 H   0  0  0  0  0  0
  -27.0257  -24.6627   20.4131 H   0  0  0  0  0  0
  -27.8271  -24.8021   18.8392 H   0  0  0  0  0  0
  -30.9953  -20.3301   21.3410 H   0  0  0  0  0  0
  -30.2458  -25.9114   20.7525 H   0  0  0  0  0  0
  1 25  1  0  0  0
  1 30  2  0  0  0
  1 83  1  0  0  0
  2  3  1  0  0  0
  2 25  1  0  0  0
  2 86  1  0  0  0
  2 87  1  0  0  0
  3  4  1  0  0  0
  3 88  1  0  0  0
  3 89  1  0  0  0
  4  5  1  0  0  0
  4 90  1  0  0  0
  4 91  1  0  0  0
  5  6  1  0  0  0
  5 26  1  0  0  0
  5 92  1  0  0  0
  6 25  1  0  0  0
  6 93  1  0  0  0
  6 94  1  0  0  0
  7  8  2  0  0  0
  7 26  1  0  0  0
  7 29  1  0  0  0
  8  9  1  0  0  0
  8 22  1  0  0  0
  9 10  1  0  0  0
  9 27  2  0  0  0
 10 11  2  0  0  0
 10 15  1  0  0  0
 11 12  1  0  0  0
 11 95  1  0  0  0
 12 13  2  0  0  0
 12 96  1  0  0  0
 13 14  1  0  0  0
 13 31  1  0  0  0
 14 15  2  0  0  0
 14 97  1  0  0  0
 15 98  1  0  0  0
 16 17  2  0  0  0
 16 21  1  0  0  0
 16 31  1  0  0  0
 17 18  1  0  0  0
 17 99  1  0  0  0
 18 19  2  0  0  0
 18100  1  0  0  0
 19 20  1  0  0  0
 19 24  1  0  0  0
 20 21  2  0  0  0
 20101  1  0  0  0
 21 23  1  0  0  0
 22 28  1  0  0  0
 22 32  2  0  0  0
 26 27  1  0  0  0
 28102  1  0  0  0
 28103  1  0  0  0
 29104  1  0  0  0
 29105  1  0  0  0
 33 34  1  0  0  0
 33 66  1  0  0  0
 33 70  2  0  0  0
 34 36  1  0  0  0
 34 59  1  0  0  0
 34106  1  0  0  0
 35 44  2  0  0  0
 35 45  1  0  0  0
 35 68  1  0  0  0
 36 56  1  0  0  0
 36107  1  0  0  0
 37 39  1  0  0  0
 37 47  1  0  0  0
 37 66  1  0  0  0
 37108  1  0  0  0
 38 43  2  0  0  0
 38 46  1  0  0  0
 38 47  1  0  0  0
 39 64  1  0  0  0
 39 67  2  0  0  0
 40 52  1  0  0  0
 40 53  2  0  0  0
 40 58  1  0  0  0
 41109  1  0  0  0
 41110  1  0  0  0
 41111  1  0  0  0
 41 48  1  0  0  0
 42 43  1  0  0  0
 42 66  1  0  0  0
 42112  1  0  0  0
 42113  1  0  0  0
 43 44  1  0  0  0
 44114  1  0  0  0
 45 46  2  0  0  0
 45115  1  0  0  0
 46116  1  0  0  0
 47117  1  0  0  0
 47118  1  0  0  0
 48 56  1  0  0  0
 48 65  1  0  0  0
 48119  1  0  0  0
 49 50  1  0  0  0
 49 53  1  0  0  0
 49 64  1  0  0  0
 49120  1  0  0  0
 50 51  1  0  0  0
 50121  1  0  0  0
 50122  1  0  0  0
 51 52  1  0  0  0
 51123  1  0  0  0
 51124  1  0  0  0
 52125  1  0  0  0
 52126  1  0  0  0
 53 54  1  0  0  0
 54 55  2  0  0  0
 54127  1  0  0  0
 55 57  1  0  0  0
 55128  1  0  0  0
 56 69  2  0  0  0
 57 58  2  0  0  0
 57129  1  0  0  0
 58130  1  0  0  0
 59 60  1  0  0  0
 59 61  1  0  0  0
 59 62  1  0  0  0
 60131  1  0  0  0
 60132  1  0  0  0
 60133  1  0  0  0
 61134  1  0  0  0
 61135  1  0  0  0
 61136  1  0  0  0
 62137  1  0  0  0
 62138  1  0  0  0
 62139  1  0  0  0
 63 65  1  0  0  0
 63140  1  0  0  0
 63141  1  0  0  0
 63142  1  0  0  0
 64143  1  0  0  0
 65144  1  0  0  0
 68 79  1  0  0  0
 71 80  1  0  0  0
 71 81  2  0  0  0
 71 84  1  0  0  0
 72 80  2  0  0  0
 72 82  1  0  0  0
 72 85  1  0  0  0
 73 75  1  0  0  0
 73 77  1  0  0  0
 73145  1  0  0  0
 73146  1  0  0  0
 74 76  1  0  0  0
 74 77  1  0  0  0
 74147  1  0  0  0
 74148  1  0  0  0
 75 83  1  0  0  0
 75149  1  0  0  0
 75150  1  0  0  0
 76 83  1  0  0  0
 76151  1  0  0  0
 76152  1  0  0  0
 77 84  1  0  0  0
 77153  1  0  0  0
 78 85  1  0  0  0
 78154  1  0  0  0
 78155  1  0  0  0
 78156  1  0  0  0
 79 82  1  0  0  0
 79157  1  0  0  0
 79158  1  0  0  0
 81 82  1  0  0  0
 84159  1  0  0  0
 85160  1  0  0  0
M  ISO  4   1 100  68 101  79 101  83 100
M  END
> <chiral flag>
0

> <version>
0

> <s_m_source_file>
/data/baiqing/PycharmProjects/Reinvent-master-3.2/result/LINK_invent/BTK/process_docking_weight1_custom_sum_contain_oxygen_bond_distance_aromatic_linkinvent_7_9_3/rearranged_h_0199.sdf

> <i_m_source_file_index>
30

> <r_mmod_Potential_Energy-OPLS-2005>
217.13395690918

> <r_mmod_Stretch_Energy-OPLS-2005>
106.179183959961

> <r_mmod_Bend_Energy-OPLS-2005>
218.714721679688

> <r_mmod_Torsional_Energy-OPLS-2005>
305.941619873047

> <r_mmod_Improper_Torsional_Energy-OPLS-2005>
16.3857612609863

> <r_mmod_Van_der_Waal_Energy-OPLS-2005>
122.367332458496

> <r_mmod_Electrostatic_Energy-OPLS-2005>
-403.983703613281

> <r_mmod_Solvation_Energy-OPLS-2005>
-231.879150390625

> <b_mmod_Minimization_Converged-OPLS-2005>
0

> <r_mmod_RMS_Derivative-OPLS-2005>
0.757890343666077

$$$$
30
                    3D
 Structure written by MMmdl.
162172  0  0  1  0            999 V2000
  -30.6625  -14.5797   20.5183 C   0  0  0  0  0  0
  -30.4281  -12.3603   19.4433 C   0  0  0  0  0  0
  -29.4997  -12.4940   18.2171 C   0  0  0  0  0  0
  -28.0224  -12.3450   18.6297 C   0  0  0  0  0  0
  -27.6525  -13.2144   19.8621 C   0  0  2  0  0  0
  -28.6969  -13.0615   20.9901 C   0  0  0  0  0  0
  -25.2555  -13.8167   20.5678 C   0  0  0  0  0  0
  -24.1827  -13.0433   20.9195 C   0  0  0  0  0  0
  -24.6399  -11.6907   20.8753 C   0  0  0  0  0  0
  -23.9065  -10.4301   21.0435 C   0  0  0  0  0  0
  -24.3626   -9.4209   21.9203 C   0  0  0  0  0  0
  -23.6312   -8.2242   22.0767 C   0  0  0  0  0  0
  -22.4291   -8.0293   21.3556 C   0  0  0  0  0  0
  -21.9930   -9.0257   20.4646 C   0  0  0  0  0  0
  -22.7252  -10.2139   20.3070 C   0  0  0  0  0  0
  -21.6848   -6.0752   22.5292 C   0  0  0  0  0  0
  -21.4007   -6.5661   23.8222 C   0  0  0  0  0  0
  -21.3651   -5.6813   24.9187 C   0  0  0  0  0  0
  -21.6043   -4.3077   24.7236 C   0  0  0  0  0  0
  -21.8812   -3.8166   23.4358 C   0  0  0  0  0  0
  -21.9193   -4.6980   22.3413 C   0  0  0  0  0  0
  -22.7852  -13.5226   21.1854 C   0  0  0  0  0  0
  -22.1666   -4.2165   21.0990 F   0  0  0  0  0  0
  -21.5620   -3.4555   25.7747 F   0  0  0  0  0  0
  -30.0164  -13.3805   20.4236 N   0  0  0  0  0  0
  -26.2984  -12.9345   20.3319 N   0  0  0  0  0  0
  -25.9320  -11.6504   20.5763 N   0  0  0  0  0  0
  -22.0493  -12.8212   22.0406 N   0  0  0  0  0  0
  -25.4259  -15.1877   20.4073 N   0  0  0  0  0  0
  -31.8242  -14.7317   20.1329 O   0  0  0  0  0  0
  -21.6644   -6.8900   21.4257 O   0  0  0  0  0  0
  -22.3542  -14.5548   20.6725 O   0  0  0  0  0  0
  -24.6224  -31.8637   23.2053 C   0  0  0  0  0  0
  -25.9086  -32.4796   23.8380 C   0  0  1  0  0  0
  -27.2232  -27.3593   20.1099 C   0  0  0  0  0  0
  -25.5927  -33.8597   24.2305 N   0  0  0  0  0  0
  -23.4144  -30.4868   21.5480 C   0  0  2  0  0  0
  -24.8609  -28.9491   20.1109 C   0  0  0  0  0  0
  -22.7454  -29.4635   22.4962 C   0  0  0  0  0  0
  -18.0283  -28.1377   22.8492 C   0  0  0  0  0  0
  -24.1491  -36.7301   23.2632 C   0  0  0  0  0  0
  -25.9514  -30.8043   21.3725 C   0  0  0  0  0  0
  -26.0274  -29.4352   20.7157 C   0  0  0  0  0  0
  -27.2146  -28.6510   20.7080 C   0  0  0  0  0  0
  -26.0427  -26.9252   19.4663 C   0  0  0  0  0  0
  -24.8685  -27.6980   19.4765 C   0  0  0  0  0  0
  -23.6261  -29.8224   20.1632 C   0  0  0  0  0  0
  -25.4114  -36.3096   24.0333 C   0  0  1  0  0  0
  -20.5877  -28.3681   23.1296 C   0  0  2  0  0  0
  -20.6771  -26.9409   22.5406 C   0  0  0  0  0  0
  -19.5746  -26.6386   21.5205 C   0  0  0  0  0  0
  -18.1930  -26.7924   22.1620 C   0  0  0  0  0  0
  -19.1532  -28.8848   23.2888 C   0  0  0  0  0  0
  -18.9456  -30.1451   23.8899 C   0  0  0  0  0  0
  -17.6457  -30.6582   24.0561 C   0  0  0  0  0  0
  -25.9050  -34.9462   23.5113 C   0  0  0  0  0  0
  -16.5349  -29.9082   23.6325 C   0  0  0  0  0  0
  -16.7269  -28.6495   23.0356 C   0  0  0  0  0  0
  -26.4485  -31.6582   25.0724 C   0  0  0  0  0  0
  -25.3739  -31.3688   26.1461 C   0  0  0  0  0  0
  -27.0313  -30.3017   24.6123 C   0  0  0  0  0  0
  -27.6055  -32.4303   25.7496 C   0  0  0  0  0  0
  -27.5586  -37.1800   24.8459 C   0  0  0  0  0  0
  -21.4173  -29.3043   22.3697 N   0  0  0  0  0  0
  -26.4292  -37.3788   23.9410 N   0  0  0  0  0  0
  -24.6813  -31.0678   22.0989 N   0  0  0  0  0  0
  -23.4195  -28.8170   23.3025 O   0  0  0  0  0  0
  -28.3369  -26.5205   20.1358 O   0  0  0  0  0  0
  -26.5614  -34.8918   22.4675 O   0  0  0  0  0  0
  -23.5399  -32.1413   23.7402 O   0  0  0  0  0  0
  -30.4685  -24.3598   20.0477 C   0  0  0  0  0  0
  -31.0004  -22.0918   19.8812 C   0  0  0  0  0  0
  -29.1279  -24.0479   20.3476 C   0  0  0  0  0  0
  -29.6549  -21.7315   20.1940 C   0  0  0  0  0  0
  -32.8899  -20.4123   20.6083 C   0  0  0  0  0  0
  -33.5571  -21.4338   19.7308 C   0  0  0  0  0  0
  -29.3095  -18.1021   21.5096 C   0  0  0  0  0  0
  -30.2047  -17.9725   19.7062 C   0  0  0  0  0  0
  -32.0869  -21.1098   19.5249 C   0  0  0  0  0  0
  -30.3330  -17.0843   20.9602 C   0  0  2  0  0  0
  -29.1051  -20.2627   20.1261 C   0  0  0  0  0  0
  -28.0840  -25.1615   20.6386 C   0  0  0  0  0  0
  -31.3886  -23.3935   19.8129 N   0  0  0  0  0  0
  -28.7335  -22.7301   20.4255 N   0  0  0  0  0  0
  -29.9054  -15.6515   20.8807 N   0  0  0  0  0  0
  -29.9493  -19.1134   20.6316 N   0  3  1  0  0  0
  -31.4712  -12.4661   19.1409 H   0  0  0  0  0  0
  -30.3426  -11.3657   19.8837 H   0  0  0  0  0  0
  -29.7532  -11.7436   17.4664 H   0  0  0  0  0  0
  -29.6513  -13.4643   17.7414 H   0  0  0  0  0  0
  -27.8506  -11.2921   18.8586 H   0  0  0  0  0  0
  -27.3715  -12.5840   17.7886 H   0  0  0  0  0  0
  -27.6755  -14.2508   19.5276 H   0  0  0  0  0  0
  -28.6918  -12.0412   21.3763 H   0  0  0  0  0  0
  -28.4520  -13.6991   21.8400 H   0  0  0  0  0  0
  -25.2767   -9.5682   22.4776 H   0  0  0  0  0  0
  -24.0019   -7.4627   22.7486 H   0  0  0  0  0  0
  -21.0863   -8.8783   19.8938 H   0  0  0  0  0  0
  -22.3729  -10.9686   19.6183 H   0  0  0  0  0  0
  -21.2001   -7.6169   23.9730 H   0  0  0  0  0  0
  -21.1472   -6.0549   25.9090 H   0  0  0  0  0  0
  -22.0594   -2.7625   23.2862 H   0  0  0  0  0  0
  -22.4130  -11.9870   22.4762 H   0  0  0  0  0  0
  -21.1103  -13.1213   22.2605 H   0  0  0  0  0  0
  -24.6520  -15.8372   20.5022 H   0  0  0  0  0  0
  -26.2599  -15.6188   20.0302 H   0  0  0  0  0  0
  -26.7151  -32.5484   23.1136 H   0  0  0  0  0  0
  -25.0090  -33.9758   25.0461 H   0  0  0  0  0  0
  -22.7065  -31.3060   21.4070 H   0  0  0  0  0  0
  -23.3764  -35.9620   23.3277 H   0  0  0  0  0  0
  -24.3585  -36.8940   22.2050 H   0  0  0  0  0  0
  -23.7225  -37.6490   23.6667 H   0  0  0  0  0  0
  -26.0767  -31.5686   20.6051 H   0  0  0  0  0  0
  -26.8348  -30.8546   21.9964 H   0  0  0  0  0  0
  -28.1111  -29.0163   21.1888 H   0  0  0  0  0  0
  -26.0144  -25.9799   18.9450 H   0  0  0  0  0  0
  -23.9790  -27.3270   18.9859 H   0  0  0  0  0  0
  -23.7379  -30.5974   19.4045 H   0  0  0  0  0  0
  -22.7487  -29.2468   19.8649 H   0  0  0  0  0  0
  -25.1284  -36.1957   25.0825 H   0  0  0  0  0  0
  -20.9967  -28.3247   24.1418 H   0  0  0  0  0  0
  -20.5669  -26.2291   23.3599 H   0  0  0  0  0  0
  -21.6643  -26.7444   22.1206 H   0  0  0  0  0  0
  -19.6912  -25.6296   21.1236 H   0  0  0  0  0  0
  -19.6682  -27.3192   20.6735 H   0  0  0  0  0  0
  -17.4196  -26.6675   21.4020 H   0  0  0  0  0  0
  -18.0329  -26.0059   22.9008 H   0  0  0  0  0  0
  -19.7931  -30.7269   24.2268 H   0  0  0  0  0  0
  -17.5009  -31.6262   24.5166 H   0  0  0  0  0  0
  -15.5350  -30.2986   23.7638 H   0  0  0  0  0  0
  -15.8669  -28.0807   22.7080 H   0  0  0  0  0  0
  -24.5934  -30.7011   25.7789 H   0  0  0  0  0  0
  -24.8911  -32.2842   26.4897 H   0  0  0  0  0  0
  -25.8099  -30.8869   27.0224 H   0  0  0  0  0  0
  -26.2857  -29.6787   24.1167 H   0  0  0  0  0  0
  -27.4054  -29.7242   25.4585 H   0  0  0  0  0  0
  -27.8714  -30.4313   23.9294 H   0  0  0  0  0  0
  -27.2669  -33.3596   26.2087 H   0  0  0  0  0  0
  -28.3866  -32.6872   25.0328 H   0  0  0  0  0  0
  -28.0721  -31.8419   26.5404 H   0  0  0  0  0  0
  -28.2584  -38.0118   24.7556 H   0  0  0  0  0  0
  -28.1112  -36.2660   24.6240 H   0  0  0  0  0  0
  -27.2312  -37.1385   25.8860 H   0  0  0  0  0  0
  -20.9342  -29.8787   21.6932 H   0  0  0  0  0  0
  -26.0183  -38.2860   24.1437 H   0  0  0  0  0  0
  -30.8059  -25.3850   19.9925 H   0  0  0  0  0  0
  -32.7306  -20.7004   21.6460 H   0  0  0  0  0  0
  -33.2021  -19.3812   20.4509 H   0  0  0  0  0  0
  -34.2629  -21.0633   18.9896 H   0  0  0  0  0  0
  -33.8286  -22.3799   20.1961 H   0  0  0  0  0  0
  -29.4070  -18.3207   22.5735 H   0  0  0  0  0  0
  -28.2724  -17.8824   21.2399 H   0  0  0  0  0  0
  -29.3528  -17.7228   19.0676 H   0  0  0  0  0  0
  -31.1208  -18.0676   19.1233 H   0  0  0  0  0  0
  -31.8306  -20.5492   18.6271 H   0  0  0  0  0  0
  -31.3137  -17.1993   21.4308 H   0  0  0  0  0  0
  -28.8466  -20.0748   19.0840 H   0  0  0  0  0  0
  -28.1560  -20.2435   20.6621 H   0  0  0  0  0  0
  -27.9937  -25.2337   21.7228 H   0  0  0  0  0  0
  -27.1301  -24.7662   20.2956 H   0  0  0  0  0  0
  -28.9555  -15.4393   21.1457 H   0  0  0  0  0  0
  -30.8004  -19.4406   21.0600 H   0  0  0  0  0  0
  1 25  1  0  0  0
  1 30  2  0  0  0
  1 85  1  0  0  0
  2  3  1  0  0  0
  2 25  1  0  0  0
  2 87  1  0  0  0
  2 88  1  0  0  0
  3  4  1  0  0  0
  3 89  1  0  0  0
  3 90  1  0  0  0
  4  5  1  0  0  0
  4 91  1  0  0  0
  4 92  1  0  0  0
  5  6  1  0  0  0
  5 26  1  0  0  0
  5 93  1  0  0  0
  6 25  1  0  0  0
  6 94  1  0  0  0
  6 95  1  0  0  0
  7  8  2  0  0  0
  7 26  1  0  0  0
  7 29  1  0  0  0
  8  9  1  0  0  0
  8 22  1  0  0  0
  9 10  1  0  0  0
  9 27  2  0  0  0
 10 11  2  0  0  0
 10 15  1  0  0  0
 11 12  1  0  0  0
 11 96  1  0  0  0
 12 13  2  0  0  0
 12 97  1  0  0  0
 13 14  1  0  0  0
 13 31  1  0  0  0
 14 15  2  0  0  0
 14 98  1  0  0  0
 15 99  1  0  0  0
 16 17  2  0  0  0
 16 21  1  0  0  0
 16 31  1  0  0  0
 17 18  1  0  0  0
 17100  1  0  0  0
 18 19  2  0  0  0
 18101  1  0  0  0
 19 20  1  0  0  0
 19 24  1  0  0  0
 20 21  2  0  0  0
 20102  1  0  0  0
 21 23  1  0  0  0
 22 28  1  0  0  0
 22 32  2  0  0  0
 26 27  1  0  0  0
 28103  1  0  0  0
 28104  1  0  0  0
 29105  1  0  0  0
 29106  1  0  0  0
 33 34  1  0  0  0
 33 66  1  0  0  0
 33 70  2  0  0  0
 34 36  1  0  0  0
 34 59  1  0  0  0
 34107  1  0  0  0
 35 44  2  0  0  0
 35 45  1  0  0  0
 35 68  1  0  0  0
 36 56  1  0  0  0
 36108  1  0  0  0
 37 39  1  0  0  0
 37 47  1  0  0  0
 37 66  1  0  0  0
 37109  1  0  0  0
 38 43  2  0  0  0
 38 46  1  0  0  0
 38 47  1  0  0  0
 39 64  1  0  0  0
 39 67  2  0  0  0
 40 52  1  0  0  0
 40 53  2  0  0  0
 40 58  1  0  0  0
 41110  1  0  0  0
 41111  1  0  0  0
 41112  1  0  0  0
 41 48  1  0  0  0
 42 43  1  0  0  0
 42 66  1  0  0  0
 42113  1  0  0  0
 42114  1  0  0  0
 43 44  1  0  0  0
 44115  1  0  0  0
 45 46  2  0  0  0
 45116  1  0  0  0
 46117  1  0  0  0
 47118  1  0  0  0
 47119  1  0  0  0
 48 56  1  0  0  0
 48 65  1  0  0  0
 48120  1  0  0  0
 49 50  1  0  0  0
 49 53  1  0  0  0
 49 64  1  0  0  0
 49121  1  0  0  0
 50 51  1  0  0  0
 50122  1  0  0  0
 50123  1  0  0  0
 51 52  1  0  0  0
 51124  1  0  0  0
 51125  1  0  0  0
 52126  1  0  0  0
 52127  1  0  0  0
 53 54  1  0  0  0
 54 55  2  0  0  0
 54128  1  0  0  0
 55 57  1  0  0  0
 55129  1  0  0  0
 56 69  2  0  0  0
 57 58  2  0  0  0
 57130  1  0  0  0
 58131  1  0  0  0
 59 60  1  0  0  0
 59 61  1  0  0  0
 59 62  1  0  0  0
 60132  1  0  0  0
 60133  1  0  0  0
 60134  1  0  0  0
 61135  1  0  0  0
 61136  1  0  0  0
 61137  1  0  0  0
 62138  1  0  0  0
 62139  1  0  0  0
 62140  1  0  0  0
 63 65  1  0  0  0
 63141  1  0  0  0
 63142  1  0  0  0
 63143  1  0  0  0
 64144  1  0  0  0
 65145  1  0  0  0
 68 82  1  0  0  0
 71 73  2  0  0  0
 71 83  1  0  0  0
 71146  1  0  0  0
 72 74  1  0  0  0
 72 83  2  0  0  0
 72 79  1  0  0  0
 73 82  1  0  0  0
 73 84  1  0  0  0
 74 81  1  0  0  0
 74 84  2  0  0  0
 75 76  1  0  0  0
 75 79  1  0  0  0
 75147  1  0  0  0
 75148  1  0  0  0
 76 79  1  0  0  0
 76149  1  0  0  0
 76150  1  0  0  0
 77 80  1  0  0  0
 77 86  1  0  0  0
 77151  1  0  0  0
 77152  1  0  0  0
 78 80  1  0  0  0
 78 86  1  0  0  0
 78153  1  0  0  0
 78154  1  0  0  0
 79155  1  0  0  0
 80 85  1  0  0  0
 80156  1  0  0  0
 81157  1  0  0  0
 81158  1  0  0  0
 81 86  1  0  0  0
 82159  1  0  0  0
 82160  1  0  0  0
 85161  1  0  0  0
 86162  1  0  0  0
M  CHG  1  86   1
M  ISO  4   1 100  68 101  82 101  85 100
M  END
> <chiral flag>
0

> <version>
0

> <s_m_source_file>
/data/baiqing/PycharmProjects/Reinvent-master-3.2/result/LINK_invent/BTK/process_docking_weight1_custom_sum_contain_oxygen_bond_distance_aromatic_linkinvent_7_9_3/rearranged_h_0199.sdf

> <i_m_source_file_index>
31

> <r_mmod_Potential_Energy-OPLS-2005>
-26.623176574707

> <r_mmod_Stretch_Energy-OPLS-2005>
67.4165496826172

> <r_mmod_Bend_Energy-OPLS-2005>
148.283401489258

> <r_mmod_Torsional_Energy-OPLS-2005>
283.859588623047

> <r_mmod_Improper_Torsional_Energy-OPLS-2005>
4.87427568435669

> <r_mmod_Van_der_Waal_Energy-OPLS-2005>
147.737091064453

> <r_mmod_Electrostatic_Energy-OPLS-2005>
-223.635940551758

> <r_mmod_Solvation_Energy-OPLS-2005>
-489.018493652344

> <b_mmod_Minimization_Converged-OPLS-2005>
0

> <r_mmod_RMS_Derivative-OPLS-2005>
1.59300601482391

$$$$
31
                    3D
 Structure written by MMmdl.
163172  0  0  1  0            999 V2000
  -30.7385  -14.3707   20.6290 C   0  0  0  0  0  0
  -30.4183  -12.2745   19.3930 C   0  0  0  0  0  0
  -29.4852  -12.5265   18.1895 C   0  0  0  0  0  0
  -28.0043  -12.3929   18.5984 C   0  0  0  0  0  0
  -27.6649  -13.1987   19.8797 C   0  0  2  0  0  0
  -28.7034  -12.9196   20.9896 C   0  0  0  0  0  0
  -25.2593  -13.8142   20.5663 C   0  0  0  0  0  0
  -24.1821  -13.0442   20.9141 C   0  0  0  0  0  0
  -24.6360  -11.6904   20.8703 C   0  0  0  0  0  0
  -23.9030  -10.4298   21.0378 C   0  0  0  0  0  0
  -24.3607   -9.4222   21.9165 C   0  0  0  0  0  0
  -23.6281   -8.2251   22.0755 C   0  0  0  0  0  0
  -22.4259   -8.0296   21.3546 C   0  0  0  0  0  0
  -21.9885   -9.0263   20.4640 C   0  0  0  0  0  0
  -22.7203  -10.2141   20.3031 C   0  0  0  0  0  0
  -21.6848   -6.0742   22.5276 C   0  0  0  0  0  0
  -21.4021   -6.5644   23.8214 C   0  0  0  0  0  0
  -21.3660   -5.6789   24.9176 C   0  0  0  0  0  0
  -21.6038   -4.3052   24.7212 C   0  0  0  0  0  0
  -21.8811   -3.8157   23.4328 C   0  0  0  0  0  0
  -21.9202   -4.6979   22.3397 C   0  0  0  0  0  0
  -22.7850  -13.5259   21.1799 C   0  0  0  0  0  0
  -22.1669   -4.2174   21.0969 F   0  0  0  0  0  0
  -21.5634   -3.4529   25.7717 F   0  0  0  0  0  0
  -30.0471  -13.2208   20.4511 N   0  0  0  0  0  0
  -26.3020  -12.9299   20.3344 N   0  0  0  0  0  0
  -25.9286  -11.6471   20.5730 N   0  0  0  0  0  0
  -22.0471  -12.8294   22.0364 N   0  0  0  0  0  0
  -25.4370  -15.1851   20.4133 N   0  0  0  0  0  0
  -31.8281  -14.6068   20.0954 O   0  0  0  0  0  0
  -21.6636   -6.8887   21.4233 O   0  0  0  0  0  0
  -22.3555  -14.5606   20.6704 O   0  0  0  0  0  0
  -24.6110  -31.8739   23.2175 C   0  0  0  0  0  0
  -25.9035  -32.4852   23.8436 C   0  0  1  0  0  0
  -27.2283  -27.4834   20.0808 C   0  0  0  0  0  0
  -25.5911  -33.8651   24.2383 N   0  0  0  0  0  0
  -23.3948  -30.4997   21.5576 C   0  0  2  0  0  0
  -24.8389  -28.9776   20.1134 C   0  0  0  0  0  0
  -22.7410  -29.4682   22.5030 C   0  0  0  0  0  0
  -18.0287  -28.1348   22.8516 C   0  0  0  0  0  0
  -24.1485  -36.7325   23.2634 C   0  0  0  0  0  0
  -25.9190  -30.8524   21.3631 C   0  0  0  0  0  0
  -25.9974  -29.4909   20.7116 C   0  0  0  0  0  0
  -27.1956  -28.7495   20.7011 C   0  0  0  0  0  0
  -26.0602  -26.9861   19.4580 C   0  0  0  0  0  0
  -24.8633  -27.7205   19.4862 C   0  0  0  0  0  0
  -23.6015  -29.8402   20.1681 C   0  0  0  0  0  0
  -25.4099  -36.3140   24.0348 C   0  0  1  0  0  0
  -20.5894  -28.3625   23.1365 C   0  0  2  0  0  0
  -20.6796  -26.9378   22.5442 C   0  0  0  0  0  0
  -19.5775  -26.6370   21.5244 C   0  0  0  0  0  0
  -18.1922  -26.7901   22.1624 C   0  0  0  0  0  0
  -19.1538  -28.8803   23.2944 C   0  0  0  0  0  0
  -18.9471  -30.1408   23.8942 C   0  0  0  0  0  0
  -17.6470  -30.6553   24.0587 C   0  0  0  0  0  0
  -25.9024  -34.9495   23.5161 C   0  0  0  0  0  0
  -16.5365  -29.9068   23.6317 C   0  0  0  0  0  0
  -16.7278  -28.6493   23.0345 C   0  0  0  0  0  0
  -26.4468  -31.6611   25.0733 C   0  0  0  0  0  0
  -25.3759  -31.3708   26.1496 C   0  0  0  0  0  0
  -27.0283  -30.3069   24.6065 C   0  0  0  0  0  0
  -27.6073  -32.4297   25.7484 C   0  0  0  0  0  0
  -27.5581  -37.1819   24.8462 C   0  0  0  0  0  0
  -21.4156  -29.3017   22.3796 N   0  0  0  0  0  0
  -26.4300  -37.3808   23.9411 N   0  0  0  0  0  0
  -24.6593  -31.0882   22.1048 N   0  0  0  0  0  0
  -23.4242  -28.8193   23.3006 O   0  0  0  0  0  0
  -28.3826  -26.7458   20.0954 O   0  0  0  0  0  0
  -26.5564  -34.8943   22.4703 O   0  0  0  0  0  0
  -23.5327  -32.1477   23.7612 O   0  0  0  0  0  0
  -28.4701  -18.8298   18.3914 C   0  0  0  0  0  0
  -29.1501  -17.6454   18.0843 C   0  0  0  0  0  0
  -28.4886  -19.2777   19.7141 C   0  0  0  0  0  0
  -29.8023  -17.4607   20.2587 C   0  0  0  0  0  0
  -26.9985  -20.3154   22.0351 C   0  0  0  0  0  0
  -26.4559  -20.0838   20.6240 C   0  0  0  0  0  0
  -28.1821  -21.0526   21.3993 C   0  0  2  0  0  0
  -30.4845  -16.6907   21.3801 C   0  0  0  0  0  0
  -28.1341  -22.5784   21.3584 C   0  0  0  0  0  0
  -29.3828  -24.5412   20.3988 C   0  0  0  0  0  0
  -28.2190  -25.4826   20.7362 C   0  0  0  0  0  0
  -29.8068  -16.9521   19.0309 N   0  0  0  0  0  0
  -29.1765  -18.5659   20.6237 N   0  0  0  0  0  0
  -27.7771  -20.4476   20.1160 N   0  0  0  0  0  0
  -30.1168  -15.2846   21.3702 N   0  0  0  0  0  0
  -28.9552  -23.1256   20.2553 N   0  3  0  0  0  0
  -31.4615  -12.3829   19.0899 H   0  0  0  0  0  0
  -30.3261  -11.2519   19.7605 H   0  0  0  0  0  0
  -29.7068  -11.8322   17.3784 H   0  0  0  0  0  0
  -29.6599  -13.5285   17.7927 H   0  0  0  0  0  0
  -27.7865  -11.3358   18.7543 H   0  0  0  0  0  0
  -27.3606  -12.7191   17.7797 H   0  0  0  0  0  0
  -27.7293  -14.2553   19.6220 H   0  0  0  0  0  0
  -28.6629  -11.8697   21.2848 H   0  0  0  0  0  0
  -28.4590  -13.4768   21.8943 H   0  0  0  0  0  0
  -25.2737   -9.5718   22.4761 H   0  0  0  0  0  0
  -24.0008   -7.4628   22.7466 H   0  0  0  0  0  0
  -21.0821   -8.8764   19.8934 H   0  0  0  0  0  0
  -22.3644  -10.9699   19.6165 H   0  0  0  0  0  0
  -21.2024   -7.6151   23.9720 H   0  0  0  0  0  0
  -21.1481   -6.0519   25.9071 H   0  0  0  0  0  0
  -22.0599   -2.7616   23.2814 H   0  0  0  0  0  0
  -22.4103  -12.0008   22.4819 H   0  0  0  0  0  0
  -21.1094  -13.1361   22.2554 H   0  0  0  0  0  0
  -24.6756  -15.8484   20.5168 H   0  0  0  0  0  0
  -26.3046  -15.6158   20.1197 H   0  0  0  0  0  0
  -26.7109  -32.5604   23.1210 H   0  0  0  0  0  0
  -25.0143  -33.9794   25.0589 H   0  0  0  0  0  0
  -22.6799  -31.3141   21.4247 H   0  0  0  0  0  0
  -23.3742  -35.9664   23.3313 H   0  0  0  0  0  0
  -24.3599  -36.8916   22.2049 H   0  0  0  0  0  0
  -23.7234  -37.6538   23.6621 H   0  0  0  0  0  0
  -26.0221  -31.6202   20.5955 H   0  0  0  0  0  0
  -26.8073  -30.9114   21.9778 H   0  0  0  0  0  0
  -28.0897  -29.1359   21.1752 H   0  0  0  0  0  0
  -26.0687  -26.0363   18.9462 H   0  0  0  0  0  0
  -23.9778  -27.3250   19.0078 H   0  0  0  0  0  0
  -23.7080  -30.6189   19.4114 H   0  0  0  0  0  0
  -22.7242  -29.2611   19.8714 H   0  0  0  0  0  0
  -25.1269  -36.2025   25.0838 H   0  0  0  0  0  0
  -21.0007  -28.3178   24.1484 H   0  0  0  0  0  0
  -20.5753  -26.2230   23.3620 H   0  0  0  0  0  0
  -21.6658  -26.7467   22.1209 H   0  0  0  0  0  0
  -19.6952  -25.6297   21.1267 H   0  0  0  0  0  0
  -19.6681  -27.3219   20.6804 H   0  0  0  0  0  0
  -17.4224  -26.6687   21.3991 H   0  0  0  0  0  0
  -18.0281  -26.0012   22.8994 H   0  0  0  0  0  0
  -19.7942  -30.7213   24.2339 H   0  0  0  0  0  0
  -17.4999  -31.6220   24.5206 H   0  0  0  0  0  0
  -15.5353  -30.2967   23.7591 H   0  0  0  0  0  0
  -15.8674  -28.0829   22.7005 H   0  0  0  0  0  0
  -24.5926  -30.7049   25.7843 H   0  0  0  0  0  0
  -24.8940  -32.2856   26.4969 H   0  0  0  0  0  0
  -25.8123  -30.8875   27.0250 H   0  0  0  0  0  0
  -26.2812  -29.6839   24.1135 H   0  0  0  0  0  0
  -27.4092  -29.7291   25.4496 H   0  0  0  0  0  0
  -27.8631  -30.4393   23.9181 H   0  0  0  0  0  0
  -27.2730  -33.3591   26.2115 H   0  0  0  0  0  0
  -28.3858  -32.6870   25.0284 H   0  0  0  0  0  0
  -28.0767  -31.8384   26.5360 H   0  0  0  0  0  0
  -28.2612  -38.0102   24.7498 H   0  0  0  0  0  0
  -28.1062  -36.2638   24.6293 H   0  0  0  0  0  0
  -27.2306  -37.1480   25.8867 H   0  0  0  0  0  0
  -20.9303  -29.8823   21.7106 H   0  0  0  0  0  0
  -26.0203  -38.2897   24.1398 H   0  0  0  0  0  0
  -27.9404  -19.3756   17.6209 H   0  0  0  0  0  0
  -29.1534  -17.2444   17.0792 H   0  0  0  0  0  0
  -27.2760  -19.3950   22.5524 H   0  0  0  0  0  0
  -26.3628  -20.9448   22.6577 H   0  0  0  0  0  0
  -25.6958  -20.8032   20.3204 H   0  0  0  0  0  0
  -26.1487  -19.0564   20.4184 H   0  0  0  0  0  0
  -29.1421  -20.6970   21.7777 H   0  0  0  0  0  0
  -30.1950  -17.1009   22.3495 H   0  0  0  0  0  0
  -31.5648  -16.8259   21.3040 H   0  0  0  0  0  0
  -28.5040  -22.9676   22.3089 H   0  0  0  0  0  0
  -27.1026  -22.9239   21.2672 H   0  0  0  0  0  0
  -30.1616  -24.6269   21.1583 H   0  0  0  0  0  0
  -29.8373  -24.8473   19.4552 H   0  0  0  0  0  0
  -28.1613  -25.6335   21.8167 H   0  0  0  0  0  0
  -27.2819  -25.0139   20.4409 H   0  0  0  0  0  0
  -29.2197  -15.0421   21.7582 H   0  0  0  0  0  0
  -28.4221  -23.0147   19.4037 H   0  0  0  0  0  0
  -29.7771  -22.5514   20.1613 H   0  0  0  0  0  0
  1 25  1  0  0  0
  1 30  2  0  0  0
  1 85  1  0  0  0
  2  3  1  0  0  0
  2 25  1  0  0  0
  2 87  1  0  0  0
  2 88  1  0  0  0
  3  4  1  0  0  0
  3 89  1  0  0  0
  3 90  1  0  0  0
  4  5  1  0  0  0
  4 91  1  0  0  0
  4 92  1  0  0  0
  5  6  1  0  0  0
  5 26  1  0  0  0
  5 93  1  0  0  0
  6 25  1  0  0  0
  6 94  1  0  0  0
  6 95  1  0  0  0
  7  8  2  0  0  0
  7 26  1  0  0  0
  7 29  1  0  0  0
  8  9  1  0  0  0
  8 22  1  0  0  0
  9 10  1  0  0  0
  9 27  2  0  0  0
 10 11  2  0  0  0
 10 15  1  0  0  0
 11 12  1  0  0  0
 11 96  1  0  0  0
 12 13  2  0  0  0
 12 97  1  0  0  0
 13 14  1  0  0  0
 13 31  1  0  0  0
 14 15  2  0  0  0
 14 98  1  0  0  0
 15 99  1  0  0  0
 16 17  2  0  0  0
 16 21  1  0  0  0
 16 31  1  0  0  0
 17 18  1  0  0  0
 17100  1  0  0  0
 18 19  2  0  0  0
 18101  1  0  0  0
 19 20  1  0  0  0
 19 24  1  0  0  0
 20 21  2  0  0  0
 20102  1  0  0  0
 21 23  1  0  0  0
 22 28  1  0  0  0
 22 32  2  0  0  0
 26 27  1  0  0  0
 28103  1  0  0  0
 28104  1  0  0  0
 29105  1  0  0  0
 29106  1  0  0  0
 33 34  1  0  0  0
 33 66  1  0  0  0
 33 70  2  0  0  0
 34 36  1  0  0  0
 34 59  1  0  0  0
 34107  1  0  0  0
 35 44  2  0  0  0
 35 45  1  0  0  0
 35 68  1  0  0  0
 36 56  1  0  0  0
 36108  1  0  0  0
 37 39  1  0  0  0
 37 47  1  0  0  0
 37 66  1  0  0  0
 37109  1  0  0  0
 38 43  2  0  0  0
 38 46  1  0  0  0
 38 47  1  0  0  0
 39 64  1  0  0  0
 39 67  2  0  0  0
 40 52  1  0  0  0
 40 53  2  0  0  0
 40 58  1  0  0  0
 41110  1  0  0  0
 41111  1  0  0  0
 41112  1  0  0  0
 41 48  1  0  0  0
 42 43  1  0  0  0
 42 66  1  0  0  0
 42113  1  0  0  0
 42114  1  0  0  0
 43 44  1  0  0  0
 44115  1  0  0  0
 45 46  2  0  0  0
 45116  1  0  0  0
 46117  1  0  0  0
 47118  1  0  0  0
 47119  1  0  0  0
 48 56  1  0  0  0
 48 65  1  0  0  0
 48120  1  0  0  0
 49 50  1  0  0  0
 49 53  1  0  0  0
 49 64  1  0  0  0
 49121  1  0  0  0
 50 51  1  0  0  0
 50122  1  0  0  0
 50123  1  0  0  0
 51 52  1  0  0  0
 51124  1  0  0  0
 51125  1  0  0  0
 52126  1  0  0  0
 52127  1  0  0  0
 53 54  1  0  0  0
 54 55  2  0  0  0
 54128  1  0  0  0
 55 57  1  0  0  0
 55129  1  0  0  0
 56 69  2  0  0  0
 57 58  2  0  0  0
 57130  1  0  0  0
 58131  1  0  0  0
 59 60  1  0  0  0
 59 61  1  0  0  0
 59 62  1  0  0  0
 60132  1  0  0  0
 60133  1  0  0  0
 60134  1  0  0  0
 61135  1  0  0  0
 61136  1  0  0  0
 61137  1  0  0  0
 62138  1  0  0  0
 62139  1  0  0  0
 62140  1  0  0  0
 63 65  1  0  0  0
 63141  1  0  0  0
 63142  1  0  0  0
 63143  1  0  0  0
 64144  1  0  0  0
 65145  1  0  0  0
 68 81  1  0  0  0
 71 72  2  0  0  0
 71 73  1  0  0  0
 71146  1  0  0  0
 72 82  1  0  0  0
 72147  1  0  0  0
 73 83  2  0  0  0
 73 84  1  0  0  0
 74 78  1  0  0  0
 74 82  2  0  0  0
 74 83  1  0  0  0
 75 76  1  0  0  0
 75 77  1  0  0  0
 75148  1  0  0  0
 75149  1  0  0  0
 76 84  1  0  0  0
 76150  1  0  0  0
 76151  1  0  0  0
 77 79  1  0  0  0
 77 84  1  0  0  0
 77152  1  0  0  0
 78 85  1  0  0  0
 78153  1  0  0  0
 78154  1  0  0  0
 79 86  1  0  0  0
 79155  1  0  0  0
 79156  1  0  0  0
 80 81  1  0  0  0
 80 86  1  0  0  0
 80157  1  0  0  0
 80158  1  0  0  0
 81159  1  0  0  0
 81160  1  0  0  0
 85161  1  0  0  0
 86162  1  0  0  0
 86163  1  0  0  0
M  CHG  1  86   1
M  ISO  4   1 100  68 101  81 101  85 100
M  END
> <chiral flag>
0

> <version>
0

> <s_m_source_file>
/data/baiqing/PycharmProjects/Reinvent-master-3.2/result/LINK_invent/BTK/process_docking_weight1_custom_sum_contain_oxygen_bond_distance_aromatic_linkinvent_7_9_3/rearranged_h_0199.sdf

> <i_m_source_file_index>
32

> <r_mmod_Potential_Energy-OPLS-2005>
-855.845520019531

> <r_mmod_Stretch_Energy-OPLS-2005>
31.4921493530273

> <r_mmod_Bend_Energy-OPLS-2005>
104.737411499023

> <r_mmod_Torsional_Energy-OPLS-2005>
266.584655761719

> <r_mmod_Improper_Torsional_Energy-OPLS-2005>
10.9874773025513

> <r_mmod_Van_der_Waal_Energy-OPLS-2005>
185.175216674805

> <r_mmod_Electrostatic_Energy-OPLS-2005>
-993.730163574219

> <r_mmod_Solvation_Energy-OPLS-2005>
-469.600677490234

> <b_mmod_Minimization_Converged-OPLS-2005>
0

> <r_mmod_RMS_Derivative-OPLS-2005>
4.44700050354004

$$$$
32
                    3D
 Structure written by MMmdl.
155164  0  0  1  0            999 V2000
  -30.6664  -14.5651   20.5152 C   0  0  0  0  0  0
  -30.4248  -12.3491   19.4417 C   0  0  0  0  0  0
  -29.5004  -12.5018   18.2156 C   0  0  0  0  0  0
  -28.0216  -12.3527   18.6263 C   0  0  0  0  0  0
  -27.6530  -13.2123   19.8655 C   0  0  2  0  0  0
  -28.6975  -13.0561   20.9926 C   0  0  0  0  0  0
  -25.2561  -13.8164   20.5698 C   0  0  0  0  0  0
  -24.1817  -13.0431   20.9179 C   0  0  0  0  0  0
  -24.6383  -11.6901   20.8730 C   0  0  0  0  0  0
  -23.9055  -10.4287   21.0398 C   0  0  0  0  0  0
  -24.3610   -9.4203   21.9175 C   0  0  0  0  0  0
  -23.6287   -8.2239   22.0749 C   0  0  0  0  0  0
  -22.4268   -8.0275   21.3540 C   0  0  0  0  0  0
  -21.9899   -9.0249   20.4644 C   0  0  0  0  0  0
  -22.7227  -10.2129   20.3048 C   0  0  0  0  0  0
  -21.6853   -6.0730   22.5276 C   0  0  0  0  0  0
  -21.4018   -6.5635   23.8211 C   0  0  0  0  0  0
  -21.3661   -5.6787   24.9172 C   0  0  0  0  0  0
  -21.6045   -4.3050   24.7224 C   0  0  0  0  0  0
  -21.8818   -3.8142   23.4345 C   0  0  0  0  0  0
  -21.9193   -4.6958   22.3401 C   0  0  0  0  0  0
  -22.7843  -13.5228   21.1844 C   0  0  0  0  0  0
  -22.1660   -4.2142   21.0979 F   0  0  0  0  0  0
  -21.5627   -3.4535   25.7739 F   0  0  0  0  0  0
  -30.0172  -13.3670   20.4249 N   0  0  0  0  0  0
  -26.2986  -12.9336   20.3341 N   0  0  0  0  0  0
  -25.9310  -11.6494   20.5755 N   0  0  0  0  0  0
  -22.0489  -12.8230   22.0411 N   0  0  0  0  0  0
  -25.4286  -15.1889   20.4152 N   0  0  0  0  0  0
  -31.8343  -14.7056   20.1405 O   0  0  0  0  0  0
  -21.6634   -6.8873   21.4237 O   0  0  0  0  0  0
  -22.3529  -14.5531   20.6687 O   0  0  0  0  0  0
  -24.6204  -31.8641   23.2061 C   0  0  0  0  0  0
  -25.9070  -32.4803   23.8381 C   0  0  1  0  0  0
  -27.2247  -27.3747   20.1142 C   0  0  0  0  0  0
  -25.5901  -33.8602   24.2300 N   0  0  0  0  0  0
  -23.4118  -30.4875   21.5476 C   0  0  2  0  0  0
  -24.8592  -28.9492   20.1123 C   0  0  0  0  0  0
  -22.7446  -29.4643   22.4959 C   0  0  0  0  0  0
  -18.0281  -28.1388   22.8492 C   0  0  0  0  0  0
  -24.1485  -36.7312   23.2640 C   0  0  0  0  0  0
  -25.9481  -30.8114   21.3706 C   0  0  0  0  0  0
  -26.0242  -29.4433   20.7140 C   0  0  0  0  0  0
  -27.2138  -28.6660   20.7066 C   0  0  0  0  0  0
  -26.0459  -26.9205   19.4845 C   0  0  0  0  0  0
  -24.8682  -27.6901   19.4901 C   0  0  0  0  0  0
  -23.6240  -29.8223   20.1625 C   0  0  0  0  0  0
  -25.4108  -36.3095   24.0332 C   0  0  1  0  0  0
  -20.5878  -28.3680   23.1302 C   0  0  2  0  0  0
  -20.6769  -26.9408   22.5418 C   0  0  0  0  0  0
  -19.5742  -26.6387   21.5219 C   0  0  0  0  0  0
  -18.1923  -26.7932   22.1630 C   0  0  0  0  0  0
  -19.1532  -28.8848   23.2894 C   0  0  0  0  0  0
  -18.9459  -30.1455   23.8906 C   0  0  0  0  0  0
  -17.6458  -30.6590   24.0568 C   0  0  0  0  0  0
  -25.9040  -34.9464   23.5115 C   0  0  0  0  0  0
  -16.5349  -29.9094   23.6329 C   0  0  0  0  0  0
  -16.7269  -28.6513   23.0346 C   0  0  0  0  0  0
  -26.4467  -31.6603   25.0738 C   0  0  0  0  0  0
  -25.3714  -31.3739   26.1480 C   0  0  0  0  0  0
  -27.0309  -30.3034   24.6174 C   0  0  0  0  0  0
  -27.6028  -32.4343   25.7504 C   0  0  0  0  0  0
  -27.5576  -37.1812   24.8460 C   0  0  0  0  0  0
  -21.4166  -29.3041   22.3704 N   0  0  0  0  0  0
  -26.4288  -37.3785   23.9406 N   0  0  0  0  0  0
  -24.6783  -31.0703   22.0986 N   0  0  0  0  0  0
  -23.4195  -28.8181   23.3016 O   0  0  0  0  0  0
  -28.3457  -26.5530   20.1371 O   0  0  0  0  0  0
  -26.5612  -34.8919   22.4683 O   0  0  0  0  0  0
  -23.5381  -32.1413   23.7422 O   0  0  0  0  0  0
  -28.1591  -20.2838   22.0296 C   0  0  0  0  0  0
  -27.5534  -21.5407   22.4165 C   0  0  0  0  0  0
  -29.0395  -20.2567   20.9986 C   0  0  0  0  0  0
  -29.3719  -21.5303   20.2868 C   0  0  0  0  0  0
  -29.4576  -16.6165   19.8220 C   0  0  0  0  0  0
  -30.4245  -16.8157   21.6075 C   0  0  0  0  0  0
  -29.3282  -17.6565   20.9388 C   0  0  0  0  0  0
  -28.9611  -24.0187   20.1362 C   0  0  0  0  0  0
  -28.1432  -25.2305   20.7310 C   0  0  0  0  0  0
  -27.8296  -22.6485   21.8130 N   0  0  0  0  0  0
  -28.7295  -22.6651   20.7535 N   0  0  0  0  0  0
  -29.9060  -15.6463   20.8519 N   0  0  0  0  0  0
  -29.6599  -19.0585   20.5756 N   0  0  0  0  0  0
  -30.1637  -21.5740   19.3431 O   0  0  0  0  0  0
  -31.4694  -12.4517   19.1427 H   0  0  0  0  0  0
  -30.3339  -11.3507   19.8729 H   0  0  0  0  0  0
  -29.7545  -11.7595   17.4575 H   0  0  0  0  0  0
  -29.6572  -13.4781   17.7531 H   0  0  0  0  0  0
  -27.8434  -11.2987   18.8423 H   0  0  0  0  0  0
  -27.3714  -12.6039   17.7874 H   0  0  0  0  0  0
  -27.6737  -14.2489   19.5348 H   0  0  0  0  0  0
  -28.6907  -12.0394   21.3877 H   0  0  0  0  0  0
  -28.4577  -13.7090   21.8333 H   0  0  0  0  0  0
  -25.2759   -9.5679   22.4743 H   0  0  0  0  0  0
  -23.9998   -7.4630   22.7465 H   0  0  0  0  0  0
  -21.0831   -8.8768   19.8953 H   0  0  0  0  0  0
  -22.3685  -10.9665   19.6155 H   0  0  0  0  0  0
  -21.2013   -7.6143   23.9715 H   0  0  0  0  0  0
  -21.1484   -6.0515   25.9074 H   0  0  0  0  0  0
  -22.0597   -2.7604   23.2845 H   0  0  0  0  0  0
  -22.4112  -11.9903   22.4816 H   0  0  0  0  0  0
  -21.1102  -13.1249   22.2611 H   0  0  0  0  0  0
  -24.6679  -15.8482   20.5373 H   0  0  0  0  0  0
  -26.2967  -15.6297   20.1395 H   0  0  0  0  0  0
  -26.7141  -32.5490   23.1142 H   0  0  0  0  0  0
  -25.0032  -33.9752   25.0429 H   0  0  0  0  0  0
  -22.7029  -31.3059   21.4069 H   0  0  0  0  0  0
  -23.3735  -35.9656   23.3310 H   0  0  0  0  0  0
  -24.3570  -36.8921   22.2050 H   0  0  0  0  0  0
  -23.7247  -37.6523   23.6657 H   0  0  0  0  0  0
  -26.0743  -31.5775   20.6044 H   0  0  0  0  0  0
  -26.8303  -30.8587   21.9977 H   0  0  0  0  0  0
  -28.1108  -29.0378   21.1817 H   0  0  0  0  0  0
  -26.0294  -25.9569   18.9943 H   0  0  0  0  0  0
  -23.9761  -27.3062   19.0143 H   0  0  0  0  0  0
  -23.7374  -30.5982   19.4046 H   0  0  0  0  0  0
  -22.7460  -29.2473   19.8638 H   0  0  0  0  0  0
  -25.1286  -36.1954   25.0825 H   0  0  0  0  0  0
  -20.9970  -28.3254   24.1421 H   0  0  0  0  0  0
  -20.5674  -26.2287   23.3614 H   0  0  0  0  0  0
  -21.6639  -26.7447   22.1207 H   0  0  0  0  0  0
  -19.6899  -25.6300   21.1245 H   0  0  0  0  0  0
  -19.6678  -27.3201   20.6754 H   0  0  0  0  0  0
  -17.4191  -26.6680   21.4034 H   0  0  0  0  0  0
  -18.0320  -26.0078   22.9030 H   0  0  0  0  0  0
  -19.7936  -30.7271   24.2273 H   0  0  0  0  0  0
  -17.5017  -31.6268   24.5178 H   0  0  0  0  0  0
  -15.5350  -30.2999   23.7651 H   0  0  0  0  0  0
  -15.8670  -28.0840   22.7046 H   0  0  0  0  0  0
  -24.5865  -30.7111   25.7817 H   0  0  0  0  0  0
  -24.8934  -32.2908   26.4942 H   0  0  0  0  0  0
  -25.8051  -30.8891   27.0235 H   0  0  0  0  0  0
  -26.2888  -29.6804   24.1171 H   0  0  0  0  0  0
  -27.3981  -29.7270   25.4674 H   0  0  0  0  0  0
  -27.8762  -30.4326   23.9411 H   0  0  0  0  0  0
  -27.2630  -33.3626   26.2113 H   0  0  0  0  0  0
  -28.3820  -32.6940   25.0326 H   0  0  0  0  0  0
  -28.0721  -31.8459   26.5399 H   0  0  0  0  0  0
  -28.2601  -38.0103   24.7501 H   0  0  0  0  0  0
  -28.1063  -36.2634   24.6290 H   0  0  0  0  0  0
  -27.2296  -37.1470   25.8864 H   0  0  0  0  0  0
  -20.9332  -29.8772   21.6930 H   0  0  0  0  0  0
  -26.0171  -38.2862   24.1404 H   0  0  0  0  0  0
  -27.8897  -19.3996   22.5864 H   0  0  0  0  0  0
  -26.8497  -21.4900   23.2480 H   0  0  0  0  0  0
  -30.2180  -16.8533   19.0729 H   0  0  0  0  0  0
  -28.5067  -16.3809   19.3449 H   0  0  0  0  0  0
  -30.3143  -16.7436   22.6904 H   0  0  0  0  0  0
  -31.4424  -17.1106   21.3385 H   0  0  0  0  0  0
  -28.3682  -17.5582   21.4495 H   0  0  0  0  0  0
  -30.0246  -24.2492   20.2085 H   0  0  0  0  0  0
  -28.7420  -23.9460   19.0699 H   0  0  0  0  0  0
  -28.3986  -25.3337   21.7863 H   0  0  0  0  0  0
  -27.0895  -24.9527   20.7230 H   0  0  0  0  0  0
  -30.3114  -19.1710   19.8028 H   0  0  0  0  0  0
  1 25  1  0  0  0
  1 30  2  0  0  0
  1 82  1  0  0  0
  2  3  1  0  0  0
  2 25  1  0  0  0
  2 85  1  0  0  0
  2 86  1  0  0  0
  3  4  1  0  0  0
  3 87  1  0  0  0
  3 88  1  0  0  0
  4  5  1  0  0  0
  4 89  1  0  0  0
  4 90  1  0  0  0
  5  6  1  0  0  0
  5 26  1  0  0  0
  5 91  1  0  0  0
  6 25  1  0  0  0
  6 92  1  0  0  0
  6 93  1  0  0  0
  7  8  2  0  0  0
  7 26  1  0  0  0
  7 29  1  0  0  0
  8  9  1  0  0  0
  8 22  1  0  0  0
  9 10  1  0  0  0
  9 27  2  0  0  0
 10 11  2  0  0  0
 10 15  1  0  0  0
 11 12  1  0  0  0
 11 94  1  0  0  0
 12 13  2  0  0  0
 12 95  1  0  0  0
 13 14  1  0  0  0
 13 31  1  0  0  0
 14 15  2  0  0  0
 14 96  1  0  0  0
 15 97  1  0  0  0
 16 17  2  0  0  0
 16 21  1  0  0  0
 16 31  1  0  0  0
 17 18  1  0  0  0
 17 98  1  0  0  0
 18 19  2  0  0  0
 18 99  1  0  0  0
 19 20  1  0  0  0
 19 24  1  0  0  0
 20 21  2  0  0  0
 20100  1  0  0  0
 21 23  1  0  0  0
 22 28  1  0  0  0
 22 32  2  0  0  0
 26 27  1  0  0  0
 28101  1  0  0  0
 28102  1  0  0  0
 29103  1  0  0  0
 29104  1  0  0  0
 33 34  1  0  0  0
 33 66  1  0  0  0
 33 70  2  0  0  0
 34 36  1  0  0  0
 34 59  1  0  0  0
 34105  1  0  0  0
 35 44  2  0  0  0
 35 45  1  0  0  0
 35 68  1  0  0  0
 36 56  1  0  0  0
 36106  1  0  0  0
 37 39  1  0  0  0
 37 47  1  0  0  0
 37 66  1  0  0  0
 37107  1  0  0  0
 38 43  2  0  0  0
 38 46  1  0  0  0
 38 47  1  0  0  0
 39 64  1  0  0  0
 39 67  2  0  0  0
 40 52  1  0  0  0
 40 53  2  0  0  0
 40 58  1  0  0  0
 41108  1  0  0  0
 41109  1  0  0  0
 41110  1  0  0  0
 41 48  1  0  0  0
 42 43  1  0  0  0
 42 66  1  0  0  0
 42111  1  0  0  0
 42112  1  0  0  0
 43 44  1  0  0  0
 44113  1  0  0  0
 45 46  2  0  0  0
 45114  1  0  0  0
 46115  1  0  0  0
 47116  1  0  0  0
 47117  1  0  0  0
 48 56  1  0  0  0
 48 65  1  0  0  0
 48118  1  0  0  0
 49 50  1  0  0  0
 49 53  1  0  0  0
 49 64  1  0  0  0
 49119  1  0  0  0
 50 51  1  0  0  0
 50120  1  0  0  0
 50121  1  0  0  0
 51 52  1  0  0  0
 51122  1  0  0  0
 51123  1  0  0  0
 52124  1  0  0  0
 52125  1  0  0  0
 53 54  1  0  0  0
 54 55  2  0  0  0
 54126  1  0  0  0
 55 57  1  0  0  0
 55127  1  0  0  0
 56 69  2  0  0  0
 57 58  2  0  0  0
 57128  1  0  0  0
 58129  1  0  0  0
 59 60  1  0  0  0
 59 61  1  0  0  0
 59 62  1  0  0  0
 60130  1  0  0  0
 60131  1  0  0  0
 60132  1  0  0  0
 61133  1  0  0  0
 61134  1  0  0  0
 61135  1  0  0  0
 62136  1  0  0  0
 62137  1  0  0  0
 62138  1  0  0  0
 63 65  1  0  0  0
 63139  1  0  0  0
 63140  1  0  0  0
 63141  1  0  0  0
 64142  1  0  0  0
 65143  1  0  0  0
 68 79  1  0  0  0
 71 72  1  0  0  0
 71 73  2  0  0  0
 71144  1  0  0  0
 72 80  2  0  0  0
 72145  1  0  0  0
 73 74  1  0  0  0
 73 83  1  0  0  0
 74 81  1  0  0  0
 74 84  2  0  0  0
 75 77  1  0  0  0
 75 82  1  0  0  0
 75146  1  0  0  0
 75147  1  0  0  0
 76 77  1  0  0  0
 76 82  1  0  0  0
 76148  1  0  0  0
 76149  1  0  0  0
 77 83  1  0  0  0
 77150  1  0  0  0
 78 79  1  0  0  0
 78 81  1  0  0  0
 78151  1  0  0  0
 78152  1  0  0  0
 79153  1  0  0  0
 79154  1  0  0  0
 80 81  1  0  0  0
 83155  1  0  0  0
M  ISO  4   1 100  68 101  79 101  82 100
M  END
> <chiral flag>
0

> <version>
0

> <s_m_source_file>
/data/baiqing/PycharmProjects/Reinvent-master-3.2/result/LINK_invent/BTK/process_docking_weight1_custom_sum_contain_oxygen_bond_distance_aromatic_linkinvent_7_9_3/rearranged_h_0199.sdf

> <i_m_source_file_index>
33

> <r_mmod_Potential_Energy-OPLS-2005>
134.947280883789

> <r_mmod_Stretch_Energy-OPLS-2005>
67.6018447875977

> <r_mmod_Bend_Energy-OPLS-2005>
121.865829467773

> <r_mmod_Torsional_Energy-OPLS-2005>
273.999542236328

> <r_mmod_Improper_Torsional_Energy-OPLS-2005>
11.8912878036499

> <r_mmod_Van_der_Waal_Energy-OPLS-2005>
169.150405883789

> <r_mmod_Electrostatic_Energy-OPLS-2005>
-313.675109863281

> <r_mmod_Solvation_Energy-OPLS-2005>
-225.548736572266

> <b_mmod_Minimization_Converged-OPLS-2005>
0

> <r_mmod_RMS_Derivative-OPLS-2005>
0.86730694770813

$$$$
33
                    3D
 Structure written by MMmdl.
153162  0  0  1  0            999 V2000
  -30.6336  -14.9721   20.4093 C   0  0  0  0  0  0
  -30.4089  -12.6165   19.4962 C   0  0  0  0  0  0
  -29.5053  -12.5232   18.2506 C   0  0  0  0  0  0
  -28.0447  -12.3068   18.6783 C   0  0  0  0  0  0
  -27.6154  -13.2606   19.8238 C   0  0  2  0  0  0
  -28.6612  -13.3673   20.9554 C   0  0  0  0  0  0
  -25.2398  -13.8233   20.5746 C   0  0  0  0  0  0
  -24.1736  -13.0436   20.9250 C   0  0  0  0  0  0
  -24.6378  -11.6930   20.8770 C   0  0  0  0  0  0
  -23.9073  -10.4294   21.0419 C   0  0  0  0  0  0
  -24.3620   -9.4209   21.9192 C   0  0  0  0  0  0
  -23.6296   -8.2242   22.0758 C   0  0  0  0  0  0
  -22.4280   -8.0280   21.3548 C   0  0  0  0  0  0
  -21.9917   -9.0256   20.4652 C   0  0  0  0  0  0
  -22.7245  -10.2133   20.3066 C   0  0  0  0  0  0
  -21.6856   -6.0735   22.5276 C   0  0  0  0  0  0
  -21.4018   -6.5636   23.8210 C   0  0  0  0  0  0
  -21.3661   -5.6787   24.9169 C   0  0  0  0  0  0
  -21.6042   -4.3049   24.7222 C   0  0  0  0  0  0
  -21.8815   -3.8146   23.4344 C   0  0  0  0  0  0
  -21.9192   -4.6962   22.3399 C   0  0  0  0  0  0
  -22.7757  -13.5201   21.1890 C   0  0  0  0  0  0
  -22.1660   -4.2148   21.0978 F   0  0  0  0  0  0
  -21.5632   -3.4533   25.7738 F   0  0  0  0  0  0
  -29.9227  -13.7688   20.3227 N   0  0  0  0  0  0
  -26.2827  -12.9496   20.3246 N   0  0  0  0  0  0
  -25.9314  -11.6611   20.5755 N   0  0  0  0  0  0
  -22.0404  -12.8197   22.0445 N   0  0  0  0  0  0
  -25.4016  -15.1962   20.4176 N   0  0  0  0  0  0
  -31.8473  -14.8532   20.2083 O   0  0  0  0  0  0
  -21.6640   -6.8882   21.4242 O   0  0  0  0  0  0
  -22.3441  -14.5500   20.6726 O   0  0  0  0  0  0
  -24.6471  -31.8432   23.1885 C   0  0  0  0  0  0
  -25.9232  -32.4691   23.8277 C   0  0  1  0  0  0
  -27.2025  -27.1058   20.1464 C   0  0  0  0  0  0
  -25.5970  -33.8498   24.2190 N   0  0  0  0  0  0
  -23.4511  -30.4659   21.5349 C   0  0  2  0  0  0
  -24.8986  -28.8952   20.1074 C   0  0  0  0  0  0
  -22.7581  -29.4556   22.4840 C   0  0  0  0  0  0
  -18.0311  -28.1400   22.8478 C   0  0  0  0  0  0
  -24.1494  -36.7248   23.2643 C   0  0  0  0  0  0
  -26.0117  -30.7057   21.3954 C   0  0  0  0  0  0
  -26.0792  -29.3167   20.7322 C   0  0  0  0  0  0
  -27.2322  -28.4380   20.7377 C   0  0  0  0  0  0
  -25.9979  -26.8078   19.4672 C   0  0  0  0  0  0
  -24.8726  -27.6553   19.4588 C   0  0  0  0  0  0
  -23.6789  -29.8019   20.1527 C   0  0  0  0  0  0
  -25.4127  -36.3028   24.0315 C   0  0  1  0  0  0
  -20.5928  -28.3736   23.1218 C   0  0  2  0  0  0
  -20.6796  -26.9433   22.5397 C   0  0  0  0  0  0
  -19.5765  -26.6382   21.5211 C   0  0  0  0  0  0
  -18.1948  -26.7938   22.1624 C   0  0  0  0  0  0
  -19.1568  -28.8883   23.2842 C   0  0  0  0  0  0
  -18.9484  -30.1476   23.8871 C   0  0  0  0  0  0
  -17.6480  -30.6595   24.0558 C   0  0  0  0  0  0
  -25.9079  -34.9404   23.5059 C   0  0  0  0  0  0
  -16.5371  -29.9087   23.6337 C   0  0  0  0  0  0
  -16.7296  -28.6506   23.0360 C   0  0  0  0  0  0
  -26.4532  -31.6569   25.0735 C   0  0  0  0  0  0
  -25.3699  -31.3778   26.1419 C   0  0  0  0  0  0
  -27.0401  -30.2957   24.6355 C   0  0  0  0  0  0
  -27.6061  -32.4337   25.7519 C   0  0  0  0  0  0
  -27.5577  -37.1781   24.8461 C   0  0  0  0  0  0
  -21.4270  -29.3062   22.3585 N   0  0  0  0  0  0
  -26.4285  -37.3746   23.9408 N   0  0  0  0  0  0
  -24.7236  -31.0262   22.0944 N   0  0  0  0  0  0
  -23.4211  -28.8093   23.2996 O   0  0  0  0  0  0
  -28.2162  -26.0687   20.2328 O   0  0  0  0  0  0
  -26.5663  -34.8902   22.4636 O   0  0  0  0  0  0
  -23.5581  -32.1330   23.7081 O   0  0  0  0  0  0
  -30.3764  -21.9330   20.9865 C   0  0  0  0  0  0
  -29.9744  -23.2575   20.8674 C   0  0  0  0  0  0
  -29.3284  -21.0918   20.4899 C   0  0  0  0  0  0
  -30.7136  -18.9022   20.8207 C   0  0  0  0  0  0
  -28.4320  -18.5226   20.1991 C   0  0  0  0  0  0
  -30.9933  -17.4994   20.1000 C   0  0  0  0  0  0
  -28.7442  -16.9560   20.6485 C   0  0  0  0  0  0
  -27.8120  -24.6085   19.9688 C   0  0  0  0  0  0
  -28.3268  -21.9735   20.1021 N   0  0  0  0  0  0
  -28.7055  -23.3451   20.3205 N   0  0  0  0  0  0
  -29.4530  -19.5965   20.4558 N   0  0  0  0  0  0
  -30.1012  -16.3194   20.4089 N   0  0  0  0  0  0
  -31.4462  -12.7260   19.1781 H   0  0  0  0  0  0
  -30.3780  -11.6874   20.0680 H   0  0  0  0  0  0
  -29.8326  -11.7101   17.6009 H   0  0  0  0  0  0
  -29.5888  -13.4402   17.6646 H   0  0  0  0  0  0
  -27.9500  -11.2709   19.0061 H   0  0  0  0  0  0
  -27.3776  -12.4170   17.8220 H   0  0  0  0  0  0
  -27.5530  -14.2421   19.3549 H   0  0  0  0  0  0
  -28.7658  -12.4231   21.4928 H   0  0  0  0  0  0
  -28.3557  -14.1151   21.6888 H   0  0  0  0  0  0
  -25.2762   -9.5690   22.4766 H   0  0  0  0  0  0
  -24.0002   -7.4633   22.7475 H   0  0  0  0  0  0
  -21.0850   -8.8779   19.8960 H   0  0  0  0  0  0
  -22.3704  -10.9670   19.6176 H   0  0  0  0  0  0
  -21.2013   -7.6144   23.9712 H   0  0  0  0  0  0
  -21.1490   -6.0519   25.9070 H   0  0  0  0  0  0
  -22.0596   -2.7610   23.2841 H   0  0  0  0  0  0
  -22.4025  -11.9865   22.4846 H   0  0  0  0  0  0
  -21.1025  -13.1231   22.2649 H   0  0  0  0  0  0
  -24.6318  -15.8458   20.5370 H   0  0  0  0  0  0
  -26.2468  -15.6389   20.0846 H   0  0  0  0  0  0
  -26.7301  -32.5283   23.1003 H   0  0  0  0  0  0
  -25.0088  -33.9610   25.0319 H   0  0  0  0  0  0
  -22.7562  -31.2940   21.3824 H   0  0  0  0  0  0
  -23.3767  -35.9566   23.3282 H   0  0  0  0  0  0
  -24.3583  -36.8904   22.2062 H   0  0  0  0  0  0
  -23.7233  -37.6430   23.6694 H   0  0  0  0  0  0
  -26.1761  -31.4622   20.6267 H   0  0  0  0  0  0
  -26.8788  -30.7508   22.0425 H   0  0  0  0  0  0
  -28.1258  -28.7516   21.2582 H   0  0  0  0  0  0
  -25.8711  -25.8700   18.9498 H   0  0  0  0  0  0
  -23.9738  -27.3314   18.9525 H   0  0  0  0  0  0
  -23.8208  -30.5801   19.4022 H   0  0  0  0  0  0
  -22.7920  -29.2496   19.8367 H   0  0  0  0  0  0
  -25.1315  -36.1852   25.0807 H   0  0  0  0  0  0
  -21.0025  -28.3333   24.1338 H   0  0  0  0  0  0
  -20.5693  -26.2350   23.3625 H   0  0  0  0  0  0
  -21.6660  -26.7437   22.1195 H   0  0  0  0  0  0
  -19.6926  -25.6283   21.1265 H   0  0  0  0  0  0
  -19.6699  -27.3171   20.6723 H   0  0  0  0  0  0
  -17.4216  -26.6680   21.4030 H   0  0  0  0  0  0
  -18.0350  -26.0089   22.9030 H   0  0  0  0  0  0
  -19.7959  -30.7295   24.2234 H   0  0  0  0  0  0
  -17.5036  -31.6273   24.5161 H   0  0  0  0  0  0
  -15.5370  -30.2979   23.7674 H   0  0  0  0  0  0
  -15.8699  -28.0810   22.7093 H   0  0  0  0  0  0
  -24.5860  -30.7157   25.7723 H   0  0  0  0  0  0
  -24.8914  -32.2974   26.4800 H   0  0  0  0  0  0
  -25.7960  -30.8959   27.0228 H   0  0  0  0  0  0
  -26.3034  -29.6670   24.1347 H   0  0  0  0  0  0
  -27.3970  -29.7272   25.4952 H   0  0  0  0  0  0
  -27.8961  -30.4169   23.9715 H   0  0  0  0  0  0
  -27.2654  -33.3654   26.2044 H   0  0  0  0  0  0
  -28.3898  -32.6874   25.0369 H   0  0  0  0  0  0
  -28.0701  -31.8502   26.5478 H   0  0  0  0  0  0
  -28.2577  -38.0094   24.7525 H   0  0  0  0  0  0
  -28.1091  -36.2625   24.6266 H   0  0  0  0  0  0
  -27.2296  -37.1401   25.8863 H   0  0  0  0  0  0
  -20.9480  -29.8778   21.6767 H   0  0  0  0  0  0
  -26.0149  -38.2810   24.1421 H   0  0  0  0  0  0
  -31.3280  -21.6211   21.3899 H   0  0  0  0  0  0
  -30.5059  -24.1605   21.1330 H   0  0  0  0  0  0
  -31.5495  -19.5593   20.5812 H   0  0  0  0  0  0
  -30.7382  -18.7696   21.9035 H   0  0  0  0  0  0
  -27.4913  -18.8370   20.6546 H   0  0  0  0  0  0
  -28.2452  -18.5317   19.1243 H   0  0  0  0  0  0
  -32.0278  -17.2495   20.3393 H   0  0  0  0  0  0
  -30.9825  -17.6454   19.0185 H   0  0  0  0  0  0
  -27.9967  -16.3196   20.1813 H   0  0  0  0  0  0
  -28.5601  -16.8720   21.7206 H   0  0  0  0  0  0
  -26.8655  -24.4366   20.4826 H   0  0  0  0  0  0
  -27.6197  -24.5281   18.8985 H   0  0  0  0  0  0
  1 25  1  0  0  0
  1 30  2  0  0  0
  1 82  1  0  0  0
  2  3  1  0  0  0
  2 25  1  0  0  0
  2 83  1  0  0  0
  2 84  1  0  0  0
  3  4  1  0  0  0
  3 85  1  0  0  0
  3 86  1  0  0  0
  4  5  1  0  0  0
  4 87  1  0  0  0
  4 88  1  0  0  0
  5  6  1  0  0  0
  5 26  1  0  0  0
  5 89  1  0  0  0
  6 25  1  0  0  0
  6 90  1  0  0  0
  6 91  1  0  0  0
  7  8  2  0  0  0
  7 26  1  0  0  0
  7 29  1  0  0  0
  8  9  1  0  0  0
  8 22  1  0  0  0
  9 10  1  0  0  0
  9 27  2  0  0  0
 10 11  2  0  0  0
 10 15  1  0  0  0
 11 12  1  0  0  0
 11 92  1  0  0  0
 12 13  2  0  0  0
 12 93  1  0  0  0
 13 14  1  0  0  0
 13 31  1  0  0  0
 14 15  2  0  0  0
 14 94  1  0  0  0
 15 95  1  0  0  0
 16 17  2  0  0  0
 16 21  1  0  0  0
 16 31  1  0  0  0
 17 18  1  0  0  0
 17 96  1  0  0  0
 18 19  2  0  0  0
 18 97  1  0  0  0
 19 20  1  0  0  0
 19 24  1  0  0  0
 20 21  2  0  0  0
 20 98  1  0  0  0
 21 23  1  0  0  0
 22 28  1  0  0  0
 22 32  2  0  0  0
 26 27  1  0  0  0
 28 99  1  0  0  0
 28100  1  0  0  0
 29101  1  0  0  0
 29102  1  0  0  0
 33 34  1  0  0  0
 33 66  1  0  0  0
 33 70  2  0  0  0
 34 36  1  0  0  0
 34 59  1  0  0  0
 34103  1  0  0  0
 35 44  2  0  0  0
 35 45  1  0  0  0
 35 68  1  0  0  0
 36 56  1  0  0  0
 36104  1  0  0  0
 37 39  1  0  0  0
 37 47  1  0  0  0
 37 66  1  0  0  0
 37105  1  0  0  0
 38 43  2  0  0  0
 38 46  1  0  0  0
 38 47  1  0  0  0
 39 64  1  0  0  0
 39 67  2  0  0  0
 40 52  1  0  0  0
 40 53  2  0  0  0
 40 58  1  0  0  0
 41106  1  0  0  0
 41107  1  0  0  0
 41108  1  0  0  0
 41 48  1  0  0  0
 42 43  1  0  0  0
 42 66  1  0  0  0
 42109  1  0  0  0
 42110  1  0  0  0
 43 44  1  0  0  0
 44111  1  0  0  0
 45 46  2  0  0  0
 45112  1  0  0  0
 46113  1  0  0  0
 47114  1  0  0  0
 47115  1  0  0  0
 48 56  1  0  0  0
 48 65  1  0  0  0
 48116  1  0  0  0
 49 50  1  0  0  0
 49 53  1  0  0  0
 49 64  1  0  0  0
 49117  1  0  0  0
 50 51  1  0  0  0
 50118  1  0  0  0
 50119  1  0  0  0
 51 52  1  0  0  0
 51120  1  0  0  0
 51121  1  0  0  0
 52122  1  0  0  0
 52123  1  0  0  0
 53 54  1  0  0  0
 54 55  2  0  0  0
 54124  1  0  0  0
 55 57  1  0  0  0
 55125  1  0  0  0
 56 69  2  0  0  0
 57 58  2  0  0  0
 57126  1  0  0  0
 58127  1  0  0  0
 59 60  1  0  0  0
 59 61  1  0  0  0
 59 62  1  0  0  0
 60128  1  0  0  0
 60129  1  0  0  0
 60130  1  0  0  0
 61131  1  0  0  0
 61132  1  0  0  0
 61133  1  0  0  0
 62134  1  0  0  0
 62135  1  0  0  0
 62136  1  0  0  0
 63 65  1  0  0  0
 63137  1  0  0  0
 63138  1  0  0  0
 63139  1  0  0  0
 64140  1  0  0  0
 65141  1  0  0  0
 68 78  1  0  0  0
 71 72  2  0  0  0
 71 73  1  0  0  0
 71142  1  0  0  0
 72 80  1  0  0  0
 72143  1  0  0  0
 73 79  2  0  0  0
 73 81  1  0  0  0
 74 76  1  0  0  0
 74 81  1  0  0  0
 74144  1  0  0  0
 74145  1  0  0  0
 75 77  1  0  0  0
 75 81  1  0  0  0
 75146  1  0  0  0
 75147  1  0  0  0
 76 82  1  0  0  0
 76148  1  0  0  0
 76149  1  0  0  0
 77 82  1  0  0  0
 77150  1  0  0  0
 77151  1  0  0  0
 78 80  1  0  0  0
 78152  1  0  0  0
 78153  1  0  0  0
 79 80  1  0  0  0
M  ISO  4   1 100  68 101  78 101  82 100
M  END
> <chiral flag>
0

> <version>
0

> <s_m_source_file>
/data/baiqing/PycharmProjects/Reinvent-master-3.2/result/LINK_invent/BTK/process_docking_weight1_custom_sum_contain_oxygen_bond_distance_aromatic_linkinvent_7_9_3/rearranged_h_0199.sdf

> <i_m_source_file_index>
34

> <r_mmod_Potential_Energy-OPLS-2005>
618.958740234375

> <r_mmod_Stretch_Energy-OPLS-2005>
247.66633605957

> <r_mmod_Bend_Energy-OPLS-2005>
326.875335693359

> <r_mmod_Torsional_Energy-OPLS-2005>
321.891418457031

> <r_mmod_Improper_Torsional_Energy-OPLS-2005>
7.38963794708252

> <r_mmod_Van_der_Waal_Energy-OPLS-2005>
133.732055664062

> <r_mmod_Electrostatic_Energy-OPLS-2005>
-397.630554199219

> <r_mmod_Solvation_Energy-OPLS-2005>
-245.345016479492

> <b_mmod_Minimization_Converged-OPLS-2005>
0

> <r_mmod_RMS_Derivative-OPLS-2005>
0.99359142780304

$$$$
34
                    3D
 Structure written by MMmdl.
166175  0  0  1  0            999 V2000
  -30.6968  -14.5207   20.5975 C   0  0  0  0  0  0
  -30.4272  -12.3469   19.4357 C   0  0  0  0  0  0
  -29.4972  -12.5210   18.2176 C   0  0  0  0  0  0
  -28.0196  -12.3704   18.6281 C   0  0  0  0  0  0
  -27.6632  -13.2120   19.8802 C   0  0  2  0  0  0
  -28.7037  -13.0060   21.0014 C   0  0  0  0  0  0
  -25.2603  -13.8135   20.5671 C   0  0  0  0  0  0
  -24.1866  -13.0406   20.9194 C   0  0  0  0  0  0
  -24.6439  -11.6886   20.8772 C   0  0  0  0  0  0
  -23.9081  -10.4277   21.0400 C   0  0  0  0  0  0
  -24.3614   -9.4178   21.9170 C   0  0  0  0  0  0
  -23.6296   -8.2218   22.0721 C   0  0  0  0  0  0
  -22.4257   -8.0270   21.3538 C   0  0  0  0  0  0
  -21.9916   -9.0242   20.4622 C   0  0  0  0  0  0
  -22.7256  -10.2131   20.3048 C   0  0  0  0  0  0
  -21.6853   -6.0719   22.5281 C   0  0  0  0  0  0
  -21.4011   -6.5620   23.8211 C   0  0  0  0  0  0
  -21.3684   -5.6782   24.9171 C   0  0  0  0  0  0
  -21.6063   -4.3047   24.7225 C   0  0  0  0  0  0
  -21.8818   -3.8129   23.4338 C   0  0  0  0  0  0
  -21.9190   -4.6945   22.3400 C   0  0  0  0  0  0
  -22.7887  -13.5198   21.1878 C   0  0  0  0  0  0
  -22.1651   -4.2125   21.0979 F   0  0  0  0  0  0
  -21.5653   -3.4535   25.7745 F   0  0  0  0  0  0
  -30.0251  -13.3398   20.4481 N   0  0  0  0  0  0
  -26.3055  -12.9338   20.3434 N   0  0  0  0  0  0
  -25.9387  -11.6482   20.5851 N   0  0  0  0  0  0
  -22.0553  -12.8188   22.0432 N   0  0  0  0  0  0
  -25.4292  -15.1842   20.3974 N   0  0  0  0  0  0
  -31.8042  -14.7086   20.0800 O   0  0  0  0  0  0
  -21.6623   -6.8864   21.4237 O   0  0  0  0  0  0
  -22.3577  -14.5515   20.6756 O   0  0  0  0  0  0
  -24.6164  -31.8669   23.2067 C   0  0  0  0  0  0
  -25.9018  -32.4810   23.8402 C   0  0  1  0  0  0
  -27.2243  -27.3810   20.1280 C   0  0  0  0  0  0
  -25.5853  -33.8608   24.2308 N   0  0  0  0  0  0
  -23.4050  -30.4877   21.5466 C   0  0  2  0  0  0
  -24.8558  -28.9427   20.1205 C   0  0  0  0  0  0
  -22.7400  -29.4696   22.5008 C   0  0  0  0  0  0
  -18.0336  -28.1382   22.8464 C   0  0  0  0  0  0
  -24.1477  -36.7316   23.2647 C   0  0  0  0  0  0
  -25.9383  -30.8173   21.3682 C   0  0  0  0  0  0
  -26.0156  -29.4445   20.7250 C   0  0  0  0  0  0
  -27.2034  -28.6688   20.7244 C   0  0  0  0  0  0
  -26.0500  -26.9113   19.5027 C   0  0  0  0  0  0
  -24.8714  -27.6801   19.5045 C   0  0  0  0  0  0
  -23.6165  -29.8095   20.1646 C   0  0  0  0  0  0
  -25.4099  -36.3111   24.0341 C   0  0  1  0  0  0
  -20.5873  -28.3769   23.1348 C   0  0  2  0  0  0
  -20.6845  -26.9481   22.5489 C   0  0  0  0  0  0
  -19.5906  -26.6475   21.5219 C   0  0  0  0  0  0
  -18.2065  -26.7952   22.1563 C   0  0  0  0  0  0
  -19.1534  -28.8894   23.2867 C   0  0  0  0  0  0
  -18.9407  -30.1506   23.8849 C   0  0  0  0  0  0
  -17.6391  -30.6601   24.0474 C   0  0  0  0  0  0
  -25.9030  -34.9472   23.5143 C   0  0  0  0  0  0
  -16.5319  -29.9030   23.6258 C   0  0  0  0  0  0
  -16.7312  -28.6450   23.0318 C   0  0  0  0  0  0
  -26.4445  -31.6593   25.0739 C   0  0  0  0  0  0
  -25.3732  -31.3695   26.1503 C   0  0  0  0  0  0
  -27.0267  -30.3029   24.6118 C   0  0  0  0  0  0
  -27.6007  -32.4344   25.7497 C   0  0  0  0  0  0
  -27.5569  -37.1814   24.8464 C   0  0  0  0  0  0
  -21.4127  -29.3108   22.3744 N   0  0  0  0  0  0
  -26.4281  -37.3794   23.9409 N   0  0  0  0  0  0
  -24.6702  -31.0756   22.0986 N   0  0  0  0  0  0
  -23.4156  -28.8260   23.3085 O   0  0  0  0  0  0
  -28.3834  -26.6237   20.1066 O   0  0  0  0  0  0
  -26.5621  -34.8927   22.4725 O   0  0  0  0  0  0
  -23.5347  -32.1399   23.7445 O   0  0  0  0  0  0
  -25.7340  -20.8024   21.7428 C   0  0  0  0  0  0
  -26.6060  -19.6337   21.2879 C   0  0  0  0  0  0
  -30.7523  -16.9391   22.5310 C   0  0  0  0  0  0
  -29.9173  -15.6715   22.6393 C   0  0  0  0  0  0
  -26.3974  -22.0431   21.1530 C   0  0  0  0  0  0
  -30.3119  -17.0201   21.0761 C   0  0  2  0  0  0
  -27.8701  -20.2416   20.6378 C   0  0  2  0  0  0
  -29.0774  -17.8928   20.6888 C   0  0  0  0  0  0
  -29.1500  -19.4261   21.0417 C   0  0  0  0  0  0
  -28.0303  -24.1040   19.7327 C   0  0  0  0  0  0
  -28.5847  -22.6493   20.0428 C   0  0  0  0  0  0
  -28.3662  -25.2908   20.6966 C   0  0  0  0  0  0
  -30.0121  -15.5507   21.1765 N   0  0  0  0  0  0
  -27.8321  -21.7215   20.9672 N   0  3  1  0  0  0
  -31.4675  -12.4620   19.1340 H   0  0  0  0  0  0
  -30.3469  -11.3352   19.8425 H   0  0  0  0  0  0
  -29.7445  -11.7884   17.4481 H   0  0  0  0  0  0
  -29.6611  -13.5021   17.7730 H   0  0  0  0  0  0
  -27.8376  -11.3133   18.8336 H   0  0  0  0  0  0
  -27.3641  -12.6350   17.7965 H   0  0  0  0  0  0
  -27.7049  -14.2609   19.5825 H   0  0  0  0  0  0
  -28.6976  -11.9723   21.3507 H   0  0  0  0  0  0
  -28.4437  -13.6031   21.8742 H   0  0  0  0  0  0
  -25.2758   -9.5637   22.4732 H   0  0  0  0  0  0
  -24.0011   -7.4592   22.7415 H   0  0  0  0  0  0
  -21.0859   -8.8764   19.8906 H   0  0  0  0  0  0
  -22.3728  -10.9658   19.6146 H   0  0  0  0  0  0
  -21.1976   -7.6125   23.9719 H   0  0  0  0  0  0
  -21.1535   -6.0494   25.9087 H   0  0  0  0  0  0
  -22.0575   -2.7580   23.2851 H   0  0  0  0  0  0
  -22.4190  -11.9855   22.4856 H   0  0  0  0  0  0
  -21.1148  -13.1179   22.2608 H   0  0  0  0  0  0
  -24.6499  -15.8277   20.4370 H   0  0  0  0  0  0
  -26.2824  -15.6103   20.0585 H   0  0  0  0  0  0
  -26.7105  -32.5508   23.1189 H   0  0  0  0  0  0
  -24.9942  -33.9775   25.0399 H   0  0  0  0  0  0
  -22.6951  -31.3034   21.3993 H   0  0  0  0  0  0
  -23.3737  -35.9649   23.3331 H   0  0  0  0  0  0
  -24.3550  -36.8919   22.2057 H   0  0  0  0  0  0
  -23.7227  -37.6532   23.6647 H   0  0  0  0  0  0
  -26.0559  -31.5748   20.5915 H   0  0  0  0  0  0
  -26.8216  -30.8748   21.9899 H   0  0  0  0  0  0
  -28.0978  -29.0468   21.2001 H   0  0  0  0  0  0
  -26.0388  -25.9623   18.9909 H   0  0  0  0  0  0
  -23.9793  -27.2971   19.0278 H   0  0  0  0  0  0
  -23.7095  -30.5739   19.3935 H   0  0  0  0  0  0
  -22.7416  -29.2208   19.8814 H   0  0  0  0  0  0
  -25.1275  -36.2000   25.0835 H   0  0  0  0  0  0
  -20.9803  -28.3493   24.1528 H   0  0  0  0  0  0
  -20.5663  -26.2358   23.3645 H   0  0  0  0  0  0
  -21.6747  -26.7488   22.1363 H   0  0  0  0  0  0
  -19.7211  -25.6436   21.1214 H   0  0  0  0  0  0
  -19.6870  -27.3346   20.6795 H   0  0  0  0  0  0
  -17.4405  -26.6657   21.3900 H   0  0  0  0  0  0
  -18.0511  -26.0068   22.8922 H   0  0  0  0  0  0
  -19.7815  -30.7418   24.2183 H   0  0  0  0  0  0
  -17.4866  -31.6360   24.4877 H   0  0  0  0  0  0
  -15.5310  -30.2963   23.7462 H   0  0  0  0  0  0
  -15.8750  -28.0783   22.6952 H   0  0  0  0  0  0
  -24.5890  -30.7048   25.7871 H   0  0  0  0  0  0
  -24.8931  -32.2841   26.5002 H   0  0  0  0  0  0
  -25.8112  -30.8853   27.0233 H   0  0  0  0  0  0
  -26.2796  -29.6814   24.1166 H   0  0  0  0  0  0
  -27.4023  -29.7263   25.4581 H   0  0  0  0  0  0
  -27.8644  -30.4348   23.9260 H   0  0  0  0  0  0
  -27.2579  -33.3617   26.2099 H   0  0  0  0  0  0
  -28.3773  -32.6963   25.0302 H   0  0  0  0  0  0
  -28.0705  -31.8466   26.5393 H   0  0  0  0  0  0
  -28.2618  -38.0095   24.7495 H   0  0  0  0  0  0
  -28.1047  -36.2624   24.6309 H   0  0  0  0  0  0
  -27.2278  -37.1476   25.8872 H   0  0  0  0  0  0
  -20.9295  -29.8800   21.6933 H   0  0  0  0  0  0
  -26.0196  -38.2880   24.1415 H   0  0  0  0  0  0
  -25.7160  -20.8617   22.8337 H   0  0  0  0  0  0
  -24.7041  -20.7024   21.3991 H   0  0  0  0  0  0
  -26.0778  -18.9908   20.5792 H   0  0  0  0  0  0
  -26.8479  -19.0221   22.1573 H   0  0  0  0  0  0
  -31.8224  -16.7506   22.6435 H   0  0  0  0  0  0
  -30.4158  -17.7596   23.1662 H   0  0  0  0  0  0
  -28.9026  -15.8506   22.9991 H   0  0  0  0  0  0
  -30.4044  -14.8756   23.2089 H   0  0  0  0  0  0
  -26.2509  -22.9112   21.7947 H   0  0  0  0  0  0
  -25.9298  -22.2470   20.1890 H   0  0  0  0  0  0
  -31.1716  -17.2426   20.4402 H   0  0  0  0  0  0
  -27.7411  -20.1479   19.5581 H   0  0  0  0  0  0
  -28.1908  -17.4709   21.1631 H   0  0  0  0  0  0
  -28.8852  -17.7907   19.6183 H   0  0  0  0  0  0
  -29.3149  -19.5422   22.1134 H   0  0  0  0  0  0
  -30.0227  -19.8663   20.5579 H   0  0  0  0  0  0
  -26.9636  -24.0841   19.5191 H   0  0  0  0  0  0
  -28.4849  -24.3804   18.7818 H   0  0  0  0  0  0
  -29.6161  -22.7139   20.3928 H   0  0  0  0  0  0
  -28.6566  -22.1415   19.0804 H   0  0  0  0  0  0
  -29.3730  -25.1367   21.0849 H   0  0  0  0  0  0
  -27.7111  -25.2624   21.5696 H   0  0  0  0  0  0
  -28.2368  -21.8365   21.8837 H   0  0  0  0  0  0
  1 25  1  0  0  0
  1 30  2  0  0  0
  1 83  1  0  0  0
  2  3  1  0  0  0
  2 25  1  0  0  0
  2 85  1  0  0  0
  2 86  1  0  0  0
  3  4  1  0  0  0
  3 87  1  0  0  0
  3 88  1  0  0  0
  4  5  1  0  0  0
  4 89  1  0  0  0
  4 90  1  0  0  0
  5  6  1  0  0  0
  5 26  1  0  0  0
  5 91  1  0  0  0
  6 25  1  0  0  0
  6 92  1  0  0  0
  6 93  1  0  0  0
  7  8  2  0  0  0
  7 26  1  0  0  0
  7 29  1  0  0  0
  8  9  1  0  0  0
  8 22  1  0  0  0
  9 10  1  0  0  0
  9 27  2  0  0  0
 10 11  2  0  0  0
 10 15  1  0  0  0
 11 12  1  0  0  0
 11 94  1  0  0  0
 12 13  2  0  0  0
 12 95  1  0  0  0
 13 14  1  0  0  0
 13 31  1  0  0  0
 14 15  2  0  0  0
 14 96  1  0  0  0
 15 97  1  0  0  0
 16 17  2  0  0  0
 16 21  1  0  0  0
 16 31  1  0  0  0
 17 18  1  0  0  0
 17 98  1  0  0  0
 18 19  2  0  0  0
 18 99  1  0  0  0
 19 20  1  0  0  0
 19 24  1  0  0  0
 20 21  2  0  0  0
 20100  1  0  0  0
 21 23  1  0  0  0
 22 28  1  0  0  0
 22 32  2  0  0  0
 26 27  1  0  0  0
 28101  1  0  0  0
 28102  1  0  0  0
 29103  1  0  0  0
 29104  1  0  0  0
 33 34  1  0  0  0
 33 66  1  0  0  0
 33 70  2  0  0  0
 34 36  1  0  0  0
 34 59  1  0  0  0
 34105  1  0  0  0
 35 44  2  0  0  0
 35 45  1  0  0  0
 35 68  1  0  0  0
 36 56  1  0  0  0
 36106  1  0  0  0
 37 39  1  0  0  0
 37 47  1  0  0  0
 37 66  1  0  0  0
 37107  1  0  0  0
 38 43  2  0  0  0
 38 46  1  0  0  0
 38 47  1  0  0  0
 39 64  1  0  0  0
 39 67  2  0  0  0
 40 52  1  0  0  0
 40 53  2  0  0  0
 40 58  1  0  0  0
 41108  1  0  0  0
 41109  1  0  0  0
 41110  1  0  0  0
 41 48  1  0  0  0
 42 43  1  0  0  0
 42 66  1  0  0  0
 42111  1  0  0  0
 42112  1  0  0  0
 43 44  1  0  0  0
 44113  1  0  0  0
 45 46  2  0  0  0
 45114  1  0  0  0
 46115  1  0  0  0
 47116  1  0  0  0
 47117  1  0  0  0
 48 56  1  0  0  0
 48 65  1  0  0  0
 48118  1  0  0  0
 49 50  1  0  0  0
 49 53  1  0  0  0
 49 64  1  0  0  0
 49119  1  0  0  0
 50 51  1  0  0  0
 50120  1  0  0  0
 50121  1  0  0  0
 51 52  1  0  0  0
 51122  1  0  0  0
 51123  1  0  0  0
 52124  1  0  0  0
 52125  1  0  0  0
 53 54  1  0  0  0
 54 55  2  0  0  0
 54126  1  0  0  0
 55 57  1  0  0  0
 55127  1  0  0  0
 56 69  2  0  0  0
 57 58  2  0  0  0
 57128  1  0  0  0
 58129  1  0  0  0
 59 60  1  0  0  0
 59 61  1  0  0  0
 59 62  1  0  0  0
 60130  1  0  0  0
 60131  1  0  0  0
 60132  1  0  0  0
 61133  1  0  0  0
 61134  1  0  0  0
 61135  1  0  0  0
 62136  1  0  0  0
 62137  1  0  0  0
 62138  1  0  0  0
 63 65  1  0  0  0
 63139  1  0  0  0
 63140  1  0  0  0
 63141  1  0  0  0
 64142  1  0  0  0
 65143  1  0  0  0
 68 82  1  0  0  0
 71 72  1  0  0  0
 71 75  1  0  0  0
 71144  1  0  0  0
 71145  1  0  0  0
 72 77  1  0  0  0
 72146  1  0  0  0
 72147  1  0  0  0
 73 74  1  0  0  0
 73 76  1  0  0  0
 73148  1  0  0  0
 73149  1  0  0  0
 74 83  1  0  0  0
 74150  1  0  0  0
 74151  1  0  0  0
 75 84  1  0  0  0
 75152  1  0  0  0
 75153  1  0  0  0
 76 78  1  0  0  0
 76 83  1  0  0  0
 76154  1  0  0  0
 77 79  1  0  0  0
 77 84  1  0  0  0
 77155  1  0  0  0
 78 79  1  0  0  0
 78156  1  0  0  0
 78157  1  0  0  0
 79158  1  0  0  0
 79159  1  0  0  0
 80 81  1  0  0  0
 80 82  1  0  0  0
 80160  1  0  0  0
 80161  1  0  0  0
 81162  1  0  0  0
 81163  1  0  0  0
 81 84  1  0  0  0
 82164  1  0  0  0
 82165  1  0  0  0
 84166  1  0  0  0
M  CHG  1  84   1
M  ISO  4   1 100  68 101  82 101  83 100
M  END
> <chiral flag>
0

> <version>
0

> <s_m_source_file>
/data/baiqing/PycharmProjects/Reinvent-master-3.2/result/LINK_invent/BTK/process_docking_weight1_custom_sum_contain_oxygen_bond_distance_aromatic_linkinvent_7_9_3/rearranged_h_0199.sdf

> <i_m_source_file_index>
35

> <r_mmod_Potential_Energy-OPLS-2005>
129.377822875977

> <r_mmod_Stretch_Energy-OPLS-2005>
58.8367195129395

> <r_mmod_Bend_Energy-OPLS-2005>
151.468780517578

> <r_mmod_Torsional_Energy-OPLS-2005>
374.875793457031

> <r_mmod_Improper_Torsional_Energy-OPLS-2005>
10.9026784896851

> <r_mmod_Van_der_Waal_Energy-OPLS-2005>
123.785942077637

> <r_mmod_Electrostatic_Energy-OPLS-2005>
-175.810302734375

> <r_mmod_Solvation_Energy-OPLS-2005>
-433.778350830078

> <b_mmod_Minimization_Converged-OPLS-2005>
0

> <r_mmod_RMS_Derivative-OPLS-2005>
5.39192867279053

$$$$
35
                    3D
 Structure written by MMmdl.
169179  0  0  1  0            999 V2000
  -30.6801  -14.5384   20.5839 C   0  0  0  0  0  0
  -30.4292  -12.3553   19.4288 C   0  0  0  0  0  0
  -29.4970  -12.5128   18.2098 C   0  0  0  0  0  0
  -28.0208  -12.3581   18.6248 C   0  0  0  0  0  0
  -27.6572  -13.2100   19.8702 C   0  0  2  0  0  0
  -28.6997  -13.0198   20.9939 C   0  0  0  0  0  0
  -25.2568  -13.8156   20.5666 C   0  0  0  0  0  0
  -24.1829  -13.0433   20.9176 C   0  0  0  0  0  0
  -24.6387  -11.6900   20.8730 C   0  0  0  0  0  0
  -23.9053  -10.4287   21.0397 C   0  0  0  0  0  0
  -24.3609   -9.4204   21.9173 C   0  0  0  0  0  0
  -23.6284   -8.2240   22.0750 C   0  0  0  0  0  0
  -22.4267   -8.0279   21.3543 C   0  0  0  0  0  0
  -21.9895   -9.0251   20.4645 C   0  0  0  0  0  0
  -22.7223  -10.2130   20.3052 C   0  0  0  0  0  0
  -21.6852   -6.0725   22.5270 C   0  0  0  0  0  0
  -21.4015   -6.5632   23.8204 C   0  0  0  0  0  0
  -21.3660   -5.6788   24.9167 C   0  0  0  0  0  0
  -21.6046   -4.3049   24.7218 C   0  0  0  0  0  0
  -21.8824   -3.8139   23.4343 C   0  0  0  0  0  0
  -21.9195   -4.6953   22.3397 C   0  0  0  0  0  0
  -22.7857  -13.5234   21.1842 C   0  0  0  0  0  0
  -22.1665   -4.2139   21.0973 F   0  0  0  0  0  0
  -21.5628   -3.4534   25.7732 F   0  0  0  0  0  0
  -30.0225  -13.3511   20.4372 N   0  0  0  0  0  0
  -26.2999  -12.9330   20.3340 N   0  0  0  0  0  0
  -25.9316  -11.6490   20.5759 N   0  0  0  0  0  0
  -22.0503  -12.8233   22.0406 N   0  0  0  0  0  0
  -25.4288  -15.1870   20.4052 N   0  0  0  0  0  0
  -31.7971  -14.7220   20.0954 O   0  0  0  0  0  0
  -21.6639   -6.8869   21.4235 O   0  0  0  0  0  0
  -22.3547  -14.5542   20.6694 O   0  0  0  0  0  0
  -24.6197  -31.8640   23.2062 C   0  0  0  0  0  0
  -25.9069  -32.4802   23.8368 C   0  0  1  0  0  0
  -27.2267  -27.3745   20.1000 C   0  0  0  0  0  0
  -25.5903  -33.8602   24.2293 N   0  0  0  0  0  0
  -23.4104  -30.4878   21.5486 C   0  0  2  0  0  0
  -24.8551  -28.9496   20.1124 C   0  0  0  0  0  0
  -22.7440  -29.4638   22.4967 C   0  0  0  0  0  0
  -18.0280  -28.1379   22.8491 C   0  0  0  0  0  0
  -24.1482  -36.7301   23.2635 C   0  0  0  0  0  0
  -25.9464  -30.8106   21.3694 C   0  0  0  0  0  0
  -26.0208  -29.4426   20.7114 C   0  0  0  0  0  0
  -27.2088  -28.6645   20.6982 C   0  0  0  0  0  0
  -26.0373  -26.9176   19.4855 C   0  0  0  0  0  0
  -24.8614  -27.6894   19.4950 C   0  0  0  0  0  0
  -23.6211  -29.8234   20.1629 C   0  0  0  0  0  0
  -25.4104  -36.3096   24.0332 C   0  0  1  0  0  0
  -20.5874  -28.3668   23.1306 C   0  0  2  0  0  0
  -20.6769  -26.9399   22.5419 C   0  0  0  0  0  0
  -19.5748  -26.6384   21.5214 C   0  0  0  0  0  0
  -18.1927  -26.7924   22.1627 C   0  0  0  0  0  0
  -19.1531  -28.8840   23.2896 C   0  0  0  0  0  0
  -18.9458  -30.1445   23.8913 C   0  0  0  0  0  0
  -17.6460  -30.6581   24.0570 C   0  0  0  0  0  0
  -25.9042  -34.9466   23.5112 C   0  0  0  0  0  0
  -16.5352  -29.9084   23.6329 C   0  0  0  0  0  0
  -16.7269  -28.6503   23.0349 C   0  0  0  0  0  0
  -26.4471  -31.6602   25.0721 C   0  0  0  0  0  0
  -25.3721  -31.3755   26.1468 C   0  0  0  0  0  0
  -27.0288  -30.3024   24.6148 C   0  0  0  0  0  0
  -27.6051  -32.4323   25.7471 C   0  0  0  0  0  0
  -27.5582  -37.1792   24.8455 C   0  0  0  0  0  0
  -21.4163  -29.3024   22.3701 N   0  0  0  0  0  0
  -26.4281  -37.3790   23.9419 N   0  0  0  0  0  0
  -24.6775  -31.0695   22.0990 N   0  0  0  0  0  0
  -23.4190  -28.8182   23.3029 O   0  0  0  0  0  0
  -28.3756  -26.5877   20.1386 O   0  0  0  0  0  0
  -26.5616  -34.8926   22.4683 O   0  0  0  0  0  0
  -23.5379  -32.1417   23.7426 O   0  0  0  0  0  0
  -31.8242  -17.0240   22.1283 C   0  0  0  0  0  0
  -31.7506  -18.4520   21.6072 C   0  0  0  0  0  0
  -27.3687  -18.1843   22.0511 C   0  0  0  0  0  0
  -26.9278  -19.5132   21.4936 C   0  0  0  0  0  0
  -31.0913  -21.0373   20.1005 C   0  0  0  0  0  0
  -31.0006  -22.5190   19.7054 C   0  0  0  0  0  0
  -28.9419  -21.8401   20.5952 C   0  0  0  0  0  0
  -30.3332  -16.8659   21.7813 C   0  0  1  0  0  0
  -28.0483  -18.7447   20.8135 C   0  0  0  0  0  0
  -30.4374  -18.1408   20.8448 C   0  0  1  0  0  0
  -29.6547  -20.5125   20.1618 C   0  0  2  0  0  0
  -29.4934  -24.3270   20.3392 C   0  0  0  0  0  0
  -28.2491  -25.1562   19.8849 C   0  0  0  0  0  0
  -29.5976  -22.9284   19.8344 N   0  0  0  0  0  0
  -29.9832  -15.5224   21.2153 N   0  0  0  0  0  0
  -29.4280  -19.2705   21.0213 N   0  3  1  0  0  0
  -31.4710  -12.4707   19.1242 H   0  0  0  0  0  0
  -30.3530  -11.3493   19.8441 H   0  0  0  0  0  0
  -29.7487  -11.7780   17.4442 H   0  0  0  0  0  0
  -29.6496  -13.4929   17.7548 H   0  0  0  0  0  0
  -27.8466  -11.3022   18.8366 H   0  0  0  0  0  0
  -27.3663  -12.6117   17.7900 H   0  0  0  0  0  0
  -27.6913  -14.2538   19.5573 H   0  0  0  0  0  0
  -28.6957  -11.9867   21.3436 H   0  0  0  0  0  0
  -28.4447  -13.6205   21.8682 H   0  0  0  0  0  0
  -25.2759   -9.5673   22.4742 H   0  0  0  0  0  0
  -23.9990   -7.4629   22.7473 H   0  0  0  0  0  0
  -21.0820   -8.8767   19.8955 H   0  0  0  0  0  0
  -22.3678  -10.9667   19.6160 H   0  0  0  0  0  0
  -21.2012   -7.6141   23.9700 H   0  0  0  0  0  0
  -21.1479   -6.0520   25.9068 H   0  0  0  0  0  0
  -22.0606   -2.7599   23.2846 H   0  0  0  0  0  0
  -22.4126  -11.9895   22.4790 H   0  0  0  0  0  0
  -21.1125  -13.1261   22.2621 H   0  0  0  0  0  0
  -24.6551  -15.8369   20.4946 H   0  0  0  0  0  0
  -26.2696  -15.6172   20.0437 H   0  0  0  0  0  0
  -26.7139  -32.5487   23.1124 H   0  0  0  0  0  0
  -25.0027  -33.9752   25.0421 H   0  0  0  0  0  0
  -22.7017  -31.3066   21.4089 H   0  0  0  0  0  0
  -23.3751  -35.9625   23.3284 H   0  0  0  0  0  0
  -24.3580  -36.8936   22.2053 H   0  0  0  0  0  0
  -23.7222  -37.6493   23.6666 H   0  0  0  0  0  0
  -26.0702  -31.5767   20.6027 H   0  0  0  0  0  0
  -26.8302  -30.8592   21.9939 H   0  0  0  0  0  0
  -28.1062  -29.0392   21.1704 H   0  0  0  0  0  0
  -25.9901  -25.9569   18.9953 H   0  0  0  0  0  0
  -23.9659  -27.3050   19.0260 H   0  0  0  0  0  0
  -23.7362  -30.6002   19.4063 H   0  0  0  0  0  0
  -22.7426  -29.2495   19.8625 H   0  0  0  0  0  0
  -25.1279  -36.1948   25.0823 H   0  0  0  0  0  0
  -20.9969  -28.3238   24.1426 H   0  0  0  0  0  0
  -20.5663  -26.2276   23.3608 H   0  0  0  0  0  0
  -21.6640  -26.7431   22.1215 H   0  0  0  0  0  0
  -19.6908  -25.6299   21.1229 H   0  0  0  0  0  0
  -19.6687  -27.3209   20.6757 H   0  0  0  0  0  0
  -17.4193  -26.6669   21.4032 H   0  0  0  0  0  0
  -18.0333  -26.0066   22.9023 H   0  0  0  0  0  0
  -19.7933  -30.7255   24.2293 H   0  0  0  0  0  0
  -17.5013  -31.6261   24.5174 H   0  0  0  0  0  0
  -15.5353  -30.2991   23.7645 H   0  0  0  0  0  0
  -15.8668  -28.0826   22.7058 H   0  0  0  0  0  0
  -24.5864  -30.7138   25.7805 H   0  0  0  0  0  0
  -24.8955  -32.2939   26.4911 H   0  0  0  0  0  0
  -25.8050  -30.8909   27.0228 H   0  0  0  0  0  0
  -26.2838  -29.6794   24.1184 H   0  0  0  0  0  0
  -27.4001  -29.7264   25.4632 H   0  0  0  0  0  0
  -27.8707  -30.4305   23.9340 H   0  0  0  0  0  0
  -27.2677  -33.3624   26.2057 H   0  0  0  0  0  0
  -28.3847  -32.6881   25.0284 H   0  0  0  0  0  0
  -28.0731  -31.8443   26.5375 H   0  0  0  0  0  0
  -28.2582  -38.0109   24.7544 H   0  0  0  0  0  0
  -28.1099  -36.2647   24.6220 H   0  0  0  0  0  0
  -27.2316  -37.1369   25.8861 H   0  0  0  0  0  0
  -20.9332  -29.8731   21.6904 H   0  0  0  0  0  0
  -26.0166  -38.2856   24.1464 H   0  0  0  0  0  0
  -32.0437  -16.9522   23.1951 H   0  0  0  0  0  0
  -32.5418  -16.4476   21.5510 H   0  0  0  0  0  0
  -32.5925  -18.7236   20.9692 H   0  0  0  0  0  0
  -31.6381  -19.1578   22.4319 H   0  0  0  0  0  0
  -26.6940  -17.3413   21.9163 H   0  0  0  0  0  0
  -27.8699  -18.2204   23.0160 H   0  0  0  0  0  0
  -27.1518  -20.3836   22.1071 H   0  0  0  0  0  0
  -25.9643  -19.5442   20.9876 H   0  0  0  0  0  0
  -31.5573  -21.0055   21.0838 H   0  0  0  0  0  0
  -31.7182  -20.4680   19.4133 H   0  0  0  0  0  0
  -31.3316  -22.6749   18.6771 H   0  0  0  0  0  0
  -31.6623  -23.1042   20.3483 H   0  0  0  0  0  0
  -29.0826  -22.0065   21.6649 H   0  0  0  0  0  0
  -27.8700  -21.8277   20.3945 H   0  0  0  0  0  0
  -29.7611  -17.0760   22.6847 H   0  0  0  0  0  0
  -27.8710  -18.2853   19.8426 H   0  0  0  0  0  0
  -30.6109  -17.8757   19.8004 H   0  0  0  0  0  0
  -29.3453  -20.2727   19.1430 H   0  0  0  0  0  0
  -29.5886  -24.3454   21.4265 H   0  0  0  0  0  0
  -30.3571  -24.8781   19.9616 H   0  0  0  0  0  0
  -27.3717  -24.7553   20.3949 H   0  0  0  0  0  0
  -28.0981  -25.0103   18.8143 H   0  0  0  0  0  0
  -29.0598  -15.2087   21.4761 H   0  0  0  0  0  0
  -29.4934  -19.5682   21.9827 H   0  0  0  0  0  0
  1 25  1  0  0  0
  1 30  2  0  0  0
  1 85  1  0  0  0
  2  3  1  0  0  0
  2 25  1  0  0  0
  2 87  1  0  0  0
  2 88  1  0  0  0
  3  4  1  0  0  0
  3 89  1  0  0  0
  3 90  1  0  0  0
  4  5  1  0  0  0
  4 91  1  0  0  0
  4 92  1  0  0  0
  5  6  1  0  0  0
  5 26  1  0  0  0
  5 93  1  0  0  0
  6 25  1  0  0  0
  6 94  1  0  0  0
  6 95  1  0  0  0
  7  8  2  0  0  0
  7 26  1  0  0  0
  7 29  1  0  0  0
  8  9  1  0  0  0
  8 22  1  0  0  0
  9 10  1  0  0  0
  9 27  2  0  0  0
 10 11  2  0  0  0
 10 15  1  0  0  0
 11 12  1  0  0  0
 11 96  1  0  0  0
 12 13  2  0  0  0
 12 97  1  0  0  0
 13 14  1  0  0  0
 13 31  1  0  0  0
 14 15  2  0  0  0
 14 98  1  0  0  0
 15 99  1  0  0  0
 16 17  2  0  0  0
 16 21  1  0  0  0
 16 31  1  0  0  0
 17 18  1  0  0  0
 17100  1  0  0  0
 18 19  2  0  0  0
 18101  1  0  0  0
 19 20  1  0  0  0
 19 24  1  0  0  0
 20 21  2  0  0  0
 20102  1  0  0  0
 21 23  1  0  0  0
 22 28  1  0  0  0
 22 32  2  0  0  0
 26 27  1  0  0  0
 28103  1  0  0  0
 28104  1  0  0  0
 29105  1  0  0  0
 29106  1  0  0  0
 33 34  1  0  0  0
 33 66  1  0  0  0
 33 70  2  0  0  0
 34 36  1  0  0  0
 34 59  1  0  0  0
 34107  1  0  0  0
 35 44  2  0  0  0
 35 45  1  0  0  0
 35 68  1  0  0  0
 36 56  1  0  0  0
 36108  1  0  0  0
 37 39  1  0  0  0
 37 47  1  0  0  0
 37 66  1  0  0  0
 37109  1  0  0  0
 38 43  2  0  0  0
 38 46  1  0  0  0
 38 47  1  0  0  0
 39 64  1  0  0  0
 39 67  2  0  0  0
 40 52  1  0  0  0
 40 53  2  0  0  0
 40 58  1  0  0  0
 41110  1  0  0  0
 41111  1  0  0  0
 41112  1  0  0  0
 41 48  1  0  0  0
 42 43  1  0  0  0
 42 66  1  0  0  0
 42113  1  0  0  0
 42114  1  0  0  0
 43 44  1  0  0  0
 44115  1  0  0  0
 45 46  2  0  0  0
 45116  1  0  0  0
 46117  1  0  0  0
 47118  1  0  0  0
 47119  1  0  0  0
 48 56  1  0  0  0
 48 65  1  0  0  0
 48120  1  0  0  0
 49 50  1  0  0  0
 49 53  1  0  0  0
 49 64  1  0  0  0
 49121  1  0  0  0
 50 51  1  0  0  0
 50122  1  0  0  0
 50123  1  0  0  0
 51 52  1  0  0  0
 51124  1  0  0  0
 51125  1  0  0  0
 52126  1  0  0  0
 52127  1  0  0  0
 53 54  1  0  0  0
 54 55  2  0  0  0
 54128  1  0  0  0
 55 57  1  0  0  0
 55129  1  0  0  0
 56 69  2  0  0  0
 57 58  2  0  0  0
 57130  1  0  0  0
 58131  1  0  0  0
 59 60  1  0  0  0
 59 61  1  0  0  0
 59 62  1  0  0  0
 60132  1  0  0  0
 60133  1  0  0  0
 60134  1  0  0  0
 61135  1  0  0  0
 61136  1  0  0  0
 61137  1  0  0  0
 62138  1  0  0  0
 62139  1  0  0  0
 62140  1  0  0  0
 63 65  1  0  0  0
 63141  1  0  0  0
 63142  1  0  0  0
 63143  1  0  0  0
 64144  1  0  0  0
 65145  1  0  0  0
 68 83  1  0  0  0
 71 72  1  0  0  0
 71 78  1  0  0  0
 71146  1  0  0  0
 71147  1  0  0  0
 72148  1  0  0  0
 72149  1  0  0  0
 72 80  1  0  0  0
 73 74  1  0  0  0
 73150  1  0  0  0
 73151  1  0  0  0
 73 79  1  0  0  0
 74 79  1  0  0  0
 74152  1  0  0  0
 74153  1  0  0  0
 75 76  1  0  0  0
 75154  1  0  0  0
 75155  1  0  0  0
 75 81  1  0  0  0
 76 84  1  0  0  0
 76156  1  0  0  0
 76157  1  0  0  0
 77 81  1  0  0  0
 77 84  1  0  0  0
 77158  1  0  0  0
 77159  1  0  0  0
 78 80  1  0  0  0
 78 85  1  0  0  0
 78160  1  0  0  0
 79161  1  0  0  0
 79 86  1  0  0  0
 80 86  1  0  0  0
 80162  1  0  0  0
 81 86  1  0  0  0
 81163  1  0  0  0
 82 83  1  0  0  0
 82 84  1  0  0  0
 82164  1  0  0  0
 82165  1  0  0  0
 83166  1  0  0  0
 83167  1  0  0  0
 85168  1  0  0  0
 86169  1  0  0  0
M  CHG  1  86   1
M  ISO  4   1 100  68 101  83 101  85 100
M  END
> <chiral flag>
0

> <version>
0

> <s_m_source_file>
/data/baiqing/PycharmProjects/Reinvent-master-3.2/result/LINK_invent/BTK/process_docking_weight1_custom_sum_contain_oxygen_bond_distance_aromatic_linkinvent_7_9_3/rearranged_h_0199.sdf

> <i_m_source_file_index>
36

> <r_mmod_Potential_Energy-OPLS-2005>
160.12760925293

> <r_mmod_Stretch_Energy-OPLS-2005>
63.8135681152344

> <r_mmod_Bend_Energy-OPLS-2005>
187.062652587891

> <r_mmod_Torsional_Energy-OPLS-2005>
375.312805175781

> <r_mmod_Improper_Torsional_Energy-OPLS-2005>
2.78730154037476

> <r_mmod_Van_der_Waal_Energy-OPLS-2005>
134.181289672852

> <r_mmod_Electrostatic_Energy-OPLS-2005>
-175.043380737305

> <r_mmod_Solvation_Energy-OPLS-2005>
-451.67626953125

> <b_mmod_Minimization_Converged-OPLS-2005>
0

> <r_mmod_RMS_Derivative-OPLS-2005>
0.857445180416107

$$$$
36
                    3D
 Structure written by MMmdl.
153161  0  0  1  0            999 V2000
  -30.5916  -14.7487   20.4413 C   0  0  0  0  0  0
  -30.4388  -12.4493   19.4813 C   0  0  0  0  0  0
  -29.5170  -12.5017   18.2417 C   0  0  0  0  0  0
  -28.0421  -12.3273   18.6521 C   0  0  0  0  0  0
  -27.6469  -13.2261   19.8546 C   0  0  2  0  0  0
  -28.6902  -13.1516   20.9920 C   0  0  0  0  0  0
  -25.2541  -13.8188   20.5685 C   0  0  0  0  0  0
  -24.1825  -13.0448   20.9196 C   0  0  0  0  0  0
  -24.6406  -11.6922   20.8744 C   0  0  0  0  0  0
  -23.9076  -10.4305   21.0407 C   0  0  0  0  0  0
  -24.3622   -9.4219   21.9183 C   0  0  0  0  0  0
  -23.6296   -8.2256   22.0760 C   0  0  0  0  0  0
  -22.4285   -8.0291   21.3543 C   0  0  0  0  0  0
  -21.9919   -9.0270   20.4653 C   0  0  0  0  0  0
  -22.7248  -10.2148   20.3060 C   0  0  0  0  0  0
  -21.6861   -6.0739   22.5274 C   0  0  0  0  0  0
  -21.4023   -6.5639   23.8210 C   0  0  0  0  0  0
  -21.3659   -5.6789   24.9169 C   0  0  0  0  0  0
  -21.6041   -4.3051   24.7213 C   0  0  0  0  0  0
  -21.8823   -3.8145   23.4333 C   0  0  0  0  0  0
  -21.9201   -4.6966   22.3396 C   0  0  0  0  0  0
  -22.7844  -13.5242   21.1834 C   0  0  0  0  0  0
  -22.1659   -4.2156   21.0971 F   0  0  0  0  0  0
  -21.5628   -3.4532   25.7721 F   0  0  0  0  0  0
  -29.9929  -13.5084   20.4166 N   0  0  0  0  0  0
  -26.2964  -12.9382   20.3282 N   0  0  0  0  0  0
  -25.9336  -11.6532   20.5758 N   0  0  0  0  0  0
  -22.0468  -12.8265   22.0393 N   0  0  0  0  0  0
  -25.4237  -15.1916   20.4087 N   0  0  0  0  0  0
  -31.7662  -14.8718   20.0842 O   0  0  0  0  0  0
  -21.6646   -6.8889   21.4242 O   0  0  0  0  0  0
  -22.3536  -14.5538   20.6655 O   0  0  0  0  0  0
  -24.6323  -31.8539   23.1976 C   0  0  0  0  0  0
  -25.9143  -32.4747   23.8328 C   0  0  1  0  0  0
  -27.2236  -27.2616   20.1214 C   0  0  0  0  0  0
  -25.5946  -33.8553   24.2266 N   0  0  0  0  0  0
  -23.4285  -30.4763   21.5399 C   0  0  2  0  0  0
  -24.8733  -28.9199   20.1070 C   0  0  0  0  0  0
  -22.7510  -29.4595   22.4899 C   0  0  0  0  0  0
  -18.0299  -28.1385   22.8491 C   0  0  0  0  0  0
  -24.1487  -36.7278   23.2642 C   0  0  0  0  0  0
  -25.9735  -30.7661   21.3759 C   0  0  0  0  0  0
  -26.0431  -29.3886   20.7165 C   0  0  0  0  0  0
  -27.2156  -28.5700   20.7143 C   0  0  0  0  0  0
  -26.0250  -26.8500   19.4971 C   0  0  0  0  0  0
  -24.8695  -27.6594   19.4879 C   0  0  0  0  0  0
  -23.6461  -29.8099   20.1550 C   0  0  0  0  0  0
  -25.4113  -36.3071   24.0336 C   0  0  1  0  0  0
  -20.5904  -28.3700   23.1263 C   0  0  2  0  0  0
  -20.6783  -26.9414   22.5407 C   0  0  0  0  0  0
  -19.5757  -26.6380   21.5214 C   0  0  0  0  0  0
  -18.1934  -26.7931   22.1624 C   0  0  0  0  0  0
  -19.1552  -28.8860   23.2876 C   0  0  0  0  0  0
  -18.9470  -30.1457   23.8899 C   0  0  0  0  0  0
  -17.6468  -30.6583   24.0566 C   0  0  0  0  0  0
  -25.9055  -34.9440   23.5104 C   0  0  0  0  0  0
  -16.5361  -29.9081   23.6328 C   0  0  0  0  0  0
  -16.7286  -28.6496   23.0360 C   0  0  0  0  0  0
  -26.4524  -31.6573   25.0717 C   0  0  0  0  0  0
  -25.3758  -31.3707   26.1445 C   0  0  0  0  0  0
  -27.0389  -30.3000   24.6194 C   0  0  0  0  0  0
  -27.6078  -32.4324   25.7485 C   0  0  0  0  0  0
  -27.5580  -37.1794   24.8471 C   0  0  0  0  0  0
  -21.4214  -29.3045   22.3648 N   0  0  0  0  0  0
  -26.4289  -37.3768   23.9416 N   0  0  0  0  0  0
  -24.6974  -31.0510   22.0943 N   0  0  0  0  0  0
  -23.4215  -28.8138   23.2994 O   0  0  0  0  0  0
  -28.3449  -26.4042   20.2082 O   0  0  0  0  0  0
  -26.5619  -34.8918   22.4667 O   0  0  0  0  0  0
  -23.5475  -32.1359   23.7275 O   0  0  0  0  0  0
  -28.8183  -22.4435   20.2071 C   0  0  0  0  0  0
  -29.9295  -22.0519   19.3254 C   0  0  0  0  0  0
  -28.2261  -23.7048   20.3240 C   0  0  0  0  0  0
  -28.4623  -21.0881   20.9032 C   0  0  0  0  0  0
  -30.3217  -20.5640   19.5109 C   0  0  0  0  0  0
  -28.4603  -25.0678   19.5340 C   0  0  0  0  0  0
  -29.9376  -17.2936   20.0813 C   0  0  0  0  0  0
  -29.3172  -18.5741   20.8745 C   0  0  0  0  0  0
  -29.7854  -15.8635   20.6299 N   0  0  0  0  0  0
  -29.1408  -19.9410   20.1616 N   0  3  1  0  0  0
  -30.5128  -22.7891   18.5243 O   0  0  0  0  0  0
  -31.4797  -12.5755   19.1781 H   0  0  0  0  0  0
  -30.3864  -11.4709   19.9625 H   0  0  0  0  0  0
  -29.8020  -11.7246   17.5303 H   0  0  0  0  0  0
  -29.6463  -13.4543   17.7253 H   0  0  0  0  0  0
  -27.8987  -11.2787   18.9160 H   0  0  0  0  0  0
  -27.3868  -12.5183   17.8013 H   0  0  0  0  0  0
  -27.6455  -14.2489   19.4781 H   0  0  0  0  0  0
  -28.7259  -12.1500   21.4229 H   0  0  0  0  0  0
  -28.4250  -13.8259   21.8080 H   0  0  0  0  0  0
  -25.2769   -9.5696   22.4753 H   0  0  0  0  0  0
  -24.0002   -7.4657   22.7495 H   0  0  0  0  0  0
  -21.0840   -8.8797   19.8970 H   0  0  0  0  0  0
  -22.3707  -10.9684   19.6164 H   0  0  0  0  0  0
  -21.2018   -7.6146   23.9711 H   0  0  0  0  0  0
  -21.1470   -6.0514   25.9070 H   0  0  0  0  0  0
  -22.0605   -2.7608   23.2827 H   0  0  0  0  0  0
  -22.4060  -11.9929   22.4807 H   0  0  0  0  0  0
  -21.1084  -13.1315   22.2561 H   0  0  0  0  0  0
  -24.6543  -15.8422   20.5227 H   0  0  0  0  0  0
  -26.2588  -15.6288   20.0408 H   0  0  0  0  0  0
  -26.7212  -32.5391   23.1070 H   0  0  0  0  0  0
  -25.0139  -33.9686   25.0447 H   0  0  0  0  0  0
  -22.7253  -31.2995   21.3945 H   0  0  0  0  0  0
  -23.3751  -35.9606   23.3300 H   0  0  0  0  0  0
  -24.3584  -36.8903   22.2057 H   0  0  0  0  0  0
  -23.7232  -37.6478   23.6664 H   0  0  0  0  0  0
  -26.1166  -31.5274   20.6074 H   0  0  0  0  0  0
  -26.8506  -30.8117   22.0100 H   0  0  0  0  0  0
  -28.1113  -28.9267   21.2037 H   0  0  0  0  0  0
  -25.9399  -25.8760   19.0403 H   0  0  0  0  0  0
  -23.9700  -27.2919   19.0118 H   0  0  0  0  0  0
  -23.7760  -30.5882   19.4024 H   0  0  0  0  0  0
  -22.7633  -29.2480   19.8456 H   0  0  0  0  0  0
  -25.1291  -36.1920   25.0827 H   0  0  0  0  0  0
  -21.0007  -28.3277   24.1382 H   0  0  0  0  0  0
  -20.5668  -26.2314   23.3617 H   0  0  0  0  0  0
  -21.6649  -26.7423   22.1209 H   0  0  0  0  0  0
  -19.6910  -25.6287   21.1250 H   0  0  0  0  0  0
  -19.6689  -27.3186   20.6736 H   0  0  0  0  0  0
  -17.4209  -26.6699   21.4018 H   0  0  0  0  0  0
  -18.0319  -26.0061   22.9004 H   0  0  0  0  0  0
  -19.7943  -30.7271   24.2269 H   0  0  0  0  0  0
  -17.5020  -31.6260   24.5171 H   0  0  0  0  0  0
  -15.5361  -30.2987   23.7632 H   0  0  0  0  0  0
  -15.8691  -28.0805   22.7083 H   0  0  0  0  0  0
  -24.5932  -30.7060   25.7772 H   0  0  0  0  0  0
  -24.8953  -32.2871   26.4882 H   0  0  0  0  0  0
  -25.8088  -30.8878   27.0213 H   0  0  0  0  0  0
  -26.2973  -29.6714   24.1252 H   0  0  0  0  0  0
  -27.4133  -29.7290   25.4700 H   0  0  0  0  0  0
  -27.8823  -30.4297   23.9408 H   0  0  0  0  0  0
  -27.2688  -33.3630   26.2046 H   0  0  0  0  0  0
  -28.3888  -32.6872   25.0310 H   0  0  0  0  0  0
  -28.0748  -31.8463   26.5409 H   0  0  0  0  0  0
  -28.2598  -38.0090   24.7519 H   0  0  0  0  0  0
  -28.1077  -36.2623   24.6293 H   0  0  0  0  0  0
  -27.2306  -37.1441   25.8877 H   0  0  0  0  0  0
  -20.9393  -29.8782   21.6871 H   0  0  0  0  0  0
  -26.0170  -38.2845   24.1406 H   0  0  0  0  0  0
  -27.3912  -23.7671   21.0071 H   0  0  0  0  0  0
  -27.3828  -20.9419   20.9459 H   0  0  0  0  0  0
  -28.8302  -21.1247   21.9300 H   0  0  0  0  0  0
  -31.1976  -20.4975   20.1558 H   0  0  0  0  0  0
  -30.5488  -20.0881   18.5575 H   0  0  0  0  0  0
  -27.8442  -25.0440   18.6366 H   0  0  0  0  0  0
  -29.4776  -25.0392   19.1468 H   0  0  0  0  0  0
  -29.4872  -17.2729   19.0885 H   0  0  0  0  0  0
  -30.9981  -17.4819   19.9088 H   0  0  0  0  0  0
  -29.9158  -18.7448   21.7701 H   0  0  0  0  0  0
  -28.3286  -18.2926   21.2410 H   0  0  0  0  0  0
  -28.8588  -15.6348   20.9594 H   0  0  0  0  0  0
  -28.5131  -19.7550   19.3932 H   0  0  0  0  0  0
  1 25  1  0  0  0
  1 30  2  0  0  0
  1 79  1  0  0  0
  2  3  1  0  0  0
  2 25  1  0  0  0
  2 82  1  0  0  0
  2 83  1  0  0  0
  3  4  1  0  0  0
  3 84  1  0  0  0
  3 85  1  0  0  0
  4  5  1  0  0  0
  4 86  1  0  0  0
  4 87  1  0  0  0
  5  6  1  0  0  0
  5 26  1  0  0  0
  5 88  1  0  0  0
  6 25  1  0  0  0
  6 89  1  0  0  0
  6 90  1  0  0  0
  7  8  2  0  0  0
  7 26  1  0  0  0
  7 29  1  0  0  0
  8  9  1  0  0  0
  8 22  1  0  0  0
  9 10  1  0  0  0
  9 27  2  0  0  0
 10 11  2  0  0  0
 10 15  1  0  0  0
 11 12  1  0  0  0
 11 91  1  0  0  0
 12 13  2  0  0  0
 12 92  1  0  0  0
 13 14  1  0  0  0
 13 31  1  0  0  0
 14 15  2  0  0  0
 14 93  1  0  0  0
 15 94  1  0  0  0
 16 17  2  0  0  0
 16 21  1  0  0  0
 16 31  1  0  0  0
 17 18  1  0  0  0
 17 95  1  0  0  0
 18 19  2  0  0  0
 18 96  1  0  0  0
 19 20  1  0  0  0
 19 24  1  0  0  0
 20 21  2  0  0  0
 20 97  1  0  0  0
 21 23  1  0  0  0
 22 28  1  0  0  0
 22 32  2  0  0  0
 26 27  1  0  0  0
 28 98  1  0  0  0
 28 99  1  0  0  0
 29100  1  0  0  0
 29101  1  0  0  0
 33 34  1  0  0  0
 33 66  1  0  0  0
 33 70  2  0  0  0
 34 36  1  0  0  0
 34 59  1  0  0  0
 34102  1  0  0  0
 35 44  2  0  0  0
 35 45  1  0  0  0
 35 68  1  0  0  0
 36 56  1  0  0  0
 36103  1  0  0  0
 37 39  1  0  0  0
 37 47  1  0  0  0
 37 66  1  0  0  0
 37104  1  0  0  0
 38 43  2  0  0  0
 38 46  1  0  0  0
 38 47  1  0  0  0
 39 64  1  0  0  0
 39 67  2  0  0  0
 40 52  1  0  0  0
 40 53  2  0  0  0
 40 58  1  0  0  0
 41105  1  0  0  0
 41106  1  0  0  0
 41107  1  0  0  0
 41 48  1  0  0  0
 42 43  1  0  0  0
 42 66  1  0  0  0
 42108  1  0  0  0
 42109  1  0  0  0
 43 44  1  0  0  0
 44110  1  0  0  0
 45 46  2  0  0  0
 45111  1  0  0  0
 46112  1  0  0  0
 47113  1  0  0  0
 47114  1  0  0  0
 48 56  1  0  0  0
 48 65  1  0  0  0
 48115  1  0  0  0
 49 50  1  0  0  0
 49 53  1  0  0  0
 49 64  1  0  0  0
 49116  1  0  0  0
 50 51  1  0  0  0
 50117  1  0  0  0
 50118  1  0  0  0
 51 52  1  0  0  0
 51119  1  0  0  0
 51120  1  0  0  0
 52121  1  0  0  0
 52122  1  0  0  0
 53 54  1  0  0  0
 54 55  2  0  0  0
 54123  1  0  0  0
 55 57  1  0  0  0
 55124  1  0  0  0
 56 69  2  0  0  0
 57 58  2  0  0  0
 57125  1  0  0  0
 58126  1  0  0  0
 59 60  1  0  0  0
 59 61  1  0  0  0
 59 62  1  0  0  0
 60127  1  0  0  0
 60128  1  0  0  0
 60129  1  0  0  0
 61130  1  0  0  0
 61131  1  0  0  0
 61132  1  0  0  0
 62133  1  0  0  0
 62134  1  0  0  0
 62135  1  0  0  0
 63 65  1  0  0  0
 63136  1  0  0  0
 63137  1  0  0  0
 63138  1  0  0  0
 64139  1  0  0  0
 65140  1  0  0  0
 68 76  1  0  0  0
 71 72  1  0  0  0
 71 73  2  0  0  0
 71 74  1  0  0  0
 72 75  1  0  0  0
 72 81  2  0  0  0
 73 76  1  0  0  0
 73141  1  0  0  0
 74 80  1  0  0  0
 74142  1  0  0  0
 74143  1  0  0  0
 75 80  1  0  0  0
 75144  1  0  0  0
 75145  1  0  0  0
 76146  1  0  0  0
 76147  1  0  0  0
 77 78  1  0  0  0
 77 79  1  0  0  0
 77148  1  0  0  0
 77149  1  0  0  0
 78150  1  0  0  0
 78151  1  0  0  0
 78 80  1  0  0  0
 79152  1  0  0  0
 80153  1  0  0  0
M  CHG  1  80   1
M  ISO  4   1 100  68 101  76 101  79 100
M  END
> <chiral flag>
0

> <version>
0

> <s_m_source_file>
/data/baiqing/PycharmProjects/Reinvent-master-3.2/result/LINK_invent/BTK/process_docking_weight1_custom_sum_contain_oxygen_bond_distance_aromatic_linkinvent_7_9_3/rearranged_h_0199.sdf

> <i_m_source_file_index>
37

> <r_mmod_Potential_Energy-OPLS-2005>
-86.9565811157227

> <r_mmod_Stretch_Energy-OPLS-2005>
119.4521484375

> <r_mmod_Bend_Energy-OPLS-2005>
206.745483398438

> <r_mmod_Torsional_Energy-OPLS-2005>
224.153259277344

> <r_mmod_Improper_Torsional_Energy-OPLS-2005>
6.79757070541382

> <r_mmod_Van_der_Waal_Energy-OPLS-2005>
114.366943359375

> <r_mmod_Electrostatic_Energy-OPLS-2005>
-327.521789550781

> <r_mmod_Solvation_Energy-OPLS-2005>
-515.556457519531

> <b_mmod_Minimization_Converged-OPLS-2005>
0

> <r_mmod_RMS_Derivative-OPLS-2005>
1.46208810806274

$$$$
37
                    3D
 Structure written by MMmdl.
165175  0  0  1  0            999 V2000
  -30.6480  -14.7485   20.4799 C   0  0  0  0  0  0
  -30.4217  -12.4633   19.4803 C   0  0  0  0  0  0
  -29.5047  -12.5048   18.2393 C   0  0  0  0  0  0
  -28.0345  -12.3256   18.6566 C   0  0  0  0  0  0
  -27.6398  -13.2362   19.8497 C   0  0  2  0  0  0
  -28.6834  -13.1970   20.9882 C   0  0  0  0  0  0
  -25.2518  -13.8214   20.5722 C   0  0  0  0  0  0
  -24.1811  -13.0451   20.9237 C   0  0  0  0  0  0
  -24.6402  -11.6932   20.8775 C   0  0  0  0  0  0
  -23.9082  -10.4303   21.0429 C   0  0  0  0  0  0
  -24.3634   -9.4218   21.9208 C   0  0  0  0  0  0
  -23.6307   -8.2255   22.0779 C   0  0  0  0  0  0
  -22.4293   -8.0295   21.3553 C   0  0  0  0  0  0
  -21.9926   -9.0274   20.4664 C   0  0  0  0  0  0
  -22.7258  -10.2151   20.3071 C   0  0  0  0  0  0
  -21.6858   -6.0752   22.5284 C   0  0  0  0  0  0
  -21.4014   -6.5657   23.8217 C   0  0  0  0  0  0
  -21.3656   -5.6808   24.9181 C   0  0  0  0  0  0
  -21.6035   -4.3070   24.7229 C   0  0  0  0  0  0
  -21.8817   -3.8163   23.4353 C   0  0  0  0  0  0
  -21.9194   -4.6980   22.3410 C   0  0  0  0  0  0
  -22.7834  -13.5238   21.1882 C   0  0  0  0  0  0
  -22.1666   -4.2159   21.0992 F   0  0  0  0  0  0
  -21.5622   -3.4559   25.7746 F   0  0  0  0  0  0
  -29.9851  -13.5400   20.4037 N   0  0  0  0  0  0
  -26.2936  -12.9423   20.3300 N   0  0  0  0  0  0
  -25.9333  -11.6563   20.5772 N   0  0  0  0  0  0
  -22.0464  -12.8216   22.0422 N   0  0  0  0  0  0
  -25.4251  -15.1934   20.4126 N   0  0  0  0  0  0
  -31.8158  -14.8131   20.0816 O   0  0  0  0  0  0
  -21.6652   -6.8897   21.4245 O   0  0  0  0  0  0
  -22.3548  -14.5557   20.6742 O   0  0  0  0  0  0
  -24.6344  -31.8543   23.2001 C   0  0  0  0  0  0
  -25.9167  -32.4742   23.8340 C   0  0  1  0  0  0
  -27.2050  -27.2283   20.1253 C   0  0  0  0  0  0
  -25.5951  -33.8546   24.2250 N   0  0  0  0  0  0
  -23.4324  -30.4822   21.5435 C   0  0  2  0  0  0
  -24.8763  -28.9330   20.1055 C   0  0  0  0  0  0
  -22.7527  -29.4622   22.4908 C   0  0  0  0  0  0
  -18.0306  -28.1390   22.8493 C   0  0  0  0  0  0
  -24.1496  -36.7271   23.2644 C   0  0  0  0  0  0
  -25.9822  -30.7535   21.3912 C   0  0  0  0  0  0
  -26.0492  -29.3757   20.7294 C   0  0  0  0  0  0
  -27.2120  -28.5326   20.7384 C   0  0  0  0  0  0
  -26.0192  -26.8924   19.4281 C   0  0  0  0  0  0
  -24.8686  -27.6997   19.4442 C   0  0  0  0  0  0
  -23.6512  -29.8238   20.1577 C   0  0  0  0  0  0
  -25.4121  -36.3050   24.0326 C   0  0  1  0  0  0
  -20.5914  -28.3718   23.1254 C   0  0  2  0  0  0
  -20.6809  -26.9412   22.5414 C   0  0  0  0  0  0
  -19.5776  -26.6373   21.5240 C   0  0  0  0  0  0
  -18.1948  -26.7927   22.1640 C   0  0  0  0  0  0
  -19.1565  -28.8870   23.2876 C   0  0  0  0  0  0
  -18.9478  -30.1474   23.8897 C   0  0  0  0  0  0
  -17.6473  -30.6595   24.0580 C   0  0  0  0  0  0
  -25.9061  -34.9426   23.5083 C   0  0  0  0  0  0
  -16.5369  -29.9093   23.6345 C   0  0  0  0  0  0
  -16.7293  -28.6510   23.0359 C   0  0  0  0  0  0
  -26.4514  -31.6576   25.0744 C   0  0  0  0  0  0
  -25.3723  -31.3744   26.1457 C   0  0  0  0  0  0
  -27.0384  -30.2986   24.6281 C   0  0  0  0  0  0
  -27.6055  -32.4328   25.7518 C   0  0  0  0  0  0
  -27.5574  -37.1798   24.8466 C   0  0  0  0  0  0
  -21.4226  -29.3068   22.3641 N   0  0  0  0  0  0
  -26.4293  -37.3748   23.9397 N   0  0  0  0  0  0
  -24.7020  -31.0495   22.0997 N   0  0  0  0  0  0
  -23.4222  -28.8155   23.3012 O   0  0  0  0  0  0
  -28.2690  -26.2842   20.2283 O   0  0  0  0  0  0
  -26.5633  -34.8904   22.4653 O   0  0  0  0  0  0
  -23.5490  -32.1388   23.7273 O   0  0  0  0  0  0
  -26.1440  -19.5408   21.2660 C   0  0  0  0  0  0
  -26.4611  -20.7167   20.6506 C   0  0  0  0  0  0
  -28.3036  -19.4292   20.7707 C   0  0  0  0  0  0
  -25.4608  -22.7710   19.2325 C   0  0  0  0  0  0
  -25.2038  -23.0532   20.7152 C   0  0  0  0  0  0
  -30.1442  -18.1305   22.0570 C   0  0  0  0  0  0
  -30.6373  -16.6588   22.0294 C   0  0  0  0  0  0
  -29.3982  -17.0079   20.0764 C   0  0  0  0  0  0
  -25.3594  -21.6507   20.2209 C   0  0  0  0  0  0
  -29.5758  -18.4989   20.6774 C   0  0  2  0  0  0
  -28.6395  -23.4936   20.6170 C   0  0  0  0  0  0
  -28.6704  -21.9706   19.9618 C   0  0  0  0  0  0
  -28.0586  -24.8247   19.8506 C   0  0  0  0  0  0
  -27.8636  -20.7474   20.5024 N   0  0  0  0  0  0
  -27.2648  -18.8013   21.3213 N   0  3  0  0  0  0
  -30.0034  -15.9068   20.9313 N   0  0  0  0  0  0
  -31.4638  -12.5700   19.1758 H   0  0  0  0  0  0
  -30.3586  -11.4936   19.9769 H   0  0  0  0  0  0
  -29.7893  -11.7245   17.5318 H   0  0  0  0  0  0
  -29.6299  -13.4543   17.7160 H   0  0  0  0  0  0
  -27.8988  -11.2787   18.9318 H   0  0  0  0  0  0
  -27.3719  -12.5047   17.8095 H   0  0  0  0  0  0
  -27.6309  -14.2523   19.4568 H   0  0  0  0  0  0
  -28.7213  -12.2113   21.4537 H   0  0  0  0  0  0
  -28.4150  -13.9030   21.7772 H   0  0  0  0  0  0
  -25.2787   -9.5690   22.4777 H   0  0  0  0  0  0
  -24.0012   -7.4646   22.7504 H   0  0  0  0  0  0
  -21.0854   -8.8787   19.8977 H   0  0  0  0  0  0
  -22.3720  -10.9687   19.6174 H   0  0  0  0  0  0
  -21.2006   -7.6167   23.9718 H   0  0  0  0  0  0
  -21.1481   -6.0549   25.9079 H   0  0  0  0  0  0
  -22.0599   -2.7628   23.2852 H   0  0  0  0  0  0
  -22.4056  -11.9838   22.4746 H   0  0  0  0  0  0
  -21.1101  -13.1263   22.2682 H   0  0  0  0  0  0
  -24.6444  -15.8378   20.4712 H   0  0  0  0  0  0
  -26.2466  -15.5998   19.9868 H   0  0  0  0  0  0
  -26.7238  -32.5372   23.1081 H   0  0  0  0  0  0
  -25.0070  -33.9676   25.0375 H   0  0  0  0  0  0
  -22.7307  -31.3066   21.4002 H   0  0  0  0  0  0
  -23.3745  -35.9615   23.3309 H   0  0  0  0  0  0
  -24.3588  -36.8893   22.2060 H   0  0  0  0  0  0
  -23.7276  -37.6486   23.6663 H   0  0  0  0  0  0
  -26.1333  -31.5151   20.6253 H   0  0  0  0  0  0
  -26.8556  -30.7952   22.0305 H   0  0  0  0  0  0
  -28.0972  -28.8583   21.2665 H   0  0  0  0  0  0
  -25.9281  -25.9820   18.8590 H   0  0  0  0  0  0
  -23.9790  -27.3644   18.9278 H   0  0  0  0  0  0
  -23.7781  -30.6034   19.4053 H   0  0  0  0  0  0
  -22.7673  -29.2623   19.8498 H   0  0  0  0  0  0
  -25.1311  -36.1887   25.0822 H   0  0  0  0  0  0
  -21.0019  -28.3308   24.1363 H   0  0  0  0  0  0
  -20.5732  -26.2310   23.3627 H   0  0  0  0  0  0
  -21.6677  -26.7447   22.1188 H   0  0  0  0  0  0
  -19.6943  -25.6282   21.1267 H   0  0  0  0  0  0
  -19.6728  -27.3187   20.6778 H   0  0  0  0  0  0
  -17.4223  -26.6679   21.4043 H   0  0  0  0  0  0
  -18.0335  -26.0068   22.9035 H   0  0  0  0  0  0
  -19.7951  -30.7306   24.2249 H   0  0  0  0  0  0
  -17.5018  -31.6270   24.5196 H   0  0  0  0  0  0
  -15.5374  -30.2981   23.7673 H   0  0  0  0  0  0
  -15.8698  -28.0823   22.7067 H   0  0  0  0  0  0
  -24.5895  -30.7099   25.7784 H   0  0  0  0  0  0
  -24.8924  -32.2925   26.4856 H   0  0  0  0  0  0
  -25.8038  -30.8939   27.0249 H   0  0  0  0  0  0
  -26.3004  -29.6713   24.1278 H   0  0  0  0  0  0
  -27.4012  -29.7274   25.4837 H   0  0  0  0  0  0
  -27.8893  -30.4240   23.9583 H   0  0  0  0  0  0
  -27.2646  -33.3622   26.2086 H   0  0  0  0  0  0
  -28.3867  -32.6911   25.0355 H   0  0  0  0  0  0
  -28.0716  -31.8469   26.5450 H   0  0  0  0  0  0
  -28.2598  -38.0087   24.7482 H   0  0  0  0  0  0
  -28.1068  -36.2619   24.6325 H   0  0  0  0  0  0
  -27.2286  -37.1476   25.8869 H   0  0  0  0  0  0
  -20.9407  -29.8773   21.6840 H   0  0  0  0  0  0
  -26.0166  -38.2822   24.1376 H   0  0  0  0  0  0
  -25.1892  -19.1485   21.5881 H   0  0  0  0  0  0
  -26.4294  -22.9363   18.7775 H   0  0  0  0  0  0
  -24.6200  -22.9113   18.5567 H   0  0  0  0  0  0
  -24.1995  -23.3618   20.9996 H   0  0  0  0  0  0
  -25.9892  -23.4156   21.3699 H   0  0  0  0  0  0
  -30.9284  -18.8219   22.3666 H   0  0  0  0  0  0
  -29.3693  -18.1997   22.8209 H   0  0  0  0  0  0
  -31.7226  -16.6577   21.9086 H   0  0  0  0  0  0
  -30.4310  -16.1666   22.9815 H   0  0  0  0  0  0
  -29.8372  -16.9699   19.0781 H   0  0  0  0  0  0
  -28.3445  -16.7680   19.9361 H   0  0  0  0  0  0
  -24.4385  -21.0749   20.1440 H   0  0  0  0  0  0
  -30.3207  -19.0461   20.0978 H   0  0  0  0  0  0
  -29.6855  -23.7327   20.8108 H   0  0  0  0  0  0
  -28.2076  -23.4367   21.6147 H   0  0  0  0  0  0
  -29.7096  -21.6429   19.9922 H   0  0  0  0  0  0
  -28.4584  -22.0359   18.8956 H   0  0  0  0  0  0
  -27.0007  -24.6685   19.9197 H   0  0  0  0  0  0
  -28.3062  -24.7431   18.7921 H   0  0  0  0  0  0
  -27.2990  -17.8598   21.6921 H   0  0  0  0  0  0
  1 25  1  0  0  0
  1 30  2  0  0  0
  1 86  1  0  0  0
  2  3  1  0  0  0
  2 25  1  0  0  0
  2 87  1  0  0  0
  2 88  1  0  0  0
  3  4  1  0  0  0
  3 89  1  0  0  0
  3 90  1  0  0  0
  4  5  1  0  0  0
  4 91  1  0  0  0
  4 92  1  0  0  0
  5  6  1  0  0  0
  5 26  1  0  0  0
  5 93  1  0  0  0
  6 25  1  0  0  0
  6 94  1  0  0  0
  6 95  1  0  0  0
  7  8  2  0  0  0
  7 26  1  0  0  0
  7 29  1  0  0  0
  8  9  1  0  0  0
  8 22  1  0  0  0
  9 10  1  0  0  0
  9 27  2  0  0  0
 10 11  2  0  0  0
 10 15  1  0  0  0
 11 12  1  0  0  0
 11 96  1  0  0  0
 12 13  2  0  0  0
 12 97  1  0  0  0
 13 14  1  0  0  0
 13 31  1  0  0  0
 14 15  2  0  0  0
 14 98  1  0  0  0
 15 99  1  0  0  0
 16 17  2  0  0  0
 16 21  1  0  0  0
 16 31  1  0  0  0
 17 18  1  0  0  0
 17100  1  0  0  0
 18 19  2  0  0  0
 18101  1  0  0  0
 19 20  1  0  0  0
 19 24  1  0  0  0
 20 21  2  0  0  0
 20102  1  0  0  0
 21 23  1  0  0  0
 22 28  1  0  0  0
 22 32  2  0  0  0
 26 27  1  0  0  0
 28103  1  0  0  0
 28104  1  0  0  0
 29105  1  0  0  0
 29106  1  0  0  0
 33 34  1  0  0  0
 33 66  1  0  0  0
 33 70  2  0  0  0
 34 36  1  0  0  0
 34 59  1  0  0  0
 34107  1  0  0  0
 35 44  2  0  0  0
 35 45  1  0  0  0
 35 68  1  0  0  0
 36 56  1  0  0  0
 36108  1  0  0  0
 37 39  1  0  0  0
 37 47  1  0  0  0
 37 66  1  0  0  0
 37109  1  0  0  0
 38 43  2  0  0  0
 38 46  1  0  0  0
 38 47  1  0  0  0
 39 64  1  0  0  0
 39 67  2  0  0  0
 40 52  1  0  0  0
 40 53  2  0  0  0
 40 58  1  0  0  0
 41110  1  0  0  0
 41111  1  0  0  0
 41112  1  0  0  0
 41 48  1  0  0  0
 42 43  1  0  0  0
 42 66  1  0  0  0
 42113  1  0  0  0
 42114  1  0  0  0
 43 44  1  0  0  0
 44115  1  0  0  0
 45 46  2  0  0  0
 45116  1  0  0  0
 46117  1  0  0  0
 47118  1  0  0  0
 47119  1  0  0  0
 48 56  1  0  0  0
 48 65  1  0  0  0
 48120  1  0  0  0
 49 50  1  0  0  0
 49 53  1  0  0  0
 49 64  1  0  0  0
 49121  1  0  0  0
 50 51  1  0  0  0
 50122  1  0  0  0
 50123  1  0  0  0
 51 52  1  0  0  0
 51124  1  0  0  0
 51125  1  0  0  0
 52126  1  0  0  0
 52127  1  0  0  0
 53 54  1  0  0  0
 54 55  2  0  0  0
 54128  1  0  0  0
 55 57  1  0  0  0
 55129  1  0  0  0
 56 69  2  0  0  0
 57 58  2  0  0  0
 57130  1  0  0  0
 58131  1  0  0  0
 59 60  1  0  0  0
 59 61  1  0  0  0
 59 62  1  0  0  0
 60132  1  0  0  0
 60133  1  0  0  0
 60134  1  0  0  0
 61135  1  0  0  0
 61136  1  0  0  0
 61137  1  0  0  0
 62138  1  0  0  0
 62139  1  0  0  0
 62140  1  0  0  0
 63 65  1  0  0  0
 63141  1  0  0  0
 63142  1  0  0  0
 63143  1  0  0  0
 64144  1  0  0  0
 65145  1  0  0  0
 68 83  1  0  0  0
 71 72  2  0  0  0
 71 85  1  0  0  0
 71146  1  0  0  0
 72 84  1  0  0  0
 72 79  1  0  0  0
 73 84  1  0  0  0
 73 85  2  0  0  0
 73 80  1  0  0  0
 74 75  1  0  0  0
 74 79  1  0  0  0
 74147  1  0  0  0
 74148  1  0  0  0
 75 79  1  0  0  0
 75149  1  0  0  0
 75150  1  0  0  0
 76 77  1  0  0  0
 76 80  1  0  0  0
 76151  1  0  0  0
 76152  1  0  0  0
 77 86  1  0  0  0
 77153  1  0  0  0
 77154  1  0  0  0
 78 80  1  0  0  0
 78 86  1  0  0  0
 78155  1  0  0  0
 78156  1  0  0  0
 79157  1  0  0  0
 80158  1  0  0  0
 81 82  1  0  0  0
 81 83  1  0  0  0
 81159  1  0  0  0
 81160  1  0  0  0
 82 84  1  0  0  0
 82161  1  0  0  0
 82162  1  0  0  0
 83163  1  0  0  0
 83164  1  0  0  0
 85165  1  0  0  0
M  CHG  1  85   1
M  ISO  4   1 100  68 101  83 101  86 100
M  END
> <chiral flag>
0

> <version>
0

> <s_m_source_file>
/data/baiqing/PycharmProjects/Reinvent-master-3.2/result/LINK_invent/BTK/process_docking_weight1_custom_sum_contain_oxygen_bond_distance_aromatic_linkinvent_7_9_3/rearranged_h_0199.sdf

> <i_m_source_file_index>
38

> <r_mmod_Potential_Energy-OPLS-2005>
553.601501464844

> <r_mmod_Stretch_Energy-OPLS-2005>
166.867904663086

> <r_mmod_Bend_Energy-OPLS-2005>
279.845642089844

> <r_mmod_Torsional_Energy-OPLS-2005>
426.102722167969

> <r_mmod_Improper_Torsional_Energy-OPLS-2005>
7.98500919342041

> <r_mmod_Van_der_Waal_Energy-OPLS-2005>
122.311065673828

> <r_mmod_Electrostatic_Energy-OPLS-2005>
-133.879257202148

> <r_mmod_Solvation_Energy-OPLS-2005>
-416.366973876953

> <b_mmod_Minimization_Converged-OPLS-2005>
0

> <r_mmod_RMS_Derivative-OPLS-2005>
1.75112175941467

$$$$
38
                    3D
 Structure written by MMmdl.
162171  0  0  1  0            999 V2000
  -30.7358  -14.5253   20.5660 C   0  0  0  0  0  0
  -30.4117  -12.3451   19.4381 C   0  0  0  0  0  0
  -29.4888  -12.4979   18.2128 C   0  0  0  0  0  0
  -28.0152  -12.3310   18.6279 C   0  0  0  0  0  0
  -27.6493  -13.1922   19.8624 C   0  0  2  0  0  0
  -28.6993  -13.0315   20.9928 C   0  0  0  0  0  0
  -25.2546  -13.8115   20.5652 C   0  0  0  0  0  0
  -24.1812  -13.0417   20.9220 C   0  0  0  0  0  0
  -24.6352  -11.6882   20.8780 C   0  0  0  0  0  0
  -23.9022  -10.4281   21.0437 C   0  0  0  0  0  0
  -24.3591   -9.4196   21.9200 C   0  0  0  0  0  0
  -23.6279   -8.2226   22.0750 C   0  0  0  0  0  0
  -22.4261   -8.0268   21.3545 C   0  0  0  0  0  0
  -21.9890   -9.0240   20.4648 C   0  0  0  0  0  0
  -22.7208  -10.2127   20.3071 C   0  0  0  0  0  0
  -21.6846   -6.0730   22.5280 C   0  0  0  0  0  0
  -21.4006   -6.5633   23.8214 C   0  0  0  0  0  0
  -21.3659   -5.6786   24.9176 C   0  0  0  0  0  0
  -21.6043   -4.3047   24.7225 C   0  0  0  0  0  0
  -21.8819   -3.8144   23.4344 C   0  0  0  0  0  0
  -21.9192   -4.6961   22.3403 C   0  0  0  0  0  0
  -22.7844  -13.5240   21.1874 C   0  0  0  0  0  0
  -22.1667   -4.2150   21.0980 F   0  0  0  0  0  0
  -21.5627   -3.4531   25.7739 F   0  0  0  0  0  0
  -30.0149  -13.3666   20.4313 N   0  0  0  0  0  0
  -26.2948  -12.9247   20.3314 N   0  0  0  0  0  0
  -25.9266  -11.6434   20.5790 N   0  0  0  0  0  0
  -22.0468  -12.8242   22.0423 N   0  0  0  0  0  0
  -25.4226  -15.1827   20.3943 N   0  0  0  0  0  0
  -31.8792  -14.5902   20.1035 O   0  0  0  0  0  0
  -21.6627   -6.8869   21.4238 O   0  0  0  0  0  0
  -22.3559  -14.5558   20.6720 O   0  0  0  0  0  0
  -24.6149  -31.8676   23.2102 C   0  0  0  0  0  0
  -25.9045  -32.4817   23.8393 C   0  0  1  0  0  0
  -27.2291  -27.4230   20.1085 C   0  0  0  0  0  0
  -25.5901  -33.8617   24.2325 N   0  0  0  0  0  0
  -23.4036  -30.4922   21.5489 C   0  0  2  0  0  0
  -24.8520  -28.9590   20.1104 C   0  0  0  0  0  0
  -22.7412  -29.4662   22.4968 C   0  0  0  0  0  0
  -18.0275  -28.1378   22.8489 C   0  0  0  0  0  0
  -24.1488  -36.7317   23.2638 C   0  0  0  0  0  0
  -25.9334  -30.8301   21.3665 C   0  0  0  0  0  0
  -26.0108  -29.4631   20.7160 C   0  0  0  0  0  0
  -27.2029  -28.7012   20.7163 C   0  0  0  0  0  0
  -26.0611  -26.9483   19.4728 C   0  0  0  0  0  0
  -24.8719  -27.7004   19.4855 C   0  0  0  0  0  0
  -23.6137  -29.8258   20.1625 C   0  0  0  0  0  0
  -25.4106  -36.3110   24.0339 C   0  0  1  0  0  0
  -20.5866  -28.3669   23.1308 C   0  0  2  0  0  0
  -20.6763  -26.9401   22.5417 C   0  0  0  0  0  0
  -19.5745  -26.6386   21.5208 C   0  0  0  0  0  0
  -18.1921  -26.7926   22.1617 C   0  0  0  0  0  0
  -19.1524  -28.8836   23.2899 C   0  0  0  0  0  0
  -18.9453  -30.1442   23.8912 C   0  0  0  0  0  0
  -17.6457  -30.6582   24.0568 C   0  0  0  0  0  0
  -25.9034  -34.9473   23.5129 C   0  0  0  0  0  0
  -16.5348  -29.9087   23.6327 C   0  0  0  0  0  0
  -16.7265  -28.6506   23.0344 C   0  0  0  0  0  0
  -26.4477  -31.6596   25.0719 C   0  0  0  0  0  0
  -25.3748  -31.3719   26.1480 C   0  0  0  0  0  0
  -27.0297  -30.3028   24.6104 C   0  0  0  0  0  0
  -27.6059  -32.4313   25.7472 C   0  0  0  0  0  0
  -27.5585  -37.1805   24.8460 C   0  0  0  0  0  0
  -21.4138  -29.3037   22.3708 N   0  0  0  0  0  0
  -26.4292  -37.3792   23.9413 N   0  0  0  0  0  0
  -24.6685  -31.0779   22.0999 N   0  0  0  0  0  0
  -23.4183  -28.8206   23.3013 O   0  0  0  0  0  0
  -28.3745  -26.6487   20.1101 O   0  0  0  0  0  0
  -26.5595  -34.8926   22.4690 O   0  0  0  0  0  0
  -23.5340  -32.1429   23.7496 O   0  0  0  0  0  0
  -27.8056  -23.7480   21.8198 C   0  0  0  0  0  0
  -28.3702  -25.3927   20.7081 C   0  0  0  0  0  0
  -28.9033  -16.2074   20.7927 C   0  0  0  0  0  0
  -31.2048  -16.6011   21.7323 C   0  0  0  0  0  0
  -28.5168  -17.6195   21.3124 C   0  0  0  0  0  0
  -30.6776  -17.9398   22.2930 C   0  0  0  0  0  0
  -27.0689  -22.7905   22.6965 C   0  0  0  0  0  0
  -29.8267  -21.0849   20.9891 C   0  0  0  0  0  0
  -30.0179  -22.4573   21.7059 C   0  0  0  0  0  0
  -29.2542  -19.9353   21.8713 C   0  0  0  0  0  0
  -27.3066  -24.9189   21.4219 N   0  0  0  0  0  0
  -29.4461  -24.6085   20.6419 N   0  0  0  0  0  0
  -29.0606  -23.5259   21.3836 N   0  0  0  0  0  0
  -30.2097  -15.6283   21.2014 N   0  0  0  0  0  0
  -29.6529  -18.5576   21.4229 N   0  3  0  0  0  0
  -31.4552  -12.4242   19.1293 H   0  0  0  0  0  0
  -30.3155  -11.3462   19.8670 H   0  0  0  0  0  0
  -29.7479  -11.7614   17.4509 H   0  0  0  0  0  0
  -29.6366  -13.4779   17.7555 H   0  0  0  0  0  0
  -27.8487  -11.2764   18.8508 H   0  0  0  0  0  0
  -27.3575  -12.5716   17.7919 H   0  0  0  0  0  0
  -27.6638  -14.2144   19.4955 H   0  0  0  0  0  0
  -28.7053  -12.0006   21.3505 H   0  0  0  0  0  0
  -28.4641  -13.6253   21.8748 H   0  0  0  0  0  0
  -25.2739   -9.5680   22.4768 H   0  0  0  0  0  0
  -24.0003   -7.4610   22.7451 H   0  0  0  0  0  0
  -21.0828   -8.8757   19.8949 H   0  0  0  0  0  0
  -22.3669  -10.9667   19.6182 H   0  0  0  0  0  0
  -21.1996   -7.6141   23.9717 H   0  0  0  0  0  0
  -21.1480   -6.0514   25.9078 H   0  0  0  0  0  0
  -22.0602   -2.7607   23.2838 H   0  0  0  0  0  0
  -22.4069  -11.9900   22.4818 H   0  0  0  0  0  0
  -21.1089  -13.1280   22.2620 H   0  0  0  0  0  0
  -24.6342  -15.8174   20.4597 H   0  0  0  0  0  0
  -26.2257  -15.5962   19.9416 H   0  0  0  0  0  0
  -26.7116  -32.5534   23.1158 H   0  0  0  0  0  0
  -25.0061  -33.9776   25.0478 H   0  0  0  0  0  0
  -22.6924  -31.3091   21.4096 H   0  0  0  0  0  0
  -23.3742  -35.9659   23.3309 H   0  0  0  0  0  0
  -24.3586  -36.8921   22.2050 H   0  0  0  0  0  0
  -23.7250  -37.6530   23.6643 H   0  0  0  0  0  0
  -26.0475  -31.5948   20.5969 H   0  0  0  0  0  0
  -26.8211  -30.8844   21.9849 H   0  0  0  0  0  0
  -28.0960  -29.0837   21.1908 H   0  0  0  0  0  0
  -26.0671  -25.9816   18.9893 H   0  0  0  0  0  0
  -23.9835  -27.3088   19.0095 H   0  0  0  0  0  0
  -23.7216  -30.6010   19.4030 H   0  0  0  0  0  0
  -22.7380  -29.2453   19.8664 H   0  0  0  0  0  0
  -25.1279  -36.1973   25.0832 H   0  0  0  0  0  0
  -20.9965  -28.3241   24.1427 H   0  0  0  0  0  0
  -20.5653  -26.2279   23.3609 H   0  0  0  0  0  0
  -21.6637  -26.7431   22.1223 H   0  0  0  0  0  0
  -19.6907  -25.6299   21.1234 H   0  0  0  0  0  0
  -19.6690  -27.3203   20.6742 H   0  0  0  0  0  0
  -17.4194  -26.6675   21.4015 H   0  0  0  0  0  0
  -18.0320  -26.0063   22.9007 H   0  0  0  0  0  0
  -19.7932  -30.7249   24.2291 H   0  0  0  0  0  0
  -17.5015  -31.6264   24.5168 H   0  0  0  0  0  0
  -15.5350  -30.2995   23.7639 H   0  0  0  0  0  0
  -15.8665  -28.0831   22.7046 H   0  0  0  0  0  0
  -24.5908  -30.7074   25.7832 H   0  0  0  0  0  0
  -24.8959  -32.2884   26.4933 H   0  0  0  0  0  0
  -25.8110  -30.8888   27.0232 H   0  0  0  0  0  0
  -26.2834  -29.6790   24.1169 H   0  0  0  0  0  0
  -27.4068  -29.7268   25.4566 H   0  0  0  0  0  0
  -27.8675  -30.4333   23.9250 H   0  0  0  0  0  0
  -27.2679  -33.3592   26.2095 H   0  0  0  0  0  0
  -28.3838  -32.6906   25.0279 H   0  0  0  0  0  0
  -28.0764  -31.8413   26.5347 H   0  0  0  0  0  0
  -28.2602  -38.0103   24.7513 H   0  0  0  0  0  0
  -28.1079  -36.2636   24.6267 H   0  0  0  0  0  0
  -27.2312  -37.1443   25.8866 H   0  0  0  0  0  0
  -20.9293  -29.8763   21.6939 H   0  0  0  0  0  0
  -26.0183  -38.2871   24.1416 H   0  0  0  0  0  0
  -28.8690  -16.2216   19.7015 H   0  0  0  0  0  0
  -28.0920  -15.5722   21.1275 H   0  0  0  0  0  0
  -31.8068  -16.1109   22.4998 H   0  0  0  0  0  0
  -31.9024  -16.8690   20.9361 H   0  0  0  0  0  0
  -28.0548  -17.5215   22.2971 H   0  0  0  0  0  0
  -27.7478  -18.0417   20.6636 H   0  0  0  0  0  0
  -31.5140  -18.6286   22.4227 H   0  0  0  0  0  0
  -30.2595  -17.7780   23.2881 H   0  0  0  0  0  0
  -26.2022  -23.2758   23.1454 H   0  0  0  0  0  0
  -27.7114  -22.4319   23.5004 H   0  0  0  0  0  0
  -26.7207  -21.9401   22.1115 H   0  0  0  0  0  0
  -30.8158  -20.7792   20.6462 H   0  0  0  0  0  0
  -29.2337  -21.2033   20.0811 H   0  0  0  0  0  0
  -31.0129  -22.8316   21.4601 H   0  0  0  0  0  0
  -30.0350  -22.3301   22.7887 H   0  0  0  0  0  0
  -28.1677  -20.0255   21.8880 H   0  0  0  0  0  0
  -29.5604  -20.0710   22.9095 H   0  0  0  0  0  0
  -30.0463  -18.6519   20.4989 H   0  0  0  0  0  0
  1 25  1  0  0  0
  1 30  2  0  0  0
  1 84  1  0  0  0
  2  3  1  0  0  0
  2 25  1  0  0  0
  2 86  1  0  0  0
  2 87  1  0  0  0
  3  4  1  0  0  0
  3 88  1  0  0  0
  3 89  1  0  0  0
  4  5  1  0  0  0
  4 90  1  0  0  0
  4 91  1  0  0  0
  5  6  1  0  0  0
  5 26  1  0  0  0
  5 92  1  0  0  0
  6 25  1  0  0  0
  6 93  1  0  0  0
  6 94  1  0  0  0
  7  8  2  0  0  0
  7 26  1  0  0  0
  7 29  1  0  0  0
  8  9  1  0  0  0
  8 22  1  0  0  0
  9 10  1  0  0  0
  9 27  2  0  0  0
 10 11  2  0  0  0
 10 15  1  0  0  0
 11 12  1  0  0  0
 11 95  1  0  0  0
 12 13  2  0  0  0
 12 96  1  0  0  0
 13 14  1  0  0  0
 13 31  1  0  0  0
 14 15  2  0  0  0
 14 97  1  0  0  0
 15 98  1  0  0  0
 16 17  2  0  0  0
 16 21  1  0  0  0
 16 31  1  0  0  0
 17 18  1  0  0  0
 17 99  1  0  0  0
 18 19  2  0  0  0
 18100  1  0  0  0
 19 20  1  0  0  0
 19 24  1  0  0  0
 20 21  2  0  0  0
 20101  1  0  0  0
 21 23  1  0  0  0
 22 28  1  0  0  0
 22 32  2  0  0  0
 26 27  1  0  0  0
 28102  1  0  0  0
 28103  1  0  0  0
 29104  1  0  0  0
 29105  1  0  0  0
 33 34  1  0  0  0
 33 66  1  0  0  0
 33 70  2  0  0  0
 34 36  1  0  0  0
 34 59  1  0  0  0
 34106  1  0  0  0
 35 44  2  0  0  0
 35 45  1  0  0  0
 35 68  1  0  0  0
 36 56  1  0  0  0
 36107  1  0  0  0
 37 39  1  0  0  0
 37 47  1  0  0  0
 37 66  1  0  0  0
 37108  1  0  0  0
 38 43  2  0  0  0
 38 46  1  0  0  0
 38 47  1  0  0  0
 39 64  1  0  0  0
 39 67  2  0  0  0
 40 52  1  0  0  0
 40 53  2  0  0  0
 40 58  1  0  0  0
 41109  1  0  0  0
 41110  1  0  0  0
 41111  1  0  0  0
 41 48  1  0  0  0
 42 43  1  0  0  0
 42 66  1  0  0  0
 42112  1  0  0  0
 42113  1  0  0  0
 43 44  1  0  0  0
 44114  1  0  0  0
 45 46  2  0  0  0
 45115  1  0  0  0
 46116  1  0  0  0
 47117  1  0  0  0
 47118  1  0  0  0
 48 56  1  0  0  0
 48 65  1  0  0  0
 48119  1  0  0  0
 49 50  1  0  0  0
 49 53  1  0  0  0
 49 64  1  0  0  0
 49120  1  0  0  0
 50 51  1  0  0  0
 50121  1  0  0  0
 50122  1  0  0  0
 51 52  1  0  0  0
 51123  1  0  0  0
 51124  1  0  0  0
 52125  1  0  0  0
 52126  1  0  0  0
 53 54  1  0  0  0
 54 55  2  0  0  0
 54127  1  0  0  0
 55 57  1  0  0  0
 55128  1  0  0  0
 56 69  2  0  0  0
 57 58  2  0  0  0
 57129  1  0  0  0
 58130  1  0  0  0
 59 60  1  0  0  0
 59 61  1  0  0  0
 59 62  1  0  0  0
 60131  1  0  0  0
 60132  1  0  0  0
 60133  1  0  0  0
 61134  1  0  0  0
 61135  1  0  0  0
 61136  1  0  0  0
 62137  1  0  0  0
 62138  1  0  0  0
 62139  1  0  0  0
 63 65  1  0  0  0
 63140  1  0  0  0
 63141  1  0  0  0
 63142  1  0  0  0
 64143  1  0  0  0
 65144  1  0  0  0
 68 72  1  0  0  0
 71 77  1  0  0  0
 71 81  2  0  0  0
 71 83  1  0  0  0
 72 81  1  0  0  0
 72 82  2  0  0  0
 73 75  1  0  0  0
 73 84  1  0  0  0
 73145  1  0  0  0
 73146  1  0  0  0
 74 76  1  0  0  0
 74 84  1  0  0  0
 74147  1  0  0  0
 74148  1  0  0  0
 75 85  1  0  0  0
 75149  1  0  0  0
 75150  1  0  0  0
 76 85  1  0  0  0
 76151  1  0  0  0
 76152  1  0  0  0
 77153  1  0  0  0
 77154  1  0  0  0
 77155  1  0  0  0
 78 79  1  0  0  0
 78 80  1  0  0  0
 78156  1  0  0  0
 78157  1  0  0  0
 79 83  1  0  0  0
 79158  1  0  0  0
 79159  1  0  0  0
 80160  1  0  0  0
 80161  1  0  0  0
 80 85  1  0  0  0
 82 83  1  0  0  0
 85162  1  0  0  0
M  CHG  1  85   1
M  ISO  4   1 100  68 101  72 101  84 100
M  END
> <chiral flag>
0

> <version>
0

> <s_m_source_file>
/data/baiqing/PycharmProjects/Reinvent-master-3.2/result/LINK_invent/BTK/process_docking_weight1_custom_sum_contain_oxygen_bond_distance_aromatic_linkinvent_7_9_3/rearranged_h_0199.sdf

> <i_m_source_file_index>
39

> <r_mmod_Potential_Energy-OPLS-2005>
88.6430511474609

> <r_mmod_Stretch_Energy-OPLS-2005>
47.3882713317871

> <r_mmod_Bend_Energy-OPLS-2005>
143.294143676758

> <r_mmod_Torsional_Energy-OPLS-2005>
393.682403564453

> <r_mmod_Improper_Torsional_Energy-OPLS-2005>
5.20249080657959

> <r_mmod_Van_der_Waal_Energy-OPLS-2005>
145.55012512207

> <r_mmod_Electrostatic_Energy-OPLS-2005>
-184.98681640625

> <r_mmod_Solvation_Energy-OPLS-2005>
-481.762878417969

> <b_mmod_Minimization_Converged-OPLS-2005>
0

> <r_mmod_RMS_Derivative-OPLS-2005>
0.755044519901276

$$$$
39
                    3D
 Structure written by MMmdl.
163173  0  0  1  0            999 V2000
  -30.6932  -14.5888   20.5143 C   0  0  0  0  0  0
  -30.4196  -12.3622   19.4652 C   0  0  0  0  0  0
  -29.5122  -12.5257   18.2285 C   0  0  0  0  0  0
  -28.0269  -12.3908   18.6207 C   0  0  0  0  0  0
  -27.6560  -13.2339   19.8704 C   0  0  2  0  0  0
  -28.6987  -13.0870   21.0035 C   0  0  0  0  0  0
  -25.2556  -13.8207   20.5702 C   0  0  0  0  0  0
  -24.1838  -13.0465   20.9169 C   0  0  0  0  0  0
  -24.6417  -11.6927   20.8720 C   0  0  0  0  0  0
  -23.9082  -10.4326   21.0390 C   0  0  0  0  0  0
  -24.3640   -9.4247   21.9166 C   0  0  0  0  0  0
  -23.6339   -8.2274   22.0748 C   0  0  0  0  0  0
  -22.4312   -8.0305   21.3553 C   0  0  0  0  0  0
  -21.9939   -9.0257   20.4636 C   0  0  0  0  0  0
  -22.7255  -10.2145   20.3046 C   0  0  0  0  0  0
  -21.6860   -6.0760   22.5287 C   0  0  0  0  0  0
  -21.4006   -6.5651   23.8219 C   0  0  0  0  0  0
  -21.3678   -5.6798   24.9176 C   0  0  0  0  0  0
  -21.6047   -4.3060   24.7218 C   0  0  0  0  0  0
  -21.8819   -3.8166   23.4338 C   0  0  0  0  0  0
  -21.9198   -4.6987   22.3405 C   0  0  0  0  0  0
  -22.7859  -13.5231   21.1849 C   0  0  0  0  0  0
  -22.1676   -4.2179   21.0978 F   0  0  0  0  0  0
  -21.5647   -3.4544   25.7729 F   0  0  0  0  0  0
  -30.0232  -13.3958   20.4428 N   0  0  0  0  0  0
  -26.3012  -12.9418   20.3349 N   0  0  0  0  0  0
  -25.9349  -11.6553   20.5741 N   0  0  0  0  0  0
  -22.0511  -12.8215   22.0391 N   0  0  0  0  0  0
  -25.4254  -15.1942   20.4130 N   0  0  0  0  0  0
  -31.8496  -14.7030   20.1011 O   0  0  0  0  0  0
  -21.6666   -6.8905   21.4258 O   0  0  0  0  0  0
  -22.3527  -14.5554   20.6726 O   0  0  0  0  0  0
  -24.6208  -31.8645   23.1986 C   0  0  0  0  0  0
  -25.9083  -32.4793   23.8349 C   0  0  1  0  0  0
  -27.2596  -27.3880   20.1059 C   0  0  0  0  0  0
  -25.5922  -33.8586   24.2279 N   0  0  0  0  0  0
  -23.4121  -30.4837   21.5404 C   0  0  2  0  0  0
  -24.8598  -28.9285   20.1235 C   0  0  0  0  0  0
  -22.7442  -29.4635   22.4923 C   0  0  0  0  0  0
  -18.0287  -28.1363   22.8495 C   0  0  0  0  0  0
  -24.1512  -36.7265   23.2632 C   0  0  0  0  0  0
  -25.9491  -30.8095   21.3656 C   0  0  0  0  0  0
  -26.0225  -29.4433   20.7045 C   0  0  0  0  0  0
  -27.2217  -28.6868   20.6770 C   0  0  0  0  0  0
  -26.0605  -26.8771   19.5547 C   0  0  0  0  0  0
  -24.8730  -27.6403   19.5549 C   0  0  0  0  0  0
  -23.6275  -29.8110   20.1576 C   0  0  0  0  0  0
  -25.4132  -36.3098   24.0331 C   0  0  1  0  0  0
  -20.5893  -28.3675   23.1277 C   0  0  2  0  0  0
  -20.6789  -26.9395   22.5410 C   0  0  0  0  0  0
  -19.5767  -26.6364   21.5213 C   0  0  0  0  0  0
  -18.1939  -26.7904   22.1622 C   0  0  0  0  0  0
  -19.1542  -28.8829   23.2889 C   0  0  0  0  0  0
  -18.9460  -30.1427   23.8930 C   0  0  0  0  0  0
  -17.6469  -30.6578   24.0552 C   0  0  0  0  0  0
  -25.9065  -34.9467   23.5119 C   0  0  0  0  0  0
  -16.5359  -29.9088   23.6296 C   0  0  0  0  0  0
  -16.7277  -28.6480   23.0352 C   0  0  0  0  0  0
  -26.4423  -31.6589   25.0733 C   0  0  0  0  0  0
  -25.3577  -31.3844   26.1416 C   0  0  0  0  0  0
  -27.0196  -30.2980   24.6219 C   0  0  0  0  0  0
  -27.6007  -32.4262   25.7561 C   0  0  0  0  0  0
  -27.5606  -37.1806   24.8460 C   0  0  0  0  0  0
  -21.4164  -29.3040   22.3675 N   0  0  0  0  0  0
  -26.4322  -37.3779   23.9404 N   0  0  0  0  0  0
  -24.6783  -31.0704   22.0909 N   0  0  0  0  0  0
  -23.4190  -28.8177   23.2995 O   0  0  0  0  0  0
  -28.4753  -26.6972   20.1140 O   0  0  0  0  0  0
  -26.5647  -34.8928   22.4701 O   0  0  0  0  0  0
  -23.5390  -32.1426   23.7337 O   0  0  0  0  0  0
  -28.7305  -21.2546   20.4656 C   0  0  0  0  0  0
  -29.1253  -22.6216   20.7016 C   0  0  0  0  0  0
  -29.8704  -20.4835   20.5993 C   0  0  0  0  0  0
  -28.6989  -25.0986   21.4210 C   0  0  0  0  0  0
  -30.9191  -18.1506   21.1513 C   0  0  0  0  0  0
  -29.0929  -18.0739   20.1695 C   0  0  0  0  0  0
  -28.2982  -23.9348   20.6698 C   0  0  1  0  0  0
  -30.2699  -17.0606   20.2517 C   0  0  0  0  0  0
  -28.6376  -25.2589   19.8741 C   0  0  2  0  0  0
  -32.6053  -20.9017   22.6477 C   0  0  0  0  0  0
  -33.1619  -22.3526   20.6525 C   0  0  0  0  0  0
  -32.3155  -21.1687   21.1608 C   0  0  0  0  0  0
  -30.4075  -22.6588   21.0281 N   0  0  0  0  0  0
  -30.8838  -21.3862   20.9308 N   0  0  0  0  0  0
  -30.1476  -19.0808   20.3065 N   0  0  0  0  0  0
  -29.9717  -15.7039   20.8170 N   0  0  0  0  0  0
  -31.4689  -12.4354   19.1794 H   0  0  0  0  0  0
  -30.3042  -11.3677   19.8979 H   0  0  0  0  0  0
  -29.7738  -11.7893   17.4668 H   0  0  0  0  0  0
  -29.6865  -13.5056   17.7822 H   0  0  0  0  0  0
  -27.8179  -11.3356   18.8005 H   0  0  0  0  0  0
  -27.3976  -12.6863   17.7806 H   0  0  0  0  0  0
  -27.6760  -14.2753   19.5469 H   0  0  0  0  0  0
  -28.6904  -12.0704   21.4009 H   0  0  0  0  0  0
  -28.4537  -13.7422   21.8405 H   0  0  0  0  0  0
  -25.2784   -9.5741   22.4716 H   0  0  0  0  0  0
  -24.0083   -7.4651   22.7442 H   0  0  0  0  0  0
  -21.0897   -8.8752   19.8900 H   0  0  0  0  0  0
  -22.3725  -10.9678   19.6144 H   0  0  0  0  0  0
  -21.1980   -7.6149   23.9735 H   0  0  0  0  0  0
  -21.1510   -6.0520   25.9083 H   0  0  0  0  0  0
  -22.0584   -2.7635   23.2820 H   0  0  0  0  0  0
  -22.4157  -11.9887   22.4795 H   0  0  0  0  0  0
  -21.1091  -13.1167   22.2559 H   0  0  0  0  0  0
  -24.6567  -15.8463   20.5178 H   0  0  0  0  0  0
  -26.2759  -15.6349   20.0885 H   0  0  0  0  0  0
  -26.7179  -32.5465   23.1126 H   0  0  0  0  0  0
  -25.0047  -33.9763   25.0406 H   0  0  0  0  0  0
  -22.7041  -31.3023   21.3929 H   0  0  0  0  0  0
  -23.3817  -35.9559   23.3300 H   0  0  0  0  0  0
  -24.3609  -36.8869   22.2041 H   0  0  0  0  0  0
  -23.7218  -37.6457   23.6646 H   0  0  0  0  0  0
  -26.0938  -31.5804   20.6066 H   0  0  0  0  0  0
  -26.8227  -30.8429   22.0046 H   0  0  0  0  0  0
  -28.1246  -29.0973   21.1054 H   0  0  0  0  0  0
  -26.0098  -25.8888   19.1257 H   0  0  0  0  0  0
  -23.9742  -27.2116   19.1322 H   0  0  0  0  0  0
  -23.7539  -30.5882   19.4008 H   0  0  0  0  0  0
  -22.7463  -29.2467   19.8500 H   0  0  0  0  0  0
  -25.1316  -36.1973   25.0818 H   0  0  0  0  0  0
  -21.0005  -28.3259   24.1391 H   0  0  0  0  0  0
  -20.5669  -26.2293   23.3619 H   0  0  0  0  0  0
  -21.6654  -26.7399   22.1215 H   0  0  0  0  0  0
  -19.6918  -25.6263   21.1263 H   0  0  0  0  0  0
  -19.6711  -27.3165   20.6743 H   0  0  0  0  0  0
  -17.4204  -26.6648   21.4028 H   0  0  0  0  0  0
  -18.0322  -26.0048   22.9022 H   0  0  0  0  0  0
  -19.7942  -30.7221   24.2336 H   0  0  0  0  0  0
  -17.5021  -31.6273   24.5122 H   0  0  0  0  0  0
  -15.5364  -30.3007   23.7571 H   0  0  0  0  0  0
  -15.8676  -28.0805   22.7065 H   0  0  0  0  0  0
  -24.5661  -30.7312   25.7737 H   0  0  0  0  0  0
  -24.8875  -32.3078   26.4807 H   0  0  0  0  0  0
  -25.7784  -30.9015   27.0245 H   0  0  0  0  0  0
  -26.2753  -29.6853   24.1115 H   0  0  0  0  0  0
  -27.3659  -29.7156   25.4772 H   0  0  0  0  0  0
  -27.8769  -30.4213   23.9599 H   0  0  0  0  0  0
  -27.2624  -33.3525   26.2221 H   0  0  0  0  0  0
  -28.3864  -32.6826   25.0438 H   0  0  0  0  0  0
  -28.0610  -31.8307   26.5460 H   0  0  0  0  0  0
  -28.2617  -38.0119   24.7532 H   0  0  0  0  0  0
  -28.1133  -36.2645   24.6281 H   0  0  0  0  0  0
  -27.2331  -37.1430   25.8872 H   0  0  0  0  0  0
  -20.9304  -29.8812   21.6956 H   0  0  0  0  0  0
  -26.0223  -38.2869   24.1395 H   0  0  0  0  0  0
  -27.7466  -20.9061   20.1884 H   0  0  0  0  0  0
  -29.6979  -25.1116   21.8545 H   0  0  0  0  0  0
  -27.9395  -25.5587   22.0516 H   0  0  0  0  0  0
  -32.0048  -18.2049   21.0526 H   0  0  0  0  0  0
  -30.6006  -18.1352   22.1951 H   0  0  0  0  0  0
  -28.4090  -18.0543   21.0227 H   0  0  0  0  0  0
  -28.5700  -18.1052   19.2130 H   0  0  0  0  0  0
  -27.2380  -23.6944   20.6903 H   0  0  0  0  0  0
  -30.7882  -16.9958   19.2886 H   0  0  0  0  0  0
  -27.9142  -25.0939   19.0839 H   0  0  0  0  0  0
  -33.6715  -20.7598   22.8274 H   0  0  0  0  0  0
  -32.0966  -20.0068   23.0031 H   0  0  0  0  0  0
  -32.2749  -21.7338   23.2708 H   0  0  0  0  0  0
  -34.2232  -22.1045   20.6306 H   0  0  0  0  0  0
  -33.0401  -23.2294   21.2915 H   0  0  0  0  0  0
  -32.8685  -22.6363   19.6403 H   0  0  0  0  0  0
  -32.6099  -20.2972   20.5763 H   0  0  0  0  0  0
  -29.0459  -15.5621   21.1870 H   0  0  0  0  0  0
  1 25  1  0  0  0
  1 30  2  0  0  0
  1 86  1  0  0  0
  2  3  1  0  0  0
  2 25  1  0  0  0
  2 87  1  0  0  0
  2 88  1  0  0  0
  3  4  1  0  0  0
  3 89  1  0  0  0
  3 90  1  0  0  0
  4  5  1  0  0  0
  4 91  1  0  0  0
  4 92  1  0  0  0
  5  6  1  0  0  0
  5 26  1  0  0  0
  5 93  1  0  0  0
  6 25  1  0  0  0
  6 94  1  0  0  0
  6 95  1  0  0  0
  7  8  2  0  0  0
  7 26  1  0  0  0
  7 29  1  0  0  0
  8  9  1  0  0  0
  8 22  1  0  0  0
  9 10  1  0  0  0
  9 27  2  0  0  0
 10 11  2  0  0  0
 10 15  1  0  0  0
 11 12  1  0  0  0
 11 96  1  0  0  0
 12 13  2  0  0  0
 12 97  1  0  0  0
 13 14  1  0  0  0
 13 31  1  0  0  0
 14 15  2  0  0  0
 14 98  1  0  0  0
 15 99  1  0  0  0
 16 17  2  0  0  0
 16 21  1  0  0  0
 16 31  1  0  0  0
 17 18  1  0  0  0
 17100  1  0  0  0
 18 19  2  0  0  0
 18101  1  0  0  0
 19 20  1  0  0  0
 19 24  1  0  0  0
 20 21  2  0  0  0
 20102  1  0  0  0
 21 23  1  0  0  0
 22 28  1  0  0  0
 22 32  2  0  0  0
 26 27  1  0  0  0
 28103  1  0  0  0
 28104  1  0  0  0
 29105  1  0  0  0
 29106  1  0  0  0
 33 34  1  0  0  0
 33 66  1  0  0  0
 33 70  2  0  0  0
 34 36  1  0  0  0
 34 59  1  0  0  0
 34107  1  0  0  0
 35 44  2  0  0  0
 35 45  1  0  0  0
 35 68  1  0  0  0
 36 56  1  0  0  0
 36108  1  0  0  0
 37 39  1  0  0  0
 37 47  1  0  0  0
 37 66  1  0  0  0
 37109  1  0  0  0
 38 43  2  0  0  0
 38 46  1  0  0  0
 38 47  1  0  0  0
 39 64  1  0  0  0
 39 67  2  0  0  0
 40 52  1  0  0  0
 40 53  2  0  0  0
 40 58  1  0  0  0
 41110  1  0  0  0
 41111  1  0  0  0
 41112  1  0  0  0
 41 48  1  0  0  0
 42 43  1  0  0  0
 42 66  1  0  0  0
 42113  1  0  0  0
 42114  1  0  0  0
 43 44  1  0  0  0
 44115  1  0  0  0
 45 46  2  0  0  0
 45116  1  0  0  0
 46117  1  0  0  0
 47118  1  0  0  0
 47119  1  0  0  0
 48 56  1  0  0  0
 48 65  1  0  0  0
 48120  1  0  0  0
 49 50  1  0  0  0
 49 53  1  0  0  0
 49 64  1  0  0  0
 49121  1  0  0  0
 50 51  1  0  0  0
 50122  1  0  0  0
 50123  1  0  0  0
 51 52  1  0  0  0
 51124  1  0  0  0
 51125  1  0  0  0
 52126  1  0  0  0
 52127  1  0  0  0
 53 54  1  0  0  0
 54 55  2  0  0  0
 54128  1  0  0  0
 55 57  1  0  0  0
 55129  1  0  0  0
 56 69  2  0  0  0
 57 58  2  0  0  0
 57130  1  0  0  0
 58131  1  0  0  0
 59 60  1  0  0  0
 59 61  1  0  0  0
 59 62  1  0  0  0
 60132  1  0  0  0
 60133  1  0  0  0
 60134  1  0  0  0
 61135  1  0  0  0
 61136  1  0  0  0
 61137  1  0  0  0
 62138  1  0  0  0
 62139  1  0  0  0
 62140  1  0  0  0
 63 65  1  0  0  0
 63141  1  0  0  0
 63142  1  0  0  0
 63143  1  0  0  0
 64144  1  0  0  0
 65145  1  0  0  0
 68 79  1  0  0  0
 71 72  1  0  0  0
 71 73  2  0  0  0
 71146  1  0  0  0
 72 83  2  0  0  0
 72 77  1  0  0  0
 73 84  1  0  0  0
 73 85  1  0  0  0
 74 77  1  0  0  0
 74 79  1  0  0  0
 74147  1  0  0  0
 74148  1  0  0  0
 75 78  1  0  0  0
 75 85  1  0  0  0
 75149  1  0  0  0
 75150  1  0  0  0
 76 78  1  0  0  0
 76 85  1  0  0  0
 76151  1  0  0  0
 76152  1  0  0  0
 77 79  1  0  0  0
 77153  1  0  0  0
 78 86  1  0  0  0
 78154  1  0  0  0
 79155  1  0  0  0
 80156  1  0  0  0
 80157  1  0  0  0
 80158  1  0  0  0
 80 82  1  0  0  0
 81 82  1  0  0  0
 81159  1  0  0  0
 81160  1  0  0  0
 81161  1  0  0  0
 82 84  1  0  0  0
 82162  1  0  0  0
 83 84  1  0  0  0
 86163  1  0  0  0
M  ISO  4   1 100  68 101  79 101  86 100
M  END
> <chiral flag>
0

> <version>
0

> <s_m_source_file>
/data/baiqing/PycharmProjects/Reinvent-master-3.2/result/LINK_invent/BTK/process_docking_weight1_custom_sum_contain_oxygen_bond_distance_aromatic_linkinvent_7_9_3/rearranged_h_0199.sdf

> <i_m_source_file_index>
40

> <r_mmod_Potential_Energy-OPLS-2005>
157.060806274414

> <r_mmod_Stretch_Energy-OPLS-2005>
72.0258560180664

> <r_mmod_Bend_Energy-OPLS-2005>
312.852844238281

> <r_mmod_Torsional_Energy-OPLS-2005>
255.475296020508

> <r_mmod_Improper_Torsional_Energy-OPLS-2005>
14.2133007049561

> <r_mmod_Van_der_Waal_Energy-OPLS-2005>
130.421646118164

> <r_mmod_Electrostatic_Energy-OPLS-2005>
-419.117767333984

> <r_mmod_Solvation_Energy-OPLS-2005>
-238.315582275391

> <b_mmod_Minimization_Converged-OPLS-2005>
0

> <r_mmod_RMS_Derivative-OPLS-2005>
4.10299158096313

$$$$
40
                    3D
 Structure written by MMmdl.
159168  0  0  1  0            999 V2000
  -30.6781  -14.5154   20.4953 C   0  0  0  0  0  0
  -30.4162  -12.3122   19.4335 C   0  0  0  0  0  0
  -29.4905  -12.4780   18.2072 C   0  0  0  0  0  0
  -28.0117  -12.3427   18.6198 C   0  0  0  0  0  0
  -27.6497  -13.2070   19.8588 C   0  0  2  0  0  0
  -28.6923  -13.0394   20.9852 C   0  0  0  0  0  0
  -25.2550  -13.8159   20.5667 C   0  0  0  0  0  0
  -24.1814  -13.0433   20.9210 C   0  0  0  0  0  0
  -24.6363  -11.6899   20.8759 C   0  0  0  0  0  0
  -23.9037  -10.4287   21.0421 C   0  0  0  0  0  0
  -24.3602   -9.4204   21.9191 C   0  0  0  0  0  0
  -23.6284   -8.2238   22.0759 C   0  0  0  0  0  0
  -22.4270   -8.0272   21.3545 C   0  0  0  0  0  0
  -21.9893   -9.0243   20.4653 C   0  0  0  0  0  0
  -22.7215  -10.2127   20.3065 C   0  0  0  0  0  0
  -21.6846   -6.0729   22.5281 C   0  0  0  0  0  0
  -21.4012   -6.5640   23.8212 C   0  0  0  0  0  0
  -21.3664   -5.6799   24.9179 C   0  0  0  0  0  0
  -21.6042   -4.3060   24.7232 C   0  0  0  0  0  0
  -21.8819   -3.8146   23.4354 C   0  0  0  0  0  0
  -21.9189   -4.6958   22.3408 C   0  0  0  0  0  0
  -22.7842  -13.5238   21.1854 C   0  0  0  0  0  0
  -22.1660   -4.2144   21.0986 F   0  0  0  0  0  0
  -21.5631   -3.4544   25.7746 F   0  0  0  0  0  0
  -30.0146  -13.3304   20.4156 N   0  0  0  0  0  0
  -26.2956  -12.9306   20.3310 N   0  0  0  0  0  0
  -25.9283  -11.6473   20.5766 N   0  0  0  0  0  0
  -22.0476  -12.8232   22.0420 N   0  0  0  0  0  0
  -25.4276  -15.1846   20.3993 N   0  0  0  0  0  0
  -31.8625  -14.6305   20.1654 O   0  0  0  0  0  0
  -21.6634   -6.8862   21.4241 O   0  0  0  0  0  0
  -22.3547  -14.5543   20.6699 O   0  0  0  0  0  0
  -24.6148  -31.8683   23.2064 C   0  0  0  0  0  0
  -25.9037  -32.4820   23.8374 C   0  0  1  0  0  0
  -27.2406  -27.4254   20.0795 C   0  0  0  0  0  0
  -25.5889  -33.8615   24.2317 N   0  0  0  0  0  0
  -23.4030  -30.4853   21.5526 C   0  0  2  0  0  0
  -24.8463  -28.9468   20.1160 C   0  0  0  0  0  0
  -22.7420  -29.4645   22.5050 C   0  0  0  0  0  0
  -18.0267  -28.1361   22.8578 C   0  0  0  0  0  0
  -24.1487  -36.7305   23.2643 C   0  0  0  0  0  0
  -25.9301  -30.8256   21.3605 C   0  0  0  0  0  0
  -26.0056  -29.4581   20.7097 C   0  0  0  0  0  0
  -27.2006  -28.7038   20.6871 C   0  0  0  0  0  0
  -26.0561  -26.9278   19.4857 C   0  0  0  0  0  0
  -24.8669  -27.6820   19.5046 C   0  0  0  0  0  0
  -23.6061  -29.8110   20.1715 C   0  0  0  0  0  0
  -25.4116  -36.3111   24.0341 C   0  0  1  0  0  0
  -20.5859  -28.3650   23.1361 C   0  0  2  0  0  0
  -20.6774  -26.9431   22.5370 C   0  0  0  0  0  0
  -19.5700  -26.6468   21.5216 C   0  0  0  0  0  0
  -18.1951  -26.7870   22.1807 C   0  0  0  0  0  0
  -19.1518  -28.8849   23.2927 C   0  0  0  0  0  0
  -18.9447  -30.1490   23.8868 C   0  0  0  0  0  0
  -17.6435  -30.6611   24.0525 C   0  0  0  0  0  0
  -25.9048  -34.9475   23.5137 C   0  0  0  0  0  0
  -16.5330  -29.9076   23.6329 C   0  0  0  0  0  0
  -16.7249  -28.6470   23.0418 C   0  0  0  0  0  0
  -26.4453  -31.6579   25.0692 C   0  0  0  0  0  0
  -25.3709  -31.3674   26.1430 C   0  0  0  0  0  0
  -27.0278  -30.3030   24.6041 C   0  0  0  0  0  0
  -27.6047  -32.4290   25.7435 C   0  0  0  0  0  0
  -27.5584  -37.1806   24.8469 C   0  0  0  0  0  0
  -21.4153  -29.2994   22.3768 N   0  0  0  0  0  0
  -26.4301  -37.3793   23.9408 N   0  0  0  0  0  0
  -24.6682  -31.0749   22.0983 N   0  0  0  0  0  0
  -23.4194  -28.8236   23.3127 O   0  0  0  0  0  0
  -28.4412  -26.7367   20.0801 O   0  0  0  0  0  0
  -26.5626  -34.8915   22.4712 O   0  0  0  0  0  0
  -23.5337  -32.1461   23.7435 O   0  0  0  0  0  0
  -27.4028  -21.8975   20.7660 C   0  0  0  0  0  0
  -28.0413  -20.7680   20.3285 C   0  0  0  0  0  0
  -30.0238  -16.5457   19.3581 C   0  0  0  0  0  0
  -29.7102  -16.3827   21.7531 C   0  0  0  0  0  0
  -28.8478  -17.5403   19.2412 C   0  0  0  0  0  0
  -28.5658  -17.4323   21.6720 C   0  0  0  0  0  0
  -27.5600  -19.3289   20.3868 C   0  0  0  0  0  0
  -28.1074  -24.3654   20.7756 C   0  0  0  0  0  0
  -28.5190  -25.3601   19.6576 C   0  0  0  0  0  0
  -29.2688  -21.1631   19.7876 N   0  0  0  0  0  0
  -29.3888  -22.4589   19.8755 N   0  0  0  0  0  0
  -28.2578  -22.9400   20.4505 N   0  0  0  0  0  0
  -29.8846  -15.6234   20.5040 N   0  0  0  0  0  0
  -28.6646  -18.3285   20.4848 N   0  3  0  0  0  0
  -31.4610  -12.4041   19.1312 H   0  0  0  0  0  0
  -30.3133  -11.3145   19.8637 H   0  0  0  0  0  0
  -29.7350  -11.7318   17.4500 H   0  0  0  0  0  0
  -29.6577  -13.4528   17.7440 H   0  0  0  0  0  0
  -27.8242  -11.2894   18.8363 H   0  0  0  0  0  0
  -27.3621  -12.5966   17.7804 H   0  0  0  0  0  0
  -27.6744  -14.2466   19.5301 H   0  0  0  0  0  0
  -28.6727  -12.0222   21.3789 H   0  0  0  0  0  0
  -28.4602  -13.6947   21.8257 H   0  0  0  0  0  0
  -25.2740   -9.5686   22.4771 H   0  0  0  0  0  0
  -23.9996   -7.4627   22.7470 H   0  0  0  0  0  0
  -21.0825   -8.8751   19.8958 H   0  0  0  0  0  0
  -22.3661  -10.9665   19.6185 H   0  0  0  0  0  0
  -21.2003   -7.6148   23.9712 H   0  0  0  0  0  0
  -21.1489   -6.0533   25.9080 H   0  0  0  0  0  0
  -22.0590   -2.7606   23.2859 H   0  0  0  0  0  0
  -22.4084  -11.9900   22.4821 H   0  0  0  0  0  0
  -21.1099  -13.1276   22.2614 H   0  0  0  0  0  0
  -24.6378  -15.8192   20.4390 H   0  0  0  0  0  0
  -26.2396  -15.5842   19.9535 H   0  0  0  0  0  0
  -26.7116  -32.5513   23.1137 H   0  0  0  0  0  0
  -24.9974  -33.9782   25.0413 H   0  0  0  0  0  0
  -22.6900  -31.2997   21.4133 H   0  0  0  0  0  0
  -23.3745  -35.9638   23.3316 H   0  0  0  0  0  0
  -24.3572  -36.8909   22.2053 H   0  0  0  0  0  0
  -23.7238  -37.6515   23.6644 H   0  0  0  0  0  0
  -26.0490  -31.5863   20.5879 H   0  0  0  0  0  0
  -26.8183  -30.8808   21.9781 H   0  0  0  0  0  0
  -28.0963  -29.1028   21.1424 H   0  0  0  0  0  0
  -26.0231  -25.9678   18.9960 H   0  0  0  0  0  0
  -23.9743  -27.2879   19.0380 H   0  0  0  0  0  0
  -23.7066  -30.5829   19.4061 H   0  0  0  0  0  0
  -22.7314  -29.2230   19.8846 H   0  0  0  0  0  0
  -25.1286  -36.1992   25.0832 H   0  0  0  0  0  0
  -20.9915  -28.3162   24.1493 H   0  0  0  0  0  0
  -20.5801  -26.2228   23.3496 H   0  0  0  0  0  0
  -21.6615  -26.7559   22.1046 H   0  0  0  0  0  0
  -19.6894  -25.6464   21.1068 H   0  0  0  0  0  0
  -19.6518  -27.3418   20.6833 H   0  0  0  0  0  0
  -17.4109  -26.6410   21.4379 H   0  0  0  0  0  0
  -18.0611  -26.0070   22.9337 H   0  0  0  0  0  0
  -19.7910  -30.7343   24.2197 H   0  0  0  0  0  0
  -17.4977  -31.6331   24.5062 H   0  0  0  0  0  0
  -15.5334  -30.2974   23.7648 H   0  0  0  0  0  0
  -15.8667  -28.0750   22.7183 H   0  0  0  0  0  0
  -24.5891  -30.7019   25.7733 H   0  0  0  0  0  0
  -24.8864  -32.2813   26.4878 H   0  0  0  0  0  0
  -25.8029  -30.8829   27.0191 H   0  0  0  0  0  0
  -26.2803  -29.6812   24.1092 H   0  0  0  0  0  0
  -27.4075  -29.7239   25.4461 H   0  0  0  0  0  0
  -27.8619  -30.4366   23.9155 H   0  0  0  0  0  0
  -27.2700  -33.3598   26.2024 H   0  0  0  0  0  0
  -28.3818  -32.6847   25.0218 H   0  0  0  0  0  0
  -28.0755  -31.8410   26.5327 H   0  0  0  0  0  0
  -28.2624  -38.0084   24.7507 H   0  0  0  0  0  0
  -28.1067  -36.2618   24.6311 H   0  0  0  0  0  0
  -27.2296  -37.1463   25.8873 H   0  0  0  0  0  0
  -20.9343  -29.8604   21.6879 H   0  0  0  0  0  0
  -26.0203  -38.2879   24.1378 H   0  0  0  0  0  0
  -26.4491  -22.0438   21.2595 H   0  0  0  0  0  0
  -30.9621  -17.0975   19.4438 H   0  0  0  0  0  0
  -30.0925  -15.9771   18.4287 H   0  0  0  0  0  0
  -29.5170  -15.7028   22.5842 H   0  0  0  0  0  0
  -30.6495  -16.8858   21.9908 H   0  0  0  0  0  0
  -27.9317  -16.9888   19.0218 H   0  0  0  0  0  0
  -29.0109  -18.2139   18.3979 H   0  0  0  0  0  0
  -28.5565  -18.0354   22.5825 H   0  0  0  0  0  0
  -27.6096  -16.9071   21.6426 H   0  0  0  0  0  0
  -26.9351  -19.1225   19.5154 H   0  0  0  0  0  0
  -26.8852  -19.2175   21.2345 H   0  0  0  0  0  0
  -27.0692  -24.5401   21.0565 H   0  0  0  0  0  0
  -28.7027  -24.5593   21.6664 H   0  0  0  0  0  0
  -27.9776  -25.1787   18.7288 H   0  0  0  0  0  0
  -29.5661  -25.1924   19.4050 H   0  0  0  0  0  0
  -29.4881  -18.9033   20.5949 H   0  0  0  0  0  0
  1 25  1  0  0  0
  1 30  2  0  0  0
  1 83  1  0  0  0
  2  3  1  0  0  0
  2 25  1  0  0  0
  2 85  1  0  0  0
  2 86  1  0  0  0
  3  4  1  0  0  0
  3 87  1  0  0  0
  3 88  1  0  0  0
  4  5  1  0  0  0
  4 89  1  0  0  0
  4 90  1  0  0  0
  5  6  1  0  0  0
  5 26  1  0  0  0
  5 91  1  0  0  0
  6 25  1  0  0  0
  6 92  1  0  0  0
  6 93  1  0  0  0
  7  8  2  0  0  0
  7 26  1  0  0  0
  7 29  1  0  0  0
  8  9  1  0  0  0
  8 22  1  0  0  0
  9 10  1  0  0  0
  9 27  2  0  0  0
 10 11  2  0  0  0
 10 15  1  0  0  0
 11 12  1  0  0  0
 11 94  1  0  0  0
 12 13  2  0  0  0
 12 95  1  0  0  0
 13 14  1  0  0  0
 13 31  1  0  0  0
 14 15  2  0  0  0
 14 96  1  0  0  0
 15 97  1  0  0  0
 16 17  2  0  0  0
 16 21  1  0  0  0
 16 31  1  0  0  0
 17 18  1  0  0  0
 17 98  1  0  0  0
 18 19  2  0  0  0
 18 99  1  0  0  0
 19 20  1  0  0  0
 19 24  1  0  0  0
 20 21  2  0  0  0
 20100  1  0  0  0
 21 23  1  0  0  0
 22 28  1  0  0  0
 22 32  2  0  0  0
 26 27  1  0  0  0
 28101  1  0  0  0
 28102  1  0  0  0
 29103  1  0  0  0
 29104  1  0  0  0
 33 34  1  0  0  0
 33 66  1  0  0  0
 33 70  2  0  0  0
 34 36  1  0  0  0
 34 59  1  0  0  0
 34105  1  0  0  0
 35 44  2  0  0  0
 35 45  1  0  0  0
 35 68  1  0  0  0
 36 56  1  0  0  0
 36106  1  0  0  0
 37 39  1  0  0  0
 37 47  1  0  0  0
 37 66  1  0  0  0
 37107  1  0  0  0
 38 43  2  0  0  0
 38 46  1  0  0  0
 38 47  1  0  0  0
 39 64  1  0  0  0
 39 67  2  0  0  0
 40 52  1  0  0  0
 40 53  2  0  0  0
 40 58  1  0  0  0
 41108  1  0  0  0
 41109  1  0  0  0
 41110  1  0  0  0
 41 48  1  0  0  0
 42 43  1  0  0  0
 42 66  1  0  0  0
 42111  1  0  0  0
 42112  1  0  0  0
 43 44  1  0  0  0
 44113  1  0  0  0
 45 46  2  0  0  0
 45114  1  0  0  0
 46115  1  0  0  0
 47116  1  0  0  0
 47117  1  0  0  0
 48 56  1  0  0  0
 48 65  1  0  0  0
 48118  1  0  0  0
 49 50  1  0  0  0
 49 53  1  0  0  0
 49 64  1  0  0  0
 49119  1  0  0  0
 50 51  1  0  0  0
 50120  1  0  0  0
 50121  1  0  0  0
 51 52  1  0  0  0
 51122  1  0  0  0
 51123  1  0  0  0
 52124  1  0  0  0
 52125  1  0  0  0
 53 54  1  0  0  0
 54 55  2  0  0  0
 54126  1  0  0  0
 55 57  1  0  0  0
 55127  1  0  0  0
 56 69  2  0  0  0
 57 58  2  0  0  0
 57128  1  0  0  0
 58129  1  0  0  0
 59 60  1  0  0  0
 59 61  1  0  0  0
 59 62  1  0  0  0
 60130  1  0  0  0
 60131  1  0  0  0
 60132  1  0  0  0
 61133  1  0  0  0
 61134  1  0  0  0
 61135  1  0  0  0
 62136  1  0  0  0
 62137  1  0  0  0
 62138  1  0  0  0
 63 65  1  0  0  0
 63139  1  0  0  0
 63140  1  0  0  0
 63141  1  0  0  0
 64142  1  0  0  0
 65143  1  0  0  0
 68 79  1  0  0  0
 71 72  2  0  0  0
 71 82  1  0  0  0
 71144  1  0  0  0
 72 77  1  0  0  0
 72 80  1  0  0  0
 73 75  1  0  0  0
 73 83  1  0  0  0
 73145  1  0  0  0
 73146  1  0  0  0
 74 76  1  0  0  0
 74 83  1  0  0  0
 74147  1  0  0  0
 74148  1  0  0  0
 75 84  1  0  0  0
 75149  1  0  0  0
 75150  1  0  0  0
 76 84  1  0  0  0
 76151  1  0  0  0
 76152  1  0  0  0
 77153  1  0  0  0
 77154  1  0  0  0
 77 84  1  0  0  0
 78 79  1  0  0  0
 78 82  1  0  0  0
 78155  1  0  0  0
 78156  1  0  0  0
 79157  1  0  0  0
 79158  1  0  0  0
 80 81  2  0  0  0
 81 82  1  0  0  0
 84159  1  0  0  0
M  CHG  1  84   1
M  ISO  4   1 100  68 101  79 101  83 100
M  END
> <chiral flag>
0

> <version>
0

> <s_m_source_file>
/data/baiqing/PycharmProjects/Reinvent-master-3.2/result/LINK_invent/BTK/process_docking_weight1_custom_sum_contain_oxygen_bond_distance_aromatic_linkinvent_7_9_3/rearranged_h_0199.sdf

> <i_m_source_file_index>
41

> <r_mmod_Potential_Energy-OPLS-2005>
-29.0543155670166

> <r_mmod_Stretch_Energy-OPLS-2005>
39.9140739440918

> <r_mmod_Bend_Energy-OPLS-2005>
110.175010681152

> <r_mmod_Torsional_Energy-OPLS-2005>
382.780975341797

> <r_mmod_Improper_Torsional_Energy-OPLS-2005>
18.4107151031494

> <r_mmod_Van_der_Waal_Energy-OPLS-2005>
126.562522888184

> <r_mmod_Electrostatic_Energy-OPLS-2005>
-279.035217285156

> <r_mmod_Solvation_Energy-OPLS-2005>
-448.169006347656

> <b_mmod_Minimization_Converged-OPLS-2005>
0

> <r_mmod_RMS_Derivative-OPLS-2005>
3.15238213539124

$$$$
41
                    3D
 Structure written by MMmdl.
159168  0  0  1  0            999 V2000
  -30.7187  -14.4581   20.5432 C   0  0  0  0  0  0
  -30.4221  -12.2910   19.4281 C   0  0  0  0  0  0
  -29.4935  -12.4855   18.2110 C   0  0  0  0  0  0
  -28.0170  -12.3465   18.6283 C   0  0  0  0  0  0
  -27.6652  -13.2024   19.8749 C   0  0  2  0  0  0
  -28.7079  -13.0059   21.0021 C   0  0  0  0  0  0
  -25.2619  -13.8164   20.5669 C   0  0  0  0  0  0
  -24.1859  -13.0451   20.9192 C   0  0  0  0  0  0
  -24.6407  -11.6922   20.8764 C   0  0  0  0  0  0
  -23.9073  -10.4302   21.0421 C   0  0  0  0  0  0
  -24.3620   -9.4214   21.9188 C   0  0  0  0  0  0
  -23.6299   -8.2247   22.0757 C   0  0  0  0  0  0
  -22.4281   -8.0292   21.3552 C   0  0  0  0  0  0
  -21.9924   -9.0267   20.4662 C   0  0  0  0  0  0
  -22.7252  -10.2144   20.3073 C   0  0  0  0  0  0
  -21.6856   -6.0754   22.5284 C   0  0  0  0  0  0
  -21.4007   -6.5651   23.8219 C   0  0  0  0  0  0
  -21.3653   -5.6805   24.9180 C   0  0  0  0  0  0
  -21.6039   -4.3066   24.7225 C   0  0  0  0  0  0
  -21.8820   -3.8164   23.4347 C   0  0  0  0  0  0
  -21.9189   -4.6981   22.3410 C   0  0  0  0  0  0
  -22.7877  -13.5267   21.1831 C   0  0  0  0  0  0
  -22.1662   -4.2171   21.0984 F   0  0  0  0  0  0
  -21.5620   -3.4548   25.7731 F   0  0  0  0  0  0
  -30.0425  -13.2838   20.4448 N   0  0  0  0  0  0
  -26.3055  -12.9325   20.3379 N   0  0  0  0  0  0
  -25.9335  -11.6495   20.5808 N   0  0  0  0  0  0
  -22.0513  -12.8265   22.0393 N   0  0  0  0  0  0
  -25.4362  -15.1865   20.4022 N   0  0  0  0  0  0
  -31.8523  -14.6206   20.0861 O   0  0  0  0  0  0
  -21.6647   -6.8887   21.4246 O   0  0  0  0  0  0
  -22.3575  -14.5580   20.6693 O   0  0  0  0  0  0
  -24.6135  -31.8698   23.2082 C   0  0  0  0  0  0
  -25.9040  -32.4827   23.8372 C   0  0  1  0  0  0
  -27.2205  -27.4445   20.0949 C   0  0  0  0  0  0
  -25.5909  -33.8620   24.2308 N   0  0  0  0  0  0
  -23.3975  -30.4943   21.5505 C   0  0  2  0  0  0
  -24.8404  -28.9619   20.1128 C   0  0  0  0  0  0
  -22.7384  -29.4683   22.4995 C   0  0  0  0  0  0
  -18.0279  -28.1374   22.8513 C   0  0  0  0  0  0
  -24.1489  -36.7306   23.2630 C   0  0  0  0  0  0
  -25.9241  -30.8410   21.3547 C   0  0  0  0  0  0
  -26.0014  -29.4768   20.7012 C   0  0  0  0  0  0
  -27.1999  -28.7265   20.6858 C   0  0  0  0  0  0
  -26.0453  -26.9476   19.4898 C   0  0  0  0  0  0
  -24.8543  -27.6970   19.5015 C   0  0  0  0  0  0
  -23.6011  -29.8232   20.1665 C   0  0  0  0  0  0
  -25.4109  -36.3103   24.0331 C   0  0  1  0  0  0
  -20.5860  -28.3659   23.1325 C   0  0  2  0  0  0
  -20.6751  -26.9399   22.5422 C   0  0  0  0  0  0
  -19.5726  -26.6397   21.5209 C   0  0  0  0  0  0
  -18.1916  -26.7924   22.1640 C   0  0  0  0  0  0
  -19.1527  -28.8834   23.2920 C   0  0  0  0  0  0
  -18.9453  -30.1445   23.8920 C   0  0  0  0  0  0
  -17.6451  -30.6580   24.0579 C   0  0  0  0  0  0
  -25.9045  -34.9476   23.5113 C   0  0  0  0  0  0
  -16.5347  -29.9082   23.6334 C   0  0  0  0  0  0
  -16.7271  -28.6502   23.0361 C   0  0  0  0  0  0
  -26.4487  -31.6581   25.0678 C   0  0  0  0  0  0
  -25.3790  -31.3671   26.1454 C   0  0  0  0  0  0
  -27.0273  -30.3023   24.5994 C   0  0  0  0  0  0
  -27.6061  -32.4289   25.7455 C   0  0  0  0  0  0
  -27.5575  -37.1807   24.8465 C   0  0  0  0  0  0
  -21.4116  -29.3034   22.3731 N   0  0  0  0  0  0
  -26.4285  -37.3796   23.9413 N   0  0  0  0  0  0
  -24.6639  -31.0814   22.0971 N   0  0  0  0  0  0
  -23.4189  -28.8252   23.3040 O   0  0  0  0  0  0
  -28.3657  -26.6799   20.1286 O   0  0  0  0  0  0
  -26.5612  -34.8940   22.4671 O   0  0  0  0  0  0
  -23.5338  -32.1456   23.7497 O   0  0  0  0  0  0
  -32.5905  -21.7472   22.1304 C   0  0  0  0  0  0
  -32.2340  -20.4066   21.7372 C   0  0  0  0  0  0
  -31.6279  -22.6783   22.1729 C   0  0  0  0  0  0
  -30.9632  -20.0705   21.4129 C   0  0  0  0  0  0
  -29.9053  -21.1203   21.4511 C   0  0  0  0  0  0
  -31.5062  -17.5651   21.0800 C   0  0  0  0  0  0
  -29.4170  -18.0036   21.0476 C   0  0  0  0  0  0
  -30.2792  -16.8688   20.4598 C   0  0  0  0  0  0
  -29.4732  -24.6088   20.9384 C   0  0  0  0  0  0
  -29.3203  -23.4804   21.9863 C   0  0  0  0  0  0
  -28.1716  -25.4179   20.7816 C   0  0  0  0  0  0
  -30.2954  -22.3799   21.8417 N   0  0  0  0  0  0
  -30.6682  -18.7535   20.9819 N   0  0  0  0  0  0
  -29.9920  -15.5128   20.9445 N   0  0  0  0  0  0
  -28.7309  -20.8873   21.1429 O   0  0  0  0  0  0
  -31.4665  -12.3809   19.1209 H   0  0  0  0  0  0
  -30.3173  -11.2829   19.8341 H   0  0  0  0  0  0
  -29.7309  -11.7531   17.4387 H   0  0  0  0  0  0
  -29.6604  -13.4653   17.7617 H   0  0  0  0  0  0
  -27.8371  -11.2921   18.8400 H   0  0  0  0  0  0
  -27.3636  -12.6062   17.7942 H   0  0  0  0  0  0
  -27.7071  -14.2442   19.5567 H   0  0  0  0  0  0
  -28.6781  -11.9852   21.3851 H   0  0  0  0  0  0
  -28.4776  -13.6444   21.8568 H   0  0  0  0  0  0
  -25.2761   -9.5687   22.4765 H   0  0  0  0  0  0
  -24.0017   -7.4644   22.7469 H   0  0  0  0  0  0
  -21.0862   -8.8789   19.8972 H   0  0  0  0  0  0
  -22.3712  -10.9684   19.6185 H   0  0  0  0  0  0
  -21.2005   -7.6156   23.9724 H   0  0  0  0  0  0
  -21.1464   -6.0535   25.9079 H   0  0  0  0  0  0
  -22.0604   -2.7632   23.2843 H   0  0  0  0  0  0
  -22.4145  -11.9939   22.4786 H   0  0  0  0  0  0
  -21.1136  -13.1297   22.2591 H   0  0  0  0  0  0
  -24.6703  -15.8433   20.5000 H   0  0  0  0  0  0
  -26.2807  -15.6164   20.0475 H   0  0  0  0  0  0
  -26.7095  -32.5579   23.1133 H   0  0  0  0  0  0
  -25.0079  -33.9778   25.0468 H   0  0  0  0  0  0
  -22.6859  -31.3116   21.4102 H   0  0  0  0  0  0
  -23.3734  -35.9655   23.3335 H   0  0  0  0  0  0
  -24.3572  -36.8893   22.2034 H   0  0  0  0  0  0
  -23.7273  -37.6538   23.6623 H   0  0  0  0  0  0
  -26.0257  -31.6034   20.5811 H   0  0  0  0  0  0
  -26.8161  -30.9011   21.9649 H   0  0  0  0  0  0
  -28.0983  -29.1150   21.1446 H   0  0  0  0  0  0
  -26.0373  -25.9817   19.0071 H   0  0  0  0  0  0
  -23.9603  -27.2978   19.0428 H   0  0  0  0  0  0
  -23.7012  -30.5928   19.3996 H   0  0  0  0  0  0
  -22.7264  -29.2367   19.8779 H   0  0  0  0  0  0
  -25.1284  -36.1952   25.0822 H   0  0  0  0  0  0
  -20.9973  -28.3218   24.1433 H   0  0  0  0  0  0
  -20.5613  -26.2275   23.3616 H   0  0  0  0  0  0
  -21.6632  -26.7413   22.1237 H   0  0  0  0  0  0
  -19.6875  -25.6310   21.1229 H   0  0  0  0  0  0
  -19.6653  -27.3215   20.6739 H   0  0  0  0  0  0
  -17.4186  -26.6694   21.4052 H   0  0  0  0  0  0
  -18.0328  -26.0043   22.9010 H   0  0  0  0  0  0
  -19.7928  -30.7268   24.2290 H   0  0  0  0  0  0
  -17.5008  -31.6270   24.5168 H   0  0  0  0  0  0
  -15.5354  -30.2997   23.7616 H   0  0  0  0  0  0
  -15.8681  -28.0825   22.7044 H   0  0  0  0  0  0
  -24.5926  -30.7054   25.7812 H   0  0  0  0  0  0
  -24.9032  -32.2825   26.4974 H   0  0  0  0  0  0
  -25.8197  -30.8799   27.0156 H   0  0  0  0  0  0
  -26.2774  -29.6850   24.1028 H   0  0  0  0  0  0
  -27.4029  -29.7193   25.4411 H   0  0  0  0  0  0
  -27.8631  -30.4349   23.9115 H   0  0  0  0  0  0
  -27.2639  -33.3519   26.2143 H   0  0  0  0  0  0
  -28.3822  -32.6968   25.0276 H   0  0  0  0  0  0
  -28.0778  -31.8350   26.5294 H   0  0  0  0  0  0
  -28.2604  -38.0094   24.7512 H   0  0  0  0  0  0
  -28.1067  -36.2632   24.6288 H   0  0  0  0  0  0
  -27.2305  -37.1449   25.8874 H   0  0  0  0  0  0
  -20.9256  -29.8773   21.6980 H   0  0  0  0  0  0
  -26.0171  -38.2869   24.1431 H   0  0  0  0  0  0
  -33.6138  -21.9941   22.3792 H   0  0  0  0  0  0
  -33.0236  -19.6708   21.6965 H   0  0  0  0  0  0
  -31.8137  -23.7054   22.4578 H   0  0  0  0  0  0
  -32.3920  -17.5736   20.4427 H   0  0  0  0  0  0
  -31.7287  -17.2726   22.1089 H   0  0  0  0  0  0
  -29.0621  -17.8443   22.0691 H   0  0  0  0  0  0
  -28.6305  -18.3502   20.3759 H   0  0  0  0  0  0
  -30.2947  -16.9197   19.3665 H   0  0  0  0  0  0
  -29.7587  -24.1977   19.9694 H   0  0  0  0  0  0
  -30.2801  -25.2762   21.2437 H   0  0  0  0  0  0
  -28.2958  -23.1065   21.9697 H   0  0  0  0  0  0
  -29.4338  -23.9139   22.9805 H   0  0  0  0  0  0
  -27.7355  -25.6015   21.7659 H   0  0  0  0  0  0
  -27.4595  -24.7964   20.2354 H   0  0  0  0  0  0
  -29.0667  -15.3294   21.3026 H   0  0  0  0  0  0
  1 25  1  0  0  0
  1 30  2  0  0  0
  1 84  1  0  0  0
  2  3  1  0  0  0
  2 25  1  0  0  0
  2 86  1  0  0  0
  2 87  1  0  0  0
  3  4  1  0  0  0
  3 88  1  0  0  0
  3 89  1  0  0  0
  4  5  1  0  0  0
  4 90  1  0  0  0
  4 91  1  0  0  0
  5  6  1  0  0  0
  5 26  1  0  0  0
  5 92  1  0  0  0
  6 25  1  0  0  0
  6 93  1  0  0  0
  6 94  1  0  0  0
  7  8  2  0  0  0
  7 26  1  0  0  0
  7 29  1  0  0  0
  8  9  1  0  0  0
  8 22  1  0  0  0
  9 10  1  0  0  0
  9 27  2  0  0  0
 10 11  2  0  0  0
 10 15  1  0  0  0
 11 12  1  0  0  0
 11 95  1  0  0  0
 12 13  2  0  0  0
 12 96  1  0  0  0
 13 14  1  0  0  0
 13 31  1  0  0  0
 14 15  2  0  0  0
 14 97  1  0  0  0
 15 98  1  0  0  0
 16 17  2  0  0  0
 16 21  1  0  0  0
 16 31  1  0  0  0
 17 18  1  0  0  0
 17 99  1  0  0  0
 18 19  2  0  0  0
 18100  1  0  0  0
 19 20  1  0  0  0
 19 24  1  0  0  0
 20 21  2  0  0  0
 20101  1  0  0  0
 21 23  1  0  0  0
 22 28  1  0  0  0
 22 32  2  0  0  0
 26 27  1  0  0  0
 28102  1  0  0  0
 28103  1  0  0  0
 29104  1  0  0  0
 29105  1  0  0  0
 33 34  1  0  0  0
 33 66  1  0  0  0
 33 70  2  0  0  0
 34 36  1  0  0  0
 34 59  1  0  0  0
 34106  1  0  0  0
 35 44  2  0  0  0
 35 45  1  0  0  0
 35 68  1  0  0  0
 36 56  1  0  0  0
 36107  1  0  0  0
 37 39  1  0  0  0
 37 47  1  0  0  0
 37 66  1  0  0  0
 37108  1  0  0  0
 38 43  2  0  0  0
 38 46  1  0  0  0
 38 47  1  0  0  0
 39 64  1  0  0  0
 39 67  2  0  0  0
 40 52  1  0  0  0
 40 53  2  0  0  0
 40 58  1  0  0  0
 41109  1  0  0  0
 41110  1  0  0  0
 41111  1  0  0  0
 41 48  1  0  0  0
 42 43  1  0  0  0
 42 66  1  0  0  0
 42112  1  0  0  0
 42113  1  0  0  0
 43 44  1  0  0  0
 44114  1  0  0  0
 45 46  2  0  0  0
 45115  1  0  0  0
 46116  1  0  0  0
 47117  1  0  0  0
 47118  1  0  0  0
 48 56  1  0  0  0
 48 65  1  0  0  0
 48119  1  0  0  0
 49 50  1  0  0  0
 49 53  1  0  0  0
 49 64  1  0  0  0
 49120  1  0  0  0
 50 51  1  0  0  0
 50121  1  0  0  0
 50122  1  0  0  0
 51 52  1  0  0  0
 51123  1  0  0  0
 51124  1  0  0  0
 52125  1  0  0  0
 52126  1  0  0  0
 53 54  1  0  0  0
 54 55  2  0  0  0
 54127  1  0  0  0
 55 57  1  0  0  0
 55128  1  0  0  0
 56 69  2  0  0  0
 57 58  2  0  0  0
 57129  1  0  0  0
 58130  1  0  0  0
 59 60  1  0  0  0
 59 61  1  0  0  0
 59 62  1  0  0  0
 60131  1  0  0  0
 60132  1  0  0  0
 60133  1  0  0  0
 61134  1  0  0  0
 61135  1  0  0  0
 61136  1  0  0  0
 62137  1  0  0  0
 62138  1  0  0  0
 62139  1  0  0  0
 63 65  1  0  0  0
 63140  1  0  0  0
 63141  1  0  0  0
 63142  1  0  0  0
 64143  1  0  0  0
 65144  1  0  0  0
 68 81  1  0  0  0
 71 72  1  0  0  0
 71 73  2  0  0  0
 71145  1  0  0  0
 72 74  2  0  0  0
 72146  1  0  0  0
 73 82  1  0  0  0
 73147  1  0  0  0
 74 75  1  0  0  0
 74 83  1  0  0  0
 75 82  1  0  0  0
 75 85  2  0  0  0
 76 78  1  0  0  0
 76 83  1  0  0  0
 76148  1  0  0  0
 76149  1  0  0  0
 77 78  1  0  0  0
 77 83  1  0  0  0
 77150  1  0  0  0
 77151  1  0  0  0
 78 84  1  0  0  0
 78152  1  0  0  0
 79 80  1  0  0  0
 79 81  1  0  0  0
 79153  1  0  0  0
 79154  1  0  0  0
 80 82  1  0  0  0
 80155  1  0  0  0
 80156  1  0  0  0
 81157  1  0  0  0
 81158  1  0  0  0
 84159  1  0  0  0
M  ISO  4   1 100  68 101  81 101  84 100
M  END
> <chiral flag>
0

> <version>
0

> <s_m_source_file>
/data/baiqing/PycharmProjects/Reinvent-master-3.2/result/LINK_invent/BTK/process_docking_weight1_custom_sum_contain_oxygen_bond_distance_aromatic_linkinvent_7_9_3/rearranged_h_0199.sdf

> <i_m_source_file_index>
42

> <r_mmod_Potential_Energy-OPLS-2005>
96.5666580200195

> <r_mmod_Stretch_Energy-OPLS-2005>
42.5839958190918

> <r_mmod_Bend_Energy-OPLS-2005>
146.568649291992

> <r_mmod_Torsional_Energy-OPLS-2005>
260.669342041016

> <r_mmod_Improper_Torsional_Energy-OPLS-2005>
10.3201694488525

> <r_mmod_Van_der_Waal_Energy-OPLS-2005>
168.86784362793

> <r_mmod_Electrostatic_Energy-OPLS-2005>
-310.594146728516

> <r_mmod_Solvation_Energy-OPLS-2005>
-235.668975830078

> <b_mmod_Minimization_Converged-OPLS-2005>
0

> <r_mmod_RMS_Derivative-OPLS-2005>
2.93612337112427

$$$$
42
                    3D
 Structure written by MMmdl.
158167  0  0  1  0            999 V2000
  -30.6938  -14.5192   20.5187 C   0  0  0  0  0  0
  -30.4216  -12.3235   19.4395 C   0  0  0  0  0  0
  -29.4966  -12.4782   18.2150 C   0  0  0  0  0  0
  -28.0233  -12.3255   18.6392 C   0  0  0  0  0  0
  -27.6550  -13.2071   19.8633 C   0  0  2  0  0  0
  -28.6956  -13.0590   20.9929 C   0  0  0  0  0  0
  -25.2592  -13.8175   20.5716 C   0  0  0  0  0  0
  -24.1831  -13.0455   20.9198 C   0  0  0  0  0  0
  -24.6372  -11.6920   20.8759 C   0  0  0  0  0  0
  -23.9041  -10.4290   21.0421 C   0  0  0  0  0  0
  -24.3593   -9.4202   21.9196 C   0  0  0  0  0  0
  -23.6266   -8.2240   22.0760 C   0  0  0  0  0  0
  -22.4247   -8.0274   21.3547 C   0  0  0  0  0  0
  -21.9875   -9.0253   20.4653 C   0  0  0  0  0  0
  -22.7212  -10.2128   20.3070 C   0  0  0  0  0  0
  -21.6842   -6.0722   22.5283 C   0  0  0  0  0  0
  -21.4016   -6.5627   23.8212 C   0  0  0  0  0  0
  -21.3667   -5.6781   24.9180 C   0  0  0  0  0  0
  -21.6030   -4.3050   24.7231 C   0  0  0  0  0  0
  -21.8817   -3.8134   23.4353 C   0  0  0  0  0  0
  -21.9197   -4.6945   22.3411 C   0  0  0  0  0  0
  -22.7857  -13.5261   21.1847 C   0  0  0  0  0  0
  -22.1662   -4.2134   21.0988 F   0  0  0  0  0  0
  -21.5627   -3.4540   25.7749 F   0  0  0  0  0  0
  -30.0186  -13.3414   20.4218 N   0  0  0  0  0  0
  -26.2996  -12.9338   20.3349 N   0  0  0  0  0  0
  -25.9292  -11.6504   20.5765 N   0  0  0  0  0  0
  -22.0496  -12.8284   22.0421 N   0  0  0  0  0  0
  -25.4387  -15.1883   20.4141 N   0  0  0  0  0  0
  -31.8745  -14.6301   20.1729 O   0  0  0  0  0  0
  -21.6622   -6.8864   21.4243 O   0  0  0  0  0  0
  -22.3551  -14.5565   20.6681 O   0  0  0  0  0  0
  -24.6193  -31.8690   23.2099 C   0  0  0  0  0  0
  -25.9084  -32.4825   23.8383 C   0  0  1  0  0  0
  -27.2126  -27.4046   20.0888 C   0  0  0  0  0  0
  -25.5944  -33.8619   24.2337 N   0  0  0  0  0  0
  -23.4059  -30.4988   21.5507 C   0  0  2  0  0  0
  -24.8465  -28.9726   20.1062 C   0  0  0  0  0  0
  -22.7426  -29.4690   22.4947 C   0  0  0  0  0  0
  -18.0290  -28.1349   22.8499 C   0  0  0  0  0  0
  -24.1497  -36.7321   23.2627 C   0  0  0  0  0  0
  -25.9397  -30.8288   21.3645 C   0  0  0  0  0  0
  -26.0139  -29.4639   20.7048 C   0  0  0  0  0  0
  -27.2017  -28.6897   20.6910 C   0  0  0  0  0  0
  -26.0267  -26.9562   19.4566 C   0  0  0  0  0  0
  -24.8503  -27.7196   19.4779 C   0  0  0  0  0  0
  -23.6118  -29.8406   20.1625 C   0  0  0  0  0  0
  -25.4109  -36.3108   24.0333 C   0  0  1  0  0  0
  -20.5882  -28.3684   23.1301 C   0  0  2  0  0  0
  -20.6773  -26.9396   22.5456 C   0  0  0  0  0  0
  -19.5771  -26.6341   21.5245 C   0  0  0  0  0  0
  -18.1940  -26.7891   22.1637 C   0  0  0  0  0  0
  -19.1532  -28.8824   23.2901 C   0  0  0  0  0  0
  -18.9444  -30.1426   23.8914 C   0  0  0  0  0  0
  -17.6441  -30.6560   24.0542 C   0  0  0  0  0  0
  -25.9042  -34.9481   23.5124 C   0  0  0  0  0  0
  -16.5341  -29.9060   23.6290 C   0  0  0  0  0  0
  -16.7272  -28.6462   23.0351 C   0  0  0  0  0  0
  -26.4490  -31.6587   25.0709 C   0  0  0  0  0  0
  -25.3748  -31.3736   26.1461 C   0  0  0  0  0  0
  -27.0301  -30.3017   24.6087 C   0  0  0  0  0  0
  -27.6068  -32.4293   25.7477 C   0  0  0  0  0  0
  -27.5591  -37.1808   24.8456 C   0  0  0  0  0  0
  -21.4149  -29.3071   22.3709 N   0  0  0  0  0  0
  -26.4301  -37.3788   23.9407 N   0  0  0  0  0  0
  -24.6737  -31.0781   22.0996 N   0  0  0  0  0  0
  -23.4196  -28.8203   23.2965 O   0  0  0  0  0  0
  -28.3407  -26.5966   20.1511 O   0  0  0  0  0  0
  -26.5582  -34.8935   22.4676 O   0  0  0  0  0  0
  -23.5381  -32.1444   23.7489 O   0  0  0  0  0  0
  -27.6191  -22.7109   22.0521 C   0  0  0  0  0  0
  -28.1113  -20.8740   21.2535 C   0  0  0  0  0  0
  -28.7841  -17.6361   19.6200 C   0  0  0  0  0  0
  -29.1650  -17.6252   22.0686 C   0  0  0  0  0  0
  -29.8244  -16.5009   19.4863 C   0  0  0  0  0  0
  -30.1813  -16.4652   21.8856 C   0  0  0  0  0  0
  -29.0461  -18.5458   20.8333 C   0  0  0  0  0  0
  -29.1448  -24.2275   20.7252 C   0  0  0  0  0  0
  -28.0792  -25.1693   20.0969 C   0  0  0  0  0  0
  -27.2665  -21.4343   22.1598 N   0  0  0  0  0  0
  -28.9417  -21.7207   20.6304 N   0  0  0  0  0  0
  -28.5668  -22.9387   21.1404 N   0  0  0  0  0  0
  -29.9340  -15.6407   20.6856 N   0  0  0  0  0  0
  -27.9423  -19.4979   20.9884 N   0  0  0  0  0  0
  -31.4665  -12.4222   19.1399 H   0  0  0  0  0  0
  -30.3269  -11.3247   19.8686 H   0  0  0  0  0  0
  -29.7458  -11.7335   17.4568 H   0  0  0  0  0  0
  -29.6500  -13.4531   17.7503 H   0  0  0  0  0  0
  -27.8634  -11.2746   18.8864 H   0  0  0  0  0  0
  -27.3629  -12.5480   17.8015 H   0  0  0  0  0  0
  -27.6814  -14.2412   19.5191 H   0  0  0  0  0  0
  -28.6756  -12.0527   21.4132 H   0  0  0  0  0  0
  -28.4611  -13.7351   21.8160 H   0  0  0  0  0  0
  -25.2738   -9.5673   22.4777 H   0  0  0  0  0  0
  -23.9963   -7.4628   22.7485 H   0  0  0  0  0  0
  -21.0803   -8.8783   19.8958 H   0  0  0  0  0  0
  -22.3686  -10.9674   19.6175 H   0  0  0  0  0  0
  -21.2014   -7.6133   23.9708 H   0  0  0  0  0  0
  -21.1498   -6.0524   25.9081 H   0  0  0  0  0  0
  -22.0592   -2.7592   23.2875 H   0  0  0  0  0  0
  -22.4070  -11.9927   22.4805 H   0  0  0  0  0  0
  -21.1139  -13.1390   22.2650 H   0  0  0  0  0  0
  -24.6802  -15.8532   20.5157 H   0  0  0  0  0  0
  -26.3106  -15.6179   20.1323 H   0  0  0  0  0  0
  -26.7157  -32.5521   23.1145 H   0  0  0  0  0  0
  -25.0131  -33.9758   25.0508 H   0  0  0  0  0  0
  -22.6972  -31.3177   21.4157 H   0  0  0  0  0  0
  -23.3749  -35.9664   23.3283 H   0  0  0  0  0  0
  -24.3612  -36.8934   22.2044 H   0  0  0  0  0  0
  -23.7260  -37.6532   23.6639 H   0  0  0  0  0  0
  -26.0548  -31.5966   20.5973 H   0  0  0  0  0  0
  -26.8276  -30.8799   21.9827 H   0  0  0  0  0  0
  -28.0993  -29.0576   21.1681 H   0  0  0  0  0  0
  -25.9773  -26.0047   18.9470 H   0  0  0  0  0  0
  -23.9553  -27.3421   19.0035 H   0  0  0  0  0  0
  -23.7214  -30.6181   19.4064 H   0  0  0  0  0  0
  -22.7324  -29.2654   19.8659 H   0  0  0  0  0  0
  -25.1287  -36.1975   25.0823 H   0  0  0  0  0  0
  -21.0000  -28.3286   24.1409 H   0  0  0  0  0  0
  -20.5628  -26.2309   23.3675 H   0  0  0  0  0  0
  -21.6654  -26.7392   22.1292 H   0  0  0  0  0  0
  -19.6938  -25.6242   21.1297 H   0  0  0  0  0  0
  -19.6704  -27.3122   20.6754 H   0  0  0  0  0  0
  -17.4216  -26.6640   21.4029 H   0  0  0  0  0  0
  -18.0334  -26.0021   22.9022 H   0  0  0  0  0  0
  -19.7920  -30.7233   24.2296 H   0  0  0  0  0  0
  -17.4985  -31.6246   24.5136 H   0  0  0  0  0  0
  -15.5332  -30.2958   23.7562 H   0  0  0  0  0  0
  -15.8684  -28.0754   22.7074 H   0  0  0  0  0  0
  -24.5916  -30.7082   25.7818 H   0  0  0  0  0  0
  -24.8951  -32.2912   26.4876 H   0  0  0  0  0  0
  -25.8087  -30.8937   27.0241 H   0  0  0  0  0  0
  -26.2841  -29.6784   24.1146 H   0  0  0  0  0  0
  -27.4066  -29.7252   25.4542 H   0  0  0  0  0  0
  -27.8686  -30.4312   23.9242 H   0  0  0  0  0  0
  -27.2688  -33.3573   26.2106 H   0  0  0  0  0  0
  -28.3859  -32.6881   25.0293 H   0  0  0  0  0  0
  -28.0764  -31.8388   26.5353 H   0  0  0  0  0  0
  -28.2604  -38.0111   24.7502 H   0  0  0  0  0  0
  -28.1089  -36.2638   24.6270 H   0  0  0  0  0  0
  -27.2315  -37.1456   25.8862 H   0  0  0  0  0  0
  -20.9288  -29.8869   21.7008 H   0  0  0  0  0  0
  -26.0191  -38.2872   24.1391 H   0  0  0  0  0  0
  -27.1518  -23.5019   22.6223 H   0  0  0  0  0  0
  -27.7890  -17.1930   19.6954 H   0  0  0  0  0  0
  -28.7823  -18.2319   18.7051 H   0  0  0  0  0  0
  -29.4490  -18.2150   22.9410 H   0  0  0  0  0  0
  -28.1883  -17.1976   22.3001 H   0  0  0  0  0  0
  -30.8008  -16.9291   19.2501 H   0  0  0  0  0  0
  -29.5521  -15.8874   18.6259 H   0  0  0  0  0  0
  -30.1494  -15.8286   22.7713 H   0  0  0  0  0  0
  -31.1929  -16.8725   21.8397 H   0  0  0  0  0  0
  -29.9845  -19.0876   20.6938 H   0  0  0  0  0  0
  -29.5620  -24.6965   21.6160 H   0  0  0  0  0  0
  -29.9740  -24.0623   20.0365 H   0  0  0  0  0  0
  -27.1450  -24.9770   20.6262 H   0  0  0  0  0  0
  -27.9152  -24.8666   19.0616 H   0  0  0  0  0  0
  -27.1344  -19.1158   21.4646 H   0  0  0  0  0  0
  1 25  1  0  0  0
  1 30  2  0  0  0
  1 83  1  0  0  0
  2  3  1  0  0  0
  2 25  1  0  0  0
  2 85  1  0  0  0
  2 86  1  0  0  0
  3  4  1  0  0  0
  3 87  1  0  0  0
  3 88  1  0  0  0
  4  5  1  0  0  0
  4 89  1  0  0  0
  4 90  1  0  0  0
  5  6  1  0  0  0
  5 26  1  0  0  0
  5 91  1  0  0  0
  6 25  1  0  0  0
  6 92  1  0  0  0
  6 93  1  0  0  0
  7  8  2  0  0  0
  7 26  1  0  0  0
  7 29  1  0  0  0
  8  9  1  0  0  0
  8 22  1  0  0  0
  9 10  1  0  0  0
  9 27  2  0  0  0
 10 11  2  0  0  0
 10 15  1  0  0  0
 11 12  1  0  0  0
 11 94  1  0  0  0
 12 13  2  0  0  0
 12 95  1  0  0  0
 13 14  1  0  0  0
 13 31  1  0  0  0
 14 15  2  0  0  0
 14 96  1  0  0  0
 15 97  1  0  0  0
 16 17  2  0  0  0
 16 21  1  0  0  0
 16 31  1  0  0  0
 17 18  1  0  0  0
 17 98  1  0  0  0
 18 19  2  0  0  0
 18 99  1  0  0  0
 19 20  1  0  0  0
 19 24  1  0  0  0
 20 21  2  0  0  0
 20100  1  0  0  0
 21 23  1  0  0  0
 22 28  1  0  0  0
 22 32  2  0  0  0
 26 27  1  0  0  0
 28101  1  0  0  0
 28102  1  0  0  0
 29103  1  0  0  0
 29104  1  0  0  0
 33 34  1  0  0  0
 33 66  1  0  0  0
 33 70  2  0  0  0
 34 36  1  0  0  0
 34 59  1  0  0  0
 34105  1  0  0  0
 35 44  2  0  0  0
 35 45  1  0  0  0
 35 68  1  0  0  0
 36 56  1  0  0  0
 36106  1  0  0  0
 37 39  1  0  0  0
 37 47  1  0  0  0
 37 66  1  0  0  0
 37107  1  0  0  0
 38 43  2  0  0  0
 38 46  1  0  0  0
 38 47  1  0  0  0
 39 64  1  0  0  0
 39 67  2  0  0  0
 40 52  1  0  0  0
 40 53  2  0  0  0
 40 58  1  0  0  0
 41108  1  0  0  0
 41109  1  0  0  0
 41110  1  0  0  0
 41 48  1  0  0  0
 42 43  1  0  0  0
 42 66  1  0  0  0
 42111  1  0  0  0
 42112  1  0  0  0
 43 44  1  0  0  0
 44113  1  0  0  0
 45 46  2  0  0  0
 45114  1  0  0  0
 46115  1  0  0  0
 47116  1  0  0  0
 47117  1  0  0  0
 48 56  1  0  0  0
 48 65  1  0  0  0
 48118  1  0  0  0
 49 50  1  0  0  0
 49 53  1  0  0  0
 49 64  1  0  0  0
 49119  1  0  0  0
 50 51  1  0  0  0
 50120  1  0  0  0
 50121  1  0  0  0
 51 52  1  0  0  0
 51122  1  0  0  0
 51123  1  0  0  0
 52124  1  0  0  0
 52125  1  0  0  0
 53 54  1  0  0  0
 54 55  2  0  0  0
 54126  1  0  0  0
 55 57  1  0  0  0
 55127  1  0  0  0
 56 69  2  0  0  0
 57 58  2  0  0  0
 57128  1  0  0  0
 58129  1  0  0  0
 59 60  1  0  0  0
 59 61  1  0  0  0
 59 62  1  0  0  0
 60130  1  0  0  0
 60131  1  0  0  0
 60132  1  0  0  0
 61133  1  0  0  0
 61134  1  0  0  0
 61135  1  0  0  0
 62136  1  0  0  0
 62137  1  0  0  0
 62138  1  0  0  0
 63 65  1  0  0  0
 63139  1  0  0  0
 63140  1  0  0  0
 63141  1  0  0  0
 64142  1  0  0  0
 65143  1  0  0  0
 68 79  1  0  0  0
 71 80  2  0  0  0
 71 82  1  0  0  0
 71144  1  0  0  0
 72 80  1  0  0  0
 72 81  2  0  0  0
 72 84  1  0  0  0
 73 75  1  0  0  0
 73 77  1  0  0  0
 73145  1  0  0  0
 73146  1  0  0  0
 74 76  1  0  0  0
 74 77  1  0  0  0
 74147  1  0  0  0
 74148  1  0  0  0
 75 83  1  0  0  0
 75149  1  0  0  0
 75150  1  0  0  0
 76 83  1  0  0  0
 76151  1  0  0  0
 76152  1  0  0  0
 77 84  1  0  0  0
 77153  1  0  0  0
 78 79  1  0  0  0
 78 82  1  0  0  0
 78154  1  0  0  0
 78155  1  0  0  0
 79156  1  0  0  0
 79157  1  0  0  0
 81 82  1  0  0  0
 84158  1  0  0  0
M  ISO  4   1 100  68 101  79 101  83 100
M  END
> <chiral flag>
0

> <version>
0

> <s_m_source_file>
/data/baiqing/PycharmProjects/Reinvent-master-3.2/result/LINK_invent/BTK/process_docking_weight1_custom_sum_contain_oxygen_bond_distance_aromatic_linkinvent_7_9_3/rearranged_h_0199.sdf

> <i_m_source_file_index>
43

> <r_mmod_Potential_Energy-OPLS-2005>
50.1113510131836

> <r_mmod_Stretch_Energy-OPLS-2005>
43.0509605407715

> <r_mmod_Bend_Energy-OPLS-2005>
125.734802246094

> <r_mmod_Torsional_Energy-OPLS-2005>
339.805541992188

> <r_mmod_Improper_Torsional_Energy-OPLS-2005>
16.1959838867188

> <r_mmod_Van_der_Waal_Energy-OPLS-2005>
133.12141418457

> <r_mmod_Electrostatic_Energy-OPLS-2005>
-412.267242431641

> <r_mmod_Solvation_Energy-OPLS-2005>
-221.677215576172

> <b_mmod_Minimization_Converged-OPLS-2005>
0

> <r_mmod_RMS_Derivative-OPLS-2005>
2.45927977561951

$$$$
43
                    3D
 Structure written by MMmdl.
174184  0  0  1  0            999 V2000
  -31.5243  -14.9355   20.5557 C   0  0  0  0  0  0
  -30.8310  -12.4395   19.8952 C   0  0  0  0  0  0
  -29.5366  -11.3558   18.9248 C   0  0  0  0  0  0
  -27.7963  -12.0400   18.4803 C   0  0  0  0  0  0
  -27.3937  -13.9178   18.8549 C   0  0  2  0  0  0
  -28.8792  -15.0497   19.7791 C   0  0  0  0  0  0
  -24.6000  -14.8285   19.8194 C   0  0  0  0  0  0
  -23.9705  -13.9906   21.2282 C   0  0  0  0  0  0
  -24.7670  -12.4643   21.5502 C   0  0  0  0  0  0
  -24.0547  -10.9455   21.4247 C   0  0  0  0  0  0
  -24.4678   -9.7527   22.1306 C   0  0  0  0  0  0
  -23.7755   -8.4807   22.1436 C   0  0  0  0  0  0
  -22.5867   -8.2433   21.4059 C   0  0  0  0  0  0
  -22.2251   -9.3197   20.5632 C   0  0  0  0  0  0
  -22.9343  -10.5822   20.5593 C   0  0  0  0  0  0
  -21.7737   -6.1776   22.5026 C   0  0  0  0  0  0
  -21.4624   -6.6275   23.8071 C   0  0  0  0  0  0
  -21.3765   -5.7212   24.8893 C   0  0  0  0  0  0
  -21.5973   -4.3449   24.6843 C   0  0  0  0  0  0
  -21.8734   -3.8774   23.3884 C   0  0  0  0  0  0
  -21.9479   -4.7802   22.3071 C   0  0  0  0  0  0
  -22.5152  -13.9214   21.3360 C   0  0  0  0  0  0
  -22.1860   -4.2874   21.0686 F   0  0  0  0  0  0
  -21.5428   -3.4797   25.7277 F   0  0  0  0  0  0
  -30.4611  -14.2286   20.2836 N   0  0  0  0  0  0
  -26.1972  -13.7465   19.4722 N   0  0  0  0  0  0
  -26.0870  -12.4583   20.6990 N   0  0  0  0  0  0
  -21.9496  -13.0306   22.1448 N   0  0  0  0  0  0
  -24.5912  -16.1090   19.4375 N   0  0  0  0  0  0
  -32.4904  -14.3147   20.8878 O   0  0  0  0  0  0
  -21.8390   -7.0515   21.4171 O   0  0  0  0  0  0
  -21.8817  -14.6872   20.6353 O   0  0  0  0  0  0
  -24.7498  -31.6971   23.0990 C   0  0  0  0  0  0
  -25.9766  -32.3922   23.7732 C   0  0  1  0  0  0
  -26.6509  -25.6414   20.5325 C   0  0  0  0  0  0
  -25.6035  -33.7834   24.1467 N   0  0  0  0  0  0
  -23.5840  -30.2934   21.4714 C   0  0  2  0  0  0
  -24.9475  -28.4323   20.1467 C   0  0  0  0  0  0
  -22.7899  -29.3817   22.4493 C   0  0  0  0  0  0
  -18.0319  -28.1436   22.8412 C   0  0  0  0  0  0
  -24.1490  -36.6912   23.2666 C   0  0  0  0  0  0
  -26.1583  -30.0583   21.5363 C   0  0  0  0  0  0
  -26.0940  -28.5185   20.9316 C   0  0  0  0  0  0
  -26.9214  -27.1741   21.0691 C   0  0  0  0  0  0
  -25.6600  -26.0374   19.5588 C   0  0  0  0  0  0
  -24.8485  -27.2363   19.4075 C   0  0  0  0  0  0
  -23.8658  -29.5546   20.1176 C   0  0  0  0  0  0
  -25.4176  -36.2589   24.0212 C   0  0  1  0  0  0
  -20.5971  -28.3801   23.1022 C   0  0  2  0  0  0
  -20.6751  -26.9407   22.5415 C   0  0  0  0  0  0
  -19.5757  -26.6329   21.5205 C   0  0  0  0  0  0
  -18.1930  -26.7946   22.1583 C   0  0  0  0  0  0
  -19.1601  -28.8959   23.2691 C   0  0  0  0  0  0
  -18.9520  -30.1530   23.8769 C   0  0  0  0  0  0
  -17.6516  -30.6621   24.0530 C   0  0  0  0  0  0
  -25.9215  -34.9000   23.4738 C   0  0  0  0  0  0
  -16.5397  -29.9107   23.6359 C   0  0  0  0  0  0
  -16.7304  -28.6526   23.0377 C   0  0  0  0  0  0
  -26.4720  -31.6421   25.0739 C   0  0  0  0  0  0
  -25.3596  -31.4006   26.1224 C   0  0  0  0  0  0
  -27.0841  -30.2695   24.7355 C   0  0  0  0  0  0
  -27.5982  -32.4557   25.7555 C   0  0  0  0  0  0
  -27.5534  -37.1594   24.8453 C   0  0  0  0  0  0
  -21.4502  -29.2899   22.3231 N   0  0  0  0  0  0
  -26.4211  -37.3464   23.9421 N   0  0  0  0  0  0
  -24.8734  -30.7486   22.0791 N   0  0  0  0  0  0
  -23.4043  -28.7480   23.3097 O   0  0  0  0  0  0
  -27.1144  -23.8971   20.6970 O   0  0  0  0  0  0
  -26.5989  -34.8740   22.4446 O   0  0  0  0  0  0
  -23.6408  -32.0579   23.5394 O   0  0  0  0  0  0
  -29.1725  -13.8347   16.8681 C   0  0  0  0  0  0
  -30.6865  -15.1177   17.1426 C   0  0  0  0  0  0
  -28.2153  -15.3101   22.6170 C   0  0  0  0  0  0
  -32.8508  -16.1602   17.6465 C   0  0  0  0  0  0
  -30.7437  -17.3802   18.0167 C   0  0  0  0  0  0
  -33.0703  -16.2686   19.1778 C   0  0  0  0  0  0
  -30.9594  -17.2712   19.5682 C   0  0  0  0  0  0
  -27.6488  -16.8236   22.4405 C   0  0  0  0  0  0
  -26.1576  -14.9251   21.3402 C   0  0  0  0  0  0
  -27.6306  -14.1113   21.7385 C   0  0  1  0  0  0
  -28.5964  -12.9214   15.8243 C   0  0  0  0  0  0
  -28.6008  -12.9205   20.5458 C   0  0  0  0  0  0
  -26.6442  -19.1762   20.9496 C   0  0  0  0  0  0
  -26.5605  -21.7175   20.9726 C   0  0  0  0  0  0
  -29.5746  -15.0257   16.4129 N   0  0  0  0  0  0
  -30.9047  -13.9999   17.8057 N   0  0  0  0  0  0
  -29.5987  -13.5492   18.1886 N   0  0  0  0  0  0
  -31.4412  -16.3179   17.2619 N   0  0  0  0  0  0
  -31.7782  -16.0937   19.8786 N   0  0  0  0  0  0
  -26.4265  -17.0604   21.5700 N   0  3  2  0  0  0
  -31.7915  -12.3594   19.3799 H   0  0  0  0  0  0
  -31.0897  -11.9327   20.8267 H   0  0  0  0  0  0
  -29.4064  -10.4157   19.4638 H   0  0  0  0  0  0
  -30.0192  -11.0240   17.9991 H   0  0  0  0  0  0
  -27.1085  -11.3500   18.9567 H   0  0  0  0  0  0
  -27.4483  -11.7238   17.5060 H   0  0  0  0  0  0
  -27.0851  -14.4506   17.9559 H   0  0  0  0  0  0
  -28.6170  -15.8917   20.3787 H   0  0  0  0  0  0
  -29.0738  -15.7285   18.9684 H   0  0  0  0  0  0
  -25.3395   -9.8352   22.7668 H   0  0  0  0  0  0
  -24.1679   -7.6902   22.7653 H   0  0  0  0  0  0
  -21.3685   -9.2043   19.9155 H   0  0  0  0  0  0
  -22.5542  -11.3505   19.9037 H   0  0  0  0  0  0
  -21.2968   -7.6811   23.9814 H   0  0  0  0  0  0
  -21.1493   -6.0883   25.8793 H   0  0  0  0  0  0
  -22.0291   -2.8231   23.2169 H   0  0  0  0  0  0
  -22.4903  -12.3929   22.7108 H   0  0  0  0  0  0
  -20.9406  -12.9842   22.2000 H   0  0  0  0  0  0
  -23.7563  -16.6663   19.5859 H   0  0  0  0  0  0
  -25.1361  -16.4348   18.6471 H   0  0  0  0  0  0
  -26.7922  -32.4175   23.0484 H   0  0  0  0  0  0
  -24.9966  -33.8764   24.9476 H   0  0  0  0  0  0
  -22.9627  -31.1605   21.2398 H   0  0  0  0  0  0
  -23.3810  -35.9175   23.3182 H   0  0  0  0  0  0
  -24.3524  -36.8791   22.2108 H   0  0  0  0  0  0
  -23.7194  -37.5978   23.6935 H   0  0  0  0  0  0
  -26.5098  -30.6928   20.7210 H   0  0  0  0  0  0
  -26.9740  -30.0913   22.2403 H   0  0  0  0  0  0
  -27.7458  -27.2525   21.7643 H   0  0  0  0  0  0
  -25.3416  -25.2211   18.9256 H   0  0  0  0  0  0
  -24.0360  -27.1658   18.6984 H   0  0  0  0  0  0
  -24.1762  -30.2873   19.3691 H   0  0  0  0  0  0
  -22.9373  -29.1288   19.7339 H   0  0  0  0  0  0
  -25.1428  -36.1212   25.0697 H   0  0  0  0  0  0
  -21.0037  -28.3484   24.1160 H   0  0  0  0  0  0
  -20.5507  -26.2454   23.3728 H   0  0  0  0  0  0
  -21.6612  -26.7224   22.1299 H   0  0  0  0  0  0
  -19.6907  -25.6203   21.1328 H   0  0  0  0  0  0
  -19.6737  -27.3058   20.6674 H   0  0  0  0  0  0
  -17.4201  -26.6673   21.3987 H   0  0  0  0  0  0
  -18.0306  -26.0116   22.9002 H   0  0  0  0  0  0
  -19.8019  -30.7342   24.2093 H   0  0  0  0  0  0
  -17.5092  -31.6284   24.5155 H   0  0  0  0  0  0
  -15.5407  -30.2991   23.7771 H   0  0  0  0  0  0
  -15.8683  -28.0821   22.7193 H   0  0  0  0  0  0
  -24.5818  -30.7304   25.7549 H   0  0  0  0  0  0
  -24.8762  -32.3323   26.4167 H   0  0  0  0  0  0
  -25.7613  -30.9494   27.0305 H   0  0  0  0  0  0
  -26.3625  -29.5852   24.2887 H   0  0  0  0  0  0
  -27.4399  -29.7736   25.6395 H   0  0  0  0  0  0
  -27.9569  -30.3641   24.0898 H   0  0  0  0  0  0
  -27.2360  -33.4013   26.1602 H   0  0  0  0  0  0
  -28.4023  -32.6875   25.0564 H   0  0  0  0  0  0
  -28.0406  -31.9103   26.5898 H   0  0  0  0  0  0
  -28.2421  -38.0009   24.7578 H   0  0  0  0  0  0
  -28.1162  -36.2517   24.6192 H   0  0  0  0  0  0
  -27.2258  -37.1099   25.8854 H   0  0  0  0  0  0
  -20.9946  -29.8508   21.6172 H   0  0  0  0  0  0
  -25.9948  -38.2452   24.1516 H   0  0  0  0  0  0
  -28.0003  -15.0720   23.6594 H   0  0  0  0  0  0
  -29.3040  -15.3131   22.5845 H   0  0  0  0  0  0
  -33.2330  -15.2050   17.2857 H   0  0  0  0  0  0
  -33.4366  -16.9228   17.1355 H   0  0  0  0  0  0
  -31.1294  -18.3406   17.6786 H   0  0  0  0  0  0
  -29.6824  -17.4060   17.7669 H   0  0  0  0  0  0
  -33.4792  -17.2503   19.4233 H   0  0  0  0  0  0
  -33.8609  -15.5811   19.4849 H   0  0  0  0  0  0
  -30.0547  -17.3508   20.1586 H   0  0  0  0  0  0
  -31.5021  -18.1539   19.9069 H   0  0  0  0  0  0
  -28.4728  -17.4246   22.0565 H   0  0  0  0  0  0
  -27.4390  -17.2434   23.4248 H   0  0  0  0  0  0
  -24.5953  -13.0512   19.7759 H   0  0  0  0  0  0
  -26.6642  -15.5445   20.5933 H   0  0  0  0  0  0
  -27.3754  -13.4117   22.5376 H   0  0  0  0  0  0
  -28.9895  -13.2015   14.8442 H   0  0  0  0  0  0
  -27.5117  -13.0054   15.7784 H   0  0  0  0  0  0
  -28.9183  -11.8918   15.9803 H   0  0  0  0  0  0
  -28.2732  -11.8947   20.7204 H   0  0  0  0  0  0
  -29.2487  -12.6878   21.4031 H   0  0  0  0  0  0
  -25.6611  -19.2448   21.4116 H   0  0  0  0  0  0
  -27.4637  -19.2693   21.6588 H   0  0  0  0  0  0
  -26.3824  -21.8121   22.0423 H   0  0  0  0  0  0
  -25.5702  -21.8058   20.5266 H   0  0  0  0  0  0
  -25.6491  -17.1909   22.2007 H   0  0  0  0  0  0
  1 25  1  0  0  0
  1 30  2  0  0  0
  1 89  1  0  0  0
  2  3  1  0  0  0
  2 25  1  0  0  0
  2 91  1  0  0  0
  2 92  1  0  0  0
  3  4  1  0  0  0
  3 93  1  0  0  0
  3 94  1  0  0  0
  4  5  1  0  0  0
  4 95  1  0  0  0
  4 96  1  0  0  0
  5  6  1  0  0  0
  5 26  1  0  0  0
  5 97  1  0  0  0
  6 25  1  0  0  0
  6 98  1  0  0  0
  6 99  1  0  0  0
  7  8  2  0  0  0
  7 26  1  0  0  0
  7 29  1  0  0  0
  8  9  1  0  0  0
  8 22  1  0  0  0
  9 10  1  0  0  0
  9 27  2  0  0  0
 10 11  2  0  0  0
 10 15  1  0  0  0
 11 12  1  0  0  0
 11100  1  0  0  0
 12 13  2  0  0  0
 12101  1  0  0  0
 13 14  1  0  0  0
 13 31  1  0  0  0
 14 15  2  0  0  0
 14102  1  0  0  0
 15103  1  0  0  0
 16 17  2  0  0  0
 16 21  1  0  0  0
 16 31  1  0  0  0
 17 18  1  0  0  0
 17104  1  0  0  0
 18 19  2  0  0  0
 18105  1  0  0  0
 19 20  1  0  0  0
 19 24  1  0  0  0
 20 21  2  0  0  0
 20106  1  0  0  0
 21 23  1  0  0  0
 22 28  1  0  0  0
 22 32  2  0  0  0
 26 27  1  0  0  0
 28107  1  0  0  0
 28108  1  0  0  0
 29109  1  0  0  0
 29110  1  0  0  0
 33 34  1  0  0  0
 33 66  1  0  0  0
 33 70  2  0  0  0
 34 36  1  0  0  0
 34 59  1  0  0  0
 34111  1  0  0  0
 35 44  2  0  0  0
 35 45  1  0  0  0
 35 68  1  0  0  0
 36 56  1  0  0  0
 36112  1  0  0  0
 37 39  1  0  0  0
 37 47  1  0  0  0
 37 66  1  0  0  0
 37113  1  0  0  0
 38 43  2  0  0  0
 38 46  1  0  0  0
 38 47  1  0  0  0
 39 64  1  0  0  0
 39 67  2  0  0  0
 40 52  1  0  0  0
 40 53  2  0  0  0
 40 58  1  0  0  0
 41114  1  0  0  0
 41115  1  0  0  0
 41116  1  0  0  0
 41 48  1  0  0  0
 42 43  1  0  0  0
 42 66  1  0  0  0
 42117  1  0  0  0
 42118  1  0  0  0
 43 44  1  0  0  0
 44119  1  0  0  0
 45 46  2  0  0  0
 45120  1  0  0  0
 46121  1  0  0  0
 47122  1  0  0  0
 47123  1  0  0  0
 48 56  1  0  0  0
 48 65  1  0  0  0
 48124  1  0  0  0
 49 50  1  0  0  0
 49 53  1  0  0  0
 49 64  1  0  0  0
 49125  1  0  0  0
 50 51  1  0  0  0
 50126  1  0  0  0
 50127  1  0  0  0
 51 52  1  0  0  0
 51128  1  0  0  0
 51129  1  0  0  0
 52130  1  0  0  0
 52131  1  0  0  0
 53 54  1  0  0  0
 54 55  2  0  0  0
 54132  1  0  0  0
 55 57  1  0  0  0
 55133  1  0  0  0
 56 69  2  0  0  0
 57 58  2  0  0  0
 57134  1  0  0  0
 58135  1  0  0  0
 59 60  1  0  0  0
 59 61  1  0  0  0
 59 62  1  0  0  0
 60136  1  0  0  0
 60137  1  0  0  0
 60138  1  0  0  0
 61139  1  0  0  0
 61140  1  0  0  0
 61141  1  0  0  0
 62142  1  0  0  0
 62143  1  0  0  0
 62144  1  0  0  0
 63 65  1  0  0  0
 63145  1  0  0  0
 63146  1  0  0  0
 63147  1  0  0  0
 64148  1  0  0  0
 65149  1  0  0  0
 68 84  1  0  0  0
 71 81  1  0  0  0
 71 85  2  0  0  0
 71 87  1  0  0  0
 72 85  1  0  0  0
 72 86  2  0  0  0
 72 88  1  0  0  0
 73 78  1  0  0  0
 73 80  1  0  0  0
 73150  1  0  0  0
 73151  1  0  0  0
 74 76  1  0  0  0
 74 88  1  0  0  0
 74152  1  0  0  0
 74153  1  0  0  0
 75 77  1  0  0  0
 75 88  1  0  0  0
 75154  1  0  0  0
 75155  1  0  0  0
 76 89  1  0  0  0
 76156  1  0  0  0
 76157  1  0  0  0
 77 89  1  0  0  0
 77158  1  0  0  0
 77159  1  0  0  0
 78 90  1  0  0  0
 78160  1  0  0  0
 78161  1  0  0  0
 79 80  1  0  0  0
 79 90  1  0  0  0
 79162  1  0  0  0
 79163  1  0  0  0
 80 82  1  0  0  0
 80164  1  0  0  0
 81165  1  0  0  0
 81166  1  0  0  0
 81167  1  0  0  0
 82 87  1  0  0  0
 82168  1  0  0  0
 82169  1  0  0  0
 83 84  1  0  0  0
 83170  1  0  0  0
 83171  1  0  0  0
 83 90  1  0  0  0
 84172  1  0  0  0
 84173  1  0  0  0
 86 87  1  0  0  0
 90174  1  0  0  0
M  CHG  1  90   1
M  ISO  4   1 100  68 101  84 101  89 100
M  END
> <chiral flag>
0

> <version>
0

> <s_m_source_file>
/data/baiqing/PycharmProjects/Reinvent-master-3.2/result/LINK_invent/BTK/process_docking_weight1_custom_sum_contain_oxygen_bond_distance_aromatic_linkinvent_7_9_3/rearranged_h_0199.sdf

> <i_m_source_file_index>
44

> <r_mmod_Potential_Energy-OPLS-2005>
25246.5390625

> <r_mmod_Stretch_Energy-OPLS-2005>
14323.05859375

> <r_mmod_Bend_Energy-OPLS-2005>
2003.93798828125

> <r_mmod_Torsional_Energy-OPLS-2005>
806.083129882812

> <r_mmod_Improper_Torsional_Energy-OPLS-2005>
85.9762649536133

> <r_mmod_Van_der_Waal_Energy-OPLS-2005>
4315.05517578125

> <r_mmod_Electrostatic_Energy-OPLS-2005>
-350.522521972656

> <r_mmod_Solvation_Energy-OPLS-2005>
-459.046569824219

> <b_mmod_Minimization_Converged-OPLS-2005>
0

> <r_mmod_RMS_Derivative-OPLS-2005>
9.09290313720703

$$$$
44
                    3D
 Structure written by MMmdl.
158168  0  0  1  0            999 V2000
  -30.6355  -14.7291   20.4738 C   0  0  0  0  0  0
  -30.4312  -12.4497   19.4706 C   0  0  0  0  0  0
  -29.5079  -12.5068   18.2342 C   0  0  0  0  0  0
  -28.0348  -12.3322   18.6504 C   0  0  0  0  0  0
  -27.6431  -13.2325   19.8526 C   0  0  2  0  0  0
  -28.6898  -13.1668   20.9868 C   0  0  0  0  0  0
  -25.2514  -13.8199   20.5704 C   0  0  0  0  0  0
  -24.1806  -13.0442   20.9212 C   0  0  0  0  0  0
  -24.6399  -11.6921   20.8752 C   0  0  0  0  0  0
  -23.9075  -10.4294   21.0409 C   0  0  0  0  0  0
  -24.3623   -9.4208   21.9186 C   0  0  0  0  0  0
  -23.6297   -8.2243   22.0754 C   0  0  0  0  0  0
  -22.4279   -8.0282   21.3543 C   0  0  0  0  0  0
  -21.9917   -9.0257   20.4646 C   0  0  0  0  0  0
  -22.7247  -10.2136   20.3057 C   0  0  0  0  0  0
  -21.6854   -6.0737   22.5278 C   0  0  0  0  0  0
  -21.4015   -6.5640   23.8212 C   0  0  0  0  0  0
  -21.3659   -5.6792   24.9173 C   0  0  0  0  0  0
  -21.6044   -4.3056   24.7223 C   0  0  0  0  0  0
  -21.8819   -3.8148   23.4344 C   0  0  0  0  0  0
  -21.9193   -4.6964   22.3401 C   0  0  0  0  0  0
  -22.7825  -13.5220   21.1869 C   0  0  0  0  0  0
  -22.1662   -4.2150   21.0978 F   0  0  0  0  0  0
  -21.5628   -3.4539   25.7736 F   0  0  0  0  0  0
  -29.9918  -13.5135   20.4028 N   0  0  0  0  0  0
  -26.2948  -12.9411   20.3303 N   0  0  0  0  0  0
  -25.9332  -11.6551   20.5767 N   0  0  0  0  0  0
  -22.0474  -12.8207   22.0424 N   0  0  0  0  0  0
  -25.4197  -15.1925   20.4110 N   0  0  0  0  0  0
  -31.8218  -14.8148   20.1472 O   0  0  0  0  0  0
  -21.6641   -6.8880   21.4240 O   0  0  0  0  0  0
  -22.3507  -14.5526   20.6718 O   0  0  0  0  0  0
  -24.6341  -31.8560   23.2018 C   0  0  0  0  0  0
  -25.9164  -32.4758   23.8354 C   0  0  1  0  0  0
  -27.2086  -27.2465   20.1165 C   0  0  0  0  0  0
  -25.5956  -33.8561   24.2269 N   0  0  0  0  0  0
  -23.4302  -30.4842   21.5463 C   0  0  2  0  0  0
  -24.8753  -28.9425   20.1077 C   0  0  0  0  0  0
  -22.7518  -29.4615   22.4907 C   0  0  0  0  0  0
  -18.0296  -28.1391   22.8482 C   0  0  0  0  0  0
  -24.1488  -36.7277   23.2637 C   0  0  0  0  0  0
  -25.9819  -30.7626   21.3886 C   0  0  0  0  0  0
  -26.0517  -29.3878   20.7240 C   0  0  0  0  0  0
  -27.2204  -28.5527   20.7221 C   0  0  0  0  0  0
  -26.0058  -26.8959   19.4512 C   0  0  0  0  0  0
  -24.8595  -27.7042   19.4605 C   0  0  0  0  0  0
  -23.6485  -29.8302   20.1594 C   0  0  0  0  0  0
  -25.4115  -36.3068   24.0325 C   0  0  1  0  0  0
  -20.5904  -28.3706   23.1256 C   0  0  2  0  0  0
  -20.6787  -26.9421   22.5399 C   0  0  0  0  0  0
  -19.5757  -26.6383   21.5210 C   0  0  0  0  0  0
  -18.1938  -26.7931   22.1622 C   0  0  0  0  0  0
  -19.1551  -28.8866   23.2863 C   0  0  0  0  0  0
  -18.9472  -30.1466   23.8883 C   0  0  0  0  0  0
  -17.6471  -30.6591   24.0563 C   0  0  0  0  0  0
  -25.9062  -34.9440   23.5095 C   0  0  0  0  0  0
  -16.5361  -29.9085   23.6338 C   0  0  0  0  0  0
  -16.7282  -28.6504   23.0357 C   0  0  0  0  0  0
  -26.4519  -31.6587   25.0749 C   0  0  0  0  0  0
  -25.3730  -31.3742   26.1459 C   0  0  0  0  0  0
  -27.0374  -30.2997   24.6262 C   0  0  0  0  0  0
  -27.6063  -32.4337   25.7524 C   0  0  0  0  0  0
  -27.5580  -37.1789   24.8461 C   0  0  0  0  0  0
  -21.4223  -29.3055   22.3647 N   0  0  0  0  0  0
  -26.4284  -37.3773   23.9419 N   0  0  0  0  0  0
  -24.7013  -31.0516   22.1009 N   0  0  0  0  0  0
  -23.4213  -28.8135   23.2996 O   0  0  0  0  0  0
  -28.2677  -26.2952   20.1952 O   0  0  0  0  0  0
  -26.5629  -34.8915   22.4659 O   0  0  0  0  0  0
  -23.5486  -32.1392   23.7301 O   0  0  0  0  0  0
  -28.9833  -22.6054   19.0753 C   0  0  0  0  0  0
  -29.3278  -21.7273   21.5720 C   0  0  0  0  0  0
  -28.7357  -23.5284   20.1350 C   0  0  0  0  0  0
  -29.5459  -20.7751   20.5057 C   0  0  0  0  0  0
  -30.2886  -22.2799   23.9603 C   0  0  0  0  0  0
  -30.9294  -20.9957   23.5132 C   0  0  0  0  0  0
  -29.6745  -18.3790   21.6381 C   0  0  0  0  0  0
  -29.9285  -18.3206   19.5921 C   0  0  0  0  0  0
  -29.5452  -21.3575   23.0116 C   0  0  0  0  0  0
  -30.3882  -17.3243   20.7172 C   0  0  0  0  0  0
  -27.8984  -24.8657   19.8700 C   0  0  0  0  0  0
  -29.3682  -21.2954   19.2549 N   0  0  0  0  0  0
  -28.9079  -23.0367   21.3975 N   0  0  0  0  0  0
  -30.0548  -19.3799   20.6180 N   0  0  0  0  0  0
  -29.8973  -15.8753   20.7153 N   0  0  0  0  0  0
  -31.4723  -12.5682   19.1657 H   0  0  0  0  0  0
  -30.3721  -11.4730   19.9534 H   0  0  0  0  0  0
  -29.7877  -11.7341   17.5168 H   0  0  0  0  0  0
  -29.6345  -13.4618   17.7218 H   0  0  0  0  0  0
  -27.8919  -11.2835   18.9137 H   0  0  0  0  0  0
  -27.3757  -12.5248   17.8029 H   0  0  0  0  0  0
  -27.6381  -14.2543   19.4726 H   0  0  0  0  0  0
  -28.7229  -12.1700   21.4288 H   0  0  0  0  0  0
  -28.4280  -13.8509   21.7955 H   0  0  0  0  0  0
  -25.2768   -9.5683   22.4762 H   0  0  0  0  0  0
  -24.0006   -7.4634   22.7473 H   0  0  0  0  0  0
  -21.0849   -8.8778   19.8949 H   0  0  0  0  0  0
  -22.3708  -10.9676   19.6166 H   0  0  0  0  0  0
  -21.2007   -7.6148   23.9716 H   0  0  0  0  0  0
  -21.1481   -6.0521   25.9076 H   0  0  0  0  0  0
  -22.0598   -2.7610   23.2844 H   0  0  0  0  0  0
  -22.4097  -11.9867   22.4805 H   0  0  0  0  0  0
  -21.1091  -13.1225   22.2636 H   0  0  0  0  0  0
  -24.6484  -15.8430   20.5145 H   0  0  0  0  0  0
  -26.2602  -15.6314   20.0581 H   0  0  0  0  0  0
  -26.7228  -32.5399   23.1091 H   0  0  0  0  0  0
  -25.0117  -33.9701   25.0423 H   0  0  0  0  0  0
  -22.7273  -31.3082   21.4057 H   0  0  0  0  0  0
  -23.3760  -35.9597   23.3281 H   0  0  0  0  0  0
  -24.3581  -36.8919   22.2055 H   0  0  0  0  0  0
  -23.7228  -37.6466   23.6675 H   0  0  0  0  0  0
  -26.1297  -31.5256   20.6233 H   0  0  0  0  0  0
  -26.8561  -30.8037   22.0265 H   0  0  0  0  0  0
  -28.1140  -28.8855   21.2318 H   0  0  0  0  0  0
  -25.8858  -25.9646   18.9213 H   0  0  0  0  0  0
  -23.9629  -27.3612   18.9622 H   0  0  0  0  0  0
  -23.7758  -30.6124   19.4102 H   0  0  0  0  0  0
  -22.7655  -29.2687   19.8487 H   0  0  0  0  0  0
  -25.1294  -36.1907   25.0816 H   0  0  0  0  0  0
  -20.9995  -28.3284   24.1377 H   0  0  0  0  0  0
  -20.5692  -26.2317   23.3607 H   0  0  0  0  0  0
  -21.6652  -26.7445   22.1188 H   0  0  0  0  0  0
  -19.6919  -25.6290   21.1248 H   0  0  0  0  0  0
  -19.6693  -27.3187   20.6735 H   0  0  0  0  0  0
  -17.4206  -26.6680   21.4026 H   0  0  0  0  0  0
  -18.0338  -26.0075   22.9021 H   0  0  0  0  0  0
  -19.7948  -30.7288   24.2242 H   0  0  0  0  0  0
  -17.5026  -31.6271   24.5165 H   0  0  0  0  0  0
  -15.5362  -30.2985   23.7673 H   0  0  0  0  0  0
  -15.8681  -28.0822   22.7079 H   0  0  0  0  0  0
  -24.5918  -30.7079   25.7786 H   0  0  0  0  0  0
  -24.8911  -32.2912   26.4858 H   0  0  0  0  0  0
  -25.8040  -30.8940   27.0252 H   0  0  0  0  0  0
  -26.2974  -29.6736   24.1265 H   0  0  0  0  0  0
  -27.4017  -29.7272   25.4803 H   0  0  0  0  0  0
  -27.8870  -30.4260   23.9548 H   0  0  0  0  0  0
  -27.2666  -33.3651   26.2067 H   0  0  0  0  0  0
  -28.3892  -32.6876   25.0365 H   0  0  0  0  0  0
  -28.0710  -31.8485   26.5470 H   0  0  0  0  0  0
  -28.2571  -38.0112   24.7547 H   0  0  0  0  0  0
  -28.1104  -36.2646   24.6238 H   0  0  0  0  0  0
  -27.2305  -37.1374   25.8863 H   0  0  0  0  0  0
  -20.9411  -29.8794   21.6864 H   0  0  0  0  0  0
  -26.0155  -38.2837   24.1450 H   0  0  0  0  0  0
  -28.7878  -22.8937   18.0527 H   0  0  0  0  0  0
  -30.6987  -23.2063   23.5621 H   0  0  0  0  0  0
  -29.9479  -22.3261   24.9927 H   0  0  0  0  0  0
  -31.0115  -20.2035   24.2545 H   0  0  0  0  0  0
  -31.7574  -21.0657   22.8100 H   0  0  0  0  0  0
  -30.1522  -18.5094   22.6092 H   0  0  0  0  0  0
  -28.5935  -18.2486   21.7252 H   0  0  0  0  0  0
  -28.9008  -18.1793   19.2502 H   0  0  0  0  0  0
  -30.6288  -18.4186   18.7616 H   0  0  0  0  0  0
  -28.7012  -20.7931   23.4032 H   0  0  0  0  0  0
  -31.4719  -17.3776   20.8536 H   0  0  0  0  0  0
  -26.9516  -24.6527   20.3684 H   0  0  0  0  0  0
  -27.6965  -24.8468   18.7986 H   0  0  0  0  0  0
  -28.9204  -15.7332   20.9211 H   0  0  0  0  0  0
  1 25  1  0  0  0
  1 30  2  0  0  0
  1 85  1  0  0  0
  2  3  1  0  0  0
  2 25  1  0  0  0
  2 86  1  0  0  0
  2 87  1  0  0  0
  3  4  1  0  0  0
  3 88  1  0  0  0
  3 89  1  0  0  0
  4  5  1  0  0  0
  4 90  1  0  0  0
  4 91  1  0  0  0
  5  6  1  0  0  0
  5 26  1  0  0  0
  5 92  1  0  0  0
  6 25  1  0  0  0
  6 93  1  0  0  0
  6 94  1  0  0  0
  7  8  2  0  0  0
  7 26  1  0  0  0
  7 29  1  0  0  0
  8  9  1  0  0  0
  8 22  1  0  0  0
  9 10  1  0  0  0
  9 27  2  0  0  0
 10 11  2  0  0  0
 10 15  1  0  0  0
 11 12  1  0  0  0
 11 95  1  0  0  0
 12 13  2  0  0  0
 12 96  1  0  0  0
 13 14  1  0  0  0
 13 31  1  0  0  0
 14 15  2  0  0  0
 14 97  1  0  0  0
 15 98  1  0  0  0
 16 17  2  0  0  0
 16 21  1  0  0  0
 16 31  1  0  0  0
 17 18  1  0  0  0
 17 99  1  0  0  0
 18 19  2  0  0  0
 18100  1  0  0  0
 19 20  1  0  0  0
 19 24  1  0  0  0
 20 21  2  0  0  0
 20101  1  0  0  0
 21 23  1  0  0  0
 22 28  1  0  0  0
 22 32  2  0  0  0
 26 27  1  0  0  0
 28102  1  0  0  0
 28103  1  0  0  0
 29104  1  0  0  0
 29105  1  0  0  0
 33 34  1  0  0  0
 33 66  1  0  0  0
 33 70  2  0  0  0
 34 36  1  0  0  0
 34 59  1  0  0  0
 34106  1  0  0  0
 35 44  2  0  0  0
 35 45  1  0  0  0
 35 68  1  0  0  0
 36 56  1  0  0  0
 36107  1  0  0  0
 37 39  1  0  0  0
 37 47  1  0  0  0
 37 66  1  0  0  0
 37108  1  0  0  0
 38 43  2  0  0  0
 38 46  1  0  0  0
 38 47  1  0  0  0
 39 64  1  0  0  0
 39 67  2  0  0  0
 40 52  1  0  0  0
 40 53  2  0  0  0
 40 58  1  0  0  0
 41109  1  0  0  0
 41110  1  0  0  0
 41111  1  0  0  0
 41 48  1  0  0  0
 42 43  1  0  0  0
 42 66  1  0  0  0
 42112  1  0  0  0
 42113  1  0  0  0
 43 44  1  0  0  0
 44114  1  0  0  0
 45 46  2  0  0  0
 45115  1  0  0  0
 46116  1  0  0  0
 47117  1  0  0  0
 47118  1  0  0  0
 48 56  1  0  0  0
 48 65  1  0  0  0
 48119  1  0  0  0
 49 50  1  0  0  0
 49 53  1  0  0  0
 49 64  1  0  0  0
 49120  1  0  0  0
 50 51  1  0  0  0
 50121  1  0  0  0
 50122  1  0  0  0
 51 52  1  0  0  0
 51123  1  0  0  0
 51124  1  0  0  0
 52125  1  0  0  0
 52126  1  0  0  0
 53 54  1  0  0  0
 54 55  2  0  0  0
 54127  1  0  0  0
 55 57  1  0  0  0
 55128  1  0  0  0
 56 69  2  0  0  0
 57 58  2  0  0  0
 57129  1  0  0  0
 58130  1  0  0  0
 59 60  1  0  0  0
 59 61  1  0  0  0
 59 62  1  0  0  0
 60131  1  0  0  0
 60132  1  0  0  0
 60133  1  0  0  0
 61134  1  0  0  0
 61135  1  0  0  0
 61136  1  0  0  0
 62137  1  0  0  0
 62138  1  0  0  0
 62139  1  0  0  0
 63 65  1  0  0  0
 63140  1  0  0  0
 63141  1  0  0  0
 63142  1  0  0  0
 64143  1  0  0  0
 65144  1  0  0  0
 68 81  1  0  0  0
 71 73  2  0  0  0
 71 82  1  0  0  0
 71145  1  0  0  0
 72 74  1  0  0  0
 72 83  2  0  0  0
 72 79  1  0  0  0
 73 81  1  0  0  0
 73 83  1  0  0  0
 74 82  2  0  0  0
 74 84  1  0  0  0
 75 76  1  0  0  0
 75 79  1  0  0  0
 75146  1  0  0  0
 75147  1  0  0  0
 76 79  1  0  0  0
 76148  1  0  0  0
 76149  1  0  0  0
 77 80  1  0  0  0
 77 84  1  0  0  0
 77150  1  0  0  0
 77151  1  0  0  0
 78 80  1  0  0  0
 78 84  1  0  0  0
 78152  1  0  0  0
 78153  1  0  0  0
 79154  1  0  0  0
 80 85  1  0  0  0
 80155  1  0  0  0
 81156  1  0  0  0
 81157  1  0  0  0
 85158  1  0  0  0
M  ISO  4   1 100  68 101  81 101  85 100
M  END
> <chiral flag>
0

> <version>
0

> <s_m_source_file>
/data/baiqing/PycharmProjects/Reinvent-master-3.2/result/LINK_invent/BTK/process_docking_weight1_custom_sum_contain_oxygen_bond_distance_aromatic_linkinvent_7_9_3/rearranged_h_0199.sdf

> <i_m_source_file_index>
45

> <r_mmod_Potential_Energy-OPLS-2005>
310.925933837891

> <r_mmod_Stretch_Energy-OPLS-2005>
119.147521972656

> <r_mmod_Bend_Energy-OPLS-2005>
240.815246582031

> <r_mmod_Torsional_Energy-OPLS-2005>
259.741424560547

> <r_mmod_Improper_Torsional_Energy-OPLS-2005>
14.304425239563

> <r_mmod_Van_der_Waal_Energy-OPLS-2005>
151.486724853516

> <r_mmod_Electrostatic_Energy-OPLS-2005>
-316.75048828125

> <r_mmod_Solvation_Energy-OPLS-2005>
-249.199996948242

> <b_mmod_Minimization_Converged-OPLS-2005>
0

> <r_mmod_RMS_Derivative-OPLS-2005>
0.295126169919968

$$$$
45
                    3D
 Structure written by MMmdl.
179188  0  0  1  0            999 V2000
  -30.7767  -14.3382   20.7035 C   0  0  0  0  0  0
  -30.4147  -12.2852   19.3879 C   0  0  0  0  0  0
  -29.4801  -12.5300   18.1892 C   0  0  0  0  0  0
  -28.0047  -12.3843   18.6060 C   0  0  0  0  0  0
  -27.6656  -13.2006   19.8805 C   0  0  2  0  0  0
  -28.7024  -12.9323   20.9932 C   0  0  0  0  0  0
  -25.2598  -13.8159   20.5670 C   0  0  0  0  0  0
  -24.1840  -13.0443   20.9157 C   0  0  0  0  0  0
  -24.6383  -11.6905   20.8714 C   0  0  0  0  0  0
  -23.9043  -10.4294   21.0393 C   0  0  0  0  0  0
  -24.3598   -9.4217   21.9177 C   0  0  0  0  0  0
  -23.6283   -8.2247   22.0751 C   0  0  0  0  0  0
  -22.4265   -8.0280   21.3541 C   0  0  0  0  0  0
  -21.9895   -9.0245   20.4638 C   0  0  0  0  0  0
  -22.7213  -10.2130   20.3049 C   0  0  0  0  0  0
  -21.6852   -6.0735   22.5271 C   0  0  0  0  0  0
  -21.4013   -6.5640   23.8205 C   0  0  0  0  0  0
  -21.3661   -5.6794   24.9167 C   0  0  0  0  0  0
  -21.6043   -4.3055   24.7218 C   0  0  0  0  0  0
  -21.8821   -3.8150   23.4340 C   0  0  0  0  0  0
  -21.9192   -4.6966   22.3395 C   0  0  0  0  0  0
  -22.7865  -13.5244   21.1833 C   0  0  0  0  0  0
  -22.1661   -4.2155   21.0972 F   0  0  0  0  0  0
  -21.5633   -3.4543   25.7733 F   0  0  0  0  0  0
  -30.0487  -13.2198   20.4609 N   0  0  0  0  0  0
  -26.3036  -12.9318   20.3378 N   0  0  0  0  0  0
  -25.9307  -11.6479   20.5748 N   0  0  0  0  0  0
  -22.0503  -12.8227   22.0386 N   0  0  0  0  0  0
  -25.4338  -15.1878   20.4091 N   0  0  0  0  0  0
  -31.7751  -14.6574   20.0504 O   0  0  0  0  0  0
  -21.6634   -6.8876   21.4235 O   0  0  0  0  0  0
  -22.3546  -14.5557   20.6700 O   0  0  0  0  0  0
  -24.6102  -31.8704   23.2107 C   0  0  0  0  0  0
  -25.8998  -32.4842   23.8385 C   0  0  1  0  0  0
  -27.2326  -27.4627   20.0854 C   0  0  0  0  0  0
  -25.5830  -33.8633   24.2316 N   0  0  0  0  0  0
  -23.3962  -30.4924   21.5549 C   0  0  2  0  0  0
  -24.8398  -28.9624   20.1181 C   0  0  0  0  0  0
  -22.7393  -29.4657   22.5035 C   0  0  0  0  0  0
  -18.0264  -28.1367   22.8483 C   0  0  0  0  0  0
  -24.1479  -36.7357   23.2652 C   0  0  0  0  0  0
  -25.9229  -30.8422   21.3624 C   0  0  0  0  0  0
  -25.9988  -29.4800   20.7080 C   0  0  0  0  0  0
  -27.1971  -28.7377   20.6881 C   0  0  0  0  0  0
  -26.0559  -26.9547   19.4869 C   0  0  0  0  0  0
  -24.8616  -27.6979   19.5067 C   0  0  0  0  0  0
  -23.5994  -29.8239   20.1699 C   0  0  0  0  0  0
  -25.4095  -36.3146   24.0356 C   0  0  1  0  0  0
  -20.5849  -28.3634   23.1338 C   0  0  2  0  0  0
  -20.6754  -26.9382   22.5411 C   0  0  0  0  0  0
  -19.5732  -26.6370   21.5205 C   0  0  0  0  0  0
  -18.1904  -26.7920   22.1607 C   0  0  0  0  0  0
  -19.1511  -28.8816   23.2910 C   0  0  0  0  0  0
  -18.9452  -30.1428   23.8917 C   0  0  0  0  0  0
  -17.6456  -30.6583   24.0548 C   0  0  0  0  0  0
  -25.9023  -34.9498   23.5159 C   0  0  0  0  0  0
  -16.5343  -29.9079   23.6318 C   0  0  0  0  0  0
  -16.7257  -28.6496   23.0337 C   0  0  0  0  0  0
  -26.4479  -31.6620   25.0688 C   0  0  0  0  0  0
  -25.3778  -31.3724   26.1461 C   0  0  0  0  0  0
  -27.0300  -30.3059   24.6067 C   0  0  0  0  0  0
  -27.6069  -32.4377   25.7387 C   0  0  0  0  0  0
  -27.5585  -37.1839   24.8471 C   0  0  0  0  0  0
  -21.4118  -29.3022   22.3779 N   0  0  0  0  0  0
  -26.4291  -37.3822   23.9415 N   0  0  0  0  0  0
  -24.6608  -31.0822   22.1006 N   0  0  0  0  0  0
  -23.4188  -28.8184   23.3044 O   0  0  0  0  0  0
  -28.4212  -26.7684   20.0999 O   0  0  0  0  0  0
  -26.5642  -34.8955   22.4758 O   0  0  0  0  0  0
  -23.5301  -32.1447   23.7527 O   0  0  0  0  0  0
  -28.1285  -18.7134   24.0136 C   0  0  0  0  0  0
  -28.3529  -18.7528   22.6598 C   0  0  0  0  0  0
  -28.8557  -17.7939   24.7773 C   0  0  0  0  0  0
  -29.9463  -17.1658   22.8466 C   0  0  0  0  0  0
  -26.1390  -21.6091   22.9945 C   0  0  0  0  0  0
  -27.1173  -19.7546   24.4125 C   0  0  0  0  0  0
  -27.4998  -19.7986   22.0062 C   0  0  0  0  0  0
  -27.5596  -16.2492   28.1308 C   0  0  0  0  0  0
  -28.6679  -17.6286   26.2756 C   0  0  0  0  0  0
  -30.9896  -16.2868   22.1966 C   0  0  0  0  0  0
  -25.6631  -22.3757   24.2416 C   0  0  0  0  0  0
  -27.7497  -16.4446   26.6196 C   0  0  0  0  0  0
  -25.4464  -23.8995   24.0474 C   0  0  0  0  0  0
  -26.7607  -25.1298   22.2918 C   0  0  0  0  0  0
  -28.3846  -25.3472   20.2734 C   0  0  0  0  0  0
  -28.1938  -24.9419   21.7546 C   0  0  1  0  0  0
  -29.2618  -17.9830   22.0424 N   0  0  0  0  0  0
  -29.7637  -17.0056   24.1618 N   0  0  0  0  0  0
  -26.8268  -20.4579   23.1433 N   0  0  0  0  0  0
  -29.1193  -25.6992   22.5844 N   0  0  0  0  0  0
  -30.3808  -15.0459   21.7568 N   0  0  0  0  0  0
  -26.6759  -24.6511   23.6864 N   0  3  0  0  0  0
  -25.9162  -22.0830   21.8781 O   0  0  0  0  0  0
  -31.4572  -12.3893   19.0816 H   0  0  0  0  0  0
  -30.3157  -11.2597   19.7466 H   0  0  0  0  0  0
  -29.7099  -11.8309   17.3842 H   0  0  0  0  0  0
  -29.6511  -13.5294   17.7862 H   0  0  0  0  0  0
  -27.8089  -11.3251   18.7775 H   0  0  0  0  0  0
  -27.3517  -12.6837   17.7851 H   0  0  0  0  0  0
  -27.7258  -14.2560   19.6142 H   0  0  0  0  0  0
  -28.6608  -11.8860   21.2999 H   0  0  0  0  0  0
  -28.4459  -13.5028   21.8856 H   0  0  0  0  0  0
  -25.2744   -9.5702   22.4749 H   0  0  0  0  0  0
  -23.9998   -7.4642   22.7472 H   0  0  0  0  0  0
  -21.0831   -8.8749   19.8940 H   0  0  0  0  0  0
  -22.3667  -10.9663   19.6157 H   0  0  0  0  0  0
  -21.2002   -7.6147   23.9713 H   0  0  0  0  0  0
  -21.1486   -6.0523   25.9071 H   0  0  0  0  0  0
  -22.0604   -2.7616   23.2835 H   0  0  0  0  0  0
  -22.4112  -11.9886   22.4767 H   0  0  0  0  0  0
  -21.1120  -13.1248   22.2585 H   0  0  0  0  0  0
  -24.6695  -15.8460   20.5140 H   0  0  0  0  0  0
  -26.2946  -15.6250   20.1033 H   0  0  0  0  0  0
  -26.7039  -32.5556   23.1120 H   0  0  0  0  0  0
  -24.9821  -33.9784   25.0352 H   0  0  0  0  0  0
  -22.6838  -31.3081   21.4171 H   0  0  0  0  0  0
  -23.3728  -35.9706   23.3315 H   0  0  0  0  0  0
  -24.3574  -36.8980   22.2071 H   0  0  0  0  0  0
  -23.7243  -37.6565   23.6672 H   0  0  0  0  0  0
  -26.0379  -31.6115   20.5967 H   0  0  0  0  0  0
  -26.8104  -30.8882   21.9825 H   0  0  0  0  0  0
  -28.0914  -29.1377   21.1447 H   0  0  0  0  0  0
  -26.0366  -25.9986   18.9867 H   0  0  0  0  0  0
  -23.9694  -27.2962   19.0469 H   0  0  0  0  0  0
  -23.7027  -30.5966   19.4075 H   0  0  0  0  0  0
  -22.7234  -29.2408   19.8792 H   0  0  0  0  0  0
  -25.1272  -36.2022   25.0852 H   0  0  0  0  0  0
  -20.9904  -28.3177   24.1468 H   0  0  0  0  0  0
  -20.5641  -26.2251   23.3594 H   0  0  0  0  0  0
  -21.6634  -26.7431   22.1218 H   0  0  0  0  0  0
  -19.6889  -25.6289   21.1217 H   0  0  0  0  0  0
  -19.6670  -27.3200   20.6754 H   0  0  0  0  0  0
  -17.4165  -26.6656   21.4015 H   0  0  0  0  0  0
  -18.0288  -26.0075   22.9010 H   0  0  0  0  0  0
  -19.7933  -30.7227   24.2300 H   0  0  0  0  0  0
  -17.5024  -31.6276   24.5117 H   0  0  0  0  0  0
  -15.5346  -30.2978   23.7640 H   0  0  0  0  0  0
  -15.8663  -28.0816   22.7032 H   0  0  0  0  0  0
  -24.6063  -30.6898   25.7866 H   0  0  0  0  0  0
  -24.8839  -32.2861   26.4775 H   0  0  0  0  0  0
  -25.8196  -30.9074   27.0274 H   0  0  0  0  0  0
  -26.2850  -29.6867   24.1044 H   0  0  0  0  0  0
  -27.3968  -29.7254   25.4542 H   0  0  0  0  0  0
  -27.8735  -30.4377   23.9295 H   0  0  0  0  0  0
  -27.2635  -33.3567   26.2145 H   0  0  0  0  0  0
  -28.3706  -32.7170   25.0112 H   0  0  0  0  0  0
  -28.0968  -31.8468   26.5145 H   0  0  0  0  0  0
  -28.2606  -38.0130   24.7497 H   0  0  0  0  0  0
  -28.1082  -36.2665   24.6308 H   0  0  0  0  0  0
  -27.2321  -37.1507   25.8880 H   0  0  0  0  0  0
  -20.9258  -29.8748   21.7025 H   0  0  0  0  0  0
  -26.0202  -38.2920   24.1367 H   0  0  0  0  0  0
  -27.5586  -20.4118   25.1617 H   0  0  0  0  0  0
  -26.2195  -19.2904   24.8238 H   0  0  0  0  0  0
  -26.7750  -19.3428   21.3308 H   0  0  0  0  0  0
  -28.1204  -20.4985   21.4462 H   0  0  0  0  0  0
  -26.9036  -15.4019   28.3341 H   0  0  0  0  0  0
  -27.1138  -17.1306   28.5929 H   0  0  0  0  0  0
  -28.5109  -16.0553   28.6276 H   0  0  0  0  0  0
  -28.2623  -18.5499   26.6929 H   0  0  0  0  0  0
  -29.6458  -17.4928   26.7384 H   0  0  0  0  0  0
  -31.7925  -16.0666   22.9010 H   0  0  0  0  0  0
  -31.4434  -16.8289   21.3647 H   0  0  0  0  0  0
  -26.3642  -22.2410   25.0625 H   0  0  0  0  0  0
  -24.7271  -21.9216   24.5669 H   0  0  0  0  0  0
  -26.7775  -16.5949   26.1487 H   0  0  0  0  0  0
  -28.1611  -15.5314   26.1877 H   0  0  0  0  0  0
  -25.0971  -24.3083   24.9963 H   0  0  0  0  0  0
  -24.6388  -24.0969   23.3407 H   0  0  0  0  0  0
  -26.0641  -24.6000   21.6429 H   0  0  0  0  0  0
  -26.4468  -26.1733   22.2762 H   0  0  0  0  0  0
  -27.6662  -24.8416   19.6305 H   0  0  0  0  0  0
  -29.3532  -24.9720   19.9412 H   0  0  0  0  0  0
  -28.4452  -23.8823   21.8362 H   0  0  0  0  0  0
  -29.0628  -26.6686   22.2851 H   0  0  0  0  0  0
  -30.0655  -25.4388   22.3222 H   0  0  0  0  0  0
  -29.5679  -14.7434   22.2697 H   0  0  0  0  0  0
  -27.5122  -24.1264   23.8878 H   0  0  0  0  0  0
  -26.7356  -25.4752   24.2632 H   0  0  0  0  0  0
  1 25  1  0  0  0
  1 30  2  0  0  0
  1 91  1  0  0  0
  2  3  1  0  0  0
  2 25  1  0  0  0
  2 94  1  0  0  0
  2 95  1  0  0  0
  3  4  1  0  0  0
  3 96  1  0  0  0
  3 97  1  0  0  0
  4  5  1  0  0  0
  4 98  1  0  0  0
  4 99  1  0  0  0
  5  6  1  0  0  0
  5 26  1  0  0  0
  5100  1  0  0  0
  6 25  1  0  0  0
  6101  1  0  0  0
  6102  1  0  0  0
  7  8  2  0  0  0
  7 26  1  0  0  0
  7 29  1  0  0  0
  8  9  1  0  0  0
  8 22  1  0  0  0
  9 10  1  0  0  0
  9 27  2  0  0  0
 10 11  2  0  0  0
 10 15  1  0  0  0
 11 12  1  0  0  0
 11103  1  0  0  0
 12 13  2  0  0  0
 12104  1  0  0  0
 13 14  1  0  0  0
 13 31  1  0  0  0
 14 15  2  0  0  0
 14105  1  0  0  0
 15106  1  0  0  0
 16 17  2  0  0  0
 16 21  1  0  0  0
 16 31  1  0  0  0
 17 18  1  0  0  0
 17107  1  0  0  0
 18 19  2  0  0  0
 18108  1  0  0  0
 19 20  1  0  0  0
 19 24  1  0  0  0
 20 21  2  0  0  0
 20109  1  0  0  0
 21 23  1  0  0  0
 22 28  1  0  0  0
 22 32  2  0  0  0
 26 27  1  0  0  0
 28110  1  0  0  0
 28111  1  0  0  0
 29112  1  0  0  0
 29113  1  0  0  0
 33 34  1  0  0  0
 33 66  1  0  0  0
 33 70  2  0  0  0
 34 36  1  0  0  0
 34 59  1  0  0  0
 34114  1  0  0  0
 35 44  2  0  0  0
 35 45  1  0  0  0
 35 68  1  0  0  0
 36 56  1  0  0  0
 36115  1  0  0  0
 37 39  1  0  0  0
 37 47  1  0  0  0
 37 66  1  0  0  0
 37116  1  0  0  0
 38 43  2  0  0  0
 38 46  1  0  0  0
 38 47  1  0  0  0
 39 64  1  0  0  0
 39 67  2  0  0  0
 40 52  1  0  0  0
 40 53  2  0  0  0
 40 58  1  0  0  0
 41117  1  0  0  0
 41118  1  0  0  0
 41119  1  0  0  0
 41 48  1  0  0  0
 42 43  1  0  0  0
 42 66  1  0  0  0
 42120  1  0  0  0
 42121  1  0  0  0
 43 44  1  0  0  0
 44122  1  0  0  0
 45 46  2  0  0  0
 45123  1  0  0  0
 46124  1  0  0  0
 47125  1  0  0  0
 47126  1  0  0  0
 48 56  1  0  0  0
 48 65  1  0  0  0
 48127  1  0  0  0
 49 50  1  0  0  0
 49 53  1  0  0  0
 49 64  1  0  0  0
 49128  1  0  0  0
 50 51  1  0  0  0
 50129  1  0  0  0
 50130  1  0  0  0
 51 52  1  0  0  0
 51131  1  0  0  0
 51132  1  0  0  0
 52133  1  0  0  0
 52134  1  0  0  0
 53 54  1  0  0  0
 54 55  2  0  0  0
 54135  1  0  0  0
 55 57  1  0  0  0
 55136  1  0  0  0
 56 69  2  0  0  0
 57 58  2  0  0  0
 57137  1  0  0  0
 58138  1  0  0  0
 59 60  1  0  0  0
 59 61  1  0  0  0
 59 62  1  0  0  0
 60139  1  0  0  0
 60140  1  0  0  0
 60141  1  0  0  0
 61142  1  0  0  0
 61143  1  0  0  0
 61144  1  0  0  0
 62145  1  0  0  0
 62146  1  0  0  0
 62147  1  0  0  0
 63 65  1  0  0  0
 63148  1  0  0  0
 63149  1  0  0  0
 63150  1  0  0  0
 64151  1  0  0  0
 65152  1  0  0  0
 68 85  1  0  0  0
 71 72  1  0  0  0
 71 73  2  0  0  0
 71 76  1  0  0  0
 72 77  1  0  0  0
 72 87  2  0  0  0
 73 79  1  0  0  0
 73 88  1  0  0  0
 74 80  1  0  0  0
 74 87  1  0  0  0
 74 88  2  0  0  0
 75 81  1  0  0  0
 75 89  1  0  0  0
 75 93  2  0  0  0
 76 89  1  0  0  0
 76153  1  0  0  0
 76154  1  0  0  0
 77 89  1  0  0  0
 77155  1  0  0  0
 77156  1  0  0  0
 78 82  1  0  0  0
 78157  1  0  0  0
 78158  1  0  0  0
 78159  1  0  0  0
 79 82  1  0  0  0
 79160  1  0  0  0
 79161  1  0  0  0
 80 91  1  0  0  0
 80162  1  0  0  0
 80163  1  0  0  0
 81 83  1  0  0  0
 81164  1  0  0  0
 81165  1  0  0  0
 82166  1  0  0  0
 82167  1  0  0  0
 83 92  1  0  0  0
 83168  1  0  0  0
 83169  1  0  0  0
 84 86  1  0  0  0
 84 92  1  0  0  0
 84170  1  0  0  0
 84171  1  0  0  0
 85 86  1  0  0  0
 85172  1  0  0  0
 85173  1  0  0  0
 86 90  1  0  0  0
 86174  1  0  0  0
 90175  1  0  0  0
 90176  1  0  0  0
 91177  1  0  0  0
 92178  1  0  0  0
 92179  1  0  0  0
M  CHG  1  92   1
M  ISO  4   1 100  68 101  85 101  91 100
M  END
> <chiral flag>
0

> <version>
0

> <s_m_source_file>
/data/baiqing/PycharmProjects/Reinvent-master-3.2/result/LINK_invent/BTK/process_docking_weight1_custom_sum_contain_oxygen_bond_distance_aromatic_linkinvent_7_9_3/rearranged_h_0199.sdf

> <i_m_source_file_index>
46

> <r_mmod_Potential_Energy-OPLS-2005>
-854.253845214844

> <r_mmod_Stretch_Energy-OPLS-2005>
36.6511878967285

> <r_mmod_Bend_Energy-OPLS-2005>
160.469650268555

> <r_mmod_Torsional_Energy-OPLS-2005>
212.616012573242

> <r_mmod_Improper_Torsional_Energy-OPLS-2005>
2.42500495910645

> <r_mmod_Van_der_Waal_Energy-OPLS-2005>
157.777206420898

> <r_mmod_Electrostatic_Energy-OPLS-2005>
-964.844787597656

> <r_mmod_Solvation_Energy-OPLS-2005>
-467.015716552734

> <b_mmod_Minimization_Converged-OPLS-2005>
0

> <r_mmod_RMS_Derivative-OPLS-2005>
1.63447570800781

$$$$
46
                    3D
 Structure written by MMmdl.
161170  0  0  1  0            999 V2000
  -30.7506  -14.3924   20.6664 C   0  0  0  0  0  0
  -30.4249  -12.3032   19.3865 C   0  0  0  0  0  0
  -29.4797  -12.5207   18.1894 C   0  0  0  0  0  0
  -28.0047  -12.3813   18.6101 C   0  0  0  0  0  0
  -27.6662  -13.2048   19.8787 C   0  0  2  0  0  0
  -28.7077  -12.9429   20.9873 C   0  0  0  0  0  0
  -25.2597  -13.8180   20.5689 C   0  0  0  0  0  0
  -24.1842  -13.0454   20.9188 C   0  0  0  0  0  0
  -24.6397  -11.6921   20.8745 C   0  0  0  0  0  0
  -23.9068  -10.4300   21.0411 C   0  0  0  0  0  0
  -24.3615   -9.4211   21.9187 C   0  0  0  0  0  0
  -23.6292   -8.2242   22.0751 C   0  0  0  0  0  0
  -22.4276   -8.0287   21.3540 C   0  0  0  0  0  0
  -21.9908   -9.0263   20.4648 C   0  0  0  0  0  0
  -22.7237  -10.2145   20.3064 C   0  0  0  0  0  0
  -21.6852   -6.0741   22.5282 C   0  0  0  0  0  0
  -21.4013   -6.5644   23.8215 C   0  0  0  0  0  0
  -21.3658   -5.6794   24.9174 C   0  0  0  0  0  0
  -21.6043   -4.3057   24.7219 C   0  0  0  0  0  0
  -21.8824   -3.8153   23.4341 C   0  0  0  0  0  0
  -21.9194   -4.6970   22.3401 C   0  0  0  0  0  0
  -22.7860  -13.5250   21.1846 C   0  0  0  0  0  0
  -22.1664   -4.2162   21.0974 F   0  0  0  0  0  0
  -21.5624   -3.4539   25.7728 F   0  0  0  0  0  0
  -30.0490  -13.2473   20.4510 N   0  0  0  0  0  0
  -26.3044  -12.9346   20.3395 N   0  0  0  0  0  0
  -25.9324  -11.6505   20.5770 N   0  0  0  0  0  0
  -22.0492  -12.8249   22.0405 N   0  0  0  0  0  0
  -25.4316  -15.1896   20.4096 N   0  0  0  0  0  0
  -31.7998  -14.6645   20.0727 O   0  0  0  0  0  0
  -21.6643   -6.8883   21.4241 O   0  0  0  0  0  0
  -22.3534  -14.5538   20.6681 O   0  0  0  0  0  0
  -24.6123  -31.8677   23.2098 C   0  0  0  0  0  0
  -25.9020  -32.4812   23.8388 C   0  0  1  0  0  0
  -27.2452  -27.4537   20.0863 C   0  0  0  0  0  0
  -25.5880  -33.8611   24.2314 N   0  0  0  0  0  0
  -23.3983  -30.4918   21.5503 C   0  0  2  0  0  0
  -24.8438  -28.9569   20.1174 C   0  0  0  0  0  0
  -22.7393  -29.4631   22.4981 C   0  0  0  0  0  0
  -18.0276  -28.1364   22.8490 C   0  0  0  0  0  0
  -24.1487  -36.7311   23.2641 C   0  0  0  0  0  0
  -25.9234  -30.8396   21.3566 C   0  0  0  0  0  0
  -26.0021  -29.4736   20.7099 C   0  0  0  0  0  0
  -27.2001  -28.7274   20.6935 C   0  0  0  0  0  0
  -26.0586  -26.9382   19.5097 C   0  0  0  0  0  0
  -24.8669  -27.6858   19.5203 C   0  0  0  0  0  0
  -23.6059  -29.8238   20.1643 C   0  0  0  0  0  0
  -25.4101  -36.3102   24.0343 C   0  0  1  0  0  0
  -20.5864  -28.3624   23.1332 C   0  0  2  0  0  0
  -20.6750  -26.9357   22.5429 C   0  0  0  0  0  0
  -19.5726  -26.6371   21.5221 C   0  0  0  0  0  0
  -18.1911  -26.7914   22.1630 C   0  0  0  0  0  0
  -19.1530  -28.8814   23.2903 C   0  0  0  0  0  0
  -18.9455  -30.1428   23.8900 C   0  0  0  0  0  0
  -17.6455  -30.6570   24.0561 C   0  0  0  0  0  0
  -25.9033  -34.9471   23.5129 C   0  0  0  0  0  0
  -16.5345  -29.9069   23.6330 C   0  0  0  0  0  0
  -16.7264  -28.6499   23.0324 C   0  0  0  0  0  0
  -26.4466  -31.6586   25.0710 C   0  0  0  0  0  0
  -25.3758  -31.3673   26.1476 C   0  0  0  0  0  0
  -27.0282  -30.3047   24.6029 C   0  0  0  0  0  0
  -27.6039  -32.4298   25.7472 C   0  0  0  0  0  0
  -27.5569  -37.1794   24.8459 C   0  0  0  0  0  0
  -21.4122  -29.2997   22.3730 N   0  0  0  0  0  0
  -26.4277  -37.3794   23.9424 N   0  0  0  0  0  0
  -24.6636  -31.0806   22.0978 N   0  0  0  0  0  0
  -23.4183  -28.8151   23.2994 O   0  0  0  0  0  0
  -28.4598  -26.7971   20.0769 O   0  0  0  0  0  0
  -26.5603  -34.8925   22.4694 O   0  0  0  0  0  0
  -23.5333  -32.1401   23.7535 O   0  0  0  0  0  0
  -29.2967  -18.6039   24.5132 C   0  0  0  0  0  0
  -29.6006  -18.2729   23.1706 C   0  0  0  0  0  0
  -29.5974  -20.5198   22.6332 C   0  0  0  0  0  0
  -29.2829  -20.8453   23.9805 C   0  0  0  0  0  0
  -29.2747  -16.2206   21.4516 C   0  0  0  0  0  0
  -31.1064  -16.1682   22.3870 C   0  0  0  0  0  0
  -29.7782  -16.8153   22.7607 C   0  0  0  0  0  0
  -29.6921  -21.5998   21.5626 C   0  0  0  0  0  0
  -28.3131  -21.9291   20.9546 C   0  0  0  0  0  0
  -28.2977  -24.4037   20.5533 C   0  0  0  0  0  0
  -28.5869  -25.4939   19.5038 C   0  0  0  0  0  0
  -29.1417  -19.8839   24.9219 N   0  0  0  0  0  0
  -29.7641  -19.2318   22.2234 N   0  0  0  0  0  0
  -30.2923  -15.1744   21.6610 N   0  0  0  0  0  0
  -28.3529  -23.0363   19.9717 N   0  3  0  0  0  0
  -29.0294  -22.4846   24.4684 Cl  0  0  0  0  0  0
  -31.4611  -12.4284   19.0651 H   0  0  0  0  0  0
  -30.3508  -11.2775   19.7522 H   0  0  0  0  0  0
  -29.7068  -11.8096   17.3939 H   0  0  0  0  0  0
  -29.6471  -13.5136   17.7700 H   0  0  0  0  0  0
  -27.8052  -11.3245   18.7895 H   0  0  0  0  0  0
  -27.3528  -12.6792   17.7878 H   0  0  0  0  0  0
  -27.7233  -14.2582   19.6034 H   0  0  0  0  0  0
  -28.6768  -11.8964   21.2932 H   0  0  0  0  0  0
  -28.4559  -13.5113   21.8821 H   0  0  0  0  0  0
  -25.2760   -9.5689   22.4761 H   0  0  0  0  0  0
  -24.0012   -7.4630   22.7466 H   0  0  0  0  0  0
  -21.0838   -8.8782   19.8954 H   0  0  0  0  0  0
  -22.3692  -10.9684   19.6175 H   0  0  0  0  0  0
  -21.2007   -7.6153   23.9722 H   0  0  0  0  0  0
  -21.1472   -6.0520   25.9076 H   0  0  0  0  0  0
  -22.0604   -2.7618   23.2835 H   0  0  0  0  0  0
  -22.4088  -11.9924   22.4827 H   0  0  0  0  0  0
  -21.1110  -13.1288   22.2596 H   0  0  0  0  0  0
  -24.6645  -15.8458   20.5091 H   0  0  0  0  0  0
  -26.2845  -15.6266   20.0842 H   0  0  0  0  0  0
  -26.7085  -32.5520   23.1144 H   0  0  0  0  0  0
  -25.0036  -33.9772   25.0463 H   0  0  0  0  0  0
  -22.6869  -31.3092   21.4117 H   0  0  0  0  0  0
  -23.3738  -35.9652   23.3320 H   0  0  0  0  0  0
  -24.3600  -36.8917   22.2054 H   0  0  0  0  0  0
  -23.7252  -37.6526   23.6647 H   0  0  0  0  0  0
  -26.0342  -31.6022   20.5843 H   0  0  0  0  0  0
  -26.8123  -30.8959   21.9718 H   0  0  0  0  0  0
  -28.0971  -29.1298   21.1434 H   0  0  0  0  0  0
  -26.0209  -25.9667   19.0425 H   0  0  0  0  0  0
  -23.9749  -27.2756   19.0672 H   0  0  0  0  0  0
  -23.7108  -30.5973   19.4037 H   0  0  0  0  0  0
  -22.7301  -29.2427   19.8701 H   0  0  0  0  0  0
  -25.1278  -36.1971   25.0837 H   0  0  0  0  0  0
  -20.9985  -28.3202   24.1441 H   0  0  0  0  0  0
  -20.5660  -26.2219   23.3607 H   0  0  0  0  0  0
  -21.6615  -26.7381   22.1211 H   0  0  0  0  0  0
  -19.6878  -25.6296   21.1209 H   0  0  0  0  0  0
  -19.6688  -27.3211   20.6780 H   0  0  0  0  0  0
  -17.4183  -26.6675   21.4031 H   0  0  0  0  0  0
  -18.0287  -26.0062   22.9028 H   0  0  0  0  0  0
  -19.7935  -30.7249   24.2254 H   0  0  0  0  0  0
  -17.5016  -31.6256   24.5143 H   0  0  0  0  0  0
  -15.5345  -30.2964   23.7661 H   0  0  0  0  0  0
  -15.8669  -28.0843   22.6980 H   0  0  0  0  0  0
  -24.5945  -30.6989   25.7837 H   0  0  0  0  0  0
  -24.8925  -32.2815   26.4932 H   0  0  0  0  0  0
  -25.8160  -30.8861   27.0223 H   0  0  0  0  0  0
  -26.2784  -29.6826   24.1118 H   0  0  0  0  0  0
  -27.4126  -29.7274   25.4442 H   0  0  0  0  0  0
  -27.8599  -30.4377   23.9104 H   0  0  0  0  0  0
  -27.2649  -33.3588   26.2066 H   0  0  0  0  0  0
  -28.3837  -32.6867   25.0294 H   0  0  0  0  0  0
  -28.0708  -31.8414   26.5382 H   0  0  0  0  0  0
  -28.2562  -38.0113   24.7544 H   0  0  0  0  0  0
  -28.1094  -36.2648   24.6236 H   0  0  0  0  0  0
  -27.2308  -37.1395   25.8868 H   0  0  0  0  0  0
  -20.9259  -29.8785   21.7025 H   0  0  0  0  0  0
  -26.0171  -38.2871   24.1471 H   0  0  0  0  0  0
  -29.1761  -17.8395   25.2665 H   0  0  0  0  0  0
  -29.4594  -16.8503   20.5774 H   0  0  0  0  0  0
  -28.2354  -15.8946   21.4907 H   0  0  0  0  0  0
  -31.6648  -15.7836   23.2415 H   0  0  0  0  0  0
  -31.7395  -16.7879   21.7461 H   0  0  0  0  0  0
  -29.3327  -16.2373   23.5752 H   0  0  0  0  0  0
  -30.3671  -21.2554   20.7793 H   0  0  0  0  0  0
  -30.1574  -22.4919   21.9819 H   0  0  0  0  0  0
  -27.5867  -22.1601   21.7349 H   0  0  0  0  0  0
  -27.9396  -21.0392   20.4462 H   0  0  0  0  0  0
  -27.3140  -24.5635   20.9965 H   0  0  0  0  0  0
  -29.0209  -24.4983   21.3630 H   0  0  0  0  0  0
  -27.9911  -25.3698   18.6004 H   0  0  0  0  0  0
  -29.6219  -25.3940   19.1747 H   0  0  0  0  0  0
  -27.5518  -22.9233   19.3655 H   0  0  0  0  0  0
  -29.1730  -22.9270   19.3951 H   0  0  0  0  0  0
  1 25  1  0  0  0
  1 30  2  0  0  0
  1 84  1  0  0  0
  2  3  1  0  0  0
  2 25  1  0  0  0
  2 87  1  0  0  0
  2 88  1  0  0  0
  3  4  1  0  0  0
  3 89  1  0  0  0
  3 90  1  0  0  0
  4  5  1  0  0  0
  4 91  1  0  0  0
  4 92  1  0  0  0
  5  6  1  0  0  0
  5 26  1  0  0  0
  5 93  1  0  0  0
  6 25  1  0  0  0
  6 94  1  0  0  0
  6 95  1  0  0  0
  7  8  2  0  0  0
  7 26  1  0  0  0
  7 29  1  0  0  0
  8  9  1  0  0  0
  8 22  1  0  0  0
  9 10  1  0  0  0
  9 27  2  0  0  0
 10 11  2  0  0  0
 10 15  1  0  0  0
 11 12  1  0  0  0
 11 96  1  0  0  0
 12 13  2  0  0  0
 12 97  1  0  0  0
 13 14  1  0  0  0
 13 31  1  0  0  0
 14 15  2  0  0  0
 14 98  1  0  0  0
 15 99  1  0  0  0
 16 17  2  0  0  0
 16 21  1  0  0  0
 16 31  1  0  0  0
 17 18  1  0  0  0
 17100  1  0  0  0
 18 19  2  0  0  0
 18101  1  0  0  0
 19 20  1  0  0  0
 19 24  1  0  0  0
 20 21  2  0  0  0
 20102  1  0  0  0
 21 23  1  0  0  0
 22 28  1  0  0  0
 22 32  2  0  0  0
 26 27  1  0  0  0
 28103  1  0  0  0
 28104  1  0  0  0
 29105  1  0  0  0
 29106  1  0  0  0
 33 34  1  0  0  0
 33 66  1  0  0  0
 33 70  2  0  0  0
 34 36  1  0  0  0
 34 59  1  0  0  0
 34107  1  0  0  0
 35 44  2  0  0  0
 35 45  1  0  0  0
 35 68  1  0  0  0
 36 56  1  0  0  0
 36108  1  0  0  0
 37 39  1  0  0  0
 37 47  1  0  0  0
 37 66  1  0  0  0
 37109  1  0  0  0
 38 43  2  0  0  0
 38 46  1  0  0  0
 38 47  1  0  0  0
 39 64  1  0  0  0
 39 67  2  0  0  0
 40 52  1  0  0  0
 40 53  2  0  0  0
 40 58  1  0  0  0
 41110  1  0  0  0
 41111  1  0  0  0
 41112  1  0  0  0
 41 48  1  0  0  0
 42 43  1  0  0  0
 42 66  1  0  0  0
 42113  1  0  0  0
 42114  1  0  0  0
 43 44  1  0  0  0
 44115  1  0  0  0
 45 46  2  0  0  0
 45116  1  0  0  0
 46117  1  0  0  0
 47118  1  0  0  0
 47119  1  0  0  0
 48 56  1  0  0  0
 48 65  1  0  0  0
 48120  1  0  0  0
 49 50  1  0  0  0
 49 53  1  0  0  0
 49 64  1  0  0  0
 49121  1  0  0  0
 50 51  1  0  0  0
 50122  1  0  0  0
 50123  1  0  0  0
 51 52  1  0  0  0
 51124  1  0  0  0
 51125  1  0  0  0
 52126  1  0  0  0
 52127  1  0  0  0
 53 54  1  0  0  0
 54 55  2  0  0  0
 54128  1  0  0  0
 55 57  1  0  0  0
 55129  1  0  0  0
 56 69  2  0  0  0
 57 58  2  0  0  0
 57130  1  0  0  0
 58131  1  0  0  0
 59 60  1  0  0  0
 59 61  1  0  0  0
 59 62  1  0  0  0
 60132  1  0  0  0
 60133  1  0  0  0
 60134  1  0  0  0
 61135  1  0  0  0
 61136  1  0  0  0
 61137  1  0  0  0
 62138  1  0  0  0
 62139  1  0  0  0
 62140  1  0  0  0
 63 65  1  0  0  0
 63141  1  0  0  0
 63142  1  0  0  0
 63143  1  0  0  0
 64144  1  0  0  0
 65145  1  0  0  0
 68 81  1  0  0  0
 71 72  2  0  0  0
 71 82  1  0  0  0
 71146  1  0  0  0
 72 83  1  0  0  0
 72 77  1  0  0  0
 73 74  1  0  0  0
 73 78  1  0  0  0
 73 83  2  0  0  0
 74 82  2  0  0  0
 74 86  1  0  0  0
 75 77  1  0  0  0
 75 84  1  0  0  0
 75147  1  0  0  0
 75148  1  0  0  0
 76 77  1  0  0  0
 76 84  1  0  0  0
 76149  1  0  0  0
 76150  1  0  0  0
 77151  1  0  0  0
 78 79  1  0  0  0
 78152  1  0  0  0
 78153  1  0  0  0
 79 85  1  0  0  0
 79154  1  0  0  0
 79155  1  0  0  0
 80 81  1  0  0  0
 80 85  1  0  0  0
 80156  1  0  0  0
 80157  1  0  0  0
 81158  1  0  0  0
 81159  1  0  0  0
 85160  1  0  0  0
 85161  1  0  0  0
M  CHG  1  85   1
M  ISO  4   1 100  68 101  81 101  84 100
M  END
> <chiral flag>
0

> <version>
0

> <s_m_source_file>
/data/baiqing/PycharmProjects/Reinvent-master-3.2/result/LINK_invent/BTK/process_docking_weight1_custom_sum_contain_oxygen_bond_distance_aromatic_linkinvent_7_9_3/rearranged_h_0199.sdf

> <i_m_source_file_index>
47

> <r_mmod_Potential_Energy-OPLS-2005>
-88.9320907592773

> <r_mmod_Stretch_Energy-OPLS-2005>
37.658504486084

> <r_mmod_Bend_Energy-OPLS-2005>
113.129409790039

> <r_mmod_Torsional_Energy-OPLS-2005>
233.891693115234

> <r_mmod_Improper_Torsional_Energy-OPLS-2005>
9.65221977233887

> <r_mmod_Van_der_Waal_Energy-OPLS-2005>
156.204010009766

> <r_mmod_Electrostatic_Energy-OPLS-2005>
-166.960998535156

> <r_mmod_Solvation_Energy-OPLS-2005>
-480.720703125

> <b_mmod_Minimization_Converged-OPLS-2005>
0

> <r_mmod_RMS_Derivative-OPLS-2005>
2.14499497413635

$$$$
47
                    3D
 Structure written by MMmdl.
166176  0  0  1  0            999 V2000
  -29.5691  -15.6440   20.7579 C   0  0  0  0  0  0
  -30.2788  -13.1812   19.6932 C   0  0  0  0  0  0
  -29.5278  -12.6697   18.4131 C   0  0  0  0  0  0
  -28.1087  -12.1760   18.7730 C   0  0  0  0  0  0
  -27.4866  -13.1528   19.7928 C   0  0  2  0  0  0
  -28.3745  -13.3727   21.0150 C   0  0  0  0  0  0
  -25.0844  -13.6953   20.4307 C   0  0  0  0  0  0
  -24.0748  -12.9496   20.9127 C   0  0  0  0  0  0
  -24.5748  -11.6204   20.9031 C   0  0  0  0  0  0
  -23.8644  -10.3722   21.0613 C   0  0  0  0  0  0
  -24.3353   -9.3693   21.9298 C   0  0  0  0  0  0
  -23.6036   -8.1763   22.0782 C   0  0  0  0  0  0
  -22.4035   -7.9913   21.3507 C   0  0  0  0  0  0
  -21.9624   -8.9825   20.4597 C   0  0  0  0  0  0
  -22.6939  -10.1652   20.3096 C   0  0  0  0  0  0
  -21.6686   -6.0514   22.5269 C   0  0  0  0  0  0
  -21.3890   -6.5469   23.8198 C   0  0  0  0  0  0
  -21.3714   -5.6651   24.9192 C   0  0  0  0  0  0
  -21.6095   -4.2919   24.7257 C   0  0  0  0  0  0
  -21.8820   -3.7973   23.4403 C   0  0  0  0  0  0
  -21.9121   -4.6766   22.3435 C   0  0  0  0  0  0
  -22.6897  -13.4446   21.2004 C   0  0  0  0  0  0
  -22.1577   -4.1960   21.1012 F   0  0  0  0  0  0
  -21.5757   -3.4441   25.7797 F   0  0  0  0  0  0
  -29.4244  -14.2080   20.4991 N   0  0  0  0  0  0
  -26.1644  -12.8505   20.2468 N   0  0  0  0  0  0
  -25.8673  -11.5878   20.5962 N   0  0  0  0  0  0
  -21.9860  -12.7649   22.0964 N   0  0  0  0  0  0
  -25.0409  -15.0085   20.0679 N   0  0  0  0  0  0
  -30.8089  -15.8143   20.5654 O   0  0  0  0  0  0
  -21.6395   -6.8568   21.4210 O   0  0  0  0  0  0
  -22.2501  -14.4787   20.6919 O   0  0  0  0  0  0
  -24.6407  -31.9539   23.2462 C   0  0  0  0  0  0
  -25.9424  -32.5131   23.8677 C   0  0  1  0  0  0
  -26.1963  -27.2774   20.2636 C   0  0  0  0  0  0
  -25.6338  -33.8878   24.2617 N   0  0  0  0  0  0
  -23.4181  -30.5811   21.6577 C   0  0  2  0  0  0
  -24.8384  -29.4192   19.7726 C   0  0  0  0  0  0
  -23.0761  -29.4870   22.7388 C   0  0  0  0  0  0
  -18.7269  -27.5218   22.4710 C   0  0  0  0  0  0
  -24.1518  -36.7360   23.2591 C   0  0  0  0  0  0
  -25.9548  -30.8597   21.4425 C   0  0  0  0  0  0
  -25.8978  -29.5773   20.6604 C   0  0  0  0  0  0
  -26.7463  -28.4705   20.8289 C   0  0  0  0  0  0
  -25.9223  -27.3862   18.9328 C   0  0  0  0  0  0
  -24.9598  -28.4064   18.7719 C   0  0  0  0  0  0
  -23.5559  -30.1677   20.1271 C   0  0  0  0  0  0
  -25.4141  -36.3225   24.0330 C   0  0  1  0  0  0
  -21.4820  -27.7698   23.5527 C   0  0  2  0  0  0
  -22.5499  -26.2324   22.4956 C   0  0  0  0  0  0
  -20.9087  -25.3579   20.7866 C   0  0  0  0  0  0
  -19.0677  -26.2054   21.2831 C   0  0  0  0  0  0
  -19.7494  -28.1876   23.3729 C   0  0  0  0  0  0
  -19.2947  -29.4608   23.9834 C   0  0  0  0  0  0
  -17.9902  -30.0393   23.9442 C   0  0  0  0  0  0
  -25.9157  -34.9618   23.5182 C   0  0  0  0  0  0
  -16.9905  -29.3177   23.2932 C   0  0  0  0  0  0
  -17.3655  -28.1199   22.5861 C   0  0  0  0  0  0
  -26.4590  -31.6710   25.0938 C   0  0  0  0  0  0
  -25.3813  -31.3784   26.1608 C   0  0  0  0  0  0
  -27.0453  -30.3135   24.6399 C   0  0  0  0  0  0
  -27.6196  -32.4395   25.7743 C   0  0  0  0  0  0
  -27.5624  -37.1874   24.8456 C   0  0  0  0  0  0
  -21.8623  -29.1681   23.1048 N   0  0  0  0  0  0
  -26.4305  -37.3909   23.9451 N   0  0  0  0  0  0
  -24.6826  -31.1968   22.1233 N   0  0  0  0  0  0
  -23.9487  -28.8587   23.3158 O   0  0  0  0  0  0
  -24.8804  -26.8507   20.7088 O   0  0  0  0  0  0
  -26.5497  -34.8984   22.4614 O   0  0  0  0  0  0
  -23.5665  -32.2279   23.8022 O   0  0  0  0  0  0
  -21.1084  -24.8787   24.3124 C   0  0  0  0  0  0
  -22.0819  -23.7480   24.3784 C   0  0  0  0  0  0
  -22.3619  -23.1685   23.0733 C   0  0  0  0  0  0
  -22.0245  -22.7300   26.7957 C   0  0  0  0  0  0
  -23.1522  -23.7443   26.8540 C   0  0  0  0  0  0
  -26.5034  -16.7963   21.7032 C   0  0  0  0  0  0
  -27.1692  -16.7374   20.2833 C   0  0  0  0  0  0
  -22.7953  -23.0859   25.5455 C   0  0  0  0  0  0
  -27.3454  -18.0236   21.8739 C   0  0  2  0  0  0
  -26.0741  -19.6217   21.6644 C   0  0  0  0  0  0
  -21.2100  -27.4656   21.2659 C   0  0  0  0  0  0
  -24.6839  -20.7262   22.6758 C   0  0  0  0  0  0
  -23.1289  -27.3257   20.4112 C   0  0  0  0  0  0
  -21.1201  -23.9298   22.7049 N   0  0  0  0  0  0
  -20.5750  -25.4686   23.0220 N   0  0  0  0  0  0
  -28.4370  -16.8300   20.9414 N   0  0  0  0  0  0
  -23.4676  -22.0547   22.4395 N   0  0  0  0  0  0
  -31.2387  -13.6146   19.4020 H   0  0  0  0  0  0
  -30.5346  -12.3170   20.3197 H   0  0  0  0  0  0
  -30.0915  -11.8870   17.9006 H   0  0  0  0  0  0
  -29.4248  -13.4926   17.7048 H   0  0  0  0  0  0
  -28.1687  -11.1749   19.2177 H   0  0  0  0  0  0
  -27.4908  -12.0759   17.8796 H   0  0  0  0  0  0
  -27.3916  -14.0246   19.1653 H   0  0  0  0  0  0
  -28.7225  -12.4195   21.4220 H   0  0  0  0  0  0
  -27.8583  -13.8794   21.8340 H   0  0  0  0  0  0
  -25.2553   -9.5158   22.4814 H   0  0  0  0  0  0
  -23.9738   -7.4114   22.7439 H   0  0  0  0  0  0
  -21.0624   -8.8324   19.8846 H   0  0  0  0  0  0
  -22.3474  -10.9181   19.6193 H   0  0  0  0  0  0
  -21.1748   -7.5956   23.9665 H   0  0  0  0  0  0
  -21.1645   -6.0386   25.9108 H   0  0  0  0  0  0
  -22.0581   -2.7446   23.2907 H   0  0  0  0  0  0
  -22.3575  -11.9354   22.5282 H   0  0  0  0  0  0
  -21.0578  -13.0738   22.3550 H   0  0  0  0  0  0
  -24.1371  -15.4701   20.0409 H   0  0  0  0  0  0
  -25.7811  -15.5326   19.6298 H   0  0  0  0  0  0
  -26.7428  -32.5607   23.1337 H   0  0  0  0  0  0
  -25.0655  -34.0093   25.0858 H   0  0  0  0  0  0
  -22.6144  -31.3203   21.6979 H   0  0  0  0  0  0
  -23.3826  -35.9647   23.3221 H   0  0  0  0  0  0
  -24.3647  -36.8996   22.2016 H   0  0  0  0  0  0
  -23.7199  -37.6530   23.6604 H   0  0  0  0  0  0
  -26.1904  -31.6620   20.7428 H   0  0  0  0  0  0
  -26.8038  -30.7549   22.1022 H   0  0  0  0  0  0
  -27.5126  -28.4537   21.5899 H   0  0  0  0  0  0
  -25.7810  -26.5117   18.3147 H   0  0  0  0  0  0
  -24.2207  -28.3101   17.9873 H   0  0  0  0  0  0
  -23.5563  -31.0848   19.5374 H   0  0  0  0  0  0
  -22.6579  -29.6560   19.7882 H   0  0  0  0  0  0
  -25.1289  -36.2104   25.0818 H   0  0  0  0  0  0
  -21.7032  -27.6744   24.6166 H   0  0  0  0  0  0
  -22.9922  -25.5566   23.1963 H   0  0  0  0  0  0
  -23.6137  -26.3191   22.3763 H   0  0  0  0  0  0
  -20.8589  -24.3019   20.5195 H   0  0  0  0  0  0
  -21.1579  -25.6314   19.7627 H   0  0  0  0  0  0
  -18.6066  -26.5205   20.3385 H   0  0  0  0  0  0
  -18.4311  -25.3693   21.5756 H   0  0  0  0  0  0
  -20.0096  -30.0116   24.5791 H   0  0  0  0  0  0
  -17.7674  -30.9629   24.4623 H   0  0  0  0  0  0
  -15.9667  -29.6693   23.2827 H   0  0  0  0  0  0
  -16.5835  -27.6473   22.0076 H   0  0  0  0  0  0
  -24.6023  -30.7097   25.7863 H   0  0  0  0  0  0
  -24.8914  -32.2900   26.5042 H   0  0  0  0  0  0
  -25.8089  -30.8945   27.0376 H   0  0  0  0  0  0
  -26.3046  -29.6932   24.1316 H   0  0  0  0  0  0
  -27.3991  -29.7330   25.4909 H   0  0  0  0  0  0
  -27.8978  -30.4409   23.9747 H   0  0  0  0  0  0
  -27.2813  -33.3692   26.2330 H   0  0  0  0  0  0
  -28.3948  -32.6971   25.0528 H   0  0  0  0  0  0
  -28.0864  -31.8500   26.5619 H   0  0  0  0  0  0
  -28.2582  -38.0230   24.7631 H   0  0  0  0  0  0
  -28.1188  -36.2780   24.6130 H   0  0  0  0  0  0
  -27.2367  -37.1331   25.8854 H   0  0  0  0  0  0
  -21.0907  -29.7297   22.7640 H   0  0  0  0  0  0
  -26.0197  -38.2980   24.1512 H   0  0  0  0  0  0
  -20.8478  -25.4526   25.1910 H   0  0  0  0  0  0
  -21.0199  -23.1336   26.9120 H   0  0  0  0  0  0
  -22.1949  -21.7414   27.2252 H   0  0  0  0  0  0
  -24.0562  -23.4161   27.3656 H   0  0  0  0  0  0
  -22.9139  -24.7928   26.9687 H   0  0  0  0  0  0
  -26.7232  -15.9757   22.3872 H   0  0  0  0  0  0
  -25.4289  -17.0142   21.7185 H   0  0  0  0  0  0
  -26.8951  -17.5640   19.6277 H   0  0  0  0  0  0
  -27.1580  -15.8596   19.6859 H   0  0  0  0  0  0
  -23.5027  -22.3189   25.2111 H   0  0  0  0  0  0
  -27.7789  -18.1013   22.8601 H   0  0  0  0  0  0
  -25.4896  -19.3612   20.7798 H   0  0  0  0  0  0
  -26.7172  -20.4161   21.2819 H   0  0  0  0  0  0
  -20.6610  -27.5244   20.3156 H   0  0  0  0  0  0
  -20.7756  -28.4602   21.3049 H   0  0  0  0  0  0
  -25.2014  -21.0135   23.5990 H   0  0  0  0  0  0
  -24.0325  -19.9192   23.0253 H   0  0  0  0  0  0
  -23.1748  -26.3122   20.0208 H   0  0  0  0  0  0
  -23.6649  -27.8513   21.1527 H   0  0  0  0  0  0
  -23.4623  -22.2251   21.4335 H   0  0  0  0  0  0
  1 25  1  0  0  0
  1 30  2  0  0  0
  1 86  1  0  0  0
  2  3  1  0  0  0
  2 25  1  0  0  0
  2 88  1  0  0  0
  2 89  1  0  0  0
  3  4  1  0  0  0
  3 90  1  0  0  0
  3 91  1  0  0  0
  4  5  1  0  0  0
  4 92  1  0  0  0
  4 93  1  0  0  0
  5  6  1  0  0  0
  5 26  1  0  0  0
  5 94  1  0  0  0
  6 25  1  0  0  0
  6 95  1  0  0  0
  6 96  1  0  0  0
  7  8  2  0  0  0
  7 26  1  0  0  0
  7 29  1  0  0  0
  8  9  1  0  0  0
  8 22  1  0  0  0
  9 10  1  0  0  0
  9 27  2  0  0  0
 10 11  2  0  0  0
 10 15  1  0  0  0
 11 12  1  0  0  0
 11 97  1  0  0  0
 12 13  2  0  0  0
 12 98  1  0  0  0
 13 14  1  0  0  0
 13 31  1  0  0  0
 14 15  2  0  0  0
 14 99  1  0  0  0
 15100  1  0  0  0
 16 17  2  0  0  0
 16 21  1  0  0  0
 16 31  1  0  0  0
 17 18  1  0  0  0
 17101  1  0  0  0
 18 19  2  0  0  0
 18102  1  0  0  0
 19 20  1  0  0  0
 19 24  1  0  0  0
 20 21  2  0  0  0
 20103  1  0  0  0
 21 23  1  0  0  0
 22 28  1  0  0  0
 22 32  2  0  0  0
 26 27  1  0  0  0
 28104  1  0  0  0
 28105  1  0  0  0
 29106  1  0  0  0
 29107  1  0  0  0
 33 34  1  0  0  0
 33 66  1  0  0  0
 33 70  2  0  0  0
 34 36  1  0  0  0
 34 59  1  0  0  0
 34108  1  0  0  0
 35 44  2  0  0  0
 35 45  1  0  0  0
 35 68  1  0  0  0
 36 56  1  0  0  0
 36109  1  0  0  0
 37 39  1  0  0  0
 37 47  1  0  0  0
 37 66  1  0  0  0
 37110  1  0  0  0
 38 43  2  0  0  0
 38 46  1  0  0  0
 38 47  1  0  0  0
 39 64  1  0  0  0
 39 67  2  0  0  0
 40 52  1  0  0  0
 40 53  2  0  0  0
 40 58  1  0  0  0
 41111  1  0  0  0
 41112  1  0  0  0
 41113  1  0  0  0
 41 48  1  0  0  0
 42 43  1  0  0  0
 42 66  1  0  0  0
 42114  1  0  0  0
 42115  1  0  0  0
 43 44  1  0  0  0
 44116  1  0  0  0
 45 46  2  0  0  0
 45117  1  0  0  0
 46118  1  0  0  0
 47119  1  0  0  0
 47120  1  0  0  0
 48 56  1  0  0  0
 48 65  1  0  0  0
 48121  1  0  0  0
 49 50  1  0  0  0
 49 53  1  0  0  0
 49 64  1  0  0  0
 49122  1  0  0  0
 50 51  1  0  0  0
 50123  1  0  0  0
 50124  1  0  0  0
 51 52  1  0  0  0
 51125  1  0  0  0
 51126  1  0  0  0
 52127  1  0  0  0
 52128  1  0  0  0
 53 54  1  0  0  0
 54 55  2  0  0  0
 54129  1  0  0  0
 55 57  1  0  0  0
 55130  1  0  0  0
 56 69  2  0  0  0
 57 58  2  0  0  0
 57131  1  0  0  0
 58132  1  0  0  0
 59 60  1  0  0  0
 59 61  1  0  0  0
 59 62  1  0  0  0
 60133  1  0  0  0
 60134  1  0  0  0
 60135  1  0  0  0
 61136  1  0  0  0
 61137  1  0  0  0
 61138  1  0  0  0
 62139  1  0  0  0
 62140  1  0  0  0
 62141  1  0  0  0
 63 65  1  0  0  0
 63142  1  0  0  0
 63143  1  0  0  0
 63144  1  0  0  0
 64145  1  0  0  0
 65146  1  0  0  0
 68 83  1  0  0  0
 71 72  2  0  0  0
 71 85  1  0  0  0
 71147  1  0  0  0
 72 73  1  0  0  0
 72 78  1  0  0  0
 73 84  2  0  0  0
 73 87  1  0  0  0
 74 75  1  0  0  0
 74 78  1  0  0  0
 74148  1  0  0  0
 74149  1  0  0  0
 75 78  1  0  0  0
 75150  1  0  0  0
 75151  1  0  0  0
 76 77  1  0  0  0
 76 79  1  0  0  0
 76152  1  0  0  0
 76153  1  0  0  0
 77 86  1  0  0  0
 77154  1  0  0  0
 77155  1  0  0  0
 78156  1  0  0  0
 79 80  1  0  0  0
 79 86  1  0  0  0
 79157  1  0  0  0
 80 82  1  0  0  0
 80158  1  0  0  0
 80159  1  0  0  0
 81 83  1  0  0  0
 81 85  1  0  0  0
 81160  1  0  0  0
 81161  1  0  0  0
 82 87  1  0  0  0
 82162  1  0  0  0
 82163  1  0  0  0
 83164  1  0  0  0
 83165  1  0  0  0
 84 85  1  0  0  0
 87166  1  0  0  0
M  ISO  4   1 100  68 101  83 101  86 100
M  END
> <chiral flag>
0

> <version>
0

> <s_m_source_file>
/data/baiqing/PycharmProjects/Reinvent-master-3.2/result/LINK_invent/BTK/process_docking_weight1_custom_sum_contain_oxygen_bond_distance_aromatic_linkinvent_7_9_3/rearranged_h_0199.sdf

> <i_m_source_file_index>
48

> <r_mmod_Potential_Energy-OPLS-2005>
15513.5478515625

> <r_mmod_Stretch_Energy-OPLS-2005>
6896.54345703125

> <r_mmod_Bend_Energy-OPLS-2005>
1907.02856445312

> <r_mmod_Torsional_Energy-OPLS-2005>
791.261657714844

> <r_mmod_Improper_Torsional_Energy-OPLS-2005>
65.6401138305664

> <r_mmod_Van_der_Waal_Energy-OPLS-2005>
2192.96655273438

> <r_mmod_Electrostatic_Energy-OPLS-2005>
-369.428619384766

> <r_mmod_Solvation_Energy-OPLS-2005>
-237.251693725586

> <b_mmod_Minimization_Converged-OPLS-2005>
0

> <r_mmod_RMS_Derivative-OPLS-2005>
19.2612113952637

$$$$
48
                    3D
 Structure written by MMmdl.
160168  0  0  1  0            999 V2000
  -30.6662  -14.4990   20.4805 C   0  0  0  0  0  0
  -30.4208  -12.3019   19.4124 C   0  0  0  0  0  0
  -29.4961  -12.4877   18.1909 C   0  0  0  0  0  0
  -28.0113  -12.3604   18.5943 C   0  0  0  0  0  0
  -27.6521  -13.1991   19.8516 C   0  0  2  0  0  0
  -28.6992  -12.9884   20.9714 C   0  0  0  0  0  0
  -25.2554  -13.8145   20.5605 C   0  0  0  0  0  0
  -24.1823  -13.0412   20.9180 C   0  0  0  0  0  0
  -24.6393  -11.6887   20.8725 C   0  0  0  0  0  0
  -23.9058  -10.4279   21.0386 C   0  0  0  0  0  0
  -24.3610   -9.4196   21.9171 C   0  0  0  0  0  0
  -23.6289   -8.2231   22.0742 C   0  0  0  0  0  0
  -22.4250   -8.0284   21.3549 C   0  0  0  0  0  0
  -21.9901   -9.0247   20.4630 C   0  0  0  0  0  0
  -22.7234  -10.2130   20.3033 C   0  0  0  0  0  0
  -21.6862   -6.0742   22.5288 C   0  0  0  0  0  0
  -21.4007   -6.5633   23.8215 C   0  0  0  0  0  0
  -21.3646   -5.6780   24.9181 C   0  0  0  0  0  0
  -21.6045   -4.3049   24.7227 C   0  0  0  0  0  0
  -21.8822   -3.8142   23.4338 C   0  0  0  0  0  0
  -21.9187   -4.6965   22.3400 C   0  0  0  0  0  0
  -22.7854  -13.5224   21.1864 C   0  0  0  0  0  0
  -22.1668   -4.2159   21.0978 F   0  0  0  0  0  0
  -21.5620   -3.4514   25.7727 F   0  0  0  0  0  0
  -30.0190  -13.3034   20.4094 N   0  0  0  0  0  0
  -26.2960  -12.9292   20.3219 N   0  0  0  0  0  0
  -25.9299  -11.6458   20.5692 N   0  0  0  0  0  0
  -22.0482  -12.8202   22.0420 N   0  0  0  0  0  0
  -25.4192  -15.1843   20.3881 N   0  0  0  0  0  0
  -31.8557  -14.6123   20.1616 O   0  0  0  0  0  0
  -21.6627   -6.8871   21.4241 O   0  0  0  0  0  0
  -22.3538  -14.5522   20.6711 O   0  0  0  0  0  0
  -24.6142  -31.8712   23.2113 C   0  0  0  0  0  0
  -25.9036  -32.4835   23.8403 C   0  0  1  0  0  0
  -27.2213  -27.4321   20.0769 C   0  0  0  0  0  0
  -25.5917  -33.8640   24.2342 N   0  0  0  0  0  0
  -23.3988  -30.4990   21.5544 C   0  0  2  0  0  0
  -24.8412  -28.9732   20.1079 C   0  0  0  0  0  0
  -22.7393  -29.4676   22.4976 C   0  0  0  0  0  0
  -18.0284  -28.1410   22.8488 C   0  0  0  0  0  0
  -24.1503  -36.7338   23.2648 C   0  0  0  0  0  0
  -25.9324  -30.8370   21.3637 C   0  0  0  0  0  0
  -26.0057  -29.4727   20.7023 C   0  0  0  0  0  0
  -27.1981  -28.7093   20.6855 C   0  0  0  0  0  0
  -26.0365  -26.9658   19.4515 C   0  0  0  0  0  0
  -24.8513  -27.7178   19.4826 C   0  0  0  0  0  0
  -23.6051  -29.8407   20.1646 C   0  0  0  0  0  0
  -25.4112  -36.3109   24.0339 C   0  0  1  0  0  0
  -20.5871  -28.3677   23.1316 C   0  0  2  0  0  0
  -20.6780  -26.9408   22.5421 C   0  0  0  0  0  0
  -19.5758  -26.6397   21.5220 C   0  0  0  0  0  0
  -18.1932  -26.7949   22.1624 C   0  0  0  0  0  0
  -19.1532  -28.8856   23.2905 C   0  0  0  0  0  0
  -18.9471  -30.1468   23.8904 C   0  0  0  0  0  0
  -17.6474  -30.6612   24.0581 C   0  0  0  0  0  0
  -25.9037  -34.9483   23.5110 C   0  0  0  0  0  0
  -16.5361  -29.9117   23.6351 C   0  0  0  0  0  0
  -16.7278  -28.6542   23.0335 C   0  0  0  0  0  0
  -26.4514  -31.6596   25.0712 C   0  0  0  0  0  0
  -25.3819  -31.3672   26.1467 C   0  0  0  0  0  0
  -27.0324  -30.3045   24.6046 C   0  0  0  0  0  0
  -27.6059  -32.4308   25.7519 C   0  0  0  0  0  0
  -27.5583  -37.1811   24.8468 C   0  0  0  0  0  0
  -21.4129  -29.3047   22.3705 N   0  0  0  0  0  0
  -26.4303  -37.3762   23.9395 N   0  0  0  0  0  0
  -24.6668  -31.0826   22.1012 N   0  0  0  0  0  0
  -23.4158  -28.8204   23.3000 O   0  0  0  0  0  0
  -28.3836  -26.6797   20.1183 O   0  0  0  0  0  0
  -26.5602  -34.8926   22.4678 O   0  0  0  0  0  0
  -23.5335  -32.1442   23.7521 O   0  0  0  0  0  0
  -29.3948  -19.7340   20.2351 C   0  0  0  0  0  0
  -29.0081  -17.5746   19.0872 C   0  0  0  0  0  0
  -28.8745  -17.6498   21.5305 C   0  0  0  0  0  0
  -30.0496  -16.4534   19.1599 C   0  0  0  0  0  0
  -28.9822  -16.1025   21.4146 C   0  0  0  0  0  0
  -29.1756  -20.6140   21.4828 C   0  0  0  0  0  0
  -29.7630  -22.0548   21.4127 C   0  0  0  0  0  0
  -29.2594  -24.4239   20.6960 C   0  0  0  0  0  0
  -28.2702  -25.2666   19.8652 C   0  0  0  0  0  0
  -29.1204  -18.4003   20.2894 N   0  0  0  0  0  0
  -29.8516  -15.5829   20.3344 N   0  0  0  0  0  0
  -28.9953  -22.9659   20.5265 N   0  3  0  0  0  0
  -29.7525  -20.2898   19.1915 O   0  0  0  0  0  0
  -31.4643  -12.4047   19.1094 H   0  0  0  0  0  0
  -30.3266  -11.2955   19.8201 H   0  0  0  0  0  0
  -29.7410  -11.7523   17.4229 H   0  0  0  0  0  0
  -29.6716  -13.4642   17.7350 H   0  0  0  0  0  0
  -27.8098  -11.3047   18.7766 H   0  0  0  0  0  0
  -27.3759  -12.6466   17.7545 H   0  0  0  0  0  0
  -27.6801  -14.2387   19.5281 H   0  0  0  0  0  0
  -28.6803  -11.9548   21.3140 H   0  0  0  0  0  0
  -28.4744  -13.5839   21.8527 H   0  0  0  0  0  0
  -25.2774   -9.5660   22.4719 H   0  0  0  0  0  0
  -24.0009   -7.4611   22.7442 H   0  0  0  0  0  0
  -21.0843   -8.8756   19.8926 H   0  0  0  0  0  0
  -22.3715  -10.9648   19.6106 H   0  0  0  0  0  0
  -21.2004   -7.6135   23.9735 H   0  0  0  0  0  0
  -21.1468   -6.0498   25.9090 H   0  0  0  0  0  0
  -22.0611   -2.7600   23.2835 H   0  0  0  0  0  0
  -22.4132  -11.9912   22.4847 H   0  0  0  0  0  0
  -21.1070  -13.1172   22.2569 H   0  0  0  0  0  0
  -24.6374  -15.8270   20.4534 H   0  0  0  0  0  0
  -26.2545  -15.6101   20.0118 H   0  0  0  0  0  0
  -26.7090  -32.5574   23.1138 H   0  0  0  0  0  0
  -25.0045  -33.9838   25.0476 H   0  0  0  0  0  0
  -22.6894  -31.3159   21.4147 H   0  0  0  0  0  0
  -23.3736  -35.9696   23.3319 H   0  0  0  0  0  0
  -24.3579  -36.8936   22.2054 H   0  0  0  0  0  0
  -23.7316  -37.6574   23.6662 H   0  0  0  0  0  0
  -26.0454  -31.6055   20.5965 H   0  0  0  0  0  0
  -26.8210  -30.8858   21.9792 H   0  0  0  0  0  0
  -28.0995  -29.0914   21.1456 H   0  0  0  0  0  0
  -25.9897  -26.0238   18.9268 H   0  0  0  0  0  0
  -23.9570  -27.3360   19.0110 H   0  0  0  0  0  0
  -23.7123  -30.6233   19.4137 H   0  0  0  0  0  0
  -22.7275  -29.2659   19.8682 H   0  0  0  0  0  0
  -25.1271  -36.1950   25.0823 H   0  0  0  0  0  0
  -20.9975  -28.3258   24.1424 H   0  0  0  0  0  0
  -20.5692  -26.2274   23.3603 H   0  0  0  0  0  0
  -21.6658  -26.7464   22.1202 H   0  0  0  0  0  0
  -19.6925  -25.6300   21.1267 H   0  0  0  0  0  0
  -19.6754  -27.3194   20.6734 H   0  0  0  0  0  0
  -17.4206  -26.6714   21.4033 H   0  0  0  0  0  0
  -18.0337  -26.0108   22.9026 H   0  0  0  0  0  0
  -19.7946  -30.7296   24.2255 H   0  0  0  0  0  0
  -17.5037  -31.6277   24.5195 H   0  0  0  0  0  0
  -15.5368  -30.3018   23.7680 H   0  0  0  0  0  0
  -15.8676  -28.0890   22.7006 H   0  0  0  0  0  0
  -24.6015  -30.6977   25.7843 H   0  0  0  0  0  0
  -24.9023  -32.2823   26.4944 H   0  0  0  0  0  0
  -25.8232  -30.8870   27.0200 H   0  0  0  0  0  0
  -26.2830  -29.6798   24.1171 H   0  0  0  0  0  0
  -27.4185  -29.7273   25.4454 H   0  0  0  0  0  0
  -27.8635  -30.4360   23.9104 H   0  0  0  0  0  0
  -27.2627  -33.3529   26.2198 H   0  0  0  0  0  0
  -28.3868  -32.6968   25.0396 H   0  0  0  0  0  0
  -28.0734  -31.8384   26.5381 H   0  0  0  0  0  0
  -28.2573  -38.0123   24.7416 H   0  0  0  0  0  0
  -28.1089  -36.2628   24.6369 H   0  0  0  0  0  0
  -27.2296  -37.1519   25.8872 H   0  0  0  0  0  0
  -20.9250  -29.8767   21.6962 H   0  0  0  0  0  0
  -26.0200  -38.2845   24.1341 H   0  0  0  0  0  0
  -29.1365  -18.1381   18.1625 H   0  0  0  0  0  0
  -27.9996  -17.1596   19.0270 H   0  0  0  0  0  0
  -29.6004  -17.9519   22.2835 H   0  0  0  0  0  0
  -27.8900  -17.9153   21.9185 H   0  0  0  0  0  0
  -31.0487  -16.8890   19.1715 H   0  0  0  0  0  0
  -29.9881  -15.8514   18.2492 H   0  0  0  0  0  0
  -29.2897  -15.6980   22.3803 H   0  0  0  0  0  0
  -27.9732  -15.7246   21.2464 H   0  0  0  0  0  0
  -28.1043  -20.6620   21.6675 H   0  0  0  0  0  0
  -29.6154  -20.1277   22.3533 H   0  0  0  0  0  0
  -30.8117  -22.0347   21.1039 H   0  0  0  0  0  0
  -29.7615  -22.4600   22.4241 H   0  0  0  0  0  0
  -29.1335  -24.6877   21.7458 H   0  0  0  0  0  0
  -30.2885  -24.6661   20.4288 H   0  0  0  0  0  0
  -27.2849  -24.8921   20.1390 H   0  0  0  0  0  0
  -28.4113  -25.0792   18.7986 H   0  0  0  0  0  0
  -28.0119  -22.8144   20.6982 H   0  0  0  0  0  0
  -29.1841  -22.6997   19.5702 H   0  0  0  0  0  0
  1 25  1  0  0  0
  1 30  2  0  0  0
  1 81  1  0  0  0
  2  3  1  0  0  0
  2 25  1  0  0  0
  2 84  1  0  0  0
  2 85  1  0  0  0
  3  4  1  0  0  0
  3 86  1  0  0  0
  3 87  1  0  0  0
  4  5  1  0  0  0
  4 88  1  0  0  0
  4 89  1  0  0  0
  5  6  1  0  0  0
  5 26  1  0  0  0
  5 90  1  0  0  0
  6 25  1  0  0  0
  6 91  1  0  0  0
  6 92  1  0  0  0
  7  8  2  0  0  0
  7 26  1  0  0  0
  7 29  1  0  0  0
  8  9  1  0  0  0
  8 22  1  0  0  0
  9 10  1  0  0  0
  9 27  2  0  0  0
 10 11  2  0  0  0
 10 15  1  0  0  0
 11 12  1  0  0  0
 11 93  1  0  0  0
 12 13  2  0  0  0
 12 94  1  0  0  0
 13 14  1  0  0  0
 13 31  1  0  0  0
 14 15  2  0  0  0
 14 95  1  0  0  0
 15 96  1  0  0  0
 16 17  2  0  0  0
 16 21  1  0  0  0
 16 31  1  0  0  0
 17 18  1  0  0  0
 17 97  1  0  0  0
 18 19  2  0  0  0
 18 98  1  0  0  0
 19 20  1  0  0  0
 19 24  1  0  0  0
 20 21  2  0  0  0
 20 99  1  0  0  0
 21 23  1  0  0  0
 22 28  1  0  0  0
 22 32  2  0  0  0
 26 27  1  0  0  0
 28100  1  0  0  0
 28101  1  0  0  0
 29102  1  0  0  0
 29103  1  0  0  0
 33 34  1  0  0  0
 33 66  1  0  0  0
 33 70  2  0  0  0
 34 36  1  0  0  0
 34 59  1  0  0  0
 34104  1  0  0  0
 35 44  2  0  0  0
 35 45  1  0  0  0
 35 68  1  0  0  0
 36 56  1  0  0  0
 36105  1  0  0  0
 37 39  1  0  0  0
 37 47  1  0  0  0
 37 66  1  0  0  0
 37106  1  0  0  0
 38 43  2  0  0  0
 38 46  1  0  0  0
 38 47  1  0  0  0
 39 64  1  0  0  0
 39 67  2  0  0  0
 40 52  1  0  0  0
 40 53  2  0  0  0
 40 58  1  0  0  0
 41107  1  0  0  0
 41108  1  0  0  0
 41109  1  0  0  0
 41 48  1  0  0  0
 42 43  1  0  0  0
 42 66  1  0  0  0
 42110  1  0  0  0
 42111  1  0  0  0
 43 44  1  0  0  0
 44112  1  0  0  0
 45 46  2  0  0  0
 45113  1  0  0  0
 46114  1  0  0  0
 47115  1  0  0  0
 47116  1  0  0  0
 48 56  1  0  0  0
 48 65  1  0  0  0
 48117  1  0  0  0
 49 50  1  0  0  0
 49 53  1  0  0  0
 49 64  1  0  0  0
 49118  1  0  0  0
 50 51  1  0  0  0
 50119  1  0  0  0
 50120  1  0  0  0
 51 52  1  0  0  0
 51121  1  0  0  0
 51122  1  0  0  0
 52123  1  0  0  0
 52124  1  0  0  0
 53 54  1  0  0  0
 54 55  2  0  0  0
 54125  1  0  0  0
 55 57  1  0  0  0
 55126  1  0  0  0
 56 69  2  0  0  0
 57 58  2  0  0  0
 57127  1  0  0  0
 58128  1  0  0  0
 59 60  1  0  0  0
 59 61  1  0  0  0
 59 62  1  0  0  0
 60129  1  0  0  0
 60130  1  0  0  0
 60131  1  0  0  0
 61132  1  0  0  0
 61133  1  0  0  0
 61134  1  0  0  0
 62135  1  0  0  0
 62136  1  0  0  0
 62137  1  0  0  0
 63 65  1  0  0  0
 63138  1  0  0  0
 63139  1  0  0  0
 63140  1  0  0  0
 64141  1  0  0  0
 65142  1  0  0  0
 68 79  1  0  0  0
 71 76  1  0  0  0
 71 80  1  0  0  0
 71 83  2  0  0  0
 72 74  1  0  0  0
 72 80  1  0  0  0
 72143  1  0  0  0
 72144  1  0  0  0
 73 75  1  0  0  0
 73 80  1  0  0  0
 73145  1  0  0  0
 73146  1  0  0  0
 74 81  1  0  0  0
 74147  1  0  0  0
 74148  1  0  0  0
 75 81  1  0  0  0
 75149  1  0  0  0
 75150  1  0  0  0
 76 77  1  0  0  0
 76151  1  0  0  0
 76152  1  0  0  0
 77 82  1  0  0  0
 77153  1  0  0  0
 77154  1  0  0  0
 78 79  1  0  0  0
 78 82  1  0  0  0
 78155  1  0  0  0
 78156  1  0  0  0
 79157  1  0  0  0
 79158  1  0  0  0
 82159  1  0  0  0
 82160  1  0  0  0
M  CHG  1  82   1
M  ISO  4   1 100  68 101  79 101  81 100
M  END
> <chiral flag>
0

> <version>
0

> <s_m_source_file>
/data/baiqing/PycharmProjects/Reinvent-master-3.2/result/LINK_invent/BTK/process_docking_weight1_custom_sum_contain_oxygen_bond_distance_aromatic_linkinvent_7_9_3/rearranged_h_0199.sdf

> <i_m_source_file_index>
49

> <r_mmod_Potential_Energy-OPLS-2005>
48.5205688476562

> <r_mmod_Stretch_Energy-OPLS-2005>
41.6667366027832

> <r_mmod_Bend_Energy-OPLS-2005>
106.022827148438

> <r_mmod_Torsional_Energy-OPLS-2005>
374.609985351562

> <r_mmod_Improper_Torsional_Energy-OPLS-2005>
21.0071449279785

> <r_mmod_Van_der_Waal_Energy-OPLS-2005>
155.666854858398

> <r_mmod_Electrostatic_Energy-OPLS-2005>
-219.592239379883

> <r_mmod_Solvation_Energy-OPLS-2005>
-451.199645996094

> <b_mmod_Minimization_Converged-OPLS-2005>
0

> <r_mmod_RMS_Derivative-OPLS-2005>
5.23371505737305

$$$$
49
                    3D
 Structure written by MMmdl.
170179  0  0  1  0            999 V2000
  -30.5044  -15.1595   20.3983 C   0  0  0  0  0  0
  -30.4264  -12.7374   19.5233 C   0  0  0  0  0  0
  -29.5216  -12.5604   18.2808 C   0  0  0  0  0  0
  -28.0662  -12.3076   18.7092 C   0  0  0  0  0  0
  -27.6121  -13.2755   19.8326 C   0  0  2  0  0  0
  -28.6485  -13.4194   20.9665 C   0  0  0  0  0  0
  -25.2295  -13.8216   20.5665 C   0  0  0  0  0  0
  -24.1721  -13.0362   20.9274 C   0  0  0  0  0  0
  -24.6424  -11.6891   20.8835 C   0  0  0  0  0  0
  -23.9124  -10.4252   21.0421 C   0  0  0  0  0  0
  -24.3646   -9.4156   21.9196 C   0  0  0  0  0  0
  -23.6303   -8.2205   22.0768 C   0  0  0  0  0  0
  -22.4288   -8.0262   21.3548 C   0  0  0  0  0  0
  -21.9939   -9.0240   20.4654 C   0  0  0  0  0  0
  -22.7293  -10.2104   20.3060 C   0  0  0  0  0  0
  -21.6855   -6.0725   22.5270 C   0  0  0  0  0  0
  -21.4015   -6.5628   23.8208 C   0  0  0  0  0  0
  -21.3664   -5.6781   24.9171 C   0  0  0  0  0  0
  -21.6048   -4.3045   24.7213 C   0  0  0  0  0  0
  -21.8823   -3.8133   23.4342 C   0  0  0  0  0  0
  -21.9191   -4.6950   22.3392 C   0  0  0  0  0  0
  -22.7696  -13.4993   21.1781 C   0  0  0  0  0  0
  -22.1667   -4.2134   21.0970 F   0  0  0  0  0  0
  -21.5635   -3.4529   25.7733 F   0  0  0  0  0  0
  -29.8927  -13.8850   20.3391 N   0  0  0  0  0  0
  -26.2823  -12.9551   20.3342 N   0  0  0  0  0  0
  -25.9379  -11.6649   20.5877 N   0  0  0  0  0  0
  -22.0411  -12.8190   22.0542 N   0  0  0  0  0  0
  -25.3637  -15.1939   20.3577 N   0  0  0  0  0  0
  -31.7185  -15.1278   20.1465 O   0  0  0  0  0  0
  -21.6637   -6.8867   21.4240 O   0  0  0  0  0  0
  -22.3289  -14.4989   20.6184 O   0  0  0  0  0  0
  -24.6554  -31.8308   23.1760 C   0  0  0  0  0  0
  -25.9268  -32.4624   23.8196 C   0  0  1  0  0  0
  -27.2193  -27.0037   20.1843 C   0  0  0  0  0  0
  -25.5972  -33.8437   24.2112 N   0  0  0  0  0  0
  -23.4657  -30.4432   21.5243 C   0  0  2  0  0  0
  -24.9188  -28.8399   20.1158 C   0  0  0  0  0  0
  -22.7627  -29.4474   22.4823 C   0  0  0  0  0  0
  -18.0313  -28.1391   22.8473 C   0  0  0  0  0  0
  -24.1498  -36.7224   23.2640 C   0  0  0  0  0  0
  -26.0300  -30.6630   21.3926 C   0  0  0  0  0  0
  -26.1009  -29.2595   20.7397 C   0  0  0  0  0  0
  -27.2505  -28.3617   20.7474 C   0  0  0  0  0  0
  -26.0093  -26.7134   19.5191 C   0  0  0  0  0  0
  -24.8928  -27.5852   19.4854 C   0  0  0  0  0  0
  -23.7008  -29.7581   20.1502 C   0  0  0  0  0  0
  -25.4132  -36.2989   24.0303 C   0  0  1  0  0  0
  -20.5934  -28.3726   23.1213 C   0  0  2  0  0  0
  -20.6792  -26.9417   22.5404 C   0  0  0  0  0  0
  -19.5768  -26.6367   21.5212 C   0  0  0  0  0  0
  -18.1948  -26.7928   22.1616 C   0  0  0  0  0  0
  -19.1571  -28.8878   23.2830 C   0  0  0  0  0  0
  -18.9484  -30.1473   23.8857 C   0  0  0  0  0  0
  -17.6479  -30.6591   24.0544 C   0  0  0  0  0  0
  -25.9093  -34.9368   23.5025 C   0  0  0  0  0  0
  -16.5369  -29.9074   23.6341 C   0  0  0  0  0  0
  -16.7294  -28.6488   23.0370 C   0  0  0  0  0  0
  -26.4547  -31.6542   25.0693 C   0  0  0  0  0  0
  -25.3698  -31.3775   26.1368 C   0  0  0  0  0  0
  -27.0426  -30.2918   24.6366 C   0  0  0  0  0  0
  -27.6056  -32.4334   25.7489 C   0  0  0  0  0  0
  -27.5585  -37.1754   24.8453 C   0  0  0  0  0  0
  -21.4306  -29.3031   22.3574 N   0  0  0  0  0  0
  -26.4279  -37.3724   23.9423 N   0  0  0  0  0  0
  -24.7378  -31.0040   22.0856 N   0  0  0  0  0  0
  -23.4208  -28.8036   23.3034 O   0  0  0  0  0  0
  -28.2490  -25.9521   20.2316 O   0  0  0  0  0  0
  -26.5693  -34.8890   22.4614 O   0  0  0  0  0  0
  -23.5642  -32.1242   23.6903 O   0  0  0  0  0  0
  -28.4659  -21.2892   20.7556 C   0  0  0  0  0  0
  -29.0607  -23.8603   21.2901 C   0  0  0  0  0  0
  -30.0484  -19.2432   19.6729 C   0  0  0  0  0  0
  -30.0264  -17.5903   19.3463 C   0  0  0  0  0  0
  -29.4286  -17.3443   21.5448 C   0  0  0  0  0  0
  -28.8453  -22.8374   20.1947 C   0  0  2  0  0  0
  -27.9757  -24.3599   20.3650 C   0  0  2  0  0  0
  -28.4939  -18.6941   21.3230 C   0  0  2  0  0  0
  -22.2304  -17.7972   21.6794 C   0  0  0  0  0  0
  -23.5075  -19.5559   22.9058 C   0  0  0  0  0  0
  -27.0836  -18.3086   20.8127 C   0  0  0  0  0  0
  -26.0603  -18.1387   21.9517 C   0  0  0  0  0  0
  -23.5687  -18.1128   22.3632 C   0  0  0  0  0  0
  -29.0090  -19.9225   20.5533 N   0  0  0  0  0  0
  -29.8009  -16.4572   20.3739 N   0  0  0  0  0  0
  -24.7010  -17.8832   21.4258 N   0  3  0  0  0  0
  -27.5185  -21.3295   21.5455 O   0  0  0  0  0  0
  -31.4534  -12.9088   19.1987 H   0  0  0  0  0  0
  -30.4564  -11.8212   20.1156 H   0  0  0  0  0  0
  -29.8825  -11.7366   17.6628 H   0  0  0  0  0  0
  -29.5711  -13.4570   17.6607 H   0  0  0  0  0  0
  -28.0068  -11.2797   19.0680 H   0  0  0  0  0  0
  -27.3952  -12.3677   17.8511 H   0  0  0  0  0  0
  -27.5395  -14.2523   19.3522 H   0  0  0  0  0  0
  -28.7900  -12.4825   21.5074 H   0  0  0  0  0  0
  -28.3057  -14.1541   21.6968 H   0  0  0  0  0  0
  -25.2766   -9.5630   22.4800 H   0  0  0  0  0  0
  -23.9989   -7.4597   22.7499 H   0  0  0  0  0  0
  -21.0866   -8.8768   19.8969 H   0  0  0  0  0  0
  -22.3743  -10.9646   19.6181 H   0  0  0  0  0  0
  -21.2012   -7.6137   23.9709 H   0  0  0  0  0  0
  -21.1493   -6.0507   25.9077 H   0  0  0  0  0  0
  -22.0601   -2.7590   23.2831 H   0  0  0  0  0  0
  -22.4127  -12.0081   22.5263 H   0  0  0  0  0  0
  -21.0954  -13.1141   22.2540 H   0  0  0  0  0  0
  -24.5529  -15.4514   19.8033 H   0  0  0  0  0  0
  -26.2061  -15.3743   19.8251 H   0  0  0  0  0  0
  -26.7330  -32.5189   23.0906 H   0  0  0  0  0  0
  -25.0088  -33.9530   25.0240 H   0  0  0  0  0  0
  -22.7740  -31.2717   21.3567 H   0  0  0  0  0  0
  -23.3782  -35.9531   23.3242 H   0  0  0  0  0  0
  -24.3586  -36.8927   22.2067 H   0  0  0  0  0  0
  -23.7220  -37.6382   23.6726 H   0  0  0  0  0  0
  -26.1986  -31.4073   20.6131 H   0  0  0  0  0  0
  -26.8942  -30.7205   22.0432 H   0  0  0  0  0  0
  -28.1500  -28.6824   21.2530 H   0  0  0  0  0  0
  -25.9040  -25.7518   19.0372 H   0  0  0  0  0  0
  -23.9926  -27.2582   18.9831 H   0  0  0  0  0  0
  -23.8468  -30.5241   19.3880 H   0  0  0  0  0  0
  -22.8131  -29.2031   19.8405 H   0  0  0  0  0  0
  -25.1322  -36.1786   25.0792 H   0  0  0  0  0  0
  -21.0018  -28.3320   24.1339 H   0  0  0  0  0  0
  -20.5675  -26.2344   23.3634 H   0  0  0  0  0  0
  -21.6659  -26.7406   22.1210 H   0  0  0  0  0  0
  -19.6930  -25.6268   21.1270 H   0  0  0  0  0  0
  -19.6710  -27.3154   20.6724 H   0  0  0  0  0  0
  -17.4226  -26.6681   21.4013 H   0  0  0  0  0  0
  -18.0333  -26.0070   22.9011 H   0  0  0  0  0  0
  -19.7958  -30.7297   24.2213 H   0  0  0  0  0  0
  -17.5029  -31.6272   24.5140 H   0  0  0  0  0  0
  -15.5364  -30.2959   23.7686 H   0  0  0  0  0  0
  -15.8695  -28.0781   22.7125 H   0  0  0  0  0  0
  -24.5873  -30.7136   25.7674 H   0  0  0  0  0  0
  -24.8897  -32.2979   26.4706 H   0  0  0  0  0  0
  -25.7947  -30.8988   27.0201 H   0  0  0  0  0  0
  -26.3071  -29.6611   24.1362 H   0  0  0  0  0  0
  -27.3976  -29.7255   25.4985 H   0  0  0  0  0  0
  -27.9005  -30.4109   23.9746 H   0  0  0  0  0  0
  -27.2629  -33.3659   26.1983 H   0  0  0  0  0  0
  -28.3911  -32.6858   25.0356 H   0  0  0  0  0  0
  -28.0677  -31.8519   26.5476 H   0  0  0  0  0  0
  -28.2543  -38.0108   24.7572 H   0  0  0  0  0  0
  -28.1142  -36.2642   24.6185 H   0  0  0  0  0  0
  -27.2318  -37.1279   25.8854 H   0  0  0  0  0  0
  -20.9547  -29.8726   21.6718 H   0  0  0  0  0  0
  -26.0130  -38.2778   24.1466 H   0  0  0  0  0  0
  -30.0187  -24.3753   21.2626 H   0  0  0  0  0  0
  -28.7450  -23.5998   22.2993 H   0  0  0  0  0  0
  -30.0507  -19.7746   18.7202 H   0  0  0  0  0  0
  -31.0132  -19.4748   20.1243 H   0  0  0  0  0  0
  -30.9446  -17.3587   18.8053 H   0  0  0  0  0  0
  -29.2388  -17.4372   18.6071 H   0  0  0  0  0  0
  -28.9297  -16.7040   22.2735 H   0  0  0  0  0  0
  -30.3588  -17.6438   22.0330 H   0  0  0  0  0  0
  -29.5821  -22.8251   19.3951 H   0  0  0  0  0  0
  -26.9510  -24.2359   20.7110 H   0  0  0  0  0  0
  -28.3796  -19.0788   22.3381 H   0  0  0  0  0  0
  -21.3965  -17.9277   22.3693 H   0  0  0  0  0  0
  -22.1926  -16.7722   21.3318 H   0  0  0  0  0  0
  -22.0523  -18.4443   20.8201 H   0  0  0  0  0  0
  -22.5851  -19.7161   23.4646 H   0  0  0  0  0  0
  -23.5265  -20.2901   22.1002 H   0  0  0  0  0  0
  -24.3205  -19.7818   23.5944 H   0  0  0  0  0  0
  -27.1409  -17.4020   20.2116 H   0  0  0  0  0  0
  -26.7114  -19.0762   20.1328 H   0  0  0  0  0  0
  -26.0736  -19.0517   22.5438 H   0  0  0  0  0  0
  -26.3506  -17.3256   22.6185 H   0  0  0  0  0  0
  -23.6912  -17.4287   23.2041 H   0  0  0  0  0  0
  -24.7004  -16.9100   21.1300 H   0  0  0  0  0  0
  -24.5597  -18.4495   20.6057 H   0  0  0  0  0  0
  1 25  1  0  0  0
  1 30  2  0  0  0
  1 85  1  0  0  0
  2  3  1  0  0  0
  2 25  1  0  0  0
  2 88  1  0  0  0
  2 89  1  0  0  0
  3  4  1  0  0  0
  3 90  1  0  0  0
  3 91  1  0  0  0
  4  5  1  0  0  0
  4 92  1  0  0  0
  4 93  1  0  0  0
  5  6  1  0  0  0
  5 26  1  0  0  0
  5 94  1  0  0  0
  6 25  1  0  0  0
  6 95  1  0  0  0
  6 96  1  0  0  0
  7  8  2  0  0  0
  7 26  1  0  0  0
  7 29  1  0  0  0
  8  9  1  0  0  0
  8 22  1  0  0  0
  9 10  1  0  0  0
  9 27  2  0  0  0
 10 11  2  0  0  0
 10 15  1  0  0  0
 11 12  1  0  0  0
 11 97  1  0  0  0
 12 13  2  0  0  0
 12 98  1  0  0  0
 13 14  1  0  0  0
 13 31  1  0  0  0
 14 15  2  0  0  0
 14 99  1  0  0  0
 15100  1  0  0  0
 16 17  2  0  0  0
 16 21  1  0  0  0
 16 31  1  0  0  0
 17 18  1  0  0  0
 17101  1  0  0  0
 18 19  2  0  0  0
 18102  1  0  0  0
 19 20  1  0  0  0
 19 24  1  0  0  0
 20 21  2  0  0  0
 20103  1  0  0  0
 21 23  1  0  0  0
 22 28  1  0  0  0
 22 32  2  0  0  0
 26 27  1  0  0  0
 28104  1  0  0  0
 28105  1  0  0  0
 29106  1  0  0  0
 29107  1  0  0  0
 33 34  1  0  0  0
 33 66  1  0  0  0
 33 70  2  0  0  0
 34 36  1  0  0  0
 34 59  1  0  0  0
 34108  1  0  0  0
 35 44  2  0  0  0
 35 45  1  0  0  0
 35 68  1  0  0  0
 36 56  1  0  0  0
 36109  1  0  0  0
 37 39  1  0  0  0
 37 47  1  0  0  0
 37 66  1  0  0  0
 37110  1  0  0  0
 38 43  2  0  0  0
 38 46  1  0  0  0
 38 47  1  0  0  0
 39 64  1  0  0  0
 39 67  2  0  0  0
 40 52  1  0  0  0
 40 53  2  0  0  0
 40 58  1  0  0  0
 41111  1  0  0  0
 41112  1  0  0  0
 41113  1  0  0  0
 41 48  1  0  0  0
 42 43  1  0  0  0
 42 66  1  0  0  0
 42114  1  0  0  0
 42115  1  0  0  0
 43 44  1  0  0  0
 44116  1  0  0  0
 45 46  2  0  0  0
 45117  1  0  0  0
 46118  1  0  0  0
 47119  1  0  0  0
 47120  1  0  0  0
 48 56  1  0  0  0
 48 65  1  0  0  0
 48121  1  0  0  0
 49 50  1  0  0  0
 49 53  1  0  0  0
 49 64  1  0  0  0
 49122  1  0  0  0
 50 51  1  0  0  0
 50123  1  0  0  0
 50124  1  0  0  0
 51 52  1  0  0  0
 51125  1  0  0  0
 51126  1  0  0  0
 52127  1  0  0  0
 52128  1  0  0  0
 53 54  1  0  0  0
 54 55  2  0  0  0
 54129  1  0  0  0
 55 57  1  0  0  0
 55130  1  0  0  0
 56 69  2  0  0  0
 57 58  2  0  0  0
 57131  1  0  0  0
 58132  1  0  0  0
 59 60  1  0  0  0
 59 61  1  0  0  0
 59 62  1  0  0  0
 60133  1  0  0  0
 60134  1  0  0  0
 60135  1  0  0  0
 61136  1  0  0  0
 61137  1  0  0  0
 61138  1  0  0  0
 62139  1  0  0  0
 62140  1  0  0  0
 62141  1  0  0  0
 63 65  1  0  0  0
 63142  1  0  0  0
 63143  1  0  0  0
 63144  1  0  0  0
 64145  1  0  0  0
 65146  1  0  0  0
 68 77  1  0  0  0
 71 84  1  0  0  0
 71 87  2  0  0  0
 71 76  1  0  0  0
 72 76  1  0  0  0
 72 77  1  0  0  0
 72147  1  0  0  0
 72148  1  0  0  0
 73 74  1  0  0  0
 73 84  1  0  0  0
 73149  1  0  0  0
 73150  1  0  0  0
 74 85  1  0  0  0
 74151  1  0  0  0
 74152  1  0  0  0
 75 78  1  0  0  0
 75 85  1  0  0  0
 75153  1  0  0  0
 75154  1  0  0  0
 76 77  1  0  0  0
 76155  1  0  0  0
 77156  1  0  0  0
 78 81  1  0  0  0
 78 84  1  0  0  0
 78157  1  0  0  0
 79158  1  0  0  0
 79159  1  0  0  0
 79160  1  0  0  0
 79 83  1  0  0  0
 80 83  1  0  0  0
 80161  1  0  0  0
 80162  1  0  0  0
 80163  1  0  0  0
 81 82  1  0  0  0
 81164  1  0  0  0
 81165  1  0  0  0
 82 86  1  0  0  0
 82166  1  0  0  0
 82167  1  0  0  0
 83 86  1  0  0  0
 83168  1  0  0  0
 86169  1  0  0  0
 86170  1  0  0  0
M  CHG  1  86   1
M  ISO  4   1 100  68 101  77 101  85 100
M  END
> <chiral flag>
0

> <version>
0

> <s_m_source_file>
/data/baiqing/PycharmProjects/Reinvent-master-3.2/result/LINK_invent/BTK/process_docking_weight1_custom_sum_contain_oxygen_bond_distance_aromatic_linkinvent_7_9_3/rearranged_h_0199.sdf

> <i_m_source_file_index>
50

> <r_mmod_Potential_Energy-OPLS-2005>
1135.3671875

> <r_mmod_Stretch_Energy-OPLS-2005>
445.523651123047

> <r_mmod_Bend_Energy-OPLS-2005>
444.5146484375

> <r_mmod_Torsional_Energy-OPLS-2005>
447.963806152344

> <r_mmod_Improper_Torsional_Energy-OPLS-2005>
19.7449703216553

> <r_mmod_Van_der_Waal_Energy-OPLS-2005>
119.647148132324

> <r_mmod_Electrostatic_Energy-OPLS-2005>
-258.294616699219

> <r_mmod_Solvation_Energy-OPLS-2005>
-433.353668212891

> <b_mmod_Minimization_Converged-OPLS-2005>
0

> <r_mmod_RMS_Derivative-OPLS-2005>
1.6359897851944

$$$$
50
                    3D
 Structure written by MMmdl.
162170  0  0  1  0            999 V2000
  -30.6061  -14.4742   20.5323 C   0  0  0  0  0  0
  -30.4309  -12.2974   19.4138 C   0  0  0  0  0  0
  -29.4886  -12.4962   18.1930 C   0  0  0  0  0  0
  -28.0077  -12.3347   18.6188 C   0  0  0  0  0  0
  -27.6569  -13.1639   19.8787 C   0  0  2  0  0  0
  -28.7062  -12.9002   20.9916 C   0  0  0  0  0  0
  -25.2624  -13.8097   20.5756 C   0  0  0  0  0  0
  -24.1841  -13.0477   20.9190 C   0  0  0  0  0  0
  -24.6311  -11.6892   20.8763 C   0  0  0  0  0  0
  -23.8989  -10.4320   21.0423 C   0  0  0  0  0  0
  -24.3549   -9.4241   21.9209 C   0  0  0  0  0  0
  -23.6265   -8.2252   22.0755 C   0  0  0  0  0  0
  -22.4267   -8.0253   21.3545 C   0  0  0  0  0  0
  -21.9881   -9.0220   20.4656 C   0  0  0  0  0  0
  -22.7164  -10.2128   20.3097 C   0  0  0  0  0  0
  -21.6823   -6.0694   22.5259 C   0  0  0  0  0  0
  -21.4015   -6.5629   23.8182 C   0  0  0  0  0  0
  -21.3667   -5.6806   24.9153 C   0  0  0  0  0  0
  -21.6040   -4.3059   24.7229 C   0  0  0  0  0  0
  -21.8826   -3.8137   23.4354 C   0  0  0  0  0  0
  -21.9198   -4.6928   22.3398 C   0  0  0  0  0  0
  -22.7916  -13.5312   21.1860 C   0  0  0  0  0  0
  -22.1669   -4.2125   21.0964 F   0  0  0  0  0  0
  -21.5621   -3.4540   25.7733 F   0  0  0  0  0  0
  -30.0266  -13.2430   20.4540 N   0  0  0  0  0  0
  -26.2977  -12.9186   20.3435 N   0  0  0  0  0  0
  -25.9208  -11.6395   20.5801 N   0  0  0  0  0  0
  -22.0510  -12.8315   22.0351 N   0  0  0  0  0  0
  -25.4468  -15.1792   20.3950 N   0  0  0  0  0  0
  -31.7540  -14.7117   20.1647 O   0  0  0  0  0  0
  -21.6653   -6.8826   21.4229 O   0  0  0  0  0  0
  -22.3605  -14.5576   20.6560 O   0  0  0  0  0  0
  -24.6138  -31.8705   23.2280 C   0  0  0  0  0  0
  -25.9013  -32.4886   23.8505 C   0  0  1  0  0  0
  -27.1934  -27.4342   20.0925 C   0  0  0  0  0  0
  -25.5870  -33.8681   24.2429 N   0  0  0  0  0  0
  -23.3901  -30.5020   21.5695 C   0  0  2  0  0  0
  -24.8186  -28.9970   20.0885 C   0  0  0  0  0  0
  -22.7338  -29.4696   22.5121 C   0  0  0  0  0  0
  -18.0234  -28.1185   22.8284 C   0  0  0  0  0  0
  -24.1436  -36.7377   23.2634 C   0  0  0  0  0  0
  -25.9187  -30.8473   21.3679 C   0  0  0  0  0  0
  -25.9814  -29.4885   20.6893 C   0  0  0  0  0  0
  -27.1687  -28.7149   20.6989 C   0  0  0  0  0  0
  -26.0417  -27.0085   19.4011 C   0  0  0  0  0  0
  -24.8450  -27.7485   19.4353 C   0  0  0  0  0  0
  -23.5746  -29.8586   20.1690 C   0  0  0  0  0  0
  -25.4069  -36.3190   24.0359 C   0  0  1  0  0  0
  -20.5888  -28.3485   23.1364 C   0  0  2  0  0  0
  -20.6864  -26.9284   22.5460 C   0  0  0  0  0  0
  -19.5817  -26.6254   21.5204 C   0  0  0  0  0  0
  -18.1861  -26.7656   22.1477 C   0  0  0  0  0  0
  -19.1533  -28.8628   23.2786 C   0  0  0  0  0  0
  -18.9625  -30.1282   23.8720 C   0  0  0  0  0  0
  -17.6516  -30.6315   24.0409 C   0  0  0  0  0  0
  -25.9029  -34.9514   23.5222 C   0  0  0  0  0  0
  -16.5418  -29.8843   23.6239 C   0  0  0  0  0  0
  -16.7289  -28.6370   23.0051 C   0  0  0  0  0  0
  -26.4424  -31.6706   25.0856 C   0  0  0  0  0  0
  -25.3778  -31.3719   26.1711 C   0  0  0  0  0  0
  -27.0198  -30.3147   24.6196 C   0  0  0  0  0  0
  -27.6026  -32.4434   25.7626 C   0  0  0  0  0  0
  -27.5556  -37.1840   24.8461 C   0  0  0  0  0  0
  -21.4125  -29.2899   22.3757 N   0  0  0  0  0  0
  -26.4257  -37.3868   23.9447 N   0  0  0  0  0  0
  -24.6595  -31.0808   22.1114 N   0  0  0  0  0  0
  -23.4074  -28.8286   23.3226 O   0  0  0  0  0  0
  -28.3325  -26.6660   20.2301 O   0  0  0  0  0  0
  -26.5569  -34.8945   22.4775 O   0  0  0  0  0  0
  -23.5347  -32.1483   23.7653 O   0  0  0  0  0  0
  -28.4905  -20.7015   22.4583 C   0  0  0  0  0  0
  -29.5419  -19.6235   22.1445 C   0  0  0  0  0  0
  -27.6522  -19.9838   21.3907 C   0  0  1  0  0  0
  -27.8097  -20.3595   19.8850 C   0  0  0  0  0  0
  -29.8021  -16.8984   20.8831 C   0  0  0  0  0  0
  -28.3934  -17.5180   21.1546 C   0  0  0  0  0  0
  -27.1963  -21.7322   19.5505 C   0  0  0  0  0  0
  -27.4907  -24.1861   20.0505 C   0  0  0  0  0  0
  -28.4544  -25.3457   19.6595 C   0  0  0  0  0  0
  -29.7011  -15.4381   20.8035 N   0  0  0  0  0  0
  -28.3691  -18.7950   21.9014 N   0  3  2  0  0  0
  -28.1306  -22.8567   19.8337 N   0  3  0  0  0  0
  -31.4724  -12.4423   19.1313 H   0  0  0  0  0  0
  -30.3483  -11.2778   19.7979 H   0  0  0  0  0  0
  -29.7182  -11.7649   17.4082 H   0  0  0  0  0  0
  -29.6481  -13.4868   17.7546 H   0  0  0  0  0  0
  -27.8360  -11.2750   18.8321 H   0  0  0  0  0  0
  -27.3439  -12.6162   17.8003 H   0  0  0  0  0  0
  -27.7077  -14.2074   19.5674 H   0  0  0  0  0  0
  -28.7132  -11.8483   21.2795 H   0  0  0  0  0  0
  -28.4693  -13.4456   21.9066 H   0  0  0  0  0  0
  -25.2664   -9.5709   22.4810 H   0  0  0  0  0  0
  -23.9950   -7.4646   22.7484 H   0  0  0  0  0  0
  -21.0798   -8.8694   19.8976 H   0  0  0  0  0  0
  -22.3559  -10.9652   19.6213 H   0  0  0  0  0  0
  -21.2011   -7.6141   23.9668 H   0  0  0  0  0  0
  -21.1493   -6.0533   25.9040 H   0  0  0  0  0  0
  -22.0602   -2.7607   23.2852 H   0  0  0  0  0  0
  -22.4093  -11.9923   22.4708 H   0  0  0  0  0  0
  -21.1131  -13.1354   22.2564 H   0  0  0  0  0  0
  -24.6143  -15.7541   20.3392 H   0  0  0  0  0  0
  -26.1591  -15.4890   19.7492 H   0  0  0  0  0  0
  -26.7126  -32.5507   23.1316 H   0  0  0  0  0  0
  -25.0003  -33.9904   25.0553 H   0  0  0  0  0  0
  -22.6824  -31.3294   21.4577 H   0  0  0  0  0  0
  -23.3721  -35.9683   23.3343 H   0  0  0  0  0  0
  -24.3509  -36.8959   22.2030 H   0  0  0  0  0  0
  -23.7150  -37.6577   23.6641 H   0  0  0  0  0  0
  -26.0438  -31.6414   20.6280 H   0  0  0  0  0  0
  -26.7970  -30.8629   21.9973 H   0  0  0  0  0  0
  -28.0385  -29.0956   21.2071 H   0  0  0  0  0  0
  -26.0320  -26.1112   18.8060 H   0  0  0  0  0  0
  -23.9705  -27.3522   18.9429 H   0  0  0  0  0  0
  -23.6792  -30.6764   19.4540 H   0  0  0  0  0  0
  -22.6811  -29.3128   19.8569 H   0  0  0  0  0  0
  -25.1206  -36.2094   25.0835 H   0  0  0  0  0  0
  -20.9737  -28.3084   24.1608 H   0  0  0  0  0  0
  -20.5904  -26.2402   23.3819 H   0  0  0  0  0  0
  -21.6772  -26.7084   22.1309 H   0  0  0  0  0  0
  -19.7204  -25.6205   21.1169 H   0  0  0  0  0  0
  -19.6791  -27.3027   20.6676 H   0  0  0  0  0  0
  -17.4241  -26.6689   21.3641 H   0  0  0  0  0  0
  -17.9888  -25.9590   22.8653 H   0  0  0  0  0  0
  -19.8072  -30.7199   24.1953 H   0  0  0  0  0  0
  -17.4985  -31.5914   24.5183 H   0  0  0  0  0  0
  -15.5473  -30.2730   23.7670 H   0  0  0  0  0  0
  -15.8650  -28.0815   22.6619 H   0  0  0  0  0  0
  -24.5978  -30.7000   25.8136 H   0  0  0  0  0  0
  -24.8944  -32.2794   26.5337 H   0  0  0  0  0  0
  -25.8227  -30.8860   27.0428 H   0  0  0  0  0  0
  -26.2651  -29.7052   24.1225 H   0  0  0  0  0  0
  -27.3899  -29.7259   25.4604 H   0  0  0  0  0  0
  -27.8564  -30.4517   23.9352 H   0  0  0  0  0  0
  -27.2676  -33.3752   26.2279 H   0  0  0  0  0  0
  -28.3822  -32.7052   25.0426 H   0  0  0  0  0  0
  -28.0825  -31.8591   26.5544 H   0  0  0  0  0  0
  -28.2590  -38.0118   24.7519 H   0  0  0  0  0  0
  -28.1024  -36.2646   24.6277 H   0  0  0  0  0  0
  -27.2300  -37.1508   25.8869 H   0  0  0  0  0  0
  -20.9010  -29.8246   21.6859 H   0  0  0  0  0  0
  -26.0173  -38.2934   24.1522 H   0  0  0  0  0  0
  -28.7509  -21.7399   22.2506 H   0  0  0  0  0  0
  -28.0659  -20.6042   23.4691 H   0  0  0  0  0  0
  -30.1236  -19.2801   23.0014 H   0  0  0  0  0  0
  -30.1681  -19.7902   21.2560 H   0  0  0  0  0  0
  -26.6051  -19.9307   21.6837 H   0  0  0  0  0  0
  -28.8535  -20.3881   19.5586 H   0  0  0  0  0  0
  -27.3048  -19.6214   19.2539 H   0  0  0  0  0  0
  -30.2661  -17.3602   19.9882 H   0  0  0  0  0  0
  -30.4471  -17.0448   21.7540 H   0  0  0  0  0  0
  -27.8207  -16.8723   21.8310 H   0  0  0  0  0  0
  -27.7948  -17.6107   20.2479 H   0  0  0  0  0  0
  -26.2561  -21.8301   20.0985 H   0  0  0  0  0  0
  -26.9332  -21.7696   18.4840 H   0  0  0  0  0  0
  -26.5736  -24.2330   19.4605 H   0  0  0  0  0  0
  -27.1911  -24.2287   21.0997 H   0  0  0  0  0  0
  -28.4977  -25.4473   18.5748 H   0  0  0  0  0  0
  -29.4500  -25.0336   19.9871 H   0  0  0  0  0  0
  -28.7965  -15.0748   21.0453 H   0  0  0  0  0  0
  -28.0021  -18.5439   22.8153 H   0  0  0  0  0  0
  -28.7738  -22.9469   19.0599 H   0  0  0  0  0  0
  -28.6791  -22.6453   20.6561 H   0  0  0  0  0  0
  1 25  1  0  0  0
  1 30  2  0  0  0
  1 80  1  0  0  0
  2  3  1  0  0  0
  2 25  1  0  0  0
  2 83  1  0  0  0
  2 84  1  0  0  0
  3  4  1  0  0  0
  3 85  1  0  0  0
  3 86  1  0  0  0
  4  5  1  0  0  0
  4 87  1  0  0  0
  4 88  1  0  0  0
  5  6  1  0  0  0
  5 26  1  0  0  0
  5 89  1  0  0  0
  6 25  1  0  0  0
  6 90  1  0  0  0
  6 91  1  0  0  0
  7  8  2  0  0  0
  7 26  1  0  0  0
  7 29  1  0  0  0
  8  9  1  0  0  0
  8 22  1  0  0  0
  9 10  1  0  0  0
  9 27  2  0  0  0
 10 11  2  0  0  0
 10 15  1  0  0  0
 11 12  1  0  0  0
 11 92  1  0  0  0
 12 13  2  0  0  0
 12 93  1  0  0  0
 13 14  1  0  0  0
 13 31  1  0  0  0
 14 15  2  0  0  0
 14 94  1  0  0  0
 15 95  1  0  0  0
 16 17  2  0  0  0
 16 21  1  0  0  0
 16 31  1  0  0  0
 17 18  1  0  0  0
 17 96  1  0  0  0
 18 19  2  0  0  0
 18 97  1  0  0  0
 19 20  1  0  0  0
 19 24  1  0  0  0
 20 21  2  0  0  0
 20 98  1  0  0  0
 21 23  1  0  0  0
 22 28  1  0  0  0
 22 32  2  0  0  0
 26 27  1  0  0  0
 28 99  1  0  0  0
 28100  1  0  0  0
 29101  1  0  0  0
 29102  1  0  0  0
 33 34  1  0  0  0
 33 66  1  0  0  0
 33 70  2  0  0  0
 34 36  1  0  0  0
 34 59  1  0  0  0
 34103  1  0  0  0
 35 44  2  0  0  0
 35 45  1  0  0  0
 35 68  1  0  0  0
 36 56  1  0  0  0
 36104  1  0  0  0
 37 39  1  0  0  0
 37 47  1  0  0  0
 37 66  1  0  0  0
 37105  1  0  0  0
 38 43  2  0  0  0
 38 46  1  0  0  0
 38 47  1  0  0  0
 39 64  1  0  0  0
 39 67  2  0  0  0
 40 52  1  0  0  0
 40 53  2  0  0  0
 40 58  1  0  0  0
 41106  1  0  0  0
 41107  1  0  0  0
 41108  1  0  0  0
 41 48  1  0  0  0
 42 43  1  0  0  0
 42 66  1  0  0  0
 42109  1  0  0  0
 42110  1  0  0  0
 43 44  1  0  0  0
 44111  1  0  0  0
 45 46  2  0  0  0
 45112  1  0  0  0
 46113  1  0  0  0
 47114  1  0  0  0
 47115  1  0  0  0
 48 56  1  0  0  0
 48 65  1  0  0  0
 48116  1  0  0  0
 49 50  1  0  0  0
 49 53  1  0  0  0
 49 64  1  0  0  0
 49117  1  0  0  0
 50 51  1  0  0  0
 50118  1  0  0  0
 50119  1  0  0  0
 51 52  1  0  0  0
 51120  1  0  0  0
 51121  1  0  0  0
 52122  1  0  0  0
 52123  1  0  0  0
 53 54  1  0  0  0
 54 55  2  0  0  0
 54124  1  0  0  0
 55 57  1  0  0  0
 55125  1  0  0  0
 56 69  2  0  0  0
 57 58  2  0  0  0
 57126  1  0  0  0
 58127  1  0  0  0
 59 60  1  0  0  0
 59 61  1  0  0  0
 59 62  1  0  0  0
 60128  1  0  0  0
 60129  1  0  0  0
 60130  1  0  0  0
 61131  1  0  0  0
 61132  1  0  0  0
 61133  1  0  0  0
 62134  1  0  0  0
 62135  1  0  0  0
 62136  1  0  0  0
 63 65  1  0  0  0
 63137  1  0  0  0
 63138  1  0  0  0
 63139  1  0  0  0
 64140  1  0  0  0
 65141  1  0  0  0
 68 79  1  0  0  0
 71 72  1  0  0  0
 71 73  1  0  0  0
 71142  1  0  0  0
 71143  1  0  0  0
 72 81  1  0  0  0
 72144  1  0  0  0
 72145  1  0  0  0
 73 74  1  0  0  0
 73 81  1  0  0  0
 73146  1  0  0  0
 74 77  1  0  0  0
 74147  1  0  0  0
 74148  1  0  0  0
 75 76  1  0  0  0
 75 80  1  0  0  0
 75149  1  0  0  0
 75150  1  0  0  0
 76151  1  0  0  0
 76152  1  0  0  0
 76 81  1  0  0  0
 77 82  1  0  0  0
 77153  1  0  0  0
 77154  1  0  0  0
 78 79  1  0  0  0
 78 82  1  0  0  0
 78155  1  0  0  0
 78156  1  0  0  0
 79157  1  0  0  0
 79158  1  0  0  0
 80159  1  0  0  0
 81160  1  0  0  0
 82161  1  0  0  0
 82162  1  0  0  0
M  CHG  2  81   1  82   1
M  ISO  4   1 100  68 101  79 101  80 100
M  END
> <chiral flag>
0

> <version>
0

> <s_m_source_file>
/data/baiqing/PycharmProjects/Reinvent-master-3.2/result/LINK_invent/BTK/process_docking_weight1_custom_sum_contain_oxygen_bond_distance_aromatic_linkinvent_7_9_3/rearranged_h_0199.sdf

> <i_m_source_file_index>
51

> <r_mmod_Potential_Energy-OPLS-2005>
-200.423538208008

> <r_mmod_Stretch_Energy-OPLS-2005>
41.3564682006836

> <r_mmod_Bend_Energy-OPLS-2005>
177.689422607422

> <r_mmod_Torsional_Energy-OPLS-2005>
266.998565673828

> <r_mmod_Improper_Torsional_Energy-OPLS-2005>
10.0354671478271

> <r_mmod_Van_der_Waal_Energy-OPLS-2005>
136.273635864258

> <r_mmod_Electrostatic_Energy-OPLS-2005>
131.103988647461

> <r_mmod_Solvation_Energy-OPLS-2005>
-990.185180664062

> <b_mmod_Minimization_Converged-OPLS-2005>
0

> <r_mmod_RMS_Derivative-OPLS-2005>
19.4163970947266

$$$$
51
                    3D
 Structure written by MMmdl.
171181  0  0  1  0            999 V2000
  -30.6149  -14.5972   20.5075 C   0  0  0  0  0  0
  -30.4354  -12.3770   19.4074 C   0  0  0  0  0  0
  -29.4949  -12.5167   18.1894 C   0  0  0  0  0  0
  -28.0130  -12.3854   18.6030 C   0  0  0  0  0  0
  -27.6557  -13.2116   19.8692 C   0  0  2  0  0  0
  -28.7067  -13.0263   20.9822 C   0  0  0  0  0  0
  -25.2601  -13.8122   20.5679 C   0  0  0  0  0  0
  -24.1911  -13.0444   20.9227 C   0  0  0  0  0  0
  -24.6455  -11.6893   20.8852 C   0  0  0  0  0  0
  -23.9146  -10.4273   21.0482 C   0  0  0  0  0  0
  -24.3668   -9.4159   21.9240 C   0  0  0  0  0  0
  -23.6275   -8.2227   22.0824 C   0  0  0  0  0  0
  -22.4245   -8.0336   21.3597 C   0  0  0  0  0  0
  -21.9957   -9.0343   20.4703 C   0  0  0  0  0  0
  -22.7326  -10.2192   20.3092 C   0  0  0  0  0  0
  -21.6808   -6.0794   22.5296 C   0  0  0  0  0  0
  -21.3930   -6.5681   23.8237 C   0  0  0  0  0  0
  -21.3622   -5.6845   24.9217 C   0  0  0  0  0  0
  -21.6023   -4.3105   24.7274 C   0  0  0  0  0  0
  -21.8829   -3.8208   23.4400 C   0  0  0  0  0  0
  -21.9194   -4.7013   22.3445 C   0  0  0  0  0  0
  -22.7911  -13.5231   21.1898 C   0  0  0  0  0  0
  -22.1666   -4.2177   21.1032 F   0  0  0  0  0  0
  -21.5676   -3.4597   25.7781 F   0  0  0  0  0  0
  -30.0069  -13.3798   20.3987 N   0  0  0  0  0  0
  -26.3021  -12.9290   20.3373 N   0  0  0  0  0  0
  -25.9378  -11.6457   20.5877 N   0  0  0  0  0  0
  -22.0550  -12.8192   22.0385 N   0  0  0  0  0  0
  -25.4388  -15.1833   20.3894 N   0  0  0  0  0  0
  -31.7927  -14.7711   20.1909 O   0  0  0  0  0  0
  -21.6568   -6.8933   21.4272 O   0  0  0  0  0  0
  -22.3634  -14.5609   20.6807 O   0  0  0  0  0  0
  -24.6265  -31.8643   23.2044 C   0  0  0  0  0  0
  -25.9151  -32.4779   23.8353 C   0  0  1  0  0  0
  -27.2221  -27.3506   20.0578 C   0  0  0  0  0  0
  -25.6028  -33.8590   24.2345 N   0  0  0  0  0  0
  -23.4109  -30.4954   21.5542 C   0  0  2  0  0  0
  -24.8478  -28.9623   20.1189 C   0  0  0  0  0  0
  -22.7430  -29.4689   22.4988 C   0  0  0  0  0  0
  -18.0281  -28.1356   22.8499 C   0  0  0  0  0  0
  -24.1508  -36.7253   23.2630 C   0  0  0  0  0  0
  -25.9551  -30.8086   21.3655 C   0  0  0  0  0  0
  -26.0263  -29.4384   20.7029 C   0  0  0  0  0  0
  -27.2132  -28.6435   20.6687 C   0  0  0  0  0  0
  -25.9847  -26.9031   19.5261 C   0  0  0  0  0  0
  -24.8295  -27.6910   19.5354 C   0  0  0  0  0  0
  -23.6123  -29.8311   20.1691 C   0  0  0  0  0  0
  -25.4136  -36.3073   24.0338 C   0  0  1  0  0  0
  -20.5884  -28.3680   23.1296 C   0  0  2  0  0  0
  -20.6784  -26.9414   22.5383 C   0  0  0  0  0  0
  -19.5756  -26.6405   21.5175 C   0  0  0  0  0  0
  -18.1944  -26.7927   22.1598 C   0  0  0  0  0  0
  -19.1527  -28.8829   23.2892 C   0  0  0  0  0  0
  -18.9433  -30.1436   23.8902 C   0  0  0  0  0  0
  -17.6432  -30.6575   24.0541 C   0  0  0  0  0  0
  -25.9081  -34.9454   23.5127 C   0  0  0  0  0  0
  -16.5326  -29.9044   23.6350 C   0  0  0  0  0  0
  -16.7263  -28.6442   23.0402 C   0  0  0  0  0  0
  -26.4562  -31.6525   25.0662 C   0  0  0  0  0  0
  -25.3850  -31.3490   26.1367 C   0  0  0  0  0  0
  -27.0417  -30.3004   24.6016 C   0  0  0  0  0  0
  -27.6161  -32.4187   25.7468 C   0  0  0  0  0  0
  -27.5588  -37.1773   24.8472 C   0  0  0  0  0  0
  -21.4154  -29.3061   22.3694 N   0  0  0  0  0  0
  -26.4312  -37.3785   23.9413 N   0  0  0  0  0  0
  -24.6857  -31.0683   22.0988 N   0  0  0  0  0  0
  -23.4165  -28.8240   23.3066 O   0  0  0  0  0  0
  -28.3842  -26.5638   19.9915 O   0  0  0  0  0  0
  -26.5593  -34.8923   22.4660 O   0  0  0  0  0  0
  -23.5437  -32.1442   23.7405 O   0  0  0  0  0  0
  -31.1735  -20.2888   20.2565 C   0  0  0  0  0  0
  -28.7923  -18.9777   20.2344 C   0  0  0  0  0  0
  -30.0398  -20.9306   19.7140 C   0  0  0  0  0  0
  -29.9938  -18.3224   20.7012 C   0  0  0  0  0  0
  -26.2335  -18.4817   19.4454 C   0  0  0  0  0  0
  -25.3396  -18.7052   20.6676 C   0  0  0  0  0  0
  -28.6966  -23.9788   20.2320 C   0  0  0  0  0  0
  -29.5304  -24.7335   18.5443 C   0  0  0  0  0  0
  -27.3979  -18.3427   20.4345 C   0  0  2  0  0  0
  -28.3315  -25.2218   19.3739 C   0  0  2  0  0  0
  -25.4150  -18.7570   23.7428 C   0  0  0  0  0  0
  -30.1540  -16.9443   21.4356 C   0  0  0  0  0  0
  -30.2846  -22.3511   19.0961 C   0  0  0  0  0  0
  -26.5969  -18.3923   22.8174 C   0  0  0  0  0  0
  -31.1573  -19.0176   20.7131 N   0  0  0  0  0  0
  -28.8319  -20.2651   19.7156 N   0  0  0  0  0  0
  -29.7875  -15.6338   20.8278 N   0  0  0  0  0  0
  -29.1828  -23.3550   18.9928 N   0  3  1  0  0  0
  -26.5421  -18.9896   21.4541 N   0  3  2  0  0  0
  -31.4733  -12.5107   19.1041 H   0  0  0  0  0  0
  -30.3846  -11.3774   19.8393 H   0  0  0  0  0  0
  -29.7265  -11.7682   17.4289 H   0  0  0  0  0  0
  -29.6473  -13.4854   17.7095 H   0  0  0  0  0  0
  -27.7937  -11.3318   18.7635 H   0  0  0  0  0  0
  -27.3755  -12.7028   17.7753 H   0  0  0  0  0  0
  -27.6869  -14.2548   19.5619 H   0  0  0  0  0  0
  -28.7190  -11.9914   21.3364 H   0  0  0  0  0  0
  -28.4727  -13.6434   21.8521 H   0  0  0  0  0  0
  -25.2860   -9.5564   22.4762 H   0  0  0  0  0  0
  -24.0001   -7.4579   22.7501 H   0  0  0  0  0  0
  -21.0930   -8.8855   19.8956 H   0  0  0  0  0  0
  -22.3857  -10.9740   19.6180 H   0  0  0  0  0  0
  -21.1787   -7.6171   23.9723 H   0  0  0  0  0  0
  -21.1427   -6.0598   25.9128 H   0  0  0  0  0  0
  -22.0624   -2.7662   23.2899 H   0  0  0  0  0  0
  -22.4145  -11.9818   22.4684 H   0  0  0  0  0  0
  -21.1192  -13.1249   22.2649 H   0  0  0  0  0  0
  -24.6154  -15.7738   20.3428 H   0  0  0  0  0  0
  -26.1922  -15.5101   19.8016 H   0  0  0  0  0  0
  -26.7234  -32.5484   23.1114 H   0  0  0  0  0  0
  -25.0211  -33.9767   25.0498 H   0  0  0  0  0  0
  -22.7054  -31.3191   21.4157 H   0  0  0  0  0  0
  -23.3819  -35.9538   23.3253 H   0  0  0  0  0  0
  -24.3613  -36.8919   22.2059 H   0  0  0  0  0  0
  -23.7203  -37.6423   23.6671 H   0  0  0  0  0  0
  -26.0719  -31.5786   20.6005 H   0  0  0  0  0  0
  -26.8438  -30.8628   21.9815 H   0  0  0  0  0  0
  -28.1215  -29.0230   21.1199 H   0  0  0  0  0  0
  -25.8118  -25.9345   19.0961 H   0  0  0  0  0  0
  -23.9250  -27.2908   19.1020 H   0  0  0  0  0  0
  -23.7062  -30.6054   19.4073 H   0  0  0  0  0  0
  -22.7358  -29.2482   19.8757 H   0  0  0  0  0  0
  -25.1304  -36.1953   25.0832 H   0  0  0  0  0  0
  -20.9966  -28.3258   24.1419 H   0  0  0  0  0  0
  -20.5701  -26.2280   23.3565 H   0  0  0  0  0  0
  -21.6651  -26.7482   22.1175 H   0  0  0  0  0  0
  -19.6934  -25.6324   21.1188 H   0  0  0  0  0  0
  -19.6688  -27.3228   20.6726 H   0  0  0  0  0  0
  -17.4208  -26.6703   21.3996 H   0  0  0  0  0  0
  -18.0315  -26.0055   22.8960 H   0  0  0  0  0  0
  -19.7898  -30.7250   24.2293 H   0  0  0  0  0  0
  -17.4978  -31.6285   24.5047 H   0  0  0  0  0  0
  -15.5323  -30.2912   23.7677 H   0  0  0  0  0  0
  -15.8676  -28.0712   22.7182 H   0  0  0  0  0  0
  -24.6102  -30.6800   25.7587 H   0  0  0  0  0  0
  -24.8915  -32.2540   26.4899 H   0  0  0  0  0  0
  -25.8227  -30.8554   27.0052 H   0  0  0  0  0  0
  -26.2913  -29.6707   24.1209 H   0  0  0  0  0  0
  -27.4366  -29.7284   25.4417 H   0  0  0  0  0  0
  -27.8681  -30.4323   23.9037 H   0  0  0  0  0  0
  -27.2849  -33.3491   26.2084 H   0  0  0  0  0  0
  -28.3984  -32.6718   25.0300 H   0  0  0  0  0  0
  -28.0823  -31.8244   26.5339 H   0  0  0  0  0  0
  -28.2569  -38.0103   24.7602 H   0  0  0  0  0  0
  -28.1135  -36.2640   24.6240 H   0  0  0  0  0  0
  -27.2284  -37.1322   25.8864 H   0  0  0  0  0  0
  -20.9310  -29.8772   21.6908 H   0  0  0  0  0  0
  -26.0193  -38.2864   24.1463 H   0  0  0  0  0  0
  -32.1219  -20.7990   20.3129 H   0  0  0  0  0  0
  -26.2779  -19.3654   18.8061 H   0  0  0  0  0  0
  -26.0014  -17.5828   18.8703 H   0  0  0  0  0  0
  -24.8133  -17.8115   21.0078 H   0  0  0  0  0  0
  -24.6569  -19.5511   20.5853 H   0  0  0  0  0  0
  -27.8663  -23.4334   20.6788 H   0  0  0  0  0  0
  -29.5121  -24.1356   20.9483 H   0  0  0  0  0  0
  -30.4861  -25.1157   18.9160 H   0  0  0  0  0  0
  -29.4367  -24.9255   17.4694 H   0  0  0  0  0  0
  -27.5058  -17.2805   20.6631 H   0  0  0  0  0  0
  -27.4802  -25.0337   18.7304 H   0  0  0  0  0  0
  -25.6041  -18.3876   24.7517 H   0  0  0  0  0  0
  -24.4814  -18.2924   23.4135 H   0  0  0  0  0  0
  -25.2553  -19.8329   23.8118 H   0  0  0  0  0  0
  -29.6196  -17.0185   22.3856 H   0  0  0  0  0  0
  -31.2037  -16.8580   21.7355 H   0  0  0  0  0  0
  -30.7353  -22.2192   18.1075 H   0  0  0  0  0  0
  -31.0677  -22.8260   19.6907 H   0  0  0  0  0  0
  -26.6409  -17.3060   22.7502 H   0  0  0  0  0  0
  -27.5286  -18.7088   23.2865 H   0  0  0  0  0  0
  -28.8254  -15.3663   20.9415 H   0  0  0  0  0  0
  -28.4175  -22.9815   18.4525 H   0  0  0  0  0  0
  -26.7086  -19.9864   21.4604 H   0  0  0  0  0  0
  1 25  1  0  0  0
  1 30  2  0  0  0
  1 87  1  0  0  0
  2  3  1  0  0  0
  2 25  1  0  0  0
  2 90  1  0  0  0
  2 91  1  0  0  0
  3  4  1  0  0  0
  3 92  1  0  0  0
  3 93  1  0  0  0
  4  5  1  0  0  0
  4 94  1  0  0  0
  4 95  1  0  0  0
  5  6  1  0  0  0
  5 26  1  0  0  0
  5 96  1  0  0  0
  6 25  1  0  0  0
  6 97  1  0  0  0
  6 98  1  0  0  0
  7  8  2  0  0  0
  7 26  1  0  0  0
  7 29  1  0  0  0
  8  9  1  0  0  0
  8 22  1  0  0  0
  9 10  1  0  0  0
  9 27  2  0  0  0
 10 11  2  0  0  0
 10 15  1  0  0  0
 11 12  1  0  0  0
 11 99  1  0  0  0
 12 13  2  0  0  0
 12100  1  0  0  0
 13 14  1  0  0  0
 13 31  1  0  0  0
 14 15  2  0  0  0
 14101  1  0  0  0
 15102  1  0  0  0
 16 17  2  0  0  0
 16 21  1  0  0  0
 16 31  1  0  0  0
 17 18  1  0  0  0
 17103  1  0  0  0
 18 19  2  0  0  0
 18104  1  0  0  0
 19 20  1  0  0  0
 19 24  1  0  0  0
 20 21  2  0  0  0
 20105  1  0  0  0
 21 23  1  0  0  0
 22 28  1  0  0  0
 22 32  2  0  0  0
 26 27  1  0  0  0
 28106  1  0  0  0
 28107  1  0  0  0
 29108  1  0  0  0
 29109  1  0  0  0
 33 34  1  0  0  0
 33 66  1  0  0  0
 33 70  2  0  0  0
 34 36  1  0  0  0
 34 59  1  0  0  0
 34110  1  0  0  0
 35 44  2  0  0  0
 35 45  1  0  0  0
 35 68  1  0  0  0
 36 56  1  0  0  0
 36111  1  0  0  0
 37 39  1  0  0  0
 37 47  1  0  0  0
 37 66  1  0  0  0
 37112  1  0  0  0
 38 43  2  0  0  0
 38 46  1  0  0  0
 38 47  1  0  0  0
 39 64  1  0  0  0
 39 67  2  0  0  0
 40 52  1  0  0  0
 40 53  2  0  0  0
 40 58  1  0  0  0
 41113  1  0  0  0
 41114  1  0  0  0
 41115  1  0  0  0
 41 48  1  0  0  0
 42 43  1  0  0  0
 42 66  1  0  0  0
 42116  1  0  0  0
 42117  1  0  0  0
 43 44  1  0  0  0
 44118  1  0  0  0
 45 46  2  0  0  0
 45119  1  0  0  0
 46120  1  0  0  0
 47121  1  0  0  0
 47122  1  0  0  0
 48 56  1  0  0  0
 48 65  1  0  0  0
 48123  1  0  0  0
 49 50  1  0  0  0
 49 53  1  0  0  0
 49 64  1  0  0  0
 49124  1  0  0  0
 50 51  1  0  0  0
 50125  1  0  0  0
 50126  1  0  0  0
 51 52  1  0  0  0
 51127  1  0  0  0
 51128  1  0  0  0
 52129  1  0  0  0
 52130  1  0  0  0
 53 54  1  0  0  0
 54 55  2  0  0  0
 54131  1  0  0  0
 55 57  1  0  0  0
 55132  1  0  0  0
 56 69  2  0  0  0
 57 58  2  0  0  0
 57133  1  0  0  0
 58134  1  0  0  0
 59 60  1  0  0  0
 59 61  1  0  0  0
 59 62  1  0  0  0
 60135  1  0  0  0
 60136  1  0  0  0
 60137  1  0  0  0
 61138  1  0  0  0
 61139  1  0  0  0
 61140  1  0  0  0
 62141  1  0  0  0
 62142  1  0  0  0
 62143  1  0  0  0
 63 65  1  0  0  0
 63144  1  0  0  0
 63145  1  0  0  0
 63146  1  0  0  0
 64147  1  0  0  0
 65148  1  0  0  0
 68 80  1  0  0  0
 71 73  2  0  0  0
 71 85  1  0  0  0
 71149  1  0  0  0
 72 74  1  0  0  0
 72 86  2  0  0  0
 72 79  1  0  0  0
 73 83  1  0  0  0
 73 86  1  0  0  0
 74 82  1  0  0  0
 74 85  2  0  0  0
 75 76  1  0  0  0
 75 79  1  0  0  0
 75150  1  0  0  0
 75151  1  0  0  0
 76 89  1  0  0  0
 76152  1  0  0  0
 76153  1  0  0  0
 77 80  1  0  0  0
 77 88  1  0  0  0
 77154  1  0  0  0
 77155  1  0  0  0
 78 80  1  0  0  0
 78 88  1  0  0  0
 78156  1  0  0  0
 78157  1  0  0  0
 79 89  1  0  0  0
 79158  1  0  0  0
 80159  1  0  0  0
 81 84  1  0  0  0
 81160  1  0  0  0
 81161  1  0  0  0
 81162  1  0  0  0
 82 87  1  0  0  0
 82163  1  0  0  0
 82164  1  0  0  0
 83165  1  0  0  0
 83166  1  0  0  0
 83 88  1  0  0  0
 84167  1  0  0  0
 84168  1  0  0  0
 84 89  1  0  0  0
 87169  1  0  0  0
 88170  1  0  0  0
 89171  1  0  0  0
M  CHG  2  88   1  89   1
M  ISO  4   1 100  68 101  80 101  87 100
M  END
> <chiral flag>
0

> <version>
0

> <s_m_source_file>
/data/baiqing/PycharmProjects/Reinvent-master-3.2/result/LINK_invent/BTK/process_docking_weight1_custom_sum_contain_oxygen_bond_distance_aromatic_linkinvent_7_9_3/rearranged_h_0199.sdf

> <i_m_source_file_index>
52

> <r_mmod_Potential_Energy-OPLS-2005>
-313.319030761719

> <r_mmod_Stretch_Energy-OPLS-2005>
79.702880859375

> <r_mmod_Bend_Energy-OPLS-2005>
203.088348388672

> <r_mmod_Torsional_Energy-OPLS-2005>
250.128814697266

> <r_mmod_Improper_Torsional_Energy-OPLS-2005>
8.75838279724121

> <r_mmod_Van_der_Waal_Energy-OPLS-2005>
147.814544677734

> <r_mmod_Electrostatic_Energy-OPLS-2005>
-64.857048034668

> <r_mmod_Solvation_Energy-OPLS-2005>
-973.710205078125

> <b_mmod_Minimization_Converged-OPLS-2005>
0

> <r_mmod_RMS_Derivative-OPLS-2005>
9.09770584106445

$$$$
52
                    3D
 Structure written by MMmdl.
166176  0  0  1  0            999 V2000
  -30.6571  -14.5718   20.4454 C   0  0  0  0  0  0
  -30.4171  -12.3413   19.4270 C   0  0  0  0  0  0
  -29.4856  -12.4807   18.2042 C   0  0  0  0  0  0
  -28.0076  -12.3419   18.6237 C   0  0  0  0  0  0
  -27.6443  -13.2005   19.8655 C   0  0  2  0  0  0
  -28.7002  -13.0731   20.9849 C   0  0  0  0  0  0
  -25.2526  -13.8119   20.5719 C   0  0  0  0  0  0
  -24.1788  -13.0408   20.9230 C   0  0  0  0  0  0
  -24.6350  -11.6868   20.8786 C   0  0  0  0  0  0
  -23.9026  -10.4269   21.0435 C   0  0  0  0  0  0
  -24.3594   -9.4176   21.9198 C   0  0  0  0  0  0
  -23.6276   -8.2216   22.0757 C   0  0  0  0  0  0
  -22.4262   -8.0263   21.3544 C   0  0  0  0  0  0
  -21.9891   -9.0233   20.4650 C   0  0  0  0  0  0
  -22.7215  -10.2107   20.3074 C   0  0  0  0  0  0
  -21.6827   -6.0728   22.5282 C   0  0  0  0  0  0
  -21.3995   -6.5634   23.8221 C   0  0  0  0  0  0
  -21.3668   -5.6786   24.9182 C   0  0  0  0  0  0
  -21.6051   -4.3052   24.7225 C   0  0  0  0  0  0
  -21.8819   -3.8147   23.4343 C   0  0  0  0  0  0
  -21.9169   -4.6958   22.3402 C   0  0  0  0  0  0
  -22.7813  -13.5178   21.1876 C   0  0  0  0  0  0
  -22.1647   -4.2144   21.0976 F   0  0  0  0  0  0
  -21.5647   -3.4547   25.7745 F   0  0  0  0  0  0
  -30.0107  -13.3732   20.3921 N   0  0  0  0  0  0
  -26.2946  -12.9267   20.3414 N   0  0  0  0  0  0
  -25.9280  -11.6431   20.5839 N   0  0  0  0  0  0
  -22.0449  -12.8192   22.0430 N   0  0  0  0  0  0
  -25.4277  -15.1853   20.4142 N   0  0  0  0  0  0
  -31.8585  -14.6834   20.1795 O   0  0  0  0  0  0
  -21.6619   -6.8865   21.4245 O   0  0  0  0  0  0
  -22.3510  -14.5509   20.6731 O   0  0  0  0  0  0
  -24.6186  -31.8672   23.2096 C   0  0  0  0  0  0
  -25.9071  -32.4816   23.8410 C   0  0  1  0  0  0
  -27.2230  -27.3842   20.1311 C   0  0  0  0  0  0
  -25.5908  -33.8623   24.2339 N   0  0  0  0  0  0
  -23.4093  -30.4881   21.5504 C   0  0  2  0  0  0
  -24.8579  -28.9487   20.1174 C   0  0  0  0  0  0
  -22.7451  -29.4647   22.4992 C   0  0  0  0  0  0
  -18.0290  -28.1390   22.8512 C   0  0  0  0  0  0
  -24.1488  -36.7310   23.2646 C   0  0  0  0  0  0
  -25.9419  -30.8177   21.3722 C   0  0  0  0  0  0
  -26.0179  -29.4467   20.7257 C   0  0  0  0  0  0
  -27.2056  -28.6719   20.7290 C   0  0  0  0  0  0
  -26.0583  -26.9360   19.4710 C   0  0  0  0  0  0
  -24.8750  -27.6948   19.4823 C   0  0  0  0  0  0
  -23.6219  -29.8189   20.1664 C   0  0  0  0  0  0
  -25.4101  -36.3105   24.0350 C   0  0  1  0  0  0
  -20.5899  -28.3673   23.1324 C   0  0  2  0  0  0
  -20.6770  -26.9410   22.5434 C   0  0  0  0  0  0
  -19.5747  -26.6403   21.5230 C   0  0  0  0  0  0
  -18.1919  -26.7945   22.1614 C   0  0  0  0  0  0
  -19.1553  -28.8843   23.2923 C   0  0  0  0  0  0
  -18.9471  -30.1445   23.8949 C   0  0  0  0  0  0
  -17.6470  -30.6589   24.0599 C   0  0  0  0  0  0
  -25.9029  -34.9476   23.5131 C   0  0  0  0  0  0
  -16.5360  -29.9093   23.6354 C   0  0  0  0  0  0
  -16.7275  -28.6517   23.0359 C   0  0  0  0  0  0
  -26.4482  -31.6580   25.0738 C   0  0  0  0  0  0
  -25.3749  -31.3702   26.1484 C   0  0  0  0  0  0
  -27.0324  -30.3012   24.6159 C   0  0  0  0  0  0
  -27.6055  -32.4312   25.7506 C   0  0  0  0  0  0
  -27.5576  -37.1797   24.8472 C   0  0  0  0  0  0
  -21.4182  -29.3040   22.3727 N   0  0  0  0  0  0
  -26.4287  -37.3786   23.9423 N   0  0  0  0  0  0
  -24.6741  -31.0753   22.1004 N   0  0  0  0  0  0
  -23.4195  -28.8211   23.3072 O   0  0  0  0  0  0
  -28.3600  -26.5882   20.1272 O   0  0  0  0  0  0
  -26.5609  -34.8917   22.4706 O   0  0  0  0  0  0
  -23.5373  -32.1453   23.7456 O   0  0  0  0  0  0
  -28.0307  -22.5793   20.7246 C   0  0  0  0  0  0
  -28.8166  -20.6311   21.1084 C   0  0  0  0  0  0
  -29.5385  -17.8678   19.3868 C   0  0  0  0  0  0
  -27.1517  -24.8380   21.5579 C   0  0  0  0  0  0
  -29.5169  -16.3417   19.1817 C   0  0  0  0  0  0
  -30.0519  -16.7814   21.4287 C   0  0  0  0  0  0
  -27.7938  -24.0641   20.4171 C   0  0  1  0  0  0
  -29.3237  -18.0461   20.8842 C   0  0  1  0  0  0
  -28.4267  -25.3726   20.9528 C   0  0  1  0  0  0
  -30.8023  -23.0902   22.5267 C   0  0  0  0  0  0
  -29.7569  -19.3301   23.0361 C   0  0  0  0  0  0
  -30.5237  -22.5588   21.1081 C   0  0  0  0  0  0
  -29.7181  -19.4499   21.5030 C   0  0  2  0  0  0
  -26.9880  -21.7400   20.7355 N   0  0  0  0  0  0
  -27.4894  -20.4902   21.0038 N   0  0  0  0  0  0
  -29.2071  -21.9433   20.9867 N   0  0  0  0  0  0
  -29.8594  -15.6826   20.4613 N   0  0  0  0  0  0
  -31.4610  -12.4402   19.1237 H   0  0  0  0  0  0
  -30.3209  -11.3499   19.8734 H   0  0  0  0  0  0
  -29.7334  -11.7244   17.4583 H   0  0  0  0  0  0
  -29.6423  -13.4456   17.7207 H   0  0  0  0  0  0
  -27.8234  -11.2872   18.8293 H   0  0  0  0  0  0
  -27.3564  -12.6039   17.7898 H   0  0  0  0  0  0
  -27.6434  -14.2294   19.5257 H   0  0  0  0  0  0
  -28.6957  -12.0671   21.4063 H   0  0  0  0  0  0
  -28.4715  -13.7512   21.8088 H   0  0  0  0  0  0
  -25.2745   -9.5628   22.4770 H   0  0  0  0  0  0
  -23.9981   -7.4575   22.7462 H   0  0  0  0  0  0
  -21.0838   -8.8740   19.8940 H   0  0  0  0  0  0
  -22.3694  -10.9646   19.6189 H   0  0  0  0  0  0
  -21.1990   -7.6144   23.9721 H   0  0  0  0  0  0
  -21.1510   -6.0523   25.9082 H   0  0  0  0  0  0
  -22.0593   -2.7615   23.2843 H   0  0  0  0  0  0
  -22.4058  -11.9853   22.4838 H   0  0  0  0  0  0
  -21.1082  -13.1236   22.2646 H   0  0  0  0  0  0
  -24.6662  -15.8439   20.5363 H   0  0  0  0  0  0
  -26.2961  -15.6285   20.1437 H   0  0  0  0  0  0
  -26.7141  -32.5513   23.1174 H   0  0  0  0  0  0
  -24.9989  -33.9803   25.0430 H   0  0  0  0  0  0
  -22.6997  -31.3058   21.4084 H   0  0  0  0  0  0
  -23.3740  -35.9650   23.3316 H   0  0  0  0  0  0
  -24.3562  -36.8927   22.2057 H   0  0  0  0  0  0
  -23.7265  -37.6521   23.6657 H   0  0  0  0  0  0
  -26.0618  -31.5765   20.5967 H   0  0  0  0  0  0
  -26.8275  -30.8713   21.9941 H   0  0  0  0  0  0
  -28.0971  -29.0553   21.2053 H   0  0  0  0  0  0
  -26.0569  -25.9814   18.9667 H   0  0  0  0  0  0
  -23.9881  -27.3133   18.9943 H   0  0  0  0  0  0
  -23.7354  -30.5908   19.4038 H   0  0  0  0  0  0
  -22.7430  -29.2418   19.8696 H   0  0  0  0  0  0
  -25.1264  -36.1961   25.0843 H   0  0  0  0  0  0
  -20.9993  -28.3226   24.1443 H   0  0  0  0  0  0
  -20.5678  -26.2285   23.3622 H   0  0  0  0  0  0
  -21.6627  -26.7405   22.1230 H   0  0  0  0  0  0
  -19.6864  -25.6309   21.1247 H   0  0  0  0  0  0
  -19.6671  -27.3244   20.6783 H   0  0  0  0  0  0
  -17.4216  -26.6763   21.3973 H   0  0  0  0  0  0
  -18.0262  -26.0031   22.8948 H   0  0  0  0  0  0
  -19.7946  -30.7278   24.2315 H   0  0  0  0  0  0
  -17.5023  -31.6270   24.5211 H   0  0  0  0  0  0
  -15.5373  -30.3017   23.7675 H   0  0  0  0  0  0
  -15.8666  -28.0879   22.7028 H   0  0  0  0  0  0
  -24.5919  -30.7052   25.7827 H   0  0  0  0  0  0
  -24.8942  -32.2863   26.4918 H   0  0  0  0  0  0
  -25.8092  -30.8878   27.0254 H   0  0  0  0  0  0
  -26.2886  -29.6765   24.1201 H   0  0  0  0  0  0
  -27.4050  -29.7256   25.4644 H   0  0  0  0  0  0
  -27.8739  -30.4304   23.9354 H   0  0  0  0  0  0
  -27.2657  -33.3610   26.2081 H   0  0  0  0  0  0
  -28.3850  -32.6883   25.0324 H   0  0  0  0  0  0
  -28.0734  -31.8450   26.5426 H   0  0  0  0  0  0
  -28.2588  -38.0093   24.7481 H   0  0  0  0  0  0
  -28.1071  -36.2621   24.6310 H   0  0  0  0  0  0
  -27.2294  -37.1460   25.8875 H   0  0  0  0  0  0
  -20.9368  -29.8767   21.6926 H   0  0  0  0  0  0
  -26.0172  -38.2874   24.1380 H   0  0  0  0  0  0
  -28.7728  -18.3737   18.7957 H   0  0  0  0  0  0
  -30.5074  -18.2693   19.0869 H   0  0  0  0  0  0
  -27.2506  -24.4212   22.5572 H   0  0  0  0  0  0
  -26.1755  -25.2659   21.3594 H   0  0  0  0  0  0
  -30.1892  -16.0518   18.3695 H   0  0  0  0  0  0
  -28.5140  -16.0495   18.8736 H   0  0  0  0  0  0
  -29.6671  -16.4845   22.4039 H   0  0  0  0  0  0
  -31.1200  -16.9776   21.5376 H   0  0  0  0  0  0
  -27.3383  -24.1348   19.4325 H   0  0  0  0  0  0
  -28.2605  -17.8859   21.0794 H   0  0  0  0  0  0
  -29.3428  -25.3139   21.5334 H   0  0  0  0  0  0
  -29.9149  -23.5294   22.9850 H   0  0  0  0  0  0
  -31.5723  -23.8632   22.5017 H   0  0  0  0  0  0
  -31.1617  -22.3005   23.1867 H   0  0  0  0  0  0
  -30.0582  -20.2678   23.5023 H   0  0  0  0  0  0
  -30.4669  -18.5709   23.3585 H   0  0  0  0  0  0
  -28.7778  -19.0576   23.4302 H   0  0  0  0  0  0
  -31.2966  -21.8553   20.7944 H   0  0  0  0  0  0
  -30.5726  -23.3866   20.3981 H   0  0  0  0  0  0
  -30.7280  -19.6816   21.1672 H   0  0  0  0  0  0
  1 25  1  0  0  0
  1 30  2  0  0  0
  1 87  1  0  0  0
  2  3  1  0  0  0
  2 25  1  0  0  0
  2 88  1  0  0  0
  2 89  1  0  0  0
  3  4  1  0  0  0
  3 90  1  0  0  0
  3 91  1  0  0  0
  4  5  1  0  0  0
  4 92  1  0  0  0
  4 93  1  0  0  0
  5  6  1  0  0  0
  5 26  1  0  0  0
  5 94  1  0  0  0
  6 25  1  0  0  0
  6 95  1  0  0  0
  6 96  1  0  0  0
  7  8  2  0  0  0
  7 26  1  0  0  0
  7 29  1  0  0  0
  8  9  1  0  0  0
  8 22  1  0  0  0
  9 10  1  0  0  0
  9 27  2  0  0  0
 10 11  2  0  0  0
 10 15  1  0  0  0
 11 12  1  0  0  0
 11 97  1  0  0  0
 12 13  2  0  0  0
 12 98  1  0  0  0
 13 14  1  0  0  0
 13 31  1  0  0  0
 14 15  2  0  0  0
 14 99  1  0  0  0
 15100  1  0  0  0
 16 17  2  0  0  0
 16 21  1  0  0  0
 16 31  1  0  0  0
 17 18  1  0  0  0
 17101  1  0  0  0
 18 19  2  0  0  0
 18102  1  0  0  0
 19 20  1  0  0  0
 19 24  1  0  0  0
 20 21  2  0  0  0
 20103  1  0  0  0
 21 23  1  0  0  0
 22 28  1  0  0  0
 22 32  2  0  0  0
 26 27  1  0  0  0
 28104  1  0  0  0
 28105  1  0  0  0
 29106  1  0  0  0
 29107  1  0  0  0
 33 34  1  0  0  0
 33 66  1  0  0  0
 33 70  2  0  0  0
 34 36  1  0  0  0
 34 59  1  0  0  0
 34108  1  0  0  0
 35 44  2  0  0  0
 35 45  1  0  0  0
 35 68  1  0  0  0
 36 56  1  0  0  0
 36109  1  0  0  0
 37 39  1  0  0  0
 37 47  1  0  0  0
 37 66  1  0  0  0
 37110  1  0  0  0
 38 43  2  0  0  0
 38 46  1  0  0  0
 38 47  1  0  0  0
 39 64  1  0  0  0
 39 67  2  0  0  0
 40 52  1  0  0  0
 40 53  2  0  0  0
 40 58  1  0  0  0
 41111  1  0  0  0
 41112  1  0  0  0
 41113  1  0  0  0
 41 48  1  0  0  0
 42 43  1  0  0  0
 42 66  1  0  0  0
 42114  1  0  0  0
 42115  1  0  0  0
 43 44  1  0  0  0
 44116  1  0  0  0
 45 46  2  0  0  0
 45117  1  0  0  0
 46118  1  0  0  0
 47119  1  0  0  0
 47120  1  0  0  0
 48 56  1  0  0  0
 48 65  1  0  0  0
 48121  1  0  0  0
 49 50  1  0  0  0
 49 53  1  0  0  0
 49 64  1  0  0  0
 49122  1  0  0  0
 50 51  1  0  0  0
 50123  1  0  0  0
 50124  1  0  0  0
 51 52  1  0  0  0
 51125  1  0  0  0
 51126  1  0  0  0
 52127  1  0  0  0
 52128  1  0  0  0
 53 54  1  0  0  0
 54 55  2  0  0  0
 54129  1  0  0  0
 55 57  1  0  0  0
 55130  1  0  0  0
 56 69  2  0  0  0
 57 58  2  0  0  0
 57131  1  0  0  0
 58132  1  0  0  0
 59 60  1  0  0  0
 59 61  1  0  0  0
 59 62  1  0  0  0
 60133  1  0  0  0
 60134  1  0  0  0
 60135  1  0  0  0
 61136  1  0  0  0
 61137  1  0  0  0
 61138  1  0  0  0
 62139  1  0  0  0
 62140  1  0  0  0
 62141  1  0  0  0
 63 65  1  0  0  0
 63142  1  0  0  0
 63143  1  0  0  0
 63144  1  0  0  0
 64145  1  0  0  0
 65146  1  0  0  0
 68 79  1  0  0  0
 71 84  2  0  0  0
 71 86  1  0  0  0
 71 77  1  0  0  0
 72 83  1  0  0  0
 72 85  2  0  0  0
 72 86  1  0  0  0
 73 75  1  0  0  0
 73147  1  0  0  0
 73148  1  0  0  0
 73 78  1  0  0  0
 74 77  1  0  0  0
 74 79  1  0  0  0
 74149  1  0  0  0
 74150  1  0  0  0
 75 87  1  0  0  0
 75151  1  0  0  0
 75152  1  0  0  0
 76 78  1  0  0  0
 76 87  1  0  0  0
 76153  1  0  0  0
 76154  1  0  0  0
 77 79  1  0  0  0
 77155  1  0  0  0
 78 83  1  0  0  0
 78156  1  0  0  0
 79157  1  0  0  0
 80 82  1  0  0  0
 80158  1  0  0  0
 80159  1  0  0  0
 80160  1  0  0  0
 81161  1  0  0  0
 81162  1  0  0  0
 81163  1  0  0  0
 81 83  1  0  0  0
 82 86  1  0  0  0
 82164  1  0  0  0
 82165  1  0  0  0
 83166  1  0  0  0
 84 85  1  0  0  0
M  ISO  4   1 100  68 101  79 101  87 100
M  END
> <chiral flag>
0

> <version>
0

> <s_m_source_file>
/data/baiqing/PycharmProjects/Reinvent-master-3.2/result/LINK_invent/BTK/process_docking_weight1_custom_sum_contain_oxygen_bond_distance_aromatic_linkinvent_7_9_3/rearranged_h_0199.sdf

> <i_m_source_file_index>
53

> <r_mmod_Potential_Energy-OPLS-2005>
301.649169921875

> <r_mmod_Stretch_Energy-OPLS-2005>
56.1072998046875

> <r_mmod_Bend_Energy-OPLS-2005>
180.589492797852

> <r_mmod_Torsional_Energy-OPLS-2005>
398.892761230469

> <r_mmod_Improper_Torsional_Energy-OPLS-2005>
13.404125213623

> <r_mmod_Van_der_Waal_Energy-OPLS-2005>
110.882026672363

> <r_mmod_Electrostatic_Energy-OPLS-2005>
-271.330444335938

> <r_mmod_Solvation_Energy-OPLS-2005>
-219.169403076172

> <b_mmod_Minimization_Converged-OPLS-2005>
0

> <r_mmod_RMS_Derivative-OPLS-2005>
3.75621891021729

$$$$
53
                    3D
 Structure written by MMmdl.
157166  0  0  1  0            999 V2000
  -30.5742  -14.9536   20.4181 C   0  0  0  0  0  0
  -30.4307  -12.5954   19.5017 C   0  0  0  0  0  0
  -29.5172  -12.5260   18.2579 C   0  0  0  0  0  0
  -28.0533  -12.3103   18.6808 C   0  0  0  0  0  0
  -27.6260  -13.2548   19.8331 C   0  0  2  0  0  0
  -28.6662  -13.3159   20.9720 C   0  0  0  0  0  0
  -25.2467  -13.8234   20.5743 C   0  0  0  0  0  0
  -24.1771  -13.0453   20.9238 C   0  0  0  0  0  0
  -24.6378  -11.6936   20.8738 C   0  0  0  0  0  0
  -23.9059  -10.4300   21.0388 C   0  0  0  0  0  0
  -24.3605   -9.4217   21.9170 C   0  0  0  0  0  0
  -23.6289   -8.2241   22.0735 C   0  0  0  0  0  0
  -22.4272   -8.0269   21.3525 C   0  0  0  0  0  0
  -21.9901   -9.0245   20.4634 C   0  0  0  0  0  0
  -22.7231  -10.2127   20.3054 C   0  0  0  0  0  0
  -21.6862   -6.0723   22.5265 C   0  0  0  0  0  0
  -21.4021   -6.5628   23.8197 C   0  0  0  0  0  0
  -21.3669   -5.6775   24.9159 C   0  0  0  0  0  0
  -21.6046   -4.3038   24.7216 C   0  0  0  0  0  0
  -21.8819   -3.8135   23.4336 C   0  0  0  0  0  0
  -21.9202   -4.6950   22.3395 C   0  0  0  0  0  0
  -22.7789  -13.5224   21.1898 C   0  0  0  0  0  0
  -22.1668   -4.2123   21.0977 F   0  0  0  0  0  0
  -21.5634   -3.4530   25.7732 F   0  0  0  0  0  0
  -29.9416  -13.7113   20.3643 N   0  0  0  0  0  0
  -26.2867  -12.9480   20.3227 N   0  0  0  0  0  0
  -25.9310  -11.6600   20.5712 N   0  0  0  0  0  0
  -22.0438  -12.8213   22.0451 N   0  0  0  0  0  0
  -25.4222  -15.1967   20.4267 N   0  0  0  0  0  0
  -31.7783  -14.9686   20.1381 O   0  0  0  0  0  0
  -21.6642   -6.8868   21.4224 O   0  0  0  0  0  0
  -22.3487  -14.5528   20.6749 O   0  0  0  0  0  0
  -24.6428  -31.8445   23.1904 C   0  0  0  0  0  0
  -25.9212  -32.4698   23.8287 C   0  0  1  0  0  0
  -27.2181  -27.1376   20.1474 C   0  0  0  0  0  0
  -25.5973  -33.8503   24.2209 N   0  0  0  0  0  0
  -23.4466  -30.4645   21.5345 C   0  0  2  0  0  0
  -24.8981  -28.8951   20.1089 C   0  0  0  0  0  0
  -22.7571  -29.4531   22.4843 C   0  0  0  0  0  0
  -18.0312  -28.1398   22.8476 C   0  0  0  0  0  0
  -24.1494  -36.7253   23.2629 C   0  0  0  0  0  0
  -26.0023  -30.7201   21.3880 C   0  0  0  0  0  0
  -26.0750  -29.3307   20.7293 C   0  0  0  0  0  0
  -27.2351  -28.4674   20.7341 C   0  0  0  0  0  0
  -26.0150  -26.8087   19.4817 C   0  0  0  0  0  0
  -24.8811  -27.6475   19.4686 C   0  0  0  0  0  0
  -23.6760  -29.7994   20.1514 C   0  0  0  0  0  0
  -25.4113  -36.3023   24.0317 C   0  0  1  0  0  0
  -20.5922  -28.3715   23.1243 C   0  0  2  0  0  0
  -20.6797  -26.9423   22.5406 C   0  0  0  0  0  0
  -19.5771  -26.6384   21.5214 C   0  0  0  0  0  0
  -18.1953  -26.7932   22.1628 C   0  0  0  0  0  0
  -19.1569  -28.8872   23.2852 C   0  0  0  0  0  0
  -18.9477  -30.1465   23.8878 C   0  0  0  0  0  0
  -17.6474  -30.6586   24.0562 C   0  0  0  0  0  0
  -25.9079  -34.9405   23.5066 C   0  0  0  0  0  0
  -16.5365  -29.9082   23.6333 C   0  0  0  0  0  0
  -16.7294  -28.6506   23.0343 C   0  0  0  0  0  0
  -26.4544  -31.6538   25.0706 C   0  0  0  0  0  0
  -25.3758  -31.3716   26.1426 C   0  0  0  0  0  0
  -27.0379  -30.2932   24.6243 C   0  0  0  0  0  0
  -27.6102  -32.4266   25.7482 C   0  0  0  0  0  0
  -27.5595  -37.1743   24.8433 C   0  0  0  0  0  0
  -21.4259  -29.3041   22.3610 N   0  0  0  0  0  0
  -26.4261  -37.3753   23.9444 N   0  0  0  0  0  0
  -24.7171  -31.0294   22.0941 N   0  0  0  0  0  0
  -23.4215  -28.8081   23.2992 O   0  0  0  0  0  0
  -28.2660  -26.1455   20.2230 O   0  0  0  0  0  0
  -26.5643  -34.8901   22.4630 O   0  0  0  0  0  0
  -23.5548  -32.1316   23.7130 O   0  0  0  0  0  0
  -28.9799  -23.3533   20.3175 C   0  0  0  0  0  0
  -30.3492  -23.5867   20.5899 C   0  0  0  0  0  0
  -29.5488  -20.9594   20.4491 C   0  0  0  0  0  0
  -30.1149  -18.6779   19.4270 C   0  0  0  0  0  0
  -29.4061  -18.6776   21.6337 C   0  0  0  0  0  0
  -29.7415  -17.1222   19.2618 C   0  0  0  0  0  0
  -29.5930  -17.0445   21.6526 C   0  0  0  0  0  0
  -32.2368  -25.0602   20.9271 C   0  0  0  0  0  0
  -27.9575  -24.6240   20.0555 C   0  0  0  0  0  0
  -28.6046  -21.9731   20.2468 N   0  0  0  0  0  0
  -31.2154  -22.5511   20.7933 N   0  0  0  0  0  0
  -30.8253  -21.2663   20.7232 N   0  0  0  0  0  0
  -29.3077  -19.4935   20.3775 N   0  0  0  0  0  0
  -29.8463  -16.1899   20.4356 N   0  0  0  0  0  0
  -30.8516  -24.8725   20.6309 O   0  0  0  0  0  0
  -31.4659  -12.7340   19.1873 H   0  0  0  0  0  0
  -30.4150  -11.6536   20.0511 H   0  0  0  0  0  0
  -29.8405  -11.7192   17.5984 H   0  0  0  0  0  0
  -29.6011  -13.4493   17.6815 H   0  0  0  0  0  0
  -27.9549  -11.2730   19.0041 H   0  0  0  0  0  0
  -27.3855  -12.4243   17.8274 H   0  0  0  0  0  0
  -27.5826  -14.2506   19.3892 H   0  0  0  0  0  0
  -28.7529  -12.3604   21.4904 H   0  0  0  0  0  0
  -28.3631  -14.0535   21.7168 H   0  0  0  0  0  0
  -25.2736   -9.5717   22.4751 H   0  0  0  0  0  0
  -24.0010   -7.4645   22.7458 H   0  0  0  0  0  0
  -21.0824   -8.8760   19.8959 H   0  0  0  0  0  0
  -22.3663  -10.9656   19.6172 H   0  0  0  0  0  0
  -21.2016   -7.6133   23.9700 H   0  0  0  0  0  0
  -21.1496   -6.0501   25.9062 H   0  0  0  0  0  0
  -22.0607   -2.7599   23.2829 H   0  0  0  0  0  0
  -22.4044  -11.9861   22.4826 H   0  0  0  0  0  0
  -21.1053  -13.1245   22.2660 H   0  0  0  0  0  0
  -24.6727  -15.8626   20.5796 H   0  0  0  0  0  0
  -26.2912  -15.6332   20.1465 H   0  0  0  0  0  0
  -26.7266  -32.5304   23.1003 H   0  0  0  0  0  0
  -25.0133  -33.9615   25.0371 H   0  0  0  0  0  0
  -22.7488  -31.2909   21.3831 H   0  0  0  0  0  0
  -23.3792  -35.9543   23.3178 H   0  0  0  0  0  0
  -24.3629  -36.9000   22.2072 H   0  0  0  0  0  0
  -23.7192  -37.6394   23.6736 H   0  0  0  0  0  0
  -26.1518  -31.4755   20.6150 H   0  0  0  0  0  0
  -26.8753  -30.7747   22.0260 H   0  0  0  0  0  0
  -28.1290  -28.7956   21.2454 H   0  0  0  0  0  0
  -25.9133  -25.8612   18.9761 H   0  0  0  0  0  0
  -23.9842  -27.3137   18.9651 H   0  0  0  0  0  0
  -23.8211  -30.5796   19.4026 H   0  0  0  0  0  0
  -22.7896  -29.2488   19.8323 H   0  0  0  0  0  0
  -25.1283  -36.1835   25.0803 H   0  0  0  0  0  0
  -21.0015  -28.3303   24.1362 H   0  0  0  0  0  0
  -20.5719  -26.2315   23.3613 H   0  0  0  0  0  0
  -21.6662  -26.7446   22.1189 H   0  0  0  0  0  0
  -19.6936  -25.6290   21.1255 H   0  0  0  0  0  0
  -19.6717  -27.3183   20.6736 H   0  0  0  0  0  0
  -17.4224  -26.6667   21.4032 H   0  0  0  0  0  0
  -18.0362  -26.0083   22.9040 H   0  0  0  0  0  0
  -19.7947  -30.7292   24.2237 H   0  0  0  0  0  0
  -17.5022  -31.6262   24.5176 H   0  0  0  0  0  0
  -15.5362  -30.2976   23.7657 H   0  0  0  0  0  0
  -15.8696  -28.0823   22.7043 H   0  0  0  0  0  0
  -24.5863  -30.7164   25.7724 H   0  0  0  0  0  0
  -24.9049  -32.2910   26.4916 H   0  0  0  0  0  0
  -25.8058  -30.8795   27.0163 H   0  0  0  0  0  0
  -26.2949  -29.6653   24.1305 H   0  0  0  0  0  0
  -27.4063  -29.7224   25.4776 H   0  0  0  0  0  0
  -27.8849  -30.4158   23.9488 H   0  0  0  0  0  0
  -27.2733  -33.3585   26.2029 H   0  0  0  0  0  0
  -28.3944  -32.6780   25.0331 H   0  0  0  0  0  0
  -28.0736  -31.8397   26.5422 H   0  0  0  0  0  0
  -28.2476  -38.0174   24.7669 H   0  0  0  0  0  0
  -28.1230  -36.2716   24.6011 H   0  0  0  0  0  0
  -27.2360  -37.1085   25.8838 H   0  0  0  0  0  0
  -20.9452  -29.8756   21.6799 H   0  0  0  0  0  0
  -26.0117  -38.2789   24.1577 H   0  0  0  0  0  0
  -30.0333  -19.1537   18.4481 H   0  0  0  0  0  0
  -31.1685  -18.7626   19.6975 H   0  0  0  0  0  0
  -30.2247  -19.0985   22.2198 H   0  0  0  0  0  0
  -28.5158  -18.9168   22.2168 H   0  0  0  0  0  0
  -30.3501  -16.7199   18.4508 H   0  0  0  0  0  0
  -28.7153  -17.0542   18.8989 H   0  0  0  0  0  0
  -28.6986  -16.6263   22.1152 H   0  0  0  0  0  0
  -30.3867  -16.8239   22.3692 H   0  0  0  0  0  0
  -32.4954  -26.1102   20.7962 H   0  0  0  0  0  0
  -32.8890  -24.4848   20.2664 H   0  0  0  0  0  0
  -32.4599  -24.7907   21.9606 H   0  0  0  0  0  0
  -27.0762  -24.4165   20.6630 H   0  0  0  0  0  0
  -27.6382  -24.4926   19.0215 H   0  0  0  0  0  0
  1 25  1  0  0  0
  1 30  2  0  0  0
  1 84  1  0  0  0
  2  3  1  0  0  0
  2 25  1  0  0  0
  2 86  1  0  0  0
  2 87  1  0  0  0
  3  4  1  0  0  0
  3 88  1  0  0  0
  3 89  1  0  0  0
  4  5  1  0  0  0
  4 90  1  0  0  0
  4 91  1  0  0  0
  5  6  1  0  0  0
  5 26  1  0  0  0
  5 92  1  0  0  0
  6 25  1  0  0  0
  6 93  1  0  0  0
  6 94  1  0  0  0
  7  8  2  0  0  0
  7 26  1  0  0  0
  7 29  1  0  0  0
  8  9  1  0  0  0
  8 22  1  0  0  0
  9 10  1  0  0  0
  9 27  2  0  0  0
 10 11  2  0  0  0
 10 15  1  0  0  0
 11 12  1  0  0  0
 11 95  1  0  0  0
 12 13  2  0  0  0
 12 96  1  0  0  0
 13 14  1  0  0  0
 13 31  1  0  0  0
 14 15  2  0  0  0
 14 97  1  0  0  0
 15 98  1  0  0  0
 16 17  2  0  0  0
 16 21  1  0  0  0
 16 31  1  0  0  0
 17 18  1  0  0  0
 17 99  1  0  0  0
 18 19  2  0  0  0
 18100  1  0  0  0
 19 20  1  0  0  0
 19 24  1  0  0  0
 20 21  2  0  0  0
 20101  1  0  0  0
 21 23  1  0  0  0
 22 28  1  0  0  0
 22 32  2  0  0  0
 26 27  1  0  0  0
 28102  1  0  0  0
 28103  1  0  0  0
 29104  1  0  0  0
 29105  1  0  0  0
 33 34  1  0  0  0
 33 66  1  0  0  0
 33 70  2  0  0  0
 34 36  1  0  0  0
 34 59  1  0  0  0
 34106  1  0  0  0
 35 44  2  0  0  0
 35 45  1  0  0  0
 35 68  1  0  0  0
 36 56  1  0  0  0
 36107  1  0  0  0
 37 39  1  0  0  0
 37 47  1  0  0  0
 37 66  1  0  0  0
 37108  1  0  0  0
 38 43  2  0  0  0
 38 46  1  0  0  0
 38 47  1  0  0  0
 39 64  1  0  0  0
 39 67  2  0  0  0
 40 52  1  0  0  0
 40 53  2  0  0  0
 40 58  1  0  0  0
 41109  1  0  0  0
 41110  1  0  0  0
 41111  1  0  0  0
 41 48  1  0  0  0
 42 43  1  0  0  0
 42 66  1  0  0  0
 42112  1  0  0  0
 42113  1  0  0  0
 43 44  1  0  0  0
 44114  1  0  0  0
 45 46  2  0  0  0
 45115  1  0  0  0
 46116  1  0  0  0
 47117  1  0  0  0
 47118  1  0  0  0
 48 56  1  0  0  0
 48 65  1  0  0  0
 48119  1  0  0  0
 49 50  1  0  0  0
 49 53  1  0  0  0
 49 64  1  0  0  0
 49120  1  0  0  0
 50 51  1  0  0  0
 50121  1  0  0  0
 50122  1  0  0  0
 51 52  1  0  0  0
 51123  1  0  0  0
 51124  1  0  0  0
 52125  1  0  0  0
 52126  1  0  0  0
 53 54  1  0  0  0
 54 55  2  0  0  0
 54127  1  0  0  0
 55 57  1  0  0  0
 55128  1  0  0  0
 56 69  2  0  0  0
 57 58  2  0  0  0
 57129  1  0  0  0
 58130  1  0  0  0
 59 60  1  0  0  0
 59 61  1  0  0  0
 59 62  1  0  0  0
 60131  1  0  0  0
 60132  1  0  0  0
 60133  1  0  0  0
 61134  1  0  0  0
 61135  1  0  0  0
 61136  1  0  0  0
 62137  1  0  0  0
 62138  1  0  0  0
 62139  1  0  0  0
 63 65  1  0  0  0
 63140  1  0  0  0
 63141  1  0  0  0
 63142  1  0  0  0
 64143  1  0  0  0
 65144  1  0  0  0
 68 79  1  0  0  0
 71 72  2  0  0  0
 71 79  1  0  0  0
 71 80  1  0  0  0
 72 81  1  0  0  0
 72 85  1  0  0  0
 73 80  2  0  0  0
 73 82  1  0  0  0
 73 83  1  0  0  0
 74 76  1  0  0  0
 74 83  1  0  0  0
 74145  1  0  0  0
 74146  1  0  0  0
 75 77  1  0  0  0
 75 83  1  0  0  0
 75147  1  0  0  0
 75148  1  0  0  0
 76 84  1  0  0  0
 76149  1  0  0  0
 76150  1  0  0  0
 77 84  1  0  0  0
 77151  1  0  0  0
 77152  1  0  0  0
 78 85  1  0  0  0
 78153  1  0  0  0
 78154  1  0  0  0
 78155  1  0  0  0
 79156  1  0  0  0
 79157  1  0  0  0
 81 82  2  0  0  0
M  ISO  4   1 100  68 101  79 101  84 100
M  END
> <chiral flag>
0

> <version>
0

> <s_m_source_file>
/data/baiqing/PycharmProjects/Reinvent-master-3.2/result/LINK_invent/BTK/process_docking_weight1_custom_sum_contain_oxygen_bond_distance_aromatic_linkinvent_7_9_3/rearranged_h_0199.sdf

> <i_m_source_file_index>
54

> <r_mmod_Potential_Energy-OPLS-2005>
624.167297363281

> <r_mmod_Stretch_Energy-OPLS-2005>
234.823043823242

> <r_mmod_Bend_Energy-OPLS-2005>
276.668487548828

> <r_mmod_Torsional_Energy-OPLS-2005>
371.424255371094

> <r_mmod_Improper_Torsional_Energy-OPLS-2005>
16.2459812164307

> <r_mmod_Van_der_Waal_Energy-OPLS-2005>
151.210113525391

> <r_mmod_Electrostatic_Energy-OPLS-2005>
-390.276580810547

> <r_mmod_Solvation_Energy-OPLS-2005>
-231.471252441406

> <b_mmod_Minimization_Converged-OPLS-2005>
0

> <r_mmod_RMS_Derivative-OPLS-2005>
2.69230318069458

$$$$
54
                    3D
 Structure written by MMmdl.
177187  0  0  1  0            999 V2000
  -30.7477  -14.4786   20.5035 C   0  0  0  0  0  0
  -30.3967  -12.2736   19.4570 C   0  0  0  0  0  0
  -29.4921  -12.4568   18.2256 C   0  0  0  0  0  0
  -28.0116  -12.3232   18.6352 C   0  0  0  0  0  0
  -27.6490  -13.2043   19.8654 C   0  0  2  0  0  0
  -28.6974  -13.0658   20.9943 C   0  0  0  0  0  0
  -25.2540  -13.8148   20.5707 C   0  0  0  0  0  0
  -24.1798  -13.0372   20.9204 C   0  0  0  0  0  0
  -24.6356  -11.6857   20.8749 C   0  0  0  0  0  0
  -23.8977  -10.4263   21.0423 C   0  0  0  0  0  0
  -24.3547   -9.4197   21.9229 C   0  0  0  0  0  0
  -23.6259   -8.2196   22.0762 C   0  0  0  0  0  0
  -22.4241   -8.0249   21.3524 C   0  0  0  0  0  0
  -21.9863   -9.0205   20.4617 C   0  0  0  0  0  0
  -22.7138  -10.2123   20.3063 C   0  0  0  0  0  0
  -21.6818   -6.0738   22.5273 C   0  0  0  0  0  0
  -21.3986   -6.5636   23.8214 C   0  0  0  0  0  0
  -21.3657   -5.6784   24.9183 C   0  0  0  0  0  0
  -21.6055   -4.3048   24.7194 C   0  0  0  0  0  0
  -21.8819   -3.8140   23.4310 C   0  0  0  0  0  0
  -21.9175   -4.6974   22.3385 C   0  0  0  0  0  0
  -22.7856  -13.5203   21.1908 C   0  0  0  0  0  0
  -22.1682   -4.2178   21.0960 F   0  0  0  0  0  0
  -21.5609   -3.4535   25.7704 F   0  0  0  0  0  0
  -30.0277  -13.3232   20.4187 N   0  0  0  0  0  0
  -26.2963  -12.9310   20.3371 N   0  0  0  0  0  0
  -25.9281  -11.6458   20.5755 N   0  0  0  0  0  0
  -22.0468  -12.8205   22.0473 N   0  0  0  0  0  0
  -25.4258  -15.1889   20.4146 N   0  0  0  0  0  0
  -31.9191  -14.5620   20.1328 O   0  0  0  0  0  0
  -21.6598   -6.8864   21.4221 O   0  0  0  0  0  0
  -22.3574  -14.5529   20.6794 O   0  0  0  0  0  0
  -24.6058  -31.8702   23.2138 C   0  0  0  0  0  0
  -25.8970  -32.4799   23.8441 C   0  0  1  0  0  0
  -27.2418  -27.4711   20.1191 C   0  0  0  0  0  0
  -25.5898  -33.8603   24.2392 N   0  0  0  0  0  0
  -23.3918  -30.4896   21.5464 C   0  0  2  0  0  0
  -24.8462  -28.9661   20.1044 C   0  0  0  0  0  0
  -22.7420  -29.4594   22.4976 C   0  0  0  0  0  0
  -18.0305  -28.1284   22.8428 C   0  0  0  0  0  0
  -24.1512  -36.7290   23.2640 C   0  0  0  0  0  0
  -25.9152  -30.8543   21.3563 C   0  0  0  0  0  0
  -25.9978  -29.4889   20.7091 C   0  0  0  0  0  0
  -27.1980  -28.7565   20.7043 C   0  0  0  0  0  0
  -26.0816  -26.9570   19.4976 C   0  0  0  0  0  0
  -24.8840  -27.7026   19.4903 C   0  0  0  0  0  0
  -23.6057  -29.8291   20.1554 C   0  0  0  0  0  0
  -25.4099  -36.3085   24.0379 C   0  0  1  0  0  0
  -20.5885  -28.3563   23.1301 C   0  0  2  0  0  0
  -20.6808  -26.9312   22.5374 C   0  0  0  0  0  0
  -19.5814  -26.6347   21.5108 C   0  0  0  0  0  0
  -18.1974  -26.7847   22.1523 C   0  0  0  0  0  0
  -19.1564  -28.8734   23.2834 C   0  0  0  0  0  0
  -18.9487  -30.1333   23.8854 C   0  0  0  0  0  0
  -17.6517  -30.6497   24.0488 C   0  0  0  0  0  0
  -25.9006  -34.9449   23.5179 C   0  0  0  0  0  0
  -16.5386  -29.9006   23.6247 C   0  0  0  0  0  0
  -16.7307  -28.6433   23.0244 C   0  0  0  0  0  0
  -26.4435  -31.6533   25.0702 C   0  0  0  0  0  0
  -25.3725  -31.3602   26.1471 C   0  0  0  0  0  0
  -27.0325  -30.3071   24.5929 C   0  0  0  0  0  0
  -27.6071  -32.4232   25.7402 C   0  0  0  0  0  0
  -27.5595  -37.1764   24.8473 C   0  0  0  0  0  0
  -21.4157  -29.2979   22.3754 N   0  0  0  0  0  0
  -26.4308  -37.3743   23.9431 N   0  0  0  0  0  0
  -24.6512  -31.0855   22.0998 N   0  0  0  0  0  0
  -23.4206  -28.8143   23.2951 O   0  0  0  0  0  0
  -28.3822  -26.7046   20.1274 O   0  0  0  0  0  0
  -26.5496  -34.8854   22.4709 O   0  0  0  0  0  0
  -23.5261  -32.1486   23.7557 O   0  0  0  0  0  0
  -30.6117  -22.2362   20.8967 C   0  0  0  0  0  0
  -31.1493  -20.9161   21.0468 C   0  0  0  0  0  0
  -31.0073  -23.1946   21.8762 C   0  0  0  0  0  0
  -32.4105  -21.6676   22.7930 C   0  0  0  0  0  0
  -30.8708  -18.4148   20.2911 C   0  0  0  0  0  0
  -30.7269  -19.7667   20.1819 C   0  0  0  0  0  0
  -30.3248  -17.4871   19.2166 C   0  0  0  0  0  0
  -31.5277  -17.5969   21.4020 C   0  0  0  0  0  0
  -29.7311  -25.0104   23.2470 C   0  0  0  0  0  0
  -29.4075  -16.3933   19.8084 C   0  0  0  0  0  0
  -30.5902  -16.4721   21.9307 C   0  0  0  0  0  0
  -30.5857  -24.6376   22.0496 C   0  0  2  0  0  0
  -29.2243  -25.2741   21.8526 C   0  0  2  0  0  0
  -29.9128  -23.3450   15.9603 C   0  0  0  0  0  0
  -29.6692  -22.6048   19.7383 C   0  0  0  0  0  0
  -29.1246  -26.7052   21.3504 C   0  0  0  0  0  0
  -30.3790  -22.9120   18.3935 C   0  0  0  0  0  0
  -32.0590  -20.6681   22.0136 N   0  0  0  0  0  0
  -31.9383  -22.8847   22.7902 N   0  0  0  0  0  0
  -30.0729  -15.6021   20.8600 N   0  0  0  0  0  0
  -33.4362  -21.4655   23.6572 N   0  0  0  0  0  0
  -29.3854  -23.2134   17.3332 N   0  3  0  0  0  0
  -31.4490  -12.3063   19.1675 H   0  0  0  0  0  0
  -30.2292  -11.2897   19.9032 H   0  0  0  0  0  0
  -29.7382  -11.7088   17.4685 H   0  0  0  0  0  0
  -29.6738  -13.4329   17.7754 H   0  0  0  0  0  0
  -27.8326  -11.2734   18.8738 H   0  0  0  0  0  0
  -27.3625  -12.5599   17.7913 H   0  0  0  0  0  0
  -27.6496  -14.2334   19.5209 H   0  0  0  0  0  0
  -28.6704  -12.0619   21.4253 H   0  0  0  0  0  0
  -28.4772  -13.7579   21.8105 H   0  0  0  0  0  0
  -25.2688   -9.5721   22.4801 H   0  0  0  0  0  0
  -23.9984   -7.4609   22.7488 H   0  0  0  0  0  0
  -21.0793   -8.8695   19.8941 H   0  0  0  0  0  0
  -22.3579  -10.9667   19.6178 H   0  0  0  0  0  0
  -21.1991   -7.6155   23.9725 H   0  0  0  0  0  0
  -21.1488   -6.0528   25.9101 H   0  0  0  0  0  0
  -22.0594   -2.7593   23.2793 H   0  0  0  0  0  0
  -22.4030  -11.9843   22.4817 H   0  0  0  0  0  0
  -21.1123  -13.1367   22.2664 H   0  0  0  0  0  0
  -24.6546  -15.8372   20.5361 H   0  0  0  0  0  0
  -26.2766  -15.6354   20.0926 H   0  0  0  0  0  0
  -26.7044  -32.5521   23.1205 H   0  0  0  0  0  0
  -25.0199  -33.9850   25.0651 H   0  0  0  0  0  0
  -22.6631  -31.2929   21.4039 H   0  0  0  0  0  0
  -23.3759  -35.9637   23.3304 H   0  0  0  0  0  0
  -24.3682  -36.8908   22.2070 H   0  0  0  0  0  0
  -23.7292  -37.6515   23.6658 H   0  0  0  0  0  0
  -25.9996  -31.6185   20.5824 H   0  0  0  0  0  0
  -26.8120  -30.9267   21.9564 H   0  0  0  0  0  0
  -28.0872  -29.1795   21.1538 H   0  0  0  0  0  0
  -26.0936  -25.9766   19.0371 H   0  0  0  0  0  0
  -24.0002  -27.2937   19.0185 H   0  0  0  0  0  0
  -23.7083  -30.6140   19.4022 H   0  0  0  0  0  0
  -22.7293  -29.2547   19.8561 H   0  0  0  0  0  0
  -25.1243  -36.1965   25.0871 H   0  0  0  0  0  0
  -20.9926  -28.3133   24.1422 H   0  0  0  0  0  0
  -20.5658  -26.2163   23.3533 H   0  0  0  0  0  0
  -21.6672  -26.7340   22.1146 H   0  0  0  0  0  0
  -19.6973  -25.6257   21.1120 H   0  0  0  0  0  0
  -19.6781  -27.3136   20.6608 H   0  0  0  0  0  0
  -17.4220  -26.6545   21.3933 H   0  0  0  0  0  0
  -18.0411  -25.9935   22.8888 H   0  0  0  0  0  0
  -19.7980  -30.7104   24.2260 H   0  0  0  0  0  0
  -17.5069  -31.6173   24.5105 H   0  0  0  0  0  0
  -15.5381  -30.2883   23.7600 H   0  0  0  0  0  0
  -15.8690  -28.0761   22.6928 H   0  0  0  0  0  0
  -24.5929  -30.6861   25.7871 H   0  0  0  0  0  0
  -24.8755  -32.2713   26.4860 H   0  0  0  0  0  0
  -25.8065  -30.8873   27.0283 H   0  0  0  0  0  0
  -26.2871  -29.6734   24.1088 H   0  0  0  0  0  0
  -27.4439  -29.7332   25.4233 H   0  0  0  0  0  0
  -27.8509  -30.4565   23.8861 H   0  0  0  0  0  0
  -27.2822  -33.3619   26.1912 H   0  0  0  0  0  0
  -28.3872  -32.6668   25.0162 H   0  0  0  0  0  0
  -28.0715  -31.8339   26.5321 H   0  0  0  0  0  0
  -28.2504  -38.0127   24.7521 H   0  0  0  0  0  0
  -28.1184  -36.2651   24.6285 H   0  0  0  0  0  0
  -27.2323  -37.1391   25.8870 H   0  0  0  0  0  0
  -20.9317  -29.8822   21.7092 H   0  0  0  0  0  0
  -26.0190  -38.2837   24.1416 H   0  0  0  0  0  0
  -30.2291  -20.0785   19.2791 H   0  0  0  0  0  0
  -31.1733  -17.0187   18.7148 H   0  0  0  0  0  0
  -29.7837  -18.0552   18.4543 H   0  0  0  0  0  0
  -31.8800  -18.2017   22.2313 H   0  0  0  0  0  0
  -32.4261  -17.1484   20.9735 H   0  0  0  0  0  0
  -30.0183  -25.8748   23.8508 H   0  0  0  0  0  0
  -29.2090  -24.2210   23.7878 H   0  0  0  0  0  0
  -29.0849  -15.7485   18.9917 H   0  0  0  0  0  0
  -28.5093  -16.8498   20.2262 H   0  0  0  0  0  0
  -29.7419  -16.9055   22.4598 H   0  0  0  0  0  0
  -31.1248  -15.8727   22.6705 H   0  0  0  0  0  0
  -31.4445  -25.2754   21.8517 H   0  0  0  0  0  0
  -28.3518  -24.6640   21.6216 H   0  0  0  0  0  0
  -29.1164  -23.6838   15.2987 H   0  0  0  0  0  0
  -30.2667  -22.3915   15.5726 H   0  0  0  0  0  0
  -30.7196  -24.0718   15.9089 H   0  0  0  0  0  0
  -29.0662  -23.4684   19.9973 H   0  0  0  0  0  0
  -28.9423  -21.8064   19.6047 H   0  0  0  0  0  0
  -30.1178  -27.1291   21.1772 H   0  0  0  0  0  0
  -28.6721  -27.2966   22.1516 H   0  0  0  0  0  0
  -31.0038  -22.0748   18.0840 H   0  0  0  0  0  0
  -31.0579  -23.7609   18.4873 H   0  0  0  0  0  0
  -33.5478  -20.5267   24.0106 H   0  0  0  0  0  0
  -33.5683  -22.2036   24.3352 H   0  0  0  0  0  0
  -28.6832  -22.4931   17.3208 H   0  0  0  0  0  0
  -28.9307  -24.0833   17.5599 H   0  0  0  0  0  0
  1 25  1  0  0  0
  1 30  2  0  0  0
  1 90  1  0  0  0
  2  3  1  0  0  0
  2 25  1  0  0  0
  2 93  1  0  0  0
  2 94  1  0  0  0
  3  4  1  0  0  0
  3 95  1  0  0  0
  3 96  1  0  0  0
  4  5  1  0  0  0
  4 97  1  0  0  0
  4 98  1  0  0  0
  5  6  1  0  0  0
  5 26  1  0  0  0
  5 99  1  0  0  0
  6 25  1  0  0  0
  6100  1  0  0  0
  6101  1  0  0  0
  7  8  2  0  0  0
  7 26  1  0  0  0
  7 29  1  0  0  0
  8  9  1  0  0  0
  8 22  1  0  0  0
  9 10  1  0  0  0
  9 27  2  0  0  0
 10 11  2  0  0  0
 10 15  1  0  0  0
 11 12  1  0  0  0
 11102  1  0  0  0
 12 13  2  0  0  0
 12103  1  0  0  0
 13 14  1  0  0  0
 13 31  1  0  0  0
 14 15  2  0  0  0
 14104  1  0  0  0
 15105  1  0  0  0
 16 17  2  0  0  0
 16 21  1  0  0  0
 16 31  1  0  0  0
 17 18  1  0  0  0
 17106  1  0  0  0
 18 19  2  0  0  0
 18107  1  0  0  0
 19 20  1  0  0  0
 19 24  1  0  0  0
 20 21  2  0  0  0
 20108  1  0  0  0
 21 23  1  0  0  0
 22 28  1  0  0  0
 22 32  2  0  0  0
 26 27  1  0  0  0
 28109  1  0  0  0
 28110  1  0  0  0
 29111  1  0  0  0
 29112  1  0  0  0
 33 34  1  0  0  0
 33 66  1  0  0  0
 33 70  2  0  0  0
 34 36  1  0  0  0
 34 59  1  0  0  0
 34113  1  0  0  0
 35 44  2  0  0  0
 35 45  1  0  0  0
 35 68  1  0  0  0
 36 56  1  0  0  0
 36114  1  0  0  0
 37 39  1  0  0  0
 37 47  1  0  0  0
 37 66  1  0  0  0
 37115  1  0  0  0
 38 43  2  0  0  0
 38 46  1  0  0  0
 38 47  1  0  0  0
 39 64  1  0  0  0
 39 67  2  0  0  0
 40 52  1  0  0  0
 40 53  2  0  0  0
 40 58  1  0  0  0
 41116  1  0  0  0
 41117  1  0  0  0
 41118  1  0  0  0
 41 48  1  0  0  0
 42 43  1  0  0  0
 42 66  1  0  0  0
 42119  1  0  0  0
 42120  1  0  0  0
 43 44  1  0  0  0
 44121  1  0  0  0
 45 46  2  0  0  0
 45122  1  0  0  0
 46123  1  0  0  0
 47124  1  0  0  0
 47125  1  0  0  0
 48 56  1  0  0  0
 48 65  1  0  0  0
 48126  1  0  0  0
 49 50  1  0  0  0
 49 53  1  0  0  0
 49 64  1  0  0  0
 49127  1  0  0  0
 50 51  1  0  0  0
 50128  1  0  0  0
 50129  1  0  0  0
 51 52  1  0  0  0
 51130  1  0  0  0
 51131  1  0  0  0
 52132  1  0  0  0
 52133  1  0  0  0
 53 54  1  0  0  0
 54 55  2  0  0  0
 54134  1  0  0  0
 55 57  1  0  0  0
 55135  1  0  0  0
 56 69  2  0  0  0
 57 58  2  0  0  0
 57136  1  0  0  0
 58137  1  0  0  0
 59 60  1  0  0  0
 59 61  1  0  0  0
 59 62  1  0  0  0
 60138  1  0  0  0
 60139  1  0  0  0
 60140  1  0  0  0
 61141  1  0  0  0
 61142  1  0  0  0
 61143  1  0  0  0
 62144  1  0  0  0
 62145  1  0  0  0
 62146  1  0  0  0
 63 65  1  0  0  0
 63147  1  0  0  0
 63148  1  0  0  0
 63149  1  0  0  0
 64150  1  0  0  0
 65151  1  0  0  0
 68 86  1  0  0  0
 71 72  2  0  0  0
 71 73  1  0  0  0
 71 85  1  0  0  0
 72 76  1  0  0  0
 72 88  1  0  0  0
 73 89  2  0  0  0
 73 82  1  0  0  0
 74 88  2  0  0  0
 74 89  1  0  0  0
 74 91  1  0  0  0
 75 76  2  0  0  0
 75 77  1  0  0  0
 75 78  1  0  0  0
 76152  1  0  0  0
 77 80  1  0  0  0
 77153  1  0  0  0
 77154  1  0  0  0
 78 81  1  0  0  0
 78155  1  0  0  0
 78156  1  0  0  0
 79 82  1  0  0  0
 79 83  1  0  0  0
 79157  1  0  0  0
 79158  1  0  0  0
 80 90  1  0  0  0
 80159  1  0  0  0
 80160  1  0  0  0
 81 90  1  0  0  0
 81161  1  0  0  0
 81162  1  0  0  0
 82 83  1  0  0  0
 82163  1  0  0  0
 83 86  1  0  0  0
 83164  1  0  0  0
 84 92  1  0  0  0
 84165  1  0  0  0
 84166  1  0  0  0
 84167  1  0  0  0
 85 87  1  0  0  0
 85168  1  0  0  0
 85169  1  0  0  0
 86170  1  0  0  0
 86171  1  0  0  0
 87 92  1  0  0  0
 87172  1  0  0  0
 87173  1  0  0  0
 91174  1  0  0  0
 91175  1  0  0  0
 92176  1  0  0  0
 92177  1  0  0  0
M  CHG  1  92   1
M  ISO  4   1 100  68 101  86 101  90 100
M  END
> <chiral flag>
0

> <version>
0

> <s_m_source_file>
/data/baiqing/PycharmProjects/Reinvent-master-3.2/result/LINK_invent/BTK/process_docking_weight1_custom_sum_contain_oxygen_bond_distance_aromatic_linkinvent_7_9_3/rearranged_h_0199.sdf

> <i_m_source_file_index>
55

> <r_mmod_Potential_Energy-OPLS-2005>
-540.394836425781

> <r_mmod_Stretch_Energy-OPLS-2005>
46.49072265625

> <r_mmod_Bend_Energy-OPLS-2005>
142.964385986328

> <r_mmod_Torsional_Energy-OPLS-2005>
365.566375732422

> <r_mmod_Improper_Torsional_Energy-OPLS-2005>
10.2331056594849

> <r_mmod_Van_der_Waal_Energy-OPLS-2005>
164.111022949219

> <r_mmod_Electrostatic_Energy-OPLS-2005>
-799.797241210938

> <r_mmod_Solvation_Energy-OPLS-2005>
-489.887634277344

> <b_mmod_Minimization_Converged-OPLS-2005>
0

> <r_mmod_RMS_Derivative-OPLS-2005>
9.28933525085449

$$$$
55
                    3D
 Structure written by MMmdl.
157166  0  0  1  0            999 V2000
  -30.6827  -14.8091   20.4441 C   0  0  0  0  0  0
  -30.4081  -12.5121   19.4779 C   0  0  0  0  0  0
  -29.4950  -12.5058   18.2367 C   0  0  0  0  0  0
  -28.0298  -12.3143   18.6628 C   0  0  0  0  0  0
  -27.6260  -13.2420   19.8396 C   0  0  2  0  0  0
  -28.6786  -13.2564   20.9715 C   0  0  0  0  0  0
  -25.2441  -13.8213   20.5722 C   0  0  0  0  0  0
  -24.1764  -13.0436   20.9249 C   0  0  0  0  0  0
  -24.6381  -11.6924   20.8786 C   0  0  0  0  0  0
  -23.9073  -10.4292   21.0422 C   0  0  0  0  0  0
  -24.3626   -9.4202   21.9192 C   0  0  0  0  0  0
  -23.6301   -8.2236   22.0753 C   0  0  0  0  0  0
  -22.4285   -8.0278   21.3542 C   0  0  0  0  0  0
  -21.9922   -9.0254   20.4648 C   0  0  0  0  0  0
  -22.7249  -10.2134   20.3066 C   0  0  0  0  0  0
  -21.6852   -6.0739   22.5281 C   0  0  0  0  0  0
  -21.4015   -6.5645   23.8215 C   0  0  0  0  0  0
  -21.3658   -5.6797   24.9178 C   0  0  0  0  0  0
  -21.6042   -4.3059   24.7227 C   0  0  0  0  0  0
  -21.8819   -3.8150   23.4349 C   0  0  0  0  0  0
  -21.9193   -4.6968   22.3405 C   0  0  0  0  0  0
  -22.7783  -13.5204   21.1893 C   0  0  0  0  0  0
  -22.1661   -4.2154   21.0982 F   0  0  0  0  0  0
  -21.5628   -3.4542   25.7738 F   0  0  0  0  0  0
  -29.9573  -13.6291   20.3558 N   0  0  0  0  0  0
  -26.2870  -12.9442   20.3300 N   0  0  0  0  0  0
  -25.9314  -11.6576   20.5799 N   0  0  0  0  0  0
  -22.0441  -12.8188   22.0451 N   0  0  0  0  0  0
  -25.4065  -15.1936   20.4089 N   0  0  0  0  0  0
  -31.8912  -14.7206   20.2046 O   0  0  0  0  0  0
  -21.6642   -6.8880   21.4240 O   0  0  0  0  0  0
  -22.3466  -14.5505   20.6730 O   0  0  0  0  0  0
  -24.6355  -31.8527   23.1972 C   0  0  0  0  0  0
  -25.9167  -32.4736   23.8326 C   0  0  1  0  0  0
  -27.2052  -27.2223   20.1414 C   0  0  0  0  0  0
  -25.5948  -33.8541   24.2242 N   0  0  0  0  0  0
  -23.4341  -30.4765   21.5409 C   0  0  2  0  0  0
  -24.8824  -28.9230   20.1068 C   0  0  0  0  0  0
  -22.7532  -29.4587   22.4889 C   0  0  0  0  0  0
  -18.0301  -28.1380   22.8482 C   0  0  0  0  0  0
  -24.1493  -36.7278   23.2641 C   0  0  0  0  0  0
  -25.9849  -30.7534   21.3855 C   0  0  0  0  0  0
  -26.0568  -29.3742   20.7251 C   0  0  0  0  0  0
  -27.2256  -28.5371   20.7311 C   0  0  0  0  0  0
  -26.0193  -26.8659   19.4644 C   0  0  0  0  0  0
  -24.8715  -27.6788   19.4617 C   0  0  0  0  0  0
  -23.6551  -29.8140   20.1562 C   0  0  0  0  0  0
  -25.4121  -36.3056   24.0321 C   0  0  1  0  0  0
  -20.5909  -28.3699   23.1253 C   0  0  2  0  0  0
  -20.6781  -26.9408   22.5403 C   0  0  0  0  0  0
  -19.5754  -26.6373   21.5209 C   0  0  0  0  0  0
  -18.1939  -26.7921   22.1627 C   0  0  0  0  0  0
  -19.1557  -28.8859   23.2860 C   0  0  0  0  0  0
  -18.9474  -30.1460   23.8878 C   0  0  0  0  0  0
  -17.6470  -30.6579   24.0562 C   0  0  0  0  0  0
  -25.9064  -34.9427   23.5085 C   0  0  0  0  0  0
  -16.5361  -29.9074   23.6330 C   0  0  0  0  0  0
  -16.7287  -28.6492   23.0352 C   0  0  0  0  0  0
  -26.4516  -31.6574   25.0732 C   0  0  0  0  0  0
  -25.3725  -31.3740   26.1443 C   0  0  0  0  0  0
  -27.0377  -30.2981   24.6262 C   0  0  0  0  0  0
  -27.6052  -32.4339   25.7508 C   0  0  0  0  0  0
  -27.5578  -37.1796   24.8465 C   0  0  0  0  0  0
  -21.4234  -29.3042   22.3636 N   0  0  0  0  0  0
  -26.4291  -37.3759   23.9402 N   0  0  0  0  0  0
  -24.7040  -31.0463   22.0966 N   0  0  0  0  0  0
  -23.4215  -28.8123   23.2996 O   0  0  0  0  0  0
  -28.2346  -26.2429   20.2034 O   0  0  0  0  0  0
  -26.5639  -34.8909   22.4655 O   0  0  0  0  0  0
  -23.5498  -32.1363   23.7247 O   0  0  0  0  0  0
  -29.3077  -21.4893   19.2639 C   0  0  0  0  0  0
  -28.9864  -22.8959   19.3386 C   0  0  0  0  0  0
  -28.4815  -23.4390   20.5566 C   0  0  0  0  0  0
  -29.1061  -20.6153   20.3745 C   0  0  0  0  0  0
  -30.6617  -18.7333   20.9124 C   0  0  0  0  0  0
  -28.3949  -18.1653   20.7172 C   0  0  0  0  0  0
  -31.1091  -17.2704   20.5126 C   0  0  0  0  0  0
  -28.7423  -16.6179   20.4306 C   0  0  0  0  0  0
  -27.8165  -24.8994   20.7840 C   0  0  0  0  0  0
  -29.1301  -23.7821   18.1152 C   0  0  0  0  0  0
  -28.3351  -22.5387   21.5922 N   0  0  0  0  0  0
  -28.6289  -21.2047   21.5135 N   0  0  0  0  0  0
  -29.3982  -19.1803   20.3207 N   0  0  0  0  0  0
  -30.1451  -16.1159   20.5932 N   0  0  0  0  0  0
  -27.9612  -23.8661   17.4808 F   0  0  0  0  0  0
  -30.0517  -23.3065   17.2766 F   0  0  0  0  0  0
  -31.4478  -12.6051   19.1601 H   0  0  0  0  0  0
  -30.3512  -11.5589   20.0064 H   0  0  0  0  0  0
  -29.7918  -11.7117   17.5498 H   0  0  0  0  0  0
  -29.6041  -13.4436   17.6900 H   0  0  0  0  0  0
  -27.9122  -11.2716   18.9591 H   0  0  0  0  0  0
  -27.3628  -12.4649   17.8130 H   0  0  0  0  0  0
  -27.5895  -14.2424   19.4126 H   0  0  0  0  0  0
  -28.7481  -12.2786   21.4505 H   0  0  0  0  0  0
  -28.4067  -13.9567   21.7608 H   0  0  0  0  0  0
  -25.2770   -9.5681   22.4770 H   0  0  0  0  0  0
  -24.0012   -7.4625   22.7471 H   0  0  0  0  0  0
  -21.0853   -8.8776   19.8952 H   0  0  0  0  0  0
  -22.3705  -10.9679   19.6181 H   0  0  0  0  0  0
  -21.2006   -7.6153   23.9723 H   0  0  0  0  0  0
  -21.1478   -6.0526   25.9082 H   0  0  0  0  0  0
  -22.0597   -2.7613   23.2847 H   0  0  0  0  0  0
  -22.4075  -11.9853   22.4834 H   0  0  0  0  0  0
  -21.1055  -13.1194   22.2658 H   0  0  0  0  0  0
  -24.6308  -15.8386   20.5132 H   0  0  0  0  0  0
  -26.2417  -15.6333   20.0483 H   0  0  0  0  0  0
  -26.7234  -32.5371   23.1063 H   0  0  0  0  0  0
  -25.0076  -33.9670   25.0375 H   0  0  0  0  0  0
  -22.7317  -31.2999   21.3944 H   0  0  0  0  0  0
  -23.3750  -35.9615   23.3302 H   0  0  0  0  0  0
  -24.3575  -36.8908   22.2054 H   0  0  0  0  0  0
  -23.7259  -37.6482   23.6673 H   0  0  0  0  0  0
  -26.1336  -31.5150   20.6186 H   0  0  0  0  0  0
  -26.8585  -30.7977   22.0242 H   0  0  0  0  0  0
  -28.1192  -28.8720   21.2387 H   0  0  0  0  0  0
  -25.9575  -25.9169   18.9506 H   0  0  0  0  0  0
  -23.9775  -27.3334   18.9605 H   0  0  0  0  0  0
  -23.7824  -30.5926   19.4030 H   0  0  0  0  0  0
  -22.7720  -29.2508   19.8494 H   0  0  0  0  0  0
  -25.1308  -36.1893   25.0813 H   0  0  0  0  0  0
  -21.0008  -28.3272   24.1371 H   0  0  0  0  0  0
  -20.5669  -26.2310   23.3612 H   0  0  0  0  0  0
  -21.6647  -26.7412   22.1203 H   0  0  0  0  0  0
  -19.6915  -25.6283   21.1244 H   0  0  0  0  0  0
  -19.6690  -27.3178   20.6733 H   0  0  0  0  0  0
  -17.4206  -26.6670   21.4032 H   0  0  0  0  0  0
  -18.0341  -26.0063   22.9026 H   0  0  0  0  0  0
  -19.7949  -30.7288   24.2230 H   0  0  0  0  0  0
  -17.5020  -31.6255   24.5172 H   0  0  0  0  0  0
  -15.5361  -30.2969   23.7658 H   0  0  0  0  0  0
  -15.8688  -28.0805   22.7070 H   0  0  0  0  0  0
  -24.5888  -30.7106   25.7766 H   0  0  0  0  0  0
  -24.8935  -32.2922   26.4855 H   0  0  0  0  0  0
  -25.8025  -30.8915   27.0229 H   0  0  0  0  0  0
  -26.2984  -29.6709   24.1269 H   0  0  0  0  0  0
  -27.4015  -29.7263   25.4809 H   0  0  0  0  0  0
  -27.8876  -30.4231   23.9550 H   0  0  0  0  0  0
  -27.2632  -33.3638   26.2061 H   0  0  0  0  0  0
  -28.3867  -32.6911   25.0346 H   0  0  0  0  0  0
  -28.0717  -31.8493   26.5445 H   0  0  0  0  0  0
  -28.2597  -38.0090   24.7499 H   0  0  0  0  0  0
  -28.1074  -36.2621   24.6309 H   0  0  0  0  0  0
  -27.2291  -37.1462   25.8867 H   0  0  0  0  0  0
  -20.9425  -29.8775   21.6848 H   0  0  0  0  0  0
  -26.0165  -38.2830   24.1397 H   0  0  0  0  0  0
  -29.6786  -21.0741   18.3388 H   0  0  0  0  0  0
  -31.4513  -19.4351   20.6384 H   0  0  0  0  0  0
  -30.5759  -18.7979   21.9995 H   0  0  0  0  0  0
  -28.2177  -18.2833   21.7880 H   0  0  0  0  0  0
  -27.4432  -18.4112   20.2431 H   0  0  0  0  0  0
  -31.9898  -17.0416   21.1167 H   0  0  0  0  0  0
  -31.4650  -17.3080   19.4816 H   0  0  0  0  0  0
  -28.4693  -16.4072   19.3961 H   0  0  0  0  0  0
  -28.0777  -16.0157   21.0461 H   0  0  0  0  0  0
  -27.8615  -25.0629   21.8612 H   0  0  0  0  0  0
  -26.7587  -24.7218   20.6003 H   0  0  0  0  0  0
  -29.4371  -24.7940   18.3845 H   0  0  0  0  0  0
  1 25  1  0  0  0
  1 30  2  0  0  0
  1 84  1  0  0  0
  2  3  1  0  0  0
  2 25  1  0  0  0
  2 87  1  0  0  0
  2 88  1  0  0  0
  3  4  1  0  0  0
  3 89  1  0  0  0
  3 90  1  0  0  0
  4  5  1  0  0  0
  4 91  1  0  0  0
  4 92  1  0  0  0
  5  6  1  0  0  0
  5 26  1  0  0  0
  5 93  1  0  0  0
  6 25  1  0  0  0
  6 94  1  0  0  0
  6 95  1  0  0  0
  7  8  2  0  0  0
  7 26  1  0  0  0
  7 29  1  0  0  0
  8  9  1  0  0  0
  8 22  1  0  0  0
  9 10  1  0  0  0
  9 27  2  0  0  0
 10 11  2  0  0  0
 10 15  1  0  0  0
 11 12  1  0  0  0
 11 96  1  0  0  0
 12 13  2  0  0  0
 12 97  1  0  0  0
 13 14  1  0  0  0
 13 31  1  0  0  0
 14 15  2  0  0  0
 14 98  1  0  0  0
 15 99  1  0  0  0
 16 17  2  0  0  0
 16 21  1  0  0  0
 16 31  1  0  0  0
 17 18  1  0  0  0
 17100  1  0  0  0
 18 19  2  0  0  0
 18101  1  0  0  0
 19 20  1  0  0  0
 19 24  1  0  0  0
 20 21  2  0  0  0
 20102  1  0  0  0
 21 23  1  0  0  0
 22 28  1  0  0  0
 22 32  2  0  0  0
 26 27  1  0  0  0
 28103  1  0  0  0
 28104  1  0  0  0
 29105  1  0  0  0
 29106  1  0  0  0
 33 34  1  0  0  0
 33 66  1  0  0  0
 33 70  2  0  0  0
 34 36  1  0  0  0
 34 59  1  0  0  0
 34107  1  0  0  0
 35 44  2  0  0  0
 35 45  1  0  0  0
 35 68  1  0  0  0
 36 56  1  0  0  0
 36108  1  0  0  0
 37 39  1  0  0  0
 37 47  1  0  0  0
 37 66  1  0  0  0
 37109  1  0  0  0
 38 43  2  0  0  0
 38 46  1  0  0  0
 38 47  1  0  0  0
 39 64  1  0  0  0
 39 67  2  0  0  0
 40 52  1  0  0  0
 40 53  2  0  0  0
 40 58  1  0  0  0
 41110  1  0  0  0
 41111  1  0  0  0
 41112  1  0  0  0
 41 48  1  0  0  0
 42 43  1  0  0  0
 42 66  1  0  0  0
 42113  1  0  0  0
 42114  1  0  0  0
 43 44  1  0  0  0
 44115  1  0  0  0
 45 46  2  0  0  0
 45116  1  0  0  0
 46117  1  0  0  0
 47118  1  0  0  0
 47119  1  0  0  0
 48 56  1  0  0  0
 48 65  1  0  0  0
 48120  1  0  0  0
 49 50  1  0  0  0
 49 53  1  0  0  0
 49 64  1  0  0  0
 49121  1  0  0  0
 50 51  1  0  0  0
 50122  1  0  0  0
 50123  1  0  0  0
 51 52  1  0  0  0
 51124  1  0  0  0
 51125  1  0  0  0
 52126  1  0  0  0
 52127  1  0  0  0
 53 54  1  0  0  0
 54 55  2  0  0  0
 54128  1  0  0  0
 55 57  1  0  0  0
 55129  1  0  0  0
 56 69  2  0  0  0
 57 58  2  0  0  0
 57130  1  0  0  0
 58131  1  0  0  0
 59 60  1  0  0  0
 59 61  1  0  0  0
 59 62  1  0  0  0
 60132  1  0  0  0
 60133  1  0  0  0
 60134  1  0  0  0
 61135  1  0  0  0
 61136  1  0  0  0
 61137  1  0  0  0
 62138  1  0  0  0
 62139  1  0  0  0
 62140  1  0  0  0
 63 65  1  0  0  0
 63141  1  0  0  0
 63142  1  0  0  0
 63143  1  0  0  0
 64144  1  0  0  0
 65145  1  0  0  0
 68 79  1  0  0  0
 71 72  2  0  0  0
 71 74  1  0  0  0
 71146  1  0  0  0
 72 73  1  0  0  0
 72 80  1  0  0  0
 73 79  1  0  0  0
 73 81  2  0  0  0
 74 82  2  0  0  0
 74 83  1  0  0  0
 75 77  1  0  0  0
 75 83  1  0  0  0
 75147  1  0  0  0
 75148  1  0  0  0
 76 78  1  0  0  0
 76 83  1  0  0  0
 76149  1  0  0  0
 76150  1  0  0  0
 77 84  1  0  0  0
 77151  1  0  0  0
 77152  1  0  0  0
 78 84  1  0  0  0
 78153  1  0  0  0
 78154  1  0  0  0
 79155  1  0  0  0
 79156  1  0  0  0
 80 85  1  0  0  0
 80 86  1  0  0  0
 80157  1  0  0  0
 81 82  1  0  0  0
M  ISO  4   1 100  68 101  79 101  84 100
M  END
> <chiral flag>
0

> <version>
0

> <s_m_source_file>
/data/baiqing/PycharmProjects/Reinvent-master-3.2/result/LINK_invent/BTK/process_docking_weight1_custom_sum_contain_oxygen_bond_distance_aromatic_linkinvent_7_9_3/rearranged_h_0199.sdf

> <i_m_source_file_index>
56

> <r_mmod_Potential_Energy-OPLS-2005>
490.559661865234

> <r_mmod_Stretch_Energy-OPLS-2005>
145.431655883789

> <r_mmod_Bend_Energy-OPLS-2005>
245.863586425781

> <r_mmod_Torsional_Energy-OPLS-2005>
366.889862060547

> <r_mmod_Improper_Torsional_Energy-OPLS-2005>
10.7537364959717

> <r_mmod_Van_der_Waal_Energy-OPLS-2005>
148.948944091797

> <r_mmod_Electrostatic_Energy-OPLS-2005>
-321.977752685547

> <r_mmod_Solvation_Energy-OPLS-2005>
-231.647155761719

> <b_mmod_Minimization_Converged-OPLS-2005>
0

> <r_mmod_RMS_Derivative-OPLS-2005>
0.734691739082336

$$$$
56
                    3D
 Structure written by MMmdl.
165174  0  0  1  0            999 V2000
  -30.7145  -14.4975   20.5366 C   0  0  0  0  0  0
  -30.4149  -12.3027   19.4664 C   0  0  0  0  0  0
  -29.5066  -12.4990   18.2338 C   0  0  0  0  0  0
  -28.0268  -12.3476   18.6371 C   0  0  0  0  0  0
  -27.6575  -13.2117   19.8729 C   0  0  2  0  0  0
  -28.6954  -13.0534   21.0128 C   0  0  0  0  0  0
  -25.2563  -13.8153   20.5674 C   0  0  0  0  0  0
  -24.1814  -13.0439   20.9146 C   0  0  0  0  0  0
  -24.6363  -11.6904   20.8714 C   0  0  0  0  0  0
  -23.9014  -10.4289   21.0376 C   0  0  0  0  0  0
  -24.3565   -9.4224   21.9170 C   0  0  0  0  0  0
  -23.6255   -8.2254   22.0767 C   0  0  0  0  0  0
  -22.4241   -8.0264   21.3547 C   0  0  0  0  0  0
  -21.9853   -9.0224   20.4650 C   0  0  0  0  0  0
  -22.7174  -10.2113   20.3052 C   0  0  0  0  0  0
  -21.6845   -6.0700   22.5271 C   0  0  0  0  0  0
  -21.4006   -6.5629   23.8194 C   0  0  0  0  0  0
  -21.3675   -5.6807   24.9174 C   0  0  0  0  0  0
  -21.6048   -4.3060   24.7242 C   0  0  0  0  0  0
  -21.8819   -3.8130   23.4366 C   0  0  0  0  0  0
  -21.9186   -4.6924   22.3414 C   0  0  0  0  0  0
  -22.7841  -13.5253   21.1788 C   0  0  0  0  0  0
  -22.1652   -4.2117   21.0980 F   0  0  0  0  0  0
  -21.5644   -3.4548   25.7750 F   0  0  0  0  0  0
  -30.0322  -13.3200   20.4595 N   0  0  0  0  0  0
  -26.2994  -12.9347   20.3353 N   0  0  0  0  0  0
  -25.9307  -11.6498   20.5785 N   0  0  0  0  0  0
  -22.0458  -12.8294   22.0347 N   0  0  0  0  0  0
  -25.4296  -15.1876   20.4096 N   0  0  0  0  0  0
  -31.8401  -14.6348   20.0531 O   0  0  0  0  0  0
  -21.6659   -6.8824   21.4220 O   0  0  0  0  0  0
  -22.3556  -14.5557   20.6615 O   0  0  0  0  0  0
  -24.6181  -31.8694   23.2142 C   0  0  0  0  0  0
  -25.9047  -32.4851   23.8466 C   0  0  1  0  0  0
  -27.2247  -27.4182   20.0885 C   0  0  0  0  0  0
  -25.5898  -33.8650   24.2385 N   0  0  0  0  0  0
  -23.4047  -30.4994   21.5532 C   0  0  2  0  0  0
  -24.8490  -28.9778   20.1014 C   0  0  0  0  0  0
  -22.7445  -29.4676   22.4970 C   0  0  0  0  0  0
  -18.0283  -28.1395   22.8529 C   0  0  0  0  0  0
  -24.1455  -36.7318   23.2646 C   0  0  0  0  0  0
  -25.9385  -30.8320   21.3689 C   0  0  0  0  0  0
  -26.0111  -29.4668   20.7105 C   0  0  0  0  0  0
  -27.2021  -28.6958   20.7031 C   0  0  0  0  0  0
  -26.0451  -26.9688   19.4443 C   0  0  0  0  0  0
  -24.8640  -27.7326   19.4558 C   0  0  0  0  0  0
  -23.6117  -29.8444   20.1612 C   0  0  0  0  0  0
  -25.4089  -36.3127   24.0351 C   0  0  1  0  0  0
  -20.5889  -28.3663   23.1332 C   0  0  2  0  0  0
  -20.6775  -26.9401   22.5414 C   0  0  0  0  0  0
  -19.5725  -26.6390   21.5243 C   0  0  0  0  0  0
  -18.1907  -26.7955   22.1643 C   0  0  0  0  0  0
  -19.1543  -28.8853   23.2934 C   0  0  0  0  0  0
  -18.9467  -30.1486   23.8907 C   0  0  0  0  0  0
  -17.6464  -30.6599   24.0586 C   0  0  0  0  0  0
  -25.9008  -34.9490   23.5149 C   0  0  0  0  0  0
  -16.5354  -29.9098   23.6343 C   0  0  0  0  0  0
  -16.7275  -28.6516   23.0361 C   0  0  0  0  0  0
  -26.4462  -31.6657   25.0806 C   0  0  0  0  0  0
  -25.3744  -31.3761   26.1569 C   0  0  0  0  0  0
  -27.0281  -30.3108   24.6154 C   0  0  0  0  0  0
  -27.6052  -32.4400   25.7554 C   0  0  0  0  0  0
  -27.5560  -37.1819   24.8477 C   0  0  0  0  0  0
  -21.4169  -29.3040   22.3745 N   0  0  0  0  0  0
  -26.4261  -37.3832   23.9429 N   0  0  0  0  0  0
  -24.6733  -31.0818   22.1029 N   0  0  0  0  0  0
  -23.4230  -28.8230   23.3010 O   0  0  0  0  0  0
  -28.3682  -26.6267   20.1411 O   0  0  0  0  0  0
  -26.5564  -34.8941   22.4708 O   0  0  0  0  0  0
  -23.5368  -32.1417   23.7535 O   0  0  0  0  0  0
  -31.6233  -17.5714   20.7714 C   0  0  0  0  0  0
  -28.6466  -22.9329   21.2012 C   0  0  0  0  0  0
  -31.3512  -19.0469   20.4775 C   0  0  0  0  0  0
  -29.2966  -18.0301   21.0370 C   0  0  0  0  0  0
  -30.2433  -23.7125   19.6439 C   0  0  0  0  0  0
  -29.2226  -24.2546   20.6535 C   0  0  1  0  0  0
  -30.2606  -16.9529   20.4869 C   0  0  1  0  0  0
  -29.7897  -21.8861   21.1557 C   0  0  1  0  0  0
  -32.1266  -22.6642   20.8625 C   0  0  0  0  0  0
  -28.1331  -25.1996   20.0652 C   0  0  0  0  0  0
  -29.2833  -20.4740   20.7059 C   0  0  0  0  0  0
  -30.0650  -19.2917   21.1371 N   0  0  0  0  0  0
  -30.0235  -15.5725   20.9709 N   0  0  0  0  0  0
  -30.8017  -22.4617   20.2276 N   0  3  2  0  0  0
  -31.4680  -12.3686   19.1837 H   0  0  0  0  0  0
  -30.2847  -11.3052   19.8885 H   0  0  0  0  0  0
  -29.7589  -11.7797   17.4527 H   0  0  0  0  0  0
  -29.6774  -13.4887   17.8065 H   0  0  0  0  0  0
  -27.8488  -11.2933   18.8588 H   0  0  0  0  0  0
  -27.3805  -12.5914   17.7938 H   0  0  0  0  0  0
  -27.6830  -14.2494   19.5379 H   0  0  0  0  0  0
  -28.6680  -12.0476   21.4297 H   0  0  0  0  0  0
  -28.4606  -13.7252   21.8419 H   0  0  0  0  0  0
  -25.2681   -9.5761   22.4780 H   0  0  0  0  0  0
  -23.9971   -7.4676   22.7526 H   0  0  0  0  0  0
  -21.0774   -8.8707   19.8983 H   0  0  0  0  0  0
  -22.3554  -10.9645   19.6195 H   0  0  0  0  0  0
  -21.2005   -7.6140   23.9675 H   0  0  0  0  0  0
  -21.1497   -6.0546   25.9073 H   0  0  0  0  0  0
  -22.0581   -2.7583   23.2879 H   0  0  0  0  0  0
  -22.4008  -11.9978   22.4840 H   0  0  0  0  0  0
  -21.1098  -13.1400   22.2512 H   0  0  0  0  0  0
  -24.6605  -15.8430   20.4994 H   0  0  0  0  0  0
  -26.2944  -15.6243   20.1170 H   0  0  0  0  0  0
  -26.7141  -32.5538   23.1251 H   0  0  0  0  0  0
  -25.0133  -33.9836   25.0578 H   0  0  0  0  0  0
  -22.6953  -31.3210   21.4207 H   0  0  0  0  0  0
  -23.3718  -35.9649   23.3341 H   0  0  0  0  0  0
  -24.3538  -36.8893   22.2054 H   0  0  0  0  0  0
  -23.7195  -37.6533   23.6628 H   0  0  0  0  0  0
  -26.0515  -31.5969   20.5987 H   0  0  0  0  0  0
  -26.8279  -30.8885   21.9823 H   0  0  0  0  0  0
  -28.0916  -29.0655   21.1923 H   0  0  0  0  0  0
  -26.0081  -26.0274   18.9143 H   0  0  0  0  0  0
  -23.9781  -27.3713   18.9521 H   0  0  0  0  0  0
  -23.7113  -30.6226   19.4052 H   0  0  0  0  0  0
  -22.7342  -29.2656   19.8662 H   0  0  0  0  0  0
  -25.1258  -36.2003   25.0845 H   0  0  0  0  0  0
  -21.0016  -28.3184   24.1446 H   0  0  0  0  0  0
  -20.5731  -26.2254   23.3593 H   0  0  0  0  0  0
  -21.6639  -26.7463   22.1182 H   0  0  0  0  0  0
  -19.6879  -25.6306   21.1254 H   0  0  0  0  0  0
  -19.6659  -27.3227   20.6810 H   0  0  0  0  0  0
  -17.4204  -26.6765   21.4020 H   0  0  0  0  0  0
  -18.0256  -26.0091   22.9027 H   0  0  0  0  0  0
  -19.7928  -30.7341   24.2236 H   0  0  0  0  0  0
  -17.4988  -31.6276   24.5202 H   0  0  0  0  0  0
  -15.5348  -30.2995   23.7672 H   0  0  0  0  0  0
  -15.8670  -28.0847   22.7046 H   0  0  0  0  0  0
  -24.5943  -30.7047   25.7955 H   0  0  0  0  0  0
  -24.8890  -32.2888   26.5017 H   0  0  0  0  0  0
  -25.8107  -30.8981   27.0337 H   0  0  0  0  0  0
  -26.2792  -29.6934   24.1170 H   0  0  0  0  0  0
  -27.4018  -29.7288   25.4598 H   0  0  0  0  0  0
  -27.8651  -30.4484   23.9315 H   0  0  0  0  0  0
  -27.2670  -33.3716   26.2107 H   0  0  0  0  0  0
  -28.3834  -32.6949   25.0357 H   0  0  0  0  0  0
  -28.0731  -31.8559   26.5482 H   0  0  0  0  0  0
  -28.2612  -38.0089   24.7511 H   0  0  0  0  0  0
  -28.0996  -36.2611   24.6286 H   0  0  0  0  0  0
  -27.2267  -37.1498   25.8880 H   0  0  0  0  0  0
  -20.9316  -29.8732   21.6956 H   0  0  0  0  0  0
  -26.0132  -38.2896   24.1461 H   0  0  0  0  0  0
  -31.9138  -17.4330   21.8148 H   0  0  0  0  0  0
  -32.4210  -17.1762   20.1395 H   0  0  0  0  0  0
  -28.2420  -23.0534   22.2079 H   0  0  0  0  0  0
  -27.8196  -22.6065   20.5683 H   0  0  0  0  0  0
  -31.2649  -19.2050   19.3982 H   0  0  0  0  0  0
  -32.1710  -19.6642   20.8419 H   0  0  0  0  0  0
  -28.4200  -18.1203   20.3894 H   0  0  0  0  0  0
  -28.9356  -17.7671   22.0312 H   0  0  0  0  0  0
  -30.9996  -24.4477   19.3642 H   0  0  0  0  0  0
  -29.7385  -23.4385   18.7177 H   0  0  0  0  0  0
  -29.7485  -24.7525   21.4711 H   0  0  0  0  0  0
  -30.1330  -16.9256   19.4034 H   0  0  0  0  0  0
  -30.2056  -21.8096   22.1637 H   0  0  0  0  0  0
  -32.0632  -23.3566   21.7022 H   0  0  0  0  0  0
  -32.8532  -23.0619   20.1540 H   0  0  0  0  0  0
  -32.5318  -21.7303   21.2476 H   0  0  0  0  0  0
  -27.9272  -24.9259   19.0291 H   0  0  0  0  0  0
  -27.2237  -24.9846   20.6254 H   0  0  0  0  0  0
  -29.0946  -20.4554   19.6289 H   0  0  0  0  0  0
  -28.3028  -20.3540   21.1720 H   0  0  0  0  0  0
  -29.1353  -15.3963   21.4177 H   0  0  0  0  0  0
  -30.9369  -21.8094   19.4703 H   0  0  0  0  0  0
  1 25  1  0  0  0
  1 30  2  0  0  0
  1 83  1  0  0  0
  2  3  1  0  0  0
  2 25  1  0  0  0
  2 85  1  0  0  0
  2 86  1  0  0  0
  3  4  1  0  0  0
  3 87  1  0  0  0
  3 88  1  0  0  0
  4  5  1  0  0  0
  4 89  1  0  0  0
  4 90  1  0  0  0
  5  6  1  0  0  0
  5 26  1  0  0  0
  5 91  1  0  0  0
  6 25  1  0  0  0
  6 92  1  0  0  0
  6 93  1  0  0  0
  7  8  2  0  0  0
  7 26  1  0  0  0
  7 29  1  0  0  0
  8  9  1  0  0  0
  8 22  1  0  0  0
  9 10  1  0  0  0
  9 27  2  0  0  0
 10 11  2  0  0  0
 10 15  1  0  0  0
 11 12  1  0  0  0
 11 94  1  0  0  0
 12 13  2  0  0  0
 12 95  1  0  0  0
 13 14  1  0  0  0
 13 31  1  0  0  0
 14 15  2  0  0  0
 14 96  1  0  0  0
 15 97  1  0  0  0
 16 17  2  0  0  0
 16 21  1  0  0  0
 16 31  1  0  0  0
 17 18  1  0  0  0
 17 98  1  0  0  0
 18 19  2  0  0  0
 18 99  1  0  0  0
 19 20  1  0  0  0
 19 24  1  0  0  0
 20 21  2  0  0  0
 20100  1  0  0  0
 21 23  1  0  0  0
 22 28  1  0  0  0
 22 32  2  0  0  0
 26 27  1  0  0  0
 28101  1  0  0  0
 28102  1  0  0  0
 29103  1  0  0  0
 29104  1  0  0  0
 33 34  1  0  0  0
 33 66  1  0  0  0
 33 70  2  0  0  0
 34 36  1  0  0  0
 34 59  1  0  0  0
 34105  1  0  0  0
 35 44  2  0  0  0
 35 45  1  0  0  0
 35 68  1  0  0  0
 36 56  1  0  0  0
 36106  1  0  0  0
 37 39  1  0  0  0
 37 47  1  0  0  0
 37 66  1  0  0  0
 37107  1  0  0  0
 38 43  2  0  0  0
 38 46  1  0  0  0
 38 47  1  0  0  0
 39 64  1  0  0  0
 39 67  2  0  0  0
 40 52  1  0  0  0
 40 53  2  0  0  0
 40 58  1  0  0  0
 41108  1  0  0  0
 41109  1  0  0  0
 41110  1  0  0  0
 41 48  1  0  0  0
 42 43  1  0  0  0
 42 66  1  0  0  0
 42111  1  0  0  0
 42112  1  0  0  0
 43 44  1  0  0  0
 44113  1  0  0  0
 45 46  2  0  0  0
 45114  1  0  0  0
 46115  1  0  0  0
 47116  1  0  0  0
 47117  1  0  0  0
 48 56  1  0  0  0
 48 65  1  0  0  0
 48118  1  0  0  0
 49 50  1  0  0  0
 49 53  1  0  0  0
 49 64  1  0  0  0
 49119  1  0  0  0
 50 51  1  0  0  0
 50120  1  0  0  0
 50121  1  0  0  0
 51 52  1  0  0  0
 51122  1  0  0  0
 51123  1  0  0  0
 52124  1  0  0  0
 52125  1  0  0  0
 53 54  1  0  0  0
 54 55  2  0  0  0
 54126  1  0  0  0
 55 57  1  0  0  0
 55127  1  0  0  0
 56 69  2  0  0  0
 57 58  2  0  0  0
 57128  1  0  0  0
 58129  1  0  0  0
 59 60  1  0  0  0
 59 61  1  0  0  0
 59 62  1  0  0  0
 60130  1  0  0  0
 60131  1  0  0  0
 60132  1  0  0  0
 61133  1  0  0  0
 61134  1  0  0  0
 61135  1  0  0  0
 62136  1  0  0  0
 62137  1  0  0  0
 62138  1  0  0  0
 63 65  1  0  0  0
 63139  1  0  0  0
 63140  1  0  0  0
 63141  1  0  0  0
 64142  1  0  0  0
 65143  1  0  0  0
 68 80  1  0  0  0
 71 73  1  0  0  0
 71 77  1  0  0  0
 71144  1  0  0  0
 71145  1  0  0  0
 72 76  1  0  0  0
 72 78  1  0  0  0
 72146  1  0  0  0
 72147  1  0  0  0
 73 82  1  0  0  0
 73148  1  0  0  0
 73149  1  0  0  0
 74 77  1  0  0  0
 74 82  1  0  0  0
 74150  1  0  0  0
 74151  1  0  0  0
 75 76  1  0  0  0
 75 84  1  0  0  0
 75152  1  0  0  0
 75153  1  0  0  0
 76 80  1  0  0  0
 76154  1  0  0  0
 77 83  1  0  0  0
 77155  1  0  0  0
 78 81  1  0  0  0
 78 84  1  0  0  0
 78156  1  0  0  0
 79157  1  0  0  0
 79158  1  0  0  0
 79159  1  0  0  0
 79 84  1  0  0  0
 80160  1  0  0  0
 80161  1  0  0  0
 81 82  1  0  0  0
 81162  1  0  0  0
 81163  1  0  0  0
 83164  1  0  0  0
 84165  1  0  0  0
M  CHG  1  84   1
M  ISO  4   1 100  68 101  80 101  83 100
M  END
> <chiral flag>
0

> <version>
0

> <s_m_source_file>
/data/baiqing/PycharmProjects/Reinvent-master-3.2/result/LINK_invent/BTK/process_docking_weight1_custom_sum_contain_oxygen_bond_distance_aromatic_linkinvent_7_9_3/rearranged_h_0199.sdf

> <i_m_source_file_index>
57

> <r_mmod_Potential_Energy-OPLS-2005>
-16.5198574066162

> <r_mmod_Stretch_Energy-OPLS-2005>
45.2011299133301

> <r_mmod_Bend_Energy-OPLS-2005>
161.592971801758

> <r_mmod_Torsional_Energy-OPLS-2005>
329.33984375

> <r_mmod_Improper_Torsional_Energy-OPLS-2005>
5.68155384063721

> <r_mmod_Van_der_Waal_Energy-OPLS-2005>
136.598785400391

> <r_mmod_Electrostatic_Energy-OPLS-2005>
-269.275451660156

> <r_mmod_Solvation_Energy-OPLS-2005>
-446.090209960938

> <b_mmod_Minimization_Converged-OPLS-2005>
0

> <r_mmod_RMS_Derivative-OPLS-2005>
4.98040771484375

$$$$
57
                    3D
 Structure written by MMmdl.
158168  0  0  1  0            999 V2000
  -30.4979  -15.0145   20.4262 C   0  0  0  0  0  0
  -30.4412  -12.6358   19.5067 C   0  0  0  0  0  0
  -29.5295  -12.5375   18.2613 C   0  0  0  0  0  0
  -28.0624  -12.3127   18.6743 C   0  0  0  0  0  0
  -27.6236  -13.2515   19.8292 C   0  0  2  0  0  0
  -28.6588  -13.3037   20.9703 C   0  0  0  0  0  0
  -25.2431  -13.8217   20.5682 C   0  0  0  0  0  0
  -24.1741  -13.0443   20.9204 C   0  0  0  0  0  0
  -24.6369  -11.6932   20.8729 C   0  0  0  0  0  0
  -23.9073  -10.4302   21.0401 C   0  0  0  0  0  0
  -24.3622   -9.4218   21.9183 C   0  0  0  0  0  0
  -23.6283   -8.2249   22.0758 C   0  0  0  0  0  0
  -22.4261   -8.0281   21.3552 C   0  0  0  0  0  0
  -21.9891   -9.0260   20.4657 C   0  0  0  0  0  0
  -22.7234  -10.2134   20.3065 C   0  0  0  0  0  0
  -21.6855   -6.0724   22.5266 C   0  0  0  0  0  0
  -21.4026   -6.5629   23.8206 C   0  0  0  0  0  0
  -21.3660   -5.6784   24.9162 C   0  0  0  0  0  0
  -21.6048   -4.3043   24.7210 C   0  0  0  0  0  0
  -21.8818   -3.8140   23.4338 C   0  0  0  0  0  0
  -21.9186   -4.6958   22.3395 C   0  0  0  0  0  0
  -22.7760  -13.5220   21.1855 C   0  0  0  0  0  0
  -22.1662   -4.2150   21.0964 F   0  0  0  0  0  0
  -21.5626   -3.4523   25.7733 F   0  0  0  0  0  0
  -29.9254  -13.7400   20.3703 N   0  0  0  0  0  0
  -26.2843  -12.9457   20.3165 N   0  0  0  0  0  0
  -25.9306  -11.6596   20.5696 N   0  0  0  0  0  0
  -22.0407  -12.8229   22.0419 N   0  0  0  0  0  0
  -25.4121  -15.1953   20.4159 N   0  0  0  0  0  0
  -31.7122  -15.0807   20.2037 O   0  0  0  0  0  0
  -21.6633   -6.8869   21.4236 O   0  0  0  0  0  0
  -22.3459  -14.5529   20.6705 O   0  0  0  0  0  0
  -24.6495  -31.8395   23.1848 C   0  0  0  0  0  0
  -25.9238  -32.4669   23.8255 C   0  0  1  0  0  0
  -27.2037  -27.0804   20.1610 C   0  0  0  0  0  0
  -25.5963  -33.8478   24.2182 N   0  0  0  0  0  0
  -23.4550  -30.4604   21.5310 C   0  0  2  0  0  0
  -24.9034  -28.8826   20.1049 C   0  0  0  0  0  0
  -22.7594  -29.4528   22.4823 C   0  0  0  0  0  0
  -18.0321  -28.1400   22.8479 C   0  0  0  0  0  0
  -24.1506  -36.7253   23.2643 C   0  0  0  0  0  0
  -26.0156  -30.6943   21.3955 C   0  0  0  0  0  0
  -26.0804  -29.3015   20.7375 C   0  0  0  0  0  0
  -27.2278  -28.4142   20.7542 C   0  0  0  0  0  0
  -26.0106  -26.7912   19.4601 C   0  0  0  0  0  0
  -24.8858  -27.6439   19.4485 C   0  0  0  0  0  0
  -23.6842  -29.7925   20.1486 C   0  0  0  0  0  0
  -25.4135  -36.3027   24.0322 C   0  0  1  0  0  0
  -20.5938  -28.3738   23.1218 C   0  0  2  0  0  0
  -20.6814  -26.9436   22.5404 C   0  0  0  0  0  0
  -19.5779  -26.6388   21.5217 C   0  0  0  0  0  0
  -18.1958  -26.7933   22.1630 C   0  0  0  0  0  0
  -19.1579  -28.8888   23.2840 C   0  0  0  0  0  0
  -18.9491  -30.1480   23.8876 C   0  0  0  0  0  0
  -17.6485  -30.6591   24.0560 C   0  0  0  0  0  0
  -25.9086  -34.9395   23.5066 C   0  0  0  0  0  0
  -16.5378  -29.9088   23.6332 C   0  0  0  0  0  0
  -16.7301  -28.6504   23.0350 C   0  0  0  0  0  0
  -26.4527  -31.6538   25.0721 C   0  0  0  0  0  0
  -25.3697  -31.3756   26.1410 C   0  0  0  0  0  0
  -27.0365  -30.2909   24.6352 C   0  0  0  0  0  0
  -27.6077  -32.4284   25.7478 C   0  0  0  0  0  0
  -27.5590  -37.1787   24.8466 C   0  0  0  0  0  0
  -21.4280  -29.3051   22.3568 N   0  0  0  0  0  0
  -26.4303  -37.3741   23.9402 N   0  0  0  0  0  0
  -24.7263  -31.0215   22.0900 N   0  0  0  0  0  0
  -23.4210  -28.8081   23.2998 O   0  0  0  0  0  0
  -28.2173  -26.0440   20.2813 O   0  0  0  0  0  0
  -26.5687  -34.8897   22.4657 O   0  0  0  0  0  0
  -23.5598  -32.1270   23.7056 O   0  0  0  0  0  0
  -29.0947  -20.7678   20.8011 C   0  0  0  0  0  0
  -29.3627  -22.2225   22.5201 C   0  0  0  0  0  0
  -28.6405  -23.1555   20.5998 C   0  0  0  0  0  0
  -27.7718  -21.5156   25.7062 C   0  0  0  0  0  0
  -28.4049  -22.7337   26.3249 C   0  0  0  0  0  0
  -29.9262  -18.5594   19.3286 C   0  0  0  0  0  0
  -29.0093  -19.1386   20.3829 C   0  0  1  0  0  0
  -28.3356  -22.6053   24.8137 C   0  0  0  0  0  0
  -29.9860  -17.7536   20.6082 C   0  0  1  0  0  0
  -29.6216  -22.4307   24.0088 C   0  0  0  0  0  0
  -27.9638  -24.5244   19.9155 C   0  0  0  0  0  0
  -29.4258  -20.9634   22.0736 N   0  0  0  0  0  0
  -28.6534  -21.8615   20.0349 N   0  0  0  0  0  0
  -29.0173  -23.3268   21.8592 N   0  0  0  0  0  0
  -29.6857  -16.2004   20.5200 N   0  0  0  0  0  0
  -31.4735  -12.8114   19.2015 H   0  0  0  0  0  0
  -30.4513  -11.6927   20.0562 H   0  0  0  0  0  0
  -29.8654  -11.7344   17.6051 H   0  0  0  0  0  0
  -29.6104  -13.4604   17.6821 H   0  0  0  0  0  0
  -27.9590  -11.2715   18.9856 H   0  0  0  0  0  0
  -27.4070  -12.4439   17.8138 H   0  0  0  0  0  0
  -27.5797  -14.2485   19.3873 H   0  0  0  0  0  0
  -28.7610  -12.3331   21.4588 H   0  0  0  0  0  0
  -28.3411  -14.0089   21.7428 H   0  0  0  0  0  0
  -25.2765   -9.5703   22.4751 H   0  0  0  0  0  0
  -23.9993   -7.4648   22.7481 H   0  0  0  0  0  0
  -21.0812   -8.8792   19.8962 H   0  0  0  0  0  0
  -22.3685  -10.9674   19.6176 H   0  0  0  0  0  0
  -21.2037   -7.6148   23.9702 H   0  0  0  0  0  0
  -21.1483   -6.0518   25.9065 H   0  0  0  0  0  0
  -22.0597   -2.7602   23.2832 H   0  0  0  0  0  0
  -22.4008  -11.9924   22.4883 H   0  0  0  0  0  0
  -21.1042  -13.1303   22.2642 H   0  0  0  0  0  0
  -24.6445  -15.8475   20.5337 H   0  0  0  0  0  0
  -26.2516  -15.6333   20.0624 H   0  0  0  0  0  0
  -26.7315  -32.5265   23.0988 H   0  0  0  0  0  0
  -25.0055  -33.9573   25.0290 H   0  0  0  0  0  0
  -22.7625  -31.2909   21.3784 H   0  0  0  0  0  0
  -23.3773  -35.9577   23.3290 H   0  0  0  0  0  0
  -24.3598  -36.8897   22.2060 H   0  0  0  0  0  0
  -23.7257  -37.6448   23.6679 H   0  0  0  0  0  0
  -26.1894  -31.4464   20.6240 H   0  0  0  0  0  0
  -26.8782  -30.7369   22.0477 H   0  0  0  0  0  0
  -28.1145  -28.7239   21.2890 H   0  0  0  0  0  0
  -25.9026  -25.8577   18.9291 H   0  0  0  0  0  0
  -23.9934  -27.3247   18.9276 H   0  0  0  0  0  0
  -23.8305  -30.5692   19.3972 H   0  0  0  0  0  0
  -22.7957  -29.2440   19.8312 H   0  0  0  0  0  0
  -25.1321  -36.1856   25.0815 H   0  0  0  0  0  0
  -21.0039  -28.3353   24.1333 H   0  0  0  0  0  0
  -20.5724  -26.2353   23.3629 H   0  0  0  0  0  0
  -21.6679  -26.7448   22.1197 H   0  0  0  0  0  0
  -19.6937  -25.6288   21.1273 H   0  0  0  0  0  0
  -19.6706  -27.3184   20.6728 H   0  0  0  0  0  0
  -17.4222  -26.6674   21.4035 H   0  0  0  0  0  0
  -18.0361  -26.0083   22.9036 H   0  0  0  0  0  0
  -19.7962  -30.7308   24.2237 H   0  0  0  0  0  0
  -17.5029  -31.6267   24.5169 H   0  0  0  0  0  0
  -15.5374  -30.2980   23.7652 H   0  0  0  0  0  0
  -15.8702  -28.0811   22.7073 H   0  0  0  0  0  0
  -24.5846  -30.7146   25.7719 H   0  0  0  0  0  0
  -24.8932  -32.2954   26.4808 H   0  0  0  0  0  0
  -25.7955  -30.8917   27.0208 H   0  0  0  0  0  0
  -26.2967  -29.6634   24.1373 H   0  0  0  0  0  0
  -27.3932  -29.7220   25.4949 H   0  0  0  0  0  0
  -27.8911  -30.4099   23.9694 H   0  0  0  0  0  0
  -27.2689  -33.3592   26.2029 H   0  0  0  0  0  0
  -28.3874  -32.6816   25.0283 H   0  0  0  0  0  0
  -28.0748  -31.8422   26.5401 H   0  0  0  0  0  0
  -28.2610  -38.0082   24.7511 H   0  0  0  0  0  0
  -28.1089  -36.2621   24.6288 H   0  0  0  0  0  0
  -27.2322  -37.1434   25.8873 H   0  0  0  0  0  0
  -20.9495  -29.8730   21.6717 H   0  0  0  0  0  0
  -26.0181  -38.2822   24.1354 H   0  0  0  0  0  0
  -26.6882  -21.4295   25.7775 H   0  0  0  0  0  0
  -28.3182  -20.5777   25.7847 H   0  0  0  0  0  0
  -29.3711  -22.6032   26.8068 H   0  0  0  0  0  0
  -27.7424  -23.4526   26.8070 H   0  0  0  0  0  0
  -30.8194  -19.1304   19.0837 H   0  0  0  0  0  0
  -29.4427  -18.1069   18.4668 H   0  0  0  0  0  0
  -27.9498  -18.9208   20.2647 H   0  0  0  0  0  0
  -27.6195  -23.2733   24.3387 H   0  0  0  0  0  0
  -30.8340  -17.9670   21.2552 H   0  0  0  0  0  0
  -30.2319  -23.3256   24.1352 H   0  0  0  0  0  0
  -30.2008  -21.6033   24.4186 H   0  0  0  0  0  0
  -26.9018  -24.3407   20.0684 H   0  0  0  0  0  0
  -28.1128  -24.4409   18.8389 H   0  0  0  0  0  0
  -28.7071  -15.9832   20.6163 H   0  0  0  0  0  0
  1 25  1  0  0  0
  1 30  2  0  0  0
  1 85  1  0  0  0
  2  3  1  0  0  0
  2 25  1  0  0  0
  2 86  1  0  0  0
  2 87  1  0  0  0
  3  4  1  0  0  0
  3 88  1  0  0  0
  3 89  1  0  0  0
  4  5  1  0  0  0
  4 90  1  0  0  0
  4 91  1  0  0  0
  5  6  1  0  0  0
  5 26  1  0  0  0
  5 92  1  0  0  0
  6 25  1  0  0  0
  6 93  1  0  0  0
  6 94  1  0  0  0
  7  8  2  0  0  0
  7 26  1  0  0  0
  7 29  1  0  0  0
  8  9  1  0  0  0
  8 22  1  0  0  0
  9 10  1  0  0  0
  9 27  2  0  0  0
 10 11  2  0  0  0
 10 15  1  0  0  0
 11 12  1  0  0  0
 11 95  1  0  0  0
 12 13  2  0  0  0
 12 96  1  0  0  0
 13 14  1  0  0  0
 13 31  1  0  0  0
 14 15  2  0  0  0
 14 97  1  0  0  0
 15 98  1  0  0  0
 16 17  2  0  0  0
 16 21  1  0  0  0
 16 31  1  0  0  0
 17 18  1  0  0  0
 17 99  1  0  0  0
 18 19  2  0  0  0
 18100  1  0  0  0
 19 20  1  0  0  0
 19 24  1  0  0  0
 20 21  2  0  0  0
 20101  1  0  0  0
 21 23  1  0  0  0
 22 28  1  0  0  0
 22 32  2  0  0  0
 26 27  1  0  0  0
 28102  1  0  0  0
 28103  1  0  0  0
 29104  1  0  0  0
 29105  1  0  0  0
 33 34  1  0  0  0
 33 66  1  0  0  0
 33 70  2  0  0  0
 34 36  1  0  0  0
 34 59  1  0  0  0
 34106  1  0  0  0
 35 44  2  0  0  0
 35 45  1  0  0  0
 35 68  1  0  0  0
 36 56  1  0  0  0
 36107  1  0  0  0
 37 39  1  0  0  0
 37 47  1  0  0  0
 37 66  1  0  0  0
 37108  1  0  0  0
 38 43  2  0  0  0
 38 46  1  0  0  0
 38 47  1  0  0  0
 39 64  1  0  0  0
 39 67  2  0  0  0
 40 52  1  0  0  0
 40 53  2  0  0  0
 40 58  1  0  0  0
 41109  1  0  0  0
 41110  1  0  0  0
 41111  1  0  0  0
 41 48  1  0  0  0
 42 43  1  0  0  0
 42 66  1  0  0  0
 42112  1  0  0  0
 42113  1  0  0  0
 43 44  1  0  0  0
 44114  1  0  0  0
 45 46  2  0  0  0
 45115  1  0  0  0
 46116  1  0  0  0
 47117  1  0  0  0
 47118  1  0  0  0
 48 56  1  0  0  0
 48 65  1  0  0  0
 48119  1  0  0  0
 49 50  1  0  0  0
 49 53  1  0  0  0
 49 64  1  0  0  0
 49120  1  0  0  0
 50 51  1  0  0  0
 50121  1  0  0  0
 50122  1  0  0  0
 51 52  1  0  0  0
 51123  1  0  0  0
 51124  1  0  0  0
 52125  1  0  0  0
 52126  1  0  0  0
 53 54  1  0  0  0
 54 55  2  0  0  0
 54127  1  0  0  0
 55 57  1  0  0  0
 55128  1  0  0  0
 56 69  2  0  0  0
 57 58  2  0  0  0
 57129  1  0  0  0
 58130  1  0  0  0
 59 60  1  0  0  0
 59 61  1  0  0  0
 59 62  1  0  0  0
 60131  1  0  0  0
 60132  1  0  0  0
 60133  1  0  0  0
 61134  1  0  0  0
 61135  1  0  0  0
 61136  1  0  0  0
 62137  1  0  0  0
 62138  1  0  0  0
 62139  1  0  0  0
 63 65  1  0  0  0
 63140  1  0  0  0
 63141  1  0  0  0
 63142  1  0  0  0
 64143  1  0  0  0
 65144  1  0  0  0
 68 81  1  0  0  0
 71 82  2  0  0  0
 71 83  1  0  0  0
 71 77  1  0  0  0
 72 80  1  0  0  0
 72 82  1  0  0  0
 72 84  2  0  0  0
 73 81  1  0  0  0
 73 83  2  0  0  0
 73 84  1  0  0  0
 74 75  1  0  0  0
 74 78  1  0  0  0
 74145  1  0  0  0
 74146  1  0  0  0
 75 78  1  0  0  0
 75147  1  0  0  0
 75148  1  0  0  0
 76 77  1  0  0  0
 76 79  1  0  0  0
 76149  1  0  0  0
 76150  1  0  0  0
 77 79  1  0  0  0
 77151  1  0  0  0
 78 80  1  0  0  0
 78152  1  0  0  0
 79 85  1  0  0  0
 79153  1  0  0  0
 80154  1  0  0  0
 80155  1  0  0  0
 81156  1  0  0  0
 81157  1  0  0  0
 85158  1  0  0  0
M  ISO  4   1 100  68 101  81 101  85 100
M  END
> <chiral flag>
0

> <version>
0

> <s_m_source_file>
/data/baiqing/PycharmProjects/Reinvent-master-3.2/result/LINK_invent/BTK/process_docking_weight1_custom_sum_contain_oxygen_bond_distance_aromatic_linkinvent_7_9_3/rearranged_h_0199.sdf

> <i_m_source_file_index>
58

> <r_mmod_Potential_Energy-OPLS-2005>
155.324478149414

> <r_mmod_Stretch_Energy-OPLS-2005>
326.488647460938

> <r_mmod_Bend_Energy-OPLS-2005>
268.057189941406

> <r_mmod_Torsional_Energy-OPLS-2005>
273.549041748047

> <r_mmod_Improper_Torsional_Energy-OPLS-2005>
6.85157060623169

> <r_mmod_Van_der_Waal_Energy-OPLS-2005>
140.081146240234

> <r_mmod_Electrostatic_Energy-OPLS-2005>
-859.916198730469

> <r_mmod_Solvation_Energy-OPLS-2005>
-251.991928100586

> <b_mmod_Minimization_Converged-OPLS-2005>
0

> <r_mmod_RMS_Derivative-OPLS-2005>
3.03304839134216

$$$$
58
                    3D
 Structure written by MMmdl.
178187  0  0  1  0            999 V2000
  -30.7010  -14.6142   20.5327 C   0  0  0  0  0  0
  -30.4222  -12.3932   19.4426 C   0  0  0  0  0  0
  -29.4931  -12.5029   18.2160 C   0  0  0  0  0  0
  -28.0215  -12.3174   18.6353 C   0  0  0  0  0  0
  -27.6452  -13.1904   19.8601 C   0  0  2  0  0  0
  -28.7016  -13.0681   20.9889 C   0  0  0  0  0  0
  -25.2539  -13.8078   20.5632 C   0  0  0  0  0  0
  -24.1803  -13.0378   20.9191 C   0  0  0  0  0  0
  -24.6365  -11.6845   20.8784 C   0  0  0  0  0  0
  -23.9037  -10.4251   21.0436 C   0  0  0  0  0  0
  -24.3611   -9.4166   21.9207 C   0  0  0  0  0  0
  -23.6294   -8.2200   22.0750 C   0  0  0  0  0  0
  -22.4273   -8.0252   21.3532 C   0  0  0  0  0  0
  -21.9905   -9.0224   20.4632 C   0  0  0  0  0  0
  -22.7228  -10.2109   20.3050 C   0  0  0  0  0  0
  -21.6828   -6.0732   22.5285 C   0  0  0  0  0  0
  -21.4001   -6.5640   23.8227 C   0  0  0  0  0  0
  -21.3663   -5.6793   24.9189 C   0  0  0  0  0  0
  -21.6042   -4.3054   24.7232 C   0  0  0  0  0  0
  -21.8817   -3.8145   23.4351 C   0  0  0  0  0  0
  -21.9185   -4.6967   22.3413 C   0  0  0  0  0  0
  -22.7841  -13.5203   21.1847 C   0  0  0  0  0  0
  -22.1650   -4.2152   21.0986 F   0  0  0  0  0  0
  -21.5640   -3.4538   25.7744 F   0  0  0  0  0  0
  -30.0040  -13.4333   20.4120 N   0  0  0  0  0  0
  -26.2953  -12.9205   20.3353 N   0  0  0  0  0  0
  -25.9282  -11.6390   20.5821 N   0  0  0  0  0  0
  -22.0468  -12.8221   22.0412 N   0  0  0  0  0  0
  -25.4203  -15.1797   20.3914 N   0  0  0  0  0  0
  -31.8782  -14.6634   20.1630 O   0  0  0  0  0  0
  -21.6615   -6.8865   21.4235 O   0  0  0  0  0  0
  -22.3555  -14.5521   20.6688 O   0  0  0  0  0  0
  -24.6219  -31.8639   23.2054 C   0  0  0  0  0  0
  -25.9091  -32.4796   23.8364 C   0  0  1  0  0  0
  -27.2231  -27.3618   20.1115 C   0  0  0  0  0  0
  -25.5923  -33.8596   24.2291 N   0  0  0  0  0  0
  -23.4115  -30.4892   21.5487 C   0  0  2  0  0  0
  -24.8560  -28.9523   20.1108 C   0  0  0  0  0  0
  -22.7443  -29.4648   22.4972 C   0  0  0  0  0  0
  -18.0280  -28.1382   22.8489 C   0  0  0  0  0  0
  -24.1486  -36.7302   23.2635 C   0  0  0  0  0  0
  -25.9490  -30.8083   21.3690 C   0  0  0  0  0  0
  -26.0240  -29.4402   20.7109 C   0  0  0  0  0  0
  -27.2105  -28.6571   20.7011 C   0  0  0  0  0  0
  -26.0298  -26.9159   19.4921 C   0  0  0  0  0  0
  -24.8592  -27.6929   19.4945 C   0  0  0  0  0  0
  -23.6211  -29.8249   20.1630 C   0  0  0  0  0  0
  -25.4112  -36.3092   24.0326 C   0  0  1  0  0  0
  -20.5872  -28.3673   23.1302 C   0  0  2  0  0  0
  -20.6770  -26.9405   22.5413 C   0  0  0  0  0  0
  -19.5752  -26.6380   21.5217 C   0  0  0  0  0  0
  -18.1932  -26.7926   22.1621 C   0  0  0  0  0  0
  -19.1527  -28.8844   23.2888 C   0  0  0  0  0  0
  -18.9447  -30.1456   23.8900 C   0  0  0  0  0  0
  -17.6457  -30.6584   24.0564 C   0  0  0  0  0  0
  -25.9048  -34.9461   23.5101 C   0  0  0  0  0  0
  -16.5342  -29.9079   23.6332 C   0  0  0  0  0  0
  -16.7267  -28.6497   23.0353 C   0  0  0  0  0  0
  -26.4489  -31.6593   25.0718 C   0  0  0  0  0  0
  -25.3733  -31.3723   26.1452 C   0  0  0  0  0  0
  -27.0322  -30.3019   24.6147 C   0  0  0  0  0  0
  -27.6043  -32.4325   25.7501 C   0  0  0  0  0  0
  -27.5582  -37.1803   24.8457 C   0  0  0  0  0  0
  -21.4165  -29.3035   22.3700 N   0  0  0  0  0  0
  -26.4289  -37.3784   23.9409 N   0  0  0  0  0  0
  -24.6798  -31.0687   22.0987 N   0  0  0  0  0  0
  -23.4190  -28.8193   23.3032 O   0  0  0  0  0  0
  -28.3565  -26.5453   20.1635 O   0  0  0  0  0  0
  -26.5612  -34.8925   22.4667 O   0  0  0  0  0  0
  -23.5396  -32.1426   23.7413 O   0  0  0  0  0  0
  -30.3269  -19.3878   23.2640 C   0  0  0  0  0  0
  -30.3958  -20.6558   23.7801 C   0  0  0  0  0  0
  -30.0599  -20.8150   21.5730 C   0  0  0  0  0  0
  -28.5644  -17.6753   21.1658 C   0  0  0  0  0  0
  -28.7131  -16.2088   20.7387 C   0  0  0  0  0  0
  -30.8593  -17.0353   21.2694 C   0  0  0  0  0  0
  -29.9470  -18.2883   21.0091 C   0  0  2  0  0  0
  -30.5938  -21.1529   25.1750 C   0  0  0  0  0  0
  -35.7352  -20.6844   17.9319 C   0  0  0  0  0  0
  -29.3159  -24.1266   20.4139 C   0  0  0  0  0  0
  -31.2176  -21.9892   19.5935 C   0  0  0  0  0  0
  -33.3326  -21.3236   18.5051 C   0  0  0  0  0  0
  -28.1287  -25.1022   20.0835 C   0  0  0  0  0  0
  -29.8729  -21.5608   20.2494 C   0  0  2  0  0  0
  -34.3792  -20.2028   18.4623 C   0  0  2  0  0  0
  -30.1379  -19.4863   21.9024 N   0  0  0  0  0  0
  -30.2204  -21.4923   22.7136 N   0  3  0  0  0  0
  -30.0990  -15.7800   20.9772 N   0  0  0  0  0  0
  -28.8997  -22.6983   20.2924 N   0  0  0  0  0  0
  -32.1034  -20.8734   19.1887 N   0  3  0  0  0  0
  -34.5405  -19.7327   19.7012 F   0  0  0  0  0  0
  -31.4612  -12.4993   19.1278 H   0  0  0  0  0  0
  -30.3542  -11.4002   19.8893 H   0  0  0  0  0  0
  -29.7670  -11.7569   17.4688 H   0  0  0  0  0  0
  -29.6224  -13.4771   17.7414 H   0  0  0  0  0  0
  -27.8738  -11.2619   18.8728 H   0  0  0  0  0  0
  -27.3579  -12.5320   17.7968 H   0  0  0  0  0  0
  -27.6385  -14.2033   19.4766 H   0  0  0  0  0  0
  -28.7375  -12.0422   21.3583 H   0  0  0  0  0  0
  -28.4593  -13.6669   21.8657 H   0  0  0  0  0  0
  -25.2735   -9.5654   22.4819 H   0  0  0  0  0  0
  -23.9991   -7.4579   22.7478 H   0  0  0  0  0  0
  -21.0826   -8.8731   19.8958 H   0  0  0  0  0  0
  -22.3669  -10.9650   19.6176 H   0  0  0  0  0  0
  -21.1979   -7.6146   23.9740 H   0  0  0  0  0  0
  -21.1496   -6.0517   25.9104 H   0  0  0  0  0  0
  -22.0601   -2.7603   23.2839 H   0  0  0  0  0  0
  -22.4020  -11.9856   22.4787 H   0  0  0  0  0  0
  -21.1099  -13.1279   22.2600 H   0  0  0  0  0  0
  -24.6481  -15.8302   20.4906 H   0  0  0  0  0  0
  -26.2670  -15.6172   20.0545 H   0  0  0  0  0  0
  -26.7157  -32.5471   23.1114 H   0  0  0  0  0  0
  -25.0087  -33.9748   25.0446 H   0  0  0  0  0  0
  -22.7029  -31.3082   21.4093 H   0  0  0  0  0  0
  -23.3751  -35.9630   23.3284 H   0  0  0  0  0  0
  -24.3593  -36.8940   22.2054 H   0  0  0  0  0  0
  -23.7230  -37.6497   23.6668 H   0  0  0  0  0  0
  -26.0729  -31.5736   20.6018 H   0  0  0  0  0  0
  -26.8326  -30.8570   21.9937 H   0  0  0  0  0  0
  -28.1078  -29.0278   21.1774 H   0  0  0  0  0  0
  -25.9654  -25.9553   19.0043 H   0  0  0  0  0  0
  -23.9627  -27.3118   19.0249 H   0  0  0  0  0  0
  -23.7294  -30.6010   19.4049 H   0  0  0  0  0  0
  -22.7430  -29.2469   19.8675 H   0  0  0  0  0  0
  -25.1295  -36.1943   25.0817 H   0  0  0  0  0  0
  -20.9970  -28.3241   24.1418 H   0  0  0  0  0  0
  -20.5687  -26.2281   23.3606 H   0  0  0  0  0  0
  -21.6639  -26.7456   22.1189 H   0  0  0  0  0  0
  -19.6913  -25.6294   21.1242 H   0  0  0  0  0  0
  -19.6699  -27.3190   20.6748 H   0  0  0  0  0  0
  -17.4211  -26.6685   21.4016 H   0  0  0  0  0  0
  -18.0323  -26.0061   22.9004 H   0  0  0  0  0  0
  -19.7934  -30.7266   24.2259 H   0  0  0  0  0  0
  -17.5012  -31.6272   24.5157 H   0  0  0  0  0  0
  -15.5345  -30.2978   23.7669 H   0  0  0  0  0  0
  -15.8667  -28.0817   22.7067 H   0  0  0  0  0  0
  -24.5888  -30.7098   25.7777 H   0  0  0  0  0  0
  -24.8951  -32.2892   26.4906 H   0  0  0  0  0  0
  -25.8062  -30.8871   27.0209 H   0  0  0  0  0  0
  -26.2883  -29.6778   24.1178 H   0  0  0  0  0  0
  -27.4041  -29.7265   25.4635 H   0  0  0  0  0  0
  -27.8744  -30.4311   23.9343 H   0  0  0  0  0  0
  -27.2634  -33.3608   26.2102 H   0  0  0  0  0  0
  -28.3852  -32.6921   25.0337 H   0  0  0  0  0  0
  -28.0715  -31.8439   26.5409 H   0  0  0  0  0  0
  -28.2574  -38.0122   24.7539 H   0  0  0  0  0  0
  -28.1103  -36.2659   24.6239 H   0  0  0  0  0  0
  -27.2311  -37.1391   25.8859 H   0  0  0  0  0  0
  -20.9332  -29.8747   21.6910 H   0  0  0  0  0  0
  -26.0171  -38.2856   24.1427 H   0  0  0  0  0  0
  -30.3885  -18.4374   23.7765 H   0  0  0  0  0  0
  -28.2495  -17.7092   22.2103 H   0  0  0  0  0  0
  -27.8045  -18.2026   20.5874 H   0  0  0  0  0  0
  -28.5153  -16.1396   19.6698 H   0  0  0  0  0  0
  -27.9774  -15.6236   21.2814 H   0  0  0  0  0  0
  -31.1965  -16.9756   22.3036 H   0  0  0  0  0  0
  -31.7630  -17.1190   20.6643 H   0  0  0  0  0  0
  -30.0751  -18.6068   19.9748 H   0  0  0  0  0  0
  -30.5361  -20.3306   25.8867 H   0  0  0  0  0  0
  -29.8280  -21.8844   25.4324 H   0  0  0  0  0  0
  -31.5705  -21.6252   25.2724 H   0  0  0  0  0  0
  -35.6402  -21.0848   16.9221 H   0  0  0  0  0  0
  -36.4560  -19.8676   17.8991 H   0  0  0  0  0  0
  -36.1485  -21.4704   18.5644 H   0  0  0  0  0  0
  -29.6956  -24.3230   21.4170 H   0  0  0  0  0  0
  -30.1239  -24.3579   19.7202 H   0  0  0  0  0  0
  -31.7663  -22.6463   20.2701 H   0  0  0  0  0  0
  -31.0109  -22.5654   18.6907 H   0  0  0  0  0  0
  -33.0971  -21.6690   17.4974 H   0  0  0  0  0  0
  -33.7527  -22.1780   19.0385 H   0  0  0  0  0  0
  -27.2983  -24.8451   20.7444 H   0  0  0  0  0  0
  -27.8097  -24.8673   19.0673 H   0  0  0  0  0  0
  -29.4029  -20.8214   19.6007 H   0  0  0  0  0  0
  -34.0212  -19.3690   17.8565 H   0  0  0  0  0  0
  -30.1732  -22.5032   22.7651 H   0  0  0  0  0  0
  -28.2749  -22.6010   19.4964 H   0  0  0  0  0  0
  -31.6150  -20.2427   18.5729 H   0  0  0  0  0  0
  -32.4273  -20.3600   19.9941 H   0  0  0  0  0  0
  1 25  1  0  0  0
  1 30  2  0  0  0
  1 88  1  0  0  0
  2  3  1  0  0  0
  2 25  1  0  0  0
  2 92  1  0  0  0
  2 93  1  0  0  0
  3  4  1  0  0  0
  3 94  1  0  0  0
  3 95  1  0  0  0
  4  5  1  0  0  0
  4 96  1  0  0  0
  4 97  1  0  0  0
  5  6  1  0  0  0
  5 26  1  0  0  0
  5 98  1  0  0  0
  6 25  1  0  0  0
  6 99  1  0  0  0
  6100  1  0  0  0
  7  8  2  0  0  0
  7 26  1  0  0  0
  7 29  1  0  0  0
  8  9  1  0  0  0
  8 22  1  0  0  0
  9 10  1  0  0  0
  9 27  2  0  0  0
 10 11  2  0  0  0
 10 15  1  0  0  0
 11 12  1  0  0  0
 11101  1  0  0  0
 12 13  2  0  0  0
 12102  1  0  0  0
 13 14  1  0  0  0
 13 31  1  0  0  0
 14 15  2  0  0  0
 14103  1  0  0  0
 15104  1  0  0  0
 16 17  2  0  0  0
 16 21  1  0  0  0
 16 31  1  0  0  0
 17 18  1  0  0  0
 17105  1  0  0  0
 18 19  2  0  0  0
 18106  1  0  0  0
 19 20  1  0  0  0
 19 24  1  0  0  0
 20 21  2  0  0  0
 20107  1  0  0  0
 21 23  1  0  0  0
 22 28  1  0  0  0
 22 32  2  0  0  0
 26 27  1  0  0  0
 28108  1  0  0  0
 28109  1  0  0  0
 29110  1  0  0  0
 29111  1  0  0  0
 33 34  1  0  0  0
 33 66  1  0  0  0
 33 70  2  0  0  0
 34 36  1  0  0  0
 34 59  1  0  0  0
 34112  1  0  0  0
 35 44  2  0  0  0
 35 45  1  0  0  0
 35 68  1  0  0  0
 36 56  1  0  0  0
 36113  1  0  0  0
 37 39  1  0  0  0
 37 47  1  0  0  0
 37 66  1  0  0  0
 37114  1  0  0  0
 38 43  2  0  0  0
 38 46  1  0  0  0
 38 47  1  0  0  0
 39 64  1  0  0  0
 39 67  2  0  0  0
 40 52  1  0  0  0
 40 53  2  0  0  0
 40 58  1  0  0  0
 41115  1  0  0  0
 41116  1  0  0  0
 41117  1  0  0  0
 41 48  1  0  0  0
 42 43  1  0  0  0
 42 66  1  0  0  0
 42118  1  0  0  0
 42119  1  0  0  0
 43 44  1  0  0  0
 44120  1  0  0  0
 45 46  2  0  0  0
 45121  1  0  0  0
 46122  1  0  0  0
 47123  1  0  0  0
 47124  1  0  0  0
 48 56  1  0  0  0
 48 65  1  0  0  0
 48125  1  0  0  0
 49 50  1  0  0  0
 49 53  1  0  0  0
 49 64  1  0  0  0
 49126  1  0  0  0
 50 51  1  0  0  0
 50127  1  0  0  0
 50128  1  0  0  0
 51 52  1  0  0  0
 51129  1  0  0  0
 51130  1  0  0  0
 52131  1  0  0  0
 52132  1  0  0  0
 53 54  1  0  0  0
 54 55  2  0  0  0
 54133  1  0  0  0
 55 57  1  0  0  0
 55134  1  0  0  0
 56 69  2  0  0  0
 57 58  2  0  0  0
 57135  1  0  0  0
 58136  1  0  0  0
 59 60  1  0  0  0
 59 61  1  0  0  0
 59 62  1  0  0  0
 60137  1  0  0  0
 60138  1  0  0  0
 60139  1  0  0  0
 61140  1  0  0  0
 61141  1  0  0  0
 61142  1  0  0  0
 62143  1  0  0  0
 62144  1  0  0  0
 62145  1  0  0  0
 63 65  1  0  0  0
 63146  1  0  0  0
 63147  1  0  0  0
 63148  1  0  0  0
 64149  1  0  0  0
 65150  1  0  0  0
 68 83  1  0  0  0
 71 72  2  0  0  0
 71 86  1  0  0  0
 71151  1  0  0  0
 72 78  1  0  0  0
 72 87  1  0  0  0
 73 84  1  0  0  0
 73 86  1  0  0  0
 73 87  2  0  0  0
 74 75  1  0  0  0
 74 77  1  0  0  0
 74152  1  0  0  0
 74153  1  0  0  0
 75 88  1  0  0  0
 75154  1  0  0  0
 75155  1  0  0  0
 76 77  1  0  0  0
 76 88  1  0  0  0
 76156  1  0  0  0
 76157  1  0  0  0
 77 86  1  0  0  0
 77158  1  0  0  0
 78159  1  0  0  0
 78160  1  0  0  0
 78161  1  0  0  0
 79162  1  0  0  0
 79163  1  0  0  0
 79164  1  0  0  0
 79 85  1  0  0  0
 80 83  1  0  0  0
 80 89  1  0  0  0
 80165  1  0  0  0
 80166  1  0  0  0
 81 90  1  0  0  0
 81167  1  0  0  0
 81168  1  0  0  0
 81 84  1  0  0  0
 82 85  1  0  0  0
 82 90  1  0  0  0
 82169  1  0  0  0
 82170  1  0  0  0
 83171  1  0  0  0
 83172  1  0  0  0
 84 89  1  0  0  0
 84173  1  0  0  0
 85 91  1  0  0  0
 85174  1  0  0  0
 87175  1  0  0  0
 89176  1  0  0  0
 90177  1  0  0  0
 90178  1  0  0  0
M  CHG  2  87   1  90   1
M  ISO  4   1 100  68 101  83 101  88 100
M  END
> <chiral flag>
0

> <version>
0

> <s_m_source_file>
/data/baiqing/PycharmProjects/Reinvent-master-3.2/result/LINK_invent/BTK/process_docking_weight1_custom_sum_contain_oxygen_bond_distance_aromatic_linkinvent_7_9_3/rearranged_h_0199.sdf

> <i_m_source_file_index>
59

> <r_mmod_Potential_Energy-OPLS-2005>
43.7809181213379

> <r_mmod_Stretch_Energy-OPLS-2005>
69.482177734375

> <r_mmod_Bend_Energy-OPLS-2005>
179.007507324219

> <r_mmod_Torsional_Energy-OPLS-2005>
363.054382324219

> <r_mmod_Improper_Torsional_Energy-OPLS-2005>
4.06325483322144

> <r_mmod_Van_der_Waal_Energy-OPLS-2005>
127.962966918945

> <r_mmod_Electrostatic_Energy-OPLS-2005>
211.149490356445

> <r_mmod_Solvation_Energy-OPLS-2005>
-949.422485351562

> <b_mmod_Minimization_Converged-OPLS-2005>
0

> <r_mmod_RMS_Derivative-OPLS-2005>
2.23942375183105

$$$$
59
                    3D
 Structure written by MMmdl.
164173  0  0  1  0            999 V2000
  -30.7118  -14.4539   20.5232 C   0  0  0  0  0  0
  -30.4119  -12.2800   19.4241 C   0  0  0  0  0  0
  -29.4904  -12.4743   18.2033 C   0  0  0  0  0  0
  -28.0108  -12.3484   18.6183 C   0  0  0  0  0  0
  -27.6542  -13.2035   19.8643 C   0  0  2  0  0  0
  -28.6980  -13.0167   20.9878 C   0  0  0  0  0  0
  -25.2581  -13.8153   20.5693 C   0  0  0  0  0  0
  -24.1823  -13.0437   20.9185 C   0  0  0  0  0  0
  -24.6364  -11.6903   20.8731 C   0  0  0  0  0  0
  -23.9035  -10.4288   21.0400 C   0  0  0  0  0  0
  -24.3599   -9.4202   21.9170 C   0  0  0  0  0  0
  -23.6284   -8.2228   22.0730 C   0  0  0  0  0  0
  -22.4266   -8.0265   21.3530 C   0  0  0  0  0  0
  -21.9896   -9.0240   20.4633 C   0  0  0  0  0  0
  -22.7210  -10.2127   20.3051 C   0  0  0  0  0  0
  -21.6837   -6.0729   22.5280 C   0  0  0  0  0  0
  -21.3997   -6.5631   23.8214 C   0  0  0  0  0  0
  -21.3662   -5.6781   24.9173 C   0  0  0  0  0  0
  -21.6053   -4.3048   24.7216 C   0  0  0  0  0  0
  -21.8813   -3.8136   23.4333 C   0  0  0  0  0  0
  -21.9180   -4.6957   22.3393 C   0  0  0  0  0  0
  -22.7841  -13.5236   21.1858 C   0  0  0  0  0  0
  -22.1656   -4.2151   21.0967 F   0  0  0  0  0  0
  -21.5646   -3.4528   25.7726 F   0  0  0  0  0  0
  -30.0254  -13.2880   20.4197 N   0  0  0  0  0  0
  -26.2986  -12.9302   20.3333 N   0  0  0  0  0  0
  -25.9279  -11.6471   20.5736 N   0  0  0  0  0  0
  -22.0475  -12.8248   22.0418 N   0  0  0  0  0  0
  -25.4367  -15.1860   20.4137 N   0  0  0  0  0  0
  -31.8902  -14.5723   20.1695 O   0  0  0  0  0  0
  -21.6623   -6.8869   21.4240 O   0  0  0  0  0  0
  -22.3535  -14.5537   20.6685 O   0  0  0  0  0  0
  -24.6110  -31.8699   23.2132 C   0  0  0  0  0  0
  -25.9008  -32.4844   23.8408 C   0  0  1  0  0  0
  -27.2297  -27.4327   20.0860 C   0  0  0  0  0  0
  -25.5875  -33.8639   24.2336 N   0  0  0  0  0  0
  -23.3995  -30.4922   21.5555 C   0  0  2  0  0  0
  -24.8446  -28.9616   20.1159 C   0  0  0  0  0  0
  -22.7398  -29.4648   22.5029 C   0  0  0  0  0  0
  -18.0265  -28.1364   22.8498 C   0  0  0  0  0  0
  -24.1490  -36.7308   23.2641 C   0  0  0  0  0  0
  -25.9294  -30.8308   21.3712 C   0  0  0  0  0  0
  -26.0049  -29.4668   20.7138 C   0  0  0  0  0  0
  -27.1983  -28.7082   20.6979 C   0  0  0  0  0  0
  -26.0488  -26.9504   19.4728 C   0  0  0  0  0  0
  -24.8615  -27.7031   19.4942 C   0  0  0  0  0  0
  -23.6064  -29.8263   20.1696 C   0  0  0  0  0  0
  -25.4115  -36.3127   24.0341 C   0  0  1  0  0  0
  -20.5854  -28.3630   23.1341 C   0  0  2  0  0  0
  -20.6750  -26.9373   22.5426 C   0  0  0  0  0  0
  -19.5735  -26.6372   21.5214 C   0  0  0  0  0  0
  -18.1912  -26.7916   22.1619 C   0  0  0  0  0  0
  -19.1515  -28.8818   23.2913 C   0  0  0  0  0  0
  -18.9439  -30.1430   23.8917 C   0  0  0  0  0  0
  -17.6445  -30.6578   24.0550 C   0  0  0  0  0  0
  -25.9033  -34.9491   23.5140 C   0  0  0  0  0  0
  -16.5333  -29.9074   23.6331 C   0  0  0  0  0  0
  -16.7255  -28.6485   23.0359 C   0  0  0  0  0  0
  -26.4446  -31.6626   25.0731 C   0  0  0  0  0  0
  -25.3720  -31.3719   26.1486 C   0  0  0  0  0  0
  -27.0257  -30.3077   24.6088 C   0  0  0  0  0  0
  -27.6052  -32.4339   25.7449 C   0  0  0  0  0  0
  -27.5604  -37.1796   24.8454 C   0  0  0  0  0  0
  -21.4132  -29.3002   22.3765 N   0  0  0  0  0  0
  -26.4304  -37.3812   23.9420 N   0  0  0  0  0  0
  -24.6649  -31.0784   22.1048 N   0  0  0  0  0  0
  -23.4181  -28.8192   23.3056 O   0  0  0  0  0  0
  -28.4069  -26.7077   20.1102 O   0  0  0  0  0  0
  -26.5597  -34.8935   22.4704 O   0  0  0  0  0  0
  -23.5300  -32.1456   23.7519 O   0  0  0  0  0  0
  -30.2966  -22.8974   18.4406 C   0  0  0  0  0  0
  -30.3757  -21.5652   18.0217 C   0  0  0  0  0  0
  -29.7312  -23.1434   19.7001 C   0  0  0  0  0  0
  -29.4295  -20.8923   19.9962 C   0  0  0  0  0  0
  -30.9364  -19.9897   16.1628 C   0  0  0  0  0  0
  -30.9035  -21.2254   16.6925 C   0  0  0  0  0  0
  -28.9299  -17.6350   19.6524 C   0  0  0  0  0  0
  -29.5107  -17.7134   22.0333 C   0  0  0  0  0  0
  -29.7455  -16.3469   19.4730 C   0  0  0  0  0  0
  -30.2631  -16.3638   21.9221 C   0  0  0  0  0  0
  -29.5947  -18.5076   20.7226 C   0  0  0  0  0  0
  -29.6154  -24.5719   20.2289 C   0  0  0  0  0  0
  -28.3663  -25.3217   19.7267 C   0  0  0  0  0  0
  -29.9444  -20.5723   18.8202 N   0  0  0  0  0  0
  -29.2851  -22.1233   20.4732 N   0  0  0  0  0  0
  -29.9583  -15.5656   20.7139 N   0  0  0  0  0  0
  -29.0232  -19.8554   20.8172 N   0  0  0  0  0  0
  -31.4594  -12.3596   19.1277 H   0  0  0  0  0  0
  -30.2946  -11.2789   19.8408 H   0  0  0  0  0  0
  -29.7263  -11.7365   17.4340 H   0  0  0  0  0  0
  -29.6667  -13.4507   17.7496 H   0  0  0  0  0  0
  -27.8209  -11.2960   18.8299 H   0  0  0  0  0  0
  -27.3607  -12.6109   17.7827 H   0  0  0  0  0  0
  -27.6833  -14.2445   19.5462 H   0  0  0  0  0  0
  -28.6633  -11.9982   21.3790 H   0  0  0  0  0  0
  -28.4797  -13.6742   21.8305 H   0  0  0  0  0  0
  -25.2746   -9.5685   22.4741 H   0  0  0  0  0  0
  -23.9999   -7.4619   22.7442 H   0  0  0  0  0  0
  -21.0824   -8.8753   19.8950 H   0  0  0  0  0  0
  -22.3655  -10.9665   19.6166 H   0  0  0  0  0  0
  -21.1979   -7.6139   23.9718 H   0  0  0  0  0  0
  -21.1503   -6.0508   25.9084 H   0  0  0  0  0  0
  -22.0590   -2.7602   23.2817 H   0  0  0  0  0  0
  -22.4063  -11.9917   22.4855 H   0  0  0  0  0  0
  -21.1091  -13.1292   22.2603 H   0  0  0  0  0  0
  -24.6839  -15.8540   20.5356 H   0  0  0  0  0  0
  -26.3107  -15.6179   20.1399 H   0  0  0  0  0  0
  -26.7062  -32.5553   23.1152 H   0  0  0  0  0  0
  -25.0012  -33.9812   25.0470 H   0  0  0  0  0  0
  -22.6866  -31.3081   21.4189 H   0  0  0  0  0  0
  -23.3787  -35.9605   23.3286 H   0  0  0  0  0  0
  -24.3586  -36.8944   22.2060 H   0  0  0  0  0  0
  -23.7198  -37.6488   23.6661 H   0  0  0  0  0  0
  -26.0461  -31.6009   20.6078 H   0  0  0  0  0  0
  -26.8163  -30.8786   21.9913 H   0  0  0  0  0  0
  -28.0947  -29.0914   21.1661 H   0  0  0  0  0  0
  -26.0183  -25.9981   18.9644 H   0  0  0  0  0  0
  -23.9685  -27.3138   19.0244 H   0  0  0  0  0  0
  -23.7094  -30.6011   19.4088 H   0  0  0  0  0  0
  -22.7317  -29.2420   19.8775 H   0  0  0  0  0  0
  -25.1295  -36.1997   25.0834 H   0  0  0  0  0  0
  -20.9927  -28.3166   24.1467 H   0  0  0  0  0  0
  -20.5646  -26.2221   23.3594 H   0  0  0  0  0  0
  -21.6619  -26.7418   22.1218 H   0  0  0  0  0  0
  -19.6889  -25.6287   21.1232 H   0  0  0  0  0  0
  -19.6692  -27.3190   20.6751 H   0  0  0  0  0  0
  -17.4186  -26.6678   21.4016 H   0  0  0  0  0  0
  -18.0302  -26.0049   22.9003 H   0  0  0  0  0  0
  -19.7913  -30.7235   24.2298 H   0  0  0  0  0  0
  -17.4999  -31.6271   24.5128 H   0  0  0  0  0  0
  -15.5334  -30.2972   23.7655 H   0  0  0  0  0  0
  -15.8650  -28.0804   22.7078 H   0  0  0  0  0  0
  -24.5840  -30.7145   25.7790 H   0  0  0  0  0  0
  -24.8963  -32.2868   26.5026 H   0  0  0  0  0  0
  -25.8056  -30.8779   27.0188 H   0  0  0  0  0  0
  -26.2768  -29.6860   24.1164 H   0  0  0  0  0  0
  -27.4058  -29.7300   25.4520 H   0  0  0  0  0  0
  -27.8603  -30.4416   23.9204 H   0  0  0  0  0  0
  -27.2706  -33.3620   26.2093 H   0  0  0  0  0  0
  -28.3791  -32.6942   25.0217 H   0  0  0  0  0  0
  -28.0802  -31.8430   26.5291 H   0  0  0  0  0  0
  -28.2597  -38.0122   24.7578 H   0  0  0  0  0  0
  -28.1129  -36.2663   24.6187 H   0  0  0  0  0  0
  -27.2325  -37.1331   25.8854 H   0  0  0  0  0  0
  -20.9288  -29.8709   21.6983 H   0  0  0  0  0  0
  -26.0205  -38.2886   24.1471 H   0  0  0  0  0  0
  -30.6531  -23.7029   17.8114 H   0  0  0  0  0  0
  -31.3376  -19.8189   15.1751 H   0  0  0  0  0  0
  -30.5623  -19.1343   16.7074 H   0  0  0  0  0  0
  -31.2931  -22.0461   16.1069 H   0  0  0  0  0  0
  -27.8998  -17.4001   19.9237 H   0  0  0  0  0  0
  -28.8778  -18.1542   18.6947 H   0  0  0  0  0  0
  -29.9386  -18.2893   22.8553 H   0  0  0  0  0  0
  -28.4669  -17.5305   22.2971 H   0  0  0  0  0  0
  -30.7130  -16.6222   19.0467 H   0  0  0  0  0  0
  -29.2609  -15.7229   18.7204 H   0  0  0  0  0  0
  -30.0466  -15.7610   22.8061 H   0  0  0  0  0  0
  -31.3358  -16.5671   21.9500 H   0  0  0  0  0  0
  -30.6500  -18.6315   20.4720 H   0  0  0  0  0  0
  -30.5132  -25.1189   19.9400 H   0  0  0  0  0  0
  -29.6148  -24.5535   21.3190 H   0  0  0  0  0  0
  -27.4901  -24.8150   20.1361 H   0  0  0  0  0  0
  -28.3104  -25.2570   18.6383 H   0  0  0  0  0  0
  -28.6961  -20.1520   21.7277 H   0  0  0  0  0  0
  1 25  1  0  0  0
  1 30  2  0  0  0
  1 86  1  0  0  0
  2  3  1  0  0  0
  2 25  1  0  0  0
  2 88  1  0  0  0
  2 89  1  0  0  0
  3  4  1  0  0  0
  3 90  1  0  0  0
  3 91  1  0  0  0
  4  5  1  0  0  0
  4 92  1  0  0  0
  4 93  1  0  0  0
  5  6  1  0  0  0
  5 26  1  0  0  0
  5 94  1  0  0  0
  6 25  1  0  0  0
  6 95  1  0  0  0
  6 96  1  0  0  0
  7  8  2  0  0  0
  7 26  1  0  0  0
  7 29  1  0  0  0
  8  9  1  0  0  0
  8 22  1  0  0  0
  9 10  1  0  0  0
  9 27  2  0  0  0
 10 11  2  0  0  0
 10 15  1  0  0  0
 11 12  1  0  0  0
 11 97  1  0  0  0
 12 13  2  0  0  0
 12 98  1  0  0  0
 13 14  1  0  0  0
 13 31  1  0  0  0
 14 15  2  0  0  0
 14 99  1  0  0  0
 15100  1  0  0  0
 16 17  2  0  0  0
 16 21  1  0  0  0
 16 31  1  0  0  0
 17 18  1  0  0  0
 17101  1  0  0  0
 18 19  2  0  0  0
 18102  1  0  0  0
 19 20  1  0  0  0
 19 24  1  0  0  0
 20 21  2  0  0  0
 20103  1  0  0  0
 21 23  1  0  0  0
 22 28  1  0  0  0
 22 32  2  0  0  0
 26 27  1  0  0  0
 28104  1  0  0  0
 28105  1  0  0  0
 29106  1  0  0  0
 29107  1  0  0  0
 33 34  1  0  0  0
 33 66  1  0  0  0
 33 70  2  0  0  0
 34 36  1  0  0  0
 34 59  1  0  0  0
 34108  1  0  0  0
 35 44  2  0  0  0
 35 45  1  0  0  0
 35 68  1  0  0  0
 36 56  1  0  0  0
 36109  1  0  0  0
 37 39  1  0  0  0
 37 47  1  0  0  0
 37 66  1  0  0  0
 37110  1  0  0  0
 38 43  2  0  0  0
 38 46  1  0  0  0
 38 47  1  0  0  0
 39 64  1  0  0  0
 39 67  2  0  0  0
 40 52  1  0  0  0
 40 53  2  0  0  0
 40 58  1  0  0  0
 41111  1  0  0  0
 41112  1  0  0  0
 41113  1  0  0  0
 41 48  1  0  0  0
 42 43  1  0  0  0
 42 66  1  0  0  0
 42114  1  0  0  0
 42115  1  0  0  0
 43 44  1  0  0  0
 44116  1  0  0  0
 45 46  2  0  0  0
 45117  1  0  0  0
 46118  1  0  0  0
 47119  1  0  0  0
 47120  1  0  0  0
 48 56  1  0  0  0
 48 65  1  0  0  0
 48121  1  0  0  0
 49 50  1  0  0  0
 49 53  1  0  0  0
 49 64  1  0  0  0
 49122  1  0  0  0
 50 51  1  0  0  0
 50123  1  0  0  0
 50124  1  0  0  0
 51 52  1  0  0  0
 51125  1  0  0  0
 51126  1  0  0  0
 52127  1  0  0  0
 52128  1  0  0  0
 53 54  1  0  0  0
 54 55  2  0  0  0
 54129  1  0  0  0
 55 57  1  0  0  0
 55130  1  0  0  0
 56 69  2  0  0  0
 57 58  2  0  0  0
 57131  1  0  0  0
 58132  1  0  0  0
 59 60  1  0  0  0
 59 61  1  0  0  0
 59 62  1  0  0  0
 60133  1  0  0  0
 60134  1  0  0  0
 60135  1  0  0  0
 61136  1  0  0  0
 61137  1  0  0  0
 61138  1  0  0  0
 62139  1  0  0  0
 62140  1  0  0  0
 62141  1  0  0  0
 63 65  1  0  0  0
 63142  1  0  0  0
 63143  1  0  0  0
 63144  1  0  0  0
 64145  1  0  0  0
 65146  1  0  0  0
 68 83  1  0  0  0
 71 72  2  0  0  0
 71 73  1  0  0  0
 71147  1  0  0  0
 72 76  1  0  0  0
 72 84  1  0  0  0
 73 82  1  0  0  0
 73 85  2  0  0  0
 74 84  2  0  0  0
 74 85  1  0  0  0
 74 87  1  0  0  0
 75 76  2  0  0  0
 75148  1  0  0  0
 75149  1  0  0  0
 76150  1  0  0  0
 77 79  1  0  0  0
 77 81  1  0  0  0
 77151  1  0  0  0
 77152  1  0  0  0
 78 80  1  0  0  0
 78 81  1  0  0  0
 78153  1  0  0  0
 78154  1  0  0  0
 79 86  1  0  0  0
 79155  1  0  0  0
 79156  1  0  0  0
 80 86  1  0  0  0
 80157  1  0  0  0
 80158  1  0  0  0
 81 87  1  0  0  0
 81159  1  0  0  0
 82 83  1  0  0  0
 82160  1  0  0  0
 82161  1  0  0  0
 83162  1  0  0  0
 83163  1  0  0  0
 87164  1  0  0  0
M  ISO  4   1 100  68 101  83 101  86 100
M  END
> <chiral flag>
0

> <version>
0

> <s_m_source_file>
/data/baiqing/PycharmProjects/Reinvent-master-3.2/result/LINK_invent/BTK/process_docking_weight1_custom_sum_contain_oxygen_bond_distance_aromatic_linkinvent_7_9_3/rearranged_h_0199.sdf

> <i_m_source_file_index>
60

> <r_mmod_Potential_Energy-OPLS-2005>
-381.430419921875

> <r_mmod_Stretch_Energy-OPLS-2005>
36.4591369628906

> <r_mmod_Bend_Energy-OPLS-2005>
113.487098693848

> <r_mmod_Torsional_Energy-OPLS-2005>
311.154510498047

> <r_mmod_Improper_Torsional_Energy-OPLS-2005>
13.9305534362793

> <r_mmod_Van_der_Waal_Energy-OPLS-2005>
169.94450378418

> <r_mmod_Electrostatic_Energy-OPLS-2005>
-821.422119140625

> <r_mmod_Solvation_Energy-OPLS-2005>
-222.265014648438

> <b_mmod_Minimization_Converged-OPLS-2005>
0

> <r_mmod_RMS_Derivative-OPLS-2005>
1.76420938968658

$$$$
60
                    3D
 Structure written by MMmdl.
161171  0  0  1  0            999 V2000
  -30.6861  -14.8207   20.4467 C   0  0  0  0  0  0
  -30.4059  -12.5185   19.4837 C   0  0  0  0  0  0
  -29.4976  -12.4998   18.2390 C   0  0  0  0  0  0
  -28.0339  -12.2973   18.6644 C   0  0  0  0  0  0
  -27.6224  -13.2362   19.8275 C   0  0  2  0  0  0
  -28.6709  -13.2815   20.9640 C   0  0  0  0  0  0
  -25.2428  -13.8185   20.5698 C   0  0  0  0  0  0
  -24.1751  -13.0423   20.9240 C   0  0  0  0  0  0
  -24.6361  -11.6911   20.8773 C   0  0  0  0  0  0
  -23.9051  -10.4285   21.0421 C   0  0  0  0  0  0
  -24.3607   -9.4201   21.9192 C   0  0  0  0  0  0
  -23.6288   -8.2237   22.0757 C   0  0  0  0  0  0
  -22.4269   -8.0274   21.3550 C   0  0  0  0  0  0
  -21.9903   -9.0247   20.4652 C   0  0  0  0  0  0
  -22.7228  -10.2128   20.3066 C   0  0  0  0  0  0
  -21.6852   -6.0727   22.5275 C   0  0  0  0  0  0
  -21.4014   -6.5632   23.8207 C   0  0  0  0  0  0
  -21.3663   -5.6787   24.9170 C   0  0  0  0  0  0
  -21.6042   -4.3048   24.7223 C   0  0  0  0  0  0
  -21.8819   -3.8142   23.4344 C   0  0  0  0  0  0
  -21.9193   -4.6957   22.3400 C   0  0  0  0  0  0
  -22.7776  -13.5203   21.1887 C   0  0  0  0  0  0
  -22.1662   -4.2143   21.0978 F   0  0  0  0  0  0
  -21.5634   -3.4535   25.7737 F   0  0  0  0  0  0
  -29.9525  -13.6454   20.3499 N   0  0  0  0  0  0
  -26.2845  -12.9407   20.3231 N   0  0  0  0  0  0
  -25.9289  -11.6550   20.5761 N   0  0  0  0  0  0
  -22.0425  -12.8199   22.0449 N   0  0  0  0  0  0
  -25.4053  -15.1904   20.4071 N   0  0  0  0  0  0
  -31.8907  -14.7253   20.1943 O   0  0  0  0  0  0
  -21.6638   -6.8869   21.4237 O   0  0  0  0  0  0
  -22.3462  -14.5506   20.6726 O   0  0  0  0  0  0
  -24.6360  -31.8511   23.1953 C   0  0  0  0  0  0
  -25.9166  -32.4729   23.8313 C   0  0  1  0  0  0
  -27.2114  -27.2146   20.1209 C   0  0  0  0  0  0
  -25.5942  -33.8535   24.2233 N   0  0  0  0  0  0
  -23.4339  -30.4753   21.5402 C   0  0  2  0  0  0
  -24.8784  -28.9199   20.1056 C   0  0  0  0  0  0
  -22.7527  -29.4581   22.4887 C   0  0  0  0  0  0
  -18.0297  -28.1387   22.8480 C   0  0  0  0  0  0
  -24.1489  -36.7271   23.2640 C   0  0  0  0  0  0
  -25.9852  -30.7488   21.3826 C   0  0  0  0  0  0
  -26.0534  -29.3696   20.7195 C   0  0  0  0  0  0
  -27.2184  -28.5287   20.7181 C   0  0  0  0  0  0
  -26.0016  -26.8417   19.4900 C   0  0  0  0  0  0
  -24.8608  -27.6661   19.4811 C   0  0  0  0  0  0
  -23.6530  -29.8127   20.1553 C   0  0  0  0  0  0
  -25.4118  -36.3053   24.0321 C   0  0  1  0  0  0
  -20.5905  -28.3702   23.1253 C   0  0  2  0  0  0
  -20.6781  -26.9413   22.5404 C   0  0  0  0  0  0
  -19.5755  -26.6380   21.5206 C   0  0  0  0  0  0
  -18.1937  -26.7927   22.1623 C   0  0  0  0  0  0
  -19.1553  -28.8861   23.2861 C   0  0  0  0  0  0
  -18.9473  -30.1461   23.8882 C   0  0  0  0  0  0
  -17.6469  -30.6584   24.0561 C   0  0  0  0  0  0
  -25.9064  -34.9425   23.5081 C   0  0  0  0  0  0
  -16.5361  -29.9082   23.6333 C   0  0  0  0  0  0
  -16.7282  -28.6499   23.0352 C   0  0  0  0  0  0
  -26.4514  -31.6573   25.0724 C   0  0  0  0  0  0
  -25.3723  -31.3744   26.1438 C   0  0  0  0  0  0
  -27.0367  -30.2977   24.6254 C   0  0  0  0  0  0
  -27.6058  -32.4326   25.7503 C   0  0  0  0  0  0
  -27.5578  -37.1790   24.8463 C   0  0  0  0  0  0
  -21.4228  -29.3040   22.3634 N   0  0  0  0  0  0
  -26.4286  -37.3759   23.9407 N   0  0  0  0  0  0
  -24.7045  -31.0442   22.0950 N   0  0  0  0  0  0
  -23.4210  -28.8117   23.2998 O   0  0  0  0  0  0
  -28.2933  -26.2911   20.2213 O   0  0  0  0  0  0
  -26.5642  -34.8907   22.4655 O   0  0  0  0  0  0
  -23.5500  -32.1355   23.7226 O   0  0  0  0  0  0
  -27.6402  -22.4614   19.8636 C   0  0  0  0  0  0
  -28.6000  -23.4995   20.0318 C   0  0  0  0  0  0
  -29.8424  -22.9495   20.4580 C   0  0  0  0  0  0
  -29.0936  -20.7027   20.4176 C   0  0  0  0  0  0
  -31.7872  -23.8339   21.9731 C   0  0  0  0  0  0
  -31.0006  -25.0401   21.5286 C   0  0  0  0  0  0
  -30.6741  -18.7078   20.9441 C   0  0  0  0  0  0
  -28.4219  -18.1569   20.2689 C   0  0  0  0  0  0
  -31.0541  -17.3176   20.2811 C   0  0  0  0  0  0
  -28.7911  -16.6837   20.8260 C   0  0  0  0  0  0
  -31.0546  -23.8092   20.6502 C   0  0  0  0  0  0
  -28.3719  -24.9920   19.4435 C   0  0  0  0  0  0
  -27.8790  -21.1168   20.0484 N   0  0  0  0  0  0
  -30.0630  -21.5994   20.6446 N   0  0  0  0  0  0
  -29.3740  -19.2718   20.5361 N   0  0  0  0  0  0
  -30.1515  -16.1370   20.5234 N   0  0  0  0  0  0
  -31.4470  -12.6051   19.1694 H   0  0  0  0  0  0
  -30.3446  -11.5714   20.0218 H   0  0  0  0  0  0
  -29.8035  -11.7058   17.5564 H   0  0  0  0  0  0
  -29.6007  -13.4371   17.6895 H   0  0  0  0  0  0
  -27.9233  -11.2566   18.9723 H   0  0  0  0  0  0
  -27.3681  -12.4342   17.8113 H   0  0  0  0  0  0
  -27.5775  -14.2209   19.3677 H   0  0  0  0  0  0
  -28.7406  -12.3179   21.4701 H   0  0  0  0  0  0
  -28.3877  -14.0097   21.7253 H   0  0  0  0  0  0
  -25.2754   -9.5683   22.4765 H   0  0  0  0  0  0
  -24.0001   -7.4621   22.7472 H   0  0  0  0  0  0
  -21.0836   -8.8760   19.8955 H   0  0  0  0  0  0
  -22.3683  -10.9665   19.6173 H   0  0  0  0  0  0
  -21.2005   -7.6139   23.9705 H   0  0  0  0  0  0
  -21.1489   -6.0521   25.9071 H   0  0  0  0  0  0
  -22.0598   -2.7604   23.2845 H   0  0  0  0  0  0
  -22.4050  -11.9866   22.4837 H   0  0  0  0  0  0
  -21.1046  -13.1228   22.2657 H   0  0  0  0  0  0
  -24.6320  -15.8374   20.5162 H   0  0  0  0  0  0
  -26.2414  -15.6293   20.0476 H   0  0  0  0  0  0
  -26.7228  -32.5353   23.1046 H   0  0  0  0  0  0
  -25.0073  -33.9663   25.0370 H   0  0  0  0  0  0
  -22.7324  -31.2995   21.3944 H   0  0  0  0  0  0
  -23.3752  -35.9601   23.3294 H   0  0  0  0  0  0
  -24.3578  -36.8909   22.2056 H   0  0  0  0  0  0
  -23.7243  -37.6469   23.6677 H   0  0  0  0  0  0
  -26.1339  -31.5098   20.6155 H   0  0  0  0  0  0
  -26.8592  -30.7934   22.0210 H   0  0  0  0  0  0
  -28.1154  -28.8659   21.2182 H   0  0  0  0  0  0
  -25.8662  -25.8748   19.0357 H   0  0  0  0  0  0
  -23.9567  -27.3107   19.0059 H   0  0  0  0  0  0
  -23.7824  -30.5906   19.4020 H   0  0  0  0  0  0
  -22.7690  -29.2517   19.8467 H   0  0  0  0  0  0
  -25.1300  -36.1893   25.0813 H   0  0  0  0  0  0
  -21.0001  -28.3285   24.1375 H   0  0  0  0  0  0
  -20.5670  -26.2315   23.3615 H   0  0  0  0  0  0
  -21.6650  -26.7422   22.1206 H   0  0  0  0  0  0
  -19.6916  -25.6286   21.1245 H   0  0  0  0  0  0
  -19.6692  -27.3185   20.6729 H   0  0  0  0  0  0
  -17.4204  -26.6668   21.4028 H   0  0  0  0  0  0
  -18.0342  -26.0073   22.9025 H   0  0  0  0  0  0
  -19.7946  -30.7277   24.2250 H   0  0  0  0  0  0
  -17.5022  -31.6262   24.5166 H   0  0  0  0  0  0
  -15.5361  -30.2976   23.7660 H   0  0  0  0  0  0
  -15.8685  -28.0809   22.7078 H   0  0  0  0  0  0
  -24.5888  -30.7108   25.7760 H   0  0  0  0  0  0
  -24.8931  -32.2925   26.4848 H   0  0  0  0  0  0
  -25.8026  -30.8922   27.0225 H   0  0  0  0  0  0
  -26.2963  -29.6716   24.1261 H   0  0  0  0  0  0
  -27.4001  -29.7255   25.4800 H   0  0  0  0  0  0
  -27.8865  -30.4225   23.9540 H   0  0  0  0  0  0
  -27.2651  -33.3628   26.2063 H   0  0  0  0  0  0
  -28.3878  -32.6887   25.0342 H   0  0  0  0  0  0
  -28.0716  -31.8468   26.5438 H   0  0  0  0  0  0
  -28.2586  -38.0094   24.7512 H   0  0  0  0  0  0
  -28.1083  -36.2625   24.6283 H   0  0  0  0  0  0
  -27.2296  -37.1431   25.8865 H   0  0  0  0  0  0
  -20.9420  -29.8773   21.6843 H   0  0  0  0  0  0
  -26.0160  -38.2828   24.1417 H   0  0  0  0  0  0
  -26.6577  -22.7032   19.4859 H   0  0  0  0  0  0
  -31.3789  -23.2375   22.7862 H   0  0  0  0  0  0
  -32.8717  -23.9141   21.9488 H   0  0  0  0  0  0
  -31.5651  -25.9125   21.2065 H   0  0  0  0  0  0
  -30.0695  -25.2503   22.0515 H   0  0  0  0  0  0
  -31.4606  -19.4271   20.7101 H   0  0  0  0  0  0
  -30.6764  -18.6087   22.0308 H   0  0  0  0  0  0
  -27.4452  -18.4458   20.6606 H   0  0  0  0  0  0
  -28.2971  -18.1013   19.1865 H   0  0  0  0  0  0
  -32.0627  -17.0919   20.6307 H   0  0  0  0  0  0
  -31.1453  -17.4488   19.2018 H   0  0  0  0  0  0
  -28.0419  -15.9979   20.4515 H   0  0  0  0  0  0
  -28.6757  -16.6742   21.9105 H   0  0  0  0  0  0
  -31.6465  -23.8643   19.7386 H   0  0  0  0  0  0
  -27.5942  -24.9121   18.6905 H   0  0  0  0  0  0
  -29.2527  -25.1495   18.8203 H   0  0  0  0  0  0
  1 25  1  0  0  0
  1 30  2  0  0  0
  1 86  1  0  0  0
  2  3  1  0  0  0
  2 25  1  0  0  0
  2 87  1  0  0  0
  2 88  1  0  0  0
  3  4  1  0  0  0
  3 89  1  0  0  0
  3 90  1  0  0  0
  4  5  1  0  0  0
  4 91  1  0  0  0
  4 92  1  0  0  0
  5  6  1  0  0  0
  5 26  1  0  0  0
  5 93  1  0  0  0
  6 25  1  0  0  0
  6 94  1  0  0  0
  6 95  1  0  0  0
  7  8  2  0  0  0
  7 26  1  0  0  0
  7 29  1  0  0  0
  8  9  1  0  0  0
  8 22  1  0  0  0
  9 10  1  0  0  0
  9 27  2  0  0  0
 10 11  2  0  0  0
 10 15  1  0  0  0
 11 12  1  0  0  0
 11 96  1  0  0  0
 12 13  2  0  0  0
 12 97  1  0  0  0
 13 14  1  0  0  0
 13 31  1  0  0  0
 14 15  2  0  0  0
 14 98  1  0  0  0
 15 99  1  0  0  0
 16 17  2  0  0  0
 16 21  1  0  0  0
 16 31  1  0  0  0
 17 18  1  0  0  0
 17100  1  0  0  0
 18 19  2  0  0  0
 18101  1  0  0  0
 19 20  1  0  0  0
 19 24  1  0  0  0
 20 21  2  0  0  0
 20102  1  0  0  0
 21 23  1  0  0  0
 22 28  1  0  0  0
 22 32  2  0  0  0
 26 27  1  0  0  0
 28103  1  0  0  0
 28104  1  0  0  0
 29105  1  0  0  0
 29106  1  0  0  0
 33 34  1  0  0  0
 33 66  1  0  0  0
 33 70  2  0  0  0
 34 36  1  0  0  0
 34 59  1  0  0  0
 34107  1  0  0  0
 35 44  2  0  0  0
 35 45  1  0  0  0
 35 68  1  0  0  0
 36 56  1  0  0  0
 36108  1  0  0  0
 37 39  1  0  0  0
 37 47  1  0  0  0
 37 66  1  0  0  0
 37109  1  0  0  0
 38 43  2  0  0  0
 38 46  1  0  0  0
 38 47  1  0  0  0
 39 64  1  0  0  0
 39 67  2  0  0  0
 40 52  1  0  0  0
 40 53  2  0  0  0
 40 58  1  0  0  0
 41110  1  0  0  0
 41111  1  0  0  0
 41112  1  0  0  0
 41 48  1  0  0  0
 42 43  1  0  0  0
 42 66  1  0  0  0
 42113  1  0  0  0
 42114  1  0  0  0
 43 44  1  0  0  0
 44115  1  0  0  0
 45 46  2  0  0  0
 45116  1  0  0  0
 46117  1  0  0  0
 47118  1  0  0  0
 47119  1  0  0  0
 48 56  1  0  0  0
 48 65  1  0  0  0
 48120  1  0  0  0
 49 50  1  0  0  0
 49 53  1  0  0  0
 49 64  1  0  0  0
 49121  1  0  0  0
 50 51  1  0  0  0
 50122  1  0  0  0
 50123  1  0  0  0
 51 52  1  0  0  0
 51124  1  0  0  0
 51125  1  0  0  0
 52126  1  0  0  0
 52127  1  0  0  0
 53 54  1  0  0  0
 54 55  2  0  0  0
 54128  1  0  0  0
 55 57  1  0  0  0
 55129  1  0  0  0
 56 69  2  0  0  0
 57 58  2  0  0  0
 57130  1  0  0  0
 58131  1  0  0  0
 59 60  1  0  0  0
 59 61  1  0  0  0
 59 62  1  0  0  0
 60132  1  0  0  0
 60133  1  0  0  0
 60134  1  0  0  0
 61135  1  0  0  0
 61136  1  0  0  0
 61137  1  0  0  0
 62138  1  0  0  0
 62139  1  0  0  0
 62140  1  0  0  0
 63 65  1  0  0  0
 63141  1  0  0  0
 63142  1  0  0  0
 63143  1  0  0  0
 64144  1  0  0  0
 65145  1  0  0  0
 68 82  1  0  0  0
 71 72  2  0  0  0
 71 83  1  0  0  0
 71146  1  0  0  0
 72 73  1  0  0  0
 72 82  1  0  0  0
 73 84  2  0  0  0
 73 81  1  0  0  0
 74 83  2  0  0  0
 74 84  1  0  0  0
 74 85  1  0  0  0
 75 76  1  0  0  0
 75 81  1  0  0  0
 75147  1  0  0  0
 75148  1  0  0  0
 76 81  1  0  0  0
 76149  1  0  0  0
 76150  1  0  0  0
 77 79  1  0  0  0
 77 85  1  0  0  0
 77151  1  0  0  0
 77152  1  0  0  0
 78 80  1  0  0  0
 78 85  1  0  0  0
 78153  1  0  0  0
 78154  1  0  0  0
 79 86  1  0  0  0
 79155  1  0  0  0
 79156  1  0  0  0
 80 86  1  0  0  0
 80157  1  0  0  0
 80158  1  0  0  0
 81159  1  0  0  0
 82160  1  0  0  0
 82161  1  0  0  0
M  ISO  4   1 100  68 101  82 101  86 100
M  END
> <chiral flag>
0

> <version>
0

> <s_m_source_file>
/data/baiqing/PycharmProjects/Reinvent-master-3.2/result/LINK_invent/BTK/process_docking_weight1_custom_sum_contain_oxygen_bond_distance_aromatic_linkinvent_7_9_3/rearranged_h_0199.sdf

> <i_m_source_file_index>
61

> <r_mmod_Potential_Energy-OPLS-2005>
-25.906156539917

> <r_mmod_Stretch_Energy-OPLS-2005>
144.938812255859

> <r_mmod_Bend_Energy-OPLS-2005>
248.130081176758

> <r_mmod_Torsional_Energy-OPLS-2005>
350.514282226562

> <r_mmod_Improper_Torsional_Energy-OPLS-2005>
10.0897054672241

> <r_mmod_Van_der_Waal_Energy-OPLS-2005>
160.987152099609

> <r_mmod_Electrostatic_Energy-OPLS-2005>
-825.327026367188

> <r_mmod_Solvation_Energy-OPLS-2005>
-242.760147094727

> <b_mmod_Minimization_Converged-OPLS-2005>
0

> <r_mmod_RMS_Derivative-OPLS-2005>
0.829674601554871

$$$$
61
                    3D
 Structure written by MMmdl.
153162  0  0  1  0            999 V2000
  -30.6727  -14.8452   20.4375 C   0  0  0  0  0  0
  -30.4068  -12.5331   19.4869 C   0  0  0  0  0  0
  -29.4967  -12.4951   18.2435 C   0  0  0  0  0  0
  -28.0378  -12.2705   18.6742 C   0  0  0  0  0  0
  -27.6168  -13.2210   19.8214 C   0  0  2  0  0  0
  -28.6639  -13.3027   20.9581 C   0  0  0  0  0  0
  -25.2449  -13.8150   20.5712 C   0  0  0  0  0  0
  -24.1748  -13.0411   20.9242 C   0  0  0  0  0  0
  -24.6336  -11.6888   20.8784 C   0  0  0  0  0  0
  -23.9026  -10.4274   21.0431 C   0  0  0  0  0  0
  -24.3593   -9.4194   21.9202 C   0  0  0  0  0  0
  -23.6280   -8.2223   22.0755 C   0  0  0  0  0  0
  -22.4262   -8.0262   21.3541 C   0  0  0  0  0  0
  -21.9893   -9.0233   20.4640 C   0  0  0  0  0  0
  -22.7210  -10.2120   20.3065 C   0  0  0  0  0  0
  -21.6843   -6.0726   22.5281 C   0  0  0  0  0  0
  -21.4009   -6.5635   23.8215 C   0  0  0  0  0  0
  -21.3663   -5.6789   24.9178 C   0  0  0  0  0  0
  -21.6047   -4.3051   24.7227 C   0  0  0  0  0  0
  -21.8820   -3.8140   23.4349 C   0  0  0  0  0  0
  -21.9190   -4.6955   22.3405 C   0  0  0  0  0  0
  -22.7782  -13.5215   21.1896 C   0  0  0  0  0  0
  -22.1658   -4.2145   21.0980 F   0  0  0  0  0  0
  -21.5634   -3.4533   25.7739 F   0  0  0  0  0  0
  -29.9474  -13.6630   20.3455 N   0  0  0  0  0  0
  -26.2816  -12.9322   20.3214 N   0  0  0  0  0  0
  -25.9250  -11.6490   20.5768 N   0  0  0  0  0  0
  -22.0418  -12.8214   22.0449 N   0  0  0  0  0  0
  -25.4145  -15.1869   20.4125 N   0  0  0  0  0  0
  -31.8807  -14.7610   20.1946 O   0  0  0  0  0  0
  -21.6628   -6.8859   21.4237 O   0  0  0  0  0  0
  -22.3489  -14.5529   20.6737 O   0  0  0  0  0  0
  -24.6366  -31.8504   23.1936 C   0  0  0  0  0  0
  -25.9171  -32.4725   23.8304 C   0  0  1  0  0  0
  -27.2205  -27.2160   20.1246 C   0  0  0  0  0  0
  -25.5940  -33.8529   24.2221 N   0  0  0  0  0  0
  -23.4351  -30.4721   21.5379 C   0  0  2  0  0  0
  -24.8818  -28.9126   20.1057 C   0  0  0  0  0  0
  -22.7526  -29.4580   22.4886 C   0  0  0  0  0  0
  -18.0296  -28.1398   22.8480 C   0  0  0  0  0  0
  -24.1488  -36.7276   23.2640 C   0  0  0  0  0  0
  -25.9843  -30.7489   21.3792 C   0  0  0  0  0  0
  -26.0545  -29.3674   20.7195 C   0  0  0  0  0  0
  -27.2215  -28.5306   20.7202 C   0  0  0  0  0  0
  -26.0162  -26.8352   19.4903 C   0  0  0  0  0  0
  -24.8703  -27.6570   19.4807 C   0  0  0  0  0  0
  -23.6549  -29.8049   20.1542 C   0  0  0  0  0  0
  -25.4117  -36.3051   24.0317 C   0  0  1  0  0  0
  -20.5904  -28.3713   23.1256 C   0  0  2  0  0  0
  -20.6781  -26.9424   22.5410 C   0  0  0  0  0  0
  -19.5756  -26.6389   21.5215 C   0  0  0  0  0  0
  -18.1937  -26.7936   22.1625 C   0  0  0  0  0  0
  -19.1551  -28.8872   23.2862 C   0  0  0  0  0  0
  -18.9468  -30.1470   23.8889 C   0  0  0  0  0  0
  -17.6465  -30.6590   24.0569 C   0  0  0  0  0  0
  -25.9066  -34.9421   23.5081 C   0  0  0  0  0  0
  -16.5358  -29.9090   23.6336 C   0  0  0  0  0  0
  -16.7281  -28.6513   23.0347 C   0  0  0  0  0  0
  -26.4515  -31.6563   25.0715 C   0  0  0  0  0  0
  -25.3715  -31.3734   26.1420 C   0  0  0  0  0  0
  -27.0364  -30.2969   24.6237 C   0  0  0  0  0  0
  -27.6057  -32.4310   25.7502 C   0  0  0  0  0  0
  -27.5575  -37.1791   24.8464 C   0  0  0  0  0  0
  -21.4228  -29.3051   22.3639 N   0  0  0  0  0  0
  -26.4286  -37.3756   23.9407 N   0  0  0  0  0  0
  -24.7048  -31.0429   22.0932 N   0  0  0  0  0  0
  -23.4207  -28.8124   23.3006 O   0  0  0  0  0  0
  -28.3092  -26.3028   20.2323 O   0  0  0  0  0  0
  -26.5650  -34.8908   22.4655 O   0  0  0  0  0  0
  -23.5505  -32.1352   23.7203 O   0  0  0  0  0  0
  -27.8338  -21.2460   19.8061 C   0  0  0  0  0  0
  -29.0407  -20.7086   20.3566 C   0  0  0  0  0  0
  -28.5440  -23.4889   20.0316 C   0  0  0  0  0  0
  -30.5347  -18.7373   21.1946 C   0  0  0  0  0  0
  -28.5157  -18.1679   19.9526 C   0  0  0  0  0  0
  -31.0737  -17.3301   20.6742 C   0  0  0  0  0  0
  -28.7433  -16.6935   20.5583 C   0  0  0  0  0  0
  -28.4308  -25.0048   19.4485 C   0  0  0  0  0  0
  -27.5982  -22.5981   19.6523 N   0  0  0  0  0  0
  -29.9324  -21.6804   20.7547 N   0  0  0  0  0  0
  -29.7059  -23.0275   20.5800 N   0  0  0  0  0  0
  -29.3515  -19.2719   20.4928 N   0  0  0  0  0  0
  -30.1373  -16.1522   20.6096 N   0  0  0  0  0  0
  -31.4465  -12.6281   19.1708 H   0  0  0  0  0  0
  -30.3532  -11.5899   20.0335 H   0  0  0  0  0  0
  -29.8127  -11.7020   17.5644 H   0  0  0  0  0  0
  -29.5828  -13.4310   17.6891 H   0  0  0  0  0  0
  -27.9472  -11.2341   19.0022 H   0  0  0  0  0  0
  -27.3663  -12.3791   17.8214 H   0  0  0  0  0  0
  -27.5520  -14.1835   19.3276 H   0  0  0  0  0  0
  -28.7406  -12.3544   21.4922 H   0  0  0  0  0  0
  -28.3718  -14.0511   21.6961 H   0  0  0  0  0  0
  -25.2730   -9.5681   22.4788 H   0  0  0  0  0  0
  -23.9991   -7.4612   22.7474 H   0  0  0  0  0  0
  -21.0828   -8.8741   19.8944 H   0  0  0  0  0  0
  -22.3659  -10.9663   19.6179 H   0  0  0  0  0  0
  -21.1996   -7.6142   23.9721 H   0  0  0  0  0  0
  -21.1488   -6.0515   25.9085 H   0  0  0  0  0  0
  -22.0598   -2.7601   23.2846 H   0  0  0  0  0  0
  -22.4012  -11.9862   22.4832 H   0  0  0  0  0  0
  -21.1044  -13.1257   22.2660 H   0  0  0  0  0  0
  -24.6478  -15.8404   20.5302 H   0  0  0  0  0  0
  -26.2633  -15.6255   20.0844 H   0  0  0  0  0  0
  -26.7234  -32.5358   23.1037 H   0  0  0  0  0  0
  -25.0049  -33.9657   25.0342 H   0  0  0  0  0  0
  -22.7342  -31.2959   21.3890 H   0  0  0  0  0  0
  -23.3750  -35.9612   23.3297 H   0  0  0  0  0  0
  -24.3581  -36.8915   22.2058 H   0  0  0  0  0  0
  -23.7240  -37.6469   23.6681 H   0  0  0  0  0  0
  -26.1271  -31.5067   20.6075 H   0  0  0  0  0  0
  -26.8604  -30.7992   22.0143 H   0  0  0  0  0  0
  -28.1165  -28.8722   21.2212 H   0  0  0  0  0  0
  -25.9025  -25.8642   19.0356 H   0  0  0  0  0  0
  -23.9680  -27.2996   19.0041 H   0  0  0  0  0  0
  -23.7839  -30.5809   19.3990 H   0  0  0  0  0  0
  -22.7721  -29.2412   19.8482 H   0  0  0  0  0  0
  -25.1300  -36.1889   25.0810 H   0  0  0  0  0  0
  -20.9993  -28.3299   24.1379 H   0  0  0  0  0  0
  -20.5677  -26.2327   23.3624 H   0  0  0  0  0  0
  -21.6646  -26.7442   22.1205 H   0  0  0  0  0  0
  -19.6918  -25.6297   21.1250 H   0  0  0  0  0  0
  -19.6691  -27.3198   20.6744 H   0  0  0  0  0  0
  -17.4204  -26.6682   21.4031 H   0  0  0  0  0  0
  -18.0338  -26.0083   22.9027 H   0  0  0  0  0  0
  -19.7944  -30.7288   24.2253 H   0  0  0  0  0  0
  -17.5020  -31.6268   24.5174 H   0  0  0  0  0  0
  -15.5357  -30.2989   23.7662 H   0  0  0  0  0  0
  -15.8683  -28.0832   22.7058 H   0  0  0  0  0  0
  -24.5902  -30.7072   25.7744 H   0  0  0  0  0  0
  -24.8896  -32.2911   26.4804 H   0  0  0  0  0  0
  -25.8012  -30.8936   27.0223 H   0  0  0  0  0  0
  -26.2961  -29.6700   24.1252 H   0  0  0  0  0  0
  -27.4012  -29.7249   25.4779 H   0  0  0  0  0  0
  -27.8855  -30.4224   23.9514 H   0  0  0  0  0  0
  -27.2658  -33.3617   26.2058 H   0  0  0  0  0  0
  -28.3888  -32.6851   25.0345 H   0  0  0  0  0  0
  -28.0703  -31.8443   26.5438 H   0  0  0  0  0  0
  -28.2580  -38.0098   24.7510 H   0  0  0  0  0  0
  -28.1075  -36.2624   24.6285 H   0  0  0  0  0  0
  -27.2296  -37.1436   25.8867 H   0  0  0  0  0  0
  -20.9425  -29.8775   21.6838 H   0  0  0  0  0  0
  -26.0157  -38.2825   24.1413 H   0  0  0  0  0  0
  -27.0503  -20.5889   19.4599 H   0  0  0  0  0  0
  -31.3482  -19.4621   21.1376 H   0  0  0  0  0  0
  -30.2859  -18.6539   22.2539 H   0  0  0  0  0  0
  -27.4635  -18.4256   20.0771 H   0  0  0  0  0  0
  -28.6850  -18.1293   18.8753 H   0  0  0  0  0  0
  -31.9190  -17.0631   21.3122 H   0  0  0  0  0  0
  -31.4936  -17.4678   19.6763 H   0  0  0  0  0  0
  -28.1326  -16.0286   19.9649 H   0  0  0  0  0  0
  -28.3401  -16.6543   21.5710 H   0  0  0  0  0  0
  -27.7192  -24.9813   18.6272 H   0  0  0  0  0  0
  -29.3748  -25.1351   18.9195 H   0  0  0  0  0  0
  1 25  1  0  0  0
  1 30  2  0  0  0
  1 83  1  0  0  0
  2  3  1  0  0  0
  2 25  1  0  0  0
  2 84  1  0  0  0
  2 85  1  0  0  0
  3  4  1  0  0  0
  3 86  1  0  0  0
  3 87  1  0  0  0
  4  5  1  0  0  0
  4 88  1  0  0  0
  4 89  1  0  0  0
  5  6  1  0  0  0
  5 26  1  0  0  0
  5 90  1  0  0  0
  6 25  1  0  0  0
  6 91  1  0  0  0
  6 92  1  0  0  0
  7  8  2  0  0  0
  7 26  1  0  0  0
  7 29  1  0  0  0
  8  9  1  0  0  0
  8 22  1  0  0  0
  9 10  1  0  0  0
  9 27  2  0  0  0
 10 11  2  0  0  0
 10 15  1  0  0  0
 11 12  1  0  0  0
 11 93  1  0  0  0
 12 13  2  0  0  0
 12 94  1  0  0  0
 13 14  1  0  0  0
 13 31  1  0  0  0
 14 15  2  0  0  0
 14 95  1  0  0  0
 15 96  1  0  0  0
 16 17  2  0  0  0
 16 21  1  0  0  0
 16 31  1  0  0  0
 17 18  1  0  0  0
 17 97  1  0  0  0
 18 19  2  0  0  0
 18 98  1  0  0  0
 19 20  1  0  0  0
 19 24  1  0  0  0
 20 21  2  0  0  0
 20 99  1  0  0  0
 21 23  1  0  0  0
 22 28  1  0  0  0
 22 32  2  0  0  0
 26 27  1  0  0  0
 28100  1  0  0  0
 28101  1  0  0  0
 29102  1  0  0  0
 29103  1  0  0  0
 33 34  1  0  0  0
 33 66  1  0  0  0
 33 70  2  0  0  0
 34 36  1  0  0  0
 34 59  1  0  0  0
 34104  1  0  0  0
 35 44  2  0  0  0
 35 45  1  0  0  0
 35 68  1  0  0  0
 36 56  1  0  0  0
 36105  1  0  0  0
 37 39  1  0  0  0
 37 47  1  0  0  0
 37 66  1  0  0  0
 37106  1  0  0  0
 38 43  2  0  0  0
 38 46  1  0  0  0
 38 47  1  0  0  0
 39 64  1  0  0  0
 39 67  2  0  0  0
 40 52  1  0  0  0
 40 53  2  0  0  0
 40 58  1  0  0  0
 41107  1  0  0  0
 41108  1  0  0  0
 41109  1  0  0  0
 41 48  1  0  0  0
 42 43  1  0  0  0
 42 66  1  0  0  0
 42110  1  0  0  0
 42111  1  0  0  0
 43 44  1  0  0  0
 44112  1  0  0  0
 45 46  2  0  0  0
 45113  1  0  0  0
 46114  1  0  0  0
 47115  1  0  0  0
 47116  1  0  0  0
 48 56  1  0  0  0
 48 65  1  0  0  0
 48117  1  0  0  0
 49 50  1  0  0  0
 49 53  1  0  0  0
 49 64  1  0  0  0
 49118  1  0  0  0
 50 51  1  0  0  0
 50119  1  0  0  0
 50120  1  0  0  0
 51 52  1  0  0  0
 51121  1  0  0  0
 51122  1  0  0  0
 52123  1  0  0  0
 52124  1  0  0  0
 53 54  1  0  0  0
 54 55  2  0  0  0
 54125  1  0  0  0
 55 57  1  0  0  0
 55126  1  0  0  0
 56 69  2  0  0  0
 57 58  2  0  0  0
 57127  1  0  0  0
 58128  1  0  0  0
 59 60  1  0  0  0
 59 61  1  0  0  0
 59 62  1  0  0  0
 60129  1  0  0  0
 60130  1  0  0  0
 60131  1  0  0  0
 61132  1  0  0  0
 61133  1  0  0  0
 61134  1  0  0  0
 62135  1  0  0  0
 62136  1  0  0  0
 62137  1  0  0  0
 63 65  1  0  0  0
 63138  1  0  0  0
 63139  1  0  0  0
 63140  1  0  0  0
 64141  1  0  0  0
 65142  1  0  0  0
 68 78  1  0  0  0
 71 72  2  0  0  0
 71 79  1  0  0  0
 71143  1  0  0  0
 72 80  1  0  0  0
 72 82  1  0  0  0
 73 78  1  0  0  0
 73 79  2  0  0  0
 73 81  1  0  0  0
 74 76  1  0  0  0
 74 82  1  0  0  0
 74144  1  0  0  0
 74145  1  0  0  0
 75 77  1  0  0  0
 75 82  1  0  0  0
 75146  1  0  0  0
 75147  1  0  0  0
 76 83  1  0  0  0
 76148  1  0  0  0
 76149  1  0  0  0
 77 83  1  0  0  0
 77150  1  0  0  0
 77151  1  0  0  0
 78152  1  0  0  0
 78153  1  0  0  0
 80 81  2  0  0  0
M  ISO  4   1 100  68 101  78 101  83 100
M  END
> <chiral flag>
0

> <version>
0

> <s_m_source_file>
/data/baiqing/PycharmProjects/Reinvent-master-3.2/result/LINK_invent/BTK/process_docking_weight1_custom_sum_contain_oxygen_bond_distance_aromatic_linkinvent_7_9_3/rearranged_h_0199.sdf

> <i_m_source_file_index>
62

> <r_mmod_Potential_Energy-OPLS-2005>
548.257446289062

> <r_mmod_Stretch_Energy-OPLS-2005>
159.543365478516

> <r_mmod_Bend_Energy-OPLS-2005>
271.692016601562

> <r_mmod_Torsional_Energy-OPLS-2005>
320.740203857422

> <r_mmod_Improper_Torsional_Energy-OPLS-2005>
6.77578735351562

> <r_mmod_Van_der_Waal_Energy-OPLS-2005>
159.087295532227

> <r_mmod_Electrostatic_Energy-OPLS-2005>
-251.163604736328

> <r_mmod_Solvation_Energy-OPLS-2005>
-253.330947875977

> <b_mmod_Minimization_Converged-OPLS-2005>
0

> <r_mmod_RMS_Derivative-OPLS-2005>
0.759621262550354

$$$$
62
                    3D
 Structure written by MMmdl.
165174  0  0  1  0            999 V2000
  -30.6842  -14.5599   20.5505 C   0  0  0  0  0  0
  -30.4238  -12.3554   19.4416 C   0  0  0  0  0  0
  -29.4960  -12.5050   18.2175 C   0  0  0  0  0  0
  -28.0204  -12.3550   18.6327 C   0  0  0  0  0  0
  -27.6557  -13.2170   19.8711 C   0  0  2  0  0  0
  -28.7001  -13.0511   20.9981 C   0  0  0  0  0  0
  -25.2569  -13.8180   20.5707 C   0  0  0  0  0  0
  -24.1828  -13.0444   20.9193 C   0  0  0  0  0  0
  -24.6396  -11.6914   20.8747 C   0  0  0  0  0  0
  -23.9063  -10.4294   21.0406 C   0  0  0  0  0  0
  -24.3613   -9.4208   21.9183 C   0  0  0  0  0  0
  -23.6290   -8.2243   22.0753 C   0  0  0  0  0  0
  -22.4274   -8.0280   21.3544 C   0  0  0  0  0  0
  -21.9906   -9.0254   20.4647 C   0  0  0  0  0  0
  -22.7233  -10.2138   20.3054 C   0  0  0  0  0  0
  -21.6851   -6.0735   22.5281 C   0  0  0  0  0  0
  -21.4011   -6.5639   23.8214 C   0  0  0  0  0  0
  -21.3663   -5.6793   24.9176 C   0  0  0  0  0  0
  -21.6042   -4.3056   24.7226 C   0  0  0  0  0  0
  -21.8819   -3.8148   23.4348 C   0  0  0  0  0  0
  -21.9190   -4.6963   22.3404 C   0  0  0  0  0  0
  -22.7848  -13.5242   21.1850 C   0  0  0  0  0  0
  -22.1659   -4.2147   21.0982 F   0  0  0  0  0  0
  -21.5632   -3.4541   25.7742 F   0  0  0  0  0  0
  -30.0214  -13.3685   20.4351 N   0  0  0  0  0  0
  -26.3002  -12.9365   20.3371 N   0  0  0  0  0  0
  -25.9326  -11.6515   20.5784 N   0  0  0  0  0  0
  -22.0490  -12.8231   22.0409 N   0  0  0  0  0  0
  -25.4286  -15.1894   20.4120 N   0  0  0  0  0  0
  -31.8063  -14.7307   20.0640 O   0  0  0  0  0  0
  -21.6640   -6.8877   21.4242 O   0  0  0  0  0  0
  -22.3533  -14.5548   20.6706 O   0  0  0  0  0  0
  -24.6206  -31.8636   23.2062 C   0  0  0  0  0  0
  -25.9081  -32.4797   23.8368 C   0  0  1  0  0  0
  -27.2244  -27.3581   20.1199 C   0  0  0  0  0  0
  -25.5916  -33.8592   24.2313 N   0  0  0  0  0  0
  -23.4123  -30.4869   21.5472 C   0  0  2  0  0  0
  -24.8599  -28.9465   20.1123 C   0  0  0  0  0  0
  -22.7446  -29.4643   22.4959 C   0  0  0  0  0  0
  -18.0280  -28.1378   22.8495 C   0  0  0  0  0  0
  -24.1488  -36.7296   23.2639 C   0  0  0  0  0  0
  -25.9486  -30.8086   21.3699 C   0  0  0  0  0  0
  -26.0247  -29.4376   20.7151 C   0  0  0  0  0  0
  -27.2115  -28.6546   20.7073 C   0  0  0  0  0  0
  -26.0428  -26.9122   19.4874 C   0  0  0  0  0  0
  -24.8690  -27.6891   19.4886 C   0  0  0  0  0  0
  -23.6248  -29.8206   20.1619 C   0  0  0  0  0  0
  -25.4107  -36.3085   24.0339 C   0  0  1  0  0  0
  -20.5877  -28.3679   23.1305 C   0  0  2  0  0  0
  -20.6765  -26.9410   22.5418 C   0  0  0  0  0  0
  -19.5744  -26.6389   21.5215 C   0  0  0  0  0  0
  -18.1923  -26.7927   22.1626 C   0  0  0  0  0  0
  -19.1528  -28.8844   23.2898 C   0  0  0  0  0  0
  -18.9449  -30.1447   23.8918 C   0  0  0  0  0  0
  -17.6450  -30.6585   24.0562 C   0  0  0  0  0  0
  -25.9036  -34.9453   23.5122 C   0  0  0  0  0  0
  -16.5344  -29.9083   23.6325 C   0  0  0  0  0  0
  -16.7267  -28.6494   23.0361 C   0  0  0  0  0  0
  -26.4490  -31.6576   25.0707 C   0  0  0  0  0  0
  -25.3747  -31.3689   26.1449 C   0  0  0  0  0  0
  -27.0325  -30.3007   24.6118 C   0  0  0  0  0  0
  -27.6062  -32.4291   25.7477 C   0  0  0  0  0  0
  -27.5582  -37.1801   24.8468 C   0  0  0  0  0  0
  -21.4168  -29.3036   22.3699 N   0  0  0  0  0  0
  -26.4293  -37.3771   23.9411 N   0  0  0  0  0  0
  -24.6790  -31.0683   22.0993 N   0  0  0  0  0  0
  -23.4195  -28.8190   23.3024 O   0  0  0  0  0  0
  -28.3636  -26.5559   20.1510 O   0  0  0  0  0  0
  -26.5599  -34.8913   22.4681 O   0  0  0  0  0  0
  -23.5385  -32.1413   23.7423 O   0  0  0  0  0  0
  -29.9431  -17.5323   22.5867 C   0  0  0  0  0  0
  -29.4216  -20.5034   18.7877 C   0  0  0  0  0  0
  -30.4143  -16.0746   22.4387 C   0  0  0  0  0  0
  -29.4862  -21.9732   18.3815 C   0  0  0  0  0  0
  -29.5690  -16.8272   20.3565 C   0  0  0  0  0  0
  -29.2435  -21.9837   20.6756 C   0  0  0  0  0  0
  -29.9832  -18.0977   21.1700 C   0  0  1  0  0  0
  -29.7465  -20.5377   20.2722 C   0  0  2  0  0  0
  -28.6447  -24.6716   17.9342 C   0  0  0  0  0  0
  -28.2123  -25.1080   20.3703 C   0  0  0  0  0  0
  -29.0068  -24.1966   19.3602 C   0  0  1  0  0  0
  -30.0055  -15.6091   21.1078 N   0  0  0  0  0  0
  -28.7983  -22.7064   19.4538 N   0  0  0  0  0  0
  -29.1617  -19.3619   21.0116 N   0  3  0  0  0  0
  -31.4676  -12.4570   19.1389 H   0  0  0  0  0  0
  -30.3364  -11.3552   19.8690 H   0  0  0  0  0  0
  -29.7469  -11.7609   17.4603 H   0  0  0  0  0  0
  -29.6510  -13.4793   17.7519 H   0  0  0  0  0  0
  -27.8471  -11.3011   18.8542 H   0  0  0  0  0  0
  -27.3649  -12.5988   17.7958 H   0  0  0  0  0  0
  -27.6838  -14.2574   19.5465 H   0  0  0  0  0  0
  -28.6945  -12.0282   21.3790 H   0  0  0  0  0  0
  -28.4522  -13.6872   21.8489 H   0  0  0  0  0  0
  -25.2754   -9.5687   22.4760 H   0  0  0  0  0  0
  -24.0000   -7.4636   22.7470 H   0  0  0  0  0  0
  -21.0838   -8.8770   19.8954 H   0  0  0  0  0  0
  -22.3682  -10.9677   19.6168 H   0  0  0  0  0  0
  -21.1999   -7.6147   23.9716 H   0  0  0  0  0  0
  -21.1487   -6.0525   25.9081 H   0  0  0  0  0  0
  -22.0592   -2.7608   23.2851 H   0  0  0  0  0  0
  -22.4102  -11.9884   22.4787 H   0  0  0  0  0  0
  -21.1112  -13.1264   22.2625 H   0  0  0  0  0  0
  -24.6644  -15.8474   20.5191 H   0  0  0  0  0  0
  -26.2852  -15.6246   20.0953 H   0  0  0  0  0  0
  -26.7145  -32.5492   23.1116 H   0  0  0  0  0  0
  -25.0057  -33.9730   25.0458 H   0  0  0  0  0  0
  -22.7032  -31.3050   21.4051 H   0  0  0  0  0  0
  -23.3743  -35.9636   23.3301 H   0  0  0  0  0  0
  -24.3589  -36.8906   22.2055 H   0  0  0  0  0  0
  -23.7245  -37.6505   23.6651 H   0  0  0  0  0  0
  -26.0697  -31.5745   20.6023 H   0  0  0  0  0  0
  -26.8337  -30.8615   21.9919 H   0  0  0  0  0  0
  -28.1094  -29.0300   21.1798 H   0  0  0  0  0  0
  -26.0135  -25.9561   18.9853 H   0  0  0  0  0  0
  -23.9783  -27.3115   19.0045 H   0  0  0  0  0  0
  -23.7365  -30.5962   19.4030 H   0  0  0  0  0  0
  -22.7466  -29.2433   19.8658 H   0  0  0  0  0  0
  -25.1281  -36.1941   25.0832 H   0  0  0  0  0  0
  -20.9968  -28.3245   24.1426 H   0  0  0  0  0  0
  -20.5659  -26.2287   23.3607 H   0  0  0  0  0  0
  -21.6633  -26.7435   22.1214 H   0  0  0  0  0  0
  -19.6900  -25.6300   21.1235 H   0  0  0  0  0  0
  -19.6679  -27.3205   20.6750 H   0  0  0  0  0  0
  -17.4192  -26.6690   21.4028 H   0  0  0  0  0  0
  -18.0321  -26.0059   22.9013 H   0  0  0  0  0  0
  -19.7919  -30.7258   24.2308 H   0  0  0  0  0  0
  -17.4997  -31.6268   24.5158 H   0  0  0  0  0  0
  -15.5343  -30.2990   23.7627 H   0  0  0  0  0  0
  -15.8670  -28.0807   22.7087 H   0  0  0  0  0  0
  -24.5940  -30.7008   25.7791 H   0  0  0  0  0  0
  -24.8908  -32.2842   26.4868 H   0  0  0  0  0  0
  -25.8099  -30.8883   27.0220 H   0  0  0  0  0  0
  -26.2879  -29.6765   24.1161 H   0  0  0  0  0  0
  -27.4062  -29.7245   25.4595 H   0  0  0  0  0  0
  -27.8734  -30.4302   23.9301 H   0  0  0  0  0  0
  -27.2689  -33.3594   26.2060 H   0  0  0  0  0  0
  -28.3882  -32.6843   25.0311 H   0  0  0  0  0  0
  -28.0724  -31.8398   26.5386 H   0  0  0  0  0  0
  -28.2596  -38.0099   24.7503 H   0  0  0  0  0  0
  -28.1081  -36.2628   24.6305 H   0  0  0  0  0  0
  -27.2304  -37.1466   25.8873 H   0  0  0  0  0  0
  -20.9338  -29.8750   21.6907 H   0  0  0  0  0  0
  -26.0179  -38.2853   24.1391 H   0  0  0  0  0  0
  -30.5624  -18.0980   23.2841 H   0  0  0  0  0  0
  -28.9207  -17.5382   22.9682 H   0  0  0  0  0  0
  -30.1161  -19.8844   18.2184 H   0  0  0  0  0  0
  -28.4131  -20.1241   18.6136 H   0  0  0  0  0  0
  -30.0023  -15.4369   23.2220 H   0  0  0  0  0  0
  -31.5021  -16.0320   22.5285 H   0  0  0  0  0  0
  -29.0223  -22.1180   17.4052 H   0  0  0  0  0  0
  -30.5285  -22.2937   18.3101 H   0  0  0  0  0  0
  -29.9906  -16.8531   19.3497 H   0  0  0  0  0  0
  -28.4856  -16.7741   20.2479 H   0  0  0  0  0  0
  -30.0595  -22.5270   21.1557 H   0  0  0  0  0  0
  -28.4214  -21.9482   21.3919 H   0  0  0  0  0  0
  -31.0268  -18.3234   20.9377 H   0  0  0  0  0  0
  -30.8301  -20.5353   20.4012 H   0  0  0  0  0  0
  -28.7222  -25.7554   17.8431 H   0  0  0  0  0  0
  -27.6228  -24.3975   17.6692 H   0  0  0  0  0  0
  -29.3148  -24.2759   17.1735 H   0  0  0  0  0  0
  -28.5817  -24.9090   21.3758 H   0  0  0  0  0  0
  -27.1701  -24.7920   20.3992 H   0  0  0  0  0  0
  -30.0693  -24.3953   19.5118 H   0  0  0  0  0  0
  -29.0288  -19.6977   21.9519 H   0  0  0  0  0  0
  -28.2407  -19.1538   20.6615 H   0  0  0  0  0  0
  1 25  1  0  0  0
  1 30  2  0  0  0
  1 82  1  0  0  0
  2  3  1  0  0  0
  2 25  1  0  0  0
  2 85  1  0  0  0
  2 86  1  0  0  0
  3  4  1  0  0  0
  3 87  1  0  0  0
  3 88  1  0  0  0
  4  5  1  0  0  0
  4 89  1  0  0  0
  4 90  1  0  0  0
  5  6  1  0  0  0
  5 26  1  0  0  0
  5 91  1  0  0  0
  6 25  1  0  0  0
  6 92  1  0  0  0
  6 93  1  0  0  0
  7  8  2  0  0  0
  7 26  1  0  0  0
  7 29  1  0  0  0
  8  9  1  0  0  0
  8 22  1  0  0  0
  9 10  1  0  0  0
  9 27  2  0  0  0
 10 11  2  0  0  0
 10 15  1  0  0  0
 11 12  1  0  0  0
 11 94  1  0  0  0
 12 13  2  0  0  0
 12 95  1  0  0  0
 13 14  1  0  0  0
 13 31  1  0  0  0
 14 15  2  0  0  0
 14 96  1  0  0  0
 15 97  1  0  0  0
 16 17  2  0  0  0
 16 21  1  0  0  0
 16 31  1  0  0  0
 17 18  1  0  0  0
 17 98  1  0  0  0
 18 19  2  0  0  0
 18 99  1  0  0  0
 19 20  1  0  0  0
 19 24  1  0  0  0
 20 21  2  0  0  0
 20100  1  0  0  0
 21 23  1  0  0  0
 22 28  1  0  0  0
 22 32  2  0  0  0
 26 27  1  0  0  0
 28101  1  0  0  0
 28102  1  0  0  0
 29103  1  0  0  0
 29104  1  0  0  0
 33 34  1  0  0  0
 33 66  1  0  0  0
 33 70  2  0  0  0
 34 36  1  0  0  0
 34 59  1  0  0  0
 34105  1  0  0  0
 35 44  2  0  0  0
 35 45  1  0  0  0
 35 68  1  0  0  0
 36 56  1  0  0  0
 36106  1  0  0  0
 37 39  1  0  0  0
 37 47  1  0  0  0
 37 66  1  0  0  0
 37107  1  0  0  0
 38 43  2  0  0  0
 38 46  1  0  0  0
 38 47  1  0  0  0
 39 64  1  0  0  0
 39 67  2  0  0  0
 40 52  1  0  0  0
 40 53  2  0  0  0
 40 58  1  0  0  0
 41108  1  0  0  0
 41109  1  0  0  0
 41110  1  0  0  0
 41 48  1  0  0  0
 42 43  1  0  0  0
 42 66  1  0  0  0
 42111  1  0  0  0
 42112  1  0  0  0
 43 44  1  0  0  0
 44113  1  0  0  0
 45 46  2  0  0  0
 45114  1  0  0  0
 46115  1  0  0  0
 47116  1  0  0  0
 47117  1  0  0  0
 48 56  1  0  0  0
 48 65  1  0  0  0
 48118  1  0  0  0
 49 50  1  0  0  0
 49 53  1  0  0  0
 49 64  1  0  0  0
 49119  1  0  0  0
 50 51  1  0  0  0
 50120  1  0  0  0
 50121  1  0  0  0
 51 52  1  0  0  0
 51122  1  0  0  0
 51123  1  0  0  0
 52124  1  0  0  0
 52125  1  0  0  0
 53 54  1  0  0  0
 54 55  2  0  0  0
 54126  1  0  0  0
 55 57  1  0  0  0
 55127  1  0  0  0
 56 69  2  0  0  0
 57 58  2  0  0  0
 57128  1  0  0  0
 58129  1  0  0  0
 59 60  1  0  0  0
 59 61  1  0  0  0
 59 62  1  0  0  0
 60130  1  0  0  0
 60131  1  0  0  0
 60132  1  0  0  0
 61133  1  0  0  0
 61134  1  0  0  0
 61135  1  0  0  0
 62136  1  0  0  0
 62137  1  0  0  0
 62138  1  0  0  0
 63 65  1  0  0  0
 63139  1  0  0  0
 63140  1  0  0  0
 63141  1  0  0  0
 64142  1  0  0  0
 65143  1  0  0  0
 68 80  1  0  0  0
 71 73  1  0  0  0
 71 77  1  0  0  0
 71144  1  0  0  0
 71145  1  0  0  0
 72 74  1  0  0  0
 72 78  1  0  0  0
 72146  1  0  0  0
 72147  1  0  0  0
 73 82  1  0  0  0
 73148  1  0  0  0
 73149  1  0  0  0
 74 83  1  0  0  0
 74150  1  0  0  0
 74151  1  0  0  0
 75 77  1  0  0  0
 75 82  1  0  0  0
 75152  1  0  0  0
 75153  1  0  0  0
 76 78  1  0  0  0
 76 83  1  0  0  0
 76154  1  0  0  0
 76155  1  0  0  0
 77 84  1  0  0  0
 77156  1  0  0  0
 78 84  1  0  0  0
 78157  1  0  0  0
 79158  1  0  0  0
 79159  1  0  0  0
 79160  1  0  0  0
 79 81  1  0  0  0
 80 81  1  0  0  0
 80161  1  0  0  0
 80162  1  0  0  0
 81 83  1  0  0  0
 81163  1  0  0  0
 84164  1  0  0  0
 84165  1  0  0  0
M  CHG  1  84   1
M  ISO  4   1 100  68 101  80 101  82 100
M  END
> <chiral flag>
0

> <version>
0

> <s_m_source_file>
/data/baiqing/PycharmProjects/Reinvent-master-3.2/result/LINK_invent/BTK/process_docking_weight1_custom_sum_contain_oxygen_bond_distance_aromatic_linkinvent_7_9_3/rearranged_h_0199.sdf

> <i_m_source_file_index>
63

> <r_mmod_Potential_Energy-OPLS-2005>
150.40022277832

> <r_mmod_Stretch_Energy-OPLS-2005>
66.7431640625

> <r_mmod_Bend_Energy-OPLS-2005>
177.858428955078

> <r_mmod_Torsional_Energy-OPLS-2005>
414.122650146484

> <r_mmod_Improper_Torsional_Energy-OPLS-2005>
6.5195517539978

> <r_mmod_Van_der_Waal_Energy-OPLS-2005>
124.460220336914

> <r_mmod_Electrostatic_Energy-OPLS-2005>
-210.017288208008

> <r_mmod_Solvation_Energy-OPLS-2005>
-457.680267333984

> <b_mmod_Minimization_Converged-OPLS-2005>
0

> <r_mmod_RMS_Derivative-OPLS-2005>
1.35666847229004

$$$$
63
                    3D
 Structure written by MMmdl.
174184  0  0  1  0            999 V2000
  -30.6875  -14.5772   20.6106 C   0  0  0  0  0  0
  -30.4332  -12.3951   19.4379 C   0  0  0  0  0  0
  -29.4993  -12.5174   18.2164 C   0  0  0  0  0  0
  -28.0255  -12.3245   18.6236 C   0  0  0  0  0  0
  -27.6522  -13.1770   19.8577 C   0  0  2  0  0  0
  -28.7019  -12.9958   20.9886 C   0  0  0  0  0  0
  -25.2571  -13.8046   20.5639 C   0  0  0  0  0  0
  -24.1802  -13.0366   20.9162 C   0  0  0  0  0  0
  -24.6327  -11.6828   20.8763 C   0  0  0  0  0  0
  -23.9006  -10.4238   21.0475 C   0  0  0  0  0  0
  -24.3584   -9.4156   21.9229 C   0  0  0  0  0  0
  -23.6262   -8.2176   22.0759 C   0  0  0  0  0  0
  -22.4265   -8.0213   21.3512 C   0  0  0  0  0  0
  -21.9884   -9.0215   20.4646 C   0  0  0  0  0  0
  -22.7203  -10.2091   20.3085 C   0  0  0  0  0  0
  -21.6823   -6.0705   22.5262 C   0  0  0  0  0  0
  -21.4011   -6.5605   23.8191 C   0  0  0  0  0  0
  -21.3675   -5.6768   24.9152 C   0  0  0  0  0  0
  -21.6049   -4.3026   24.7217 C   0  0  0  0  0  0
  -21.8838   -3.8112   23.4330 C   0  0  0  0  0  0
  -21.9192   -4.6934   22.3389 C   0  0  0  0  0  0
  -22.7856  -13.5244   21.1848 C   0  0  0  0  0  0
  -22.1665   -4.2132   21.0959 F   0  0  0  0  0  0
  -21.5646   -3.4510   25.7730 F   0  0  0  0  0  0
  -30.0073  -13.3952   20.4468 N   0  0  0  0  0  0
  -26.2960  -12.9164   20.3266 N   0  0  0  0  0  0
  -25.9229  -11.6361   20.5739 N   0  0  0  0  0  0
  -22.0446  -12.8328   22.0426 N   0  0  0  0  0  0
  -25.4194  -15.1759   20.4075 N   0  0  0  0  0  0
  -31.8168  -14.6926   20.1166 O   0  0  0  0  0  0
  -21.6593   -6.8845   21.4221 O   0  0  0  0  0  0
  -22.3576  -14.5545   20.6645 O   0  0  0  0  0  0
  -24.6143  -31.8632   23.1998 C   0  0  0  0  0  0
  -25.9050  -32.4765   23.8320 C   0  0  1  0  0  0
  -27.2605  -27.3874   20.1224 C   0  0  0  0  0  0
  -25.5910  -33.8561   24.2258 N   0  0  0  0  0  0
  -23.4071  -30.4761   21.5420 C   0  0  2  0  0  0
  -24.8623  -28.9303   20.1062 C   0  0  0  0  0  0
  -22.7382  -29.4638   22.4988 C   0  0  0  0  0  0
  -18.0215  -28.1397   22.8504 C   0  0  0  0  0  0
  -24.1487  -36.7287   23.2631 C   0  0  0  0  0  0
  -25.9317  -30.8151   21.3559 C   0  0  0  0  0  0
  -26.0159  -29.4447   20.7039 C   0  0  0  0  0  0
  -27.2098  -28.6853   20.7030 C   0  0  0  0  0  0
  -26.0967  -26.9070   19.4847 C   0  0  0  0  0  0
  -24.9035  -27.6664   19.4847 C   0  0  0  0  0  0
  -23.6205  -29.7947   20.1585 C   0  0  0  0  0  0
  -25.4108  -36.3061   24.0321 C   0  0  1  0  0  0
  -20.5784  -28.3755   23.1349 C   0  0  2  0  0  0
  -20.6673  -26.9615   22.5314 C   0  0  0  0  0  0
  -19.5634  -26.6434   21.5196 C   0  0  0  0  0  0
  -18.1855  -26.7930   22.1657 C   0  0  0  0  0  0
  -19.1465  -28.8880   23.2902 C   0  0  0  0  0  0
  -18.9393  -30.1469   23.8904 C   0  0  0  0  0  0
  -17.6415  -30.6604   24.0576 C   0  0  0  0  0  0
  -25.9052  -34.9435   23.5086 C   0  0  0  0  0  0
  -16.5296  -29.9105   23.6344 C   0  0  0  0  0  0
  -16.7223  -28.6525   23.0353 C   0  0  0  0  0  0
  -26.4475  -31.6565   25.0661 C   0  0  0  0  0  0
  -25.3728  -31.3728   26.1400 C   0  0  0  0  0  0
  -27.0294  -30.2988   24.6051 C   0  0  0  0  0  0
  -27.6005  -32.4310   25.7453 C   0  0  0  0  0  0
  -27.5585  -37.1797   24.8452 C   0  0  0  0  0  0
  -21.4089  -29.3124   22.3800 N   0  0  0  0  0  0
  -26.4278  -37.3764   23.9412 N   0  0  0  0  0  0
  -24.6681  -31.0671   22.0910 N   0  0  0  0  0  0
  -23.4145  -28.8178   23.3056 O   0  0  0  0  0  0
  -28.4444  -26.6674   20.2517 O   0  0  0  0  0  0
  -26.5605  -34.8871   22.4643 O   0  0  0  0  0  0
  -23.5337  -32.1441   23.7388 O   0  0  0  0  0  0
  -29.6786  -20.8546   20.4713 C   0  0  0  0  0  0
  -29.2588  -22.1874   20.2153 C   0  0  0  0  0  0
  -27.7540  -20.5309   21.9004 C   0  0  0  0  0  0
  -27.3260  -21.8621   21.6609 C   0  0  0  0  0  0
  -28.9357  -20.0050   21.3255 C   0  0  0  0  0  0
  -28.0864  -22.7163   20.8146 C   0  0  0  0  0  0
  -26.0444  -22.3676   22.2874 C   0  0  0  0  0  0
  -28.4669  -17.4927   20.9831 C   0  0  0  0  0  0
  -30.8080  -18.1094   21.4540 C   0  0  0  0  0  0
  -28.7608  -16.0667   21.5167 C   0  0  0  0  0  0
  -31.0527  -16.6516   21.9668 C   0  0  0  0  0  0
  -26.9979  -24.6136   21.9769 C   0  0  0  0  0  0
  -29.3415  -18.5477   21.6760 C   0  0  0  0  0  0
  -27.6005  -24.1797   20.6324 C   0  0  1  0  0  0
  -23.8027  -24.7990   21.6600 C   0  0  0  0  0  0
  -24.9363  -25.4640   23.9015 C   0  0  0  0  0  0
  -28.6332  -25.2246   20.0902 C   0  0  0  0  0  0
  -24.6641  -24.3533   22.8570 C   0  0  0  0  0  0
  -25.9090  -23.7144   22.3871 N   0  0  0  0  0  0
  -30.1686  -15.6323   21.3466 N   0  0  0  0  0  0
  -25.1887  -21.5653   22.6769 O   0  0  0  0  0  0
  -31.4673  -12.5259   19.1192 H   0  0  0  0  0  0
  -30.3896  -11.3878   19.8520 H   0  0  0  0  0  0
  -29.7734  -11.7917   17.4483 H   0  0  0  0  0  0
  -29.6302  -13.5021   17.7647 H   0  0  0  0  0  0
  -27.8741  -11.2670   18.8437 H   0  0  0  0  0  0
  -27.3674  -12.5570   17.7854 H   0  0  0  0  0  0
  -27.6689  -14.1949   19.4732 H   0  0  0  0  0  0
  -28.7330  -11.9502   21.2989 H   0  0  0  0  0  0
  -28.4470  -13.5284   21.9033 H   0  0  0  0  0  0
  -25.2708   -9.5622   22.4842 H   0  0  0  0  0  0
  -23.9934   -7.4595   22.7502 H   0  0  0  0  0  0
  -21.0789   -8.8774   19.8992 H   0  0  0  0  0  0
  -22.3666  -10.9658   19.6217 H   0  0  0  0  0  0
  -21.1979   -7.6114   23.9691 H   0  0  0  0  0  0
  -21.1501   -6.0485   25.9058 H   0  0  0  0  0  0
  -22.0608   -2.7574   23.2827 H   0  0  0  0  0  0
  -22.3936  -11.9988   22.4929 H   0  0  0  0  0  0
  -21.1068  -13.1460   22.2501 H   0  0  0  0  0  0
  -24.6509  -15.8222   20.5505 H   0  0  0  0  0  0
  -26.2713  -15.6340   20.1147 H   0  0  0  0  0  0
  -26.7116  -32.5473   23.1081 H   0  0  0  0  0  0
  -25.0068  -33.9727   25.0413 H   0  0  0  0  0  0
  -22.6938  -31.2903   21.3925 H   0  0  0  0  0  0
  -23.3719  -35.9655   23.3271 H   0  0  0  0  0  0
  -24.3579  -36.8918   22.2045 H   0  0  0  0  0  0
  -23.7267  -37.6484   23.6680 H   0  0  0  0  0  0
  -26.0428  -31.5808   20.5865 H   0  0  0  0  0  0
  -26.8133  -30.8698   21.9790 H   0  0  0  0  0  0
  -28.0909  -29.0838   21.1803 H   0  0  0  0  0  0
  -26.0899  -25.9407   19.0039 H   0  0  0  0  0  0
  -24.0171  -27.2596   19.0177 H   0  0  0  0  0  0
  -23.7252  -30.5613   19.3894 H   0  0  0  0  0  0
  -22.7462  -29.2089   19.8711 H   0  0  0  0  0  0
  -25.1295  -36.1889   25.0822 H   0  0  0  0  0  0
  -20.9857  -28.3208   24.1478 H   0  0  0  0  0  0
  -20.5990  -26.2307   23.3396 H   0  0  0  0  0  0
  -21.6422  -26.8341   22.0743 H   0  0  0  0  0  0
  -19.6843  -25.6318   21.1304 H   0  0  0  0  0  0
  -19.6486  -27.3166   20.6657 H   0  0  0  0  0  0
  -17.4112  -26.6637   21.4077 H   0  0  0  0  0  0
  -18.0287  -26.0064   22.9062 H   0  0  0  0  0  0
  -19.7881  -30.7273   24.2257 H   0  0  0  0  0  0
  -17.4967  -31.6282   24.5176 H   0  0  0  0  0  0
  -15.5287  -30.2994   23.7656 H   0  0  0  0  0  0
  -15.8622  -28.0836   22.7053 H   0  0  0  0  0  0
  -24.5859  -30.7118   25.7754 H   0  0  0  0  0  0
  -24.8979  -32.2915   26.4847 H   0  0  0  0  0  0
  -25.8066  -30.8897   27.0164 H   0  0  0  0  0  0
  -26.2849  -29.6732   24.1084 H   0  0  0  0  0  0
  -27.4016  -29.7226   25.4533 H   0  0  0  0  0  0
  -27.8714  -30.4257   23.9224 H   0  0  0  0  0  0
  -27.2572  -33.3592   26.2039 H   0  0  0  0  0  0
  -28.3826  -32.6907   25.0309 H   0  0  0  0  0  0
  -28.0641  -31.8433   26.5377 H   0  0  0  0  0  0
  -28.2572  -38.0128   24.7505 H   0  0  0  0  0  0
  -28.1113  -36.2642   24.6269 H   0  0  0  0  0  0
  -27.2305  -37.1417   25.8858 H   0  0  0  0  0  0
  -20.9246  -29.8916   21.7082 H   0  0  0  0  0  0
  -26.0125  -38.2830   24.1430 H   0  0  0  0  0  0
  -30.5838  -20.4966   20.0008 H   0  0  0  0  0  0
  -29.8563  -22.8040   19.5585 H   0  0  0  0  0  0
  -27.1655  -19.8977   22.5521 H   0  0  0  0  0  0
  -27.4140  -17.7218   21.1535 H   0  0  0  0  0  0
  -28.6149  -17.5320   19.9031 H   0  0  0  0  0  0
  -31.0678  -18.1662   20.3964 H   0  0  0  0  0  0
  -31.4801  -18.7937   21.9721 H   0  0  0  0  0  0
  -28.0542  -15.4338   21.0216 H   0  0  0  0  0  0
  -28.5037  -16.0136   22.5743 H   0  0  0  0  0  0
  -30.8710  -16.6240   23.0430 H   0  0  0  0  0  0
  -32.1100  -16.4011   21.8586 H   0  0  0  0  0  0
  -26.6481  -25.6372   21.9120 H   0  0  0  0  0  0
  -27.7705  -24.6045   22.7473 H   0  0  0  0  0  0
  -29.1575  -18.4620   22.7485 H   0  0  0  0  0  0
  -26.7885  -24.1241   19.9092 H   0  0  0  0  0  0
  -22.8396  -25.1576   22.0083 H   0  0  0  0  0  0
  -23.5920  -23.9743   20.9752 H   0  0  0  0  0  0
  -24.2756  -25.5958   21.0851 H   0  0  0  0  0  0
  -24.0261  -25.7476   24.4324 H   0  0  0  0  0  0
  -25.3331  -26.3787   23.4584 H   0  0  0  0  0  0
  -25.6565  -25.1279   24.6497 H   0  0  0  0  0  0
  -28.9146  -25.0035   19.0596 H   0  0  0  0  0  0
  -29.5475  -25.0242   20.6567 H   0  0  0  0  0  0
  -24.0627  -23.6123   23.3834 H   0  0  0  0  0  0
  1 25  1  0  0  0
  1 30  2  0  0  0
  1 90  1  0  0  0
  2  3  1  0  0  0
  2 25  1  0  0  0
  2 92  1  0  0  0
  2 93  1  0  0  0
  3  4  1  0  0  0
  3 94  1  0  0  0
  3 95  1  0  0  0
  4  5  1  0  0  0
  4 96  1  0  0  0
  4 97  1  0  0  0
  5  6  1  0  0  0
  5 26  1  0  0  0
  5 98  1  0  0  0
  6 25  1  0  0  0
  6 99  1  0  0  0
  6100  1  0  0  0
  7  8  2  0  0  0
  7 26  1  0  0  0
  7 29  1  0  0  0
  8  9  1  0  0  0
  8 22  1  0  0  0
  9 10  1  0  0  0
  9 27  2  0  0  0
 10 11  2  0  0  0
 10 15  1  0  0  0
 11 12  1  0  0  0
 11101  1  0  0  0
 12 13  2  0  0  0
 12102  1  0  0  0
 13 14  1  0  0  0
 13 31  1  0  0  0
 14 15  2  0  0  0
 14103  1  0  0  0
 15104  1  0  0  0
 16 17  2  0  0  0
 16 21  1  0  0  0
 16 31  1  0  0  0
 17 18  1  0  0  0
 17105  1  0  0  0
 18 19  2  0  0  0
 18106  1  0  0  0
 19 20  1  0  0  0
 19 24  1  0  0  0
 20 21  2  0  0  0
 20107  1  0  0  0
 21 23  1  0  0  0
 22 28  1  0  0  0
 22 32  2  0  0  0
 26 27  1  0  0  0
 28108  1  0  0  0
 28109  1  0  0  0
 29110  1  0  0  0
 29111  1  0  0  0
 33 34  1  0  0  0
 33 66  1  0  0  0
 33 70  2  0  0  0
 34 36  1  0  0  0
 34 59  1  0  0  0
 34112  1  0  0  0
 35 44  2  0  0  0
 35 45  1  0  0  0
 35 68  1  0  0  0
 36 56  1  0  0  0
 36113  1  0  0  0
 37 39  1  0  0  0
 37 47  1  0  0  0
 37 66  1  0  0  0
 37114  1  0  0  0
 38 43  2  0  0  0
 38 46  1  0  0  0
 38 47  1  0  0  0
 39 64  1  0  0  0
 39 67  2  0  0  0
 40 52  1  0  0  0
 40 53  2  0  0  0
 40 58  1  0  0  0
 41115  1  0  0  0
 41116  1  0  0  0
 41117  1  0  0  0
 41 48  1  0  0  0
 42 43  1  0  0  0
 42 66  1  0  0  0
 42118  1  0  0  0
 42119  1  0  0  0
 43 44  1  0  0  0
 44120  1  0  0  0
 45 46  2  0  0  0
 45121  1  0  0  0
 46122  1  0  0  0
 47123  1  0  0  0
 47124  1  0  0  0
 48 56  1  0  0  0
 48 65  1  0  0  0
 48125  1  0  0  0
 49 50  1  0  0  0
 49 53  1  0  0  0
 49 64  1  0  0  0
 49126  1  0  0  0
 50 51  1  0  0  0
 50127  1  0  0  0
 50128  1  0  0  0
 51 52  1  0  0  0
 51129  1  0  0  0
 51130  1  0  0  0
 52131  1  0  0  0
 52132  1  0  0  0
 53 54  1  0  0  0
 54 55  2  0  0  0
 54133  1  0  0  0
 55 57  1  0  0  0
 55134  1  0  0  0
 56 69  2  0  0  0
 57 58  2  0  0  0
 57135  1  0  0  0
 58136  1  0  0  0
 59 60  1  0  0  0
 59 61  1  0  0  0
 59 62  1  0  0  0
 60137  1  0  0  0
 60138  1  0  0  0
 60139  1  0  0  0
 61140  1  0  0  0
 61141  1  0  0  0
 61142  1  0  0  0
 62143  1  0  0  0
 62144  1  0  0  0
 62145  1  0  0  0
 63 65  1  0  0  0
 63146  1  0  0  0
 63147  1  0  0  0
 63148  1  0  0  0
 64149  1  0  0  0
 65150  1  0  0  0
 68 87  1  0  0  0
 71 72  2  0  0  0
 71 75  1  0  0  0
 71151  1  0  0  0
 72 76  1  0  0  0
 72152  1  0  0  0
 73 74  1  0  0  0
 73 75  2  0  0  0
 73153  1  0  0  0
 74 76  2  0  0  0
 74 77  1  0  0  0
 75 83  1  0  0  0
 76 84  1  0  0  0
 77 89  1  0  0  0
 77 91  2  0  0  0
 78 80  1  0  0  0
 78 83  1  0  0  0
 78154  1  0  0  0
 78155  1  0  0  0
 79 81  1  0  0  0
 79 83  1  0  0  0
 79156  1  0  0  0
 79157  1  0  0  0
 80 90  1  0  0  0
 80158  1  0  0  0
 80159  1  0  0  0
 81 90  1  0  0  0
 81160  1  0  0  0
 81161  1  0  0  0
 82 84  1  0  0  0
 82 89  1  0  0  0
 82162  1  0  0  0
 82163  1  0  0  0
 83164  1  0  0  0
 84 87  1  0  0  0
 84165  1  0  0  0
 85166  1  0  0  0
 85167  1  0  0  0
 85168  1  0  0  0
 85 88  1  0  0  0
 86 88  1  0  0  0
 86169  1  0  0  0
 86170  1  0  0  0
 86171  1  0  0  0
 87172  1  0  0  0
 87173  1  0  0  0
 88 89  1  0  0  0
 88174  1  0  0  0
M  ISO  4   1 100  68 101  87 101  90 100
M  END
> <chiral flag>
0

> <version>
0

> <s_m_source_file>
/data/baiqing/PycharmProjects/Reinvent-master-3.2/result/LINK_invent/BTK/process_docking_weight1_custom_sum_contain_oxygen_bond_distance_aromatic_linkinvent_7_9_3/rearranged_h_0199.sdf

> <i_m_source_file_index>
64

> <r_mmod_Potential_Energy-OPLS-2005>
367.003143310547

> <r_mmod_Stretch_Energy-OPLS-2005>
65.0966720581055

> <r_mmod_Bend_Energy-OPLS-2005>
186.297119140625

> <r_mmod_Torsional_Energy-OPLS-2005>
343.800689697266

> <r_mmod_Improper_Torsional_Energy-OPLS-2005>
1.74385213851929

> <r_mmod_Van_der_Waal_Energy-OPLS-2005>
172.989273071289

> <r_mmod_Electrostatic_Energy-OPLS-2005>
-228.155960083008

> <r_mmod_Solvation_Energy-OPLS-2005>
-204.311645507812

> <b_mmod_Minimization_Converged-OPLS-2005>
0

> <r_mmod_RMS_Derivative-OPLS-2005>
6.20122766494751

$$$$
64
                    3D
 Structure written by MMmdl.
159168  0  0  1  0            999 V2000
  -30.6810  -14.4650   20.5350 C   0  0  0  0  0  0
  -30.4253  -12.2883   19.4167 C   0  0  0  0  0  0
  -29.4938  -12.4888   18.2025 C   0  0  0  0  0  0
  -28.0139  -12.3552   18.6172 C   0  0  0  0  0  0
  -27.6617  -13.1987   19.8722 C   0  0  2  0  0  0
  -28.7058  -12.9836   20.9920 C   0  0  0  0  0  0
  -25.2613  -13.8148   20.5689 C   0  0  0  0  0  0
  -24.1844  -13.0435   20.9167 C   0  0  0  0  0  0
  -24.6386  -11.6901   20.8733 C   0  0  0  0  0  0
  -23.9048  -10.4291   21.0406 C   0  0  0  0  0  0
  -24.3606   -9.4211   21.9184 C   0  0  0  0  0  0
  -23.6289   -8.2243   22.0754 C   0  0  0  0  0  0
  -22.4273   -8.0278   21.3543 C   0  0  0  0  0  0
  -21.9902   -9.0250   20.4647 C   0  0  0  0  0  0
  -22.7222  -10.2133   20.3056 C   0  0  0  0  0  0
  -21.6853   -6.0738   22.5282 C   0  0  0  0  0  0
  -21.4011   -6.5643   23.8215 C   0  0  0  0  0  0
  -21.3657   -5.6794   24.9177 C   0  0  0  0  0  0
  -21.6045   -4.3057   24.7228 C   0  0  0  0  0  0
  -21.8820   -3.8151   23.4349 C   0  0  0  0  0  0
  -21.9193   -4.6967   22.3405 C   0  0  0  0  0  0
  -22.7872  -13.5244   21.1836 C   0  0  0  0  0  0
  -22.1662   -4.2152   21.0983 F   0  0  0  0  0  0
  -21.5629   -3.4540   25.7741 F   0  0  0  0  0  0
  -30.0344  -13.2754   20.4306 N   0  0  0  0  0  0
  -26.3031  -12.9294   20.3371 N   0  0  0  0  0  0
  -25.9308  -11.6464   20.5769 N   0  0  0  0  0  0
  -22.0511  -12.8235   22.0392 N   0  0  0  0  0  0
  -25.4380  -15.1860   20.4119 N   0  0  0  0  0  0
  -31.8423  -14.6417   20.1550 O   0  0  0  0  0  0
  -21.6636   -6.8877   21.4243 O   0  0  0  0  0  0
  -22.3561  -14.5555   20.6696 O   0  0  0  0  0  0
  -24.6119  -31.8696   23.2097 C   0  0  0  0  0  0
  -25.9017  -32.4833   23.8394 C   0  0  1  0  0  0
  -27.2411  -27.4521   20.0997 C   0  0  0  0  0  0
  -25.5882  -33.8630   24.2326 N   0  0  0  0  0  0
  -23.3997  -30.4903   21.5507 C   0  0  2  0  0  0
  -24.8475  -28.9526   20.1209 C   0  0  0  0  0  0
  -22.7396  -29.4662   22.5012 C   0  0  0  0  0  0
  -18.0270  -28.1375   22.8501 C   0  0  0  0  0  0
  -24.1489  -36.7326   23.2641 C   0  0  0  0  0  0
  -25.9247  -30.8415   21.3580 C   0  0  0  0  0  0
  -26.0052  -29.4741   20.7115 C   0  0  0  0  0  0
  -27.2062  -28.7322   20.6942 C   0  0  0  0  0  0
  -26.0686  -26.9360   19.5084 C   0  0  0  0  0  0
  -24.8728  -27.6818   19.5176 C   0  0  0  0  0  0
  -23.6069  -29.8164   20.1675 C   0  0  0  0  0  0
  -25.4107  -36.3121   24.0343 C   0  0  1  0  0  0
  -20.5854  -28.3653   23.1337 C   0  0  2  0  0  0
  -20.6760  -26.9396   22.5426 C   0  0  0  0  0  0
  -19.5740  -26.6385   21.5222 C   0  0  0  0  0  0
  -18.1916  -26.7923   22.1631 C   0  0  0  0  0  0
  -19.1518  -28.8832   23.2914 C   0  0  0  0  0  0
  -18.9448  -30.1441   23.8917 C   0  0  0  0  0  0
  -17.6450  -30.6583   24.0567 C   0  0  0  0  0  0
  -25.9032  -34.9484   23.5133 C   0  0  0  0  0  0
  -16.5340  -29.9089   23.6327 C   0  0  0  0  0  0
  -16.7259  -28.6508   23.0346 C   0  0  0  0  0  0
  -26.4449  -31.6610   25.0717 C   0  0  0  0  0  0
  -25.3718  -31.3714   26.1471 C   0  0  0  0  0  0
  -27.0281  -30.3063   24.6072 C   0  0  0  0  0  0
  -27.6034  -32.4323   25.7468 C   0  0  0  0  0  0
  -27.5582  -37.1814   24.8463 C   0  0  0  0  0  0
  -21.4128  -29.3023   22.3748 N   0  0  0  0  0  0
  -26.4297  -37.3800   23.9405 N   0  0  0  0  0  0
  -24.6637  -31.0810   22.0987 N   0  0  0  0  0  0
  -23.4178  -28.8207   23.3047 O   0  0  0  0  0  0
  -28.4252  -26.7542   20.0562 O   0  0  0  0  0  0
  -26.5601  -34.8931   22.4701 O   0  0  0  0  0  0
  -23.5319  -32.1441   23.7510 O   0  0  0  0  0  0
  -29.7039  -20.1043   21.2035 C   0  0  0  0  0  0
  -28.5505  -20.8370   21.3132 C   0  0  0  0  0  0
  -29.8802  -16.7079   19.8472 C   0  0  0  0  0  0
  -29.7712  -16.3314   21.9272 C   0  0  0  0  0  0
  -30.0502  -17.5795   21.0842 C   0  0  0  0  0  0
  -28.8267  -22.8200   22.8184 C   0  0  0  0  0  0
  -28.3805  -24.2922   19.8086 C   0  0  0  0  0  0
  -28.4664  -25.5072   20.7605 C   0  0  0  0  0  0
  -28.3439  -22.3326   21.4406 C   0  0  1  0  0  0
  -27.4806  -19.9418   21.3890 N   0  0  0  0  0  0
  -27.9205  -18.7234   21.3106 N   0  0  0  0  0  0
  -29.2699  -18.7882   21.2154 N   0  0  0  0  0  0
  -29.8493  -15.5151   20.7082 N   0  0  0  0  0  0
  -29.0119  -23.0387   20.3218 N   0  3  0  0  0  0
  -31.4702  -12.3887   19.1172 H   0  0  0  0  0  0
  -30.3248  -11.2786   19.8172 H   0  0  0  0  0  0
  -29.7286  -11.7628   17.4225 H   0  0  0  0  0  0
  -29.6636  -13.4734   17.7639 H   0  0  0  0  0  0
  -27.8204  -11.3005   18.8149 H   0  0  0  0  0  0
  -27.3638  -12.6301   17.7854 H   0  0  0  0  0  0
  -27.7018  -14.2438   19.5654 H   0  0  0  0  0  0
  -28.6755  -11.9556   21.3550 H   0  0  0  0  0  0
  -28.4846  -13.6132   21.8557 H   0  0  0  0  0  0
  -25.2753   -9.5691   22.4752 H   0  0  0  0  0  0
  -24.0006   -7.4635   22.7470 H   0  0  0  0  0  0
  -21.0836   -8.8762   19.8949 H   0  0  0  0  0  0
  -22.3679  -10.9671   19.6164 H   0  0  0  0  0  0
  -21.1999   -7.6150   23.9718 H   0  0  0  0  0  0
  -21.1477   -6.0526   25.9079 H   0  0  0  0  0  0
  -22.0601   -2.7613   23.2849 H   0  0  0  0  0  0
  -22.4127  -11.9893   22.4770 H   0  0  0  0  0  0
  -21.1130  -13.1266   22.2600 H   0  0  0  0  0  0
  -24.6813  -15.8505   20.5305 H   0  0  0  0  0  0
  -26.3085  -15.6207   20.1318 H   0  0  0  0  0  0
  -26.7093  -32.5562   23.1168 H   0  0  0  0  0  0
  -25.0012  -33.9793   25.0456 H   0  0  0  0  0  0
  -22.6876  -31.3057   21.4090 H   0  0  0  0  0  0
  -23.3748  -35.9665   23.3317 H   0  0  0  0  0  0
  -24.3582  -36.8929   22.2054 H   0  0  0  0  0  0
  -23.7242  -37.6535   23.6645 H   0  0  0  0  0  0
  -26.0291  -31.6059   20.5867 H   0  0  0  0  0  0
  -26.8149  -30.9009   21.9724 H   0  0  0  0  0  0
  -28.1044  -29.1378   21.1387 H   0  0  0  0  0  0
  -26.0781  -25.9718   19.0222 H   0  0  0  0  0  0
  -23.9831  -27.2761   19.0559 H   0  0  0  0  0  0
  -23.7112  -30.5876   19.4029 H   0  0  0  0  0  0
  -22.7322  -29.2318   19.8770 H   0  0  0  0  0  0
  -25.1280  -36.2000   25.0836 H   0  0  0  0  0  0
  -20.9943  -28.3217   24.1459 H   0  0  0  0  0  0
  -20.5681  -26.2256   23.3606 H   0  0  0  0  0  0
  -21.6627  -26.7453   22.1205 H   0  0  0  0  0  0
  -19.6908  -25.6305   21.1232 H   0  0  0  0  0  0
  -19.6683  -27.3215   20.6769 H   0  0  0  0  0  0
  -17.4187  -26.6685   21.4027 H   0  0  0  0  0  0
  -18.0307  -26.0059   22.9020 H   0  0  0  0  0  0
  -19.7926  -30.7250   24.2295 H   0  0  0  0  0  0
  -17.5009  -31.6265   24.5164 H   0  0  0  0  0  0
  -15.5345  -30.2993   23.7640 H   0  0  0  0  0  0
  -15.8660  -28.0832   22.7045 H   0  0  0  0  0  0
  -24.5870  -30.7087   25.7797 H   0  0  0  0  0  0
  -24.8929  -32.2875   26.4944 H   0  0  0  0  0  0
  -25.8066  -30.8851   27.0214 H   0  0  0  0  0  0
  -26.2822  -29.6829   24.1126 H   0  0  0  0  0  0
  -27.4069  -29.7289   25.4513 H   0  0  0  0  0  0
  -27.8642  -30.4398   23.9203 H   0  0  0  0  0  0
  -27.2660  -33.3609   26.2085 H   0  0  0  0  0  0
  -28.3814  -32.6912   25.0273 H   0  0  0  0  0  0
  -28.0737  -31.8428   26.5351 H   0  0  0  0  0  0
  -28.2604  -38.0106   24.7504 H   0  0  0  0  0  0
  -28.1071  -36.2636   24.6293 H   0  0  0  0  0  0
  -27.2298  -37.1467   25.8865 H   0  0  0  0  0  0
  -20.9292  -29.8736   21.6962 H   0  0  0  0  0  0
  -26.0201  -38.2888   24.1392 H   0  0  0  0  0  0
  -30.7480  -20.3854   21.1379 H   0  0  0  0  0  0
  -30.7241  -16.7764   19.1578 H   0  0  0  0  0  0
  -28.9414  -16.8787   19.3200 H   0  0  0  0  0  0
  -28.7826  -16.3198   22.3875 H   0  0  0  0  0  0
  -30.5457  -16.1307   22.6690 H   0  0  0  0  0  0
  -31.0959  -17.8713   21.1957 H   0  0  0  0  0  0
  -28.3224  -22.2710   23.6135 H   0  0  0  0  0  0
  -28.6193  -23.8745   22.9862 H   0  0  0  0  0  0
  -29.8981  -22.6636   22.9466 H   0  0  0  0  0  0
  -28.9053  -24.5472   18.8876 H   0  0  0  0  0  0
  -27.3460  -24.1017   19.5228 H   0  0  0  0  0  0
  -29.4224  -25.4917   21.2851 H   0  0  0  0  0  0
  -27.6940  -25.4564   21.5298 H   0  0  0  0  0  0
  -27.2742  -22.5356   21.3693 H   0  0  0  0  0  0
  -29.9843  -23.1825   20.5429 H   0  0  0  0  0  0
  -28.9910  -22.3777   19.5606 H   0  0  0  0  0  0
  1 25  1  0  0  0
  1 30  2  0  0  0
  1 83  1  0  0  0
  2  3  1  0  0  0
  2 25  1  0  0  0
  2 85  1  0  0  0
  2 86  1  0  0  0
  3  4  1  0  0  0
  3 87  1  0  0  0
  3 88  1  0  0  0
  4  5  1  0  0  0
  4 89  1  0  0  0
  4 90  1  0  0  0
  5  6  1  0  0  0
  5 26  1  0  0  0
  5 91  1  0  0  0
  6 25  1  0  0  0
  6 92  1  0  0  0
  6 93  1  0  0  0
  7  8  2  0  0  0
  7 26  1  0  0  0
  7 29  1  0  0  0
  8  9  1  0  0  0
  8 22  1  0  0  0
  9 10  1  0  0  0
  9 27  2  0  0  0
 10 11  2  0  0  0
 10 15  1  0  0  0
 11 12  1  0  0  0
 11 94  1  0  0  0
 12 13  2  0  0  0
 12 95  1  0  0  0
 13 14  1  0  0  0
 13 31  1  0  0  0
 14 15  2  0  0  0
 14 96  1  0  0  0
 15 97  1  0  0  0
 16 17  2  0  0  0
 16 21  1  0  0  0
 16 31  1  0  0  0
 17 18  1  0  0  0
 17 98  1  0  0  0
 18 19  2  0  0  0
 18 99  1  0  0  0
 19 20  1  0  0  0
 19 24  1  0  0  0
 20 21  2  0  0  0
 20100  1  0  0  0
 21 23  1  0  0  0
 22 28  1  0  0  0
 22 32  2  0  0  0
 26 27  1  0  0  0
 28101  1  0  0  0
 28102  1  0  0  0
 29103  1  0  0  0
 29104  1  0  0  0
 33 34  1  0  0  0
 33 66  1  0  0  0
 33 70  2  0  0  0
 34 36  1  0  0  0
 34 59  1  0  0  0
 34105  1  0  0  0
 35 44  2  0  0  0
 35 45  1  0  0  0
 35 68  1  0  0  0
 36 56  1  0  0  0
 36106  1  0  0  0
 37 39  1  0  0  0
 37 47  1  0  0  0
 37 66  1  0  0  0
 37107  1  0  0  0
 38 43  2  0  0  0
 38 46  1  0  0  0
 38 47  1  0  0  0
 39 64  1  0  0  0
 39 67  2  0  0  0
 40 52  1  0  0  0
 40 53  2  0  0  0
 40 58  1  0  0  0
 41108  1  0  0  0
 41109  1  0  0  0
 41110  1  0  0  0
 41 48  1  0  0  0
 42 43  1  0  0  0
 42 66  1  0  0  0
 42111  1  0  0  0
 42112  1  0  0  0
 43 44  1  0  0  0
 44113  1  0  0  0
 45 46  2  0  0  0
 45114  1  0  0  0
 46115  1  0  0  0
 47116  1  0  0  0
 47117  1  0  0  0
 48 56  1  0  0  0
 48 65  1  0  0  0
 48118  1  0  0  0
 49 50  1  0  0  0
 49 53  1  0  0  0
 49 64  1  0  0  0
 49119  1  0  0  0
 50 51  1  0  0  0
 50120  1  0  0  0
 50121  1  0  0  0
 51 52  1  0  0  0
 51122  1  0  0  0
 51123  1  0  0  0
 52124  1  0  0  0
 52125  1  0  0  0
 53 54  1  0  0  0
 54 55  2  0  0  0
 54126  1  0  0  0
 55 57  1  0  0  0
 55127  1  0  0  0
 56 69  2  0  0  0
 57 58  2  0  0  0
 57128  1  0  0  0
 58129  1  0  0  0
 59 60  1  0  0  0
 59 61  1  0  0  0
 59 62  1  0  0  0
 60130  1  0  0  0
 60131  1  0  0  0
 60132  1  0  0  0
 61133  1  0  0  0
 61134  1  0  0  0
 61135  1  0  0  0
 62136  1  0  0  0
 62137  1  0  0  0
 62138  1  0  0  0
 63 65  1  0  0  0
 63139  1  0  0  0
 63140  1  0  0  0
 63141  1  0  0  0
 64142  1  0  0  0
 65143  1  0  0  0
 68 78  1  0  0  0
 71 72  2  0  0  0
 71 82  1  0  0  0
 71144  1  0  0  0
 72 79  1  0  0  0
 72 80  1  0  0  0
 73 75  1  0  0  0
 73 83  1  0  0  0
 73145  1  0  0  0
 73146  1  0  0  0
 74 75  1  0  0  0
 74 83  1  0  0  0
 74147  1  0  0  0
 74148  1  0  0  0
 75 82  1  0  0  0
 75149  1  0  0  0
 76150  1  0  0  0
 76151  1  0  0  0
 76152  1  0  0  0
 76 79  1  0  0  0
 77 78  1  0  0  0
 77 84  1  0  0  0
 77153  1  0  0  0
 77154  1  0  0  0
 78155  1  0  0  0
 78156  1  0  0  0
 79 84  1  0  0  0
 79157  1  0  0  0
 80 81  2  0  0  0
 81 82  1  0  0  0
 84158  1  0  0  0
 84159  1  0  0  0
M  CHG  1  84   1
M  ISO  4   1 100  68 101  78 101  83 100
M  END
> <chiral flag>
0

> <version>
0

> <s_m_source_file>
/data/baiqing/PycharmProjects/Reinvent-master-3.2/result/LINK_invent/BTK/process_docking_weight1_custom_sum_contain_oxygen_bond_distance_aromatic_linkinvent_7_9_3/rearranged_h_0199.sdf

> <i_m_source_file_index>
65

> <r_mmod_Potential_Energy-OPLS-2005>
-168.117858886719

> <r_mmod_Stretch_Energy-OPLS-2005>
33.7414970397949

> <r_mmod_Bend_Energy-OPLS-2005>
99.6163101196289

> <r_mmod_Torsional_Energy-OPLS-2005>
311.389038085938

> <r_mmod_Improper_Torsional_Energy-OPLS-2005>
16.9856586456299

> <r_mmod_Van_der_Waal_Energy-OPLS-2005>
118.007949829102

> <r_mmod_Electrostatic_Energy-OPLS-2005>
-298.510314941406

> <r_mmod_Solvation_Energy-OPLS-2005>
-462.058532714844

> <b_mmod_Minimization_Converged-OPLS-2005>
0

> <r_mmod_RMS_Derivative-OPLS-2005>
0.854391634464264

$$$$
65
                    3D
 Structure written by MMmdl.
153161  0  0  1  0            999 V2000
  -30.5813  -14.9936   20.3935 C   0  0  0  0  0  0
  -30.4327  -12.6247   19.4862 C   0  0  0  0  0  0
  -29.5110  -12.5150   18.2521 C   0  0  0  0  0  0
  -28.0562  -12.2701   18.6905 C   0  0  0  0  0  0
  -27.6169  -13.2250   19.8274 C   0  0  2  0  0  0
  -28.6693  -13.3387   20.9537 C   0  0  0  0  0  0
  -25.2423  -13.8112   20.5698 C   0  0  0  0  0  0
  -24.1747  -13.0367   20.9255 C   0  0  0  0  0  0
  -24.6354  -11.6855   20.8799 C   0  0  0  0  0  0
  -23.9040  -10.4246   21.0439 C   0  0  0  0  0  0
  -24.3594   -9.4162   21.9211 C   0  0  0  0  0  0
  -23.6264   -8.2203   22.0764 C   0  0  0  0  0  0
  -22.4251   -8.0251   21.3545 C   0  0  0  0  0  0
  -21.9890   -9.0228   20.4649 C   0  0  0  0  0  0
  -22.7224  -10.2104   20.3072 C   0  0  0  0  0  0
  -21.6840   -6.0717   22.5277 C   0  0  0  0  0  0
  -21.4007   -6.5629   23.8207 C   0  0  0  0  0  0
  -21.3655   -5.6788   24.9172 C   0  0  0  0  0  0
  -21.6042   -4.3052   24.7228 C   0  0  0  0  0  0
  -21.8820   -3.8137   23.4355 C   0  0  0  0  0  0
  -21.9191   -4.6943   22.3405 C   0  0  0  0  0  0
  -22.7779  -13.5170   21.1887 C   0  0  0  0  0  0
  -22.1663   -4.2133   21.0982 F   0  0  0  0  0  0
  -21.5625   -3.4537   25.7745 F   0  0  0  0  0  0
  -29.9316  -13.7549   20.3243 N   0  0  0  0  0  0
  -26.2830  -12.9303   20.3271 N   0  0  0  0  0  0
  -25.9279  -11.6466   20.5808 N   0  0  0  0  0  0
  -22.0428  -12.8173   22.0447 N   0  0  0  0  0  0
  -25.4008  -15.1828   20.4015 N   0  0  0  0  0  0
  -31.8070  -14.9670   20.2362 O   0  0  0  0  0  0
  -21.6621   -6.8848   21.4234 O   0  0  0  0  0  0
  -22.3486  -14.5486   20.6728 O   0  0  0  0  0  0
  -24.6453  -31.8431   23.1872 C   0  0  0  0  0  0
  -25.9217  -32.4691   23.8263 C   0  0  1  0  0  0
  -27.2209  -27.1228   20.1538 C   0  0  0  0  0  0
  -25.5959  -33.8495   24.2181 N   0  0  0  0  0  0
  -23.4489  -30.4618   21.5337 C   0  0  2  0  0  0
  -24.8988  -28.8850   20.1132 C   0  0  0  0  0  0
  -22.7566  -29.4538   22.4858 C   0  0  0  0  0  0
  -18.0293  -28.1397   22.8478 C   0  0  0  0  0  0
  -24.1496  -36.7251   23.2641 C   0  0  0  0  0  0
  -26.0062  -30.7129   21.3870 C   0  0  0  0  0  0
  -26.0781  -29.3226   20.7292 C   0  0  0  0  0  0
  -27.2404  -28.4596   20.7290 C   0  0  0  0  0  0
  -26.0119  -26.7900   19.5027 C   0  0  0  0  0  0
  -24.8795  -27.6323   19.4839 C   0  0  0  0  0  0
  -23.6756  -29.7884   20.1544 C   0  0  0  0  0  0
  -25.4128  -36.3022   24.0315 C   0  0  1  0  0  0
  -20.5905  -28.3722   23.1219 C   0  0  2  0  0  0
  -20.6773  -26.9426   22.5377 C   0  0  0  0  0  0
  -19.5738  -26.6380   21.5199 C   0  0  0  0  0  0
  -18.1935  -26.7926   22.1642 C   0  0  0  0  0  0
  -19.1552  -28.8882   23.2828 C   0  0  0  0  0  0
  -18.9470  -30.1479   23.8852 C   0  0  0  0  0  0
  -17.6470  -30.6592   24.0554 C   0  0  0  0  0  0
  -25.9077  -34.9404   23.5058 C   0  0  0  0  0  0
  -16.5359  -29.9087   23.6348 C   0  0  0  0  0  0
  -16.7280  -28.6504   23.0367 C   0  0  0  0  0  0
  -26.4531  -31.6567   25.0711 C   0  0  0  0  0  0
  -25.3713  -31.3757   26.1403 C   0  0  0  0  0  0
  -27.0407  -30.2966   24.6301 C   0  0  0  0  0  0
  -27.6053  -32.4337   25.7494 C   0  0  0  0  0  0
  -27.5576  -37.1781   24.8466 C   0  0  0  0  0  0
  -21.4256  -29.3045   22.3594 N   0  0  0  0  0  0
  -26.4288  -37.3740   23.9409 N   0  0  0  0  0  0
  -24.7204  -31.0267   22.0918 N   0  0  0  0  0  0
  -23.4195  -28.8093   23.3024 O   0  0  0  0  0  0
  -28.2773  -26.1340   20.2106 O   0  0  0  0  0  0
  -26.5657  -34.8901   22.4632 O   0  0  0  0  0  0
  -23.5568  -32.1309   23.7089 O   0  0  0  0  0  0
  -28.3877  -18.1373   19.6800 C   0  0  0  0  0  0
  -28.5562  -16.5917   19.9659 C   0  0  0  0  0  0
  -30.4856  -17.7029   20.6121 C   0  0  0  0  0  0
  -29.3502  -18.8924   20.6019 C   0  0  1  0  0  0
  -29.0620  -23.2816   20.2703 C   0  0  0  0  0  0
  -28.6362  -21.6362   20.3783 C   0  0  0  0  0  0
  -27.9884  -24.5933   20.1998 C   0  0  0  0  0  0
  -29.9103  -16.2690   20.4627 N   0  0  0  0  0  0
  -29.6684  -20.4263   20.2916 N   0  3  0  0  0  0
  -31.4628  -12.7780   19.1598 H   0  0  0  0  0  0
  -30.4375  -11.6921   20.0534 H   0  0  0  0  0  0
  -29.8466  -11.7094   17.5974 H   0  0  0  0  0  0
  -29.5686  -13.4332   17.6652 H   0  0  0  0  0  0
  -27.9877  -11.2381   19.0363 H   0  0  0  0  0  0
  -27.3804  -12.3520   17.8390 H   0  0  0  0  0  0
  -27.5327  -14.1860   19.3389 H   0  0  0  0  0  0
  -28.7850  -12.3933   21.4861 H   0  0  0  0  0  0
  -28.3595  -14.0767   21.6948 H   0  0  0  0  0  0
  -25.2733   -9.5639   22.4792 H   0  0  0  0  0  0
  -23.9969   -7.4596   22.7486 H   0  0  0  0  0  0
  -21.0826   -8.8749   19.8954 H   0  0  0  0  0  0
  -22.3690  -10.9645   19.6184 H   0  0  0  0  0  0
  -21.2004   -7.6140   23.9703 H   0  0  0  0  0  0
  -21.1473   -6.0524   25.9072 H   0  0  0  0  0  0
  -22.0605   -2.7597   23.2863 H   0  0  0  0  0  0
  -22.4045  -11.9829   22.4826 H   0  0  0  0  0  0
  -21.1052  -13.1208   22.2656 H   0  0  0  0  0  0
  -24.6214  -15.8243   20.4987 H   0  0  0  0  0  0
  -26.2330  -15.6214   20.0323 H   0  0  0  0  0  0
  -26.7277  -32.5292   23.0983 H   0  0  0  0  0  0
  -25.0098  -33.9610   25.0321 H   0  0  0  0  0  0
  -22.7522  -31.2880   21.3780 H   0  0  0  0  0  0
  -23.3766  -35.9576   23.3292 H   0  0  0  0  0  0
  -24.3577  -36.8897   22.2056 H   0  0  0  0  0  0
  -23.7248  -37.6442   23.6687 H   0  0  0  0  0  0
  -26.1619  -31.4677   20.6146 H   0  0  0  0  0  0
  -26.8767  -30.7650   22.0290 H   0  0  0  0  0  0
  -28.1397  -28.7926   21.2276 H   0  0  0  0  0  0
  -25.9033  -25.8374   19.0102 H   0  0  0  0  0  0
  -23.9796  -27.2911   18.9904 H   0  0  0  0  0  0
  -23.8120  -30.5618   19.3976 H   0  0  0  0  0  0
  -22.7903  -29.2294   19.8447 H   0  0  0  0  0  0
  -25.1319  -36.1848   25.0808 H   0  0  0  0  0  0
  -20.9983  -28.3306   24.1342 H   0  0  0  0  0  0
  -20.5693  -26.2326   23.3595 H   0  0  0  0  0  0
  -21.6631  -26.7449   22.1146 H   0  0  0  0  0  0
  -19.6894  -25.6284   21.1250 H   0  0  0  0  0  0
  -19.6656  -27.3170   20.6710 H   0  0  0  0  0  0
  -17.4184  -26.6634   21.4078 H   0  0  0  0  0  0
  -18.0376  -26.0092   22.9068 H   0  0  0  0  0  0
  -19.7941  -30.7308   24.2202 H   0  0  0  0  0  0
  -17.5022  -31.6273   24.5158 H   0  0  0  0  0  0
  -15.5352  -30.2974   23.7695 H   0  0  0  0  0  0
  -15.8678  -28.0822   22.7106 H   0  0  0  0  0  0
  -24.5894  -30.7106   25.7718 H   0  0  0  0  0  0
  -24.8900  -32.2945   26.4765 H   0  0  0  0  0  0
  -25.7991  -30.8964   27.0218 H   0  0  0  0  0  0
  -26.3038  -29.6672   24.1304 H   0  0  0  0  0  0
  -27.4020  -29.7276   25.4880 H   0  0  0  0  0  0
  -27.8937  -30.4207   23.9626 H   0  0  0  0  0  0
  -27.2643  -33.3661   26.2005 H   0  0  0  0  0  0
  -28.3896  -32.6862   25.0347 H   0  0  0  0  0  0
  -28.0687  -31.8509   26.5466 H   0  0  0  0  0  0
  -28.2586  -38.0084   24.7512 H   0  0  0  0  0  0
  -28.1083  -36.2614   24.6300 H   0  0  0  0  0  0
  -27.2290  -37.1432   25.8867 H   0  0  0  0  0  0
  -20.9482  -29.8738   21.6751 H   0  0  0  0  0  0
  -26.0157  -38.2809   24.1413 H   0  0  0  0  0  0
  -27.3551  -18.4633   19.8101 H   0  0  0  0  0  0
  -28.6544  -18.3372   18.6414 H   0  0  0  0  0  0
  -28.3634  -16.0587   19.0365 H   0  0  0  0  0  0
  -27.8406  -16.2699   20.7210 H   0  0  0  0  0  0
  -31.0796  -17.7574   21.5243 H   0  0  0  0  0  0
  -31.1808  -17.8594   19.7864 H   0  0  0  0  0  0
  -28.9037  -18.8941   21.5972 H   0  0  0  0  0  0
  -29.7007  -23.3749   19.3922 H   0  0  0  0  0  0
  -29.7274  -23.4789   21.1113 H   0  0  0  0  0  0
  -27.8908  -21.4440   19.6060 H   0  0  0  0  0  0
  -28.1031  -21.5105   21.3203 H   0  0  0  0  0  0
  -27.2825  -24.4406   21.0171 H   0  0  0  0  0  0
  -27.4140  -24.4007   19.2962 H   0  0  0  0  0  0
  -30.0779  -20.4619   19.3722 H   0  0  0  0  0  0
  -30.4101  -20.6694   20.9279 H   0  0  0  0  0  0
  1 25  1  0  0  0
  1 30  2  0  0  0
  1 78  1  0  0  0
  2  3  1  0  0  0
  2 25  1  0  0  0
  2 80  1  0  0  0
  2 81  1  0  0  0
  3  4  1  0  0  0
  3 82  1  0  0  0
  3 83  1  0  0  0
  4  5  1  0  0  0
  4 84  1  0  0  0
  4 85  1  0  0  0
  5  6  1  0  0  0
  5 26  1  0  0  0
  5 86  1  0  0  0
  6 25  1  0  0  0
  6 87  1  0  0  0
  6 88  1  0  0  0
  7  8  2  0  0  0
  7 26  1  0  0  0
  7 29  1  0  0  0
  8  9  1  0  0  0
  8 22  1  0  0  0
  9 10  1  0  0  0
  9 27  2  0  0  0
 10 11  2  0  0  0
 10 15  1  0  0  0
 11 12  1  0  0  0
 11 89  1  0  0  0
 12 13  2  0  0  0
 12 90  1  0  0  0
 13 14  1  0  0  0
 13 31  1  0  0  0
 14 15  2  0  0  0
 14 91  1  0  0  0
 15 92  1  0  0  0
 16 17  2  0  0  0
 16 21  1  0  0  0
 16 31  1  0  0  0
 17 18  1  0  0  0
 17 93  1  0  0  0
 18 19  2  0  0  0
 18 94  1  0  0  0
 19 20  1  0  0  0
 19 24  1  0  0  0
 20 21  2  0  0  0
 20 95  1  0  0  0
 21 23  1  0  0  0
 22 28  1  0  0  0
 22 32  2  0  0  0
 26 27  1  0  0  0
 28 96  1  0  0  0
 28 97  1  0  0  0
 29 98  1  0  0  0
 29 99  1  0  0  0
 33 34  1  0  0  0
 33 66  1  0  0  0
 33 70  2  0  0  0
 34 36  1  0  0  0
 34 59  1  0  0  0
 34100  1  0  0  0
 35 44  2  0  0  0
 35 45  1  0  0  0
 35 68  1  0  0  0
 36 56  1  0  0  0
 36101  1  0  0  0
 37 39  1  0  0  0
 37 47  1  0  0  0
 37 66  1  0  0  0
 37102  1  0  0  0
 38 43  2  0  0  0
 38 46  1  0  0  0
 38 47  1  0  0  0
 39 64  1  0  0  0
 39 67  2  0  0  0
 40 52  1  0  0  0
 40 53  2  0  0  0
 40 58  1  0  0  0
 41103  1  0  0  0
 41104  1  0  0  0
 41105  1  0  0  0
 41 48  1  0  0  0
 42 43  1  0  0  0
 42 66  1  0  0  0
 42106  1  0  0  0
 42107  1  0  0  0
 43 44  1  0  0  0
 44108  1  0  0  0
 45 46  2  0  0  0
 45109  1  0  0  0
 46110  1  0  0  0
 47111  1  0  0  0
 47112  1  0  0  0
 48 56  1  0  0  0
 48 65  1  0  0  0
 48113  1  0  0  0
 49 50  1  0  0  0
 49 53  1  0  0  0
 49 64  1  0  0  0
 49114  1  0  0  0
 50 51  1  0  0  0
 50115  1  0  0  0
 50116  1  0  0  0
 51 52  1  0  0  0
 51117  1  0  0  0
 51118  1  0  0  0
 52119  1  0  0  0
 52120  1  0  0  0
 53 54  1  0  0  0
 54 55  2  0  0  0
 54121  1  0  0  0
 55 57  1  0  0  0
 55122  1  0  0  0
 56 69  2  0  0  0
 57 58  2  0  0  0
 57123  1  0  0  0
 58124  1  0  0  0
 59 60  1  0  0  0
 59 61  1  0  0  0
 59 62  1  0  0  0
 60125  1  0  0  0
 60126  1  0  0  0
 60127  1  0  0  0
 61128  1  0  0  0
 61129  1  0  0  0
 61130  1  0  0  0
 62131  1  0  0  0
 62132  1  0  0  0
 62133  1  0  0  0
 63 65  1  0  0  0
 63134  1  0  0  0
 63135  1  0  0  0
 63136  1  0  0  0
 64137  1  0  0  0
 65138  1  0  0  0
 68 77  1  0  0  0
 71 72  1  0  0  0
 71 74  1  0  0  0
 71139  1  0  0  0
 71140  1  0  0  0
 72 78  1  0  0  0
 72141  1  0  0  0
 72142  1  0  0  0
 73 74  1  0  0  0
 73 78  1  0  0  0
 73143  1  0  0  0
 73144  1  0  0  0
 74 79  1  0  0  0
 74145  1  0  0  0
 75 76  1  0  0  0
 75 77  1  0  0  0
 75146  1  0  0  0
 75147  1  0  0  0
 76 79  1  0  0  0
 76148  1  0  0  0
 76149  1  0  0  0
 77150  1  0  0  0
 77151  1  0  0  0
 79152  1  0  0  0
 79153  1  0  0  0
M  CHG  1  79   1
M  ISO  4   1 100  68 101  77 101  78 100
M  END
> <chiral flag>
0

> <version>
0

> <s_m_source_file>
/data/baiqing/PycharmProjects/Reinvent-master-3.2/result/LINK_invent/BTK/process_docking_weight1_custom_sum_contain_oxygen_bond_distance_aromatic_linkinvent_7_9_3/rearranged_h_0199.sdf

> <i_m_source_file_index>
66

> <r_mmod_Potential_Energy-OPLS-2005>
541.872192382812

> <r_mmod_Stretch_Energy-OPLS-2005>
269.435485839844

> <r_mmod_Bend_Energy-OPLS-2005>
304.060333251953

> <r_mmod_Torsional_Energy-OPLS-2005>
318.755554199219

> <r_mmod_Improper_Torsional_Energy-OPLS-2005>
4.60880088806152

> <r_mmod_Van_der_Waal_Energy-OPLS-2005>
111.653511047363

> <r_mmod_Electrostatic_Energy-OPLS-2005>
-203.608047485352

> <r_mmod_Solvation_Energy-OPLS-2005>
-481.170623779297

> <b_mmod_Minimization_Converged-OPLS-2005>
0

> <r_mmod_RMS_Derivative-OPLS-2005>
1.12562215328217

$$$$
66
                    3D
 Structure written by MMmdl.
161169  0  0  1  0            999 V2000
  -30.6456  -14.8465   20.4804 C   0  0  0  0  0  0
  -30.4197  -12.5444   19.4741 C   0  0  0  0  0  0
  -29.5007  -12.5142   18.2344 C   0  0  0  0  0  0
  -28.0388  -12.2833   18.6573 C   0  0  0  0  0  0
  -27.6206  -13.2127   19.8217 C   0  0  2  0  0  0
  -28.6701  -13.2366   20.9568 C   0  0  0  0  0  0
  -25.2432  -13.8106   20.5608 C   0  0  0  0  0  0
  -24.1756  -13.0389   20.9231 C   0  0  0  0  0  0
  -24.6344  -11.6863   20.8778 C   0  0  0  0  0  0
  -23.9023  -10.4263   21.0432 C   0  0  0  0  0  0
  -24.3594   -9.4177   21.9197 C   0  0  0  0  0  0
  -23.6281   -8.2210   22.0748 C   0  0  0  0  0  0
  -22.4272   -8.0250   21.3530 C   0  0  0  0  0  0
  -21.9895   -9.0225   20.4639 C   0  0  0  0  0  0
  -22.7213  -10.2111   20.3066 C   0  0  0  0  0  0
  -21.6838   -6.0725   22.5280 C   0  0  0  0  0  0
  -21.4006   -6.5635   23.8216 C   0  0  0  0  0  0
  -21.3657   -5.6785   24.9173 C   0  0  0  0  0  0
  -21.6046   -4.3049   24.7224 C   0  0  0  0  0  0
  -21.8821   -3.8135   23.4346 C   0  0  0  0  0  0
  -21.9192   -4.6955   22.3403 C   0  0  0  0  0  0
  -22.7793  -13.5204   21.1879 C   0  0  0  0  0  0
  -22.1657   -4.2140   21.0982 F   0  0  0  0  0  0
  -21.5633   -3.4531   25.7736 F   0  0  0  0  0  0
  -29.9488  -13.6458   20.3647 N   0  0  0  0  0  0
  -26.2817  -12.9270   20.3162 N   0  0  0  0  0  0
  -25.9253  -11.6446   20.5747 N   0  0  0  0  0  0
  -22.0420  -12.8230   22.0447 N   0  0  0  0  0  0
  -25.4060  -15.1804   20.3879 N   0  0  0  0  0  0
  -31.8461  -14.8067   20.1916 O   0  0  0  0  0  0
  -21.6629   -6.8852   21.4236 O   0  0  0  0  0  0
  -22.3497  -14.5505   20.6704 O   0  0  0  0  0  0
  -24.6344  -31.8513   23.1944 C   0  0  0  0  0  0
  -25.9153  -32.4733   23.8305 C   0  0  1  0  0  0
  -27.2188  -27.2248   20.1585 C   0  0  0  0  0  0
  -25.5940  -33.8535   24.2235 N   0  0  0  0  0  0
  -23.4331  -30.4710   21.5383 C   0  0  2  0  0  0
  -24.8822  -28.9058   20.1153 C   0  0  0  0  0  0
  -22.7518  -29.4587   22.4908 C   0  0  0  0  0  0
  -18.0295  -28.1389   22.8484 C   0  0  0  0  0  0
  -24.1492  -36.7269   23.2641 C   0  0  0  0  0  0
  -25.9801  -30.7558   21.3769 C   0  0  0  0  0  0
  -26.0547  -29.3727   20.7241 C   0  0  0  0  0  0
  -27.2291  -28.5480   20.7262 C   0  0  0  0  0  0
  -26.0261  -26.8284   19.5201 C   0  0  0  0  0  0
  -24.8745  -27.6434   19.4994 C   0  0  0  0  0  0
  -23.6540  -29.7974   20.1574 C   0  0  0  0  0  0
  -25.4116  -36.3053   24.0325 C   0  0  1  0  0  0
  -20.5902  -28.3702   23.1264 C   0  0  2  0  0  0
  -20.6779  -26.9414   22.5415 C   0  0  0  0  0  0
  -19.5761  -26.6379   21.5214 C   0  0  0  0  0  0
  -18.1938  -26.7932   22.1616 C   0  0  0  0  0  0
  -19.1551  -28.8864   23.2863 C   0  0  0  0  0  0
  -18.9465  -30.1461   23.8883 C   0  0  0  0  0  0
  -17.6467  -30.6586   24.0559 C   0  0  0  0  0  0
  -25.9064  -34.9428   23.5081 C   0  0  0  0  0  0
  -16.5355  -29.9081   23.6336 C   0  0  0  0  0  0
  -16.7280  -28.6500   23.0355 C   0  0  0  0  0  0
  -26.4510  -31.6567   25.0707 C   0  0  0  0  0  0
  -25.3731  -31.3719   26.1430 C   0  0  0  0  0  0
  -27.0365  -30.2980   24.6216 C   0  0  0  0  0  0
  -27.6067  -32.4307   25.7476 C   0  0  0  0  0  0
  -27.5584  -37.1778   24.8454 C   0  0  0  0  0  0
  -21.4225  -29.3037   22.3646 N   0  0  0  0  0  0
  -26.4278  -37.3761   23.9426 N   0  0  0  0  0  0
  -24.7017  -31.0454   22.0929 N   0  0  0  0  0  0
  -23.4202  -28.8145   23.3030 O   0  0  0  0  0  0
  -28.3085  -26.3160   20.1740 O   0  0  0  0  0  0
  -26.5640  -34.8908   22.4657 O   0  0  0  0  0  0
  -23.5484  -32.1347   23.7222 O   0  0  0  0  0  0
  -30.1273  -20.9023   18.7335 C   0  0  0  0  0  0
  -30.9380  -17.2598   21.2983 C   0  0  0  0  0  0
  -30.7503  -18.7213   20.6753 C   0  0  0  0  0  0
  -28.5572  -18.1180   19.9784 C   0  0  0  0  0  0
  -28.7014  -16.6850   20.6870 C   0  0  2  0  0  0
  -27.9949  -16.7178   22.0620 C   0  0  0  0  0  0
  -28.7116  -23.5499   19.9685 C   0  0  0  0  0  0
  -28.8433  -22.0740   20.7107 C   0  0  0  0  0  0
  -28.1251  -24.9000   20.6952 C   0  0  0  0  0  0
  -29.1086  -20.6690   19.8711 C   0  0  2  0  0  0
  -30.0839  -16.1163   20.8110 N   0  0  0  0  0  0
  -29.3444  -19.2647   20.5639 N   0  3  2  0  0  0
  -31.2040  -21.4792   18.9908 O   0  5  0  0  0  0
  -29.8592  -20.4593   17.5985 O   0  0  0  0  0  0
  -31.4548  -12.6693   19.1522 H   0  0  0  0  0  0
  -30.3939  -11.5864   19.9967 H   0  0  0  0  0  0
  -29.8207  -11.7349   17.5415 H   0  0  0  0  0  0
  -29.5825  -13.4580   17.6927 H   0  0  0  0  0  0
  -27.9416  -11.2410   18.9636 H   0  0  0  0  0  0
  -27.3705  -12.4143   17.8051 H   0  0  0  0  0  0
  -27.5714  -14.1897   19.3560 H   0  0  0  0  0  0
  -28.7554  -12.2539   21.4216 H   0  0  0  0  0  0
  -28.3713  -13.9065   21.7544 H   0  0  0  0  0  0
  -25.2731   -9.5668   22.4781 H   0  0  0  0  0  0
  -23.9982   -7.4607   22.7481 H   0  0  0  0  0  0
  -21.0812   -8.8753   19.8961 H   0  0  0  0  0  0
  -22.3658  -10.9662   19.6188 H   0  0  0  0  0  0
  -21.1993   -7.6143   23.9718 H   0  0  0  0  0  0
  -21.1477   -6.0511   25.9081 H   0  0  0  0  0  0
  -22.0605   -2.7598   23.2848 H   0  0  0  0  0  0
  -22.4006  -11.9903   22.4871 H   0  0  0  0  0  0
  -21.1037  -13.1271   22.2615 H   0  0  0  0  0  0
  -24.6272  -15.8238   20.4794 H   0  0  0  0  0  0
  -26.2365  -15.6104   20.0092 H   0  0  0  0  0  0
  -26.7225  -32.5378   23.1045 H   0  0  0  0  0  0
  -25.0081  -33.9659   25.0375 H   0  0  0  0  0  0
  -22.7311  -31.2936   21.3866 H   0  0  0  0  0  0
  -23.3770  -35.9588   23.3267 H   0  0  0  0  0  0
  -24.3589  -36.8930   22.2065 H   0  0  0  0  0  0
  -23.7220  -37.6443   23.6695 H   0  0  0  0  0  0
  -26.1203  -31.5137   20.6049 H   0  0  0  0  0  0
  -26.8566  -30.8079   22.0115 H   0  0  0  0  0  0
  -28.1296  -28.9033   21.2074 H   0  0  0  0  0  0
  -25.9757  -25.8588   19.0445 H   0  0  0  0  0  0
  -23.9770  -27.2813   19.0174 H   0  0  0  0  0  0
  -23.7821  -30.5697   19.3981 H   0  0  0  0  0  0
  -22.7722  -29.2311   19.8522 H   0  0  0  0  0  0
  -25.1302  -36.1882   25.0815 H   0  0  0  0  0  0
  -20.9985  -28.3278   24.1388 H   0  0  0  0  0  0
  -20.5667  -26.2314   23.3626 H   0  0  0  0  0  0
  -21.6646  -26.7429   22.1211 H   0  0  0  0  0  0
  -19.6921  -25.6286   21.1255 H   0  0  0  0  0  0
  -19.6707  -27.3181   20.6739 H   0  0  0  0  0  0
  -17.4216  -26.6690   21.4009 H   0  0  0  0  0  0
  -18.0325  -26.0066   22.9000 H   0  0  0  0  0  0
  -19.7941  -30.7282   24.2239 H   0  0  0  0  0  0
  -17.5017  -31.6265   24.5162 H   0  0  0  0  0  0
  -15.5355  -30.2973   23.7672 H   0  0  0  0  0  0
  -15.8679  -28.0812   22.7076 H   0  0  0  0  0  0
  -24.5905  -30.7076   25.7743 H   0  0  0  0  0  0
  -24.8936  -32.2894   26.4852 H   0  0  0  0  0  0
  -25.8046  -30.8884   27.0205 H   0  0  0  0  0  0
  -26.2954  -29.6704   24.1256 H   0  0  0  0  0  0
  -27.4052  -29.7262   25.4740 H   0  0  0  0  0  0
  -27.8830  -30.4237   23.9460 H   0  0  0  0  0  0
  -27.2680  -33.3606   26.2052 H   0  0  0  0  0  0
  -28.3879  -32.6867   25.0305 H   0  0  0  0  0  0
  -28.0746  -31.8440   26.5388 H   0  0  0  0  0  0
  -28.2566  -38.0109   24.7554 H   0  0  0  0  0  0
  -28.1116  -36.2649   24.6212 H   0  0  0  0  0  0
  -27.2320  -37.1324   25.8855 H   0  0  0  0  0  0
  -20.9427  -29.8734   21.6817 H   0  0  0  0  0  0
  -26.0154  -38.2827   24.1456 H   0  0  0  0  0  0
  -30.7823  -17.3275   22.3750 H   0  0  0  0  0  0
  -31.9969  -17.0142   21.2064 H   0  0  0  0  0  0
  -31.1969  -18.6778   19.6825 H   0  0  0  0  0  0
  -31.3497  -19.4351   21.2422 H   0  0  0  0  0  0
  -27.5025  -18.3956   19.9556 H   0  0  0  0  0  0
  -28.8527  -18.0167   18.9327 H   0  0  0  0  0  0
  -28.1459  -16.0129   20.0499 H   0  0  0  0  0  0
  -28.4281  -17.4658   22.7251 H   0  0  0  0  0  0
  -28.0435  -15.7741   22.5974 H   0  0  0  0  0  0
  -26.9393  -16.9671   21.9534 H   0  0  0  0  0  0
  -28.1207  -23.4065   19.0634 H   0  0  0  0  0  0
  -29.7082  -23.8077   19.6113 H   0  0  0  0  0  0
  -27.9204  -21.9276   21.2718 H   0  0  0  0  0  0
  -29.6173  -22.1591   21.4737 H   0  0  0  0  0  0
  -28.5744  -24.9258   21.6881 H   0  0  0  0  0  0
  -27.0668  -24.7300   20.8946 H   0  0  0  0  0  0
  -28.1495  -20.5430   19.3652 H   0  0  0  0  0  0
  -29.0027  -19.3732   21.5050 H   0  0  0  0  0  0
  1 25  1  0  0  0
  1 30  2  0  0  0
  1 81  1  0  0  0
  2  3  1  0  0  0
  2 25  1  0  0  0
  2 85  1  0  0  0
  2 86  1  0  0  0
  3  4  1  0  0  0
  3 87  1  0  0  0
  3 88  1  0  0  0
  4  5  1  0  0  0
  4 89  1  0  0  0
  4 90  1  0  0  0
  5  6  1  0  0  0
  5 26  1  0  0  0
  5 91  1  0  0  0
  6 25  1  0  0  0
  6 92  1  0  0  0
  6 93  1  0  0  0
  7  8  2  0  0  0
  7 26  1  0  0  0
  7 29  1  0  0  0
  8  9  1  0  0  0
  8 22  1  0  0  0
  9 10  1  0  0  0
  9 27  2  0  0  0
 10 11  2  0  0  0
 10 15  1  0  0  0
 11 12  1  0  0  0
 11 94  1  0  0  0
 12 13  2  0  0  0
 12 95  1  0  0  0
 13 14  1  0  0  0
 13 31  1  0  0  0
 14 15  2  0  0  0
 14 96  1  0  0  0
 15 97  1  0  0  0
 16 17  2  0  0  0
 16 21  1  0  0  0
 16 31  1  0  0  0
 17 18  1  0  0  0
 17 98  1  0  0  0
 18 19  2  0  0  0
 18 99  1  0  0  0
 19 20  1  0  0  0
 19 24  1  0  0  0
 20 21  2  0  0  0
 20100  1  0  0  0
 21 23  1  0  0  0
 22 28  1  0  0  0
 22 32  2  0  0  0
 26 27  1  0  0  0
 28101  1  0  0  0
 28102  1  0  0  0
 29103  1  0  0  0
 29104  1  0  0  0
 33 34  1  0  0  0
 33 66  1  0  0  0
 33 70  2  0  0  0
 34 36  1  0  0  0
 34 59  1  0  0  0
 34105  1  0  0  0
 35 44  2  0  0  0
 35 45  1  0  0  0
 35 68  1  0  0  0
 36 56  1  0  0  0
 36106  1  0  0  0
 37 39  1  0  0  0
 37 47  1  0  0  0
 37 66  1  0  0  0
 37107  1  0  0  0
 38 43  2  0  0  0
 38 46  1  0  0  0
 38 47  1  0  0  0
 39 64  1  0  0  0
 39 67  2  0  0  0
 40 52  1  0  0  0
 40 53  2  0  0  0
 40 58  1  0  0  0
 41108  1  0  0  0
 41109  1  0  0  0
 41110  1  0  0  0
 41 48  1  0  0  0
 42 43  1  0  0  0
 42 66  1  0  0  0
 42111  1  0  0  0
 42112  1  0  0  0
 43 44  1  0  0  0
 44113  1  0  0  0
 45 46  2  0  0  0
 45114  1  0  0  0
 46115  1  0  0  0
 47116  1  0  0  0
 47117  1  0  0  0
 48 56  1  0  0  0
 48 65  1  0  0  0
 48118  1  0  0  0
 49 50  1  0  0  0
 49 53  1  0  0  0
 49 64  1  0  0  0
 49119  1  0  0  0
 50 51  1  0  0  0
 50120  1  0  0  0
 50121  1  0  0  0
 51 52  1  0  0  0
 51122  1  0  0  0
 51123  1  0  0  0
 52124  1  0  0  0
 52125  1  0  0  0
 53 54  1  0  0  0
 54 55  2  0  0  0
 54126  1  0  0  0
 55 57  1  0  0  0
 55127  1  0  0  0
 56 69  2  0  0  0
 57 58  2  0  0  0
 57128  1  0  0  0
 58129  1  0  0  0
 59 60  1  0  0  0
 59 61  1  0  0  0
 59 62  1  0  0  0
 60130  1  0  0  0
 60131  1  0  0  0
 60132  1  0  0  0
 61133  1  0  0  0
 61134  1  0  0  0
 61135  1  0  0  0
 62136  1  0  0  0
 62137  1  0  0  0
 62138  1  0  0  0
 63 65  1  0  0  0
 63139  1  0  0  0
 63140  1  0  0  0
 63141  1  0  0  0
 64142  1  0  0  0
 65143  1  0  0  0
 68 79  1  0  0  0
 71 80  1  0  0  0
 71 83  1  0  0  0
 71 84  2  0  0  0
 72 73  1  0  0  0
 72 81  1  0  0  0
 72144  1  0  0  0
 72145  1  0  0  0
 73146  1  0  0  0
 73147  1  0  0  0
 73 82  1  0  0  0
 74 75  1  0  0  0
 74 82  1  0  0  0
 74148  1  0  0  0
 74149  1  0  0  0
 75 76  1  0  0  0
 75 81  1  0  0  0
 75150  1  0  0  0
 76151  1  0  0  0
 76152  1  0  0  0
 76153  1  0  0  0
 77 78  1  0  0  0
 77 79  1  0  0  0
 77154  1  0  0  0
 77155  1  0  0  0
 78156  1  0  0  0
 78157  1  0  0  0
 78 80  1  0  0  0
 79158  1  0  0  0
 79159  1  0  0  0
 80 82  1  0  0  0
 80160  1  0  0  0
 82161  1  0  0  0
M  CHG  2  82   1  83  -1
M  ISO  4   1 100  68 101  79 101  81 100
M  END
> <chiral flag>
0

> <version>
0

> <s_m_source_file>
/data/baiqing/PycharmProjects/Reinvent-master-3.2/result/LINK_invent/BTK/process_docking_weight1_custom_sum_contain_oxygen_bond_distance_aromatic_linkinvent_7_9_3/rearranged_h_0199.sdf

> <i_m_source_file_index>
67

> <r_mmod_Potential_Energy-OPLS-2005>
99.2594985961914

> <r_mmod_Stretch_Energy-OPLS-2005>
179.971267700195

> <r_mmod_Bend_Energy-OPLS-2005>
256.217651367188

> <r_mmod_Torsional_Energy-OPLS-2005>
396.284149169922

> <r_mmod_Improper_Torsional_Energy-OPLS-2005>
2.39734292030334

> <r_mmod_Van_der_Waal_Energy-OPLS-2005>
128.829574584961

> <r_mmod_Electrostatic_Energy-OPLS-2005>
-565.009033203125

> <r_mmod_Solvation_Energy-OPLS-2005>
-422.318939208984

> <b_mmod_Minimization_Converged-OPLS-2005>
0

> <r_mmod_RMS_Derivative-OPLS-2005>
1.51054227352142

$$$$
67
                    3D
 Structure written by MMmdl.
181191  0  0  1  0            999 V2000
  -30.7550  -14.3524   20.6786 C   0  0  0  0  0  0
  -30.4169  -12.2773   19.3945 C   0  0  0  0  0  0
  -29.4848  -12.5289   18.1938 C   0  0  0  0  0  0
  -28.0086  -12.3860   18.6085 C   0  0  0  0  0  0
  -27.6690  -13.1989   19.8852 C   0  0  2  0  0  0
  -28.7039  -12.9225   20.9985 C   0  0  0  0  0  0
  -25.2619  -13.8150   20.5672 C   0  0  0  0  0  0
  -24.1853  -13.0441   20.9159 C   0  0  0  0  0  0
  -24.6390  -11.6903   20.8721 C   0  0  0  0  0  0
  -23.9055  -10.4293   21.0405 C   0  0  0  0  0  0
  -24.3613   -9.4208   21.9183 C   0  0  0  0  0  0
  -23.6289   -8.2243   22.0754 C   0  0  0  0  0  0
  -22.4268   -8.0280   21.3544 C   0  0  0  0  0  0
  -21.9907   -9.0254   20.4646 C   0  0  0  0  0  0
  -22.7232  -10.2135   20.3053 C   0  0  0  0  0  0
  -21.6851   -6.0737   22.5279 C   0  0  0  0  0  0
  -21.4015   -6.5641   23.8214 C   0  0  0  0  0  0
  -21.3657   -5.6794   24.9176 C   0  0  0  0  0  0
  -21.6045   -4.3056   24.7225 C   0  0  0  0  0  0
  -21.8820   -3.8149   23.4346 C   0  0  0  0  0  0
  -21.9193   -4.6966   22.3403 C   0  0  0  0  0  0
  -22.7879  -13.5244   21.1837 C   0  0  0  0  0  0
  -22.1664   -4.2153   21.0979 F   0  0  0  0  0  0
  -21.5626   -3.4539   25.7739 F   0  0  0  0  0  0
  -30.0501  -13.2129   20.4675 N   0  0  0  0  0  0
  -26.3056  -12.9308   20.3392 N   0  0  0  0  0  0
  -25.9313  -11.6470   20.5756 N   0  0  0  0  0  0
  -22.0521  -12.8234   22.0392 N   0  0  0  0  0  0
  -25.4374  -15.1866   20.4083 N   0  0  0  0  0  0
  -31.7733  -14.6455   20.0452 O   0  0  0  0  0  0
  -21.6636   -6.8877   21.4238 O   0  0  0  0  0  0
  -22.3573  -14.5563   20.6701 O   0  0  0  0  0  0
  -24.6094  -31.8719   23.2131 C   0  0  0  0  0  0
  -25.9007  -32.4845   23.8415 C   0  0  1  0  0  0
  -27.2535  -27.4925   20.0752 C   0  0  0  0  0  0
  -25.5882  -33.8640   24.2351 N   0  0  0  0  0  0
  -23.3954  -30.4926   21.5516 C   0  0  2  0  0  0
  -24.8455  -28.9571   20.1198 C   0  0  0  0  0  0
  -22.7385  -29.4669   22.5018 C   0  0  0  0  0  0
  -18.0270  -28.1371   22.8497 C   0  0  0  0  0  0
  -24.1483  -36.7328   23.2636 C   0  0  0  0  0  0
  -25.9175  -30.8480   21.3617 C   0  0  0  0  0  0
  -25.9966  -29.4809   20.7215 C   0  0  0  0  0  0
  -27.1966  -28.7449   20.7195 C   0  0  0  0  0  0
  -26.0862  -26.9577   19.4926 C   0  0  0  0  0  0
  -24.8802  -27.6870   19.5131 C   0  0  0  0  0  0
  -23.6037  -29.8189   20.1669 C   0  0  0  0  0  0
  -25.4097  -36.3125   24.0347 C   0  0  1  0  0  0
  -20.5856  -28.3645   23.1342 C   0  0  2  0  0  0
  -20.6760  -26.9385   22.5425 C   0  0  0  0  0  0
  -19.5739  -26.6380   21.5217 C   0  0  0  0  0  0
  -18.1915  -26.7923   22.1623 C   0  0  0  0  0  0
  -19.1517  -28.8824   23.2920 C   0  0  0  0  0  0
  -18.9445  -30.1441   23.8913 C   0  0  0  0  0  0
  -17.6444  -30.6578   24.0562 C   0  0  0  0  0  0
  -25.9022  -34.9489   23.5143 C   0  0  0  0  0  0
  -16.5337  -29.9079   23.6318 C   0  0  0  0  0  0
  -16.7261  -28.6503   23.0330 C   0  0  0  0  0  0
  -26.4457  -31.6608   25.0721 C   0  0  0  0  0  0
  -25.3736  -31.3693   26.1477 C   0  0  0  0  0  0
  -27.0279  -30.3061   24.6055 C   0  0  0  0  0  0
  -27.6048  -32.4316   25.7475 C   0  0  0  0  0  0
  -27.5587  -37.1809   24.8464 C   0  0  0  0  0  0
  -21.4121  -29.3021   22.3755 N   0  0  0  0  0  0
  -26.4287  -37.3809   23.9425 N   0  0  0  0  0  0
  -24.6582  -31.0855   22.1011 N   0  0  0  0  0  0
  -23.4180  -28.8224   23.3050 O   0  0  0  0  0  0
  -28.4287  -26.7868   20.0134 O   0  0  0  0  0  0
  -26.5586  -34.8933   22.4705 O   0  0  0  0  0  0
  -23.5300  -32.1461   23.7552 O   0  0  0  0  0  0
  -32.4888  -16.7892   23.7655 C   0  0  0  0  0  0
  -33.0270  -15.7432   22.8340 C   0  0  0  0  0  0
  -28.5512  -22.5762   18.5973 C   0  0  0  0  0  0
  -29.9332  -22.8396   16.5310 C   0  0  0  0  0  0
  -30.3912  -17.4574   20.7014 C   0  0  0  0  0  0
  -32.5446  -17.9231   21.3901 C   0  0  0  0  0  0
  -29.2014  -23.8418   19.1856 C   0  0  0  0  0  0
  -30.5537  -24.1206   17.1293 C   0  0  0  0  0  0
  -30.6458  -16.5377   21.9011 C   0  0  2  0  0  0
  -29.4780  -21.8338   17.6073 C   0  0  1  0  0  0
  -32.0808  -16.8086   22.3043 C   0  0  0  0  0  0
  -30.0525  -28.4521   19.2592 C   0  0  0  0  0  0
  -31.5568  -19.3387   19.7095 C   0  0  0  0  0  0
  -30.2947  -26.0073   18.6961 C   0  0  0  0  0  0
  -30.2975  -20.1018   19.2458 C   0  0  0  0  0  0
  -29.2931  -27.1541   18.9329 C   0  0  1  0  0  0
  -31.3137  -18.5635   20.9267 N   0  0  0  0  0  0
  -30.2496  -15.1596   21.6209 N   0  0  0  0  0  0
  -29.6660  -24.7830   18.1274 N   0  3  2  0  0  0
  -30.6320  -21.1292   18.2366 N   0  3  0  0  0  0
  -31.4604  -12.3782   19.0902 H   0  0  0  0  0  0
  -30.3120  -11.2507   19.7492 H   0  0  0  0  0  0
  -29.7141  -11.8331   17.3857 H   0  0  0  0  0  0
  -29.6599  -13.5296   17.7954 H   0  0  0  0  0  0
  -27.8098  -11.3273   18.7781 H   0  0  0  0  0  0
  -27.3575  -12.6886   17.7874 H   0  0  0  0  0  0
  -27.7342  -14.2557   19.6247 H   0  0  0  0  0  0
  -28.6598  -11.8752   21.3015 H   0  0  0  0  0  0
  -28.4516  -13.4862   21.8968 H   0  0  0  0  0  0
  -25.2757   -9.5684   22.4759 H   0  0  0  0  0  0
  -24.0001   -7.4634   22.7470 H   0  0  0  0  0  0
  -21.0841   -8.8765   19.8951 H   0  0  0  0  0  0
  -22.3686  -10.9672   19.6163 H   0  0  0  0  0  0
  -21.2007   -7.6150   23.9716 H   0  0  0  0  0  0
  -21.1480   -6.0526   25.9079 H   0  0  0  0  0  0
  -22.0602   -2.7611   23.2844 H   0  0  0  0  0  0
  -22.4133  -11.9877   22.4754 H   0  0  0  0  0  0
  -21.1142  -13.1260   22.2613 H   0  0  0  0  0  0
  -24.6761  -15.8475   20.5173 H   0  0  0  0  0  0
  -26.3002  -15.6213   20.1060 H   0  0  0  0  0  0
  -26.7086  -32.5592   23.1196 H   0  0  0  0  0  0
  -25.0043  -33.9810   25.0503 H   0  0  0  0  0  0
  -22.6811  -31.3068   21.4115 H   0  0  0  0  0  0
  -23.3744  -35.9662   23.3288 H   0  0  0  0  0  0
  -24.3591  -36.8950   22.2052 H   0  0  0  0  0  0
  -23.7230  -37.6529   23.6653 H   0  0  0  0  0  0
  -26.0180  -31.6066   20.5838 H   0  0  0  0  0  0
  -26.8109  -30.9135   21.9713 H   0  0  0  0  0  0
  -28.0809  -29.1459   21.1947 H   0  0  0  0  0  0
  -26.1137  -25.9884   19.0152 H   0  0  0  0  0  0
  -23.9930  -27.2731   19.0533 H   0  0  0  0  0  0
  -23.7100  -30.5922   19.4051 H   0  0  0  0  0  0
  -22.7298  -29.2341   19.8732 H   0  0  0  0  0  0
  -25.1261  -36.1995   25.0838 H   0  0  0  0  0  0
  -20.9946  -28.3202   24.1465 H   0  0  0  0  0  0
  -20.5670  -26.2240   23.3602 H   0  0  0  0  0  0
  -21.6633  -26.7446   22.1207 H   0  0  0  0  0  0
  -19.6895  -25.6298   21.1227 H   0  0  0  0  0  0
  -19.6683  -27.3209   20.6764 H   0  0  0  0  0  0
  -17.4190  -26.6691   21.4016 H   0  0  0  0  0  0
  -18.0303  -26.0061   22.9010 H   0  0  0  0  0  0
  -19.7917  -30.7261   24.2283 H   0  0  0  0  0  0
  -17.4994  -31.6260   24.5160 H   0  0  0  0  0  0
  -15.5335  -30.2979   23.7637 H   0  0  0  0  0  0
  -15.8665  -28.0836   22.7008 H   0  0  0  0  0  0
  -24.5916  -30.7032   25.7818 H   0  0  0  0  0  0
  -24.8914  -32.2838   26.4940 H   0  0  0  0  0  0
  -25.8101  -30.8860   27.0226 H   0  0  0  0  0  0
  -26.2804  -29.6832   24.1130 H   0  0  0  0  0  0
  -27.4091  -29.7284   25.4486 H   0  0  0  0  0  0
  -27.8619  -30.4396   23.9161 H   0  0  0  0  0  0
  -27.2679  -33.3613   26.2074 H   0  0  0  0  0  0
  -28.3839  -32.6880   25.0283 H   0  0  0  0  0  0
  -28.0732  -31.8425   26.5371 H   0  0  0  0  0  0
  -28.2583  -38.0127   24.7541 H   0  0  0  0  0  0
  -28.1102  -36.2662   24.6237 H   0  0  0  0  0  0
  -27.2320  -37.1393   25.8870 H   0  0  0  0  0  0
  -20.9274  -29.8731   21.6976 H   0  0  0  0  0  0
  -26.0179  -38.2890   24.1437 H   0  0  0  0  0  0
  -33.1820  -17.5534   24.1102 H   0  0  0  0  0  0
  -31.7456  -16.4738   24.4959 H   0  0  0  0  0  0
  -32.6519  -14.7302   22.9634 H   0  0  0  0  0  0
  -34.0740  -15.8140   22.5453 H   0  0  0  0  0  0
  -27.6432  -22.8700   18.0685 H   0  0  0  0  0  0
  -28.2043  -21.9219   19.3963 H   0  0  0  0  0  0
  -30.6352  -22.3721   15.8391 H   0  0  0  0  0  0
  -29.0715  -23.1206   15.9241 H   0  0  0  0  0  0
  -29.3519  -17.7873   20.6534 H   0  0  0  0  0  0
  -30.6305  -16.9617   19.7588 H   0  0  0  0  0  0
  -33.0968  -17.4808   20.5578 H   0  0  0  0  0  0
  -33.2037  -18.6222   21.9078 H   0  0  0  0  0  0
  -30.0418  -23.5617   19.8223 H   0  0  0  0  0  0
  -28.4794  -24.3329   19.8372 H   0  0  0  0  0  0
  -30.7720  -24.8170   16.3177 H   0  0  0  0  0  0
  -31.5130  -23.8876   17.5942 H   0  0  0  0  0  0
  -30.0143  -16.8818   22.7218 H   0  0  0  0  0  0
  -28.8849  -21.0638   17.1092 H   0  0  0  0  0  0
  -30.8057  -28.6658   18.5012 H   0  0  0  0  0  0
  -30.5604  -28.3818   20.2210 H   0  0  0  0  0  0
  -29.3915  -29.3163   19.2835 H   0  0  0  0  0  0
  -32.3496  -20.0560   19.9289 H   0  0  0  0  0  0
  -31.9315  -18.6973   18.9089 H   0  0  0  0  0  0
  -30.8440  -25.7790   19.6107 H   0  0  0  0  0  0
  -31.0437  -26.3758   17.9938 H   0  0  0  0  0  0
  -29.8399  -20.5838   20.1101 H   0  0  0  0  0  0
  -29.5606  -19.4100   18.8352 H   0  0  0  0  0  0
  -28.7122  -27.3100   18.0207 H   0  0  0  0  0  0
  -29.4343  -14.8178   22.1068 H   0  0  0  0  0  0
  -28.8496  -25.0944   17.6180 H   0  0  0  0  0  0
  -31.2794  -21.7758   18.6561 H   0  0  0  0  0  0
  -31.1302  -20.6532   17.4993 H   0  0  0  0  0  0
  1 25  1  0  0  0
  1 30  2  0  0  0
  1 88  1  0  0  0
  2  3  1  0  0  0
  2 25  1  0  0  0
  2 91  1  0  0  0
  2 92  1  0  0  0
  3  4  1  0  0  0
  3 93  1  0  0  0
  3 94  1  0  0  0
  4  5  1  0  0  0
  4 95  1  0  0  0
  4 96  1  0  0  0
  5  6  1  0  0  0
  5 26  1  0  0  0
  5 97  1  0  0  0
  6 25  1  0  0  0
  6 98  1  0  0  0
  6 99  1  0  0  0
  7  8  2  0  0  0
  7 26  1  0  0  0
  7 29  1  0  0  0
  8  9  1  0  0  0
  8 22  1  0  0  0
  9 10  1  0  0  0
  9 27  2  0  0  0
 10 11  2  0  0  0
 10 15  1  0  0  0
 11 12  1  0  0  0
 11100  1  0  0  0
 12 13  2  0  0  0
 12101  1  0  0  0
 13 14  1  0  0  0
 13 31  1  0  0  0
 14 15  2  0  0  0
 14102  1  0  0  0
 15103  1  0  0  0
 16 17  2  0  0  0
 16 21  1  0  0  0
 16 31  1  0  0  0
 17 18  1  0  0  0
 17104  1  0  0  0
 18 19  2  0  0  0
 18105  1  0  0  0
 19 20  1  0  0  0
 19 24  1  0  0  0
 20 21  2  0  0  0
 20106  1  0  0  0
 21 23  1  0  0  0
 22 28  1  0  0  0
 22 32  2  0  0  0
 26 27  1  0  0  0
 28107  1  0  0  0
 28108  1  0  0  0
 29109  1  0  0  0
 29110  1  0  0  0
 33 34  1  0  0  0
 33 66  1  0  0  0
 33 70  2  0  0  0
 34 36  1  0  0  0
 34 59  1  0  0  0
 34111  1  0  0  0
 35 44  2  0  0  0
 35 45  1  0  0  0
 35 68  1  0  0  0
 36 56  1  0  0  0
 36112  1  0  0  0
 37 39  1  0  0  0
 37 47  1  0  0  0
 37 66  1  0  0  0
 37113  1  0  0  0
 38 43  2  0  0  0
 38 46  1  0  0  0
 38 47  1  0  0  0
 39 64  1  0  0  0
 39 67  2  0  0  0
 40 52  1  0  0  0
 40 53  2  0  0  0
 40 58  1  0  0  0
 41114  1  0  0  0
 41115  1  0  0  0
 41116  1  0  0  0
 41 48  1  0  0  0
 42 43  1  0  0  0
 42 66  1  0  0  0
 42117  1  0  0  0
 42118  1  0  0  0
 43 44  1  0  0  0
 44119  1  0  0  0
 45 46  2  0  0  0
 45120  1  0  0  0
 46121  1  0  0  0
 47122  1  0  0  0
 47123  1  0  0  0
 48 56  1  0  0  0
 48 65  1  0  0  0
 48124  1  0  0  0
 49 50  1  0  0  0
 49 53  1  0  0  0
 49 64  1  0  0  0
 49125  1  0  0  0
 50 51  1  0  0  0
 50126  1  0  0  0
 50127  1  0  0  0
 51 52  1  0  0  0
 51128  1  0  0  0
 51129  1  0  0  0
 52130  1  0  0  0
 52131  1  0  0  0
 53 54  1  0  0  0
 54 55  2  0  0  0
 54132  1  0  0  0
 55 57  1  0  0  0
 55133  1  0  0  0
 56 69  2  0  0  0
 57 58  2  0  0  0
 57134  1  0  0  0
 58135  1  0  0  0
 59 60  1  0  0  0
 59 61  1  0  0  0
 59 62  1  0  0  0
 60136  1  0  0  0
 60137  1  0  0  0
 60138  1  0  0  0
 61139  1  0  0  0
 61140  1  0  0  0
 61141  1  0  0  0
 62142  1  0  0  0
 62143  1  0  0  0
 62144  1  0  0  0
 63 65  1  0  0  0
 63145  1  0  0  0
 63146  1  0  0  0
 63147  1  0  0  0
 64148  1  0  0  0
 65149  1  0  0  0
 68 86  1  0  0  0
 71 72  1  0  0  0
 71150  1  0  0  0
 71151  1  0  0  0
 71 81  1  0  0  0
 72 81  1  0  0  0
 72152  1  0  0  0
 72153  1  0  0  0
 73 77  1  0  0  0
 73 80  1  0  0  0
 73154  1  0  0  0
 73155  1  0  0  0
 74 78  1  0  0  0
 74 80  1  0  0  0
 74156  1  0  0  0
 74157  1  0  0  0
 75 79  1  0  0  0
 75 87  1  0  0  0
 75158  1  0  0  0
 75159  1  0  0  0
 76 81  1  0  0  0
 76 87  1  0  0  0
 76160  1  0  0  0
 76161  1  0  0  0
 77 89  1  0  0  0
 77162  1  0  0  0
 77163  1  0  0  0
 78 89  1  0  0  0
 78164  1  0  0  0
 78165  1  0  0  0
 79 81  1  0  0  0
 79 88  1  0  0  0
 79166  1  0  0  0
 80 90  1  0  0  0
 80167  1  0  0  0
 82168  1  0  0  0
 82169  1  0  0  0
 82170  1  0  0  0
 82 86  1  0  0  0
 83 85  1  0  0  0
 83 87  1  0  0  0
 83171  1  0  0  0
 83172  1  0  0  0
 84 86  1  0  0  0
 84173  1  0  0  0
 84174  1  0  0  0
 84 89  1  0  0  0
 85 90  1  0  0  0
 85175  1  0  0  0
 85176  1  0  0  0
 86177  1  0  0  0
 88178  1  0  0  0
 89179  1  0  0  0
 90180  1  0  0  0
 90181  1  0  0  0
M  CHG  2  89   1  90   1
M  ISO  4   1 100  68 101  86 101  88 100
M  END
> <chiral flag>
0

> <version>
0

> <s_m_source_file>
/data/baiqing/PycharmProjects/Reinvent-master-3.2/result/LINK_invent/BTK/process_docking_weight1_custom_sum_contain_oxygen_bond_distance_aromatic_linkinvent_7_9_3/rearranged_h_0199.sdf

> <i_m_source_file_index>
68

> <r_mmod_Potential_Energy-OPLS-2005>
-210.963836669922

> <r_mmod_Stretch_Energy-OPLS-2005>
34.1344299316406

> <r_mmod_Bend_Energy-OPLS-2005>
115.033615112305

> <r_mmod_Torsional_Energy-OPLS-2005>
394.902893066406

> <r_mmod_Improper_Torsional_Energy-OPLS-2005>
1.97866344451904

> <r_mmod_Van_der_Waal_Energy-OPLS-2005>
138.203247070312

> <r_mmod_Electrostatic_Energy-OPLS-2005>
53.0853042602539

> <r_mmod_Solvation_Energy-OPLS-2005>
-954.397033691406

> <b_mmod_Minimization_Converged-OPLS-2005>
0

> <r_mmod_RMS_Derivative-OPLS-2005>
1.0704493522644

$$$$
68
                    3D
 Structure written by MMmdl.
153162  0  0  1  0            999 V2000
  -30.6612  -14.9043   20.3457 C   0  0  0  0  0  0
  -30.4128  -12.5628   19.4744 C   0  0  0  0  0  0
  -29.5127  -12.4828   18.2176 C   0  0  0  0  0  0
  -28.0228  -12.7916   18.5090 C   0  0  0  0  0  0
  -27.7124  -12.7976   20.0115 C   0  0  2  0  0  0
  -28.7244  -13.3795   21.0122 C   0  0  0  0  0  0
  -25.2932  -13.7568   20.5582 C   0  0  0  0  0  0
  -24.1805  -13.0326   20.9186 C   0  0  0  0  0  0
  -24.5781  -11.6679   20.8957 C   0  0  0  0  0  0
  -23.8442  -10.4185   21.0585 C   0  0  0  0  0  0
  -24.3234   -9.4083   21.9211 C   0  0  0  0  0  0
  -23.6087   -8.2035   22.0681 C   0  0  0  0  0  0
  -22.4073   -8.0065   21.3498 C   0  0  0  0  0  0
  -21.9549   -9.0038   20.4701 C   0  0  0  0  0  0
  -22.6702  -10.2008   20.3180 C   0  0  0  0  0  0
  -21.6744   -6.0574   22.5281 C   0  0  0  0  0  0
  -21.3925   -6.5554   23.8189 C   0  0  0  0  0  0
  -21.3659   -5.6757   24.9183 C   0  0  0  0  0  0
  -21.6069   -4.3023   24.7275 C   0  0  0  0  0  0
  -21.8829   -3.8047   23.4428 C   0  0  0  0  0  0
  -21.9135   -4.6812   22.3437 C   0  0  0  0  0  0
  -22.7955  -13.5444   21.1791 C   0  0  0  0  0  0
  -22.1651   -4.2012   21.1018 F   0  0  0  0  0  0
  -21.5697   -3.4554   25.7829 F   0  0  0  0  0  0
  -29.9611  -13.7138   20.2971 N   0  0  0  0  0  0
  -26.3065  -12.8039   20.3921 N   0  0  0  0  0  0
  -25.8463  -11.5618   20.6147 N   0  0  0  0  0  0
  -22.0406  -12.8537   22.0321 N   0  0  0  0  0  0
  -25.4939  -15.1166   20.3497 N   0  0  0  0  0  0
  -31.8851  -14.8549   20.2132 O   0  0  0  0  0  0
  -21.6540   -6.8616   21.4184 O   0  0  0  0  0  0
  -22.3814  -14.5768   20.6553 O   0  0  0  0  0  0
  -24.6333  -31.8512   23.1986 C   0  0  0  0  0  0
  -25.9163  -32.4720   23.8308 C   0  0  1  0  0  0
  -27.2367  -27.2546   20.1214 C   0  0  0  0  0  0
  -25.6011  -33.8528   24.2251 N   0  0  0  0  0  0
  -23.4289  -30.4739   21.5384 C   0  0  2  0  0  0
  -24.8789  -28.9088   20.1111 C   0  0  0  0  0  0
  -22.7498  -29.4583   22.4889 C   0  0  0  0  0  0
  -18.0294  -28.1373   22.8481 C   0  0  0  0  0  0
  -24.1502  -36.7248   23.2630 C   0  0  0  0  0  0
  -25.9730  -30.7636   21.3743 C   0  0  0  0  0  0
  -26.0472  -29.3812   20.7174 C   0  0  0  0  0  0
  -27.2234  -28.5651   20.7111 C   0  0  0  0  0  0
  -26.0386  -26.8381   19.4969 C   0  0  0  0  0  0
  -24.8789  -27.6447   19.4936 C   0  0  0  0  0  0
  -23.6494  -29.7999   20.1566 C   0  0  0  0  0  0
  -25.4128  -36.3039   24.0321 C   0  0  1  0  0  0
  -20.5896  -28.3690   23.1264 C   0  0  2  0  0  0
  -20.6772  -26.9408   22.5399 C   0  0  0  0  0  0
  -19.5749  -26.6390   21.5199 C   0  0  0  0  0  0
  -18.1946  -26.7924   22.1617 C   0  0  0  0  0  0
  -19.1551  -28.8844   23.2876 C   0  0  0  0  0  0
  -18.9468  -30.1447   23.8884 C   0  0  0  0  0  0
  -17.6468  -30.6575   24.0561 C   0  0  0  0  0  0
  -25.9062  -34.9418   23.5057 C   0  0  0  0  0  0
  -16.5363  -29.9067   23.6320 C   0  0  0  0  0  0
  -16.7290  -28.6488   23.0349 C   0  0  0  0  0  0
  -26.4542  -31.6533   25.0681 C   0  0  0  0  0  0
  -25.3786  -31.3679   26.1417 C   0  0  0  0  0  0
  -27.0346  -30.2944   24.6127 C   0  0  0  0  0  0
  -27.6113  -32.4235   25.7484 C   0  0  0  0  0  0
  -27.5564  -37.1805   24.8474 C   0  0  0  0  0  0
  -21.4203  -29.3044   22.3644 N   0  0  0  0  0  0
  -26.4286  -37.3751   23.9388 N   0  0  0  0  0  0
  -24.6973  -31.0480   22.0947 N   0  0  0  0  0  0
  -23.4190  -28.8132   23.2995 O   0  0  0  0  0  0
  -28.3731  -26.4117   20.1991 O   0  0  0  0  0  0
  -26.5611  -34.8894   22.4604 O   0  0  0  0  0  0
  -23.5501  -32.1347   23.7297 O   0  0  0  0  0  0
  -29.7487  -20.2495   20.0847 C   0  0  0  0  0  0
  -30.8843  -21.0931   20.2848 C   0  0  0  0  0  0
  -28.3657  -17.9807   20.0114 C   0  0  0  0  0  0
  -28.6413  -16.4524   19.8990 C   0  0  0  0  0  0
  -30.6507  -17.5613   20.3905 C   0  0  0  0  0  0
  -29.6936  -18.6816   19.7509 C   0  0  2  0  0  0
  -28.4240  -23.6715   20.5681 C   0  0  0  0  0  0
  -28.4973  -25.0081   19.6520 C   0  0  0  0  0  0
  -28.7129  -21.1089   20.0616 N   0  0  0  0  0  0
  -30.5851  -22.3736   20.3987 N   0  0  0  0  0  0
  -29.2316  -22.4054   20.2481 N   0  0  0  0  0  0
  -30.0197  -16.1667   20.3285 N   0  0  0  0  0  0
  -32.1296  -20.6797   20.3142 F   0  0  0  0  0  0
  -31.4603  -12.6423   19.1851 H   0  0  0  0  0  0
  -30.3333  -11.6446   20.0617 H   0  0  0  0  0  0
  -29.6053  -11.4845   17.7878 H   0  0  0  0  0  0
  -29.8840  -13.1758   17.4590 H   0  0  0  0  0  0
  -27.3789  -12.0879   17.9804 H   0  0  0  0  0  0
  -27.7745  -13.7779   18.1110 H   0  0  0  0  0  0
  -28.0029  -11.7540   20.1671 H   0  0  0  0  0  0
  -28.9587  -12.6448   21.7849 H   0  0  0  0  0  0
  -28.3192  -14.2194   21.5717 H   0  0  0  0  0  0
  -25.2404   -9.5628   22.4723 H   0  0  0  0  0  0
  -23.9945   -7.4357   22.7230 H   0  0  0  0  0  0
  -21.0431   -8.8488   19.9117 H   0  0  0  0  0  0
  -22.2998  -10.9604   19.6457 H   0  0  0  0  0  0
  -21.1915   -7.6060   23.9661 H   0  0  0  0  0  0
  -21.1520   -6.0502   25.9075 H   0  0  0  0  0  0
  -22.0613   -2.7508   23.2979 H   0  0  0  0  0  0
  -22.3752  -12.0165   22.4874 H   0  0  0  0  0  0
  -21.1132  -13.1885   22.2490 H   0  0  0  0  0  0
  -24.7107  -15.7584   20.3246 H   0  0  0  0  0  0
  -26.3343  -15.5005   19.9402 H   0  0  0  0  0  0
  -26.7213  -32.5375   23.1034 H   0  0  0  0  0  0
  -25.0265  -33.9666   25.0478 H   0  0  0  0  0  0
  -22.7233  -31.2950   21.3896 H   0  0  0  0  0  0
  -23.3763  -35.9580   23.3316 H   0  0  0  0  0  0
  -24.3587  -36.8840   22.2035 H   0  0  0  0  0  0
  -23.7267  -37.6469   23.6620 H   0  0  0  0  0  0
  -26.0978  -31.5197   20.5977 H   0  0  0  0  0  0
  -26.8530  -30.8192   22.0054 H   0  0  0  0  0  0
  -28.1192  -28.9300   21.1952 H   0  0  0  0  0  0
  -25.9691  -25.8673   19.0297 H   0  0  0  0  0  0
  -23.9795  -27.2774   19.0197 H   0  0  0  0  0  0
  -23.7845  -30.5729   19.3972 H   0  0  0  0  0  0
  -22.7651  -29.2377   19.8451 H   0  0  0  0  0  0
  -25.1316  -36.1868   25.0818 H   0  0  0  0  0  0
  -21.0005  -28.3280   24.1375 H   0  0  0  0  0  0
  -20.5649  -26.2314   23.3613 H   0  0  0  0  0  0
  -21.6646  -26.7407   22.1218 H   0  0  0  0  0  0
  -19.6912  -25.6307   21.1215 H   0  0  0  0  0  0
  -19.6684  -27.3195   20.6728 H   0  0  0  0  0  0
  -17.4218  -26.6687   21.4027 H   0  0  0  0  0  0
  -18.0354  -26.0040   22.8980 H   0  0  0  0  0  0
  -19.7949  -30.7278   24.2256 H   0  0  0  0  0  0
  -17.5017  -31.6252   24.5164 H   0  0  0  0  0  0
  -15.5360  -30.2967   23.7643 H   0  0  0  0  0  0
  -15.8706  -28.0814   22.7049 H   0  0  0  0  0  0
  -24.5996  -30.6970   25.7759 H   0  0  0  0  0  0
  -24.8950  -32.2842   26.4793 H   0  0  0  0  0  0
  -25.8166  -30.8919   27.0198 H   0  0  0  0  0  0
  -26.2917  -29.6781   24.1049 H   0  0  0  0  0  0
  -27.3878  -29.7100   25.4627 H   0  0  0  0  0  0
  -27.8854  -30.4183   23.9427 H   0  0  0  0  0  0
  -27.2727  -33.3515   26.2088 H   0  0  0  0  0  0
  -28.3963  -32.6796   25.0354 H   0  0  0  0  0  0
  -28.0723  -31.8317   26.5401 H   0  0  0  0  0  0
  -28.2627  -38.0066   24.7453 H   0  0  0  0  0  0
  -28.1024  -36.2585   24.6388 H   0  0  0  0  0  0
  -27.2264  -37.1554   25.8883 H   0  0  0  0  0  0
  -20.9398  -29.8769   21.6854 H   0  0  0  0  0  0
  -26.0162  -38.2816   24.1401 H   0  0  0  0  0  0
  -28.0174  -18.2197   21.0164 H   0  0  0  0  0  0
  -27.5909  -18.3125   19.3208 H   0  0  0  0  0  0
  -28.5235  -16.1250   18.8639 H   0  0  0  0  0  0
  -27.9131  -15.9276   20.5004 H   0  0  0  0  0  0
  -30.8259  -17.8056   21.4408 H   0  0  0  0  0  0
  -31.6265  -17.5611   19.8962 H   0  0  0  0  0  0
  -29.8646  -18.6141   18.6741 H   0  0  0  0  0  0
  -27.3794  -23.3711   20.6689 H   0  0  0  0  0  0
  -28.7308  -23.9650   21.5725 H   0  0  0  0  0  0
  -27.8555  -24.8693   18.7842 H   0  0  0  0  0  0
  -29.5006  -25.0014   19.2260 H   0  0  0  0  0  0
  1 25  1  0  0  0
  1 30  2  0  0  0
  1 82  1  0  0  0
  2  3  1  0  0  0
  2 25  1  0  0  0
  2 84  1  0  0  0
  2 85  1  0  0  0
  3  4  1  0  0  0
  3 86  1  0  0  0
  3 87  1  0  0  0
  4  5  1  0  0  0
  4 88  1  0  0  0
  4 89  1  0  0  0
  5  6  1  0  0  0
  5 26  1  0  0  0
  5 90  1  0  0  0
  6 25  1  0  0  0
  6 91  1  0  0  0
  6 92  1  0  0  0
  7  8  2  0  0  0
  7 26  1  0  0  0
  7 29  1  0  0  0
  8  9  1  0  0  0
  8 22  1  0  0  0
  9 10  1  0  0  0
  9 27  2  0  0  0
 10 11  2  0  0  0
 10 15  1  0  0  0
 11 12  1  0  0  0
 11 93  1  0  0  0
 12 13  2  0  0  0
 12 94  1  0  0  0
 13 14  1  0  0  0
 13 31  1  0  0  0
 14 15  2  0  0  0
 14 95  1  0  0  0
 15 96  1  0  0  0
 16 17  2  0  0  0
 16 21  1  0  0  0
 16 31  1  0  0  0
 17 18  1  0  0  0
 17 97  1  0  0  0
 18 19  2  0  0  0
 18 98  1  0  0  0
 19 20  1  0  0  0
 19 24  1  0  0  0
 20 21  2  0  0  0
 20 99  1  0  0  0
 21 23  1  0  0  0
 22 28  1  0  0  0
 22 32  2  0  0  0
 26 27  1  0  0  0
 28100  1  0  0  0
 28101  1  0  0  0
 29102  1  0  0  0
 29103  1  0  0  0
 33 34  1  0  0  0
 33 66  1  0  0  0
 33 70  2  0  0  0
 34 36  1  0  0  0
 34 59  1  0  0  0
 34104  1  0  0  0
 35 44  2  0  0  0
 35 45  1  0  0  0
 35 68  1  0  0  0
 36 56  1  0  0  0
 36105  1  0  0  0
 37 39  1  0  0  0
 37 47  1  0  0  0
 37 66  1  0  0  0
 37106  1  0  0  0
 38 43  2  0  0  0
 38 46  1  0  0  0
 38 47  1  0  0  0
 39 64  1  0  0  0
 39 67  2  0  0  0
 40 52  1  0  0  0
 40 53  2  0  0  0
 40 58  1  0  0  0
 41107  1  0  0  0
 41108  1  0  0  0
 41109  1  0  0  0
 41 48  1  0  0  0
 42 43  1  0  0  0
 42 66  1  0  0  0
 42110  1  0  0  0
 42111  1  0  0  0
 43 44  1  0  0  0
 44112  1  0  0  0
 45 46  2  0  0  0
 45113  1  0  0  0
 46114  1  0  0  0
 47115  1  0  0  0
 47116  1  0  0  0
 48 56  1  0  0  0
 48 65  1  0  0  0
 48117  1  0  0  0
 49 50  1  0  0  0
 49 53  1  0  0  0
 49 64  1  0  0  0
 49118  1  0  0  0
 50 51  1  0  0  0
 50119  1  0  0  0
 50120  1  0  0  0
 51 52  1  0  0  0
 51121  1  0  0  0
 51122  1  0  0  0
 52123  1  0  0  0
 52124  1  0  0  0
 53 54  1  0  0  0
 54 55  2  0  0  0
 54125  1  0  0  0
 55 57  1  0  0  0
 55126  1  0  0  0
 56 69  2  0  0  0
 57 58  2  0  0  0
 57127  1  0  0  0
 58128  1  0  0  0
 59 60  1  0  0  0
 59 61  1  0  0  0
 59 62  1  0  0  0
 60129  1  0  0  0
 60130  1  0  0  0
 60131  1  0  0  0
 61132  1  0  0  0
 61133  1  0  0  0
 61134  1  0  0  0
 62135  1  0  0  0
 62136  1  0  0  0
 62137  1  0  0  0
 63 65  1  0  0  0
 63138  1  0  0  0
 63139  1  0  0  0
 63140  1  0  0  0
 64141  1  0  0  0
 65142  1  0  0  0
 68 78  1  0  0  0
 71 72  1  0  0  0
 71 79  2  0  0  0
 71 76  1  0  0  0
 72 80  2  0  0  0
 72 83  1  0  0  0
 73 74  1  0  0  0
 73 76  1  0  0  0
 73143  1  0  0  0
 73144  1  0  0  0
 74 82  1  0  0  0
 74145  1  0  0  0
 74146  1  0  0  0
 75 76  1  0  0  0
 75 82  1  0  0  0
 75147  1  0  0  0
 75148  1  0  0  0
 76149  1  0  0  0
 77 78  1  0  0  0
 77 81  1  0  0  0
 77150  1  0  0  0
 77151  1  0  0  0
 78152  1  0  0  0
 78153  1  0  0  0
 79 81  1  0  0  0
 80 81  1  0  0  0
M  ISO  4   1 100  68 101  78 101  82 100
M  END
> <chiral flag>
0

> <version>
0

> <s_m_source_file>
/data/baiqing/PycharmProjects/Reinvent-master-3.2/result/LINK_invent/BTK/process_docking_weight1_custom_sum_contain_oxygen_bond_distance_aromatic_linkinvent_7_9_3/rearranged_h_0199.sdf

> <i_m_source_file_index>
69

> <r_mmod_Potential_Energy-OPLS-2005>
597.888427734375

> <r_mmod_Stretch_Energy-OPLS-2005>
135.791290283203

> <r_mmod_Bend_Energy-OPLS-2005>
289.192810058594

> <r_mmod_Torsional_Energy-OPLS-2005>
346.316650390625

> <r_mmod_Improper_Torsional_Energy-OPLS-2005>
8.07125377655029

> <r_mmod_Van_der_Waal_Energy-OPLS-2005>
120.908386230469

> <r_mmod_Electrostatic_Energy-OPLS-2005>
-279.239288330078

> <r_mmod_Solvation_Energy-OPLS-2005>
-211.025985717773

> <b_mmod_Minimization_Converged-OPLS-2005>
0

> <r_mmod_RMS_Derivative-OPLS-2005>
5.17178726196289

$$$$
69
                    3D
 Structure written by MMmdl.
168177  0  0  1  0            999 V2000
  -30.7052  -14.5052   20.5058 C   0  0  0  0  0  0
  -30.4130  -12.3046   19.4457 C   0  0  0  0  0  0
  -29.4950  -12.4414   18.2137 C   0  0  0  0  0  0
  -28.0125  -12.3379   18.6215 C   0  0  0  0  0  0
  -27.6497  -13.2122   19.8537 C   0  0  2  0  0  0
  -28.6916  -13.0666   20.9833 C   0  0  0  0  0  0
  -25.2583  -13.8175   20.5666 C   0  0  0  0  0  0
  -24.1816  -13.0449   20.9168 C   0  0  0  0  0  0
  -24.6366  -11.6920   20.8733 C   0  0  0  0  0  0
  -23.9025  -10.4300   21.0417 C   0  0  0  0  0  0
  -24.3602   -9.4228   21.9194 C   0  0  0  0  0  0
  -23.6297   -8.2240   22.0755 C   0  0  0  0  0  0
  -22.4278   -8.0273   21.3549 C   0  0  0  0  0  0
  -21.9911   -9.0220   20.4640 C   0  0  0  0  0  0
  -22.7210  -10.2116   20.3057 C   0  0  0  0  0  0
  -21.6856   -6.0744   22.5269 C   0  0  0  0  0  0
  -21.4002   -6.5647   23.8203 C   0  0  0  0  0  0
  -21.3663   -5.6801   24.9175 C   0  0  0  0  0  0
  -21.6069   -4.3062   24.7215 C   0  0  0  0  0  0
  -21.8821   -3.8153   23.4325 C   0  0  0  0  0  0
  -21.9190   -4.6974   22.3390 C   0  0  0  0  0  0
  -22.7859  -13.5262   21.1835 C   0  0  0  0  0  0
  -22.1659   -4.2172   21.0959 F   0  0  0  0  0  0
  -21.5653   -3.4541   25.7722 F   0  0  0  0  0  0
  -30.0118  -13.3399   20.4090 N   0  0  0  0  0  0
  -26.2969  -12.9332   20.3273 N   0  0  0  0  0  0
  -25.9295  -11.6499   20.5742 N   0  0  0  0  0  0
  -22.0508  -12.8215   22.0383 N   0  0  0  0  0  0
  -25.4361  -15.1886   20.4116 N   0  0  0  0  0  0
  -31.9148  -14.5598   20.2719 O   0  0  0  0  0  0
  -21.6642   -6.8883   21.4227 O   0  0  0  0  0  0
  -22.3546  -14.5562   20.6706 O   0  0  0  0  0  0
  -24.6129  -31.8694   23.2086 C   0  0  0  0  0  0
  -25.9029  -32.4819   23.8381 C   0  0  1  0  0  0
  -27.2298  -27.4329   20.1085 C   0  0  0  0  0  0
  -25.5898  -33.8613   24.2311 N   0  0  0  0  0  0
  -23.4005  -30.4896   21.5506 C   0  0  2  0  0  0
  -24.8537  -28.9582   20.1089 C   0  0  0  0  0  0
  -22.7396  -29.4653   22.5008 C   0  0  0  0  0  0
  -18.0276  -28.1351   22.8491 C   0  0  0  0  0  0
  -24.1480  -36.7305   23.2643 C   0  0  0  0  0  0
  -25.9294  -30.8324   21.3667 C   0  0  0  0  0  0
  -26.0110  -29.4673   20.7134 C   0  0  0  0  0  0
  -27.2063  -28.7083   20.7194 C   0  0  0  0  0  0
  -26.0681  -26.9428   19.4833 C   0  0  0  0  0  0
  -24.8767  -27.6959   19.4881 C   0  0  0  0  0  0
  -23.6093  -29.8202   20.1646 C   0  0  0  0  0  0
  -25.4102  -36.3106   24.0337 C   0  0  1  0  0  0
  -20.5866  -28.3652   23.1324 C   0  0  2  0  0  0
  -20.6765  -26.9392   22.5416 C   0  0  0  0  0  0
  -19.5758  -26.6358   21.5208 C   0  0  0  0  0  0
  -18.1928  -26.7890   22.1617 C   0  0  0  0  0  0
  -19.1525  -28.8820   23.2894 C   0  0  0  0  0  0
  -18.9458  -30.1419   23.8918 C   0  0  0  0  0  0
  -17.6466  -30.6576   24.0555 C   0  0  0  0  0  0
  -25.9038  -34.9465   23.5123 C   0  0  0  0  0  0
  -16.5358  -29.9077   23.6300 C   0  0  0  0  0  0
  -16.7271  -28.6478   23.0352 C   0  0  0  0  0  0
  -26.4465  -31.6599   25.0695 C   0  0  0  0  0  0
  -25.3718  -31.3675   26.1433 C   0  0  0  0  0  0
  -27.0326  -30.3051   24.6068 C   0  0  0  0  0  0
  -27.6045  -32.4318   25.7463 C   0  0  0  0  0  0
  -27.5589  -37.1790   24.8455 C   0  0  0  0  0  0
  -21.4138  -29.3021   22.3729 N   0  0  0  0  0  0
  -26.4298  -37.3790   23.9412 N   0  0  0  0  0  0
  -24.6655  -31.0774   22.1008 N   0  0  0  0  0  0
  -23.4156  -28.8206   23.3065 O   0  0  0  0  0  0
  -28.3435  -26.6263   20.1553 O   0  0  0  0  0  0
  -26.5613  -34.8948   22.4690 O   0  0  0  0  0  0
  -23.5311  -32.1488   23.7469 O   0  0  0  0  0  0
  -30.8785  -17.2798   18.8852 C   0  0  0  0  0  0
  -31.3767  -17.5812   20.2963 C   0  0  0  0  0  0
  -29.8257  -16.1706   19.0711 C   0  0  0  0  0  0
  -28.0607  -23.2738   20.1541 C   0  0  0  0  0  0
  -28.7901  -23.2178   22.0684 C   0  0  0  0  0  0
  -28.8644  -24.3049   20.9707 C   0  0  0  0  0  0
  -30.3491  -16.8867   21.2024 C   0  0  1  0  0  0
  -27.4645  -20.3592   19.9449 C   0  0  0  0  0  0
  -28.3143  -25.7170   21.2728 C   0  0  0  0  0  0
  -29.1170  -17.8165   21.5215 C   0  0  0  0  0  0
  -28.3399  -20.0986   22.3757 C   0  0  0  0  0  0
  -27.8275  -21.0755   21.2590 C   0  0  1  0  0  0
  -29.9625  -15.6547   20.4505 N   0  0  0  0  0  0
  -28.7016  -22.2376   20.9833 N   0  0  0  0  0  0
  -29.4676  -19.1852   22.0242 N   0  3  0  0  0  0
  -31.4587  -12.3907   19.1467 H   0  0  0  0  0  0
  -30.3041  -11.3176   19.8952 H   0  0  0  0  0  0
  -29.7372  -11.6659   17.4860 H   0  0  0  0  0  0
  -29.6703  -13.3838   17.7005 H   0  0  0  0  0  0
  -27.8113  -11.2890   18.8393 H   0  0  0  0  0  0
  -27.3754  -12.5947   17.7757 H   0  0  0  0  0  0
  -27.6706  -14.2451   19.5109 H   0  0  0  0  0  0
  -28.6699  -12.0560   21.3939 H   0  0  0  0  0  0
  -28.4674  -13.7424   21.8102 H   0  0  0  0  0  0
  -25.2750   -9.5729   22.4764 H   0  0  0  0  0  0
  -24.0039   -7.4646   22.7465 H   0  0  0  0  0  0
  -21.0862   -8.8717   19.8921 H   0  0  0  0  0  0
  -22.3668  -10.9657   19.6155 H   0  0  0  0  0  0
  -21.1966   -7.6149   23.9718 H   0  0  0  0  0  0
  -21.1506   -6.0527   25.9085 H   0  0  0  0  0  0
  -22.0593   -2.7613   23.2811 H   0  0  0  0  0  0
  -22.4144  -11.9869   22.4727 H   0  0  0  0  0  0
  -21.1124  -13.1233   22.2612 H   0  0  0  0  0  0
  -24.6752  -15.8521   20.5148 H   0  0  0  0  0  0
  -26.2975  -15.6120   20.0904 H   0  0  0  0  0  0
  -26.7108  -32.5530   23.1162 H   0  0  0  0  0  0
  -25.0024  -33.9783   25.0429 H   0  0  0  0  0  0
  -22.6885  -31.3068   21.4072 H   0  0  0  0  0  0
  -23.3769  -35.9611   23.3262 H   0  0  0  0  0  0
  -24.3581  -36.8963   22.2073 H   0  0  0  0  0  0
  -23.7217  -37.6481   23.6693 H   0  0  0  0  0  0
  -26.0421  -31.5970   20.5973 H   0  0  0  0  0  0
  -26.8125  -30.8844   21.9910 H   0  0  0  0  0  0
  -28.0930  -29.0846   21.2143 H   0  0  0  0  0  0
  -26.0846  -25.9699   19.0128 H   0  0  0  0  0  0
  -23.9899  -27.2961   19.0163 H   0  0  0  0  0  0
  -23.7104  -30.5954   19.4037 H   0  0  0  0  0  0
  -22.7316  -29.2378   19.8766 H   0  0  0  0  0  0
  -25.1276  -36.1977   25.0836 H   0  0  0  0  0  0
  -20.9958  -28.3267   24.1459 H   0  0  0  0  0  0
  -20.5699  -26.2285   23.3615 H   0  0  0  0  0  0
  -21.6638  -26.7469   22.1219 H   0  0  0  0  0  0
  -19.6938  -25.6265   21.1266 H   0  0  0  0  0  0
  -19.6699  -27.3153   20.6718 H   0  0  0  0  0  0
  -17.4190  -26.6641   21.4015 H   0  0  0  0  0  0
  -18.0326  -26.0027   22.9016 H   0  0  0  0  0  0
  -19.7940  -30.7177   24.2370 H   0  0  0  0  0  0
  -17.5035  -31.6280   24.5122 H   0  0  0  0  0  0
  -15.5361  -30.3000   23.7595 H   0  0  0  0  0  0
  -15.8670  -28.0799   22.7091 H   0  0  0  0  0  0
  -24.5887  -30.7054   25.7720 H   0  0  0  0  0  0
  -24.8921  -32.2816   26.4951 H   0  0  0  0  0  0
  -25.8059  -30.8773   27.0158 H   0  0  0  0  0  0
  -26.2873  -29.6775   24.1174 H   0  0  0  0  0  0
  -27.4156  -29.7340   25.4534 H   0  0  0  0  0  0
  -27.8678  -30.4366   23.9182 H   0  0  0  0  0  0
  -27.2681  -33.3623   26.2071 H   0  0  0  0  0  0
  -28.3866  -32.6879   25.0285 H   0  0  0  0  0  0
  -28.0710  -31.8402   26.5363 H   0  0  0  0  0  0
  -28.2568  -38.0131   24.7614 H   0  0  0  0  0  0
  -28.1134  -36.2673   24.6162 H   0  0  0  0  0  0
  -27.2303  -37.1316   25.8854 H   0  0  0  0  0  0
  -20.9299  -29.8760   21.6974 H   0  0  0  0  0  0
  -26.0185  -38.2856   24.1456 H   0  0  0  0  0  0
  -31.7100  -16.9331   18.2658 H   0  0  0  0  0  0
  -30.4512  -18.1600   18.3989 H   0  0  0  0  0  0
  -31.5177  -18.6445   20.4887 H   0  0  0  0  0  0
  -32.3517  -17.1105   20.4491 H   0  0  0  0  0  0
  -29.9641  -15.4100   18.3045 H   0  0  0  0  0  0
  -28.8145  -16.5510   18.9205 H   0  0  0  0  0  0
  -28.3270  -23.1775   19.0997 H   0  0  0  0  0  0
  -26.9833  -23.3192   20.3260 H   0  0  0  0  0  0
  -27.8702  -23.2486   22.6603 H   0  0  0  0  0  0
  -29.6889  -23.0876   22.6685 H   0  0  0  0  0  0
  -29.8874  -24.3680   20.5891 H   0  0  0  0  0  0
  -30.8271  -16.6055   22.1460 H   0  0  0  0  0  0
  -26.8861  -19.4573   20.1427 H   0  0  0  0  0  0
  -28.3469  -20.0821   19.3668 H   0  0  0  0  0  0
  -26.8366  -20.9803   19.3069 H   0  0  0  0  0  0
  -28.9121  -26.1778   22.0618 H   0  0  0  0  0  0
  -27.3075  -25.6284   21.6920 H   0  0  0  0  0  0
  -28.4863  -17.3194   22.2614 H   0  0  0  0  0  0
  -28.4995  -17.9353   20.6350 H   0  0  0  0  0  0
  -27.5045  -19.4944   22.7336 H   0  0  0  0  0  0
  -28.6505  -20.6877   23.2372 H   0  0  0  0  0  0
  -26.8906  -21.4793   21.6484 H   0  0  0  0  0  0
  -30.0658  -19.6692   21.3747 H   0  0  0  0  0  0
  -29.9954  -19.0636   22.8740 H   0  0  0  0  0  0
  1 25  1  0  0  0
  1 30  2  0  0  0
  1 83  1  0  0  0
  2  3  1  0  0  0
  2 25  1  0  0  0
  2 86  1  0  0  0
  2 87  1  0  0  0
  3  4  1  0  0  0
  3 88  1  0  0  0
  3 89  1  0  0  0
  4  5  1  0  0  0
  4 90  1  0  0  0
  4 91  1  0  0  0
  5  6  1  0  0  0
  5 26  1  0  0  0
  5 92  1  0  0  0
  6 25  1  0  0  0
  6 93  1  0  0  0
  6 94  1  0  0  0
  7  8  2  0  0  0
  7 26  1  0  0  0
  7 29  1  0  0  0
  8  9  1  0  0  0
  8 22  1  0  0  0
  9 10  1  0  0  0
  9 27  2  0  0  0
 10 11  2  0  0  0
 10 15  1  0  0  0
 11 12  1  0  0  0
 11 95  1  0  0  0
 12 13  2  0  0  0
 12 96  1  0  0  0
 13 14  1  0  0  0
 13 31  1  0  0  0
 14 15  2  0  0  0
 14 97  1  0  0  0
 15 98  1  0  0  0
 16 17  2  0  0  0
 16 21  1  0  0  0
 16 31  1  0  0  0
 17 18  1  0  0  0
 17 99  1  0  0  0
 18 19  2  0  0  0
 18100  1  0  0  0
 19 20  1  0  0  0
 19 24  1  0  0  0
 20 21  2  0  0  0
 20101  1  0  0  0
 21 23  1  0  0  0
 22 28  1  0  0  0
 22 32  2  0  0  0
 26 27  1  0  0  0
 28102  1  0  0  0
 28103  1  0  0  0
 29104  1  0  0  0
 29105  1  0  0  0
 33 34  1  0  0  0
 33 66  1  0  0  0
 33 70  2  0  0  0
 34 36  1  0  0  0
 34 59  1  0  0  0
 34106  1  0  0  0
 35 44  2  0  0  0
 35 45  1  0  0  0
 35 68  1  0  0  0
 36 56  1  0  0  0
 36107  1  0  0  0
 37 39  1  0  0  0
 37 47  1  0  0  0
 37 66  1  0  0  0
 37108  1  0  0  0
 38 43  2  0  0  0
 38 46  1  0  0  0
 38 47  1  0  0  0
 39 64  1  0  0  0
 39 67  2  0  0  0
 40 52  1  0  0  0
 40 53  2  0  0  0
 40 58  1  0  0  0
 41109  1  0  0  0
 41110  1  0  0  0
 41111  1  0  0  0
 41 48  1  0  0  0
 42 43  1  0  0  0
 42 66  1  0  0  0
 42112  1  0  0  0
 42113  1  0  0  0
 43 44  1  0  0  0
 44114  1  0  0  0
 45 46  2  0  0  0
 45115  1  0  0  0
 46116  1  0  0  0
 47117  1  0  0  0
 47118  1  0  0  0
 48 56  1  0  0  0
 48 65  1  0  0  0
 48119  1  0  0  0
 49 50  1  0  0  0
 49 53  1  0  0  0
 49 64  1  0  0  0
 49120  1  0  0  0
 50 51  1  0  0  0
 50121  1  0  0  0
 50122  1  0  0  0
 51 52  1  0  0  0
 51123  1  0  0  0
 51124  1  0  0  0
 52125  1  0  0  0
 52126  1  0  0  0
 53 54  1  0  0  0
 54 55  2  0  0  0
 54127  1  0  0  0
 55 57  1  0  0  0
 55128  1  0  0  0
 56 69  2  0  0  0
 57 58  2  0  0  0
 57129  1  0  0  0
 58130  1  0  0  0
 59 60  1  0  0  0
 59 61  1  0  0  0
 59 62  1  0  0  0
 60131  1  0  0  0
 60132  1  0  0  0
 60133  1  0  0  0
 61134  1  0  0  0
 61135  1  0  0  0
 61136  1  0  0  0
 62137  1  0  0  0
 62138  1  0  0  0
 62139  1  0  0  0
 63 65  1  0  0  0
 63140  1  0  0  0
 63141  1  0  0  0
 63142  1  0  0  0
 64143  1  0  0  0
 65144  1  0  0  0
 68 79  1  0  0  0
 71 72  1  0  0  0
 71 73  1  0  0  0
 71145  1  0  0  0
 71146  1  0  0  0
 72 77  1  0  0  0
 72147  1  0  0  0
 72148  1  0  0  0
 73 83  1  0  0  0
 73149  1  0  0  0
 73150  1  0  0  0
 74 76  1  0  0  0
 74 84  1  0  0  0
 74151  1  0  0  0
 74152  1  0  0  0
 75 76  1  0  0  0
 75 84  1  0  0  0
 75153  1  0  0  0
 75154  1  0  0  0
 76 79  1  0  0  0
 76155  1  0  0  0
 77 80  1  0  0  0
 77 83  1  0  0  0
 77156  1  0  0  0
 78157  1  0  0  0
 78158  1  0  0  0
 78159  1  0  0  0
 78 82  1  0  0  0
 79160  1  0  0  0
 79161  1  0  0  0
 80 85  1  0  0  0
 80162  1  0  0  0
 80163  1  0  0  0
 81 82  1  0  0  0
 81 85  1  0  0  0
 81164  1  0  0  0
 81165  1  0  0  0
 82 84  1  0  0  0
 82166  1  0  0  0
 85167  1  0  0  0
 85168  1  0  0  0
M  CHG  1  85   1
M  ISO  4   1 100  68 101  79 101  83 100
M  END
> <chiral flag>
0

> <version>
0

> <s_m_source_file>
/data/baiqing/PycharmProjects/Reinvent-master-3.2/result/LINK_invent/BTK/process_docking_weight1_custom_sum_contain_oxygen_bond_distance_aromatic_linkinvent_7_9_3/rearranged_h_0199.sdf

> <i_m_source_file_index>
70

> <r_mmod_Potential_Energy-OPLS-2005>
149.933334350586

> <r_mmod_Stretch_Energy-OPLS-2005>
47.7827453613281

> <r_mmod_Bend_Energy-OPLS-2005>
167.007247924805

> <r_mmod_Torsional_Energy-OPLS-2005>
417.090545654297

> <r_mmod_Improper_Torsional_Energy-OPLS-2005>
17.7154197692871

> <r_mmod_Van_der_Waal_Energy-OPLS-2005>
132.764221191406

> <r_mmod_Electrostatic_Energy-OPLS-2005>
-213.223358154297

> <r_mmod_Solvation_Energy-OPLS-2005>
-447.736267089844

> <b_mmod_Minimization_Converged-OPLS-2005>
0

> <r_mmod_RMS_Derivative-OPLS-2005>
4.26607131958008

$$$$
70
                    3D
 Structure written by MMmdl.
159169  0  0  1  0            999 V2000
  -30.4840  -15.1519   20.3507 C   0  0  0  0  0  0
  -30.4332  -12.7224   19.5058 C   0  0  0  0  0  0
  -29.5270  -12.5533   18.2640 C   0  0  0  0  0  0
  -28.0674  -12.3114   18.6901 C   0  0  0  0  0  0
  -27.6159  -13.2730   19.8220 C   0  0  2  0  0  0
  -28.6569  -13.4082   20.9518 C   0  0  0  0  0  0
  -25.2414  -13.8265   20.5746 C   0  0  0  0  0  0
  -24.1760  -13.0453   20.9237 C   0  0  0  0  0  0
  -24.6421  -11.6953   20.8757 C   0  0  0  0  0  0
  -23.9106  -10.4321   21.0421 C   0  0  0  0  0  0
  -24.3653   -9.4220   21.9186 C   0  0  0  0  0  0
  -23.6323   -8.2248   22.0752 C   0  0  0  0  0  0
  -22.4304   -8.0292   21.3542 C   0  0  0  0  0  0
  -21.9955   -9.0280   20.4657 C   0  0  0  0  0  0
  -22.7281  -10.2155   20.3070 C   0  0  0  0  0  0
  -21.6850   -6.0746   22.5277 C   0  0  0  0  0  0
  -21.4023   -6.5650   23.8211 C   0  0  0  0  0  0
  -21.3667   -5.6792   24.9168 C   0  0  0  0  0  0
  -21.6047   -4.3048   24.7219 C   0  0  0  0  0  0
  -21.8818   -3.8143   23.4337 C   0  0  0  0  0  0
  -21.9188   -4.6970   22.3397 C   0  0  0  0  0  0
  -22.7774  -13.5201   21.1884 C   0  0  0  0  0  0
  -22.1657   -4.2157   21.0974 F   0  0  0  0  0  0
  -21.5640   -3.4534   25.7731 F   0  0  0  0  0  0
  -29.8982  -13.8664   20.3166 N   0  0  0  0  0  0
  -26.2850  -12.9538   20.3231 N   0  0  0  0  0  0
  -25.9352  -11.6645   20.5723 N   0  0  0  0  0  0
  -22.0413  -12.8201   22.0443 N   0  0  0  0  0  0
  -25.4063  -15.1997   20.4249 N   0  0  0  0  0  0
  -31.7063  -15.1484   20.1506 O   0  0  0  0  0  0
  -21.6649   -6.8893   21.4237 O   0  0  0  0  0  0
  -22.3468  -14.5495   20.6697 O   0  0  0  0  0  0
  -24.6579  -31.8309   23.1765 C   0  0  0  0  0  0
  -25.9293  -32.4622   23.8216 C   0  0  1  0  0  0
  -27.2149  -26.9974   20.1470 C   0  0  0  0  0  0
  -25.5985  -33.8437   24.2117 N   0  0  0  0  0  0
  -23.4690  -30.4478   21.5251 C   0  0  2  0  0  0
  -24.9198  -28.8525   20.1059 C   0  0  0  0  0  0
  -22.7645  -29.4473   22.4779 C   0  0  0  0  0  0
  -18.0320  -28.1398   22.8471 C   0  0  0  0  0  0
  -24.1499  -36.7234   23.2638 C   0  0  0  0  0  0
  -26.0364  -30.6553   21.3998 C   0  0  0  0  0  0
  -26.1024  -29.2530   20.7402 C   0  0  0  0  0  0
  -27.2453  -28.3442   20.7442 C   0  0  0  0  0  0
  -26.0076  -26.7457   19.4552 C   0  0  0  0  0  0
  -24.8943  -27.6165   19.4464 C   0  0  0  0  0  0
  -23.7051  -29.7739   20.1475 C   0  0  0  0  0  0
  -25.4137  -36.2988   24.0292 C   0  0  1  0  0  0
  -20.5946  -28.3745   23.1191 C   0  0  2  0  0  0
  -20.6797  -26.9430   22.5387 C   0  0  0  0  0  0
  -19.5763  -26.6371   21.5205 C   0  0  0  0  0  0
  -18.1954  -26.7929   22.1629 C   0  0  0  0  0  0
  -19.1581  -28.8888   23.2821 C   0  0  0  0  0  0
  -18.9488  -30.1487   23.8841 C   0  0  0  0  0  0
  -17.6478  -30.6594   24.0551 C   0  0  0  0  0  0
  -25.9094  -34.9366   23.5015 C   0  0  0  0  0  0
  -16.5373  -29.9080   23.6337 C   0  0  0  0  0  0
  -16.7302  -28.6503   23.0353 C   0  0  0  0  0  0
  -26.4555  -31.6542   25.0719 C   0  0  0  0  0  0
  -25.3696  -31.3815   26.1393 C   0  0  0  0  0  0
  -27.0419  -30.2894   24.6420 C   0  0  0  0  0  0
  -27.6066  -32.4320   25.7522 C   0  0  0  0  0  0
  -27.5574  -37.1770   24.8457 C   0  0  0  0  0  0
  -21.4315  -29.3051   22.3545 N   0  0  0  0  0  0
  -26.4282  -37.3715   23.9403 N   0  0  0  0  0  0
  -24.7428  -31.0033   22.0873 N   0  0  0  0  0  0
  -23.4224  -28.8019   23.2980 O   0  0  0  0  0  0
  -28.2053  -25.9027   20.2326 O   0  0  0  0  0  0
  -26.5689  -34.8884   22.4604 O   0  0  0  0  0  0
  -23.5664  -32.1247   23.6887 O   0  0  0  0  0  0
  -29.9174  -21.1970   21.2926 C   0  0  0  0  0  0
  -29.6061  -22.6186   21.2210 C   0  0  0  0  0  0
  -29.1920  -20.4178   20.4128 C   0  0  0  0  0  0
  -28.6599  -22.9189   20.2669 C   0  0  0  0  0  0
  -26.1616  -21.8004   18.7346 C   0  0  0  0  0  0
  -26.4346  -20.3234   18.8473 C   0  0  0  0  0  0
  -29.9653  -17.6239   19.3572 C   0  0  0  0  0  0
  -29.6500  -17.5630   21.3121 C   0  0  0  0  0  0
  -29.1717  -18.6990   20.2631 C   0  0  0  0  0  0
  -27.5811  -21.2835   18.5963 C   0  0  0  0  0  0
  -28.3308  -21.3335   17.2787 C   0  0  0  0  0  0
  -27.8688  -24.3732   19.8350 C   0  0  0  0  0  0
  -28.4402  -21.5281   19.7528 N   0  0  0  0  0  0
  -29.7306  -16.4124   20.2942 N   0  0  0  0  0  0
  -31.4623  -12.8929   19.1903 H   0  0  0  0  0  0
  -30.4562  -11.8060   20.0976 H   0  0  0  0  0  0
  -29.8845  -11.7289   17.6461 H   0  0  0  0  0  0
  -29.5886  -13.4466   17.6399 H   0  0  0  0  0  0
  -27.9959  -11.2791   19.0381 H   0  0  0  0  0  0
  -27.4023  -12.3918   17.8288 H   0  0  0  0  0  0
  -27.5445  -14.2548   19.3493 H   0  0  0  0  0  0
  -28.7943  -12.4707   21.4932 H   0  0  0  0  0  0
  -28.3247  -14.1480   21.6830 H   0  0  0  0  0  0
  -25.2802   -9.5686   22.4752 H   0  0  0  0  0  0
  -24.0022   -7.4652   22.7493 H   0  0  0  0  0  0
  -21.0863   -8.8819   19.8991 H   0  0  0  0  0  0
  -22.3743  -10.9697   19.6184 H   0  0  0  0  0  0
  -21.2024   -7.6163   23.9712 H   0  0  0  0  0  0
  -21.1491   -6.0529   25.9071 H   0  0  0  0  0  0
  -22.0589   -2.7610   23.2822 H   0  0  0  0  0  0
  -22.4030  -11.9899   22.4896 H   0  0  0  0  0  0
  -21.1035  -13.1255   22.2618 H   0  0  0  0  0  0
  -24.6417  -15.8528   20.5602 H   0  0  0  0  0  0
  -26.2704  -15.6476   20.1453 H   0  0  0  0  0  0
  -26.7364  -32.5163   23.0934 H   0  0  0  0  0  0
  -25.0106  -33.9526   25.0248 H   0  0  0  0  0  0
  -22.7775  -31.2777   21.3617 H   0  0  0  0  0  0
  -23.3750  -35.9574   23.3279 H   0  0  0  0  0  0
  -24.3574  -36.8900   22.2055 H   0  0  0  0  0  0
  -23.7254  -37.6419   23.6704 H   0  0  0  0  0  0
  -26.2112  -31.4008   20.6225 H   0  0  0  0  0  0
  -26.8992  -30.7102   22.0520 H   0  0  0  0  0  0
  -28.1390  -28.6406   21.2751 H   0  0  0  0  0  0
  -25.8771  -25.8116   18.9320 H   0  0  0  0  0  0
  -23.9976  -27.3104   18.9267 H   0  0  0  0  0  0
  -23.8558  -30.5475   19.3931 H   0  0  0  0  0  0
  -22.8154  -29.2282   19.8293 H   0  0  0  0  0  0
  -25.1321  -36.1803   25.0778 H   0  0  0  0  0  0
  -21.0040  -28.3361   24.1311 H   0  0  0  0  0  0
  -20.5697  -26.2362   23.3625 H   0  0  0  0  0  0
  -21.6662  -26.7419   22.1185 H   0  0  0  0  0  0
  -19.6929  -25.6268   21.1266 H   0  0  0  0  0  0
  -19.6701  -27.3164   20.6720 H   0  0  0  0  0  0
  -17.4211  -26.6654   21.4046 H   0  0  0  0  0  0
  -18.0378  -26.0094   22.9055 H   0  0  0  0  0  0
  -19.7962  -30.7325   24.2182 H   0  0  0  0  0  0
  -17.5026  -31.6261   24.5183 H   0  0  0  0  0  0
  -15.5370  -30.2958   23.7682 H   0  0  0  0  0  0
  -15.8704  -28.0802   22.7078 H   0  0  0  0  0  0
  -24.5815  -30.7245   25.7701 H   0  0  0  0  0  0
  -24.8970  -32.3046   26.4758 H   0  0  0  0  0  0
  -25.7913  -30.8983   27.0211 H   0  0  0  0  0  0
  -26.3061  -29.6578   24.1418 H   0  0  0  0  0  0
  -27.3950  -29.7247   25.5060 H   0  0  0  0  0  0
  -27.9023  -30.4058   23.9818 H   0  0  0  0  0  0
  -27.2654  -33.3665   26.1994 H   0  0  0  0  0  0
  -28.3952  -32.6802   25.0401 H   0  0  0  0  0  0
  -28.0658  -31.8504   26.5526 H   0  0  0  0  0  0
  -28.2560  -38.0095   24.7493 H   0  0  0  0  0  0
  -28.1092  -36.2601   24.6291 H   0  0  0  0  0  0
  -27.2279  -37.1436   25.8858 H   0  0  0  0  0  0
  -20.9545  -29.8787   21.6722 H   0  0  0  0  0  0
  -26.0132  -38.2777   24.1401 H   0  0  0  0  0  0
  -30.6241  -20.7673   21.9909 H   0  0  0  0  0  0
  -30.0482  -23.3769   21.8534 H   0  0  0  0  0  0
  -25.8443  -22.2912   19.6516 H   0  0  0  0  0  0
  -25.6650  -22.1482   17.8307 H   0  0  0  0  0  0
  -26.0954  -19.6994   18.0224 H   0  0  0  0  0  0
  -26.3112  -19.8896   19.8375 H   0  0  0  0  0  0
  -31.0208  -17.8745   19.2259 H   0  0  0  0  0  0
  -29.5045  -17.5019   18.3751 H   0  0  0  0  0  0
  -28.9130  -17.3985   22.0982 H   0  0  0  0  0  0
  -30.6140  -17.7948   21.7727 H   0  0  0  0  0  0
  -28.1208  -18.4770   20.0805 H   0  0  0  0  0  0
  -27.6425  -21.2406   16.4390 H   0  0  0  0  0  0
  -29.0524  -20.5179   17.2215 H   0  0  0  0  0  0
  -28.8678  -22.2791   17.1779 H   0  0  0  0  0  0
  -26.8444  -24.2373   20.1757 H   0  0  0  0  0  0
  -27.7982  -24.3769   18.7475 H   0  0  0  0  0  0
  1 25  1  0  0  0
  1 30  2  0  0  0
  1 84  1  0  0  0
  2  3  1  0  0  0
  2 25  1  0  0  0
  2 85  1  0  0  0
  2 86  1  0  0  0
  3  4  1  0  0  0
  3 87  1  0  0  0
  3 88  1  0  0  0
  4  5  1  0  0  0
  4 89  1  0  0  0
  4 90  1  0  0  0
  5  6  1  0  0  0
  5 26  1  0  0  0
  5 91  1  0  0  0
  6 25  1  0  0  0
  6 92  1  0  0  0
  6 93  1  0  0  0
  7  8  2  0  0  0
  7 26  1  0  0  0
  7 29  1  0  0  0
  8  9  1  0  0  0
  8 22  1  0  0  0
  9 10  1  0  0  0
  9 27  2  0  0  0
 10 11  2  0  0  0
 10 15  1  0  0  0
 11 12  1  0  0  0
 11 94  1  0  0  0
 12 13  2  0  0  0
 12 95  1  0  0  0
 13 14  1  0  0  0
 13 31  1  0  0  0
 14 15  2  0  0  0
 14 96  1  0  0  0
 15 97  1  0  0  0
 16 17  2  0  0  0
 16 21  1  0  0  0
 16 31  1  0  0  0
 17 18  1  0  0  0
 17 98  1  0  0  0
 18 19  2  0  0  0
 18 99  1  0  0  0
 19 20  1  0  0  0
 19 24  1  0  0  0
 20 21  2  0  0  0
 20100  1  0  0  0
 21 23  1  0  0  0
 22 28  1  0  0  0
 22 32  2  0  0  0
 26 27  1  0  0  0
 28101  1  0  0  0
 28102  1  0  0  0
 29103  1  0  0  0
 29104  1  0  0  0
 33 34  1  0  0  0
 33 66  1  0  0  0
 33 70  2  0  0  0
 34 36  1  0  0  0
 34 59  1  0  0  0
 34105  1  0  0  0
 35 44  2  0  0  0
 35 45  1  0  0  0
 35 68  1  0  0  0
 36 56  1  0  0  0
 36106  1  0  0  0
 37 39  1  0  0  0
 37 47  1  0  0  0
 37 66  1  0  0  0
 37107  1  0  0  0
 38 43  2  0  0  0
 38 46  1  0  0  0
 38 47  1  0  0  0
 39 64  1  0  0  0
 39 67  2  0  0  0
 40 52  1  0  0  0
 40 53  2  0  0  0
 40 58  1  0  0  0
 41108  1  0  0  0
 41109  1  0  0  0
 41110  1  0  0  0
 41 48  1  0  0  0
 42 43  1  0  0  0
 42 66  1  0  0  0
 42111  1  0  0  0
 42112  1  0  0  0
 43 44  1  0  0  0
 44113  1  0  0  0
 45 46  2  0  0  0
 45114  1  0  0  0
 46115  1  0  0  0
 47116  1  0  0  0
 47117  1  0  0  0
 48 56  1  0  0  0
 48 65  1  0  0  0
 48118  1  0  0  0
 49 50  1  0  0  0
 49 53  1  0  0  0
 49 64  1  0  0  0
 49119  1  0  0  0
 50 51  1  0  0  0
 50120  1  0  0  0
 50121  1  0  0  0
 51 52  1  0  0  0
 51122  1  0  0  0
 51123  1  0  0  0
 52124  1  0  0  0
 52125  1  0  0  0
 53 54  1  0  0  0
 54 55  2  0  0  0
 54126  1  0  0  0
 55 57  1  0  0  0
 55127  1  0  0  0
 56 69  2  0  0  0
 57 58  2  0  0  0
 57128  1  0  0  0
 58129  1  0  0  0
 59 60  1  0  0  0
 59 61  1  0  0  0
 59 62  1  0  0  0
 60130  1  0  0  0
 60131  1  0  0  0
 60132  1  0  0  0
 61133  1  0  0  0
 61134  1  0  0  0
 61135  1  0  0  0
 62136  1  0  0  0
 62137  1  0  0  0
 62138  1  0  0  0
 63 65  1  0  0  0
 63139  1  0  0  0
 63140  1  0  0  0
 63141  1  0  0  0
 64142  1  0  0  0
 65143  1  0  0  0
 68 82  1  0  0  0
 71 72  1  0  0  0
 71 73  2  0  0  0
 71144  1  0  0  0
 72 74  2  0  0  0
 72145  1  0  0  0
 73 83  1  0  0  0
 73 79  1  0  0  0
 74 82  1  0  0  0
 74 83  1  0  0  0
 75 76  1  0  0  0
 75 80  1  0  0  0
 75146  1  0  0  0
 75147  1  0  0  0
 76 80  1  0  0  0
 76148  1  0  0  0
 76149  1  0  0  0
 77 79  1  0  0  0
 77 84  1  0  0  0
 77150  1  0  0  0
 77151  1  0  0  0
 78 79  1  0  0  0
 78 84  1  0  0  0
 78152  1  0  0  0
 78153  1  0  0  0
 79154  1  0  0  0
 80 81  1  0  0  0
 80 83  1  0  0  0
 81155  1  0  0  0
 81156  1  0  0  0
 81157  1  0  0  0
 82158  1  0  0  0
 82159  1  0  0  0
M  ISO  4   1 100  68 101  82 101  84 100
M  END
> <chiral flag>
0

> <version>
0

> <s_m_source_file>
/data/baiqing/PycharmProjects/Reinvent-master-3.2/result/LINK_invent/BTK/process_docking_weight1_custom_sum_contain_oxygen_bond_distance_aromatic_linkinvent_7_9_3/rearranged_h_0199.sdf

> <i_m_source_file_index>
71

> <r_mmod_Potential_Energy-OPLS-2005>
1080.46801757812

> <r_mmod_Stretch_Energy-OPLS-2005>
410.482330322266

> <r_mmod_Bend_Energy-OPLS-2005>
366.239318847656

> <r_mmod_Torsional_Energy-OPLS-2005>
353.122253417969

> <r_mmod_Improper_Torsional_Energy-OPLS-2005>
15.1207895278931

> <r_mmod_Van_der_Waal_Energy-OPLS-2005>
102.984191894531

> <r_mmod_Electrostatic_Energy-OPLS-2005>
-329.484222412109

> <r_mmod_Solvation_Energy-OPLS-2005>
-196.471694946289

> <b_mmod_Minimization_Converged-OPLS-2005>
0

> <r_mmod_RMS_Derivative-OPLS-2005>
3.09794402122498

$$$$
71
                    3D
 Structure written by MMmdl.
167176  0  0  1  0            999 V2000
  -30.7058  -14.4346   20.5191 C   0  0  0  0  0  0
  -30.4205  -12.2662   19.4092 C   0  0  0  0  0  0
  -29.4860  -12.4530   18.1967 C   0  0  0  0  0  0
  -28.0072  -12.3414   18.6147 C   0  0  0  0  0  0
  -27.6605  -13.1895   19.8672 C   0  0  2  0  0  0
  -28.7079  -12.9885   20.9877 C   0  0  0  0  0  0
  -25.2599  -13.8111   20.5735 C   0  0  0  0  0  0
  -24.1819  -13.0405   20.9140 C   0  0  0  0  0  0
  -24.6357  -11.6865   20.8700 C   0  0  0  0  0  0
  -23.9028  -10.4277   21.0402 C   0  0  0  0  0  0
  -24.3583   -9.4194   21.9195 C   0  0  0  0  0  0
  -23.6257   -8.2237   22.0769 C   0  0  0  0  0  0
  -22.4239   -8.0281   21.3552 C   0  0  0  0  0  0
  -21.9869   -9.0255   20.4651 C   0  0  0  0  0  0
  -22.7201  -10.2136   20.3053 C   0  0  0  0  0  0
  -21.6843   -6.0717   22.5271 C   0  0  0  0  0  0
  -21.4001   -6.5628   23.8196 C   0  0  0  0  0  0
  -21.3654   -5.6784   24.9167 C   0  0  0  0  0  0
  -21.6032   -4.3047   24.7225 C   0  0  0  0  0  0
  -21.8823   -3.8133   23.4348 C   0  0  0  0  0  0
  -21.9190   -4.6943   22.3403 C   0  0  0  0  0  0
  -22.7855  -13.5231   21.1842 C   0  0  0  0  0  0
  -22.1663   -4.2128   21.0984 F   0  0  0  0  0  0
  -21.5632   -3.4542   25.7744 F   0  0  0  0  0  0
  -30.0374  -13.2583   20.4189 N   0  0  0  0  0  0
  -26.3015  -12.9247   20.3348 N   0  0  0  0  0  0
  -25.9274  -11.6422   20.5740 N   0  0  0  0  0  0
  -22.0500  -12.8225   22.0404 N   0  0  0  0  0  0
  -25.4384  -15.1828   20.4352 N   0  0  0  0  0  0
  -31.8801  -14.5892   20.1693 O   0  0  0  0  0  0
  -21.6617   -6.8868   21.4237 O   0  0  0  0  0  0
  -22.3547  -14.5562   20.6734 O   0  0  0  0  0  0
  -24.6093  -31.8733   23.2140 C   0  0  0  0  0  0
  -25.8999  -32.4860   23.8440 C   0  0  1  0  0  0
  -27.2603  -27.4896   20.1064 C   0  0  0  0  0  0
  -25.5878  -33.8656   24.2375 N   0  0  0  0  0  0
  -23.3965  -30.4920   21.5534 C   0  0  2  0  0  0
  -24.8480  -28.9624   20.1206 C   0  0  0  0  0  0
  -22.7388  -29.4666   22.5037 C   0  0  0  0  0  0
  -18.0267  -28.1387   22.8499 C   0  0  0  0  0  0
  -24.1471  -36.7322   23.2621 C   0  0  0  0  0  0
  -25.9144  -30.8605   21.3538 C   0  0  0  0  0  0
  -25.9997  -29.4943   20.7118 C   0  0  0  0  0  0
  -27.2063  -28.7701   20.7044 C   0  0  0  0  0  0
  -26.0929  -26.9653   19.5125 C   0  0  0  0  0  0
  -24.8863  -27.6921   19.5183 C   0  0  0  0  0  0
  -23.6041  -29.8190   20.1686 C   0  0  0  0  0  0
  -25.4086  -36.3134   24.0346 C   0  0  1  0  0  0
  -20.5846  -28.3651   23.1347 C   0  0  2  0  0  0
  -20.6749  -26.9397   22.5422 C   0  0  0  0  0  0
  -19.5726  -26.6388   21.5220 C   0  0  0  0  0  0
  -18.1906  -26.7937   22.1629 C   0  0  0  0  0  0
  -19.1511  -28.8838   23.2920 C   0  0  0  0  0  0
  -18.9437  -30.1451   23.8925 C   0  0  0  0  0  0
  -17.6443  -30.6590   24.0575 C   0  0  0  0  0  0
  -25.9028  -34.9500   23.5161 C   0  0  0  0  0  0
  -16.5335  -29.9095   23.6327 C   0  0  0  0  0  0
  -16.7260  -28.6511   23.0344 C   0  0  0  0  0  0
  -26.4450  -31.6615   25.0734 C   0  0  0  0  0  0
  -25.3754  -31.3698   26.1516 C   0  0  0  0  0  0
  -27.0244  -30.3070   24.6032 C   0  0  0  0  0  0
  -27.6056  -32.4310   25.7471 C   0  0  0  0  0  0
  -27.5627  -37.1745   24.8414 C   0  0  0  0  0  0
  -21.4118  -29.3027   22.3776 N   0  0  0  0  0  0
  -26.4251  -37.3848   23.9495 N   0  0  0  0  0  0
  -24.6583  -31.0873   22.1017 N   0  0  0  0  0  0
  -23.4179  -28.8205   23.3068 O   0  0  0  0  0  0
  -28.3894  -26.7040   20.0597 O   0  0  0  0  0  0
  -26.5598  -34.8937   22.4725 O   0  0  0  0  0  0
  -23.5301  -32.1449   23.7572 O   0  0  0  0  0  0
  -29.0687  -19.3681   20.2771 C   0  0  0  0  0  0
  -30.4633  -22.7679   21.7947 C   0  0  0  0  0  0
  -30.2045  -22.3116   19.7486 C   0  0  0  0  0  0
  -28.4668  -17.1434   19.4466 C   0  0  0  0  0  0
  -28.7461  -17.3761   21.8205 C   0  0  0  0  0  0
  -29.7149  -16.2653   19.3547 C   0  0  0  0  0  0
  -29.9092  -16.3493   21.8149 C   0  0  0  0  0  0
  -30.4602  -21.4471   20.9980 C   0  0  2  0  0  0
  -30.7964  -23.5073   20.4881 C   0  0  1  0  0  0
  -29.5069  -20.3090   21.4204 C   0  0  0  0  0  0
  -30.5276  -25.9453   20.9323 C   0  0  0  0  0  0
  -29.5734  -27.1377   20.7380 C   0  0  0  0  0  0
  -28.7099  -18.0872   20.5344 N   0  0  0  0  0  0
  -29.8918  -15.5050   20.6035 N   0  0  0  0  0  0
  -30.0276  -24.7407   20.2420 N   0  3  0  0  0  0
  -29.0516  -19.8011   19.1208 O   0  0  0  0  0  0
  -31.4632  -12.3614   19.0974 H   0  0  0  0  0  0
  -30.3198  -11.2598   19.8178 H   0  0  0  0  0  0
  -29.7123  -11.7004   17.4388 H   0  0  0  0  0  0
  -29.6655  -13.4179   17.7258 H   0  0  0  0  0  0
  -27.7978  -11.2881   18.8078 H   0  0  0  0  0  0
  -27.3635  -12.6254   17.7816 H   0  0  0  0  0  0
  -27.6984  -14.2297   19.5502 H   0  0  0  0  0  0
  -28.6792  -11.9670   21.3666 H   0  0  0  0  0  0
  -28.4906  -13.6364   21.8386 H   0  0  0  0  0  0
  -25.2747   -9.5669   22.4741 H   0  0  0  0  0  0
  -23.9961   -7.4634   22.7484 H   0  0  0  0  0  0
  -21.0801   -8.8784   19.8960 H   0  0  0  0  0  0
  -22.3682  -10.9674   19.6150 H   0  0  0  0  0  0
  -21.1985   -7.6127   23.9690 H   0  0  0  0  0  0
  -21.1466   -6.0519   25.9064 H   0  0  0  0  0  0
  -22.0597   -2.7584   23.2861 H   0  0  0  0  0  0
  -22.4070  -11.9802   22.4691 H   0  0  0  0  0  0
  -21.1153  -13.1306   22.2687 H   0  0  0  0  0  0
  -24.6984  -15.8569   20.5931 H   0  0  0  0  0  0
  -26.3331  -15.6103   20.2459 H   0  0  0  0  0  0
  -26.7087  -32.5606   23.1236 H   0  0  0  0  0  0
  -25.0046  -33.9842   25.0531 H   0  0  0  0  0  0
  -22.6831  -31.3064   21.4126 H   0  0  0  0  0  0
  -23.3783  -35.9592   23.3149 H   0  0  0  0  0  0
  -24.3617  -36.9080   22.2071 H   0  0  0  0  0  0
  -23.7112  -37.6439   23.6718 H   0  0  0  0  0  0
  -26.0057  -31.6208   20.5766 H   0  0  0  0  0  0
  -26.8103  -30.9322   21.9584 H   0  0  0  0  0  0
  -28.0771  -29.2225   21.1546 H   0  0  0  0  0  0
  -26.1172  -25.9899   19.0473 H   0  0  0  0  0  0
  -24.0002  -27.2718   19.0621 H   0  0  0  0  0  0
  -23.7092  -30.5928   19.4074 H   0  0  0  0  0  0
  -22.7314  -29.2332   19.8750 H   0  0  0  0  0  0
  -25.1218  -36.1991   25.0824 H   0  0  0  0  0  0
  -20.9942  -28.3203   24.1466 H   0  0  0  0  0  0
  -20.5669  -26.2261   23.3598 H   0  0  0  0  0  0
  -21.6620  -26.7444   22.1215 H   0  0  0  0  0  0
  -19.6880  -25.6301   21.1240 H   0  0  0  0  0  0
  -19.6674  -27.3211   20.6763 H   0  0  0  0  0  0
  -17.4182  -26.6713   21.4019 H   0  0  0  0  0  0
  -18.0281  -26.0078   22.9013 H   0  0  0  0  0  0
  -19.7910  -30.7270   24.2303 H   0  0  0  0  0  0
  -17.4986  -31.6271   24.5175 H   0  0  0  0  0  0
  -15.5343  -30.3004   23.7629 H   0  0  0  0  0  0
  -15.8661  -28.0852   22.7027 H   0  0  0  0  0  0
  -24.5875  -30.7111   25.7848 H   0  0  0  0  0  0
  -24.9014  -32.2854   26.5066 H   0  0  0  0  0  0
  -25.8135  -30.8776   27.0207 H   0  0  0  0  0  0
  -26.2740  -29.6855   24.1130 H   0  0  0  0  0  0
  -27.4084  -29.7279   25.4437 H   0  0  0  0  0  0
  -27.8547  -30.4410   23.9094 H   0  0  0  0  0  0
  -27.2709  -33.3610   26.2070 H   0  0  0  0  0  0
  -28.3841  -32.6873   25.0275 H   0  0  0  0  0  0
  -28.0736  -31.8418   26.5360 H   0  0  0  0  0  0
  -28.2420  -38.0265   24.7835 H   0  0  0  0  0  0
  -28.1350  -36.2839   24.5749 H   0  0  0  0  0  0
  -27.2420  -37.0792   25.8806 H   0  0  0  0  0  0
  -20.9284  -29.8780   21.7021 H   0  0  0  0  0  0
  -26.0124  -38.2870   24.1730 H   0  0  0  0  0  0
  -31.2396  -22.8305   22.5581 H   0  0  0  0  0  0
  -29.4838  -23.0193   22.2067 H   0  0  0  0  0  0
  -29.1410  -22.4219   19.5253 H   0  0  0  0  0  0
  -30.7638  -22.0095   18.8614 H   0  0  0  0  0  0
  -27.5798  -16.5494   19.6506 H   0  0  0  0  0  0
  -28.2677  -17.6206   18.4862 H   0  0  0  0  0  0
  -28.8127  -18.0393   22.6825 H   0  0  0  0  0  0
  -27.8015  -16.8469   21.9548 H   0  0  0  0  0  0
  -30.6009  -16.8710   19.1549 H   0  0  0  0  0  0
  -29.6062  -15.5928   18.5024 H   0  0  0  0  0  0
  -29.8376  -15.7164   22.7012 H   0  0  0  0  0  0
  -30.8676  -16.8678   21.8786 H   0  0  0  0  0  0
  -31.4844  -21.0717   20.9366 H   0  0  0  0  0  0
  -31.8706  -23.6139   20.3165 H   0  0  0  0  0  0
  -30.0071  -19.7386   22.2008 H   0  0  0  0  0  0
  -28.6008  -20.7083   21.8761 H   0  0  0  0  0  0
  -30.6275  -25.7299   21.9967 H   0  0  0  0  0  0
  -31.5235  -26.1919   20.5616 H   0  0  0  0  0  0
  -30.0575  -27.9192   20.1504 H   0  0  0  0  0  0
  -29.3491  -27.5509   21.7229 H   0  0  0  0  0  0
  -29.0654  -24.6064   20.5125 H   0  0  0  0  0  0
  -30.0215  -24.9309   19.2520 H   0  0  0  0  0  0
  1 25  1  0  0  0
  1 30  2  0  0  0
  1 84  1  0  0  0
  2  3  1  0  0  0
  2 25  1  0  0  0
  2 87  1  0  0  0
  2 88  1  0  0  0
  3  4  1  0  0  0
  3 89  1  0  0  0
  3 90  1  0  0  0
  4  5  1  0  0  0
  4 91  1  0  0  0
  4 92  1  0  0  0
  5  6  1  0  0  0
  5 26  1  0  0  0
  5 93  1  0  0  0
  6 25  1  0  0  0
  6 94  1  0  0  0
  6 95  1  0  0  0
  7  8  2  0  0  0
  7 26  1  0  0  0
  7 29  1  0  0  0
  8  9  1  0  0  0
  8 22  1  0  0  0
  9 10  1  0  0  0
  9 27  2  0  0  0
 10 11  2  0  0  0
 10 15  1  0  0  0
 11 12  1  0  0  0
 11 96  1  0  0  0
 12 13  2  0  0  0
 12 97  1  0  0  0
 13 14  1  0  0  0
 13 31  1  0  0  0
 14 15  2  0  0  0
 14 98  1  0  0  0
 15 99  1  0  0  0
 16 17  2  0  0  0
 16 21  1  0  0  0
 16 31  1  0  0  0
 17 18  1  0  0  0
 17100  1  0  0  0
 18 19  2  0  0  0
 18101  1  0  0  0
 19 20  1  0  0  0
 19 24  1  0  0  0
 20 21  2  0  0  0
 20102  1  0  0  0
 21 23  1  0  0  0
 22 28  1  0  0  0
 22 32  2  0  0  0
 26 27  1  0  0  0
 28103  1  0  0  0
 28104  1  0  0  0
 29105  1  0  0  0
 29106  1  0  0  0
 33 34  1  0  0  0
 33 66  1  0  0  0
 33 70  2  0  0  0
 34 36  1  0  0  0
 34 59  1  0  0  0
 34107  1  0  0  0
 35 44  2  0  0  0
 35 45  1  0  0  0
 35 68  1  0  0  0
 36 56  1  0  0  0
 36108  1  0  0  0
 37 39  1  0  0  0
 37 47  1  0  0  0
 37 66  1  0  0  0
 37109  1  0  0  0
 38 43  2  0  0  0
 38 46  1  0  0  0
 38 47  1  0  0  0
 39 64  1  0  0  0
 39 67  2  0  0  0
 40 52  1  0  0  0
 40 53  2  0  0  0
 40 58  1  0  0  0
 41110  1  0  0  0
 41111  1  0  0  0
 41112  1  0  0  0
 41 48  1  0  0  0
 42 43  1  0  0  0
 42 66  1  0  0  0
 42113  1  0  0  0
 42114  1  0  0  0
 43 44  1  0  0  0
 44115  1  0  0  0
 45 46  2  0  0  0
 45116  1  0  0  0
 46117  1  0  0  0
 47118  1  0  0  0
 47119  1  0  0  0
 48 56  1  0  0  0
 48 65  1  0  0  0
 48120  1  0  0  0
 49 50  1  0  0  0
 49 53  1  0  0  0
 49 64  1  0  0  0
 49121  1  0  0  0
 50 51  1  0  0  0
 50122  1  0  0  0
 50123  1  0  0  0
 51 52  1  0  0  0
 51124  1  0  0  0
 51125  1  0  0  0
 52126  1  0  0  0
 52127  1  0  0  0
 53 54  1  0  0  0
 54 55  2  0  0  0
 54128  1  0  0  0
 55 57  1  0  0  0
 55129  1  0  0  0
 56 69  2  0  0  0
 57 58  2  0  0  0
 57130  1  0  0  0
 58131  1  0  0  0
 59 60  1  0  0  0
 59 61  1  0  0  0
 59 62  1  0  0  0
 60132  1  0  0  0
 60133  1  0  0  0
 60134  1  0  0  0
 61135  1  0  0  0
 61136  1  0  0  0
 61137  1  0  0  0
 62138  1  0  0  0
 62139  1  0  0  0
 62140  1  0  0  0
 63 65  1  0  0  0
 63141  1  0  0  0
 63142  1  0  0  0
 63143  1  0  0  0
 64144  1  0  0  0
 65145  1  0  0  0
 68 82  1  0  0  0
 71 80  1  0  0  0
 71 83  1  0  0  0
 71 86  2  0  0  0
 72 78  1  0  0  0
 72 79  1  0  0  0
 72146  1  0  0  0
 72147  1  0  0  0
 73 78  1  0  0  0
 73 79  1  0  0  0
 73148  1  0  0  0
 73149  1  0  0  0
 74 76  1  0  0  0
 74 83  1  0  0  0
 74150  1  0  0  0
 74151  1  0  0  0
 75 77  1  0  0  0
 75 83  1  0  0  0
 75152  1  0  0  0
 75153  1  0  0  0
 76 84  1  0  0  0
 76154  1  0  0  0
 76155  1  0  0  0
 77 84  1  0  0  0
 77156  1  0  0  0
 77157  1  0  0  0
 78 80  1  0  0  0
 78158  1  0  0  0
 79 85  1  0  0  0
 79159  1  0  0  0
 80160  1  0  0  0
 80161  1  0  0  0
 81 82  1  0  0  0
 81 85  1  0  0  0
 81162  1  0  0  0
 81163  1  0  0  0
 82164  1  0  0  0
 82165  1  0  0  0
 85166  1  0  0  0
 85167  1  0  0  0
M  CHG  1  85   1
M  ISO  4   1 100  68 101  82 101  84 100
M  END
> <chiral flag>
0

> <version>
0

> <s_m_source_file>
/data/baiqing/PycharmProjects/Reinvent-master-3.2/result/LINK_invent/BTK/process_docking_weight1_custom_sum_contain_oxygen_bond_distance_aromatic_linkinvent_7_9_3/rearranged_h_0199.sdf

> <i_m_source_file_index>
72

> <r_mmod_Potential_Energy-OPLS-2005>
129.695953369141

> <r_mmod_Stretch_Energy-OPLS-2005>
34.938117980957

> <r_mmod_Bend_Energy-OPLS-2005>
123.011512756348

> <r_mmod_Torsional_Energy-OPLS-2005>
426.214752197266

> <r_mmod_Improper_Torsional_Energy-OPLS-2005>
15.6493349075317

> <r_mmod_Van_der_Waal_Energy-OPLS-2005>
158.352264404297

> <r_mmod_Electrostatic_Energy-OPLS-2005>
-210.531265258789

> <r_mmod_Solvation_Energy-OPLS-2005>
-431.228607177734

> <b_mmod_Minimization_Converged-OPLS-2005>
0

> <r_mmod_RMS_Derivative-OPLS-2005>
2.72771239280701

$$$$
72
                    3D
 Structure written by MMmdl.
162171  0  0  1  0            999 V2000
  -30.7539  -14.3866   20.6484 C   0  0  0  0  0  0
  -30.4160  -12.2849   19.4037 C   0  0  0  0  0  0
  -29.4905  -12.5240   18.1960 C   0  0  0  0  0  0
  -28.0131  -12.3784   18.6087 C   0  0  0  0  0  0
  -27.6657  -13.2029   19.8767 C   0  0  2  0  0  0
  -28.7031  -12.9547   20.9940 C   0  0  0  0  0  0
  -25.2610  -13.8158   20.5662 C   0  0  0  0  0  0
  -24.1849  -13.0444   20.9147 C   0  0  0  0  0  0
  -24.6393  -11.6906   20.8707 C   0  0  0  0  0  0
  -23.9057  -10.4299   21.0383 C   0  0  0  0  0  0
  -24.3614   -9.4222   21.9165 C   0  0  0  0  0  0
  -23.6293   -8.2256   22.0748 C   0  0  0  0  0  0
  -22.4273   -8.0284   21.3542 C   0  0  0  0  0  0
  -21.9902   -9.0253   20.4641 C   0  0  0  0  0  0
  -22.7227  -10.2133   20.3041 C   0  0  0  0  0  0
  -21.6861   -6.0730   22.5279 C   0  0  0  0  0  0
  -21.4017   -6.5637   23.8210 C   0  0  0  0  0  0
  -21.3654   -5.6791   24.9176 C   0  0  0  0  0  0
  -21.6045   -4.3054   24.7228 C   0  0  0  0  0  0
  -21.8821   -3.8143   23.4349 C   0  0  0  0  0  0
  -21.9200   -4.6958   22.3406 C   0  0  0  0  0  0
  -22.7873  -13.5250   21.1816 C   0  0  0  0  0  0
  -22.1666   -4.2147   21.0979 F   0  0  0  0  0  0
  -21.5624   -3.4542   25.7742 F   0  0  0  0  0  0
  -30.0461  -13.2426   20.4550 N   0  0  0  0  0  0
  -26.3042  -12.9315   20.3357 N   0  0  0  0  0  0
  -25.9315  -11.6476   20.5727 N   0  0  0  0  0  0
  -22.0509  -12.8252   22.0375 N   0  0  0  0  0  0
  -25.4359  -15.1872   20.4065 N   0  0  0  0  0  0
  -31.8159  -14.6331   20.0677 O   0  0  0  0  0  0
  -21.6643   -6.8875   21.4239 O   0  0  0  0  0  0
  -22.3559  -14.5560   20.6670 O   0  0  0  0  0  0
  -24.6141  -31.8697   23.2125 C   0  0  0  0  0  0
  -25.9048  -32.4828   23.8412 C   0  0  1  0  0  0
  -27.2342  -27.4564   20.0897 C   0  0  0  0  0  0
  -25.5917  -33.8626   24.2353 N   0  0  0  0  0  0
  -23.4013  -30.4943   21.5518 C   0  0  2  0  0  0
  -24.8490  -28.9662   20.1117 C   0  0  0  0  0  0
  -22.7401  -29.4669   22.4991 C   0  0  0  0  0  0
  -18.0277  -28.1365   22.8479 C   0  0  0  0  0  0
  -24.1484  -36.7307   23.2618 C   0  0  0  0  0  0
  -25.9290  -30.8403   21.3652 C   0  0  0  0  0  0
  -26.0073  -29.4778   20.7093 C   0  0  0  0  0  0
  -27.2061  -28.7296   20.6961 C   0  0  0  0  0  0
  -26.0632  -26.9583   19.4773 C   0  0  0  0  0  0
  -24.8702  -27.7047   19.4911 C   0  0  0  0  0  0
  -23.6087  -29.8299   20.1651 C   0  0  0  0  0  0
  -25.4083  -36.3098   24.0342 C   0  0  1  0  0  0
  -20.5863  -28.3655   23.1298 C   0  0  2  0  0  0
  -20.6773  -26.9398   22.5393 C   0  0  0  0  0  0
  -19.5760  -26.6380   21.5188 C   0  0  0  0  0  0
  -18.1938  -26.7914   22.1599 C   0  0  0  0  0  0
  -19.1525  -28.8822   23.2894 C   0  0  0  0  0  0
  -18.9454  -30.1419   23.8918 C   0  0  0  0  0  0
  -17.6463  -30.6572   24.0552 C   0  0  0  0  0  0
  -25.9035  -34.9476   23.5138 C   0  0  0  0  0  0
  -16.5354  -29.9073   23.6317 C   0  0  0  0  0  0
  -16.7267  -28.6485   23.0347 C   0  0  0  0  0  0
  -26.4485  -31.6583   25.0716 C   0  0  0  0  0  0
  -25.3767  -31.3664   26.1470 C   0  0  0  0  0  0
  -27.0305  -30.3031   24.6059 C   0  0  0  0  0  0
  -27.6081  -32.4276   25.7465 C   0  0  0  0  0  0
  -27.5611  -37.1736   24.8414 C   0  0  0  0  0  0
  -21.4132  -29.3029   22.3714 N   0  0  0  0  0  0
  -26.4244  -37.3816   23.9481 N   0  0  0  0  0  0
  -24.6654  -31.0810   22.1021 N   0  0  0  0  0  0
  -23.4170  -28.8213   23.3040 O   0  0  0  0  0  0
  -28.3858  -26.7056   20.0914 O   0  0  0  0  0  0
  -26.5596  -34.8926   22.4699 O   0  0  0  0  0  0
  -23.5344  -32.1450   23.7539 O   0  0  0  0  0  0
  -28.3903  -21.1845   21.9058 C   0  0  0  0  0  0
  -28.0653  -22.4866   21.1704 C   0  0  0  0  0  0
  -29.4613  -16.4262   21.1453 C   0  0  0  0  0  0
  -31.0543  -16.1020   22.4279 C   0  0  0  0  0  0
  -30.3517  -22.3005   21.0434 C   0  0  0  0  0  0
  -30.6473  -17.2955   21.5664 C   0  0  0  0  0  0
  -29.9211  -21.0636   21.8535 C   0  0  2  0  0  0
  -30.4285  -18.6606   22.2299 C   0  0  0  0  0  0
  -29.3529  -24.4590   20.4532 C   0  0  0  0  0  0
  -28.2648  -25.4872   20.8312 C   0  0  0  0  0  0
  -30.2385  -15.2442   21.5527 N   0  0  0  0  0  0
  -29.2896  -23.2693   21.3131 N   0  0  0  0  0  0
  -30.3642  -19.7793   21.2598 N   0  3  0  0  0  0
  -31.4620  -12.3755   19.1048 H   0  0  0  0  0  0
  -30.3013  -11.2652   19.7763 H   0  0  0  0  0  0
  -29.7290  -11.8258   17.3925 H   0  0  0  0  0  0
  -29.6625  -13.5232   17.7915 H   0  0  0  0  0  0
  -27.8209  -11.3201   18.7905 H   0  0  0  0  0  0
  -27.3633  -12.6676   17.7821 H   0  0  0  0  0  0
  -27.7211  -14.2557   19.5992 H   0  0  0  0  0  0
  -28.6641  -11.9150   21.3200 H   0  0  0  0  0  0
  -28.4573  -13.5445   21.8773 H   0  0  0  0  0  0
  -25.2761   -9.5712   22.4734 H   0  0  0  0  0  0
  -24.0014   -7.4656   22.7469 H   0  0  0  0  0  0
  -21.0834   -8.8767   19.8946 H   0  0  0  0  0  0
  -22.3680  -10.9668   19.6149 H   0  0  0  0  0  0
  -21.2005   -7.6147   23.9716 H   0  0  0  0  0  0
  -21.1466   -6.0517   25.9080 H   0  0  0  0  0  0
  -22.0601   -2.7604   23.2856 H   0  0  0  0  0  0
  -22.4106  -11.9913   22.4771 H   0  0  0  0  0  0
  -21.1128  -13.1289   22.2573 H   0  0  0  0  0  0
  -24.6726  -15.8467   20.5082 H   0  0  0  0  0  0
  -26.2947  -15.6213   20.0927 H   0  0  0  0  0  0
  -26.7123  -32.5543   23.1186 H   0  0  0  0  0  0
  -25.0079  -33.9793   25.0501 H   0  0  0  0  0  0
  -22.6897  -31.3109   21.4156 H   0  0  0  0  0  0
  -23.3788  -35.9588   23.3153 H   0  0  0  0  0  0
  -24.3643  -36.9056   22.2066 H   0  0  0  0  0  0
  -23.7163  -37.6439   23.6718 H   0  0  0  0  0  0
  -26.0429  -31.6096   20.6010 H   0  0  0  0  0  0
  -26.8159  -30.8898   21.9853 H   0  0  0  0  0  0
  -28.0997  -29.1178   21.1642 H   0  0  0  0  0  0
  -26.0724  -25.9954   18.9871 H   0  0  0  0  0  0
  -23.9823  -27.3088   19.0182 H   0  0  0  0  0  0
  -23.7143  -30.6075   19.4084 H   0  0  0  0  0  0
  -22.7329  -29.2506   19.8682 H   0  0  0  0  0  0
  -25.1224  -36.1934   25.0825 H   0  0  0  0  0  0
  -20.9953  -28.3224   24.1416 H   0  0  0  0  0  0
  -20.5668  -26.2269   23.3574 H   0  0  0  0  0  0
  -21.6649  -26.7450   22.1196 H   0  0  0  0  0  0
  -19.6936  -25.6295   21.1211 H   0  0  0  0  0  0
  -19.6693  -27.3182   20.6712 H   0  0  0  0  0  0
  -17.4201  -26.6640   21.4011 H   0  0  0  0  0  0
  -18.0362  -26.0042   22.8985 H   0  0  0  0  0  0
  -19.7934  -30.7220   24.2312 H   0  0  0  0  0  0
  -17.5022  -31.6263   24.5131 H   0  0  0  0  0  0
  -15.5359  -30.2986   23.7621 H   0  0  0  0  0  0
  -15.8663  -28.0800   22.7072 H   0  0  0  0  0  0
  -24.5938  -30.7021   25.7794 H   0  0  0  0  0  0
  -24.8966  -32.2807   26.4959 H   0  0  0  0  0  0
  -25.8126  -30.8790   27.0198 H   0  0  0  0  0  0
  -26.2817  -29.6780   24.1178 H   0  0  0  0  0  0
  -27.4171  -29.7270   25.4477 H   0  0  0  0  0  0
  -27.8619  -30.4373   23.9135 H   0  0  0  0  0  0
  -27.2736  -33.3569   26.2087 H   0  0  0  0  0  0
  -28.3859  -32.6838   25.0257 H   0  0  0  0  0  0
  -28.0786  -31.8367   26.5338 H   0  0  0  0  0  0
  -28.2416  -38.0237   24.7794 H   0  0  0  0  0  0
  -28.1319  -36.2816   24.5791 H   0  0  0  0  0  0
  -27.2413  -37.0821   25.8809 H   0  0  0  0  0  0
  -20.9296  -29.8737   21.6923 H   0  0  0  0  0  0
  -26.0119  -38.2843   24.1676 H   0  0  0  0  0  0
  -27.8678  -20.3438   21.4476 H   0  0  0  0  0  0
  -28.0566  -21.2415   22.9424 H   0  0  0  0  0  0
  -27.1900  -22.9825   21.5924 H   0  0  0  0  0  0
  -27.8649  -22.2849   20.1151 H   0  0  0  0  0  0
  -29.2309  -16.4918   20.0803 H   0  0  0  0  0  0
  -28.5627  -16.5783   21.7461 H   0  0  0  0  0  0
  -30.6802  -16.1517   23.4519 H   0  0  0  0  0  0
  -32.1283  -15.9040   22.4196 H   0  0  0  0  0  0
  -30.3854  -22.0727   19.9756 H   0  0  0  0  0  0
  -31.3341  -22.6708   21.3427 H   0  0  0  0  0  0
  -31.3609  -17.3715   20.7410 H   0  0  0  0  0  0
  -30.3309  -21.1640   22.8604 H   0  0  0  0  0  0
  -31.2390  -18.8612   22.9326 H   0  0  0  0  0  0
  -29.5137  -18.6412   22.8242 H   0  0  0  0  0  0
  -30.3340  -24.9227   20.5717 H   0  0  0  0  0  0
  -29.2613  -24.1791   19.4026 H   0  0  0  0  0  0
  -28.3360  -25.7291   21.8929 H   0  0  0  0  0  0
  -27.2851  -25.0335   20.6830 H   0  0  0  0  0  0
  -31.2892  -19.9090   20.8821 H   0  0  0  0  0  0
  -29.7538  -19.5424   20.4951 H   0  0  0  0  0  0
  1 25  1  0  0  0
  1 30  2  0  0  0
  1 81  1  0  0  0
  2  3  1  0  0  0
  2 25  1  0  0  0
  2 84  1  0  0  0
  2 85  1  0  0  0
  3  4  1  0  0  0
  3 86  1  0  0  0
  3 87  1  0  0  0
  4  5  1  0  0  0
  4 88  1  0  0  0
  4 89  1  0  0  0
  5  6  1  0  0  0
  5 26  1  0  0  0
  5 90  1  0  0  0
  6 25  1  0  0  0
  6 91  1  0  0  0
  6 92  1  0  0  0
  7  8  2  0  0  0
  7 26  1  0  0  0
  7 29  1  0  0  0
  8  9  1  0  0  0
  8 22  1  0  0  0
  9 10  1  0  0  0
  9 27  2  0  0  0
 10 11  2  0  0  0
 10 15  1  0  0  0
 11 12  1  0  0  0
 11 93  1  0  0  0
 12 13  2  0  0  0
 12 94  1  0  0  0
 13 14  1  0  0  0
 13 31  1  0  0  0
 14 15  2  0  0  0
 14 95  1  0  0  0
 15 96  1  0  0  0
 16 17  2  0  0  0
 16 21  1  0  0  0
 16 31  1  0  0  0
 17 18  1  0  0  0
 17 97  1  0  0  0
 18 19  2  0  0  0
 18 98  1  0  0  0
 19 20  1  0  0  0
 19 24  1  0  0  0
 20 21  2  0  0  0
 20 99  1  0  0  0
 21 23  1  0  0  0
 22 28  1  0  0  0
 22 32  2  0  0  0
 26 27  1  0  0  0
 28100  1  0  0  0
 28101  1  0  0  0
 29102  1  0  0  0
 29103  1  0  0  0
 33 34  1  0  0  0
 33 66  1  0  0  0
 33 70  2  0  0  0
 34 36  1  0  0  0
 34 59  1  0  0  0
 34104  1  0  0  0
 35 44  2  0  0  0
 35 45  1  0  0  0
 35 68  1  0  0  0
 36 56  1  0  0  0
 36105  1  0  0  0
 37 39  1  0  0  0
 37 47  1  0  0  0
 37 66  1  0  0  0
 37106  1  0  0  0
 38 43  2  0  0  0
 38 46  1  0  0  0
 38 47  1  0  0  0
 39 64  1  0  0  0
 39 67  2  0  0  0
 40 52  1  0  0  0
 40 53  2  0  0  0
 40 58  1  0  0  0
 41107  1  0  0  0
 41108  1  0  0  0
 41109  1  0  0  0
 41 48  1  0  0  0
 42 43  1  0  0  0
 42 66  1  0  0  0
 42110  1  0  0  0
 42111  1  0  0  0
 43 44  1  0  0  0
 44112  1  0  0  0
 45 46  2  0  0  0
 45113  1  0  0  0
 46114  1  0  0  0
 47115  1  0  0  0
 47116  1  0  0  0
 48 56  1  0  0  0
 48 65  1  0  0  0
 48117  1  0  0  0
 49 50  1  0  0  0
 49 53  1  0  0  0
 49 64  1  0  0  0
 49118  1  0  0  0
 50 51  1  0  0  0
 50119  1  0  0  0
 50120  1  0  0  0
 51 52  1  0  0  0
 51121  1  0  0  0
 51122  1  0  0  0
 52123  1  0  0  0
 52124  1  0  0  0
 53 54  1  0  0  0
 54 55  2  0  0  0
 54125  1  0  0  0
 55 57  1  0  0  0
 55126  1  0  0  0
 56 69  2  0  0  0
 57 58  2  0  0  0
 57127  1  0  0  0
 58128  1  0  0  0
 59 60  1  0  0  0
 59 61  1  0  0  0
 59 62  1  0  0  0
 60129  1  0  0  0
 60130  1  0  0  0
 60131  1  0  0  0
 61132  1  0  0  0
 61133  1  0  0  0
 61134  1  0  0  0
 62135  1  0  0  0
 62136  1  0  0  0
 62137  1  0  0  0
 63 65  1  0  0  0
 63138  1  0  0  0
 63139  1  0  0  0
 63140  1  0  0  0
 64141  1  0  0  0
 65142  1  0  0  0
 68 80  1  0  0  0
 71 72  1  0  0  0
 71 77  1  0  0  0
 71143  1  0  0  0
 71144  1  0  0  0
 72 82  1  0  0  0
 72145  1  0  0  0
 72146  1  0  0  0
 73 76  1  0  0  0
 73 81  1  0  0  0
 73147  1  0  0  0
 73148  1  0  0  0
 74 76  1  0  0  0
 74 81  1  0  0  0
 74149  1  0  0  0
 74150  1  0  0  0
 75 77  1  0  0  0
 75 82  1  0  0  0
 75151  1  0  0  0
 75152  1  0  0  0
 76 78  1  0  0  0
 76153  1  0  0  0
 77 83  1  0  0  0
 77154  1  0  0  0
 78 83  1  0  0  0
 78155  1  0  0  0
 78156  1  0  0  0
 79 80  1  0  0  0
 79 82  1  0  0  0
 79157  1  0  0  0
 79158  1  0  0  0
 80159  1  0  0  0
 80160  1  0  0  0
 83161  1  0  0  0
 83162  1  0  0  0
M  CHG  1  83   1
M  ISO  4   1 100  68 101  80 101  81 100
M  END
> <chiral flag>
0

> <version>
0

> <s_m_source_file>
/data/baiqing/PycharmProjects/Reinvent-master-3.2/result/LINK_invent/BTK/process_docking_weight1_custom_sum_contain_oxygen_bond_distance_aromatic_linkinvent_7_9_3/rearranged_h_0199.sdf

> <i_m_source_file_index>
73

> <r_mmod_Potential_Energy-OPLS-2005>
-20.296407699585

> <r_mmod_Stretch_Energy-OPLS-2005>
33.6411895751953

> <r_mmod_Bend_Energy-OPLS-2005>
113.794456481934

> <r_mmod_Torsional_Energy-OPLS-2005>
347.371520996094

> <r_mmod_Improper_Torsional_Energy-OPLS-2005>
8.8449535369873

> <r_mmod_Van_der_Waal_Energy-OPLS-2005>
136.125152587891

> <r_mmod_Electrostatic_Energy-OPLS-2005>
-187.487701416016

> <r_mmod_Solvation_Energy-OPLS-2005>
-480.671752929688

> <b_mmod_Minimization_Converged-OPLS-2005>
0

> <r_mmod_RMS_Derivative-OPLS-2005>
1.70798683166504

$$$$
73
                    3D
 Structure written by MMmdl.
171182  0  0  1  0            999 V2000
  -30.6859  -14.6243   20.5769 C   0  0  0  0  0  0
  -30.4203  -12.4033   19.4609 C   0  0  0  0  0  0
  -29.5006  -12.5179   18.2288 C   0  0  0  0  0  0
  -28.0260  -12.3447   18.6315 C   0  0  0  0  0  0
  -27.6468  -13.2176   19.8533 C   0  0  2  0  0  0
  -28.6837  -13.0800   20.9839 C   0  0  0  0  0  0
  -25.2554  -13.8167   20.5673 C   0  0  0  0  0  0
  -24.1834  -13.0408   20.9172 C   0  0  0  0  0  0
  -24.6423  -11.6887   20.8734 C   0  0  0  0  0  0
  -23.9091  -10.4274   21.0379 C   0  0  0  0  0  0
  -24.3634   -9.4193   21.9170 C   0  0  0  0  0  0
  -23.6309   -8.2237   22.0746 C   0  0  0  0  0  0
  -22.4282   -8.0292   21.3542 C   0  0  0  0  0  0
  -21.9919   -9.0262   20.4643 C   0  0  0  0  0  0
  -22.7248  -10.2131   20.3050 C   0  0  0  0  0  0
  -21.6855   -6.0748   22.5282 C   0  0  0  0  0  0
  -21.4008   -6.5653   23.8214 C   0  0  0  0  0  0
  -21.3656   -5.6812   24.9182 C   0  0  0  0  0  0
  -21.6040   -4.3075   24.7234 C   0  0  0  0  0  0
  -21.8824   -3.8161   23.4359 C   0  0  0  0  0  0
  -21.9189   -4.6977   22.3413 C   0  0  0  0  0  0
  -22.7855  -13.5197   21.1830 C   0  0  0  0  0  0
  -22.1663   -4.2161   21.0985 F   0  0  0  0  0  0
  -21.5622   -3.4556   25.7744 F   0  0  0  0  0  0
  -30.0007  -13.4380   20.4361 N   0  0  0  0  0  0
  -26.2967  -12.9360   20.3257 N   0  0  0  0  0  0
  -25.9337  -11.6509   20.5733 N   0  0  0  0  0  0
  -22.0527  -12.8172   22.0398 N   0  0  0  0  0  0
  -25.4298  -15.1902   20.4159 N   0  0  0  0  0  0
  -31.8203  -14.7412   20.1055 O   0  0  0  0  0  0
  -21.6647   -6.8889   21.4243 O   0  0  0  0  0  0
  -22.3537  -14.5496   20.6678 O   0  0  0  0  0  0
  -24.6299  -31.8591   23.2036 C   0  0  0  0  0  0
  -25.9139  -32.4772   23.8373 C   0  0  1  0  0  0
  -27.2124  -27.2866   20.1063 C   0  0  0  0  0  0
  -25.5932  -33.8572   24.2299 N   0  0  0  0  0  0
  -23.4242  -30.4853   21.5468 C   0  0  2  0  0  0
  -24.8674  -28.9385   20.1141 C   0  0  0  0  0  0
  -22.7487  -29.4625   22.4928 C   0  0  0  0  0  0
  -18.0304  -28.1424   22.8406 C   0  0  0  0  0  0
  -24.1485  -36.7301   23.2643 C   0  0  0  0  0  0
  -25.9712  -30.7747   21.3805 C   0  0  0  0  0  0
  -26.0419  -29.4026   20.7183 C   0  0  0  0  0  0
  -27.2179  -28.5853   20.7094 C   0  0  0  0  0  0
  -26.0159  -26.8952   19.4585 C   0  0  0  0  0  0
  -24.8559  -27.6909   19.4762 C   0  0  0  0  0  0
  -23.6401  -29.8249   20.1613 C   0  0  0  0  0  0
  -25.4112  -36.3086   24.0342 C   0  0  1  0  0  0
  -20.5894  -28.3658   23.1249 C   0  0  2  0  0  0
  -20.6758  -26.9401   22.5330 C   0  0  0  0  0  0
  -19.5761  -26.6425   21.5086 C   0  0  0  0  0  0
  -18.1887  -26.8056   22.1390 C   0  0  0  0  0  0
  -19.1560  -28.8833   23.2911 C   0  0  0  0  0  0
  -18.9473  -30.1347   23.9103 C   0  0  0  0  0  0
  -17.6481  -30.6462   24.0778 C   0  0  0  0  0  0
  -25.9049  -34.9448   23.5130 C   0  0  0  0  0  0
  -16.5362  -29.9093   23.6347 C   0  0  0  0  0  0
  -16.7290  -28.6562   23.0240 C   0  0  0  0  0  0
  -26.4499  -31.6593   25.0766 C   0  0  0  0  0  0
  -25.3718  -31.3738   26.1492 C   0  0  0  0  0  0
  -27.0353  -30.3011   24.6250 C   0  0  0  0  0  0
  -27.6061  -32.4331   25.7534 C   0  0  0  0  0  0
  -27.5585  -37.1810   24.8467 C   0  0  0  0  0  0
  -21.4181  -29.3043   22.3659 N   0  0  0  0  0  0
  -26.4287  -37.3783   23.9419 N   0  0  0  0  0  0
  -24.6940  -31.0579   22.0995 N   0  0  0  0  0  0
  -23.4186  -28.8165   23.3010 O   0  0  0  0  0  0
  -28.3145  -26.3995   20.1410 O   0  0  0  0  0  0
  -26.5608  -34.8907   22.4681 O   0  0  0  0  0  0
  -23.5473  -32.1397   23.7344 O   0  0  0  0  0  0
  -30.5342  -16.9727   22.6366 C   0  0  0  0  0  0
  -26.3404  -23.9363   21.9915 C   0  0  0  0  0  0
  -30.3661  -19.0223   19.3360 C   0  0  0  0  0  0
  -28.5914  -23.8910   22.6725 C   0  0  0  0  0  0
  -29.5117  -15.8711   22.4151 C   0  0  0  0  0  0
  -29.1196  -23.8121   19.9639 C   0  0  0  0  0  0
  -27.6175  -24.7784   21.8909 C   0  0  1  0  0  0
  -29.6883  -18.3320   20.4803 C   0  0  2  0  0  0
  -29.9605  -19.9145   20.4950 C   0  0  2  0  0  0
  -26.8267  -22.5012   21.7193 C   0  0  1  0  0  0
  -30.5501  -17.1730   21.1262 C   0  0  2  0  0  0
  -28.3583  -22.5287   22.0003 C   0  0  1  0  0  0
  -28.0556  -24.9478   20.4048 C   0  0  1  0  0  0
  -26.0613  -21.4489   22.5315 C   0  0  0  0  0  0
  -29.0775  -21.1413   20.0030 C   0  0  0  0  0  0
  -30.0206  -15.7480   21.0409 N   0  0  0  0  0  0
  -29.1617  -22.4802   20.7486 N   0  3  1  0  0  0
  -31.4632  -12.5094   19.1603 H   0  0  0  0  0  0
  -30.3425  -11.4105   19.9096 H   0  0  0  0  0  0
  -29.7761  -11.7683   17.4875 H   0  0  0  0  0  0
  -29.6370  -13.4927   17.7554 H   0  0  0  0  0  0
  -27.8680  -11.2907   18.8662 H   0  0  0  0  0  0
  -27.3757  -12.5687   17.7846 H   0  0  0  0  0  0
  -27.6646  -14.2539   19.5124 H   0  0  0  0  0  0
  -28.7029  -12.0582   21.3672 H   0  0  0  0  0  0
  -28.3805  -13.6995   21.8212 H   0  0  0  0  0  0
  -25.2777   -9.5675   22.4744 H   0  0  0  0  0  0
  -24.0025   -7.4626   22.7456 H   0  0  0  0  0  0
  -21.0865   -8.8799   19.8936 H   0  0  0  0  0  0
  -22.3726  -10.9694   19.6178 H   0  0  0  0  0  0
  -21.2002   -7.6159   23.9724 H   0  0  0  0  0  0
  -21.1457   -6.0532   25.9078 H   0  0  0  0  0  0
  -22.0596   -2.7626   23.2862 H   0  0  0  0  0  0
  -22.4211  -11.9854   22.4801 H   0  0  0  0  0  0
  -21.1146  -13.1154   22.2641 H   0  0  0  0  0  0
  -24.6729  -15.8499   20.5496 H   0  0  0  0  0  0
  -26.2971  -15.6313   20.1325 H   0  0  0  0  0  0
  -26.7228  -32.5435   23.1142 H   0  0  0  0  0  0
  -25.0075  -33.9715   25.0442 H   0  0  0  0  0  0
  -22.7205  -31.3082   21.4024 H   0  0  0  0  0  0
  -23.3743  -35.9638   23.3297 H   0  0  0  0  0  0
  -24.3577  -36.8920   22.2057 H   0  0  0  0  0  0
  -23.7227  -37.6501   23.6658 H   0  0  0  0  0  0
  -26.1109  -31.5355   20.6112 H   0  0  0  0  0  0
  -26.8484  -30.8241   22.0118 H   0  0  0  0  0  0
  -28.1162  -28.9331   21.2013 H   0  0  0  0  0  0
  -25.9427  -25.9665   18.9157 H   0  0  0  0  0  0
  -23.9560  -27.3420   18.9893 H   0  0  0  0  0  0
  -23.7703  -30.6040   19.4103 H   0  0  0  0  0  0
  -22.7582  -29.2601   19.8530 H   0  0  0  0  0  0
  -25.1283  -36.1952   25.0835 H   0  0  0  0  0  0
  -21.0036  -28.3150   24.1327 H   0  0  0  0  0  0
  -20.5563  -26.2282   23.3500 H   0  0  0  0  0  0
  -21.6640  -26.7404   22.1165 H   0  0  0  0  0  0
  -19.6852  -25.6315   21.1110 H   0  0  0  0  0  0
  -19.6758  -27.3222   20.6620 H   0  0  0  0  0  0
  -17.4319  -26.7155   21.3595 H   0  0  0  0  0  0
  -17.9937  -26.0065   22.8550 H   0  0  0  0  0  0
  -19.7954  -30.7026   24.2715 H   0  0  0  0  0  0
  -17.5004  -31.6032   24.5609 H   0  0  0  0  0  0
  -15.5362  -30.2993   23.7649 H   0  0  0  0  0  0
  -15.8690  -28.0963   22.6788 H   0  0  0  0  0  0
  -24.5922  -30.7052   25.7832 H   0  0  0  0  0  0
  -24.8875  -32.2895   26.4892 H   0  0  0  0  0  0
  -25.8041  -30.8955   27.0288 H   0  0  0  0  0  0
  -26.2951  -29.6762   24.1251 H   0  0  0  0  0  0
  -27.4001  -29.7287   25.4787 H   0  0  0  0  0  0
  -27.8835  -30.4298   23.9526 H   0  0  0  0  0  0
  -27.2691  -33.3656   26.2081 H   0  0  0  0  0  0
  -28.3883  -32.6849   25.0358 H   0  0  0  0  0  0
  -28.0716  -31.8471   26.5472 H   0  0  0  0  0  0
  -28.2605  -38.0105   24.7513 H   0  0  0  0  0  0
  -28.1070  -36.2635   24.6283 H   0  0  0  0  0  0
  -27.2306  -37.1461   25.8869 H   0  0  0  0  0  0
  -20.9356  -29.8746   21.6866 H   0  0  0  0  0  0
  -26.0174  -38.2865   24.1390 H   0  0  0  0  0  0
  -31.4800  -16.5866   23.0285 H   0  0  0  0  0  0
  -30.1754  -17.8191   23.2235 H   0  0  0  0  0  0
  -25.5552  -24.2572   21.3019 H   0  0  0  0  0  0
  -25.9333  -24.0261   23.0009 H   0  0  0  0  0  0
  -29.7998  -19.0677   18.4082 H   0  0  0  0  0  0
  -31.4373  -18.8800   19.1961 H   0  0  0  0  0  0
  -28.3067  -23.8518   23.7243 H   0  0  0  0  0  0
  -29.6263  -24.2346   22.6250 H   0  0  0  0  0  0
  -28.4785  -16.2198   22.4715 H   0  0  0  0  0  0
  -29.6795  -15.0121   23.0668 H   0  0  0  0  0  0
  -30.1132  -24.2450   20.0707 H   0  0  0  0  0  0
  -29.0161  -23.6139   18.8978 H   0  0  0  0  0  0
  -27.4827  -25.7467   22.3698 H   0  0  0  0  0  0
  -28.6397  -18.0670   20.3637 H   0  0  0  0  0  0
  -30.7650  -20.2211   21.1626 H   0  0  0  0  0  0
  -26.6354  -22.2973   20.6647 H   0  0  0  0  0  0
  -31.5902  -17.2330   20.8040 H   0  0  0  0  0  0
  -28.6651  -21.7119   22.6566 H   0  0  0  0  0  0
  -27.2080  -24.6547   19.7959 H   0  0  0  0  0  0
  -26.4860  -20.4556   22.3731 H   0  0  0  0  0  0
  -25.0135  -21.4116   22.2328 H   0  0  0  0  0  0
  -26.0971  -21.6570   23.6006 H   0  0  0  0  0  0
  -28.0459  -20.8001   19.9160 H   0  0  0  0  0  0
  -29.3824  -21.3515   18.9795 H   0  0  0  0  0  0
  -30.1147  -22.4746   21.0767 H   0  0  0  0  0  0
  1 25  1  0  0  0
  1 30  2  0  0  0
  1 86  1  0  0  0
  2  3  1  0  0  0
  2 25  1  0  0  0
  2 88  1  0  0  0
  2 89  1  0  0  0
  3  4  1  0  0  0
  3 90  1  0  0  0
  3 91  1  0  0  0
  4  5  1  0  0  0
  4 92  1  0  0  0
  4 93  1  0  0  0
  5  6  1  0  0  0
  5 26  1  0  0  0
  5 94  1  0  0  0
  6 25  1  0  0  0
  6 95  1  0  0  0
  6 96  1  0  0  0
  7  8  2  0  0  0
  7 26  1  0  0  0
  7 29  1  0  0  0
  8  9  1  0  0  0
  8 22  1  0  0  0
  9 10  1  0  0  0
  9 27  2  0  0  0
 10 11  2  0  0  0
 10 15  1  0  0  0
 11 12  1  0  0  0
 11 97  1  0  0  0
 12 13  2  0  0  0
 12 98  1  0  0  0
 13 14  1  0  0  0
 13 31  1  0  0  0
 14 15  2  0  0  0
 14 99  1  0  0  0
 15100  1  0  0  0
 16 17  2  0  0  0
 16 21  1  0  0  0
 16 31  1  0  0  0
 17 18  1  0  0  0
 17101  1  0  0  0
 18 19  2  0  0  0
 18102  1  0  0  0
 19 20  1  0  0  0
 19 24  1  0  0  0
 20 21  2  0  0  0
 20103  1  0  0  0
 21 23  1  0  0  0
 22 28  1  0  0  0
 22 32  2  0  0  0
 26 27  1  0  0  0
 28104  1  0  0  0
 28105  1  0  0  0
 29106  1  0  0  0
 29107  1  0  0  0
 33 34  1  0  0  0
 33 66  1  0  0  0
 33 70  2  0  0  0
 34 36  1  0  0  0
 34 59  1  0  0  0
 34108  1  0  0  0
 35 44  2  0  0  0
 35 45  1  0  0  0
 35 68  1  0  0  0
 36 56  1  0  0  0
 36109  1  0  0  0
 37 39  1  0  0  0
 37 47  1  0  0  0
 37 66  1  0  0  0
 37110  1  0  0  0
 38 43  2  0  0  0
 38 46  1  0  0  0
 38 47  1  0  0  0
 39 64  1  0  0  0
 39 67  2  0  0  0
 40 52  1  0  0  0
 40 53  2  0  0  0
 40 58  1  0  0  0
 41111  1  0  0  0
 41112  1  0  0  0
 41113  1  0  0  0
 41 48  1  0  0  0
 42 43  1  0  0  0
 42 66  1  0  0  0
 42114  1  0  0  0
 42115  1  0  0  0
 43 44  1  0  0  0
 44116  1  0  0  0
 45 46  2  0  0  0
 45117  1  0  0  0
 46118  1  0  0  0
 47119  1  0  0  0
 47120  1  0  0  0
 48 56  1  0  0  0
 48 65  1  0  0  0
 48121  1  0  0  0
 49 50  1  0  0  0
 49 53  1  0  0  0
 49 64  1  0  0  0
 49122  1  0  0  0
 50 51  1  0  0  0
 50123  1  0  0  0
 50124  1  0  0  0
 51 52  1  0  0  0
 51125  1  0  0  0
 51126  1  0  0  0
 52127  1  0  0  0
 52128  1  0  0  0
 53 54  1  0  0  0
 54 55  2  0  0  0
 54129  1  0  0  0
 55 57  1  0  0  0
 55130  1  0  0  0
 56 69  2  0  0  0
 57 58  2  0  0  0
 57131  1  0  0  0
 58132  1  0  0  0
 59 60  1  0  0  0
 59 61  1  0  0  0
 59 62  1  0  0  0
 60133  1  0  0  0
 60134  1  0  0  0
 60135  1  0  0  0
 61136  1  0  0  0
 61137  1  0  0  0
 61138  1  0  0  0
 62139  1  0  0  0
 62140  1  0  0  0
 62141  1  0  0  0
 63 65  1  0  0  0
 63142  1  0  0  0
 63143  1  0  0  0
 63144  1  0  0  0
 64145  1  0  0  0
 65146  1  0  0  0
 68 83  1  0  0  0
 71 75  1  0  0  0
 71147  1  0  0  0
 71148  1  0  0  0
 71 81  1  0  0  0
 72 80  1  0  0  0
 72149  1  0  0  0
 72150  1  0  0  0
 72 77  1  0  0  0
 73 79  1  0  0  0
 73151  1  0  0  0
 73152  1  0  0  0
 73 78  1  0  0  0
 74 77  1  0  0  0
 74153  1  0  0  0
 74154  1  0  0  0
 74 82  1  0  0  0
 75 86  1  0  0  0
 75155  1  0  0  0
 75156  1  0  0  0
 76 83  1  0  0  0
 76 87  1  0  0  0
 76157  1  0  0  0
 76158  1  0  0  0
 77 83  1  0  0  0
 77159  1  0  0  0
 78 79  1  0  0  0
 78 81  1  0  0  0
 78160  1  0  0  0
 79 85  1  0  0  0
 79161  1  0  0  0
 80 82  1  0  0  0
 80 84  1  0  0  0
 80162  1  0  0  0
 81 86  1  0  0  0
 81163  1  0  0  0
 82 87  1  0  0  0
 82164  1  0  0  0
 83165  1  0  0  0
 84166  1  0  0  0
 84167  1  0  0  0
 84168  1  0  0  0
 85169  1  0  0  0
 85170  1  0  0  0
 85 87  1  0  0  0
 87171  1  0  0  0
M  CHG  1  87   1
M  ISO  4   1 100  68 101  83 101  86 100
M  END
> <chiral flag>
0

> <version>
0

> <s_m_source_file>
/data/baiqing/PycharmProjects/Reinvent-master-3.2/result/LINK_invent/BTK/process_docking_weight1_custom_sum_contain_oxygen_bond_distance_aromatic_linkinvent_7_9_3/rearranged_h_0199.sdf

> <i_m_source_file_index>
74

> <r_mmod_Potential_Energy-OPLS-2005>
404.372528076172

> <r_mmod_Stretch_Energy-OPLS-2005>
116.104858398438

> <r_mmod_Bend_Energy-OPLS-2005>
225.518142700195

> <r_mmod_Torsional_Energy-OPLS-2005>
437.26611328125

> <r_mmod_Improper_Torsional_Energy-OPLS-2005>
10.9972620010376

> <r_mmod_Van_der_Waal_Energy-OPLS-2005>
139.627044677734

> <r_mmod_Electrostatic_Energy-OPLS-2005>
-179.665908813477

> <r_mmod_Solvation_Energy-OPLS-2005>
-399.136444091797

> <b_mmod_Minimization_Converged-OPLS-2005>
0

> <r_mmod_RMS_Derivative-OPLS-2005>
5.34781360626221

$$$$
74
                    3D
 Structure written by MMmdl.
157166  0  0  1  0            999 V2000
  -30.7691  -14.6016   20.4653 C   0  0  0  0  0  0
  -30.4169  -12.3805   19.4530 C   0  0  0  0  0  0
  -29.4923  -12.4663   18.2247 C   0  0  0  0  0  0
  -28.0292  -12.3045   18.6591 C   0  0  0  0  0  0
  -27.6487  -13.2271   19.8508 C   0  0  2  0  0  0
  -28.7036  -13.1859   20.9817 C   0  0  0  0  0  0
  -25.2552  -13.8210   20.5696 C   0  0  0  0  0  0
  -24.1845  -13.0462   20.9225 C   0  0  0  0  0  0
  -24.6445  -11.6924   20.8860 C   0  0  0  0  0  0
  -23.9098  -10.4293   21.0496 C   0  0  0  0  0  0
  -24.3633   -9.4183   21.9246 C   0  0  0  0  0  0
  -23.6311   -8.2208   22.0769 C   0  0  0  0  0  0
  -22.4301   -8.0251   21.3558 C   0  0  0  0  0  0
  -21.9967   -9.0243   20.4690 C   0  0  0  0  0  0
  -22.7289  -10.2137   20.3132 C   0  0  0  0  0  0
  -21.6864   -6.0726   22.5274 C   0  0  0  0  0  0
  -21.3996   -6.5653   23.8206 C   0  0  0  0  0  0
  -21.3653   -5.6824   24.9168 C   0  0  0  0  0  0
  -21.6070   -4.3085   24.7254 C   0  0  0  0  0  0
  -21.8813   -3.8154   23.4389 C   0  0  0  0  0  0
  -21.9197   -4.6935   22.3433 C   0  0  0  0  0  0
  -22.7856  -13.5214   21.1830 C   0  0  0  0  0  0
  -22.1658   -4.2112   21.1006 F   0  0  0  0  0  0
  -21.5640   -3.4585   25.7796 F   0  0  0  0  0  0
  -30.0224  -13.4561   20.3871 N   0  0  0  0  0  0
  -26.3006  -12.9420   20.3390 N   0  0  0  0  0  0
  -25.9372  -11.6576   20.5896 N   0  0  0  0  0  0
  -22.0563  -12.8179   22.0399 N   0  0  0  0  0  0
  -25.4149  -15.1925   20.3972 N   0  0  0  0  0  0
  -31.9514  -14.6070   20.1148 O   0  0  0  0  0  0
  -21.6656   -6.8845   21.4229 O   0  0  0  0  0  0
  -22.3522  -14.5517   20.6664 O   0  0  0  0  0  0
  -24.6194  -31.8638   23.2078 C   0  0  0  0  0  0
  -25.9065  -32.4810   23.8391 C   0  0  1  0  0  0
  -27.2452  -27.4058   20.1358 C   0  0  0  0  0  0
  -25.5919  -33.8590   24.2319 N   0  0  0  0  0  0
  -23.4091  -30.4849   21.5455 C   0  0  2  0  0  0
  -24.8633  -28.9400   20.1185 C   0  0  0  0  0  0
  -22.7476  -29.4618   22.4970 C   0  0  0  0  0  0
  -18.0306  -28.1404   22.8491 C   0  0  0  0  0  0
  -24.1480  -36.7335   23.2642 C   0  0  0  0  0  0
  -25.9346  -30.8244   21.3622 C   0  0  0  0  0  0
  -26.0170  -29.4524   20.7214 C   0  0  0  0  0  0
  -27.2135  -28.6929   20.7238 C   0  0  0  0  0  0
  -26.0748  -26.9086   19.5241 C   0  0  0  0  0  0
  -24.8860  -27.6706   19.5126 C   0  0  0  0  0  0
  -23.6228  -29.8084   20.1629 C   0  0  0  0  0  0
  -25.4106  -36.3100   24.0331 C   0  0  1  0  0  0
  -20.5905  -28.3654   23.1351 C   0  0  2  0  0  0
  -20.6777  -26.9372   22.5477 C   0  0  0  0  0  0
  -19.5770  -26.6372   21.5277 C   0  0  0  0  0  0
  -18.1944  -26.7938   22.1647 C   0  0  0  0  0  0
  -19.1551  -28.8856   23.2914 C   0  0  0  0  0  0
  -18.9441  -30.1488   23.8875 C   0  0  0  0  0  0
  -17.6418  -30.6581   24.0552 C   0  0  0  0  0  0
  -25.9029  -34.9466   23.5110 C   0  0  0  0  0  0
  -16.5328  -29.9071   23.6329 C   0  0  0  0  0  0
  -16.7294  -28.6516   23.0296 C   0  0  0  0  0  0
  -26.4466  -31.6598   25.0735 C   0  0  0  0  0  0
  -25.3747  -31.3663   26.1505 C   0  0  0  0  0  0
  -27.0341  -30.3065   24.6112 C   0  0  0  0  0  0
  -27.6057  -32.4303   25.7484 C   0  0  0  0  0  0
  -27.5567  -37.1847   24.8467 C   0  0  0  0  0  0
  -21.4195  -29.3010   22.3737 N   0  0  0  0  0  0
  -26.4314  -37.3783   23.9364 N   0  0  0  0  0  0
  -24.6713  -31.0745   22.0980 N   0  0  0  0  0  0
  -23.4252  -28.8159   23.3016 O   0  0  0  0  0  0
  -28.4177  -26.6683   20.1124 O   0  0  0  0  0  0
  -26.5594  -34.8936   22.4681 O   0  0  0  0  0  0
  -23.5394  -32.1390   23.7495 O   0  0  0  0  0  0
  -28.2644  -20.3040   18.0847 C   0  0  0  0  0  0
  -28.8090  -19.1166   18.7026 C   0  0  0  0  0  0
  -28.1645  -21.4254   18.8141 C   0  0  0  0  0  0
  -29.2737  -19.1188   19.9752 C   0  0  0  0  0  0
  -29.3116  -20.4276   20.7088 C   0  0  0  0  0  0
  -30.9238  -17.1029   20.6470 C   0  0  0  0  0  0
  -28.9826  -16.4357   20.2804 C   0  0  0  0  0  0
  -29.5620  -17.7965   20.7643 C   0  0  0  0  0  0
  -28.6042  -24.1522   20.0900 C   0  0  0  0  0  0
  -28.4210  -22.8008   20.8746 C   0  0  0  0  0  0
  -28.4601  -25.4661   20.9198 C   0  0  0  0  0  0
  -28.6773  -21.5167   20.1260 N   0  0  0  0  0  0
  -30.2068  -15.8004   20.8002 N   0  0  0  0  0  0
  -29.8681  -20.5360   21.8087 O   0  0  0  0  0  0
  -31.4569  -12.4557   19.1272 H   0  0  0  0  0  0
  -30.3276  -11.4147   19.9474 H   0  0  0  0  0  0
  -29.7691  -11.6927   17.5052 H   0  0  0  0  0  0
  -29.6245  -13.4176   17.7093 H   0  0  0  0  0  0
  -27.8883  -11.2642   18.9506 H   0  0  0  0  0  0
  -27.3609  -12.4594   17.8109 H   0  0  0  0  0  0
  -27.6335  -14.2390   19.4498 H   0  0  0  0  0  0
  -28.7107  -12.2208   21.4915 H   0  0  0  0  0  0
  -28.4703  -13.9339   21.7411 H   0  0  0  0  0  0
  -25.2773   -9.5671   22.4851 H   0  0  0  0  0  0
  -24.0046   -7.4596   22.7498 H   0  0  0  0  0  0
  -21.0890   -8.8782   19.8989 H   0  0  0  0  0  0
  -22.3741  -10.9685   19.6268 H   0  0  0  0  0  0
  -21.1951   -7.6158   23.9664 H   0  0  0  0  0  0
  -21.1504   -6.0588   25.9059 H   0  0  0  0  0  0
  -22.0606   -2.7617   23.2939 H   0  0  0  0  0  0
  -22.4221  -11.9804   22.4711 H   0  0  0  0  0  0
  -21.1197  -13.1151   22.2639 H   0  0  0  0  0  0
  -24.6362  -15.8397   20.4732 H   0  0  0  0  0  0
  -26.2443  -15.6284   20.0196 H   0  0  0  0  0  0
  -26.7137  -32.5534   23.1163 H   0  0  0  0  0  0
  -25.0042  -33.9695   25.0438 H   0  0  0  0  0  0
  -22.6967  -31.3015   21.4029 H   0  0  0  0  0  0
  -23.3715  -35.9708   23.3365 H   0  0  0  0  0  0
  -24.3542  -36.8897   22.2044 H   0  0  0  0  0  0
  -23.7294  -37.6582   23.6622 H   0  0  0  0  0  0
  -26.0459  -31.5801   20.5819 H   0  0  0  0  0  0
  -26.8242  -30.8871   21.9797 H   0  0  0  0  0  0
  -28.1074  -29.0896   21.1838 H   0  0  0  0  0  0
  -26.0821  -25.9348   19.0558 H   0  0  0  0  0  0
  -24.0015  -27.2749   19.0408 H   0  0  0  0  0  0
  -23.7339  -30.5788   19.3992 H   0  0  0  0  0  0
  -22.7439  -29.2279   19.8702 H   0  0  0  0  0  0
  -25.1295  -36.1970   25.0837 H   0  0  0  0  0  0
  -20.9995  -28.3216   24.1476 H   0  0  0  0  0  0
  -20.5631  -26.2262   23.3686 H   0  0  0  0  0  0
  -21.6619  -26.7381   22.1231 H   0  0  0  0  0  0
  -19.6917  -25.6283   21.1319 H   0  0  0  0  0  0
  -19.6725  -27.3169   20.6819 H   0  0  0  0  0  0
  -17.4223  -26.6749   21.4047 H   0  0  0  0  0  0
  -18.0288  -26.0100   22.9036 H   0  0  0  0  0  0
  -19.7888  -30.7388   24.2155 H   0  0  0  0  0  0
  -17.4925  -31.6246   24.5146 H   0  0  0  0  0  0
  -15.5292  -30.2904   23.7617 H   0  0  0  0  0  0
  -15.8734  -28.0822   22.6929 H   0  0  0  0  0  0
  -24.5877  -30.7065   25.7812 H   0  0  0  0  0  0
  -24.9011  -32.2812   26.5077 H   0  0  0  0  0  0
  -25.8145  -30.8717   27.0186 H   0  0  0  0  0  0
  -26.2914  -29.6791   24.1193 H   0  0  0  0  0  0
  -27.4142  -29.7319   25.4564 H   0  0  0  0  0  0
  -27.8700  -30.4381   23.9252 H   0  0  0  0  0  0
  -27.2672  -33.3530   26.2201 H   0  0  0  0  0  0
  -28.3809  -32.7002   25.0294 H   0  0  0  0  0  0
  -28.0826  -31.8377   26.5295 H   0  0  0  0  0  0
  -28.2664  -38.0067   24.7419 H   0  0  0  0  0  0
  -28.1002  -36.2609   24.6427 H   0  0  0  0  0  0
  -27.2275  -37.1647   25.8875 H   0  0  0  0  0  0
  -20.9388  -29.8713   21.6920 H   0  0  0  0  0  0
  -26.0213  -38.2884   24.1310 H   0  0  0  0  0  0
  -27.8579  -20.2617   17.0813 H   0  0  0  0  0  0
  -28.7275  -18.1959   18.1416 H   0  0  0  0  0  0
  -27.6698  -22.3062   18.4388 H   0  0  0  0  0  0
  -31.4113  -17.2277   19.6734 H   0  0  0  0  0  0
  -31.6214  -17.3587   21.4512 H   0  0  0  0  0  0
  -28.0774  -16.1541   20.8174 H   0  0  0  0  0  0
  -28.8648  -16.2859   19.2004 H   0  0  0  0  0  0
  -29.3054  -17.9542   21.8146 H   0  0  0  0  0  0
  -27.8719  -24.2197   19.2922 H   0  0  0  0  0  0
  -29.5891  -24.1701   19.6167 H   0  0  0  0  0  0
  -27.3960  -22.7437   21.2411 H   0  0  0  0  0  0
  -29.0265  -22.8515   21.7797 H   0  0  0  0  0  0
  -29.3404  -25.5626   21.5610 H   0  0  0  0  0  0
  -27.6098  -25.4107   21.6040 H   0  0  0  0  0  0
  1 25  1  0  0  0
  1 30  2  0  0  0
  1 83  1  0  0  0
  2  3  1  0  0  0
  2 25  1  0  0  0
  2 85  1  0  0  0
  2 86  1  0  0  0
  3  4  1  0  0  0
  3 87  1  0  0  0
  3 88  1  0  0  0
  4  5  1  0  0  0
  4 89  1  0  0  0
  4 90  1  0  0  0
  5  6  1  0  0  0
  5 26  1  0  0  0
  5 91  1  0  0  0
  6 25  1  0  0  0
  6 92  1  0  0  0
  6 93  1  0  0  0
  7  8  2  0  0  0
  7 26  1  0  0  0
  7 29  1  0  0  0
  8  9  1  0  0  0
  8 22  1  0  0  0
  9 10  1  0  0  0
  9 27  2  0  0  0
 10 11  2  0  0  0
 10 15  1  0  0  0
 11 12  1  0  0  0
 11 94  1  0  0  0
 12 13  2  0  0  0
 12 95  1  0  0  0
 13 14  1  0  0  0
 13 31  1  0  0  0
 14 15  2  0  0  0
 14 96  1  0  0  0
 15 97  1  0  0  0
 16 17  2  0  0  0
 16 21  1  0  0  0
 16 31  1  0  0  0
 17 18  1  0  0  0
 17 98  1  0  0  0
 18 19  2  0  0  0
 18 99  1  0  0  0
 19 20  1  0  0  0
 19 24  1  0  0  0
 20 21  2  0  0  0
 20100  1  0  0  0
 21 23  1  0  0  0
 22 28  1  0  0  0
 22 32  2  0  0  0
 26 27  1  0  0  0
 28101  1  0  0  0
 28102  1  0  0  0
 29103  1  0  0  0
 29104  1  0  0  0
 33 34  1  0  0  0
 33 66  1  0  0  0
 33 70  2  0  0  0
 34 36  1  0  0  0
 34 59  1  0  0  0
 34105  1  0  0  0
 35 44  2  0  0  0
 35 45  1  0  0  0
 35 68  1  0  0  0
 36 56  1  0  0  0
 36106  1  0  0  0
 37 39  1  0  0  0
 37 47  1  0  0  0
 37 66  1  0  0  0
 37107  1  0  0  0
 38 43  2  0  0  0
 38 46  1  0  0  0
 38 47  1  0  0  0
 39 64  1  0  0  0
 39 67  2  0  0  0
 40 52  1  0  0  0
 40 53  2  0  0  0
 40 58  1  0  0  0
 41108  1  0  0  0
 41109  1  0  0  0
 41110  1  0  0  0
 41 48  1  0  0  0
 42 43  1  0  0  0
 42 66  1  0  0  0
 42111  1  0  0  0
 42112  1  0  0  0
 43 44  1  0  0  0
 44113  1  0  0  0
 45 46  2  0  0  0
 45114  1  0  0  0
 46115  1  0  0  0
 47116  1  0  0  0
 47117  1  0  0  0
 48 56  1  0  0  0
 48 65  1  0  0  0
 48118  1  0  0  0
 49 50  1  0  0  0
 49 53  1  0  0  0
 49 64  1  0  0  0
 49119  1  0  0  0
 50 51  1  0  0  0
 50120  1  0  0  0
 50121  1  0  0  0
 51 52  1  0  0  0
 51122  1  0  0  0
 51123  1  0  0  0
 52124  1  0  0  0
 52125  1  0  0  0
 53 54  1  0  0  0
 54 55  2  0  0  0
 54126  1  0  0  0
 55 57  1  0  0  0
 55127  1  0  0  0
 56 69  2  0  0  0
 57 58  2  0  0  0
 57128  1  0  0  0
 58129  1  0  0  0
 59 60  1  0  0  0
 59 61  1  0  0  0
 59 62  1  0  0  0
 60130  1  0  0  0
 60131  1  0  0  0
 60132  1  0  0  0
 61133  1  0  0  0
 61134  1  0  0  0
 61135  1  0  0  0
 62136  1  0  0  0
 62137  1  0  0  0
 62138  1  0  0  0
 63 65  1  0  0  0
 63139  1  0  0  0
 63140  1  0  0  0
 63141  1  0  0  0
 64142  1  0  0  0
 65143  1  0  0  0
 68 81  1  0  0  0
 71 72  1  0  0  0
 71 73  2  0  0  0
 71144  1  0  0  0
 72 74  2  0  0  0
 72145  1  0  0  0
 73 82  1  0  0  0
 73146  1  0  0  0
 74 75  1  0  0  0
 74 78  1  0  0  0
 75 82  1  0  0  0
 75 84  2  0  0  0
 76 78  1  0  0  0
 76 83  1  0  0  0
 76147  1  0  0  0
 76148  1  0  0  0
 77 78  1  0  0  0
 77 83  1  0  0  0
 77149  1  0  0  0
 77150  1  0  0  0
 78151  1  0  0  0
 79 80  1  0  0  0
 79 81  1  0  0  0
 79152  1  0  0  0
 79153  1  0  0  0
 80 82  1  0  0  0
 80154  1  0  0  0
 80155  1  0  0  0
 81156  1  0  0  0
 81157  1  0  0  0
M  ISO  4   1 100  68 101  81 101  83 100
M  END
> <chiral flag>
0

> <version>
0

> <s_m_source_file>
/data/baiqing/PycharmProjects/Reinvent-master-3.2/result/LINK_invent/BTK/process_docking_weight1_custom_sum_contain_oxygen_bond_distance_aromatic_linkinvent_7_9_3/rearranged_h_0199.sdf

> <i_m_source_file_index>
75

> <r_mmod_Potential_Energy-OPLS-2005>
199.825469970703

> <r_mmod_Stretch_Energy-OPLS-2005>
67.1011810302734

> <r_mmod_Bend_Energy-OPLS-2005>
143.179916381836

> <r_mmod_Torsional_Energy-OPLS-2005>
290.131011962891

> <r_mmod_Improper_Torsional_Energy-OPLS-2005>
9.82744026184082

> <r_mmod_Van_der_Waal_Energy-OPLS-2005>
152.358856201172

> <r_mmod_Electrostatic_Energy-OPLS-2005>
-284.467926025391

> <r_mmod_Solvation_Energy-OPLS-2005>
-217.678726196289

> <b_mmod_Minimization_Converged-OPLS-2005>
0

> <r_mmod_RMS_Derivative-OPLS-2005>
7.82285070419312

$$$$
75
                    3D
 Structure written by MMmdl.
162171  0  0  1  0            999 V2000
  -30.7327  -14.4760   20.5658 C   0  0  0  0  0  0
  -30.4158  -12.3089   19.4304 C   0  0  0  0  0  0
  -29.4944  -12.4993   18.2093 C   0  0  0  0  0  0
  -28.0168  -12.3508   18.6209 C   0  0  0  0  0  0
  -27.6567  -13.2039   19.8658 C   0  0  2  0  0  0
  -28.7003  -13.0282   20.9939 C   0  0  0  0  0  0
  -25.2562  -13.8138   20.5660 C   0  0  0  0  0  0
  -24.1823  -13.0423   20.9184 C   0  0  0  0  0  0
  -24.6381  -11.6894   20.8733 C   0  0  0  0  0  0
  -23.9047  -10.4281   21.0393 C   0  0  0  0  0  0
  -24.3601   -9.4203   21.9176 C   0  0  0  0  0  0
  -23.6289   -8.2238   22.0747 C   0  0  0  0  0  0
  -22.4273   -8.0272   21.3536 C   0  0  0  0  0  0
  -21.9896   -9.0240   20.4642 C   0  0  0  0  0  0
  -22.7218  -10.2125   20.3047 C   0  0  0  0  0  0
  -21.6853   -6.0728   22.5276 C   0  0  0  0  0  0
  -21.4011   -6.5634   23.8207 C   0  0  0  0  0  0
  -21.3656   -5.6791   24.9170 C   0  0  0  0  0  0
  -21.6042   -4.3052   24.7220 C   0  0  0  0  0  0
  -21.8824   -3.8141   23.4343 C   0  0  0  0  0  0
  -21.9194   -4.6956   22.3398 C   0  0  0  0  0  0
  -22.7849  -13.5229   21.1847 C   0  0  0  0  0  0
  -22.1666   -4.2140   21.0978 F   0  0  0  0  0  0
  -21.5630   -3.4538   25.7734 F   0  0  0  0  0  0
  -30.0328  -13.3134   20.4374 N   0  0  0  0  0  0
  -26.2996  -12.9309   20.3330 N   0  0  0  0  0  0
  -25.9307  -11.6472   20.5759 N   0  0  0  0  0  0
  -22.0488  -12.8229   22.0410 N   0  0  0  0  0  0
  -25.4247  -15.1858   20.4034 N   0  0  0  0  0  0
  -31.8687  -14.6131   20.1031 O   0  0  0  0  0  0
  -21.6636   -6.8870   21.4236 O   0  0  0  0  0  0
  -22.3533  -14.5530   20.6689 O   0  0  0  0  0  0
  -24.6122  -31.8693   23.2108 C   0  0  0  0  0  0
  -25.9021  -32.4827   23.8400 C   0  0  1  0  0  0
  -27.2340  -27.4440   20.0989 C   0  0  0  0  0  0
  -25.5887  -33.8621   24.2336 N   0  0  0  0  0  0
  -23.4013  -30.4919   21.5505 C   0  0  2  0  0  0
  -24.8504  -28.9581   20.1149 C   0  0  0  0  0  0
  -22.7403  -29.4663   22.4990 C   0  0  0  0  0  0
  -18.0276  -28.1381   22.8503 C   0  0  0  0  0  0
  -24.1484  -36.7310   23.2641 C   0  0  0  0  0  0
  -25.9284  -30.8372   21.3632 C   0  0  0  0  0  0
  -26.0083  -29.4705   20.7147 C   0  0  0  0  0  0
  -27.2054  -28.7184   20.7105 C   0  0  0  0  0  0
  -26.0657  -26.9455   19.4885 C   0  0  0  0  0  0
  -24.8727  -27.6931   19.5004 C   0  0  0  0  0  0
  -23.6105  -29.8228   20.1654 C   0  0  0  0  0  0
  -25.4102  -36.3107   24.0347 C   0  0  1  0  0  0
  -20.5866  -28.3659   23.1333 C   0  0  2  0  0  0
  -20.6768  -26.9398   22.5425 C   0  0  0  0  0  0
  -19.5744  -26.6388   21.5226 C   0  0  0  0  0  0
  -18.1922  -26.7933   22.1631 C   0  0  0  0  0  0
  -19.1526  -28.8837   23.2916 C   0  0  0  0  0  0
  -18.9452  -30.1449   23.8917 C   0  0  0  0  0  0
  -17.6455  -30.6587   24.0572 C   0  0  0  0  0  0
  -25.9026  -34.9474   23.5137 C   0  0  0  0  0  0
  -16.5345  -29.9092   23.6324 C   0  0  0  0  0  0
  -16.7266  -28.6512   23.0343 C   0  0  0  0  0  0
  -26.4460  -31.6596   25.0715 C   0  0  0  0  0  0
  -25.3742  -31.3710   26.1480 C   0  0  0  0  0  0
  -27.0272  -30.3039   24.6067 C   0  0  0  0  0  0
  -27.6039  -32.4313   25.7466 C   0  0  0  0  0  0
  -27.5582  -37.1806   24.8468 C   0  0  0  0  0  0
  -21.4133  -29.3025   22.3734 N   0  0  0  0  0  0
  -26.4290  -37.3789   23.9415 N   0  0  0  0  0  0
  -24.6655  -31.0802   22.1005 N   0  0  0  0  0  0
  -23.4181  -28.8208   23.3031 O   0  0  0  0  0  0
  -28.3654  -26.6628   20.0948 O   0  0  0  0  0  0
  -26.5586  -34.8929   22.4694 O   0  0  0  0  0  0
  -23.5318  -32.1442   23.7508 O   0  0  0  0  0  0
  -31.2478  -22.2570   20.4756 C   0  0  0  0  0  0
  -31.3502  -20.8497   19.8822 C   0  0  0  0  0  0
  -30.8268  -16.7204   21.6287 C   0  0  0  0  0  0
  -29.1626  -16.3533   20.3874 C   0  0  0  0  0  0
  -29.2894  -20.9026   20.8853 C   0  0  0  0  0  0
  -29.7632  -17.6190   20.9961 C   0  0  0  0  0  0
  -29.8945  -22.2935   21.1957 C   0  0  2  0  0  0
  -30.1745  -18.7527   20.0370 C   0  0  0  0  0  0
  -29.5808  -24.7877   21.1953 C   0  0  0  0  0  0
  -28.5103  -25.9023   21.2999 C   0  0  0  0  0  0
  -30.1029  -15.5226   21.1558 N   0  0  0  0  0  0
  -30.4590  -20.0332   20.7022 N   0  0  0  0  0  0
  -29.0449  -23.4528   20.7950 N   0  3  0  0  0  0
  -31.4619  -12.3886   19.1294 H   0  0  0  0  0  0
  -30.3042  -11.3046   19.8424 H   0  0  0  0  0  0
  -29.7414  -11.7716   17.4353 H   0  0  0  0  0  0
  -29.6597  -13.4839   17.7685 H   0  0  0  0  0  0
  -27.8356  -11.2964   18.8310 H   0  0  0  0  0  0
  -27.3648  -12.6092   17.7856 H   0  0  0  0  0  0
  -27.6839  -14.2394   19.5344 H   0  0  0  0  0  0
  -28.6770  -12.0087   21.3810 H   0  0  0  0  0  0
  -28.4636  -13.6735   21.8406 H   0  0  0  0  0  0
  -25.2743   -9.5693   22.4751 H   0  0  0  0  0  0
  -24.0002   -7.4624   22.7465 H   0  0  0  0  0  0
  -21.0826   -8.8748   19.8952 H   0  0  0  0  0  0
  -22.3662  -10.9655   19.6156 H   0  0  0  0  0  0
  -21.2002   -7.6144   23.9711 H   0  0  0  0  0  0
  -21.1474   -6.0516   25.9074 H   0  0  0  0  0  0
  -22.0608   -2.7606   23.2839 H   0  0  0  0  0  0
  -22.4104  -11.9893   22.4803 H   0  0  0  0  0  0
  -21.1103  -13.1251   22.2603 H   0  0  0  0  0  0
  -24.6566  -15.8394   20.5090 H   0  0  0  0  0  0
  -26.2737  -15.6222   20.0709 H   0  0  0  0  0  0
  -26.7091  -32.5549   23.1166 H   0  0  0  0  0  0
  -25.0044  -33.9783   25.0489 H   0  0  0  0  0  0
  -22.6896  -31.3085   21.4111 H   0  0  0  0  0  0
  -23.3742  -35.9646   23.3306 H   0  0  0  0  0  0
  -24.3591  -36.8914   22.2056 H   0  0  0  0  0  0
  -23.7239  -37.6519   23.6646 H   0  0  0  0  0  0
  -26.0374  -31.6008   20.5919 H   0  0  0  0  0  0
  -26.8175  -30.8946   21.9790 H   0  0  0  0  0  0
  -28.0981  -29.1097   21.1782 H   0  0  0  0  0  0
  -26.0775  -25.9738   19.0151 H   0  0  0  0  0  0
  -23.9815  -27.2940   19.0352 H   0  0  0  0  0  0
  -23.7173  -30.5975   19.4053 H   0  0  0  0  0  0
  -22.7354  -29.2409   19.8703 H   0  0  0  0  0  0
  -25.1280  -36.1964   25.0841 H   0  0  0  0  0  0
  -20.9965  -28.3215   24.1452 H   0  0  0  0  0  0
  -20.5690  -26.2258   23.3603 H   0  0  0  0  0  0
  -21.6634  -26.7455   22.1200 H   0  0  0  0  0  0
  -19.6900  -25.6304   21.1241 H   0  0  0  0  0  0
  -19.6688  -27.3213   20.6770 H   0  0  0  0  0  0
  -17.4196  -26.6693   21.4023 H   0  0  0  0  0  0
  -18.0312  -26.0073   22.9022 H   0  0  0  0  0  0
  -19.7929  -30.7268   24.2278 H   0  0  0  0  0  0
  -17.5011  -31.6267   24.5175 H   0  0  0  0  0  0
  -15.5348  -30.2998   23.7649 H   0  0  0  0  0  0
  -15.8666  -28.0848   22.7026 H   0  0  0  0  0  0
  -24.5871  -30.7108   25.7821 H   0  0  0  0  0  0
  -24.8988  -32.2874   26.4984 H   0  0  0  0  0  0
  -25.8109  -30.8823   27.0199 H   0  0  0  0  0  0
  -26.2795  -29.6810   24.1141 H   0  0  0  0  0  0
  -27.4071  -29.7267   25.4506 H   0  0  0  0  0  0
  -27.8623  -30.4363   23.9184 H   0  0  0  0  0  0
  -27.2659  -33.3602   26.2071 H   0  0  0  0  0  0
  -28.3826  -32.6894   25.0276 H   0  0  0  0  0  0
  -28.0727  -31.8419   26.5356 H   0  0  0  0  0  0
  -28.2598  -38.0104   24.7508 H   0  0  0  0  0  0
  -28.1078  -36.2634   24.6292 H   0  0  0  0  0  0
  -27.2308  -37.1449   25.8875 H   0  0  0  0  0  0
  -20.9285  -29.8731   21.6952 H   0  0  0  0  0  0
  -26.0178  -38.2867   24.1414 H   0  0  0  0  0  0
  -31.3442  -23.0081   19.6912 H   0  0  0  0  0  0
  -32.0534  -22.4311   21.1903 H   0  0  0  0  0  0
  -32.3741  -20.4722   19.8851 H   0  0  0  0  0  0
  -31.0032  -20.8642   18.8464 H   0  0  0  0  0  0
  -30.8720  -16.8129   22.7146 H   0  0  0  0  0  0
  -31.8179  -16.8708   21.1947 H   0  0  0  0  0  0
  -29.2899  -16.2925   19.3035 H   0  0  0  0  0  0
  -28.1184  -16.2141   20.6651 H   0  0  0  0  0  0
  -28.7072  -20.9406   19.9621 H   0  0  0  0  0  0
  -28.6335  -20.5451   21.6810 H   0  0  0  0  0  0
  -29.0809  -17.9747   21.7705 H   0  0  0  0  0  0
  -30.0708  -22.3445   22.2718 H   0  0  0  0  0  0
  -29.4176  -18.8974   19.2640 H   0  0  0  0  0  0
  -31.0700  -18.4312   19.5004 H   0  0  0  0  0  0
  -30.0261  -24.6823   22.1855 H   0  0  0  0  0  0
  -30.3906  -25.0971   20.5341 H   0  0  0  0  0  0
  -28.8141  -26.6009   22.0809 H   0  0  0  0  0  0
  -27.5561  -25.4840   21.6267 H   0  0  0  0  0  0
  -28.1499  -23.3239   21.2417 H   0  0  0  0  0  0
  -28.8829  -23.4386   19.7993 H   0  0  0  0  0  0
  1 25  1  0  0  0
  1 30  2  0  0  0
  1 81  1  0  0  0
  2  3  1  0  0  0
  2 25  1  0  0  0
  2 84  1  0  0  0
  2 85  1  0  0  0
  3  4  1  0  0  0
  3 86  1  0  0  0
  3 87  1  0  0  0
  4  5  1  0  0  0
  4 88  1  0  0  0
  4 89  1  0  0  0
  5  6  1  0  0  0
  5 26  1  0  0  0
  5 90  1  0  0  0
  6 25  1  0  0  0
  6 91  1  0  0  0
  6 92  1  0  0  0
  7  8  2  0  0  0
  7 26  1  0  0  0
  7 29  1  0  0  0
  8  9  1  0  0  0
  8 22  1  0  0  0
  9 10  1  0  0  0
  9 27  2  0  0  0
 10 11  2  0  0  0
 10 15  1  0  0  0
 11 12  1  0  0  0
 11 93  1  0  0  0
 12 13  2  0  0  0
 12 94  1  0  0  0
 13 14  1  0  0  0
 13 31  1  0  0  0
 14 15  2  0  0  0
 14 95  1  0  0  0
 15 96  1  0  0  0
 16 17  2  0  0  0
 16 21  1  0  0  0
 16 31  1  0  0  0
 17 18  1  0  0  0
 17 97  1  0  0  0
 18 19  2  0  0  0
 18 98  1  0  0  0
 19 20  1  0  0  0
 19 24  1  0  0  0
 20 21  2  0  0  0
 20 99  1  0  0  0
 21 23  1  0  0  0
 22 28  1  0  0  0
 22 32  2  0  0  0
 26 27  1  0  0  0
 28100  1  0  0  0
 28101  1  0  0  0
 29102  1  0  0  0
 29103  1  0  0  0
 33 34  1  0  0  0
 33 66  1  0  0  0
 33 70  2  0  0  0
 34 36  1  0  0  0
 34 59  1  0  0  0
 34104  1  0  0  0
 35 44  2  0  0  0
 35 45  1  0  0  0
 35 68  1  0  0  0
 36 56  1  0  0  0
 36105  1  0  0  0
 37 39  1  0  0  0
 37 47  1  0  0  0
 37 66  1  0  0  0
 37106  1  0  0  0
 38 43  2  0  0  0
 38 46  1  0  0  0
 38 47  1  0  0  0
 39 64  1  0  0  0
 39 67  2  0  0  0
 40 52  1  0  0  0
 40 53  2  0  0  0
 40 58  1  0  0  0
 41107  1  0  0  0
 41108  1  0  0  0
 41109  1  0  0  0
 41 48  1  0  0  0
 42 43  1  0  0  0
 42 66  1  0  0  0
 42110  1  0  0  0
 42111  1  0  0  0
 43 44  1  0  0  0
 44112  1  0  0  0
 45 46  2  0  0  0
 45113  1  0  0  0
 46114  1  0  0  0
 47115  1  0  0  0
 47116  1  0  0  0
 48 56  1  0  0  0
 48 65  1  0  0  0
 48117  1  0  0  0
 49 50  1  0  0  0
 49 53  1  0  0  0
 49 64  1  0  0  0
 49118  1  0  0  0
 50 51  1  0  0  0
 50119  1  0  0  0
 50120  1  0  0  0
 51 52  1  0  0  0
 51121  1  0  0  0
 51122  1  0  0  0
 52123  1  0  0  0
 52124  1  0  0  0
 53 54  1  0  0  0
 54 55  2  0  0  0
 54125  1  0  0  0
 55 57  1  0  0  0
 55126  1  0  0  0
 56 69  2  0  0  0
 57 58  2  0  0  0
 57127  1  0  0  0
 58128  1  0  0  0
 59 60  1  0  0  0
 59 61  1  0  0  0
 59 62  1  0  0  0
 60129  1  0  0  0
 60130  1  0  0  0
 60131  1  0  0  0
 61132  1  0  0  0
 61133  1  0  0  0
 61134  1  0  0  0
 62135  1  0  0  0
 62136  1  0  0  0
 62137  1  0  0  0
 63 65  1  0  0  0
 63138  1  0  0  0
 63139  1  0  0  0
 63140  1  0  0  0
 64141  1  0  0  0
 65142  1  0  0  0
 68 80  1  0  0  0
 71 72  1  0  0  0
 71 77  1  0  0  0
 71143  1  0  0  0
 71144  1  0  0  0
 72 82  1  0  0  0
 72145  1  0  0  0
 72146  1  0  0  0
 73 76  1  0  0  0
 73 81  1  0  0  0
 73147  1  0  0  0
 73148  1  0  0  0
 74 76  1  0  0  0
 74 81  1  0  0  0
 74149  1  0  0  0
 74150  1  0  0  0
 75 77  1  0  0  0
 75 82  1  0  0  0
 75151  1  0  0  0
 75152  1  0  0  0
 76 78  1  0  0  0
 76153  1  0  0  0
 77 83  1  0  0  0
 77154  1  0  0  0
 78 82  1  0  0  0
 78155  1  0  0  0
 78156  1  0  0  0
 79 80  1  0  0  0
 79 83  1  0  0  0
 79157  1  0  0  0
 79158  1  0  0  0
 80159  1  0  0  0
 80160  1  0  0  0
 83161  1  0  0  0
 83162  1  0  0  0
M  CHG  1  83   1
M  ISO  4   1 100  68 101  80 101  81 100
M  END
> <chiral flag>
0

> <version>
0

> <s_m_source_file>
/data/baiqing/PycharmProjects/Reinvent-master-3.2/result/LINK_invent/BTK/process_docking_weight1_custom_sum_contain_oxygen_bond_distance_aromatic_linkinvent_7_9_3/rearranged_h_0199.sdf

> <i_m_source_file_index>
76

> <r_mmod_Potential_Energy-OPLS-2005>
34.5243721008301

> <r_mmod_Stretch_Energy-OPLS-2005>
37.39453125

> <r_mmod_Bend_Energy-OPLS-2005>
118.852752685547

> <r_mmod_Torsional_Energy-OPLS-2005>
381.220916748047

> <r_mmod_Improper_Torsional_Energy-OPLS-2005>
9.21949672698975

> <r_mmod_Van_der_Waal_Energy-OPLS-2005>
127.739486694336

> <r_mmod_Electrostatic_Energy-OPLS-2005>
-198.108551025391

> <r_mmod_Solvation_Energy-OPLS-2005>
-456.122161865234

> <b_mmod_Minimization_Converged-OPLS-2005>
0

> <r_mmod_RMS_Derivative-OPLS-2005>
1.12239038944244

$$$$
76
                    3D
 Structure written by MMmdl.
164173  0  0  1  0            999 V2000
  -30.5453  -15.0626   20.4153 C   0  0  0  0  0  0
  -30.4378  -12.6786   19.4916 C   0  0  0  0  0  0
  -29.5149  -12.5416   18.2577 C   0  0  0  0  0  0
  -28.0574  -12.3000   18.6901 C   0  0  0  0  0  0
  -27.6216  -13.2483   19.8351 C   0  0  2  0  0  0
  -28.6738  -13.3222   20.9634 C   0  0  0  0  0  0
  -25.2407  -13.8183   20.5740 C   0  0  0  0  0  0
  -24.1740  -13.0404   20.9249 C   0  0  0  0  0  0
  -24.6379  -11.6902   20.8782 C   0  0  0  0  0  0
  -23.9069  -10.4274   21.0419 C   0  0  0  0  0  0
  -24.3620   -9.4189   21.9191 C   0  0  0  0  0  0
  -23.6291   -8.2227   22.0758 C   0  0  0  0  0  0
  -22.4273   -8.0272   21.3545 C   0  0  0  0  0  0
  -21.9912   -9.0245   20.4647 C   0  0  0  0  0  0
  -22.7247  -10.2120   20.3058 C   0  0  0  0  0  0
  -21.6850   -6.0727   22.5277 C   0  0  0  0  0  0
  -21.4008   -6.5633   23.8208 C   0  0  0  0  0  0
  -21.3658   -5.6788   24.9172 C   0  0  0  0  0  0
  -21.6045   -4.3051   24.7223 C   0  0  0  0  0  0
  -21.8821   -3.8139   23.4346 C   0  0  0  0  0  0
  -21.9191   -4.6955   22.3400 C   0  0  0  0  0  0
  -22.7763  -13.5179   21.1894 C   0  0  0  0  0  0
  -22.1662   -4.2143   21.0978 F   0  0  0  0  0  0
  -21.5632   -3.4535   25.7734 F   0  0  0  0  0  0
  -29.9194  -13.8008   20.3422 N   0  0  0  0  0  0
  -26.2852  -12.9432   20.3291 N   0  0  0  0  0  0
  -25.9316  -11.6561   20.5786 N   0  0  0  0  0  0
  -22.0416  -12.8167   22.0451 N   0  0  0  0  0  0
  -25.3981  -15.1909   20.4156 N   0  0  0  0  0  0
  -31.7599  -15.0444   20.1761 O   0  0  0  0  0  0
  -21.6638   -6.8869   21.4239 O   0  0  0  0  0  0
  -22.3451  -14.5490   20.6744 O   0  0  0  0  0  0
  -24.6506  -31.8373   23.1837 C   0  0  0  0  0  0
  -25.9245  -32.4666   23.8249 C   0  0  1  0  0  0
  -27.2159  -27.0649   20.1551 C   0  0  0  0  0  0
  -25.5966  -33.8474   24.2159 N   0  0  0  0  0  0
  -23.4587  -30.4566   21.5307 C   0  0  2  0  0  0
  -24.9098  -28.8757   20.1089 C   0  0  0  0  0  0
  -22.7615  -29.4513   22.4829 C   0  0  0  0  0  0
  -18.0309  -28.1405   22.8483 C   0  0  0  0  0  0
  -24.1479  -36.7228   23.2647 C   0  0  0  0  0  0
  -26.0210  -30.6876   21.3954 C   0  0  0  0  0  0
  -26.0907  -29.2928   20.7359 C   0  0  0  0  0  0
  -27.2425  -28.4052   20.7428 C   0  0  0  0  0  0
  -26.0077  -26.7774   19.4767 C   0  0  0  0  0  0
  -24.8858  -27.6334   19.4624 C   0  0  0  0  0  0
  -23.6904  -29.7867   20.1506 C   0  0  0  0  0  0
  -25.4117  -36.3011   24.0319 C   0  0  1  0  0  0
  -20.5929  -28.3734   23.1217 C   0  0  2  0  0  0
  -20.6788  -26.9431   22.5396 C   0  0  0  0  0  0
  -19.5755  -26.6381   21.5214 C   0  0  0  0  0  0
  -18.1938  -26.7944   22.1622 C   0  0  0  0  0  0
  -19.1572  -28.8888   23.2840 C   0  0  0  0  0  0
  -18.9491  -30.1485   23.8866 C   0  0  0  0  0  0
  -17.6487  -30.6603   24.0562 C   0  0  0  0  0  0
  -25.9080  -34.9394   23.5045 C   0  0  0  0  0  0
  -16.5373  -29.9096   23.6348 C   0  0  0  0  0  0
  -16.7294  -28.6512   23.0372 C   0  0  0  0  0  0
  -26.4535  -31.6571   25.0727 C   0  0  0  0  0  0
  -25.3702  -31.3784   26.1413 C   0  0  0  0  0  0
  -27.0427  -30.2964   24.6363 C   0  0  0  0  0  0
  -27.6038  -32.4367   25.7520 C   0  0  0  0  0  0
  -27.5562  -37.1772   24.8473 C   0  0  0  0  0  0
  -21.4293  -29.3053   22.3586 N   0  0  0  0  0  0
  -26.4267  -37.3741   23.9425 N   0  0  0  0  0  0
  -24.7309  -31.0168   22.0911 N   0  0  0  0  0  0
  -23.4225  -28.8050   23.2997 O   0  0  0  0  0  0
  -28.2262  -26.0091   20.2402 O   0  0  0  0  0  0
  -26.5665  -34.8908   22.4626 O   0  0  0  0  0  0
  -23.5607  -32.1268   23.7017 O   0  0  0  0  0  0
  -30.3215  -21.4701   20.8596 C   0  0  0  0  0  0
  -29.9936  -22.8870   20.8053 C   0  0  0  0  0  0
  -29.3151  -20.6661   20.3692 C   0  0  0  0  0  0
  -28.7423  -23.1157   20.2809 C   0  0  0  0  0  0
  -28.2247  -18.2018   21.0486 C   0  0  0  0  0  0
  -28.4601  -16.6517   20.8303 C   0  0  0  0  0  0
  -30.3876  -17.8234   20.2968 C   0  0  0  0  0  0
  -29.2125  -18.9946   20.1768 C   0  0  2  0  0  0
  -23.5696  -20.7445   20.9718 C   0  0  0  0  0  0
  -27.8409  -24.4962   19.9684 C   0  0  0  0  0  0
  -27.0418  -21.3888   19.4528 C   0  0  0  0  0  0
  -25.9460  -21.2879   20.5308 C   0  0  0  0  0  0
  -28.3407  -21.7166   20.0267 N   0  0  0  0  0  0
  -29.8662  -16.3523   20.4894 N   0  0  0  0  0  0
  -24.6389  -20.8903   19.9653 N   0  3  0  0  0  0
  -31.4606  -12.8543   19.1546 H   0  0  0  0  0  0
  -30.4749  -11.7449   20.0549 H   0  0  0  0  0  0
  -29.8551  -11.7259   17.6180 H   0  0  0  0  0  0
  -29.5710  -13.4491   17.6540 H   0  0  0  0  0  0
  -27.9822  -11.2649   19.0255 H   0  0  0  0  0  0
  -27.3833  -12.3936   17.8376 H   0  0  0  0  0  0
  -27.5627  -14.2310   19.3716 H   0  0  0  0  0  0
  -28.8117  -12.3456   21.4301 H   0  0  0  0  0  0
  -28.3544  -13.9829   21.7661 H   0  0  0  0  0  0
  -25.2760   -9.5664   22.4774 H   0  0  0  0  0  0
  -23.9997   -7.4613   22.7474 H   0  0  0  0  0  0
  -21.0844   -8.8763   19.8949 H   0  0  0  0  0  0
  -22.3706  -10.9661   19.6171 H   0  0  0  0  0  0
  -21.1998   -7.6141   23.9709 H   0  0  0  0  0  0
  -21.1479   -6.0517   25.9074 H   0  0  0  0  0  0
  -22.0602   -2.7601   23.2843 H   0  0  0  0  0  0
  -22.4039  -11.9825   22.4825 H   0  0  0  0  0  0
  -21.1034  -13.1184   22.2666 H   0  0  0  0  0  0
  -24.6231  -15.8341   20.5319 H   0  0  0  0  0  0
  -26.2452  -15.6400   20.0982 H   0  0  0  0  0  0
  -26.7314  -32.5241   23.0972 H   0  0  0  0  0  0
  -25.0118  -33.9579   25.0310 H   0  0  0  0  0  0
  -22.7661  -31.2858   21.3731 H   0  0  0  0  0  0
  -23.3759  -35.9539   23.3287 H   0  0  0  0  0  0
  -24.3556  -36.8877   22.2064 H   0  0  0  0  0  0
  -23.7207  -37.6407   23.6697 H   0  0  0  0  0  0
  -26.1880  -31.4386   20.6221 H   0  0  0  0  0  0
  -26.8871  -30.7377   22.0434 H   0  0  0  0  0  0
  -28.1360  -28.7194   21.2646 H   0  0  0  0  0  0
  -25.8803  -25.8364   18.9658 H   0  0  0  0  0  0
  -23.9886  -27.3101   18.9524 H   0  0  0  0  0  0
  -23.8355  -30.5615   19.3969 H   0  0  0  0  0  0
  -22.8032  -29.2353   19.8344 H   0  0  0  0  0  0
  -25.1305  -36.1820   25.0810 H   0  0  0  0  0  0
  -21.0021  -28.3314   24.1340 H   0  0  0  0  0  0
  -20.5671  -26.2353   23.3624 H   0  0  0  0  0  0
  -21.6654  -26.7423   22.1195 H   0  0  0  0  0  0
  -19.6912  -25.6283   21.1263 H   0  0  0  0  0  0
  -19.6687  -27.3179   20.6735 H   0  0  0  0  0  0
  -17.4209  -26.6706   21.4022 H   0  0  0  0  0  0
  -18.0321  -26.0089   22.9016 H   0  0  0  0  0  0
  -19.7970  -30.7311   24.2210 H   0  0  0  0  0  0
  -17.5047  -31.6283   24.5167 H   0  0  0  0  0  0
  -15.5375  -30.2994   23.7699 H   0  0  0  0  0  0
  -15.8687  -28.0824   22.7112 H   0  0  0  0  0  0
  -24.5888  -30.7124   25.7739 H   0  0  0  0  0  0
  -24.8889  -32.2982   26.4754 H   0  0  0  0  0  0
  -25.7973  -30.9016   27.0246 H   0  0  0  0  0  0
  -26.3080  -29.6670   24.1334 H   0  0  0  0  0  0
  -27.3991  -29.7282   25.4964 H   0  0  0  0  0  0
  -27.9000  -30.4202   23.9743 H   0  0  0  0  0  0
  -27.2607  -33.3700   26.1997 H   0  0  0  0  0  0
  -28.3899  -32.6877   25.0389 H   0  0  0  0  0  0
  -28.0652  -31.8567   26.5520 H   0  0  0  0  0  0
  -28.2573  -38.0078   24.7527 H   0  0  0  0  0  0
  -28.1060  -36.2606   24.6280 H   0  0  0  0  0  0
  -27.2287  -37.1399   25.8878 H   0  0  0  0  0  0
  -20.9512  -29.8790   21.6777 H   0  0  0  0  0  0
  -26.0118  -38.2797   24.1450 H   0  0  0  0  0  0
  -31.2567  -21.0732   21.2324 H   0  0  0  0  0  0
  -30.6470  -23.6857   21.1313 H   0  0  0  0  0  0
  -28.4123  -18.4453   22.0954 H   0  0  0  0  0  0
  -27.1899  -18.4728   20.8433 H   0  0  0  0  0  0
  -27.8546  -16.3276   19.9871 H   0  0  0  0  0  0
  -28.1335  -16.1075   21.7146 H   0  0  0  0  0  0
  -31.0133  -18.0454   21.1621 H   0  0  0  0  0  0
  -31.0492  -17.8655   19.4309 H   0  0  0  0  0  0
  -28.8498  -18.8713   19.1557 H   0  0  0  0  0  0
  -22.6365  -20.4468   20.4929 H   0  0  0  0  0  0
  -23.3929  -21.6837   21.4969 H   0  0  0  0  0  0
  -23.8259  -19.9823   21.7085 H   0  0  0  0  0  0
  -26.8870  -24.3514   20.4749 H   0  0  0  0  0  0
  -27.6051  -24.4568   18.9048 H   0  0  0  0  0  0
  -26.7838  -22.1444   18.7104 H   0  0  0  0  0  0
  -27.1272  -20.4495   18.9067 H   0  0  0  0  0  0
  -25.8381  -22.2449   21.0422 H   0  0  0  0  0  0
  -26.2421  -20.5652   21.2913 H   0  0  0  0  0  0
  -24.3439  -21.5766   19.2894 H   0  0  0  0  0  0
  -24.7364  -20.0111   19.4833 H   0  0  0  0  0  0
  1 25  1  0  0  0
  1 30  2  0  0  0
  1 84  1  0  0  0
  2  3  1  0  0  0
  2 25  1  0  0  0
  2 86  1  0  0  0
  2 87  1  0  0  0
  3  4  1  0  0  0
  3 88  1  0  0  0
  3 89  1  0  0  0
  4  5  1  0  0  0
  4 90  1  0  0  0
  4 91  1  0  0  0
  5  6  1  0  0  0
  5 26  1  0  0  0
  5 92  1  0  0  0
  6 25  1  0  0  0
  6 93  1  0  0  0
  6 94  1  0  0  0
  7  8  2  0  0  0
  7 26  1  0  0  0
  7 29  1  0  0  0
  8  9  1  0  0  0
  8 22  1  0  0  0
  9 10  1  0  0  0
  9 27  2  0  0  0
 10 11  2  0  0  0
 10 15  1  0  0  0
 11 12  1  0  0  0
 11 95  1  0  0  0
 12 13  2  0  0  0
 12 96  1  0  0  0
 13 14  1  0  0  0
 13 31  1  0  0  0
 14 15  2  0  0  0
 14 97  1  0  0  0
 15 98  1  0  0  0
 16 17  2  0  0  0
 16 21  1  0  0  0
 16 31  1  0  0  0
 17 18  1  0  0  0
 17 99  1  0  0  0
 18 19  2  0  0  0
 18100  1  0  0  0
 19 20  1  0  0  0
 19 24  1  0  0  0
 20 21  2  0  0  0
 20101  1  0  0  0
 21 23  1  0  0  0
 22 28  1  0  0  0
 22 32  2  0  0  0
 26 27  1  0  0  0
 28102  1  0  0  0
 28103  1  0  0  0
 29104  1  0  0  0
 29105  1  0  0  0
 33 34  1  0  0  0
 33 66  1  0  0  0
 33 70  2  0  0  0
 34 36  1  0  0  0
 34 59  1  0  0  0
 34106  1  0  0  0
 35 44  2  0  0  0
 35 45  1  0  0  0
 35 68  1  0  0  0
 36 56  1  0  0  0
 36107  1  0  0  0
 37 39  1  0  0  0
 37 47  1  0  0  0
 37 66  1  0  0  0
 37108  1  0  0  0
 38 43  2  0  0  0
 38 46  1  0  0  0
 38 47  1  0  0  0
 39 64  1  0  0  0
 39 67  2  0  0  0
 40 52  1  0  0  0
 40 53  2  0  0  0
 40 58  1  0  0  0
 41109  1  0  0  0
 41110  1  0  0  0
 41111  1  0  0  0
 41 48  1  0  0  0
 42 43  1  0  0  0
 42 66  1  0  0  0
 42112  1  0  0  0
 42113  1  0  0  0
 43 44  1  0  0  0
 44114  1  0  0  0
 45 46  2  0  0  0
 45115  1  0  0  0
 46116  1  0  0  0
 47117  1  0  0  0
 47118  1  0  0  0
 48 56  1  0  0  0
 48 65  1  0  0  0
 48119  1  0  0  0
 49 50  1  0  0  0
 49 53  1  0  0  0
 49 64  1  0  0  0
 49120  1  0  0  0
 50 51  1  0  0  0
 50121  1  0  0  0
 50122  1  0  0  0
 51 52  1  0  0  0
 51123  1  0  0  0
 51124  1  0  0  0
 52125  1  0  0  0
 52126  1  0  0  0
 53 54  1  0  0  0
 54 55  2  0  0  0
 54127  1  0  0  0
 55 57  1  0  0  0
 55128  1  0  0  0
 56 69  2  0  0  0
 57 58  2  0  0  0
 57129  1  0  0  0
 58130  1  0  0  0
 59 60  1  0  0  0
 59 61  1  0  0  0
 59 62  1  0  0  0
 60131  1  0  0  0
 60132  1  0  0  0
 60133  1  0  0  0
 61134  1  0  0  0
 61135  1  0  0  0
 61136  1  0  0  0
 62137  1  0  0  0
 62138  1  0  0  0
 62139  1  0  0  0
 63 65  1  0  0  0
 63140  1  0  0  0
 63141  1  0  0  0
 63142  1  0  0  0
 64143  1  0  0  0
 65144  1  0  0  0
 68 80  1  0  0  0
 71 72  1  0  0  0
 71 73  2  0  0  0
 71145  1  0  0  0
 72 74  2  0  0  0
 72146  1  0  0  0
 73 83  1  0  0  0
 73 78  1  0  0  0
 74 80  1  0  0  0
 74 83  1  0  0  0
 75 76  1  0  0  0
 75 78  1  0  0  0
 75147  1  0  0  0
 75148  1  0  0  0
 76 84  1  0  0  0
 76149  1  0  0  0
 76150  1  0  0  0
 77 78  1  0  0  0
 77 84  1  0  0  0
 77151  1  0  0  0
 77152  1  0  0  0
 78153  1  0  0  0
 79 85  1  0  0  0
 79154  1  0  0  0
 79155  1  0  0  0
 79156  1  0  0  0
 80157  1  0  0  0
 80158  1  0  0  0
 81 82  1  0  0  0
 81 83  1  0  0  0
 81159  1  0  0  0
 81160  1  0  0  0
 82 85  1  0  0  0
 82161  1  0  0  0
 82162  1  0  0  0
 85163  1  0  0  0
 85164  1  0  0  0
M  CHG  1  85   1
M  ISO  4   1 100  68 101  80 101  84 100
M  END
> <chiral flag>
0

> <version>
0

> <s_m_source_file>
/data/baiqing/PycharmProjects/Reinvent-master-3.2/result/LINK_invent/BTK/process_docking_weight1_custom_sum_contain_oxygen_bond_distance_aromatic_linkinvent_7_9_3/rearranged_h_0199.sdf

> <i_m_source_file_index>
77

> <r_mmod_Potential_Energy-OPLS-2005>
672.924438476562

> <r_mmod_Stretch_Energy-OPLS-2005>
325.513946533203

> <r_mmod_Bend_Energy-OPLS-2005>
343.709716796875

> <r_mmod_Torsional_Energy-OPLS-2005>
319.793395996094

> <r_mmod_Improper_Torsional_Energy-OPLS-2005>
5.66874265670776

> <r_mmod_Van_der_Waal_Energy-OPLS-2005>
101.554512023926

> <r_mmod_Electrostatic_Energy-OPLS-2005>
-181.917129516602

> <r_mmod_Solvation_Energy-OPLS-2005>
-512.945739746094

> <b_mmod_Minimization_Converged-OPLS-2005>
0

> <r_mmod_RMS_Derivative-OPLS-2005>
0.821713447570801

$$$$
77
                    3D
 Structure written by MMmdl.
162171  0  0  1  0            999 V2000
  -30.7246  -14.4354   20.5818 C   0  0  0  0  0  0
  -30.4178  -12.2863   19.4183 C   0  0  0  0  0  0
  -29.4920  -12.5005   18.2046 C   0  0  0  0  0  0
  -28.0144  -12.3649   18.6197 C   0  0  0  0  0  0
  -27.6630  -13.2025   19.8788 C   0  0  2  0  0  0
  -28.7059  -12.9842   20.9994 C   0  0  0  0  0  0
  -25.2603  -13.8151   20.5694 C   0  0  0  0  0  0
  -24.1836  -13.0426   20.9162 C   0  0  0  0  0  0
  -24.6381  -11.6892   20.8725 C   0  0  0  0  0  0
  -23.9033  -10.4286   21.0398 C   0  0  0  0  0  0
  -24.3590   -9.4206   21.9175 C   0  0  0  0  0  0
  -23.6279   -8.2235   22.0745 C   0  0  0  0  0  0
  -22.4264   -8.0267   21.3531 C   0  0  0  0  0  0
  -21.9887   -9.0235   20.4634 C   0  0  0  0  0  0
  -22.7202  -10.2125   20.3047 C   0  0  0  0  0  0
  -21.6853   -6.0723   22.5268 C   0  0  0  0  0  0
  -21.4022   -6.5631   23.8203 C   0  0  0  0  0  0
  -21.3661   -5.6786   24.9163 C   0  0  0  0  0  0
  -21.6047   -4.3045   24.7221 C   0  0  0  0  0  0
  -21.8821   -3.8135   23.4342 C   0  0  0  0  0  0
  -21.9196   -4.6953   22.3399 C   0  0  0  0  0  0
  -22.7862  -13.5233   21.1838 C   0  0  0  0  0  0
  -22.1662   -4.2133   21.0980 F   0  0  0  0  0  0
  -21.5625   -3.4537   25.7740 F   0  0  0  0  0  0
  -30.0383  -13.2699   20.4428 N   0  0  0  0  0  0
  -26.3034  -12.9306   20.3392 N   0  0  0  0  0  0
  -25.9312  -11.6466   20.5772 N   0  0  0  0  0  0
  -22.0505  -12.8227   22.0402 N   0  0  0  0  0  0
  -25.4360  -15.1864   20.4139 N   0  0  0  0  0  0
  -31.8553  -14.6082   20.1150 O   0  0  0  0  0  0
  -21.6631   -6.8860   21.4228 O   0  0  0  0  0  0
  -22.3547  -14.5538   20.6693 O   0  0  0  0  0  0
  -24.6137  -31.8694   23.2153 C   0  0  0  0  0  0
  -25.9033  -32.4833   23.8435 C   0  0  1  0  0  0
  -27.2260  -27.4410   20.0848 C   0  0  0  0  0  0
  -25.5903  -33.8632   24.2360 N   0  0  0  0  0  0
  -23.3998  -30.4978   21.5557 C   0  0  2  0  0  0
  -24.8429  -28.9736   20.1140 C   0  0  0  0  0  0
  -22.7401  -29.4661   22.4993 C   0  0  0  0  0  0
  -18.0270  -28.1364   22.8495 C   0  0  0  0  0  0
  -24.1488  -36.7316   23.2637 C   0  0  0  0  0  0
  -25.9306  -30.8374   21.3688 C   0  0  0  0  0  0
  -26.0049  -29.4748   20.7120 C   0  0  0  0  0  0
  -27.1979  -28.7150   20.6980 C   0  0  0  0  0  0
  -26.0409  -26.9667   19.4673 C   0  0  0  0  0  0
  -24.8558  -27.7183   19.4894 C   0  0  0  0  0  0
  -23.6061  -29.8392   20.1675 C   0  0  0  0  0  0
  -25.4107  -36.3117   24.0340 C   0  0  1  0  0  0
  -20.5857  -28.3649   23.1313 C   0  0  2  0  0  0
  -20.6751  -26.9386   22.5406 C   0  0  0  0  0  0
  -19.5733  -26.6381   21.5196 C   0  0  0  0  0  0
  -18.1917  -26.7916   22.1618 C   0  0  0  0  0  0
  -19.1520  -28.8821   23.2912 C   0  0  0  0  0  0
  -18.9446  -30.1423   23.8930 C   0  0  0  0  0  0
  -17.6448  -30.6579   24.0555 C   0  0  0  0  0  0
  -25.9025  -34.9477   23.5141 C   0  0  0  0  0  0
  -16.5337  -29.9079   23.6320 C   0  0  0  0  0  0
  -16.7258  -28.6484   23.0363 C   0  0  0  0  0  0
  -26.4477  -31.6604   25.0747 C   0  0  0  0  0  0
  -25.3758  -31.3697   26.1502 C   0  0  0  0  0  0
  -27.0294  -30.3053   24.6095 C   0  0  0  0  0  0
  -27.6068  -32.4307   25.7503 C   0  0  0  0  0  0
  -27.5582  -37.1815   24.8468 C   0  0  0  0  0  0
  -21.4127  -29.3032   22.3732 N   0  0  0  0  0  0
  -26.4297  -37.3793   23.9408 N   0  0  0  0  0  0
  -24.6665  -31.0815   22.1048 N   0  0  0  0  0  0
  -23.4178  -28.8179   23.3012 O   0  0  0  0  0  0
  -28.3955  -26.7002   20.1161 O   0  0  0  0  0  0
  -26.5576  -34.8914   22.4694 O   0  0  0  0  0  0
  -23.5331  -32.1436   23.7553 O   0  0  0  0  0  0
  -31.7559  -19.9277   20.9911 C   0  0  0  0  0  0
  -31.5160  -22.0522   20.0994 C   0  0  0  0  0  0
  -30.4253  -19.7579   21.1970 C   0  0  0  0  0  0
  -29.5377  -20.9022   20.8941 C   0  0  0  0  0  0
  -28.9463  -17.7333   20.6221 C   0  0  0  0  0  0
  -30.7353  -17.4361   22.4103 C   0  0  0  0  0  0
  -29.6772  -16.5262   20.0124 C   0  0  0  0  0  0
  -30.1822  -15.9924   22.3929 C   0  0  0  0  0  0
  -29.7828  -18.4478   21.7122 C   0  0  0  0  0  0
  -29.4498  -24.4400   20.2373 C   0  0  0  0  0  0
  -29.3225  -23.0249   19.6177 C   0  0  0  0  0  0
  -28.2928  -25.3225   19.7406 C   0  0  0  0  0  0
  -32.3088  -21.0964   20.4658 N   0  0  0  0  0  0
  -30.1244  -21.9651   20.2645 N   0  0  0  0  0  0
  -29.9994  -15.4917   21.0155 N   0  0  0  0  0  0
  -28.3273  -20.8945   21.1502 O   0  0  0  0  0  0
  -31.4630  -12.3731   19.1154 H   0  0  0  0  0  0
  -30.3033  -11.2743   19.8100 H   0  0  0  0  0  0
  -29.7251  -11.7797   17.4190 H   0  0  0  0  0  0
  -29.6656  -13.4888   17.7770 H   0  0  0  0  0  0
  -27.8223  -11.3089   18.8143 H   0  0  0  0  0  0
  -27.3635  -12.6429   17.7904 H   0  0  0  0  0  0
  -27.7030  -14.2499   19.5832 H   0  0  0  0  0  0
  -28.6741  -11.9539   21.3572 H   0  0  0  0  0  0
  -28.4771  -13.6063   21.8657 H   0  0  0  0  0  0
  -25.2736   -9.5692   22.4739 H   0  0  0  0  0  0
  -23.9991   -7.4635   22.7472 H   0  0  0  0  0  0
  -21.0808   -8.8747   19.8951 H   0  0  0  0  0  0
  -22.3646  -10.9659   19.6156 H   0  0  0  0  0  0
  -21.2018   -7.6140   23.9698 H   0  0  0  0  0  0
  -21.1483   -6.0518   25.9065 H   0  0  0  0  0  0
  -22.0604   -2.7595   23.2846 H   0  0  0  0  0  0
  -22.4130  -11.9895   22.4788 H   0  0  0  0  0  0
  -21.1129  -13.1259   22.2620 H   0  0  0  0  0  0
  -24.6770  -15.8490   20.5315 H   0  0  0  0  0  0
  -26.3047  -15.6229   20.1327 H   0  0  0  0  0  0
  -26.7096  -32.5547   23.1196 H   0  0  0  0  0  0
  -25.0085  -33.9812   25.0525 H   0  0  0  0  0  0
  -22.6885  -31.3155   21.4227 H   0  0  0  0  0  0
  -23.3738  -35.9659   23.3313 H   0  0  0  0  0  0
  -24.3586  -36.8914   22.2049 H   0  0  0  0  0  0
  -23.7242  -37.6529   23.6632 H   0  0  0  0  0  0
  -26.0439  -31.6044   20.6019 H   0  0  0  0  0  0
  -26.8182  -30.8874   21.9875 H   0  0  0  0  0  0
  -28.0934  -29.0974   21.1680 H   0  0  0  0  0  0
  -25.9967  -26.0175   18.9548 H   0  0  0  0  0  0
  -23.9646  -27.3300   19.0162 H   0  0  0  0  0  0
  -23.7143  -30.6170   19.4109 H   0  0  0  0  0  0
  -22.7300  -29.2606   19.8688 H   0  0  0  0  0  0
  -25.1283  -36.1998   25.0833 H   0  0  0  0  0  0
  -20.9967  -28.3203   24.1425 H   0  0  0  0  0  0
  -20.5630  -26.2257   23.3588 H   0  0  0  0  0  0
  -21.6627  -26.7415   22.1214 H   0  0  0  0  0  0
  -19.6892  -25.6299   21.1212 H   0  0  0  0  0  0
  -19.6677  -27.3194   20.6730 H   0  0  0  0  0  0
  -17.4183  -26.6656   21.4025 H   0  0  0  0  0  0
  -18.0336  -26.0051   22.9010 H   0  0  0  0  0  0
  -19.7920  -30.7222   24.2336 H   0  0  0  0  0  0
  -17.5004  -31.6270   24.5134 H   0  0  0  0  0  0
  -15.5340  -30.2992   23.7625 H   0  0  0  0  0  0
  -15.8654  -28.0799   22.7094 H   0  0  0  0  0  0
  -24.5931  -30.7047   25.7842 H   0  0  0  0  0  0
  -24.8952  -32.2844   26.4977 H   0  0  0  0  0  0
  -25.8130  -30.8848   27.0240 H   0  0  0  0  0  0
  -26.2822  -29.6841   24.1140 H   0  0  0  0  0  0
  -27.4069  -29.7269   25.4536 H   0  0  0  0  0  0
  -27.8660  -30.4390   23.9233 H   0  0  0  0  0  0
  -27.2702  -33.3584   26.2141 H   0  0  0  0  0  0
  -28.3848  -32.6900   25.0310 H   0  0  0  0  0  0
  -28.0762  -31.8387   26.5371 H   0  0  0  0  0  0
  -28.2612  -38.0100   24.7502 H   0  0  0  0  0  0
  -28.1067  -36.2631   24.6311 H   0  0  0  0  0  0
  -27.2300  -37.1494   25.8872 H   0  0  0  0  0  0
  -20.9265  -29.8795   21.6999 H   0  0  0  0  0  0
  -26.0191  -38.2874   24.1402 H   0  0  0  0  0  0
  -32.4786  -19.1515   21.1873 H   0  0  0  0  0  0
  -31.8697  -22.9753   19.6357 H   0  0  0  0  0  0
  -28.6434  -18.4201   19.8309 H   0  0  0  0  0  0
  -28.0139  -17.3787   21.0664 H   0  0  0  0  0  0
  -31.7044  -17.3825   21.9202 H   0  0  0  0  0  0
  -30.9327  -17.7561   23.4347 H   0  0  0  0  0  0
  -30.5898  -16.8732   19.5238 H   0  0  0  0  0  0
  -29.0629  -16.0916   19.2230 H   0  0  0  0  0  0
  -29.2205  -15.9552   22.9071 H   0  0  0  0  0  0
  -30.8522  -15.3413   22.9594 H   0  0  0  0  0  0
  -29.0737  -18.7606   22.4807 H   0  0  0  0  0  0
  -30.4062  -24.8905   19.9694 H   0  0  0  0  0  0
  -29.4188  -24.3894   21.3265 H   0  0  0  0  0  0
  -29.5964  -23.0698   18.5617 H   0  0  0  0  0  0
  -28.2675  -22.7459   19.6002 H   0  0  0  0  0  0
  -27.3857  -24.8838   20.1620 H   0  0  0  0  0  0
  -28.2198  -25.2595   18.6532 H   0  0  0  0  0  0
  1 25  1  0  0  0
  1 30  2  0  0  0
  1 85  1  0  0  0
  2  3  1  0  0  0
  2 25  1  0  0  0
  2 87  1  0  0  0
  2 88  1  0  0  0
  3  4  1  0  0  0
  3 89  1  0  0  0
  3 90  1  0  0  0
  4  5  1  0  0  0
  4 91  1  0  0  0
  4 92  1  0  0  0
  5  6  1  0  0  0
  5 26  1  0  0  0
  5 93  1  0  0  0
  6 25  1  0  0  0
  6 94  1  0  0  0
  6 95  1  0  0  0
  7  8  2  0  0  0
  7 26  1  0  0  0
  7 29  1  0  0  0
  8  9  1  0  0  0
  8 22  1  0  0  0
  9 10  1  0  0  0
  9 27  2  0  0  0
 10 11  2  0  0  0
 10 15  1  0  0  0
 11 12  1  0  0  0
 11 96  1  0  0  0
 12 13  2  0  0  0
 12 97  1  0  0  0
 13 14  1  0  0  0
 13 31  1  0  0  0
 14 15  2  0  0  0
 14 98  1  0  0  0
 15 99  1  0  0  0
 16 17  2  0  0  0
 16 21  1  0  0  0
 16 31  1  0  0  0
 17 18  1  0  0  0
 17100  1  0  0  0
 18 19  2  0  0  0
 18101  1  0  0  0
 19 20  1  0  0  0
 19 24  1  0  0  0
 20 21  2  0  0  0
 20102  1  0  0  0
 21 23  1  0  0  0
 22 28  1  0  0  0
 22 32  2  0  0  0
 26 27  1  0  0  0
 28103  1  0  0  0
 28104  1  0  0  0
 29105  1  0  0  0
 29106  1  0  0  0
 33 34  1  0  0  0
 33 66  1  0  0  0
 33 70  2  0  0  0
 34 36  1  0  0  0
 34 59  1  0  0  0
 34107  1  0  0  0
 35 44  2  0  0  0
 35 45  1  0  0  0
 35 68  1  0  0  0
 36 56  1  0  0  0
 36108  1  0  0  0
 37 39  1  0  0  0
 37 47  1  0  0  0
 37 66  1  0  0  0
 37109  1  0  0  0
 38 43  2  0  0  0
 38 46  1  0  0  0
 38 47  1  0  0  0
 39 64  1  0  0  0
 39 67  2  0  0  0
 40 52  1  0  0  0
 40 53  2  0  0  0
 40 58  1  0  0  0
 41110  1  0  0  0
 41111  1  0  0  0
 41112  1  0  0  0
 41 48  1  0  0  0
 42 43  1  0  0  0
 42 66  1  0  0  0
 42113  1  0  0  0
 42114  1  0  0  0
 43 44  1  0  0  0
 44115  1  0  0  0
 45 46  2  0  0  0
 45116  1  0  0  0
 46117  1  0  0  0
 47118  1  0  0  0
 47119  1  0  0  0
 48 56  1  0  0  0
 48 65  1  0  0  0
 48120  1  0  0  0
 49 50  1  0  0  0
 49 53  1  0  0  0
 49 64  1  0  0  0
 49121  1  0  0  0
 50 51  1  0  0  0
 50122  1  0  0  0
 50123  1  0  0  0
 51 52  1  0  0  0
 51124  1  0  0  0
 51125  1  0  0  0
 52126  1  0  0  0
 52127  1  0  0  0
 53 54  1  0  0  0
 54 55  2  0  0  0
 54128  1  0  0  0
 55 57  1  0  0  0
 55129  1  0  0  0
 56 69  2  0  0  0
 57 58  2  0  0  0
 57130  1  0  0  0
 58131  1  0  0  0
 59 60  1  0  0  0
 59 61  1  0  0  0
 59 62  1  0  0  0
 60132  1  0  0  0
 60133  1  0  0  0
 60134  1  0  0  0
 61135  1  0  0  0
 61136  1  0  0  0
 61137  1  0  0  0
 62138  1  0  0  0
 62139  1  0  0  0
 62140  1  0  0  0
 63 65  1  0  0  0
 63141  1  0  0  0
 63142  1  0  0  0
 63143  1  0  0  0
 64144  1  0  0  0
 65145  1  0  0  0
 68 82  1  0  0  0
 71 73  2  0  0  0
 71 83  1  0  0  0
 71146  1  0  0  0
 72 83  2  0  0  0
 72 84  1  0  0  0
 72147  1  0  0  0
 73 74  1  0  0  0
 73 79  1  0  0  0
 74 84  1  0  0  0
 74 86  2  0  0  0
 75 77  1  0  0  0
 75 79  1  0  0  0
 75148  1  0  0  0
 75149  1  0  0  0
 76 78  1  0  0  0
 76 79  1  0  0  0
 76150  1  0  0  0
 76151  1  0  0  0
 77 85  1  0  0  0
 77152  1  0  0  0
 77153  1  0  0  0
 78 85  1  0  0  0
 78154  1  0  0  0
 78155  1  0  0  0
 79156  1  0  0  0
 80 81  1  0  0  0
 80 82  1  0  0  0
 80157  1  0  0  0
 80158  1  0  0  0
 81 84  1  0  0  0
 81159  1  0  0  0
 81160  1  0  0  0
 82161  1  0  0  0
 82162  1  0  0  0
M  ISO  4   1 100  68 101  82 101  85 100
M  END
> <chiral flag>
0

> <version>
0

> <s_m_source_file>
/data/baiqing/PycharmProjects/Reinvent-master-3.2/result/LINK_invent/BTK/process_docking_weight1_custom_sum_contain_oxygen_bond_distance_aromatic_linkinvent_7_9_3/rearranged_h_0199.sdf

> <i_m_source_file_index>
78

> <r_mmod_Potential_Energy-OPLS-2005>
215.612396240234

> <r_mmod_Stretch_Energy-OPLS-2005>
45.1787071228027

> <r_mmod_Bend_Energy-OPLS-2005>
105.617279052734

> <r_mmod_Torsional_Energy-OPLS-2005>
329.954833984375

> <r_mmod_Improper_Torsional_Energy-OPLS-2005>
8.90756511688232

> <r_mmod_Van_der_Waal_Energy-OPLS-2005>
195.514236450195

> <r_mmod_Electrostatic_Energy-OPLS-2005>
-271.518585205078

> <r_mmod_Solvation_Energy-OPLS-2005>
-210.310775756836

> <b_mmod_Minimization_Converged-OPLS-2005>
0

> <r_mmod_RMS_Derivative-OPLS-2005>
1.44245958328247

$$$$
78
                    3D
 Structure written by MMmdl.
172181  0  0  1  0            999 V2000
  -30.7599  -14.4297   20.6233 C   0  0  0  0  0  0
  -30.4197  -12.3037   19.4157 C   0  0  0  0  0  0
  -29.4911  -12.5181   18.2029 C   0  0  0  0  0  0
  -28.0149  -12.3760   18.6170 C   0  0  0  0  0  0
  -27.6659  -13.2109   19.8764 C   0  0  2  0  0  0
  -28.7073  -12.9899   20.9976 C   0  0  0  0  0  0
  -25.2616  -13.8177   20.5703 C   0  0  0  0  0  0
  -24.1852  -13.0450   20.9183 C   0  0  0  0  0  0
  -24.6411  -11.6920   20.8733 C   0  0  0  0  0  0
  -23.9065  -10.4306   21.0399 C   0  0  0  0  0  0
  -24.3611   -9.4225   21.9184 C   0  0  0  0  0  0
  -23.6296   -8.2255   22.0756 C   0  0  0  0  0  0
  -22.4277   -8.0286   21.3540 C   0  0  0  0  0  0
  -21.9911   -9.0260   20.4639 C   0  0  0  0  0  0
  -22.7233  -10.2148   20.3058 C   0  0  0  0  0  0
  -21.6858   -6.0741   22.5262 C   0  0  0  0  0  0
  -21.4012   -6.5635   23.8197 C   0  0  0  0  0  0
  -21.3667   -5.6786   24.9160 C   0  0  0  0  0  0
  -21.6050   -4.3052   24.7208 C   0  0  0  0  0  0
  -21.8821   -3.8149   23.4326 C   0  0  0  0  0  0
  -21.9202   -4.6968   22.3382 C   0  0  0  0  0  0
  -22.7870  -13.5248   21.1855 C   0  0  0  0  0  0
  -22.1677   -4.2162   21.0959 F   0  0  0  0  0  0
  -21.5639   -3.4537   25.7724 F   0  0  0  0  0  0
  -30.0478  -13.2799   20.4536 N   0  0  0  0  0  0
  -26.3055  -12.9356   20.3382 N   0  0  0  0  0  0
  -25.9337  -11.6505   20.5757 N   0  0  0  0  0  0
  -22.0491  -12.8226   22.0382 N   0  0  0  0  0  0
  -25.4361  -15.1894   20.4135 N   0  0  0  0  0  0
  -31.8136  -14.6475   20.0200 O   0  0  0  0  0  0
  -21.6646   -6.8880   21.4228 O   0  0  0  0  0  0
  -22.3561  -14.5566   20.6722 O   0  0  0  0  0  0
  -24.6126  -31.8706   23.2132 C   0  0  0  0  0  0
  -25.9038  -32.4837   23.8419 C   0  0  1  0  0  0
  -27.2425  -27.4662   20.0881 C   0  0  0  0  0  0
  -25.5900  -33.8645   24.2350 N   0  0  0  0  0  0
  -23.3999  -30.4925   21.5523 C   0  0  2  0  0  0
  -24.8497  -28.9588   20.1228 C   0  0  0  0  0  0
  -22.7392  -29.4675   22.5023 C   0  0  0  0  0  0
  -18.0266  -28.1387   22.8498 C   0  0  0  0  0  0
  -24.1484  -36.7315   23.2639 C   0  0  0  0  0  0
  -25.9252  -30.8414   21.3660 C   0  0  0  0  0  0
  -26.0065  -29.4736   20.7242 C   0  0  0  0  0  0
  -27.2073  -28.7308   20.7175 C   0  0  0  0  0  0
  -26.0764  -26.9618   19.4823 C   0  0  0  0  0  0
  -24.8763  -27.6957   19.5052 C   0  0  0  0  0  0
  -23.6104  -29.8216   20.1688 C   0  0  0  0  0  0
  -25.4108  -36.3123   24.0338 C   0  0  1  0  0  0
  -20.5852  -28.3664   23.1335 C   0  0  2  0  0  0
  -20.6759  -26.9401   22.5442 C   0  0  0  0  0  0
  -19.5745  -26.6393   21.5227 C   0  0  0  0  0  0
  -18.1908  -26.7948   22.1603 C   0  0  0  0  0  0
  -19.1516  -28.8844   23.2917 C   0  0  0  0  0  0
  -18.9449  -30.1452   23.8928 C   0  0  0  0  0  0
  -17.6450  -30.6590   24.0584 C   0  0  0  0  0  0
  -25.9030  -34.9488   23.5136 C   0  0  0  0  0  0
  -16.5340  -29.9098   23.6337 C   0  0  0  0  0  0
  -16.7256  -28.6518   23.0345 C   0  0  0  0  0  0
  -26.4476  -31.6601   25.0737 C   0  0  0  0  0  0
  -25.3748  -31.3708   26.1489 C   0  0  0  0  0  0
  -27.0282  -30.3033   24.6101 C   0  0  0  0  0  0
  -27.6071  -32.4304   25.7484 C   0  0  0  0  0  0
  -27.5586  -37.1817   24.8466 C   0  0  0  0  0  0
  -21.4125  -29.3037   22.3750 N   0  0  0  0  0  0
  -26.4298  -37.3800   23.9408 N   0  0  0  0  0  0
  -24.6636  -31.0824   22.1029 N   0  0  0  0  0  0
  -23.4171  -28.8227   23.3070 O   0  0  0  0  0  0
  -28.3774  -26.6998   19.9862 O   0  0  0  0  0  0
  -26.5584  -34.8924   22.4693 O   0  0  0  0  0  0
  -23.5328  -32.1457   23.7539 O   0  0  0  0  0  0
  -30.8125  -24.5728   21.9021 C   0  0  0  0  0  0
  -30.7955  -23.2250   21.6687 C   0  0  0  0  0  0
  -29.6541  -25.0628   21.2365 C   0  0  0  0  0  0
  -31.6944  -22.1152   22.0754 C   0  0  0  0  0  0
  -31.4967  -20.8761   21.1837 C   0  0  0  0  0  0
  -29.2561  -21.6273   20.3894 C   0  0  1  0  0  0
  -27.1528  -21.4060   21.9260 C   0  0  0  0  0  0
  -31.9162  -17.7002   20.2353 C   0  0  0  0  0  0
  -30.3354  -15.3239   22.8517 C   0  0  0  0  0  0
  -29.1397  -26.4872   21.1701 C   0  0  0  0  0  0
  -27.7152  -21.4368   20.4928 C   0  0  0  0  0  0
  -29.6599  -16.6590   20.8545 C   0  0  0  0  0  0
  -29.8215  -19.1840   20.3699 C   0  0  0  0  0  0
  -30.5682  -17.9323   20.9515 C   0  0  2  0  0  0
  -28.9899  -24.0743   20.6399 N   0  0  0  0  0  0
  -29.6680  -22.9366   20.9352 N   0  0  0  0  0  0
  -30.1939  -15.3873   21.3970 N   0  0  0  0  0  0
  -30.0542  -20.5155   21.0335 N   0  3  1  0  0  0
  -31.4645  -12.3929   19.1114 H   0  0  0  0  0  0
  -30.3167  -11.2902   19.8057 H   0  0  0  0  0  0
  -29.7302  -11.8023   17.4148 H   0  0  0  0  0  0
  -29.6598  -13.5087   17.7767 H   0  0  0  0  0  0
  -27.8218  -11.3190   18.8062 H   0  0  0  0  0  0
  -27.3644  -12.6604   17.7894 H   0  0  0  0  0  0
  -27.7114  -14.2603   19.5845 H   0  0  0  0  0  0
  -28.6737  -11.9572   21.3471 H   0  0  0  0  0  0
  -28.4559  -13.6006   21.8647 H   0  0  0  0  0  0
  -25.2750   -9.5720   22.4764 H   0  0  0  0  0  0
  -24.0024   -7.4645   22.7469 H   0  0  0  0  0  0
  -21.0857   -8.8759   19.8928 H   0  0  0  0  0  0
  -22.3676  -10.9692   19.6182 H   0  0  0  0  0  0
  -21.1984   -7.6139   23.9703 H   0  0  0  0  0  0
  -21.1498   -6.0512   25.9063 H   0  0  0  0  0  0
  -22.0597   -2.7613   23.2810 H   0  0  0  0  0  0
  -22.4094  -11.9896   22.4785 H   0  0  0  0  0  0
  -21.1094  -13.1240   22.2538 H   0  0  0  0  0  0
  -24.6744  -15.8494   20.5242 H   0  0  0  0  0  0
  -26.2969  -15.6248   20.1088 H   0  0  0  0  0  0
  -26.7125  -32.5571   23.1205 H   0  0  0  0  0  0
  -25.0097  -33.9823   25.0527 H   0  0  0  0  0  0
  -22.6874  -31.3079   21.4099 H   0  0  0  0  0  0
  -23.3763  -35.9626   23.3272 H   0  0  0  0  0  0
  -24.3586  -36.8967   22.2059 H   0  0  0  0  0  0
  -23.7200  -37.6494   23.6675 H   0  0  0  0  0  0
  -26.0326  -31.6029   20.5926 H   0  0  0  0  0  0
  -26.8154  -30.9025   21.9809 H   0  0  0  0  0  0
  -28.1022  -29.1378   21.1685 H   0  0  0  0  0  0
  -26.1013  -25.9975   18.9940 H   0  0  0  0  0  0
  -23.9889  -27.2909   19.0392 H   0  0  0  0  0  0
  -23.7171  -30.5944   19.4067 H   0  0  0  0  0  0
  -22.7363  -29.2386   19.8734 H   0  0  0  0  0  0
  -25.1293  -36.1997   25.0833 H   0  0  0  0  0  0
  -20.9935  -28.3232   24.1456 H   0  0  0  0  0  0
  -20.5651  -26.2281   23.3634 H   0  0  0  0  0  0
  -21.6635  -26.7438   22.1242 H   0  0  0  0  0  0
  -19.6905  -25.6303   21.1256 H   0  0  0  0  0  0
  -19.6709  -27.3215   20.6768 H   0  0  0  0  0  0
  -17.4204  -26.6752   21.3970 H   0  0  0  0  0  0
  -18.0248  -26.0060   22.8955 H   0  0  0  0  0  0
  -19.7918  -30.7276   24.2296 H   0  0  0  0  0  0
  -17.4995  -31.6268   24.5185 H   0  0  0  0  0  0
  -15.5343  -30.3007   23.7649 H   0  0  0  0  0  0
  -15.8656  -28.0861   22.7032 H   0  0  0  0  0  0
  -24.5954  -30.7007   25.7838 H   0  0  0  0  0  0
  -24.8906  -32.2861   26.4904 H   0  0  0  0  0  0
  -25.8123  -30.8921   27.0261 H   0  0  0  0  0  0
  -26.2804  -29.6804   24.1178 H   0  0  0  0  0  0
  -27.4056  -29.7271   25.4560 H   0  0  0  0  0  0
  -27.8645  -30.4332   23.9229 H   0  0  0  0  0  0
  -27.2733  -33.3638   26.2029 H   0  0  0  0  0  0
  -28.3899  -32.6798   25.0309 H   0  0  0  0  0  0
  -28.0697  -31.8430   26.5426 H   0  0  0  0  0  0
  -28.2623  -38.0094   24.7494 H   0  0  0  0  0  0
  -28.1063  -36.2632   24.6312 H   0  0  0  0  0  0
  -27.2312  -37.1502   25.8872 H   0  0  0  0  0  0
  -20.9290  -29.8757   21.6971 H   0  0  0  0  0  0
  -26.0194  -38.2883   24.1403 H   0  0  0  0  0  0
  -31.5440  -25.1341   22.4671 H   0  0  0  0  0  0
  -31.5035  -21.8629   23.1188 H   0  0  0  0  0  0
  -32.7338  -22.4416   22.0237 H   0  0  0  0  0  0
  -32.0645  -20.0703   21.6440 H   0  0  0  0  0  0
  -31.9256  -21.0528   20.1952 H   0  0  0  0  0  0
  -29.5219  -21.6482   19.3310 H   0  0  0  0  0  0
  -26.0626  -21.3698   21.9063 H   0  0  0  0  0  0
  -27.4348  -22.2953   22.4917 H   0  0  0  0  0  0
  -27.4953  -20.5311   22.4793 H   0  0  0  0  0  0
  -32.5442  -17.0098   20.7978 H   0  0  0  0  0  0
  -32.5035  -18.6062   20.0981 H   0  0  0  0  0  0
  -31.7656  -17.2775   19.2412 H   0  0  0  0  0  0
  -29.3873  -15.5418   23.3446 H   0  0  0  0  0  0
  -31.0771  -16.0455   23.1939 H   0  0  0  0  0  0
  -30.6623  -14.3373   23.1879 H   0  0  0  0  0  0
  -29.9731  -27.1908   21.1738 H   0  0  0  0  0  0
  -28.5501  -26.6971   22.0644 H   0  0  0  0  0  0
  -27.3881  -20.5546   19.9459 H   0  0  0  0  0  0
  -27.2340  -22.2592   19.9619 H   0  0  0  0  0  0
  -29.3825  -16.5023   19.8096 H   0  0  0  0  0  0
  -28.7180  -16.8497   21.3722 H   0  0  0  0  0  0
  -28.7555  -18.9768   20.4486 H   0  0  0  0  0  0
  -30.0180  -19.2676   19.2997 H   0  0  0  0  0  0
  -30.7630  -18.1127   22.0086 H   0  0  0  0  0  0
  -29.6996  -20.4343   21.9736 H   0  0  0  0  0  0
  1 25  1  0  0  0
  1 30  2  0  0  0
  1 87  1  0  0  0
  2  3  1  0  0  0
  2 25  1  0  0  0
  2 89  1  0  0  0
  2 90  1  0  0  0
  3  4  1  0  0  0
  3 91  1  0  0  0
  3 92  1  0  0  0
  4  5  1  0  0  0
  4 93  1  0  0  0
  4 94  1  0  0  0
  5  6  1  0  0  0
  5 26  1  0  0  0
  5 95  1  0  0  0
  6 25  1  0  0  0
  6 96  1  0  0  0
  6 97  1  0  0  0
  7  8  2  0  0  0
  7 26  1  0  0  0
  7 29  1  0  0  0
  8  9  1  0  0  0
  8 22  1  0  0  0
  9 10  1  0  0  0
  9 27  2  0  0  0
 10 11  2  0  0  0
 10 15  1  0  0  0
 11 12  1  0  0  0
 11 98  1  0  0  0
 12 13  2  0  0  0
 12 99  1  0  0  0
 13 14  1  0  0  0
 13 31  1  0  0  0
 14 15  2  0  0  0
 14100  1  0  0  0
 15101  1  0  0  0
 16 17  2  0  0  0
 16 21  1  0  0  0
 16 31  1  0  0  0
 17 18  1  0  0  0
 17102  1  0  0  0
 18 19  2  0  0  0
 18103  1  0  0  0
 19 20  1  0  0  0
 19 24  1  0  0  0
 20 21  2  0  0  0
 20104  1  0  0  0
 21 23  1  0  0  0
 22 28  1  0  0  0
 22 32  2  0  0  0
 26 27  1  0  0  0
 28105  1  0  0  0
 28106  1  0  0  0
 29107  1  0  0  0
 29108  1  0  0  0
 33 34  1  0  0  0
 33 66  1  0  0  0
 33 70  2  0  0  0
 34 36  1  0  0  0
 34 59  1  0  0  0
 34109  1  0  0  0
 35 44  2  0  0  0
 35 45  1  0  0  0
 35 68  1  0  0  0
 36 56  1  0  0  0
 36110  1  0  0  0
 37 39  1  0  0  0
 37 47  1  0  0  0
 37 66  1  0  0  0
 37111  1  0  0  0
 38 43  2  0  0  0
 38 46  1  0  0  0
 38 47  1  0  0  0
 39 64  1  0  0  0
 39 67  2  0  0  0
 40 52  1  0  0  0
 40 53  2  0  0  0
 40 58  1  0  0  0
 41112  1  0  0  0
 41113  1  0  0  0
 41114  1  0  0  0
 41 48  1  0  0  0
 42 43  1  0  0  0
 42 66  1  0  0  0
 42115  1  0  0  0
 42116  1  0  0  0
 43 44  1  0  0  0
 44117  1  0  0  0
 45 46  2  0  0  0
 45118  1  0  0  0
 46119  1  0  0  0
 47120  1  0  0  0
 47121  1  0  0  0
 48 56  1  0  0  0
 48 65  1  0  0  0
 48122  1  0  0  0
 49 50  1  0  0  0
 49 53  1  0  0  0
 49 64  1  0  0  0
 49123  1  0  0  0
 50 51  1  0  0  0
 50124  1  0  0  0
 50125  1  0  0  0
 51 52  1  0  0  0
 51126  1  0  0  0
 51127  1  0  0  0
 52128  1  0  0  0
 52129  1  0  0  0
 53 54  1  0  0  0
 54 55  2  0  0  0
 54130  1  0  0  0
 55 57  1  0  0  0
 55131  1  0  0  0
 56 69  2  0  0  0
 57 58  2  0  0  0
 57132  1  0  0  0
 58133  1  0  0  0
 59 60  1  0  0  0
 59 61  1  0  0  0
 59 62  1  0  0  0
 60134  1  0  0  0
 60135  1  0  0  0
 60136  1  0  0  0
 61137  1  0  0  0
 61138  1  0  0  0
 61139  1  0  0  0
 62140  1  0  0  0
 62141  1  0  0  0
 62142  1  0  0  0
 63 65  1  0  0  0
 63143  1  0  0  0
 63144  1  0  0  0
 63145  1  0  0  0
 64146  1  0  0  0
 65147  1  0  0  0
 68 80  1  0  0  0
 71 72  2  0  0  0
 71 73  1  0  0  0
 71148  1  0  0  0
 72 74  1  0  0  0
 72 86  1  0  0  0
 73 80  1  0  0  0
 73 85  2  0  0  0
 74 75  1  0  0  0
 74149  1  0  0  0
 74150  1  0  0  0
 75 88  1  0  0  0
 75151  1  0  0  0
 75152  1  0  0  0
 76 81  1  0  0  0
 76 86  1  0  0  0
 76 88  1  0  0  0
 76153  1  0  0  0
 77 81  1  0  0  0
 77154  1  0  0  0
 77155  1  0  0  0
 77156  1  0  0  0
 78157  1  0  0  0
 78158  1  0  0  0
 78159  1  0  0  0
 78 84  1  0  0  0
 79 87  1  0  0  0
 79160  1  0  0  0
 79161  1  0  0  0
 79162  1  0  0  0
 80163  1  0  0  0
 80164  1  0  0  0
 81165  1  0  0  0
 81166  1  0  0  0
 82 84  1  0  0  0
 82 87  1  0  0  0
 82167  1  0  0  0
 82168  1  0  0  0
 83 84  1  0  0  0
 83169  1  0  0  0
 83170  1  0  0  0
 83 88  1  0  0  0
 84171  1  0  0  0
 85 86  1  0  0  0
 88172  1  0  0  0
M  CHG  1  88   1
M  ISO  4   1 100  68 101  80 101  87 100
M  END
> <chiral flag>
0

> <version>
0

> <s_m_source_file>
/data/baiqing/PycharmProjects/Reinvent-master-3.2/result/LINK_invent/BTK/process_docking_weight1_custom_sum_contain_oxygen_bond_distance_aromatic_linkinvent_7_9_3/rearranged_h_0199.sdf

> <i_m_source_file_index>
79

> <r_mmod_Potential_Energy-OPLS-2005>
66.3782653808594

> <r_mmod_Stretch_Energy-OPLS-2005>
44.8159065246582

> <r_mmod_Bend_Energy-OPLS-2005>
111.501655578613

> <r_mmod_Torsional_Energy-OPLS-2005>
378.634490966797

> <r_mmod_Improper_Torsional_Energy-OPLS-2005>
3.42731356620789

> <r_mmod_Van_der_Waal_Energy-OPLS-2005>
135.609237670898

> <r_mmod_Electrostatic_Energy-OPLS-2005>
-184.031723022461

> <r_mmod_Solvation_Energy-OPLS-2005>
-431.839782714844

> <b_mmod_Minimization_Converged-OPLS-2005>
0

> <r_mmod_RMS_Derivative-OPLS-2005>
1.94631493091583

$$$$
79
                    3D
 Structure written by MMmdl.
168178  0  0  1  0            999 V2000
  -30.7845  -14.3868   20.6520 C   0  0  0  0  0  0
  -30.4022  -12.2862   19.4162 C   0  0  0  0  0  0
  -29.4816  -12.5205   18.2045 C   0  0  0  0  0  0
  -28.0070  -12.3627   18.6169 C   0  0  0  0  0  0
  -27.6593  -13.1957   19.8762 C   0  0  2  0  0  0
  -28.6994  -12.9717   21.0026 C   0  0  0  0  0  0
  -25.2584  -13.8143   20.5734 C   0  0  0  0  0  0
  -24.1817  -13.0429   20.9186 C   0  0  0  0  0  0
  -24.6361  -11.6887   20.8731 C   0  0  0  0  0  0
  -23.9036  -10.4287   21.0399 C   0  0  0  0  0  0
  -24.3609   -9.4210   21.9171 C   0  0  0  0  0  0
  -23.6290   -8.2241   22.0740 C   0  0  0  0  0  0
  -22.4261   -8.0275   21.3550 C   0  0  0  0  0  0
  -21.9896   -9.0239   20.4636 C   0  0  0  0  0  0
  -22.7218  -10.2120   20.3038 C   0  0  0  0  0  0
  -21.6832   -6.0745   22.5294 C   0  0  0  0  0  0
  -21.3996   -6.5642   23.8234 C   0  0  0  0  0  0
  -21.3668   -5.6790   24.9194 C   0  0  0  0  0  0
  -21.6052   -4.3054   24.7229 C   0  0  0  0  0  0
  -21.8816   -3.8159   23.4342 C   0  0  0  0  0  0
  -21.9182   -4.6984   22.3405 C   0  0  0  0  0  0
  -22.7833  -13.5238   21.1850 C   0  0  0  0  0  0
  -22.1638   -4.2179   21.0975 F   0  0  0  0  0  0
  -21.5653   -3.4531   25.7735 F   0  0  0  0  0  0
  -30.0421  -13.2584   20.4651 N   0  0  0  0  0  0
  -26.3000  -12.9289   20.3378 N   0  0  0  0  0  0
  -25.9287  -11.6459   20.5774 N   0  0  0  0  0  0
  -22.0469  -12.8243   22.0413 N   0  0  0  0  0  0
  -25.4347  -15.1879   20.4275 N   0  0  0  0  0  0
  -31.8356  -14.5777   20.0320 O   0  0  0  0  0  0
  -21.6616   -6.8882   21.4254 O   0  0  0  0  0  0
  -22.3524  -14.5551   20.6693 O   0  0  0  0  0  0
  -24.6097  -31.8724   23.2143 C   0  0  0  0  0  0
  -25.9003  -32.4851   23.8423 C   0  0  1  0  0  0
  -27.2446  -27.4811   20.0650 C   0  0  0  0  0  0
  -25.5883  -33.8647   24.2361 N   0  0  0  0  0  0
  -23.3958  -30.4965   21.5540 C   0  0  2  0  0  0
  -24.8418  -28.9643   20.1201 C   0  0  0  0  0  0
  -22.7378  -29.4688   22.5010 C   0  0  0  0  0  0
  -18.0260  -28.1383   22.8496 C   0  0  0  0  0  0
  -24.1483  -36.7318   23.2633 C   0  0  0  0  0  0
  -25.9211  -30.8448   21.3652 C   0  0  0  0  0  0
  -25.9983  -29.4793   20.7182 C   0  0  0  0  0  0
  -27.1967  -28.7370   20.7035 C   0  0  0  0  0  0
  -26.0620  -26.9619   19.4846 C   0  0  0  0  0  0
  -24.8644  -27.6983   19.5114 C   0  0  0  0  0  0
  -23.6032  -29.8285   20.1685 C   0  0  0  0  0  0
  -25.4097  -36.3132   24.0349 C   0  0  1  0  0  0
  -20.5847  -28.3668   23.1323 C   0  0  2  0  0  0
  -20.6754  -26.9409   22.5419 C   0  0  0  0  0  0
  -19.5732  -26.6394   21.5213 C   0  0  0  0  0  0
  -18.1911  -26.7932   22.1628 C   0  0  0  0  0  0
  -19.1509  -28.8840   23.2912 C   0  0  0  0  0  0
  -18.9443  -30.1443   23.8931 C   0  0  0  0  0  0
  -17.6443  -30.6590   24.0573 C   0  0  0  0  0  0
  -25.9025  -34.9496   23.5155 C   0  0  0  0  0  0
  -16.5335  -29.9100   23.6325 C   0  0  0  0  0  0
  -16.7251  -28.6512   23.0350 C   0  0  0  0  0  0
  -26.4447  -31.6611   25.0731 C   0  0  0  0  0  0
  -25.3736  -31.3701   26.1493 C   0  0  0  0  0  0
  -27.0266  -30.3060   24.6083 C   0  0  0  0  0  0
  -27.6044  -32.4314   25.7473 C   0  0  0  0  0  0
  -27.5599  -37.1784   24.8443 C   0  0  0  0  0  0
  -21.4109  -29.3047   22.3742 N   0  0  0  0  0  0
  -26.4277  -37.3822   23.9444 N   0  0  0  0  0  0
  -24.6603  -31.0850   22.1033 N   0  0  0  0  0  0
  -23.4165  -28.8220   23.3032 O   0  0  0  0  0  0
  -28.4455  -26.8102   20.0207 O   0  0  0  0  0  0
  -26.5593  -34.8937   22.4719 O   0  0  0  0  0  0
  -23.5297  -32.1457   23.7552 O   0  0  0  0  0  0
  -31.2774  -21.3720   20.2585 C   0  0  0  0  0  0
  -31.1530  -19.3040   20.4687 C   0  0  0  0  0  0
  -29.7360  -17.2898   20.4849 C   0  0  0  0  0  0
  -31.9394  -17.2088   21.5538 C   0  0  0  0  0  0
  -29.2874  -16.1616   21.4297 C   0  0  0  0  0  0
  -31.4361  -15.9922   22.3764 C   0  0  0  0  0  0
  -29.7858  -23.4938   19.9998 C   0  0  0  0  0  0
  -31.7722  -23.9459   19.7200 C   0  0  0  0  0  0
  -31.0639  -22.8365   20.4982 C   0  0  2  0  0  0
  -30.7512  -20.5916   22.6162 C   0  0  0  0  0  0
  -30.1816  -25.6482   18.7888 C   0  0  0  0  0  0
  -28.7019  -26.0575   18.8363 C   0  0  0  0  0  0
  -31.5237  -20.8707   19.0414 N   0  0  0  0  0  0
  -31.4430  -19.5062   19.1821 N   0  0  0  0  0  0
  -31.0623  -20.4286   21.2038 N   0  0  0  0  0  0
  -30.8701  -18.0554   21.0088 N   0  0  0  0  0  0
  -30.4095  -15.2429   21.6353 N   0  0  0  0  0  0
  -30.5491  -24.7400   19.9026 N   0  3  1  0  0  0
  -31.4474  -12.3549   19.1119 H   0  0  0  0  0  0
  -30.2806  -11.2708   19.7979 H   0  0  0  0  0  0
  -29.7242  -11.8220   17.4014 H   0  0  0  0  0  0
  -29.6477  -13.5212   17.8005 H   0  0  0  0  0  0
  -27.8196  -11.3054   18.8073 H   0  0  0  0  0  0
  -27.3545  -12.6445   17.7895 H   0  0  0  0  0  0
  -27.6993  -14.2354   19.5598 H   0  0  0  0  0  0
  -28.6605  -11.9369   21.3454 H   0  0  0  0  0  0
  -28.4582  -13.5645   21.8852 H   0  0  0  0  0  0
  -25.2751   -9.5698   22.4743 H   0  0  0  0  0  0
  -24.0028   -7.4629   22.7433 H   0  0  0  0  0  0
  -21.0839   -8.8750   19.8916 H   0  0  0  0  0  0
  -22.3694  -10.9658   19.6142 H   0  0  0  0  0  0
  -21.1972   -7.6140   23.9754 H   0  0  0  0  0  0
  -21.1492   -6.0507   25.9105 H   0  0  0  0  0  0
  -22.0592   -2.7615   23.2828 H   0  0  0  0  0  0
  -22.4052  -11.9887   22.4802 H   0  0  0  0  0  0
  -21.1086  -13.1262   22.2638 H   0  0  0  0  0  0
  -24.6798  -15.8497   20.5733 H   0  0  0  0  0  0
  -26.3040  -15.6319   20.1638 H   0  0  0  0  0  0
  -26.7082  -32.5588   23.1200 H   0  0  0  0  0  0
  -25.0029  -33.9820   25.0506 H   0  0  0  0  0  0
  -22.6832  -31.3125   21.4160 H   0  0  0  0  0  0
  -23.3772  -35.9617   23.3241 H   0  0  0  0  0  0
  -24.3604  -36.8981   22.2059 H   0  0  0  0  0  0
  -23.7175  -37.6487   23.6669 H   0  0  0  0  0  0
  -26.0302  -31.6099   20.5947 H   0  0  0  0  0  0
  -26.8106  -30.9012   21.9810 H   0  0  0  0  0  0
  -28.0930  -29.1396   21.1557 H   0  0  0  0  0  0
  -26.0434  -25.9934   19.0077 H   0  0  0  0  0  0
  -23.9723  -27.2919   19.0543 H   0  0  0  0  0  0
  -23.7083  -30.6029   19.4074 H   0  0  0  0  0  0
  -22.7280  -29.2458   19.8747 H   0  0  0  0  0  0
  -25.1255  -36.2002   25.0835 H   0  0  0  0  0  0
  -20.9945  -28.3241   24.1437 H   0  0  0  0  0  0
  -20.5661  -26.2283   23.3608 H   0  0  0  0  0  0
  -21.6626  -26.7459   22.1213 H   0  0  0  0  0  0
  -19.6900  -25.6310   21.1229 H   0  0  0  0  0  0
  -19.6668  -27.3217   20.6752 H   0  0  0  0  0  0
  -17.4180  -26.6679   21.4030 H   0  0  0  0  0  0
  -18.0314  -26.0069   22.9021 H   0  0  0  0  0  0
  -19.7914  -30.7250   24.2325 H   0  0  0  0  0  0
  -17.4997  -31.6273   24.5167 H   0  0  0  0  0  0
  -15.5340  -30.3015   23.7619 H   0  0  0  0  0  0
  -15.8651  -28.0839   22.7055 H   0  0  0  0  0  0
  -24.5881  -30.7083   25.7816 H   0  0  0  0  0  0
  -24.8961  -32.2857   26.4996 H   0  0  0  0  0  0
  -25.8093  -30.8813   27.0219 H   0  0  0  0  0  0
  -26.2801  -29.6836   24.1133 H   0  0  0  0  0  0
  -27.4036  -29.7268   25.4523 H   0  0  0  0  0  0
  -27.8635  -30.4374   23.9221 H   0  0  0  0  0  0
  -27.2685  -33.3598   26.2099 H   0  0  0  0  0  0
  -28.3817  -32.6900   25.0272 H   0  0  0  0  0  0
  -28.0760  -31.8417   26.5346 H   0  0  0  0  0  0
  -28.2528  -38.0175   24.7655 H   0  0  0  0  0  0
  -28.1193  -36.2721   24.6056 H   0  0  0  0  0  0
  -27.2359  -37.1172   25.8850 H   0  0  0  0  0  0
  -20.9262  -29.8776   21.6972 H   0  0  0  0  0  0
  -26.0172  -38.2882   24.1539 H   0  0  0  0  0  0
  -28.8979  -17.9707   20.3199 H   0  0  0  0  0  0
  -29.9903  -16.8946   19.5002 H   0  0  0  0  0  0
  -32.5619  -16.8779   20.7220 H   0  0  0  0  0  0
  -32.5936  -17.8208   22.1762 H   0  0  0  0  0  0
  -28.4209  -15.6637   21.0074 H   0  0  0  0  0  0
  -28.9488  -16.5689   22.3836 H   0  0  0  0  0  0
  -32.2768  -15.3424   22.6266 H   0  0  0  0  0  0
  -31.0267  -16.3266   23.3312 H   0  0  0  0  0  0
  -28.9738  -23.5205   20.7266 H   0  0  0  0  0  0
  -29.4583  -23.1069   19.0319 H   0  0  0  0  0  0
  -31.9758  -23.6844   18.6798 H   0  0  0  0  0  0
  -32.6503  -24.3646   20.2107 H   0  0  0  0  0  0
  -31.1876  -23.0313   21.5658 H   0  0  0  0  0  0
  -31.5365  -21.1759   23.0958 H   0  0  0  0  0  0
  -30.6894  -19.6258   23.1193 H   0  0  0  0  0  0
  -29.7973  -21.1091   22.7260 H   0  0  0  0  0  0
  -30.8157  -26.5346   18.8224 H   0  0  0  0  0  0
  -30.3774  -25.1599   17.8333 H   0  0  0  0  0  0
  -28.0641  -25.1747   18.7899 H   0  0  0  0  0  0
  -28.4729  -26.6635   17.9569 H   0  0  0  0  0  0
  -30.5581  -25.2222   20.7909 H   0  0  0  0  0  0
  1 25  1  0  0  0
  1 30  2  0  0  0
  1 87  1  0  0  0
  2  3  1  0  0  0
  2 25  1  0  0  0
  2 89  1  0  0  0
  2 90  1  0  0  0
  3  4  1  0  0  0
  3 91  1  0  0  0
  3 92  1  0  0  0
  4  5  1  0  0  0
  4 93  1  0  0  0
  4 94  1  0  0  0
  5  6  1  0  0  0
  5 26  1  0  0  0
  5 95  1  0  0  0
  6 25  1  0  0  0
  6 96  1  0  0  0
  6 97  1  0  0  0
  7  8  2  0  0  0
  7 26  1  0  0  0
  7 29  1  0  0  0
  8  9  1  0  0  0
  8 22  1  0  0  0
  9 10  1  0  0  0
  9 27  2  0  0  0
 10 11  2  0  0  0
 10 15  1  0  0  0
 11 12  1  0  0  0
 11 98  1  0  0  0
 12 13  2  0  0  0
 12 99  1  0  0  0
 13 14  1  0  0  0
 13 31  1  0  0  0
 14 15  2  0  0  0
 14100  1  0  0  0
 15101  1  0  0  0
 16 17  2  0  0  0
 16 21  1  0  0  0
 16 31  1  0  0  0
 17 18  1  0  0  0
 17102  1  0  0  0
 18 19  2  0  0  0
 18103  1  0  0  0
 19 20  1  0  0  0
 19 24  1  0  0  0
 20 21  2  0  0  0
 20104  1  0  0  0
 21 23  1  0  0  0
 22 28  1  0  0  0
 22 32  2  0  0  0
 26 27  1  0  0  0
 28105  1  0  0  0
 28106  1  0  0  0
 29107  1  0  0  0
 29108  1  0  0  0
 33 34  1  0  0  0
 33 66  1  0  0  0
 33 70  2  0  0  0
 34 36  1  0  0  0
 34 59  1  0  0  0
 34109  1  0  0  0
 35 44  2  0  0  0
 35 45  1  0  0  0
 35 68  1  0  0  0
 36 56  1  0  0  0
 36110  1  0  0  0
 37 39  1  0  0  0
 37 47  1  0  0  0
 37 66  1  0  0  0
 37111  1  0  0  0
 38 43  2  0  0  0
 38 46  1  0  0  0
 38 47  1  0  0  0
 39 64  1  0  0  0
 39 67  2  0  0  0
 40 52  1  0  0  0
 40 53  2  0  0  0
 40 58  1  0  0  0
 41112  1  0  0  0
 41113  1  0  0  0
 41114  1  0  0  0
 41 48  1  0  0  0
 42 43  1  0  0  0
 42 66  1  0  0  0
 42115  1  0  0  0
 42116  1  0  0  0
 43 44  1  0  0  0
 44117  1  0  0  0
 45 46  2  0  0  0
 45118  1  0  0  0
 46119  1  0  0  0
 47120  1  0  0  0
 47121  1  0  0  0
 48 56  1  0  0  0
 48 65  1  0  0  0
 48122  1  0  0  0
 49 50  1  0  0  0
 49 53  1  0  0  0
 49 64  1  0  0  0
 49123  1  0  0  0
 50 51  1  0  0  0
 50124  1  0  0  0
 50125  1  0  0  0
 51 52  1  0  0  0
 51126  1  0  0  0
 51127  1  0  0  0
 52128  1  0  0  0
 52129  1  0  0  0
 53 54  1  0  0  0
 54 55  2  0  0  0
 54130  1  0  0  0
 55 57  1  0  0  0
 55131  1  0  0  0
 56 69  2  0  0  0
 57 58  2  0  0  0
 57132  1  0  0  0
 58133  1  0  0  0
 59 60  1  0  0  0
 59 61  1  0  0  0
 59 62  1  0  0  0
 60134  1  0  0  0
 60135  1  0  0  0
 60136  1  0  0  0
 61137  1  0  0  0
 61138  1  0  0  0
 61139  1  0  0  0
 62140  1  0  0  0
 62141  1  0  0  0
 62142  1  0  0  0
 63 65  1  0  0  0
 63143  1  0  0  0
 63144  1  0  0  0
 63145  1  0  0  0
 64146  1  0  0  0
 65147  1  0  0  0
 68 82  1  0  0  0
 71 83  2  0  0  0
 71 85  1  0  0  0
 71 79  1  0  0  0
 72 84  2  0  0  0
 72 85  1  0  0  0
 72 86  1  0  0  0
 73 75  1  0  0  0
 73 86  1  0  0  0
 73148  1  0  0  0
 73149  1  0  0  0
 74 76  1  0  0  0
 74 86  1  0  0  0
 74150  1  0  0  0
 74151  1  0  0  0
 75 87  1  0  0  0
 75152  1  0  0  0
 75153  1  0  0  0
 76 87  1  0  0  0
 76154  1  0  0  0
 76155  1  0  0  0
 77 79  1  0  0  0
 77 88  1  0  0  0
 77156  1  0  0  0
 77157  1  0  0  0
 78 79  1  0  0  0
 78 88  1  0  0  0
 78158  1  0  0  0
 78159  1  0  0  0
 79160  1  0  0  0
 80 85  1  0  0  0
 80161  1  0  0  0
 80162  1  0  0  0
 80163  1  0  0  0
 81 82  1  0  0  0
 81164  1  0  0  0
 81165  1  0  0  0
 81 88  1  0  0  0
 82166  1  0  0  0
 82167  1  0  0  0
 83 84  1  0  0  0
 88168  1  0  0  0
M  CHG  1  88   1
M  ISO  4   1 100  68 101  82 101  87 100
M  END
> <chiral flag>
0

> <version>
0

> <s_m_source_file>
/data/baiqing/PycharmProjects/Reinvent-master-3.2/result/LINK_invent/BTK/process_docking_weight1_custom_sum_contain_oxygen_bond_distance_aromatic_linkinvent_7_9_3/rearranged_h_0199.sdf

> <i_m_source_file_index>
80

> <r_mmod_Potential_Energy-OPLS-2005>
-82.7415161132812

> <r_mmod_Stretch_Energy-OPLS-2005>
35.4257316589355

> <r_mmod_Bend_Energy-OPLS-2005>
141.332153320312

> <r_mmod_Torsional_Energy-OPLS-2005>
390.321197509766

> <r_mmod_Improper_Torsional_Energy-OPLS-2005>
10.0559043884277

> <r_mmod_Van_der_Waal_Energy-OPLS-2005>
149.363143920898

> <r_mmod_Electrostatic_Energy-OPLS-2005>
-343.802947998047

> <r_mmod_Solvation_Energy-OPLS-2005>
-474.530303955078

> <b_mmod_Minimization_Converged-OPLS-2005>
0

> <r_mmod_RMS_Derivative-OPLS-2005>
2.18540382385254

$$$$
80
                    3D
 Structure written by MMmdl.
165175  0  0  1  0            999 V2000
  -30.7142  -14.4986   20.5528 C   0  0  0  0  0  0
  -30.4184  -12.3168   19.4360 C   0  0  0  0  0  0
  -29.4909  -12.4786   18.2144 C   0  0  0  0  0  0
  -28.0144  -12.3050   18.6280 C   0  0  0  0  0  0
  -27.6397  -13.1672   19.8581 C   0  0  2  0  0  0
  -28.6903  -13.0412   20.9888 C   0  0  0  0  0  0
  -25.2533  -13.8013   20.5667 C   0  0  0  0  0  0
  -24.1778  -13.0345   20.9215 C   0  0  0  0  0  0
  -24.6307  -11.6807   20.8788 C   0  0  0  0  0  0
  -23.8986  -10.4224   21.0440 C   0  0  0  0  0  0
  -24.3557   -9.4149   21.9211 C   0  0  0  0  0  0
  -23.6253   -8.2181   22.0754 C   0  0  0  0  0  0
  -22.4238   -8.0232   21.3534 C   0  0  0  0  0  0
  -21.9858   -9.0201   20.4642 C   0  0  0  0  0  0
  -22.7172  -10.2086   20.3071 C   0  0  0  0  0  0
  -21.6829   -6.0721   22.5276 C   0  0  0  0  0  0
  -21.4003   -6.5635   23.8211 C   0  0  0  0  0  0
  -21.3662   -5.6791   24.9173 C   0  0  0  0  0  0
  -21.6038   -4.3049   24.7222 C   0  0  0  0  0  0
  -21.8821   -3.8146   23.4342 C   0  0  0  0  0  0
  -21.9186   -4.6957   22.3400 C   0  0  0  0  0  0
  -22.7820  -13.5190   21.1876 C   0  0  0  0  0  0
  -22.1647   -4.2146   21.0973 F   0  0  0  0  0  0
  -21.5634   -3.4534   25.7738 F   0  0  0  0  0  0
  -30.0216  -13.3298   20.4262 N   0  0  0  0  0  0
  -26.2897  -12.9083   20.3316 N   0  0  0  0  0  0
  -25.9209  -11.6302   20.5795 N   0  0  0  0  0  0
  -22.0453  -12.8211   22.0443 N   0  0  0  0  0  0
  -25.4274  -15.1731   20.4034 N   0  0  0  0  0  0
  -31.8904  -14.6174   20.1971 O   0  0  0  0  0  0
  -21.6599   -6.8843   21.4226 O   0  0  0  0  0  0
  -22.3522  -14.5504   20.6721 O   0  0  0  0  0  0
  -24.6094  -31.8712   23.2123 C   0  0  0  0  0  0
  -25.8999  -32.4845   23.8413 C   0  0  1  0  0  0
  -27.2578  -27.4662   20.1005 C   0  0  0  0  0  0
  -25.5883  -33.8646   24.2358 N   0  0  0  0  0  0
  -23.3979  -30.4913   21.5502 C   0  0  2  0  0  0
  -24.8513  -28.9569   20.1186 C   0  0  0  0  0  0
  -22.7380  -29.4657   22.5000 C   0  0  0  0  0  0
  -18.0263  -28.1373   22.8489 C   0  0  0  0  0  0
  -24.1481  -36.7316   23.2632 C   0  0  0  0  0  0
  -25.9206  -30.8452   21.3619 C   0  0  0  0  0  0
  -26.0031  -29.4770   20.7210 C   0  0  0  0  0  0
  -27.2049  -28.7391   20.7210 C   0  0  0  0  0  0
  -26.0926  -26.9625   19.4877 C   0  0  0  0  0  0
  -24.8881  -27.6935   19.5018 C   0  0  0  0  0  0
  -23.6093  -29.8184   20.1661 C   0  0  0  0  0  0
  -25.4094  -36.3130   24.0348 C   0  0  1  0  0  0
  -20.5850  -28.3648   23.1340 C   0  0  2  0  0  0
  -20.6755  -26.9392   22.5423 C   0  0  0  0  0  0
  -19.5738  -26.6385   21.5213 C   0  0  0  0  0  0
  -18.1916  -26.7924   22.1620 C   0  0  0  0  0  0
  -19.1513  -28.8821   23.2911 C   0  0  0  0  0  0
  -18.9442  -30.1434   23.8909 C   0  0  0  0  0  0
  -17.6450  -30.6578   24.0562 C   0  0  0  0  0  0
  -25.9027  -34.9494   23.5146 C   0  0  0  0  0  0
  -16.5340  -29.9084   23.6329 C   0  0  0  0  0  0
  -16.7252  -28.6506   23.0336 C   0  0  0  0  0  0
  -26.4464  -31.6607   25.0716 C   0  0  0  0  0  0
  -25.3757  -31.3681   26.1484 C   0  0  0  0  0  0
  -27.0276  -30.3057   24.6037 C   0  0  0  0  0  0
  -27.6061  -32.4306   25.7464 C   0  0  0  0  0  0
  -27.5600  -37.1777   24.8442 C   0  0  0  0  0  0
  -21.4118  -29.3025   22.3744 N   0  0  0  0  0  0
  -26.4271  -37.3824   23.9451 N   0  0  0  0  0  0
  -24.6603  -31.0832   22.1010 N   0  0  0  0  0  0
  -23.4180  -28.8213   23.3029 O   0  0  0  0  0  0
  -28.3915  -26.6818   20.0368 O   0  0  0  0  0  0
  -26.5588  -34.8942   22.4708 O   0  0  0  0  0  0
  -23.5297  -32.1443   23.7538 O   0  0  0  0  0  0
  -29.8993  -21.2238   21.8617 C   0  0  0  0  0  0
  -30.9144  -21.9894   21.2704 C   0  0  0  0  0  0
  -31.8886  -21.3000   20.5778 C   0  0  0  0  0  0
  -30.8396  -19.3224   20.9373 C   0  0  0  0  0  0
  -32.9943  -22.1950   20.1048 C   0  0  0  0  0  0
  -32.4280  -23.6108   20.3623 C   0  0  0  0  0  0
  -29.4484  -17.6100   19.6505 C   0  0  0  0  0  0
  -29.0682  -16.1600   19.9405 C   0  0  0  0  0  0
  -30.6168  -16.7638   21.5907 C   0  0  0  0  0  0
  -31.2228  -23.4793   21.3451 C   0  0  1  0  0  0
  -30.6709  -17.8593   20.5143 C   0  0  2  0  0  0
  -30.5126  -25.8342   20.8872 C   0  0  0  0  0  0
  -29.3555  -26.8312   21.0772 C   0  0  0  0  0  0
  -29.8693  -19.8817   21.6737 N   0  0  0  0  0  0
  -31.8651  -19.9728   20.3868 N   0  0  0  0  0  0
  -30.0010  -15.5943   20.9293 N   0  0  0  0  0  0
  -30.1039  -24.4076   21.0133 N   0  3  0  0  0  0
  -31.4635  -12.4103   19.1360 H   0  0  0  0  0  0
  -30.3222  -11.3179   19.8646 H   0  0  0  0  0  0
  -29.7506  -11.7494   17.4455 H   0  0  0  0  0  0
  -29.6360  -13.4615   17.7643 H   0  0  0  0  0  0
  -27.8502  -11.2513   18.8524 H   0  0  0  0  0  0
  -27.3581  -12.5435   17.7898 H   0  0  0  0  0  0
  -27.6154  -14.1750   19.4776 H   0  0  0  0  0  0
  -28.6802  -12.0332   21.4063 H   0  0  0  0  0  0
  -28.4452  -13.7086   21.8177 H   0  0  0  0  0  0
  -25.2695   -9.5638   22.4796 H   0  0  0  0  0  0
  -23.9971   -7.4559   22.7457 H   0  0  0  0  0  0
  -21.0800   -8.8707   19.8946 H   0  0  0  0  0  0
  -22.3625  -10.9631   19.6191 H   0  0  0  0  0  0
  -21.1987   -7.6140   23.9713 H   0  0  0  0  0  0
  -21.1490   -6.0516   25.9078 H   0  0  0  0  0  0
  -22.0608   -2.7612   23.2829 H   0  0  0  0  0  0
  -22.4037  -11.9840   22.4805 H   0  0  0  0  0  0
  -21.1098  -13.1274   22.2691 H   0  0  0  0  0  0
  -24.6657  -15.8314   20.5245 H   0  0  0  0  0  0
  -26.2794  -15.6100   20.0794 H   0  0  0  0  0  0
  -26.7071  -32.5595   23.1193 H   0  0  0  0  0  0
  -25.0054  -33.9818   25.0508 H   0  0  0  0  0  0
  -22.6850  -31.3066   21.4097 H   0  0  0  0  0  0
  -23.3770  -35.9617   23.3255 H   0  0  0  0  0  0
  -24.3598  -36.8962   22.2056 H   0  0  0  0  0  0
  -23.7186  -37.6494   23.6654 H   0  0  0  0  0  0
  -26.0230  -31.6049   20.5860 H   0  0  0  0  0  0
  -26.8120  -30.9104   21.9739 H   0  0  0  0  0  0
  -28.0771  -29.1729   21.1860 H   0  0  0  0  0  0
  -26.1185  -25.9968   19.0019 H   0  0  0  0  0  0
  -24.0045  -27.2851   19.0313 H   0  0  0  0  0  0
  -23.7172  -30.5921   19.4048 H   0  0  0  0  0  0
  -22.7358  -29.2349   19.8710 H   0  0  0  0  0  0
  -25.1250  -36.1990   25.0833 H   0  0  0  0  0  0
  -20.9944  -28.3203   24.1459 H   0  0  0  0  0  0
  -20.5663  -26.2250   23.3595 H   0  0  0  0  0  0
  -21.6628  -26.7443   22.1214 H   0  0  0  0  0  0
  -19.6905  -25.6305   21.1222 H   0  0  0  0  0  0
  -19.6690  -27.3213   20.6760 H   0  0  0  0  0  0
  -17.4193  -26.6675   21.4014 H   0  0  0  0  0  0
  -18.0314  -26.0058   22.9006 H   0  0  0  0  0  0
  -19.7919  -30.7244   24.2289 H   0  0  0  0  0  0
  -17.5006  -31.6262   24.5157 H   0  0  0  0  0  0
  -15.5340  -30.2988   23.7644 H   0  0  0  0  0  0
  -15.8655  -28.0837   22.7026 H   0  0  0  0  0  0
  -24.5928  -30.7033   25.7824 H   0  0  0  0  0  0
  -24.8952  -32.2822   26.4984 H   0  0  0  0  0  0
  -25.8144  -30.8820   27.0208 H   0  0  0  0  0  0
  -26.2783  -29.6831   24.1142 H   0  0  0  0  0  0
  -27.4118  -29.7285   25.4455 H   0  0  0  0  0  0
  -27.8594  -30.4395   23.9121 H   0  0  0  0  0  0
  -27.2701  -33.3591   26.2093 H   0  0  0  0  0  0
  -28.3844  -32.6890   25.0270 H   0  0  0  0  0  0
  -28.0765  -31.8399   26.5333 H   0  0  0  0  0  0
  -28.2528  -38.0168   24.7659 H   0  0  0  0  0  0
  -28.1191  -36.2720   24.6039 H   0  0  0  0  0  0
  -27.2358  -37.1141   25.8844 H   0  0  0  0  0  0
  -20.9264  -29.8748   21.6979 H   0  0  0  0  0  0
  -26.0166  -38.2881   24.1554 H   0  0  0  0  0  0
  -29.1168  -21.6697   22.4586 H   0  0  0  0  0  0
  -33.2439  -22.0250   19.0574 H   0  0  0  0  0  0
  -33.8788  -22.0055   20.7127 H   0  0  0  0  0  0
  -32.0686  -23.9731   19.3989 H   0  0  0  0  0  0
  -33.1848  -24.3177   20.7027 H   0  0  0  0  0  0
  -28.6181  -18.2612   19.9250 H   0  0  0  0  0  0
  -29.6670  -17.7859   18.5972 H   0  0  0  0  0  0
  -29.0741  -15.6143   18.9959 H   0  0  0  0  0  0
  -28.0644  -16.1280   20.3591 H   0  0  0  0  0  0
  -29.9680  -17.0785   22.4111 H   0  0  0  0  0  0
  -31.6016  -16.5619   22.0139 H   0  0  0  0  0  0
  -31.5650  -23.6907   22.3603 H   0  0  0  0  0  0
  -31.5358  -17.6092   19.8976 H   0  0  0  0  0  0
  -31.2686  -26.0555   21.6414 H   0  0  0  0  0  0
  -30.9835  -26.0032   19.9176 H   0  0  0  0  0  0
  -29.7786  -27.8357   21.0528 H   0  0  0  0  0  0
  -28.8862  -26.6954   22.0533 H   0  0  0  0  0  0
  -29.4095  -24.3513   21.7429 H   0  0  0  0  0  0
  -29.6562  -24.1343   20.1520 H   0  0  0  0  0  0
  1 25  1  0  0  0
  1 30  2  0  0  0
  1 86  1  0  0  0
  2  3  1  0  0  0
  2 25  1  0  0  0
  2 88  1  0  0  0
  2 89  1  0  0  0
  3  4  1  0  0  0
  3 90  1  0  0  0
  3 91  1  0  0  0
  4  5  1  0  0  0
  4 92  1  0  0  0
  4 93  1  0  0  0
  5  6  1  0  0  0
  5 26  1  0  0  0
  5 94  1  0  0  0
  6 25  1  0  0  0
  6 95  1  0  0  0
  6 96  1  0  0  0
  7  8  2  0  0  0
  7 26  1  0  0  0
  7 29  1  0  0  0
  8  9  1  0  0  0
  8 22  1  0  0  0
  9 10  1  0  0  0
  9 27  2  0  0  0
 10 11  2  0  0  0
 10 15  1  0  0  0
 11 12  1  0  0  0
 11 97  1  0  0  0
 12 13  2  0  0  0
 12 98  1  0  0  0
 13 14  1  0  0  0
 13 31  1  0  0  0
 14 15  2  0  0  0
 14 99  1  0  0  0
 15100  1  0  0  0
 16 17  2  0  0  0
 16 21  1  0  0  0
 16 31  1  0  0  0
 17 18  1  0  0  0
 17101  1  0  0  0
 18 19  2  0  0  0
 18102  1  0  0  0
 19 20  1  0  0  0
 19 24  1  0  0  0
 20 21  2  0  0  0
 20103  1  0  0  0
 21 23  1  0  0  0
 22 28  1  0  0  0
 22 32  2  0  0  0
 26 27  1  0  0  0
 28104  1  0  0  0
 28105  1  0  0  0
 29106  1  0  0  0
 29107  1  0  0  0
 33 34  1  0  0  0
 33 66  1  0  0  0
 33 70  2  0  0  0
 34 36  1  0  0  0
 34 59  1  0  0  0
 34108  1  0  0  0
 35 44  2  0  0  0
 35 45  1  0  0  0
 35 68  1  0  0  0
 36 56  1  0  0  0
 36109  1  0  0  0
 37 39  1  0  0  0
 37 47  1  0  0  0
 37 66  1  0  0  0
 37110  1  0  0  0
 38 43  2  0  0  0
 38 46  1  0  0  0
 38 47  1  0  0  0
 39 64  1  0  0  0
 39 67  2  0  0  0
 40 52  1  0  0  0
 40 53  2  0  0  0
 40 58  1  0  0  0
 41111  1  0  0  0
 41112  1  0  0  0
 41113  1  0  0  0
 41 48  1  0  0  0
 42 43  1  0  0  0
 42 66  1  0  0  0
 42114  1  0  0  0
 42115  1  0  0  0
 43 44  1  0  0  0
 44116  1  0  0  0
 45 46  2  0  0  0
 45117  1  0  0  0
 46118  1  0  0  0
 47119  1  0  0  0
 47120  1  0  0  0
 48 56  1  0  0  0
 48 65  1  0  0  0
 48121  1  0  0  0
 49 50  1  0  0  0
 49 53  1  0  0  0
 49 64  1  0  0  0
 49122  1  0  0  0
 50 51  1  0  0  0
 50123  1  0  0  0
 50124  1  0  0  0
 51 52  1  0  0  0
 51125  1  0  0  0
 51126  1  0  0  0
 52127  1  0  0  0
 52128  1  0  0  0
 53 54  1  0  0  0
 54 55  2  0  0  0
 54129  1  0  0  0
 55 57  1  0  0  0
 55130  1  0  0  0
 56 69  2  0  0  0
 57 58  2  0  0  0
 57131  1  0  0  0
 58132  1  0  0  0
 59 60  1  0  0  0
 59 61  1  0  0  0
 59 62  1  0  0  0
 60133  1  0  0  0
 60134  1  0  0  0
 60135  1  0  0  0
 61136  1  0  0  0
 61137  1  0  0  0
 61138  1  0  0  0
 62139  1  0  0  0
 62140  1  0  0  0
 62141  1  0  0  0
 63 65  1  0  0  0
 63142  1  0  0  0
 63143  1  0  0  0
 63144  1  0  0  0
 64145  1  0  0  0
 65146  1  0  0  0
 68 83  1  0  0  0
 71 72  2  0  0  0
 71 84  1  0  0  0
 71147  1  0  0  0
 72 73  1  0  0  0
 72 80  1  0  0  0
 73 75  1  0  0  0
 73 85  2  0  0  0
 74 84  2  0  0  0
 74 85  1  0  0  0
 74 81  1  0  0  0
 75 76  1  0  0  0
 75148  1  0  0  0
 75149  1  0  0  0
 76 80  1  0  0  0
 76150  1  0  0  0
 76151  1  0  0  0
 77 78  1  0  0  0
 77 81  1  0  0  0
 77152  1  0  0  0
 77153  1  0  0  0
 78 86  1  0  0  0
 78154  1  0  0  0
 78155  1  0  0  0
 79 81  1  0  0  0
 79 86  1  0  0  0
 79156  1  0  0  0
 79157  1  0  0  0
 80 87  1  0  0  0
 80158  1  0  0  0
 81159  1  0  0  0
 82 83  1  0  0  0
 82 87  1  0  0  0
 82160  1  0  0  0
 82161  1  0  0  0
 83162  1  0  0  0
 83163  1  0  0  0
 87164  1  0  0  0
 87165  1  0  0  0
M  CHG  1  87   1
M  ISO  4   1 100  68 101  83 101  86 100
M  END
> <chiral flag>
0

> <version>
0

> <s_m_source_file>
/data/baiqing/PycharmProjects/Reinvent-master-3.2/result/LINK_invent/BTK/process_docking_weight1_custom_sum_contain_oxygen_bond_distance_aromatic_linkinvent_7_9_3/rearranged_h_0199.sdf

> <i_m_source_file_index>
81

> <r_mmod_Potential_Energy-OPLS-2005>
-275.615447998047

> <r_mmod_Stretch_Energy-OPLS-2005>
39.1374931335449

> <r_mmod_Bend_Energy-OPLS-2005>
181.582977294922

> <r_mmod_Torsional_Energy-OPLS-2005>
336.326690673828

> <r_mmod_Improper_Torsional_Energy-OPLS-2005>
9.13015460968018

> <r_mmod_Van_der_Waal_Energy-OPLS-2005>
162.273559570312

> <r_mmod_Electrostatic_Energy-OPLS-2005>
-557.927307128906

> <r_mmod_Solvation_Energy-OPLS-2005>
-464.008758544922

> <b_mmod_Minimization_Converged-OPLS-2005>
0

> <r_mmod_RMS_Derivative-OPLS-2005>
2.0220410823822

$$$$
81
                    3D
 Structure written by MMmdl.
176185  0  0  1  0            999 V2000
  -30.6945  -14.4358   20.6478 C   0  0  0  0  0  0
  -30.4221  -12.3013   19.4281 C   0  0  0  0  0  0
  -29.4973  -12.5169   18.2093 C   0  0  0  0  0  0
  -28.0127  -12.3897   18.6084 C   0  0  0  0  0  0
  -27.6621  -13.2057   19.8808 C   0  0  2  0  0  0
  -28.6943  -12.9499   21.0018 C   0  0  0  0  0  0
  -25.2579  -13.8199   20.5673 C   0  0  0  0  0  0
  -24.1821  -13.0461   20.9146 C   0  0  0  0  0  0
  -24.6377  -11.6926   20.8699 C   0  0  0  0  0  0
  -23.9048  -10.4285   21.0385 C   0  0  0  0  0  0
  -24.3611   -9.4216   21.9159 C   0  0  0  0  0  0
  -23.6292   -8.2242   22.0722 C   0  0  0  0  0  0
  -22.4267   -8.0289   21.3529 C   0  0  0  0  0  0
  -21.9919   -9.0244   20.4629 C   0  0  0  0  0  0
  -22.7225  -10.2135   20.3024 C   0  0  0  0  0  0
  -21.6847   -6.0745   22.5288 C   0  0  0  0  0  0
  -21.4016   -6.5649   23.8232 C   0  0  0  0  0  0
  -21.3652   -5.6776   24.9189 C   0  0  0  0  0  0
  -21.6029   -4.3045   24.7206 C   0  0  0  0  0  0
  -21.8828   -3.8160   23.4340 C   0  0  0  0  0  0
  -21.9199   -4.6975   22.3407 C   0  0  0  0  0  0
  -22.7854  -13.5264   21.1847 C   0  0  0  0  0  0
  -22.1660   -4.2181   21.0973 F   0  0  0  0  0  0
  -21.5623   -3.4523   25.7722 F   0  0  0  0  0  0
  -30.0341  -13.2577   20.4768 N   0  0  0  0  0  0
  -26.3003  -12.9335   20.3379 N   0  0  0  0  0  0
  -25.9288  -11.6494   20.5704 N   0  0  0  0  0  0
  -22.0503  -12.8221   22.0393 N   0  0  0  0  0  0
  -25.4349  -15.1920   20.4195 N   0  0  0  0  0  0
  -31.7504  -14.6964   20.0667 O   0  0  0  0  0  0
  -21.6618   -6.8906   21.4255 O   0  0  0  0  0  0
  -22.3520  -14.5553   20.6686 O   0  0  0  0  0  0
  -24.6059  -31.8706   23.2090 C   0  0  0  0  0  0
  -25.8961  -32.4866   23.8353 C   0  0  1  0  0  0
  -27.2281  -27.4559   20.0981 C   0  0  0  0  0  0
  -25.5843  -33.8676   24.2276 N   0  0  0  0  0  0
  -23.3930  -30.4868   21.5562 C   0  0  2  0  0  0
  -24.8374  -28.9660   20.1115 C   0  0  0  0  0  0
  -22.7414  -29.4492   22.5000 C   0  0  0  0  0  0
  -18.0266  -28.1144   22.8515 C   0  0  0  0  0  0
  -24.1475  -36.7314   23.2647 C   0  0  0  0  0  0
  -25.9155  -30.8482   21.3514 C   0  0  0  0  0  0
  -25.9976  -29.4838   20.6998 C   0  0  0  0  0  0
  -27.1973  -28.7407   20.6790 C   0  0  0  0  0  0
  -26.0506  -26.9352   19.5184 C   0  0  0  0  0  0
  -24.8615  -27.6916   19.5143 C   0  0  0  0  0  0
  -23.6014  -29.8362   20.1610 C   0  0  0  0  0  0
  -25.4094  -36.3127   24.0339 C   0  0  1  0  0  0
  -20.5861  -28.3333   23.1242 C   0  0  2  0  0  0
  -20.6762  -26.9082   22.5189 C   0  0  0  0  0  0
  -19.5683  -26.6086   21.5057 C   0  0  0  0  0  0
  -18.1894  -26.7725   22.1540 C   0  0  0  0  0  0
  -19.1570  -28.8556   23.2886 C   0  0  0  0  0  0
  -18.9616  -30.1243   23.8810 C   0  0  0  0  0  0
  -17.6690  -30.6550   24.0399 C   0  0  0  0  0  0
  -25.9030  -34.9504   23.5115 C   0  0  0  0  0  0
  -16.5516  -29.9064   23.6428 C   0  0  0  0  0  0
  -16.7292  -28.6400   23.0544 C   0  0  0  0  0  0
  -26.4418  -31.6657   25.0669 C   0  0  0  0  0  0
  -25.3604  -31.3789   26.1337 C   0  0  0  0  0  0
  -27.0274  -30.3129   24.6001 C   0  0  0  0  0  0
  -27.6016  -32.4309   25.7475 C   0  0  0  0  0  0
  -27.5558  -37.1823   24.8485 C   0  0  0  0  0  0
  -21.4167  -29.2919   22.3882 N   0  0  0  0  0  0
  -26.4259  -37.3798   23.9452 N   0  0  0  0  0  0
  -24.6574  -31.0780   22.1014 N   0  0  0  0  0  0
  -23.4309  -28.7956   23.2904 O   0  0  0  0  0  0
  -28.4208  -26.7722   20.0838 O   0  0  0  0  0  0
  -26.5638  -34.8969   22.4693 O   0  0  0  0  0  0
  -23.5274  -32.1449   23.7494 O   0  0  0  0  0  0
  -27.7993  -20.0668   23.1787 C   0  0  0  0  0  0
  -27.7090  -20.3373   24.4962 C   0  0  0  0  0  0
  -26.7779  -19.8938   22.0696 C   0  0  0  0  0  0
  -31.4232  -17.3781   22.1456 C   0  0  0  0  0  0
  -31.0414  -18.8649   22.3662 C   0  0  0  0  0  0
  -29.0963  -17.7169   21.7152 C   0  0  0  0  0  0
  -28.9582  -20.2782   22.2202 C   0  0  1  0  0  0
  -27.7986  -20.7709   21.2982 C   0  0  1  0  0  0
  -30.2768  -16.8126   21.3002 C   0  0  2  0  0  0
  -25.2031  -19.7004   24.8490 C   0  0  0  0  0  0
  -26.4813  -20.3490   25.4024 C   0  0  0  0  0  0
  -27.8717  -20.7649   19.7595 C   0  0  0  0  0  0
  -27.7077  -22.1772   19.1470 C   0  0  0  0  0  0
  -28.6393  -24.5071   19.1849 C   0  0  0  0  0  0
  -28.3848  -25.3868   20.4237 C   0  0  0  0  0  0
  -30.0558  -15.3557   21.4001 N   0  0  0  0  0  0
  -29.7112  -19.0645   21.7462 N   0  3  1  0  0  0
  -28.8221  -23.0772   19.5329 N   0  3  0  0  0  0
  -31.4713  -12.4053   19.1355 H   0  0  0  0  0  0
  -30.3226  -11.2815   19.8057 H   0  0  0  0  0  0
  -29.7315  -11.7985   17.4204 H   0  0  0  0  0  0
  -29.6757  -13.5085   17.7877 H   0  0  0  0  0  0
  -27.8005  -11.3325   18.7651 H   0  0  0  0  0  0
  -27.3731  -12.7045   17.7816 H   0  0  0  0  0  0
  -27.7196  -14.2605   19.6059 H   0  0  0  0  0  0
  -28.6667  -11.9020   21.3062 H   0  0  0  0  0  0
  -28.4391  -13.5083   21.9035 H   0  0  0  0  0  0
  -25.2771   -9.5673   22.4717 H   0  0  0  0  0  0
  -24.0028   -7.4620   22.7403 H   0  0  0  0  0  0
  -21.0868   -8.8740   19.8905 H   0  0  0  0  0  0
  -22.3704  -10.9652   19.6115 H   0  0  0  0  0  0
  -21.2001   -7.6153   23.9765 H   0  0  0  0  0  0
  -21.1461   -6.0493   25.9106 H   0  0  0  0  0  0
  -22.0617   -2.7620   23.2811 H   0  0  0  0  0  0
  -22.4154  -11.9903   22.4790 H   0  0  0  0  0  0
  -21.1104  -13.1198   22.2591 H   0  0  0  0  0  0
  -24.6736  -15.8518   20.5247 H   0  0  0  0  0  0
  -26.3012  -15.6296   20.1304 H   0  0  0  0  0  0
  -26.6998  -32.5587   23.1090 H   0  0  0  0  0  0
  -24.9937  -33.9869   25.0383 H   0  0  0  0  0  0
  -22.6793  -31.3019   21.4306 H   0  0  0  0  0  0
  -23.3733  -35.9650   23.3319 H   0  0  0  0  0  0
  -24.3557  -36.8898   22.2057 H   0  0  0  0  0  0
  -23.7253  -37.6533   23.6641 H   0  0  0  0  0  0
  -25.9983  -31.6122   20.5730 H   0  0  0  0  0  0
  -26.8186  -30.9214   21.9454 H   0  0  0  0  0  0
  -28.0983  -29.1467   21.1218 H   0  0  0  0  0  0
  -26.0281  -25.9576   19.0692 H   0  0  0  0  0  0
  -23.9677  -27.2940   19.0514 H   0  0  0  0  0  0
  -23.7250  -30.6199   19.4149 H   0  0  0  0  0  0
  -22.7265  -29.2627   19.8436 H   0  0  0  0  0  0
  -25.1273  -36.1953   25.0823 H   0  0  0  0  0  0
  -20.9841  -28.2756   24.1391 H   0  0  0  0  0  0
  -20.5690  -26.1715   23.3198 H   0  0  0  0  0  0
  -21.6522  -26.7236   22.0747 H   0  0  0  0  0  0
  -19.6773  -25.5967   21.1114 H   0  0  0  0  0  0
  -19.6721  -27.2616   20.6399 H   0  0  0  0  0  0
  -17.4158  -26.6523   21.3940 H   0  0  0  0  0  0
  -18.0288  -25.9731   22.8823 H   0  0  0  0  0  0
  -19.8117  -30.6963   24.2122 H   0  0  0  0  0  0
  -17.5510  -31.6358   24.4844 H   0  0  0  0  0  0
  -15.5617  -30.3130   23.7904 H   0  0  0  0  0  0
  -15.8609  -28.0694   22.7512 H   0  0  0  0  0  0
  -24.5730  -30.7266   25.7530 H   0  0  0  0  0  0
  -24.8876  -32.3013   26.4731 H   0  0  0  0  0  0
  -25.7793  -30.8872   27.0125 H   0  0  0  0  0  0
  -26.2875  -29.6909   24.0955 H   0  0  0  0  0  0
  -27.4019  -29.7321   25.4449 H   0  0  0  0  0  0
  -27.8690  -30.4533   23.9211 H   0  0  0  0  0  0
  -27.2676  -33.3551   26.2200 H   0  0  0  0  0  0
  -28.3812  -32.6918   25.0305 H   0  0  0  0  0  0
  -28.0709  -31.8317   26.5274 H   0  0  0  0  0  0
  -28.2589  -38.0101   24.7491 H   0  0  0  0  0  0
  -28.1036  -36.2634   24.6340 H   0  0  0  0  0  0
  -27.2314  -37.1533   25.8900 H   0  0  0  0  0  0
  -20.9259  -29.8959   21.7463 H   0  0  0  0  0  0
  -26.0126  -38.2859   24.1469 H   0  0  0  0  0  0
  -28.6212  -20.6436   24.9868 H   0  0  0  0  0  0
  -25.8070  -20.3817   22.1326 H   0  0  0  0  0  0
  -26.6475  -18.8971   21.6497 H   0  0  0  0  0  0
  -31.4839  -16.8646   23.1052 H   0  0  0  0  0  0
  -32.3866  -17.2648   21.6413 H   0  0  0  0  0  0
  -31.7690  -19.5286   21.8966 H   0  0  0  0  0  0
  -31.0148  -19.1090   23.4320 H   0  0  0  0  0  0
  -28.7348  -17.4554   22.7118 H   0  0  0  0  0  0
  -28.2751  -17.6535   21.0018 H   0  0  0  0  0  0
  -29.6454  -21.0980   22.4377 H   0  0  0  0  0  0
  -27.5801  -21.8029   21.5970 H   0  0  0  0  0  0
  -30.4915  -17.0381   20.2526 H   0  0  0  0  0  0
  -24.4415  -19.6479   25.6258 H   0  0  0  0  0  0
  -25.3928  -18.6799   24.5227 H   0  0  0  0  0  0
  -24.7688  -20.2499   24.0095 H   0  0  0  0  0  0
  -26.2665  -21.3667   25.7375 H   0  0  0  0  0  0
  -26.7822  -19.8117   26.2976 H   0  0  0  0  0  0
  -27.0786  -20.1315   19.3633 H   0  0  0  0  0  0
  -28.7882  -20.3107   19.3904 H   0  0  0  0  0  0
  -27.6492  -22.1191   18.0591 H   0  0  0  0  0  0
  -26.7606  -22.6097   19.4728 H   0  0  0  0  0  0
  -29.5586  -24.8382   18.7053 H   0  0  0  0  0  0
  -27.8444  -24.6331   18.4513 H   0  0  0  0  0  0
  -29.1793  -25.2322   21.1530 H   0  0  0  0  0  0
  -27.4587  -25.0999   20.9278 H   0  0  0  0  0  0
  -29.2519  -15.0272   21.9160 H   0  0  0  0  0  0
  -29.9376  -19.2558   20.7839 H   0  0  0  0  0  0
  -29.6571  -22.7549   19.0648 H   0  0  0  0  0  0
  -28.9940  -22.9998   20.5268 H   0  0  0  0  0  0
  1 25  1  0  0  0
  1 30  2  0  0  0
  1 86  1  0  0  0
  2  3  1  0  0  0
  2 25  1  0  0  0
  2 89  1  0  0  0
  2 90  1  0  0  0
  3  4  1  0  0  0
  3 91  1  0  0  0
  3 92  1  0  0  0
  4  5  1  0  0  0
  4 93  1  0  0  0
  4 94  1  0  0  0
  5  6  1  0  0  0
  5 26  1  0  0  0
  5 95  1  0  0  0
  6 25  1  0  0  0
  6 96  1  0  0  0
  6 97  1  0  0  0
  7  8  2  0  0  0
  7 26  1  0  0  0
  7 29  1  0  0  0
  8  9  1  0  0  0
  8 22  1  0  0  0
  9 10  1  0  0  0
  9 27  2  0  0  0
 10 11  2  0  0  0
 10 15  1  0  0  0
 11 12  1  0  0  0
 11 98  1  0  0  0
 12 13  2  0  0  0
 12 99  1  0  0  0
 13 14  1  0  0  0
 13 31  1  0  0  0
 14 15  2  0  0  0
 14100  1  0  0  0
 15101  1  0  0  0
 16 17  2  0  0  0
 16 21  1  0  0  0
 16 31  1  0  0  0
 17 18  1  0  0  0
 17102  1  0  0  0
 18 19  2  0  0  0
 18103  1  0  0  0
 19 20  1  0  0  0
 19 24  1  0  0  0
 20 21  2  0  0  0
 20104  1  0  0  0
 21 23  1  0  0  0
 22 28  1  0  0  0
 22 32  2  0  0  0
 26 27  1  0  0  0
 28105  1  0  0  0
 28106  1  0  0  0
 29107  1  0  0  0
 29108  1  0  0  0
 33 34  1  0  0  0
 33 66  1  0  0  0
 33 70  2  0  0  0
 34 36  1  0  0  0
 34 59  1  0  0  0
 34109  1  0  0  0
 35 44  2  0  0  0
 35 45  1  0  0  0
 35 68  1  0  0  0
 36 56  1  0  0  0
 36110  1  0  0  0
 37 39  1  0  0  0
 37 47  1  0  0  0
 37 66  1  0  0  0
 37111  1  0  0  0
 38 43  2  0  0  0
 38 46  1  0  0  0
 38 47  1  0  0  0
 39 64  1  0  0  0
 39 67  2  0  0  0
 40 52  1  0  0  0
 40 53  2  0  0  0
 40 58  1  0  0  0
 41112  1  0  0  0
 41113  1  0  0  0
 41114  1  0  0  0
 41 48  1  0  0  0
 42 43  1  0  0  0
 42 66  1  0  0  0
 42115  1  0  0  0
 42116  1  0  0  0
 43 44  1  0  0  0
 44117  1  0  0  0
 45 46  2  0  0  0
 45118  1  0  0  0
 46119  1  0  0  0
 47120  1  0  0  0
 47121  1  0  0  0
 48 56  1  0  0  0
 48 65  1  0  0  0
 48122  1  0  0  0
 49 50  1  0  0  0
 49 53  1  0  0  0
 49 64  1  0  0  0
 49123  1  0  0  0
 50 51  1  0  0  0
 50124  1  0  0  0
 50125  1  0  0  0
 51 52  1  0  0  0
 51126  1  0  0  0
 51127  1  0  0  0
 52128  1  0  0  0
 52129  1  0  0  0
 53 54  1  0  0  0
 54 55  2  0  0  0
 54130  1  0  0  0
 55 57  1  0  0  0
 55131  1  0  0  0
 56 69  2  0  0  0
 57 58  2  0  0  0
 57132  1  0  0  0
 58133  1  0  0  0
 59 60  1  0  0  0
 59 61  1  0  0  0
 59 62  1  0  0  0
 60134  1  0  0  0
 60135  1  0  0  0
 60136  1  0  0  0
 61137  1  0  0  0
 61138  1  0  0  0
 61139  1  0  0  0
 62140  1  0  0  0
 62141  1  0  0  0
 62142  1  0  0  0
 63 65  1  0  0  0
 63143  1  0  0  0
 63144  1  0  0  0
 63145  1  0  0  0
 64146  1  0  0  0
 65147  1  0  0  0
 68 85  1  0  0  0
 71 72  2  0  0  0
 71 73  1  0  0  0
 71 77  1  0  0  0
 72 81  1  0  0  0
 72148  1  0  0  0
 73 78  1  0  0  0
 73149  1  0  0  0
 73150  1  0  0  0
 74 75  1  0  0  0
 74 79  1  0  0  0
 74151  1  0  0  0
 74152  1  0  0  0
 75153  1  0  0  0
 75154  1  0  0  0
 75 87  1  0  0  0
 76 79  1  0  0  0
 76 87  1  0  0  0
 76155  1  0  0  0
 76156  1  0  0  0
 77 78  1  0  0  0
 77 87  1  0  0  0
 77157  1  0  0  0
 78 82  1  0  0  0
 78158  1  0  0  0
 79 86  1  0  0  0
 79159  1  0  0  0
 80 81  1  0  0  0
 80160  1  0  0  0
 80161  1  0  0  0
 80162  1  0  0  0
 81163  1  0  0  0
 81164  1  0  0  0
 82 83  1  0  0  0
 82165  1  0  0  0
 82166  1  0  0  0
 83 88  1  0  0  0
 83167  1  0  0  0
 83168  1  0  0  0
 84 85  1  0  0  0
 84 88  1  0  0  0
 84169  1  0  0  0
 84170  1  0  0  0
 85171  1  0  0  0
 85172  1  0  0  0
 86173  1  0  0  0
 87174  1  0  0  0
 88175  1  0  0  0
 88176  1  0  0  0
M  CHG  2  87   1  88   1
M  ISO  4   1 100  68 101  85 101  86 100
M  END
> <chiral flag>
0

> <version>
0

> <s_m_source_file>
/data/baiqing/PycharmProjects/Reinvent-master-3.2/result/LINK_invent/BTK/process_docking_weight1_custom_sum_contain_oxygen_bond_distance_aromatic_linkinvent_7_9_3/rearranged_h_0199.sdf

> <i_m_source_file_index>
82

> <r_mmod_Potential_Energy-OPLS-2005>
-155.417907714844

> <r_mmod_Stretch_Energy-OPLS-2005>
38.2884941101074

> <r_mmod_Bend_Energy-OPLS-2005>
175.960906982422

> <r_mmod_Torsional_Energy-OPLS-2005>
322.470489501953

> <r_mmod_Improper_Torsional_Energy-OPLS-2005>
3.97559094429016

> <r_mmod_Van_der_Waal_Energy-OPLS-2005>
128.130645751953

> <r_mmod_Electrostatic_Energy-OPLS-2005>
127.610877990723

> <r_mmod_Solvation_Energy-OPLS-2005>
-962.029357910156

> <b_mmod_Minimization_Converged-OPLS-2005>
0

> <r_mmod_RMS_Derivative-OPLS-2005>
8.79334545135498

$$$$
82
                    3D
 Structure written by MMmdl.
170180  0  0  1  0            999 V2000
  -30.7246  -14.5586   20.4444 C   0  0  0  0  0  0
  -30.4176  -12.3306   19.4397 C   0  0  0  0  0  0
  -29.4935  -12.4581   18.2111 C   0  0  0  0  0  0
  -28.0175  -12.3221   18.6331 C   0  0  0  0  0  0
  -27.6456  -13.2123   19.8508 C   0  0  2  0  0  0
  -28.7025  -13.1258   20.9766 C   0  0  0  0  0  0
  -25.2534  -13.8156   20.5727 C   0  0  0  0  0  0
  -24.1787  -13.0440   20.9208 C   0  0  0  0  0  0
  -24.6348  -11.6904   20.8756 C   0  0  0  0  0  0
  -23.9021  -10.4283   21.0387 C   0  0  0  0  0  0
  -24.3571   -9.4204   21.9170 C   0  0  0  0  0  0
  -23.6252   -8.2236   22.0752 C   0  0  0  0  0  0
  -22.4249   -8.0258   21.3532 C   0  0  0  0  0  0
  -21.9874   -9.0224   20.4646 C   0  0  0  0  0  0
  -22.7189  -10.2109   20.3043 C   0  0  0  0  0  0
  -21.6856   -6.0707   22.5269 C   0  0  0  0  0  0
  -21.4018   -6.5612   23.8204 C   0  0  0  0  0  0
  -21.3664   -5.6773   24.9164 C   0  0  0  0  0  0
  -21.6052   -4.3034   24.7231 C   0  0  0  0  0  0
  -21.8815   -3.8124   23.4349 C   0  0  0  0  0  0
  -21.9189   -4.6930   22.3408 C   0  0  0  0  0  0
  -22.7797  -13.5220   21.1882 C   0  0  0  0  0  0
  -22.1658   -4.2108   21.0989 F   0  0  0  0  0  0
  -21.5628   -3.4537   25.7750 F   0  0  0  0  0  0
  -30.0235  -13.3861   20.3845 N   0  0  0  0  0  0
  -26.2958  -12.9324   20.3324 N   0  0  0  0  0  0
  -25.9285  -11.6482   20.5786 N   0  0  0  0  0  0
  -22.0442  -12.8227   22.0428 N   0  0  0  0  0  0
  -25.4294  -15.1881   20.4180 N   0  0  0  0  0  0
  -31.9398  -14.6099   20.2437 O   0  0  0  0  0  0
  -21.6629   -6.8843   21.4229 O   0  0  0  0  0  0
  -22.3497  -14.5516   20.6714 O   0  0  0  0  0  0
  -24.6220  -31.8606   23.2056 C   0  0  0  0  0  0
  -25.9114  -32.4744   23.8352 C   0  0  1  0  0  0
  -27.2328  -27.3727   20.0992 C   0  0  0  0  0  0
  -25.5938  -33.8558   24.2248 N   0  0  0  0  0  0
  -23.4115  -30.4828   21.5488 C   0  0  2  0  0  0
  -24.8608  -28.9389   20.1135 C   0  0  0  0  0  0
  -22.7423  -29.4622   22.4979 C   0  0  0  0  0  0
  -18.0268  -28.1405   22.8479 C   0  0  0  0  0  0
  -24.1478  -36.7304   23.2639 C   0  0  0  0  0  0
  -25.9489  -30.8022   21.3713 C   0  0  0  0  0  0
  -26.0274  -29.4324   20.7118 C   0  0  0  0  0  0
  -27.2202  -28.6644   20.6914 C   0  0  0  0  0  0
  -26.0465  -26.9072   19.4886 C   0  0  0  0  0  0
  -24.8677  -27.6763   19.4981 C   0  0  0  0  0  0
  -23.6229  -29.8130   20.1622 C   0  0  0  0  0  0
  -25.4105  -36.3053   24.0303 C   0  0  1  0  0  0
  -20.5852  -28.3684   23.1303 C   0  0  2  0  0  0
  -20.6754  -26.9414   22.5413 C   0  0  0  0  0  0
  -19.5754  -26.6396   21.5198 C   0  0  0  0  0  0
  -18.1926  -26.7944   22.1615 C   0  0  0  0  0  0
  -19.1515  -28.8877   23.2880 C   0  0  0  0  0  0
  -18.9438  -30.1480   23.8884 C   0  0  0  0  0  0
  -17.6444  -30.6605   24.0572 C   0  0  0  0  0  0
  -25.9038  -34.9415   23.5057 C   0  0  0  0  0  0
  -16.5336  -29.9097   23.6356 C   0  0  0  0  0  0
  -16.7252  -28.6529   23.0345 C   0  0  0  0  0  0
  -26.4521  -31.6581   25.0721 C   0  0  0  0  0  0
  -25.3767  -31.3740   26.1454 C   0  0  0  0  0  0
  -27.0373  -30.2998   24.6212 C   0  0  0  0  0  0
  -27.6047  -32.4372   25.7520 C   0  0  0  0  0  0
  -27.5559  -37.1785   24.8461 C   0  0  0  0  0  0
  -21.4137  -29.3020   22.3694 N   0  0  0  0  0  0
  -26.4277  -37.3753   23.9393 N   0  0  0  0  0  0
  -24.6802  -31.0637   22.1003 N   0  0  0  0  0  0
  -23.4178  -28.8188   23.3064 O   0  0  0  0  0  0
  -28.3636  -26.5641   20.0957 O   0  0  0  0  0  0
  -26.5607  -34.8903   22.4623 O   0  0  0  0  0  0
  -23.5399  -32.1455   23.7374 O   0  0  0  0  0  0
  -29.1023  -24.1105   20.3363 C   0  0  0  0  0  0
  -28.7746  -22.8209   19.9320 C   0  0  0  0  0  0
  -30.9428  -22.9405   20.1602 C   0  0  0  0  0  0
  -33.5177  -23.4806   20.5495 C   0  0  0  0  0  0
  -33.3083  -23.1508   19.0860 C   0  0  0  0  0  0
  -29.9862  -17.6211   18.8101 C   0  0  0  0  0  0
  -29.6704  -16.1321   18.9635 C   0  0  0  0  0  0
  -32.3973  -22.5534   20.1320 C   0  0  0  0  0  0
  -29.7968  -18.1729   20.2077 C   0  0  1  0  0  0
  -30.3437  -16.9779   21.0546 C   0  0  1  0  0  0
  -27.4294  -22.2103   19.6732 C   0  0  0  0  0  0
  -29.8334  -16.9575   22.5068 C   0  0  0  0  0  0
  -28.1807  -25.2732   20.7406 C   0  0  0  0  0  0
  -30.4068  -19.5997   20.4421 C   0  0  0  0  0  0
  -30.0980  -20.6747   19.3479 C   0  0  0  0  0  0
  -30.4891  -24.1559   20.4901 N   0  0  0  0  0  0
  -29.9648  -22.0778   19.8138 N   0  0  0  0  0  0
  -29.9952  -15.7116   20.3418 N   0  0  0  0  0  0
  -31.4603  -12.4154   19.1340 H   0  0  0  0  0  0
  -30.3141  -11.3464   19.9008 H   0  0  0  0  0  0
  -29.7397  -11.6937   17.4722 H   0  0  0  0  0  0
  -29.6542  -13.4164   17.7153 H   0  0  0  0  0  0
  -27.8497  -11.2743   18.8827 H   0  0  0  0  0  0
  -27.3605  -12.5360   17.7892 H   0  0  0  0  0  0
  -27.6365  -14.2339   19.4843 H   0  0  0  0  0  0
  -28.6862  -12.1394   21.4416 H   0  0  0  0  0  0
  -28.4758  -13.8486   21.7646 H   0  0  0  0  0  0
  -25.2707   -9.5686   22.4751 H   0  0  0  0  0  0
  -23.9969   -7.4625   22.7468 H   0  0  0  0  0  0
  -21.0807   -8.8717   19.8954 H   0  0  0  0  0  0
  -22.3618  -10.9630   19.6156 H   0  0  0  0  0  0
  -21.2018   -7.6126   23.9688 H   0  0  0  0  0  0
  -21.1498   -6.0517   25.9067 H   0  0  0  0  0  0
  -22.0597   -2.7587   23.2871 H   0  0  0  0  0  0
  -22.4058  -11.9895   22.4842 H   0  0  0  0  0  0
  -21.1061  -13.1244   22.2629 H   0  0  0  0  0  0
  -24.6739  -15.8520   20.5452 H   0  0  0  0  0  0
  -26.2998  -15.6247   20.1459 H   0  0  0  0  0  0
  -26.7166  -32.5412   23.1084 H   0  0  0  0  0  0
  -25.0037  -33.9755   25.0354 H   0  0  0  0  0  0
  -22.7079  -31.3050   21.4046 H   0  0  0  0  0  0
  -23.3692  -35.9683   23.3307 H   0  0  0  0  0  0
  -24.3551  -36.8938   22.2051 H   0  0  0  0  0  0
  -23.7294  -37.6531   23.6679 H   0  0  0  0  0  0
  -26.0785  -31.5710   20.6085 H   0  0  0  0  0  0
  -26.8301  -30.8434   21.9984 H   0  0  0  0  0  0
  -28.1218  -29.0448   21.1543 H   0  0  0  0  0  0
  -26.0221  -25.9394   19.0089 H   0  0  0  0  0  0
  -23.9735  -27.2927   19.0333 H   0  0  0  0  0  0
  -23.7354  -30.5915   19.4061 H   0  0  0  0  0  0
  -22.7437  -29.2383   19.8591 H   0  0  0  0  0  0
  -25.1274  -36.1872   25.0792 H   0  0  0  0  0  0
  -20.9939  -28.3228   24.1431 H   0  0  0  0  0  0
  -20.5644  -26.2277   23.3588 H   0  0  0  0  0  0
  -21.6614  -26.7448   22.1198 H   0  0  0  0  0  0
  -19.6897  -25.6298   21.1241 H   0  0  0  0  0  0
  -19.6692  -27.3189   20.6709 H   0  0  0  0  0  0
  -17.4174  -26.6674   21.4040 H   0  0  0  0  0  0
  -18.0348  -26.0103   22.9040 H   0  0  0  0  0  0
  -19.7912  -30.7310   24.2224 H   0  0  0  0  0  0
  -17.4999  -31.6276   24.5178 H   0  0  0  0  0  0
  -15.5344  -30.2991   23.7713 H   0  0  0  0  0  0
  -15.8645  -28.0865   22.7046 H   0  0  0  0  0  0
  -24.5888  -30.7158   25.7788 H   0  0  0  0  0  0
  -24.9039  -32.2914   26.4967 H   0  0  0  0  0  0
  -25.8107  -30.8849   27.0175 H   0  0  0  0  0  0
  -26.2943  -29.6747   24.1246 H   0  0  0  0  0  0
  -27.4045  -29.7286   25.4752 H   0  0  0  0  0  0
  -27.8830  -30.4273   23.9449 H   0  0  0  0  0  0
  -27.2574  -33.3623   26.2157 H   0  0  0  0  0  0
  -28.3833  -32.7045   25.0352 H   0  0  0  0  0  0
  -28.0746  -31.8483   26.5413 H   0  0  0  0  0  0
  -28.2556  -38.0098   24.7443 H   0  0  0  0  0  0
  -28.1061  -36.2600   24.6318 H   0  0  0  0  0  0
  -27.2266  -37.1466   25.8872 H   0  0  0  0  0  0
  -20.9342  -29.8723   21.6860 H   0  0  0  0  0  0
  -26.0122  -38.2810   24.1427 H   0  0  0  0  0  0
  -33.2389  -24.4623   20.9263 H   0  0  0  0  0  0
  -34.3952  -23.0435   21.0192 H   0  0  0  0  0  0
  -34.0129  -22.4799   18.5964 H   0  0  0  0  0  0
  -32.8853  -23.9207   18.4477 H   0  0  0  0  0  0
  -29.3360  -18.0947   18.0722 H   0  0  0  0  0  0
  -31.0194  -17.7519   18.4851 H   0  0  0  0  0  0
  -28.6072  -15.9860   18.7895 H   0  0  0  0  0  0
  -30.2061  -15.5678   18.1998 H   0  0  0  0  0  0
  -32.5378  -21.5095   20.3944 H   0  0  0  0  0  0
  -28.7197  -18.2540   20.3758 H   0  0  0  0  0  0
  -31.4329  -17.0649   21.0817 H   0  0  0  0  0  0
  -26.6544  -22.9666   19.5457 H   0  0  0  0  0  0
  -27.1356  -21.5660   20.5008 H   0  0  0  0  0  0
  -27.4233  -21.6060   18.7675 H   0  0  0  0  0  0
  -30.1167  -17.8626   23.0485 H   0  0  0  0  0  0
  -30.2542  -16.1071   23.0494 H   0  0  0  0  0  0
  -28.7477  -16.8682   22.5510 H   0  0  0  0  0  0
  -28.3172  -25.4655   21.8058 H   0  0  0  0  0  0
  -27.1481  -24.9362   20.6551 H   0  0  0  0  0  0
  -31.4896  -19.5163   20.5337 H   0  0  0  0  0  0
  -30.0483  -19.9736   21.4013 H   0  0  0  0  0  0
  -29.1951  -20.3976   18.8119 H   0  0  0  0  0  0
  -30.8853  -20.6537   18.5882 H   0  0  0  0  0  0
  1 25  1  0  0  0
  1 30  2  0  0  0
  1 88  1  0  0  0
  2  3  1  0  0  0
  2 25  1  0  0  0
  2 89  1  0  0  0
  2 90  1  0  0  0
  3  4  1  0  0  0
  3 91  1  0  0  0
  3 92  1  0  0  0
  4  5  1  0  0  0
  4 93  1  0  0  0
  4 94  1  0  0  0
  5  6  1  0  0  0
  5 26  1  0  0  0
  5 95  1  0  0  0
  6 25  1  0  0  0
  6 96  1  0  0  0
  6 97  1  0  0  0
  7  8  2  0  0  0
  7 26  1  0  0  0
  7 29  1  0  0  0
  8  9  1  0  0  0
  8 22  1  0  0  0
  9 10  1  0  0  0
  9 27  2  0  0  0
 10 11  2  0  0  0
 10 15  1  0  0  0
 11 12  1  0  0  0
 11 98  1  0  0  0
 12 13  2  0  0  0
 12 99  1  0  0  0
 13 14  1  0  0  0
 13 31  1  0  0  0
 14 15  2  0  0  0
 14100  1  0  0  0
 15101  1  0  0  0
 16 17  2  0  0  0
 16 21  1  0  0  0
 16 31  1  0  0  0
 17 18  1  0  0  0
 17102  1  0  0  0
 18 19  2  0  0  0
 18103  1  0  0  0
 19 20  1  0  0  0
 19 24  1  0  0  0
 20 21  2  0  0  0
 20104  1  0  0  0
 21 23  1  0  0  0
 22 28  1  0  0  0
 22 32  2  0  0  0
 26 27  1  0  0  0
 28105  1  0  0  0
 28106  1  0  0  0
 29107  1  0  0  0
 29108  1  0  0  0
 33 34  1  0  0  0
 33 66  1  0  0  0
 33 70  2  0  0  0
 34 36  1  0  0  0
 34 59  1  0  0  0
 34109  1  0  0  0
 35 44  2  0  0  0
 35 45  1  0  0  0
 35 68  1  0  0  0
 36 56  1  0  0  0
 36110  1  0  0  0
 37 39  1  0  0  0
 37 47  1  0  0  0
 37 66  1  0  0  0
 37111  1  0  0  0
 38 43  2  0  0  0
 38 46  1  0  0  0
 38 47  1  0  0  0
 39 64  1  0  0  0
 39 67  2  0  0  0
 40 52  1  0  0  0
 40 53  2  0  0  0
 40 58  1  0  0  0
 41112  1  0  0  0
 41113  1  0  0  0
 41114  1  0  0  0
 41 48  1  0  0  0
 42 43  1  0  0  0
 42 66  1  0  0  0
 42115  1  0  0  0
 42116  1  0  0  0
 43 44  1  0  0  0
 44117  1  0  0  0
 45 46  2  0  0  0
 45118  1  0  0  0
 46119  1  0  0  0
 47120  1  0  0  0
 47121  1  0  0  0
 48 56  1  0  0  0
 48 65  1  0  0  0
 48122  1  0  0  0
 49 50  1  0  0  0
 49 53  1  0  0  0
 49 64  1  0  0  0
 49123  1  0  0  0
 50 51  1  0  0  0
 50124  1  0  0  0
 50125  1  0  0  0
 51 52  1  0  0  0
 51126  1  0  0  0
 51127  1  0  0  0
 52128  1  0  0  0
 52129  1  0  0  0
 53 54  1  0  0  0
 54 55  2  0  0  0
 54130  1  0  0  0
 55 57  1  0  0  0
 55131  1  0  0  0
 56 69  2  0  0  0
 57 58  2  0  0  0
 57132  1  0  0  0
 58133  1  0  0  0
 59 60  1  0  0  0
 59 61  1  0  0  0
 59 62  1  0  0  0
 60134  1  0  0  0
 60135  1  0  0  0
 60136  1  0  0  0
 61137  1  0  0  0
 61138  1  0  0  0
 61139  1  0  0  0
 62140  1  0  0  0
 62141  1  0  0  0
 62142  1  0  0  0
 63 65  1  0  0  0
 63143  1  0  0  0
 63144  1  0  0  0
 63145  1  0  0  0
 64146  1  0  0  0
 65147  1  0  0  0
 68 83  1  0  0  0
 71 72  2  0  0  0
 71 83  1  0  0  0
 71 86  1  0  0  0
 72 81  1  0  0  0
 72 87  1  0  0  0
 73 86  2  0  0  0
 73 87  1  0  0  0
 73 78  1  0  0  0
 74 75  1  0  0  0
 74 78  1  0  0  0
 74148  1  0  0  0
 74149  1  0  0  0
 75 78  1  0  0  0
 75150  1  0  0  0
 75151  1  0  0  0
 76 77  1  0  0  0
 76 79  1  0  0  0
 76152  1  0  0  0
 76153  1  0  0  0
 77 88  1  0  0  0
 77154  1  0  0  0
 77155  1  0  0  0
 78156  1  0  0  0
 79 80  1  0  0  0
 79 84  1  0  0  0
 79157  1  0  0  0
 80 82  1  0  0  0
 80 88  1  0  0  0
 80158  1  0  0  0
 81159  1  0  0  0
 81160  1  0  0  0
 81161  1  0  0  0
 82162  1  0  0  0
 82163  1  0  0  0
 82164  1  0  0  0
 83165  1  0  0  0
 83166  1  0  0  0
 84 85  1  0  0  0
 84167  1  0  0  0
 84168  1  0  0  0
 85 87  1  0  0  0
 85169  1  0  0  0
 85170  1  0  0  0
M  ISO  4   1 100  68 101  83 101  88 100
M  END
> <chiral flag>
0

> <version>
0

> <s_m_source_file>
/data/baiqing/PycharmProjects/Reinvent-master-3.2/result/LINK_invent/BTK/process_docking_weight1_custom_sum_contain_oxygen_bond_distance_aromatic_linkinvent_7_9_3/rearranged_h_0199.sdf

> <i_m_source_file_index>
83

> <r_mmod_Potential_Energy-OPLS-2005>
323.517913818359

> <r_mmod_Stretch_Energy-OPLS-2005>
54.7661094665527

> <r_mmod_Bend_Energy-OPLS-2005>
146.003219604492

> <r_mmod_Torsional_Energy-OPLS-2005>
411.537353515625

> <r_mmod_Improper_Torsional_Energy-OPLS-2005>
15.4863405227661

> <r_mmod_Van_der_Waal_Energy-OPLS-2005>
113.894149780273

> <r_mmod_Electrostatic_Energy-OPLS-2005>
-250.583053588867

> <r_mmod_Solvation_Energy-OPLS-2005>
-207.197082519531

> <b_mmod_Minimization_Converged-OPLS-2005>
0

> <r_mmod_RMS_Derivative-OPLS-2005>
6.27838897705078

$$$$
83
                    3D
 Structure written by MMmdl.
157166  0  0  1  0            999 V2000
  -30.6023  -14.7897   20.4784 C   0  0  0  0  0  0
  -30.4326  -12.4846   19.4965 C   0  0  0  0  0  0
  -29.5170  -12.5080   18.2523 C   0  0  0  0  0  0
  -28.0428  -12.3246   18.6615 C   0  0  0  0  0  0
  -27.6402  -13.2335   19.8525 C   0  0  2  0  0  0
  -28.6794  -13.1877   20.9928 C   0  0  0  0  0  0
  -25.2513  -13.8194   20.5711 C   0  0  0  0  0  0
  -24.1797  -13.0440   20.9186 C   0  0  0  0  0  0
  -24.6390  -11.6917   20.8735 C   0  0  0  0  0  0
  -23.9074  -10.4290   21.0395 C   0  0  0  0  0  0
  -24.3620   -9.4209   21.9177 C   0  0  0  0  0  0
  -23.6292   -8.2249   22.0758 C   0  0  0  0  0  0
  -22.4278   -8.0279   21.3548 C   0  0  0  0  0  0
  -21.9907   -9.0258   20.4655 C   0  0  0  0  0  0
  -22.7238  -10.2137   20.3056 C   0  0  0  0  0  0
  -21.6856   -6.0740   22.5276 C   0  0  0  0  0  0
  -21.4015   -6.5649   23.8210 C   0  0  0  0  0  0
  -21.3658   -5.6806   24.9172 C   0  0  0  0  0  0
  -21.6038   -4.3069   24.7220 C   0  0  0  0  0  0
  -21.8816   -3.8157   23.4347 C   0  0  0  0  0  0
  -21.9192   -4.6970   22.3401 C   0  0  0  0  0  0
  -22.7826  -13.5226   21.1853 C   0  0  0  0  0  0
  -22.1662   -4.2157   21.0981 F   0  0  0  0  0  0
  -21.5617   -3.4556   25.7734 F   0  0  0  0  0  0
  -29.9754  -13.5578   20.4143 N   0  0  0  0  0  0
  -26.2927  -12.9408   20.3290 N   0  0  0  0  0  0
  -25.9317  -11.6549   20.5752 N   0  0  0  0  0  0
  -22.0488  -12.8208   22.0411 N   0  0  0  0  0  0
  -25.4224  -15.1926   20.4182 N   0  0  0  0  0  0
  -31.7695  -14.8797   20.0834 O   0  0  0  0  0  0
  -21.6640   -6.8879   21.4242 O   0  0  0  0  0  0
  -22.3500  -14.5535   20.6710 O   0  0  0  0  0  0
  -24.6359  -31.8543   23.1965 C   0  0  0  0  0  0
  -25.9170  -32.4747   23.8332 C   0  0  1  0  0  0
  -27.1994  -27.2121   20.1438 C   0  0  0  0  0  0
  -25.5947  -33.8554   24.2253 N   0  0  0  0  0  0
  -23.4326  -30.4776   21.5414 C   0  0  2  0  0  0
  -24.8780  -28.9205   20.1066 C   0  0  0  0  0  0
  -22.7521  -29.4604   22.4906 C   0  0  0  0  0  0
  -18.0294  -28.1384   22.8491 C   0  0  0  0  0  0
  -24.1495  -36.7287   23.2637 C   0  0  0  0  0  0
  -25.9833  -30.7486   21.3857 C   0  0  0  0  0  0
  -26.0499  -29.3667   20.7300 C   0  0  0  0  0  0
  -27.2126  -28.5229   20.7417 C   0  0  0  0  0  0
  -26.0173  -26.8672   19.4509 C   0  0  0  0  0  0
  -24.8700  -27.6814   19.4511 C   0  0  0  0  0  0
  -23.6523  -29.8144   20.1568 C   0  0  0  0  0  0
  -25.4121  -36.3078   24.0329 C   0  0  1  0  0  0
  -20.5904  -28.3701   23.1262 C   0  0  2  0  0  0
  -20.6788  -26.9422   22.5404 C   0  0  0  0  0  0
  -19.5757  -26.6390   21.5216 C   0  0  0  0  0  0
  -18.1937  -26.7932   22.1631 C   0  0  0  0  0  0
  -19.1553  -28.8861   23.2871 C   0  0  0  0  0  0
  -18.9469  -30.1458   23.8895 C   0  0  0  0  0  0
  -17.6467  -30.6584   24.0572 C   0  0  0  0  0  0
  -25.9067  -34.9442   23.5097 C   0  0  0  0  0  0
  -16.5357  -29.9084   23.6329 C   0  0  0  0  0  0
  -16.7287  -28.6498   23.0361 C   0  0  0  0  0  0
  -26.4516  -31.6581   25.0734 C   0  0  0  0  0  0
  -25.3718  -31.3738   26.1441 C   0  0  0  0  0  0
  -27.0364  -30.2988   24.6244 C   0  0  0  0  0  0
  -27.6070  -32.4325   25.7495 C   0  0  0  0  0  0
  -27.5588  -37.1808   24.8471 C   0  0  0  0  0  0
  -21.4225  -29.3052   22.3649 N   0  0  0  0  0  0
  -26.4307  -37.3772   23.9402 N   0  0  0  0  0  0
  -24.7034  -31.0469   22.0964 N   0  0  0  0  0  0
  -23.4202  -28.8146   23.3025 O   0  0  0  0  0  0
  -28.2567  -26.2618   20.2245 O   0  0  0  0  0  0
  -26.5652  -34.8917   22.4674 O   0  0  0  0  0  0
  -23.5496  -32.1388   23.7227 O   0  0  0  0  0  0
  -29.1922  -17.9700   22.0043 C   0  0  0  0  0  0
  -28.6833  -23.6838   19.3888 C   0  0  0  0  0  0
  -28.4403  -23.8183   21.4205 C   0  0  0  0  0  0
  -29.7213  -16.5035   22.0793 C   0  0  0  0  0  0
  -29.7610  -17.2085   19.8545 C   0  0  0  0  0  0
  -29.7181  -18.5772   20.6987 C   0  0  1  0  0  0
  -28.3501  -22.5631   20.4562 C   0  0  2  0  0  0
  -27.9358  -24.7676   20.2673 C   0  0  1  0  0  0
  -28.9379  -19.9251   20.1541 C   0  0  0  0  0  0
  -29.8480  -15.9536   20.7193 N   0  0  0  0  0  0
  -29.2756  -21.3328   20.7094 N   0  3  0  0  0  0
  -31.4751  -12.6048   19.1981 H   0  0  0  0  0  0
  -30.3811  -11.5153   19.9944 H   0  0  0  0  0  0
  -29.8112  -11.7251   17.5533 H   0  0  0  0  0  0
  -29.6385  -13.4543   17.7248 H   0  0  0  0  0  0
  -27.9058  -11.2783   18.9338 H   0  0  0  0  0  0
  -27.3885  -12.5006   17.8077 H   0  0  0  0  0  0
  -27.6318  -14.2518   19.4647 H   0  0  0  0  0  0
  -28.7253  -12.1957   21.4434 H   0  0  0  0  0  0
  -28.3958  -13.8721   21.7911 H   0  0  0  0  0  0
  -25.2764   -9.5688   22.4756 H   0  0  0  0  0  0
  -23.9996   -7.4647   22.7490 H   0  0  0  0  0  0
  -21.0831   -8.8774   19.8973 H   0  0  0  0  0  0
  -22.3679  -10.9676   19.6170 H   0  0  0  0  0  0
  -21.2016   -7.6161   23.9710 H   0  0  0  0  0  0
  -21.1479   -6.0542   25.9075 H   0  0  0  0  0  0
  -22.0595   -2.7620   23.2846 H   0  0  0  0  0  0
  -22.4124  -11.9859   22.4760 H   0  0  0  0  0  0
  -21.1112  -13.1236   22.2667 H   0  0  0  0  0  0
  -24.6599  -15.8499   20.5432 H   0  0  0  0  0  0
  -26.2865  -15.6365   20.1315 H   0  0  0  0  0  0
  -26.7244  -32.5378   23.1073 H   0  0  0  0  0  0
  -25.0074  -33.9677   25.0388 H   0  0  0  0  0  0
  -22.7314  -31.3014   21.3972 H   0  0  0  0  0  0
  -23.3759  -35.9623   23.3304 H   0  0  0  0  0  0
  -24.3590  -36.8902   22.2053 H   0  0  0  0  0  0
  -23.7244  -37.6486   23.6656 H   0  0  0  0  0  0
  -26.1295  -31.5021   20.6105 H   0  0  0  0  0  0
  -26.8593  -30.7975   22.0204 H   0  0  0  0  0  0
  -28.1019  -28.8512   21.2615 H   0  0  0  0  0  0
  -25.9481  -25.9384   18.9039 H   0  0  0  0  0  0
  -23.9821  -27.3459   18.9337 H   0  0  0  0  0  0
  -23.7816  -30.5922   19.4035 H   0  0  0  0  0  0
  -22.7667  -29.2556   19.8473 H   0  0  0  0  0  0
  -25.1302  -36.1931   25.0827 H   0  0  0  0  0  0
  -21.0004  -28.3293   24.1383 H   0  0  0  0  0  0
  -20.5693  -26.2329   23.3617 H   0  0  0  0  0  0
  -21.6653  -26.7456   22.1194 H   0  0  0  0  0  0
  -19.6920  -25.6301   21.1240 H   0  0  0  0  0  0
  -19.6672  -27.3208   20.6749 H   0  0  0  0  0  0
  -17.4214  -26.6695   21.4027 H   0  0  0  0  0  0
  -18.0330  -26.0061   22.9012 H   0  0  0  0  0  0
  -19.7937  -30.7281   24.2270 H   0  0  0  0  0  0
  -17.5011  -31.6259   24.5174 H   0  0  0  0  0  0
  -15.5355  -30.2983   23.7633 H   0  0  0  0  0  0
  -15.8694  -28.0801   22.7085 H   0  0  0  0  0  0
  -24.5891  -30.7097   25.7753 H   0  0  0  0  0  0
  -24.8915  -32.2912   26.4855 H   0  0  0  0  0  0
  -25.8009  -30.8910   27.0232 H   0  0  0  0  0  0
  -26.2956  -29.6734   24.1248 H   0  0  0  0  0  0
  -27.4009  -29.7246   25.4773 H   0  0  0  0  0  0
  -27.8862  -30.4247   23.9534 H   0  0  0  0  0  0
  -27.2686  -33.3633   26.2057 H   0  0  0  0  0  0
  -28.3881  -32.6877   25.0317 H   0  0  0  0  0  0
  -28.0750  -31.8465   26.5409 H   0  0  0  0  0  0
  -28.2619  -38.0091   24.7512 H   0  0  0  0  0  0
  -28.1076  -36.2626   24.6318 H   0  0  0  0  0  0
  -27.2315  -37.1490   25.8878 H   0  0  0  0  0  0
  -20.9426  -29.8768   21.6835 H   0  0  0  0  0  0
  -26.0188  -38.2860   24.1357 H   0  0  0  0  0  0
  -29.4866  -18.5588   22.8747 H   0  0  0  0  0  0
  -28.0998  -17.9551   21.9880 H   0  0  0  0  0  0
  -28.2280  -23.5168   18.4116 H   0  0  0  0  0  0
  -29.7513  -23.8898   19.2877 H   0  0  0  0  0  0
  -29.4564  -24.0479   21.7466 H   0  0  0  0  0  0
  -27.7688  -23.7688   22.2798 H   0  0  0  0  0  0
  -29.0759  -15.8835   22.6998 H   0  0  0  0  0  0
  -30.7087  -16.4993   22.5456 H   0  0  0  0  0  0
  -30.5775  -17.2329   19.1305 H   0  0  0  0  0  0
  -28.8433  -17.1259   19.2695 H   0  0  0  0  0  0
  -30.7587  -18.8623   20.8601 H   0  0  0  0  0  0
  -27.3141  -22.2288   20.3734 H   0  0  0  0  0  0
  -26.8608  -24.5982   20.2050 H   0  0  0  0  0  0
  -27.8693  -19.7648   20.2895 H   0  0  0  0  0  0
  -29.0802  -19.9884   19.0754 H   0  0  0  0  0  0
  -29.2902  -21.2077   21.7084 H   0  0  0  0  0  0
  -30.2204  -21.5603   20.4462 H   0  0  0  0  0  0
  1 25  1  0  0  0
  1 30  2  0  0  0
  1 80  1  0  0  0
  2  3  1  0  0  0
  2 25  1  0  0  0
  2 82  1  0  0  0
  2 83  1  0  0  0
  3  4  1  0  0  0
  3 84  1  0  0  0
  3 85  1  0  0  0
  4  5  1  0  0  0
  4 86  1  0  0  0
  4 87  1  0  0  0
  5  6  1  0  0  0
  5 26  1  0  0  0
  5 88  1  0  0  0
  6 25  1  0  0  0
  6 89  1  0  0  0
  6 90  1  0  0  0
  7  8  2  0  0  0
  7 26  1  0  0  0
  7 29  1  0  0  0
  8  9  1  0  0  0
  8 22  1  0  0  0
  9 10  1  0  0  0
  9 27  2  0  0  0
 10 11  2  0  0  0
 10 15  1  0  0  0
 11 12  1  0  0  0
 11 91  1  0  0  0
 12 13  2  0  0  0
 12 92  1  0  0  0
 13 14  1  0  0  0
 13 31  1  0  0  0
 14 15  2  0  0  0
 14 93  1  0  0  0
 15 94  1  0  0  0
 16 17  2  0  0  0
 16 21  1  0  0  0
 16 31  1  0  0  0
 17 18  1  0  0  0
 17 95  1  0  0  0
 18 19  2  0  0  0
 18 96  1  0  0  0
 19 20  1  0  0  0
 19 24  1  0  0  0
 20 21  2  0  0  0
 20 97  1  0  0  0
 21 23  1  0  0  0
 22 28  1  0  0  0
 22 32  2  0  0  0
 26 27  1  0  0  0
 28 98  1  0  0  0
 28 99  1  0  0  0
 29100  1  0  0  0
 29101  1  0  0  0
 33 34  1  0  0  0
 33 66  1  0  0  0
 33 70  2  0  0  0
 34 36  1  0  0  0
 34 59  1  0  0  0
 34102  1  0  0  0
 35 44  2  0  0  0
 35 45  1  0  0  0
 35 68  1  0  0  0
 36 56  1  0  0  0
 36103  1  0  0  0
 37 39  1  0  0  0
 37 47  1  0  0  0
 37 66  1  0  0  0
 37104  1  0  0  0
 38 43  2  0  0  0
 38 46  1  0  0  0
 38 47  1  0  0  0
 39 64  1  0  0  0
 39 67  2  0  0  0
 40 52  1  0  0  0
 40 53  2  0  0  0
 40 58  1  0  0  0
 41105  1  0  0  0
 41106  1  0  0  0
 41107  1  0  0  0
 41 48  1  0  0  0
 42 43  1  0  0  0
 42 66  1  0  0  0
 42108  1  0  0  0
 42109  1  0  0  0
 43 44  1  0  0  0
 44110  1  0  0  0
 45 46  2  0  0  0
 45111  1  0  0  0
 46112  1  0  0  0
 47113  1  0  0  0
 47114  1  0  0  0
 48 56  1  0  0  0
 48 65  1  0  0  0
 48115  1  0  0  0
 49 50  1  0  0  0
 49 53  1  0  0  0
 49 64  1  0  0  0
 49116  1  0  0  0
 50 51  1  0  0  0
 50117  1  0  0  0
 50118  1  0  0  0
 51 52  1  0  0  0
 51119  1  0  0  0
 51120  1  0  0  0
 52121  1  0  0  0
 52122  1  0  0  0
 53 54  1  0  0  0
 54 55  2  0  0  0
 54123  1  0  0  0
 55 57  1  0  0  0
 55124  1  0  0  0
 56 69  2  0  0  0
 57 58  2  0  0  0
 57125  1  0  0  0
 58126  1  0  0  0
 59 60  1  0  0  0
 59 61  1  0  0  0
 59 62  1  0  0  0
 60127  1  0  0  0
 60128  1  0  0  0
 60129  1  0  0  0
 61130  1  0  0  0
 61131  1  0  0  0
 61132  1  0  0  0
 62133  1  0  0  0
 62134  1  0  0  0
 62135  1  0  0  0
 63 65  1  0  0  0
 63136  1  0  0  0
 63137  1  0  0  0
 63138  1  0  0  0
 64139  1  0  0  0
 65140  1  0  0  0
 68 78  1  0  0  0
 71 74  1  0  0  0
 71 76  1  0  0  0
 71141  1  0  0  0
 71142  1  0  0  0
 72 77  1  0  0  0
 72 78  1  0  0  0
 72143  1  0  0  0
 72144  1  0  0  0
 73 77  1  0  0  0
 73 78  1  0  0  0
 73145  1  0  0  0
 73146  1  0  0  0
 74 80  1  0  0  0
 74147  1  0  0  0
 74148  1  0  0  0
 75 76  1  0  0  0
 75 80  1  0  0  0
 75149  1  0  0  0
 75150  1  0  0  0
 76 79  1  0  0  0
 76151  1  0  0  0
 77 81  1  0  0  0
 77152  1  0  0  0
 78153  1  0  0  0
 79 81  1  0  0  0
 79154  1  0  0  0
 79155  1  0  0  0
 81156  1  0  0  0
 81157  1  0  0  0
M  CHG  1  81   1
M  ISO  4   1 100  68 101  78 101  80 100
M  END
> <chiral flag>
0

> <version>
0

> <s_m_source_file>
/data/baiqing/PycharmProjects/Reinvent-master-3.2/result/LINK_invent/BTK/process_docking_weight1_custom_sum_contain_oxygen_bond_distance_aromatic_linkinvent_7_9_3/rearranged_h_0199.sdf

> <i_m_source_file_index>
84

> <r_mmod_Potential_Energy-OPLS-2005>
352.96435546875

> <r_mmod_Stretch_Energy-OPLS-2005>
146.009429931641

> <r_mmod_Bend_Energy-OPLS-2005>
246.563766479492

> <r_mmod_Torsional_Energy-OPLS-2005>
363.174835205078

> <r_mmod_Improper_Torsional_Energy-OPLS-2005>
9.46983814239502

> <r_mmod_Van_der_Waal_Energy-OPLS-2005>
118.27165222168

> <r_mmod_Electrostatic_Energy-OPLS-2005>
-167.922424316406

> <r_mmod_Solvation_Energy-OPLS-2005>
-476.968383789062

> <b_mmod_Minimization_Converged-OPLS-2005>
0

> <r_mmod_RMS_Derivative-OPLS-2005>
2.35690140724182

$$$$
84
                    3D
 Structure written by MMmdl.
181192  0  0  1  0            999 V2000
  -30.7607  -14.3313   20.7208 C   0  0  0  0  0  0
  -30.4222  -12.2860   19.3914 C   0  0  0  0  0  0
  -29.4793  -12.5304   18.1977 C   0  0  0  0  0  0
  -28.0084  -12.3561   18.6224 C   0  0  0  0  0  0
  -27.6663  -13.1863   19.8853 C   0  0  2  0  0  0
  -28.6989  -12.9126   21.0003 C   0  0  0  0  0  0
  -25.2594  -13.7997   20.5640 C   0  0  0  0  0  0
  -24.1824  -13.0320   20.9097 C   0  0  0  0  0  0
  -24.6402  -11.6786   20.8734 C   0  0  0  0  0  0
  -23.9074  -10.4202   21.0435 C   0  0  0  0  0  0
  -24.3639   -9.4114   21.9195 C   0  0  0  0  0  0
  -23.6282   -8.2173   22.0762 C   0  0  0  0  0  0
  -22.4275   -8.0242   21.3542 C   0  0  0  0  0  0
  -21.9920   -9.0212   20.4643 C   0  0  0  0  0  0
  -22.7267  -10.2082   20.3049 C   0  0  0  0  0  0
  -21.6844   -6.0723   22.5276 C   0  0  0  0  0  0
  -21.3978   -6.5634   23.8213 C   0  0  0  0  0  0
  -21.3658   -5.6787   24.9164 C   0  0  0  0  0  0
  -21.6064   -4.3051   24.7227 C   0  0  0  0  0  0
  -21.8806   -3.8146   23.4341 C   0  0  0  0  0  0
  -21.9167   -4.6942   22.3408 C   0  0  0  0  0  0
  -22.7871  -13.5168   21.1767 C   0  0  0  0  0  0
  -22.1639   -4.2126   21.0980 F   0  0  0  0  0  0
  -21.5630   -3.4548   25.7747 F   0  0  0  0  0  0
  -30.0515  -13.2002   20.4817 N   0  0  0  0  0  0
  -26.3060  -12.9172   20.3445 N   0  0  0  0  0  0
  -25.9324  -11.6355   20.5776 N   0  0  0  0  0  0
  -22.0518  -12.8174   22.0323 N   0  0  0  0  0  0
  -25.4343  -15.1676   20.3970 N   0  0  0  0  0  0
  -31.7397  -14.6778   20.0543 O   0  0  0  0  0  0
  -21.6623   -6.8855   21.4253 O   0  0  0  0  0  0
  -22.3604  -14.5513   20.6640 O   0  0  0  0  0  0
  -24.6111  -31.8698   23.2176 C   0  0  0  0  0  0
  -25.9016  -32.4851   23.8486 C   0  0  1  0  0  0
  -27.2072  -27.4786   20.0843 C   0  0  0  0  0  0
  -25.5840  -33.8631   24.2367 N   0  0  0  0  0  0
  -23.4009  -30.5103   21.5479 C   0  0  2  0  0  0
  -24.8498  -29.0001   20.0778 C   0  0  0  0  0  0
  -22.7483  -29.4706   22.4876 C   0  0  0  0  0  0
  -18.0403  -28.1435   22.8693 C   0  0  0  0  0  0
  -24.1433  -36.7347   23.2666 C   0  0  0  0  0  0
  -25.9241  -30.8463   21.3675 C   0  0  0  0  0  0
  -26.0003  -29.4931   20.7060 C   0  0  0  0  0  0
  -27.1866  -28.7339   20.7209 C   0  0  0  0  0  0
  -26.0840  -27.0369   19.3586 C   0  0  0  0  0  0
  -24.8904  -27.7753   19.3908 C   0  0  0  0  0  0
  -23.6078  -29.8558   20.1534 C   0  0  0  0  0  0
  -25.4055  -36.3114   24.0357 C   0  0  1  0  0  0
  -20.6010  -28.3753   23.1468 C   0  0  2  0  0  0
  -20.6886  -26.9473   22.5592 C   0  0  0  0  0  0
  -19.5778  -26.6512   21.5432 C   0  0  0  0  0  0
  -18.2026  -26.7908   22.2062 C   0  0  0  0  0  0
  -19.1667  -28.8916   23.3044 C   0  0  0  0  0  0
  -18.9597  -30.1568   23.8911 C   0  0  0  0  0  0
  -17.6630  -30.6750   24.0520 C   0  0  0  0  0  0
  -25.9026  -34.9500   23.5172 C   0  0  0  0  0  0
  -16.5521  -29.9227   23.6337 C   0  0  0  0  0  0
  -16.7415  -28.6585   23.0478 C   0  0  0  0  0  0
  -26.4453  -31.6616   25.0797 C   0  0  0  0  0  0
  -25.3726  -31.3728   26.1557 C   0  0  0  0  0  0
  -27.0292  -30.3063   24.6156 C   0  0  0  0  0  0
  -27.6025  -32.4342   25.7566 C   0  0  0  0  0  0
  -27.5535  -37.1804   24.8483 C   0  0  0  0  0  0
  -21.4190  -29.3176   22.3840 N   0  0  0  0  0  0
  -26.4247  -37.3791   23.9427 N   0  0  0  0  0  0
  -24.6660  -31.0878   22.1051 N   0  0  0  0  0  0
  -23.4355  -28.8003   23.2626 O   0  0  0  0  0  0
  -28.2150  -26.5868   20.3131 O   0  0  0  0  0  0
  -26.5616  -34.8920   22.4746 O   0  0  0  0  0  0
  -23.5278  -32.1417   23.7550 O   0  0  0  0  0  0
  -30.1649  -17.4677   19.4611 C   0  0  0  0  0  0
  -28.0926  -18.1966   18.7463 C   0  0  0  0  0  0
  -25.5534  -25.2986   21.6275 C   0  0  0  0  0  0
  -24.8409  -24.1767   21.3138 C   0  0  0  0  0  0
  -25.8477  -23.1594   21.3140 C   0  0  0  0  0  0
  -29.6310  -17.1995   20.7433 C   0  0  0  0  0  0
  -27.5815  -17.9995   20.0526 C   0  0  0  0  0  0
  -24.9929  -21.0603   22.5155 C   0  0  0  0  0  0
  -25.5873  -19.6469   22.6801 C   0  0  0  0  0  0
  -22.6164  -22.9331   20.4048 C   0  0  0  0  0  0
  -22.7803  -24.9053   19.8609 C   0  0  0  0  0  0
  -26.9934  -20.8532   21.2118 C   0  0  0  0  0  0
  -23.3435  -24.1184   21.0498 C   0  0  2  0  0  0
  -25.6832  -21.6515   21.2743 C   0  0  2  0  0  0
  -21.3108  -23.5658   18.3701 C   0  0  0  0  0  0
  -30.4582  -16.5174   21.8226 C   0  0  0  0  0  0
  -26.2612  -18.5901   20.5025 C   0  0  0  0  0  0
  -28.0580  -25.9193   21.5619 C   0  0  0  0  0  0
  -29.3901  -17.9318   18.4500 N   0  0  0  0  0  0
  -27.0706  -23.6779   21.4130 N   0  0  0  0  0  0
  -28.3413  -17.4664   21.0459 N   0  0  0  0  0  0
  -26.9001  -25.0087   21.5395 N   0  0  0  0  0  0
  -30.2978  -15.0725   21.7311 N   0  0  0  0  0  0
  -21.7298  -23.8987   19.7516 N   0  3  1  0  0  0
  -26.6041  -19.4933   21.6223 N   0  3  2  0  0  0
  -31.4617  -12.4051   19.0831 H   0  0  0  0  0  0
  -30.3387  -11.2562   19.7378 H   0  0  0  0  0  0
  -29.7174  -11.8473   17.3829 H   0  0  0  0  0  0
  -29.6258  -13.5391   17.8081 H   0  0  0  0  0  0
  -27.8428  -11.2982   18.8201 H   0  0  0  0  0  0
  -27.3401  -12.6179   17.8007 H   0  0  0  0  0  0
  -27.7256  -14.2404   19.6152 H   0  0  0  0  0  0
  -28.6526  -11.8663   21.2991 H   0  0  0  0  0  0
  -28.4340  -13.4746   21.8969 H   0  0  0  0  0  0
  -25.2806   -9.5536   22.4741 H   0  0  0  0  0  0
  -23.9966   -7.4564   22.7492 H   0  0  0  0  0  0
  -21.0849   -8.8775   19.8943 H   0  0  0  0  0  0
  -22.3785  -10.9627   19.6126 H   0  0  0  0  0  0
  -21.1955   -7.6142   23.9718 H   0  0  0  0  0  0
  -21.1516   -6.0504   25.9084 H   0  0  0  0  0  0
  -22.0603   -2.7612   23.2834 H   0  0  0  0  0  0
  -22.4160  -11.9873   22.4734 H   0  0  0  0  0  0
  -21.1123  -13.1099   22.2599 H   0  0  0  0  0  0
  -24.6355  -15.7874   20.3864 H   0  0  0  0  0  0
  -26.2859  -15.5686   20.0277 H   0  0  0  0  0  0
  -26.7115  -32.5502   23.1273 H   0  0  0  0  0  0
  -24.9840  -33.9863   25.0397 H   0  0  0  0  0  0
  -22.6960  -31.3360   21.4179 H   0  0  0  0  0  0
  -23.3663  -35.9718   23.3385 H   0  0  0  0  0  0
  -24.3541  -36.8941   22.2090 H   0  0  0  0  0  0
  -23.7231  -37.6582   23.6638 H   0  0  0  0  0  0
  -26.0329  -31.6108   20.5959 H   0  0  0  0  0  0
  -26.8100  -30.8978   21.9831 H   0  0  0  0  0  0
  -28.0569  -29.0807   21.2626 H   0  0  0  0  0  0
  -26.1113  -26.0739   18.8686 H   0  0  0  0  0  0
  -24.0122  -27.4086   18.8848 H   0  0  0  0  0  0
  -23.7028  -30.6292   19.3927 H   0  0  0  0  0  0
  -22.7327  -29.2719   19.8594 H   0  0  0  0  0  0
  -25.1200  -36.2032   25.0853 H   0  0  0  0  0  0
  -21.0158  -28.3437   24.1595 H   0  0  0  0  0  0
  -20.5969  -26.2367   23.3838 H   0  0  0  0  0  0
  -21.6818  -26.7734   22.1371 H   0  0  0  0  0  0
  -19.7033  -25.6572   21.1241 H   0  0  0  0  0  0
  -19.6404  -27.3531   20.7112 H   0  0  0  0  0  0
  -17.4096  -26.6418   21.4689 H   0  0  0  0  0  0
  -18.0725  -26.0232   22.9704 H   0  0  0  0  0  0
  -19.8073  -30.7418   24.2252 H   0  0  0  0  0  0
  -17.5246  -31.6453   24.5106 H   0  0  0  0  0  0
  -15.5557  -30.3167   23.7679 H   0  0  0  0  0  0
  -15.8862  -28.0758   22.7318 H   0  0  0  0  0  0
  -24.5847  -30.7143   25.7901 H   0  0  0  0  0  0
  -24.8960  -32.2883   26.5075 H   0  0  0  0  0  0
  -25.8085  -30.8842   27.0287 H   0  0  0  0  0  0
  -26.2840  -29.6868   24.1140 H   0  0  0  0  0  0
  -27.4038  -29.7275   25.4626 H   0  0  0  0  0  0
  -27.8684  -30.4451   23.9325 H   0  0  0  0  0  0
  -27.2614  -33.3596   26.2241 H   0  0  0  0  0  0
  -28.3768  -32.7026   25.0356 H   0  0  0  0  0  0
  -28.0724  -31.8401   26.5430 H   0  0  0  0  0  0
  -28.2573  -38.0066   24.7408 H   0  0  0  0  0  0
  -28.0984  -36.2593   24.6370 H   0  0  0  0  0  0
  -27.2267  -37.1545   25.8895 H   0  0  0  0  0  0
  -20.9269  -29.9245   21.7447 H   0  0  0  0  0  0
  -26.0182  -38.2895   24.1378 H   0  0  0  0  0  0
  -31.2058  -17.2737   19.2504 H   0  0  0  0  0  0
  -27.4831  -18.6225   17.9626 H   0  0  0  0  0  0
  -25.2142  -26.3133   21.8006 H   0  0  0  0  0  0
  -25.2442  -21.6547   23.3932 H   0  0  0  0  0  0
  -23.9074  -21.0551   22.4224 H   0  0  0  0  0  0
  -24.8425  -18.8505   22.6847 H   0  0  0  0  0  0
  -26.1146  -19.5827   23.6338 H   0  0  0  0  0  0
  -22.0787  -22.2702   21.0920 H   0  0  0  0  0  0
  -23.2218  -22.3737   19.6954 H   0  0  0  0  0  0
  -23.4376  -24.9223   18.9888 H   0  0  0  0  0  0
  -22.3980  -25.8925   20.0983 H   0  0  0  0  0  0
  -27.6885  -21.2156   21.9708 H   0  0  0  0  0  0
  -27.5150  -20.9152   20.2540 H   0  0  0  0  0  0
  -22.8063  -24.4209   21.9516 H   0  0  0  0  0  0
  -25.1142  -21.3745   20.3856 H   0  0  0  0  0  0
  -20.5729  -22.7646   18.3856 H   0  0  0  0  0  0
  -22.1523  -23.2312   17.7589 H   0  0  0  0  0  0
  -20.8510  -24.4246   17.8819 H   0  0  0  0  0  0
  -31.5006  -16.8092   21.7250 H   0  0  0  0  0  0
  -30.1439  -16.8552   22.8106 H   0  0  0  0  0  0
  -25.6025  -17.7869   20.8379 H   0  0  0  0  0  0
  -25.7393  -19.1052   19.6966 H   0  0  0  0  0  0
  -28.9575  -25.3415   21.7866 H   0  0  0  0  0  0
  -27.9025  -26.6336   22.3736 H   0  0  0  0  0  0
  -29.5881  -14.6580   22.3128 H   0  0  0  0  0  0
  -20.9372  -24.1162   20.3394 H   0  0  0  0  0  0
  -27.4138  -19.0353   22.0223 H   0  0  0  0  0  0
  1 25  1  0  0  0
  1 30  2  0  0  0
  1 93  1  0  0  0
  2  3  1  0  0  0
  2 25  1  0  0  0
  2 96  1  0  0  0
  2 97  1  0  0  0
  3  4  1  0  0  0
  3 98  1  0  0  0
  3 99  1  0  0  0
  4  5  1  0  0  0
  4100  1  0  0  0
  4101  1  0  0  0
  5  6  1  0  0  0
  5 26  1  0  0  0
  5102  1  0  0  0
  6 25  1  0  0  0
  6103  1  0  0  0
  6104  1  0  0  0
  7  8  2  0  0  0
  7 26  1  0  0  0
  7 29  1  0  0  0
  8  9  1  0  0  0
  8 22  1  0  0  0
  9 10  1  0  0  0
  9 27  2  0  0  0
 10 11  2  0  0  0
 10 15  1  0  0  0
 11 12  1  0  0  0
 11105  1  0  0  0
 12 13  2  0  0  0
 12106  1  0  0  0
 13 14  1  0  0  0
 13 31  1  0  0  0
 14 15  2  0  0  0
 14107  1  0  0  0
 15108  1  0  0  0
 16 17  2  0  0  0
 16 21  1  0  0  0
 16 31  1  0  0  0
 17 18  1  0  0  0
 17109  1  0  0  0
 18 19  2  0  0  0
 18110  1  0  0  0
 19 20  1  0  0  0
 19 24  1  0  0  0
 20 21  2  0  0  0
 20111  1  0  0  0
 21 23  1  0  0  0
 22 28  1  0  0  0
 22 32  2  0  0  0
 26 27  1  0  0  0
 28112  1  0  0  0
 28113  1  0  0  0
 29114  1  0  0  0
 29115  1  0  0  0
 33 34  1  0  0  0
 33 66  1  0  0  0
 33 70  2  0  0  0
 34 36  1  0  0  0
 34 59  1  0  0  0
 34116  1  0  0  0
 35 44  2  0  0  0
 35 45  1  0  0  0
 35 68  1  0  0  0
 36 56  1  0  0  0
 36117  1  0  0  0
 37 39  1  0  0  0
 37 47  1  0  0  0
 37 66  1  0  0  0
 37118  1  0  0  0
 38 43  2  0  0  0
 38 46  1  0  0  0
 38 47  1  0  0  0
 39 64  1  0  0  0
 39 67  2  0  0  0
 40 52  1  0  0  0
 40 53  2  0  0  0
 40 58  1  0  0  0
 41119  1  0  0  0
 41120  1  0  0  0
 41121  1  0  0  0
 41 48  1  0  0  0
 42 43  1  0  0  0
 42 66  1  0  0  0
 42122  1  0  0  0
 42123  1  0  0  0
 43 44  1  0  0  0
 44124  1  0  0  0
 45 46  2  0  0  0
 45125  1  0  0  0
 46126  1  0  0  0
 47127  1  0  0  0
 47128  1  0  0  0
 48 56  1  0  0  0
 48 65  1  0  0  0
 48129  1  0  0  0
 49 50  1  0  0  0
 49 53  1  0  0  0
 49 64  1  0  0  0
 49130  1  0  0  0
 50 51  1  0  0  0
 50131  1  0  0  0
 50132  1  0  0  0
 51 52  1  0  0  0
 51133  1  0  0  0
 51134  1  0  0  0
 52135  1  0  0  0
 52136  1  0  0  0
 53 54  1  0  0  0
 54 55  2  0  0  0
 54137  1  0  0  0
 55 57  1  0  0  0
 55138  1  0  0  0
 56 69  2  0  0  0
 57 58  2  0  0  0
 57139  1  0  0  0
 58140  1  0  0  0
 59 60  1  0  0  0
 59 61  1  0  0  0
 59 62  1  0  0  0
 60141  1  0  0  0
 60142  1  0  0  0
 60143  1  0  0  0
 61144  1  0  0  0
 61145  1  0  0  0
 61146  1  0  0  0
 62147  1  0  0  0
 62148  1  0  0  0
 62149  1  0  0  0
 63 65  1  0  0  0
 63150  1  0  0  0
 63151  1  0  0  0
 63152  1  0  0  0
 64153  1  0  0  0
 65154  1  0  0  0
 68 88  1  0  0  0
 71 76  2  0  0  0
 71 89  1  0  0  0
 71155  1  0  0  0
 72 77  1  0  0  0
 72 89  2  0  0  0
 72156  1  0  0  0
 73 74  2  0  0  0
 73 92  1  0  0  0
 73157  1  0  0  0
 74 75  1  0  0  0
 74 83  1  0  0  0
 75 90  2  0  0  0
 75 84  1  0  0  0
 76 86  1  0  0  0
 76 91  1  0  0  0
 77 87  1  0  0  0
 77 91  2  0  0  0
 78 79  1  0  0  0
 78 84  1  0  0  0
 78158  1  0  0  0
 78159  1  0  0  0
 79 95  1  0  0  0
 79160  1  0  0  0
 79161  1  0  0  0
 80 83  1  0  0  0
 80 94  1  0  0  0
 80162  1  0  0  0
 80163  1  0  0  0
 81 83  1  0  0  0
 81 94  1  0  0  0
 81164  1  0  0  0
 81165  1  0  0  0
 82 84  1  0  0  0
 82 95  1  0  0  0
 82166  1  0  0  0
 82167  1  0  0  0
 83168  1  0  0  0
 84169  1  0  0  0
 85170  1  0  0  0
 85171  1  0  0  0
 85172  1  0  0  0
 85 94  1  0  0  0
 86 93  1  0  0  0
 86173  1  0  0  0
 86174  1  0  0  0
 87175  1  0  0  0
 87176  1  0  0  0
 87 95  1  0  0  0
 88 92  1  0  0  0
 88177  1  0  0  0
 88178  1  0  0  0
 90 92  1  0  0  0
 93179  1  0  0  0
 94180  1  0  0  0
 95181  1  0  0  0
M  CHG  2  94   1  95   1
M  ISO  4   1 100  68 101  88 101  93 100
M  END
> <chiral flag>
0

> <version>
0

> <s_m_source_file>
/data/baiqing/PycharmProjects/Reinvent-master-3.2/result/LINK_invent/BTK/process_docking_weight1_custom_sum_contain_oxygen_bond_distance_aromatic_linkinvent_7_9_3/rearranged_h_0199.sdf

> <i_m_source_file_index>
85

> <r_mmod_Potential_Energy-OPLS-2005>
-306.024383544922

> <r_mmod_Stretch_Energy-OPLS-2005>
37.2254333496094

> <r_mmod_Bend_Energy-OPLS-2005>
139.399429321289

> <r_mmod_Torsional_Energy-OPLS-2005>
357.734130859375

> <r_mmod_Improper_Torsional_Energy-OPLS-2005>
6.14921379089355

> <r_mmod_Van_der_Waal_Energy-OPLS-2005>
144.107345581055

> <r_mmod_Electrostatic_Energy-OPLS-2005>
-92.5856170654297

> <r_mmod_Solvation_Energy-OPLS-2005>
-926.708312988281

> <b_mmod_Minimization_Converged-OPLS-2005>
0

> <r_mmod_RMS_Derivative-OPLS-2005>
9.37430381774902

$$$$
85
                    3D
 Structure written by MMmdl.
164173  0  0  1  0            999 V2000
  -30.7351  -14.4465   20.5265 C   0  0  0  0  0  0
  -30.4055  -12.2793   19.4327 C   0  0  0  0  0  0
  -29.4924  -12.4913   18.2094 C   0  0  0  0  0  0
  -28.0112  -12.3672   18.6167 C   0  0  0  0  0  0
  -27.6569  -13.2148   19.8692 C   0  0  2  0  0  0
  -28.6993  -13.0311   20.9966 C   0  0  0  0  0  0
  -25.2559  -13.8185   20.5681 C   0  0  0  0  0  0
  -24.1823  -13.0447   20.9184 C   0  0  0  0  0  0
  -24.6388  -11.6918   20.8733 C   0  0  0  0  0  0
  -23.9059  -10.4299   21.0397 C   0  0  0  0  0  0
  -24.3605   -9.4217   21.9180 C   0  0  0  0  0  0
  -23.6287   -8.2248   22.0745 C   0  0  0  0  0  0
  -22.4271   -8.0277   21.3537 C   0  0  0  0  0  0
  -21.9902   -9.0251   20.4641 C   0  0  0  0  0  0
  -22.7225  -10.2136   20.3051 C   0  0  0  0  0  0
  -21.6858   -6.0733   22.5273 C   0  0  0  0  0  0
  -21.4017   -6.5638   23.8209 C   0  0  0  0  0  0
  -21.3661   -5.6790   24.9171 C   0  0  0  0  0  0
  -21.6043   -4.3050   24.7221 C   0  0  0  0  0  0
  -21.8819   -3.8143   23.4343 C   0  0  0  0  0  0
  -21.9195   -4.6962   22.3397 C   0  0  0  0  0  0
  -22.7844  -13.5240   21.1846 C   0  0  0  0  0  0
  -22.1660   -4.2151   21.0976 F   0  0  0  0  0  0
  -21.5632   -3.4534   25.7736 F   0  0  0  0  0  0
  -30.0303  -13.2913   20.4315 N   0  0  0  0  0  0
  -26.3006  -12.9368   20.3348 N   0  0  0  0  0  0
  -25.9317  -11.6525   20.5762 N   0  0  0  0  0  0
  -22.0481  -12.8237   22.0407 N   0  0  0  0  0  0
  -25.4287  -15.1898   20.4079 N   0  0  0  0  0  0
  -31.9078  -14.5387   20.1591 O   0  0  0  0  0  0
  -21.6637   -6.8871   21.4234 O   0  0  0  0  0  0
  -22.3532  -14.5554   20.6702 O   0  0  0  0  0  0
  -24.6148  -31.8698   23.2124 C   0  0  0  0  0  0
  -25.9050  -32.4829   23.8406 C   0  0  1  0  0  0
  -27.2235  -27.4316   20.0811 C   0  0  0  0  0  0
  -25.5912  -33.8628   24.2337 N   0  0  0  0  0  0
  -23.4003  -30.4972   21.5541 C   0  0  2  0  0  0
  -24.8414  -28.9682   20.1139 C   0  0  0  0  0  0
  -22.7408  -29.4675   22.4997 C   0  0  0  0  0  0
  -18.0273  -28.1376   22.8490 C   0  0  0  0  0  0
  -24.1486  -36.7314   23.2637 C   0  0  0  0  0  0
  -25.9316  -30.8319   21.3685 C   0  0  0  0  0  0
  -26.0038  -29.4677   20.7129 C   0  0  0  0  0  0
  -27.1944  -28.7048   20.6989 C   0  0  0  0  0  0
  -26.0373  -26.9566   19.4682 C   0  0  0  0  0  0
  -24.8531  -27.7117   19.4917 C   0  0  0  0  0  0
  -23.6061  -29.8366   20.1666 C   0  0  0  0  0  0
  -25.4108  -36.3114   24.0336 C   0  0  1  0  0  0
  -20.5864  -28.3662   23.1318 C   0  0  2  0  0  0
  -20.6767  -26.9399   22.5415 C   0  0  0  0  0  0
  -19.5741  -26.6385   21.5212 C   0  0  0  0  0  0
  -18.1918  -26.7924   22.1621 C   0  0  0  0  0  0
  -19.1521  -28.8835   23.2903 C   0  0  0  0  0  0
  -18.9450  -30.1444   23.8909 C   0  0  0  0  0  0
  -17.6454  -30.6586   24.0561 C   0  0  0  0  0  0
  -25.9034  -34.9481   23.5129 C   0  0  0  0  0  0
  -16.5345  -29.9087   23.6325 C   0  0  0  0  0  0
  -16.7263  -28.6502   23.0348 C   0  0  0  0  0  0
  -26.4475  -31.6606   25.0734 C   0  0  0  0  0  0
  -25.3739  -31.3718   26.1483 C   0  0  0  0  0  0
  -27.0302  -30.3043   24.6116 C   0  0  0  0  0  0
  -27.6054  -32.4321   25.7497 C   0  0  0  0  0  0
  -27.5576  -37.1817   24.8467 C   0  0  0  0  0  0
  -21.4137  -29.3038   22.3732 N   0  0  0  0  0  0
  -26.4295  -37.3796   23.9403 N   0  0  0  0  0  0
  -24.6672  -31.0808   22.1026 N   0  0  0  0  0  0
  -23.4189  -28.8201   23.3020 O   0  0  0  0  0  0
  -28.3976  -26.6998   20.1060 O   0  0  0  0  0  0
  -26.5591  -34.8927   22.4688 O   0  0  0  0  0  0
  -23.5344  -32.1456   23.7521 O   0  0  0  0  0  0
  -29.9503  -20.4928   19.9031 C   0  0  0  0  0  0
  -30.5941  -17.0276   18.8466 C   0  0  0  0  0  0
  -30.4041  -21.6743   22.1154 C   0  0  0  0  0  0
  -30.5920  -18.5282   18.5957 C   0  0  0  0  0  0
  -29.7155  -18.1196   20.8029 C   0  0  0  0  0  0
  -30.7138  -23.0883   21.6137 C   0  0  0  0  0  0
  -28.5577  -22.4519   20.7919 C   0  0  0  0  0  0
  -29.3296  -21.1566   21.1507 C   0  0  1  0  0  0
  -30.5392  -16.8892   20.3706 C   0  0  1  0  0  0
  -29.6392  -24.5687   19.9298 C   0  0  0  0  0  0
  -28.3731  -25.3714   19.5619 C   0  0  0  0  0  0
  -30.0122  -19.1449   19.7879 N   0  0  0  0  0  0
  -30.0249  -15.5657   20.7686 N   0  0  0  0  0  0
  -29.4445  -23.6204   21.0670 N   0  3  2  0  0  0
  -30.3793  -21.2252   19.0058 O   0  0  0  0  0  0
  -31.4548  -12.3410   19.1372 H   0  0  0  0  0  0
  -30.2703  -11.2784   19.8446 H   0  0  0  0  0  0
  -29.7279  -11.7638   17.4324 H   0  0  0  0  0  0
  -29.6763  -13.4744   17.7730 H   0  0  0  0  0  0
  -27.8095  -11.3135   18.8113 H   0  0  0  0  0  0
  -27.3674  -12.6493   17.7823 H   0  0  0  0  0  0
  -27.6914  -14.2579   19.5556 H   0  0  0  0  0  0
  -28.6609  -12.0156   21.3933 H   0  0  0  0  0  0
  -28.4830  -13.6908   21.8379 H   0  0  0  0  0  0
  -25.2750   -9.5714   22.4750 H   0  0  0  0  0  0
  -24.0003   -7.4648   22.7470 H   0  0  0  0  0  0
  -21.0830   -8.8767   19.8956 H   0  0  0  0  0  0
  -22.3671  -10.9666   19.6156 H   0  0  0  0  0  0
  -21.2010   -7.6145   23.9712 H   0  0  0  0  0  0
  -21.1484   -6.0520   25.9077 H   0  0  0  0  0  0
  -22.0601   -2.7606   23.2841 H   0  0  0  0  0  0
  -22.4086  -11.9879   22.4772 H   0  0  0  0  0  0
  -21.1105  -13.1269   22.2624 H   0  0  0  0  0  0
  -24.6592  -15.8430   20.5076 H   0  0  0  0  0  0
  -26.2773  -15.6265   20.0712 H   0  0  0  0  0  0
  -26.7120  -32.5537   23.1167 H   0  0  0  0  0  0
  -25.0078  -33.9793   25.0492 H   0  0  0  0  0  0
  -22.6880  -31.3140   21.4211 H   0  0  0  0  0  0
  -23.3737  -35.9661   23.3331 H   0  0  0  0  0  0
  -24.3574  -36.8896   22.2045 H   0  0  0  0  0  0
  -23.7258  -37.6537   23.6630 H   0  0  0  0  0  0
  -26.0506  -31.5990   20.6022 H   0  0  0  0  0  0
  -26.8182  -30.8797   21.9888 H   0  0  0  0  0  0
  -28.0908  -29.0868   21.1675 H   0  0  0  0  0  0
  -25.9863  -26.0078   18.9564 H   0  0  0  0  0  0
  -23.9599  -27.3240   19.0211 H   0  0  0  0  0  0
  -23.7168  -30.6146   19.4102 H   0  0  0  0  0  0
  -22.7280  -29.2606   19.8688 H   0  0  0  0  0  0
  -25.1284  -36.1982   25.0829 H   0  0  0  0  0  0
  -20.9957  -28.3234   24.1439 H   0  0  0  0  0  0
  -20.5684  -26.2266   23.3602 H   0  0  0  0  0  0
  -21.6642  -26.7457   22.1205 H   0  0  0  0  0  0
  -19.6904  -25.6301   21.1230 H   0  0  0  0  0  0
  -19.6676  -27.3205   20.6748 H   0  0  0  0  0  0
  -17.4191  -26.6681   21.4018 H   0  0  0  0  0  0
  -18.0307  -26.0065   22.9015 H   0  0  0  0  0  0
  -19.7929  -30.7256   24.2286 H   0  0  0  0  0  0
  -17.5012  -31.6268   24.5161 H   0  0  0  0  0  0
  -15.5346  -30.2993   23.7647 H   0  0  0  0  0  0
  -15.8662  -28.0828   22.7059 H   0  0  0  0  0  0
  -24.5899  -30.7078   25.7822 H   0  0  0  0  0  0
  -24.8943  -32.2878   26.4944 H   0  0  0  0  0  0
  -25.8090  -30.8874   27.0234 H   0  0  0  0  0  0
  -26.2848  -29.6810   24.1162 H   0  0  0  0  0  0
  -27.4060  -29.7277   25.4579 H   0  0  0  0  0  0
  -27.8692  -30.4356   23.9277 H   0  0  0  0  0  0
  -27.2675  -33.3610   26.2106 H   0  0  0  0  0  0
  -28.3850  -32.6901   25.0315 H   0  0  0  0  0  0
  -28.0739  -31.8425   26.5390 H   0  0  0  0  0  0
  -28.2617  -38.0089   24.7491 H   0  0  0  0  0  0
  -28.1046  -36.2625   24.6320 H   0  0  0  0  0  0
  -27.2292  -37.1509   25.8868 H   0  0  0  0  0  0
  -20.9286  -29.8765   21.6963 H   0  0  0  0  0  0
  -26.0184  -38.2879   24.1379 H   0  0  0  0  0  0
  -31.4663  -16.5421   18.4071 H   0  0  0  0  0  0
  -29.7064  -16.5859   18.3896 H   0  0  0  0  0  0
  -29.9991  -21.7188   23.1273 H   0  0  0  0  0  0
  -31.2960  -21.0459   22.1509 H   0  0  0  0  0  0
  -30.0250  -18.7792   17.6978 H   0  0  0  0  0  0
  -31.6145  -18.8864   18.4567 H   0  0  0  0  0  0
  -29.9893  -18.4411   21.8090 H   0  0  0  0  0  0
  -28.6450  -17.9104   20.7903 H   0  0  0  0  0  0
  -31.4665  -23.0337   20.8254 H   0  0  0  0  0  0
  -31.1138  -23.7325   22.3975 H   0  0  0  0  0  0
  -27.6723  -22.5379   21.4235 H   0  0  0  0  0  0
  -28.1927  -22.4406   19.7631 H   0  0  0  0  0  0
  -28.6612  -20.4486   21.6405 H   0  0  0  0  0  0
  -31.5489  -17.0201   20.7685 H   0  0  0  0  0  0
  -30.4492  -25.2627   20.1551 H   0  0  0  0  0  0
  -29.9680  -23.9980   19.0600 H   0  0  0  0  0  0
  -27.4942  -24.8175   19.8923 H   0  0  0  0  0  0
  -28.3096  -25.4577   18.4760 H   0  0  0  0  0  0
  -29.0541  -15.4717   21.0256 H   0  0  0  0  0  0
  -29.0109  -24.1393   21.8188 H   0  0  0  0  0  0
  1 25  1  0  0  0
  1 30  2  0  0  0
  1 83  1  0  0  0
  2  3  1  0  0  0
  2 25  1  0  0  0
  2 86  1  0  0  0
  2 87  1  0  0  0
  3  4  1  0  0  0
  3 88  1  0  0  0
  3 89  1  0  0  0
  4  5  1  0  0  0
  4 90  1  0  0  0
  4 91  1  0  0  0
  5  6  1  0  0  0
  5 26  1  0  0  0
  5 92  1  0  0  0
  6 25  1  0  0  0
  6 93  1  0  0  0
  6 94  1  0  0  0
  7  8  2  0  0  0
  7 26  1  0  0  0
  7 29  1  0  0  0
  8  9  1  0  0  0
  8 22  1  0  0  0
  9 10  1  0  0  0
  9 27  2  0  0  0
 10 11  2  0  0  0
 10 15  1  0  0  0
 11 12  1  0  0  0
 11 95  1  0  0  0
 12 13  2  0  0  0
 12 96  1  0  0  0
 13 14  1  0  0  0
 13 31  1  0  0  0
 14 15  2  0  0  0
 14 97  1  0  0  0
 15 98  1  0  0  0
 16 17  2  0  0  0
 16 21  1  0  0  0
 16 31  1  0  0  0
 17 18  1  0  0  0
 17 99  1  0  0  0
 18 19  2  0  0  0
 18100  1  0  0  0
 19 20  1  0  0  0
 19 24  1  0  0  0
 20 21  2  0  0  0
 20101  1  0  0  0
 21 23  1  0  0  0
 22 28  1  0  0  0
 22 32  2  0  0  0
 26 27  1  0  0  0
 28102  1  0  0  0
 28103  1  0  0  0
 29104  1  0  0  0
 29105  1  0  0  0
 33 34  1  0  0  0
 33 66  1  0  0  0
 33 70  2  0  0  0
 34 36  1  0  0  0
 34 59  1  0  0  0
 34106  1  0  0  0
 35 44  2  0  0  0
 35 45  1  0  0  0
 35 68  1  0  0  0
 36 56  1  0  0  0
 36107  1  0  0  0
 37 39  1  0  0  0
 37 47  1  0  0  0
 37 66  1  0  0  0
 37108  1  0  0  0
 38 43  2  0  0  0
 38 46  1  0  0  0
 38 47  1  0  0  0
 39 64  1  0  0  0
 39 67  2  0  0  0
 40 52  1  0  0  0
 40 53  2  0  0  0
 40 58  1  0  0  0
 41109  1  0  0  0
 41110  1  0  0  0
 41111  1  0  0  0
 41 48  1  0  0  0
 42 43  1  0  0  0
 42 66  1  0  0  0
 42112  1  0  0  0
 42113  1  0  0  0
 43 44  1  0  0  0
 44114  1  0  0  0
 45 46  2  0  0  0
 45115  1  0  0  0
 46116  1  0  0  0
 47117  1  0  0  0
 47118  1  0  0  0
 48 56  1  0  0  0
 48 65  1  0  0  0
 48119  1  0  0  0
 49 50  1  0  0  0
 49 53  1  0  0  0
 49 64  1  0  0  0
 49120  1  0  0  0
 50 51  1  0  0  0
 50121  1  0  0  0
 50122  1  0  0  0
 51 52  1  0  0  0
 51123  1  0  0  0
 51124  1  0  0  0
 52125  1  0  0  0
 52126  1  0  0  0
 53 54  1  0  0  0
 54 55  2  0  0  0
 54127  1  0  0  0
 55 57  1  0  0  0
 55128  1  0  0  0
 56 69  2  0  0  0
 57 58  2  0  0  0
 57129  1  0  0  0
 58130  1  0  0  0
 59 60  1  0  0  0
 59 61  1  0  0  0
 59 62  1  0  0  0
 60131  1  0  0  0
 60132  1  0  0  0
 60133  1  0  0  0
 61134  1  0  0  0
 61135  1  0  0  0
 61136  1  0  0  0
 62137  1  0  0  0
 62138  1  0  0  0
 62139  1  0  0  0
 63 65  1  0  0  0
 63140  1  0  0  0
 63141  1  0  0  0
 63142  1  0  0  0
 64143  1  0  0  0
 65144  1  0  0  0
 68 81  1  0  0  0
 71 82  1  0  0  0
 71 85  2  0  0  0
 71 78  1  0  0  0
 72 74  1  0  0  0
 72 79  1  0  0  0
 72145  1  0  0  0
 72146  1  0  0  0
 73 76  1  0  0  0
 73 78  1  0  0  0
 73147  1  0  0  0
 73148  1  0  0  0
 74 82  1  0  0  0
 74149  1  0  0  0
 74150  1  0  0  0
 75 79  1  0  0  0
 75 82  1  0  0  0
 75151  1  0  0  0
 75152  1  0  0  0
 76 84  1  0  0  0
 76153  1  0  0  0
 76154  1  0  0  0
 77 78  1  0  0  0
 77 84  1  0  0  0
 77155  1  0  0  0
 77156  1  0  0  0
 78157  1  0  0  0
 79 83  1  0  0  0
 79158  1  0  0  0
 80 81  1  0  0  0
 80159  1  0  0  0
 80160  1  0  0  0
 80 84  1  0  0  0
 81161  1  0  0  0
 81162  1  0  0  0
 83163  1  0  0  0
 84164  1  0  0  0
M  CHG  1  84   1
M  ISO  4   1 100  68 101  81 101  83 100
M  END
> <chiral flag>
0

> <version>
0

> <s_m_source_file>
/data/baiqing/PycharmProjects/Reinvent-master-3.2/result/LINK_invent/BTK/process_docking_weight1_custom_sum_contain_oxygen_bond_distance_aromatic_linkinvent_7_9_3/rearranged_h_0199.sdf

> <i_m_source_file_index>
86

> <r_mmod_Potential_Energy-OPLS-2005>
-68.7690887451172

> <r_mmod_Stretch_Energy-OPLS-2005>
36.612247467041

> <r_mmod_Bend_Energy-OPLS-2005>
141.630218505859

> <r_mmod_Torsional_Energy-OPLS-2005>
330.530487060547

> <r_mmod_Improper_Torsional_Energy-OPLS-2005>
7.40555095672607

> <r_mmod_Van_der_Waal_Energy-OPLS-2005>
143.819564819336

> <r_mmod_Electrostatic_Energy-OPLS-2005>
-304.434967041016

> <r_mmod_Solvation_Energy-OPLS-2005>
-442.337036132812

> <b_mmod_Minimization_Converged-OPLS-2005>
0

> <r_mmod_RMS_Derivative-OPLS-2005>
1.27443361282349

$$$$
86
                    3D
 Structure written by MMmdl.
168178  0  0  1  0            999 V2000
  -30.8196  -14.3903   20.7066 C   0  0  0  0  0  0
  -30.3975  -12.3023   19.4548 C   0  0  0  0  0  0
  -29.5002  -12.5182   18.2175 C   0  0  0  0  0  0
  -28.0187  -12.3569   18.5983 C   0  0  0  0  0  0
  -27.6519  -13.2001   19.8395 C   0  0  2  0  0  0
  -28.6626  -12.9842   20.9752 C   0  0  0  0  0  0
  -25.2577  -13.8146   20.5568 C   0  0  0  0  0  0
  -24.1851  -13.0434   20.9167 C   0  0  0  0  0  0
  -24.6387  -11.6901   20.8692 C   0  0  0  0  0  0
  -23.9045  -10.4294   21.0405 C   0  0  0  0  0  0
  -24.3607   -9.4216   21.9188 C   0  0  0  0  0  0
  -23.6298   -8.2242   22.0757 C   0  0  0  0  0  0
  -22.4280   -8.0277   21.3541 C   0  0  0  0  0  0
  -21.9906   -9.0247   20.4635 C   0  0  0  0  0  0
  -22.7220  -10.2137   20.3050 C   0  0  0  0  0  0
  -21.6858   -6.0731   22.5282 C   0  0  0  0  0  0
  -21.4015   -6.5640   23.8215 C   0  0  0  0  0  0
  -21.3658   -5.6789   24.9176 C   0  0  0  0  0  0
  -21.6044   -4.3052   24.7228 C   0  0  0  0  0  0
  -21.8818   -3.8148   23.4344 C   0  0  0  0  0  0
  -21.9196   -4.6962   22.3403 C   0  0  0  0  0  0
  -22.7884  -13.5254   21.1852 C   0  0  0  0  0  0
  -22.1665   -4.2144   21.0983 F   0  0  0  0  0  0
  -21.5626   -3.4539   25.7738 F   0  0  0  0  0  0
  -30.0277  -13.2878   20.5000 N   0  0  0  0  0  0
  -26.2935  -12.9286   20.3051 N   0  0  0  0  0  0
  -25.9274  -11.6463   20.5590 N   0  0  0  0  0  0
  -22.0517  -12.8254   22.0401 N   0  0  0  0  0  0
  -25.4331  -15.1863   20.3953 N   0  0  0  0  0  0
  -31.8295  -14.5552   20.0140 O   0  0  0  0  0  0
  -21.6644   -6.8878   21.4242 O   0  0  0  0  0  0
  -22.3593  -14.5569   20.6699 O   0  0  0  0  0  0
  -24.6143  -31.8711   23.2139 C   0  0  0  0  0  0
  -25.9041  -32.4847   23.8423 C   0  0  1  0  0  0
  -27.2216  -27.4382   20.0675 C   0  0  0  0  0  0
  -25.5893  -33.8647   24.2332 N   0  0  0  0  0  0
  -23.3995  -30.5005   21.5579 C   0  0  2  0  0  0
  -24.8387  -28.9750   20.1229 C   0  0  0  0  0  0
  -22.7412  -29.4678   22.5017 C   0  0  0  0  0  0
  -18.0274  -28.1374   22.8495 C   0  0  0  0  0  0
  -24.1481  -36.7324   23.2635 C   0  0  0  0  0  0
  -25.9342  -30.8347   21.3708 C   0  0  0  0  0  0
  -26.0061  -29.4717   20.7147 C   0  0  0  0  0  0
  -27.1994  -28.7100   20.6894 C   0  0  0  0  0  0
  -26.0148  -26.9569   19.4948 C   0  0  0  0  0  0
  -24.8363  -27.7143   19.5158 C   0  0  0  0  0  0
  -23.6048  -29.8420   20.1711 C   0  0  0  0  0  0
  -25.4108  -36.3130   24.0329 C   0  0  1  0  0  0
  -20.5869  -28.3650   23.1329 C   0  0  2  0  0  0
  -20.6763  -26.9386   22.5422 C   0  0  0  0  0  0
  -19.5740  -26.6373   21.5223 C   0  0  0  0  0  0
  -18.1922  -26.7914   22.1635 C   0  0  0  0  0  0
  -19.1523  -28.8833   23.2906 C   0  0  0  0  0  0
  -18.9449  -30.1446   23.8903 C   0  0  0  0  0  0
  -17.6449  -30.6584   24.0561 C   0  0  0  0  0  0
  -25.9038  -34.9496   23.5122 C   0  0  0  0  0  0
  -16.5346  -29.9082   23.6325 C   0  0  0  0  0  0
  -16.7260  -28.6502   23.0341 C   0  0  0  0  0  0
  -26.4463  -31.6632   25.0755 C   0  0  0  0  0  0
  -25.3720  -31.3730   26.1492 C   0  0  0  0  0  0
  -27.0301  -30.3075   24.6151 C   0  0  0  0  0  0
  -27.6039  -32.4362   25.7510 C   0  0  0  0  0  0
  -27.5576  -37.1824   24.8466 C   0  0  0  0  0  0
  -21.4144  -29.3026   22.3743 N   0  0  0  0  0  0
  -26.4296  -37.3814   23.9396 N   0  0  0  0  0  0
  -24.6677  -31.0834   22.1045 N   0  0  0  0  0  0
  -23.4197  -28.8196   23.3030 O   0  0  0  0  0  0
  -28.4004  -26.7071   20.0266 O   0  0  0  0  0  0
  -26.5616  -34.8934   22.4695 O   0  0  0  0  0  0
  -23.5334  -32.1465   23.7539 O   0  0  0  0  0  0
  -27.7158  -21.1894   20.9108 C   0  0  0  0  0  0
  -29.5518  -20.0248   19.9769 C   0  0  0  0  0  0
  -28.5064  -20.0271   20.9169 C   0  0  0  0  0  0
  -29.0547  -22.1561   19.3208 C   0  0  0  0  0  0
  -28.7620  -23.3982   17.0496 C   0  0  0  0  0  0
  -30.2251  -23.1070   17.1714 C   0  0  0  0  0  0
  -29.6377  -15.3941   22.8011 C   0  0  0  0  0  0
  -31.2770  -16.6497   21.5647 C   0  0  0  0  0  0
  -28.5319  -16.4836   22.6176 C   0  0  0  0  0  0
  -30.4908  -17.8495   22.1482 C   0  0  0  0  0  0
  -29.3964  -23.3401   18.4337 C   0  0  0  0  0  0
  -28.2020  -18.8861   21.9169 C   0  0  0  0  0  0
  -29.6193  -24.6338   19.2369 C   0  0  0  0  0  0
  -28.3157  -25.4375   19.3658 C   0  0  0  0  0  0
  -27.9753  -22.2308   20.0931 N   0  0  0  0  0  0
  -29.8489  -21.0973   19.2291 N   0  0  0  0  0  0
  -30.5091  -15.3741   21.6107 N   0  0  0  0  0  0
  -29.0487  -17.6571   21.8416 N   0  3  0  0  0  0
  -31.4488  -12.3482   19.1651 H   0  0  0  0  0  0
  -30.2620  -11.2903   19.8406 H   0  0  0  0  0  0
  -29.7606  -11.8059   17.4329 H   0  0  0  0  0  0
  -29.6706  -13.5112   17.8004 H   0  0  0  0  0  0
  -27.8375  -11.2999   18.8014 H   0  0  0  0  0  0
  -27.3767  -12.6193   17.7572 H   0  0  0  0  0  0
  -27.7015  -14.2478   19.5439 H   0  0  0  0  0  0
  -28.6264  -11.9532   21.3296 H   0  0  0  0  0  0
  -28.2765  -13.5694   21.7893 H   0  0  0  0  0  0
  -25.2750   -9.5703   22.4766 H   0  0  0  0  0  0
  -24.0001   -7.4635   22.7482 H   0  0  0  0  0  0
  -21.0830   -8.8756   19.8944 H   0  0  0  0  0  0
  -22.3671  -10.9670   19.6160 H   0  0  0  0  0  0
  -21.2015   -7.6151   23.9723 H   0  0  0  0  0  0
  -21.1480   -6.0518   25.9081 H   0  0  0  0  0  0
  -22.0606   -2.7609   23.2843 H   0  0  0  0  0  0
  -22.4104  -11.9894   22.4764 H   0  0  0  0  0  0
  -21.1130  -13.1285   22.2578 H   0  0  0  0  0  0
  -24.6327  -15.8087   20.4269 H   0  0  0  0  0  0
  -26.2153  -15.5795   19.8908 H   0  0  0  0  0  0
  -26.7109  -32.5557   23.1187 H   0  0  0  0  0  0
  -25.0008  -33.9823   25.0450 H   0  0  0  0  0  0
  -22.6865  -31.3171   21.4247 H   0  0  0  0  0  0
  -23.3750  -35.9653   23.3311 H   0  0  0  0  0  0
  -24.3563  -36.8936   22.2047 H   0  0  0  0  0  0
  -23.7233  -37.6522   23.6659 H   0  0  0  0  0  0
  -26.0550  -31.6017   20.6048 H   0  0  0  0  0  0
  -26.8198  -30.8812   21.9922 H   0  0  0  0  0  0
  -28.1021  -29.0969   21.1410 H   0  0  0  0  0  0
  -25.9326  -25.9957   19.0124 H   0  0  0  0  0  0
  -23.9366  -27.3206   19.0629 H   0  0  0  0  0  0
  -23.7167  -30.6188   19.4140 H   0  0  0  0  0  0
  -22.7281  -29.2646   19.8703 H   0  0  0  0  0  0
  -25.1293  -36.1996   25.0826 H   0  0  0  0  0  0
  -20.9965  -28.3208   24.1449 H   0  0  0  0  0  0
  -20.5680  -26.2251   23.3604 H   0  0  0  0  0  0
  -21.6629  -26.7434   22.1207 H   0  0  0  0  0  0
  -19.6893  -25.6288   21.1244 H   0  0  0  0  0  0
  -19.6678  -27.3186   20.6757 H   0  0  0  0  0  0
  -17.4185  -26.6655   21.4040 H   0  0  0  0  0  0
  -18.0324  -26.0065   22.9041 H   0  0  0  0  0  0
  -19.7928  -30.7270   24.2254 H   0  0  0  0  0  0
  -17.5005  -31.6261   24.5159 H   0  0  0  0  0  0
  -15.5343  -30.2981   23.7652 H   0  0  0  0  0  0
  -15.8662  -28.0832   22.7033 H   0  0  0  0  0  0
  -24.5890  -30.7091   25.7800 H   0  0  0  0  0  0
  -24.8921  -32.2890   26.4955 H   0  0  0  0  0  0
  -25.8066  -30.8874   27.0238 H   0  0  0  0  0  0
  -26.2842  -29.6828   24.1228 H   0  0  0  0  0  0
  -27.4070  -29.7336   25.4623 H   0  0  0  0  0  0
  -27.8681  -30.4375   23.9302 H   0  0  0  0  0  0
  -27.2651  -33.3649   26.2111 H   0  0  0  0  0  0
  -28.3834  -32.6945   25.0333 H   0  0  0  0  0  0
  -28.0727  -31.8486   26.5408 H   0  0  0  0  0  0
  -28.2625  -38.0092   24.7500 H   0  0  0  0  0  0
  -28.1045  -36.2631   24.6326 H   0  0  0  0  0  0
  -27.2290  -37.1513   25.8868 H   0  0  0  0  0  0
  -20.9289  -29.8758   21.6991 H   0  0  0  0  0  0
  -26.0188  -38.2894   24.1391 H   0  0  0  0  0  0
  -26.8632  -21.2922   21.5668 H   0  0  0  0  0  0
  -30.1905  -19.1709   19.8194 H   0  0  0  0  0  0
  -28.1084  -22.5751   16.7661 H   0  0  0  0  0  0
  -28.5016  -24.3612   16.6176 H   0  0  0  0  0  0
  -30.9191  -23.8870   16.8676 H   0  0  0  0  0  0
  -30.5422  -22.0953   16.9279 H   0  0  0  0  0  0
  -29.2935  -14.4424   23.1871 H   0  0  0  0  0  0
  -30.2693  -15.6927   23.6398 H   0  0  0  0  0  0
  -32.2340  -16.5353   22.0764 H   0  0  0  0  0  0
  -31.5136  -16.9070   20.5297 H   0  0  0  0  0  0
  -28.1812  -16.8063   23.5996 H   0  0  0  0  0  0
  -27.6631  -16.0716   22.1035 H   0  0  0  0  0  0
  -30.9130  -18.7817   21.7835 H   0  0  0  0  0  0
  -30.6198  -17.9110   23.2318 H   0  0  0  0  0  0
  -27.1590  -18.5959   21.7755 H   0  0  0  0  0  0
  -28.2646  -19.2897   22.9290 H   0  0  0  0  0  0
  -30.0398  -24.3969   20.2142 H   0  0  0  0  0  0
  -30.3570  -25.2501   18.7237 H   0  0  0  0  0  0
  -27.5777  -24.8218   19.8800 H   0  0  0  0  0  0
  -27.9540  -25.6207   18.3540 H   0  0  0  0  0  0
  -29.0065  -17.3494   20.8818 H   0  0  0  0  0  0
  1 25  1  0  0  0
  1 30  2  0  0  0
  1 87  1  0  0  0
  2  3  1  0  0  0
  2 25  1  0  0  0
  2 89  1  0  0  0
  2 90  1  0  0  0
  3  4  1  0  0  0
  3 91  1  0  0  0
  3 92  1  0  0  0
  4  5  1  0  0  0
  4 93  1  0  0  0
  4 94  1  0  0  0
  5  6  1  0  0  0
  5 26  1  0  0  0
  5 95  1  0  0  0
  6 25  1  0  0  0
  6 96  1  0  0  0
  6 97  1  0  0  0
  7  8  2  0  0  0
  7 26  1  0  0  0
  7 29  1  0  0  0
  8  9  1  0  0  0
  8 22  1  0  0  0
  9 10  1  0  0  0
  9 27  2  0  0  0
 10 11  2  0  0  0
 10 15  1  0  0  0
 11 12  1  0  0  0
 11 98  1  0  0  0
 12 13  2  0  0  0
 12 99  1  0  0  0
 13 14  1  0  0  0
 13 31  1  0  0  0
 14 15  2  0  0  0
 14100  1  0  0  0
 15101  1  0  0  0
 16 17  2  0  0  0
 16 21  1  0  0  0
 16 31  1  0  0  0
 17 18  1  0  0  0
 17102  1  0  0  0
 18 19  2  0  0  0
 18103  1  0  0  0
 19 20  1  0  0  0
 19 24  1  0  0  0
 20 21  2  0  0  0
 20104  1  0  0  0
 21 23  1  0  0  0
 22 28  1  0  0  0
 22 32  2  0  0  0
 26 27  1  0  0  0
 28105  1  0  0  0
 28106  1  0  0  0
 29107  1  0  0  0
 29108  1  0  0  0
 33 34  1  0  0  0
 33 66  1  0  0  0
 33 70  2  0  0  0
 34 36  1  0  0  0
 34 59  1  0  0  0
 34109  1  0  0  0
 35 44  2  0  0  0
 35 45  1  0  0  0
 35 68  1  0  0  0
 36 56  1  0  0  0
 36110  1  0  0  0
 37 39  1  0  0  0
 37 47  1  0  0  0
 37 66  1  0  0  0
 37111  1  0  0  0
 38 43  2  0  0  0
 38 46  1  0  0  0
 38 47  1  0  0  0
 39 64  1  0  0  0
 39 67  2  0  0  0
 40 52  1  0  0  0
 40 53  2  0  0  0
 40 58  1  0  0  0
 41112  1  0  0  0
 41113  1  0  0  0
 41114  1  0  0  0
 41 48  1  0  0  0
 42 43  1  0  0  0
 42 66  1  0  0  0
 42115  1  0  0  0
 42116  1  0  0  0
 43 44  1  0  0  0
 44117  1  0  0  0
 45 46  2  0  0  0
 45118  1  0  0  0
 46119  1  0  0  0
 47120  1  0  0  0
 47121  1  0  0  0
 48 56  1  0  0  0
 48 65  1  0  0  0
 48122  1  0  0  0
 49 50  1  0  0  0
 49 53  1  0  0  0
 49 64  1  0  0  0
 49123  1  0  0  0
 50 51  1  0  0  0
 50124  1  0  0  0
 50125  1  0  0  0
 51 52  1  0  0  0
 51126  1  0  0  0
 51127  1  0  0  0
 52128  1  0  0  0
 52129  1  0  0  0
 53 54  1  0  0  0
 54 55  2  0  0  0
 54130  1  0  0  0
 55 57  1  0  0  0
 55131  1  0  0  0
 56 69  2  0  0  0
 57 58  2  0  0  0
 57132  1  0  0  0
 58133  1  0  0  0
 59 60  1  0  0  0
 59 61  1  0  0  0
 59 62  1  0  0  0
 60134  1  0  0  0
 60135  1  0  0  0
 60136  1  0  0  0
 61137  1  0  0  0
 61138  1  0  0  0
 61139  1  0  0  0
 62140  1  0  0  0
 62141  1  0  0  0
 62142  1  0  0  0
 63 65  1  0  0  0
 63143  1  0  0  0
 63144  1  0  0  0
 63145  1  0  0  0
 64146  1  0  0  0
 65147  1  0  0  0
 68 84  1  0  0  0
 71 73  2  0  0  0
 71 85  1  0  0  0
 71148  1  0  0  0
 72 73  1  0  0  0
 72 86  2  0  0  0
 72149  1  0  0  0
 73 82  1  0  0  0
 74 81  1  0  0  0
 74 85  2  0  0  0
 74 86  1  0  0  0
 75 76  1  0  0  0
 75 81  1  0  0  0
 75150  1  0  0  0
 75151  1  0  0  0
 76 81  1  0  0  0
 76152  1  0  0  0
 76153  1  0  0  0
 77 79  1  0  0  0
 77 87  1  0  0  0
 77154  1  0  0  0
 77155  1  0  0  0
 78 80  1  0  0  0
 78 87  1  0  0  0
 78156  1  0  0  0
 78157  1  0  0  0
 79 88  1  0  0  0
 79158  1  0  0  0
 79159  1  0  0  0
 80 88  1  0  0  0
 80160  1  0  0  0
 80161  1  0  0  0
 81 83  1  0  0  0
 82162  1  0  0  0
 82163  1  0  0  0
 82 88  1  0  0  0
 83 84  1  0  0  0
 83164  1  0  0  0
 83165  1  0  0  0
 84166  1  0  0  0
 84167  1  0  0  0
 88168  1  0  0  0
M  CHG  1  88   1
M  ISO  4   1 100  68 101  84 101  87 100
M  END
> <chiral flag>
0

> <version>
0

> <s_m_source_file>
/data/baiqing/PycharmProjects/Reinvent-master-3.2/result/LINK_invent/BTK/process_docking_weight1_custom_sum_contain_oxygen_bond_distance_aromatic_linkinvent_7_9_3/rearranged_h_0199.sdf

> <i_m_source_file_index>
87

> <r_mmod_Potential_Energy-OPLS-2005>
-286.273315429688

> <r_mmod_Stretch_Energy-OPLS-2005>
49.3508491516113

> <r_mmod_Bend_Energy-OPLS-2005>
155.803909301758

> <r_mmod_Torsional_Energy-OPLS-2005>
365.692077636719

> <r_mmod_Improper_Torsional_Energy-OPLS-2005>
3.73435401916504

> <r_mmod_Van_der_Waal_Energy-OPLS-2005>
214.196197509766

> <r_mmod_Electrostatic_Energy-OPLS-2005>
-623.031066894531

> <r_mmod_Solvation_Energy-OPLS-2005>
-465.381958007812

> <b_mmod_Minimization_Converged-OPLS-2005>
0

> <r_mmod_RMS_Derivative-OPLS-2005>
2.15101432800293

$$$$
87
                    3D
 Structure written by MMmdl.
172181  0  0  1  0            999 V2000
  -30.9369  -14.3380   20.6755 C   0  0  0  0  0  0
  -30.3882  -12.3373   19.3828 C   0  0  0  0  0  0
  -29.4714  -12.6209   18.1882 C   0  0  0  0  0  0
  -28.0246  -12.3917   18.6377 C   0  0  0  0  0  0
  -27.6686  -13.2553   19.8711 C   0  0  2  0  0  0
  -28.7167  -13.1342   21.0073 C   0  0  0  0  0  0
  -25.2569  -13.8389   20.5755 C   0  0  0  0  0  0
  -24.1846  -13.0557   20.9086 C   0  0  0  0  0  0
  -24.6452  -11.7064   20.8644 C   0  0  0  0  0  0
  -23.9100  -10.4462   21.0334 C   0  0  0  0  0  0
  -24.3766   -9.4420   21.9096 C   0  0  0  0  0  0
  -23.6497   -8.2416   22.0693 C   0  0  0  0  0  0
  -22.4396   -8.0419   21.3586 C   0  0  0  0  0  0
  -21.9926   -9.0395   20.4769 C   0  0  0  0  0  0
  -22.7163  -10.2330   20.3136 C   0  0  0  0  0  0
  -21.6994   -6.0878   22.5226 C   0  0  0  0  0  0
  -21.4079   -6.5752   23.8169 C   0  0  0  0  0  0
  -21.3634   -5.6891   24.9110 C   0  0  0  0  0  0
  -21.6036   -4.3143   24.7182 C   0  0  0  0  0  0
  -21.8793   -3.8225   23.4278 C   0  0  0  0  0  0
  -21.9252   -4.7086   22.3358 C   0  0  0  0  0  0
  -22.7914  -13.5347   21.1900 C   0  0  0  0  0  0
  -22.1748   -4.2260   21.0972 F   0  0  0  0  0  0
  -21.5543   -3.4616   25.7698 F   0  0  0  0  0  0
  -30.0964  -13.2779   20.4901 N   0  0  0  0  0  0
  -26.3052  -12.9621   20.3365 N   0  0  0  0  0  0
  -25.9379  -11.6730   20.5717 N   0  0  0  0  0  0
  -22.0571  -12.8219   22.0336 N   0  0  0  0  0  0
  -25.3957  -15.2159   20.4353 N   0  0  0  0  0  0
  -31.7279  -14.7354   19.8218 O   0  0  0  0  0  0
  -21.6797   -6.8973   21.4202 O   0  0  0  0  0  0
  -22.3496  -14.5698   20.6934 O   0  0  0  0  0  0
  -24.6176  -31.8646   23.2066 C   0  0  0  0  0  0
  -25.9083  -32.4790   23.8357 C   0  0  1  0  0  0
  -27.2023  -27.3809   20.1370 C   0  0  0  0  0  0
  -25.5931  -33.8597   24.2279 N   0  0  0  0  0  0
  -23.4044  -30.4926   21.5431 C   0  0  2  0  0  0
  -24.8466  -28.9524   20.1112 C   0  0  0  0  0  0
  -22.7414  -29.4688   22.4918 C   0  0  0  0  0  0
  -18.0287  -28.1389   22.8476 C   0  0  0  0  0  0
  -24.1493  -36.7318   23.2633 C   0  0  0  0  0  0
  -25.9367  -30.8178   21.3671 C   0  0  0  0  0  0
  -26.0099  -29.4496   20.7158 C   0  0  0  0  0  0
  -27.1925  -28.6714   20.7227 C   0  0  0  0  0  0
  -26.0281  -26.9105   19.5152 C   0  0  0  0  0  0
  -24.8544  -27.6860   19.5004 C   0  0  0  0  0  0
  -23.6147  -29.8270   20.1570 C   0  0  0  0  0  0
  -25.4112  -36.3083   24.0315 C   0  0  1  0  0  0
  -20.5876  -28.3711   23.1273 C   0  0  2  0  0  0
  -20.6787  -26.9443   22.5405 C   0  0  0  0  0  0
  -19.5770  -26.6395   21.5204 C   0  0  0  0  0  0
  -18.1939  -26.7932   22.1609 C   0  0  0  0  0  0
  -19.1535  -28.8861   23.2877 C   0  0  0  0  0  0
  -18.9467  -30.1457   23.8905 C   0  0  0  0  0  0
  -17.6471  -30.6597   24.0560 C   0  0  0  0  0  0
  -25.9051  -34.9452   23.5078 C   0  0  0  0  0  0
  -16.5356  -29.9096   23.6333 C   0  0  0  0  0  0
  -16.7275  -28.6508   23.0353 C   0  0  0  0  0  0
  -26.4494  -31.6596   25.0717 C   0  0  0  0  0  0
  -25.3742  -31.3736   26.1453 C   0  0  0  0  0  0
  -27.0341  -30.3016   24.6156 C   0  0  0  0  0  0
  -27.6021  -32.4354   25.7499 C   0  0  0  0  0  0
  -27.5572  -37.1811   24.8453 C   0  0  0  0  0  0
  -21.4143  -29.3073   22.3672 N   0  0  0  0  0  0
  -26.4284  -37.3773   23.9400 N   0  0  0  0  0  0
  -24.6705  -31.0757   22.0964 N   0  0  0  0  0  0
  -23.4155  -28.8224   23.2984 O   0  0  0  0  0  0
  -28.3256  -26.5781   20.1562 O   0  0  0  0  0  0
  -26.5608  -34.8908   22.4643 O   0  0  0  0  0  0
  -23.5374  -32.1426   23.7467 O   0  0  0  0  0  0
  -29.9409  -15.6301   23.8184 C   0  0  0  0  0  0
  -28.9231  -17.4225   24.1251 C   0  0  0  0  0  0
  -29.5708  -20.6586   23.4163 C   0  0  0  0  0  0
  -28.2376  -19.9860   23.5239 C   0  0  1  0  0  0
  -28.7283  -20.4855   22.1617 C   0  0  1  0  0  0
  -29.2399  -16.4291   27.7556 C   0  0  0  0  0  0
  -28.5353  -22.8433   18.4048 C   0  0  0  0  0  0
  -30.6714  -14.4660   23.2167 C   0  0  0  0  0  0
  -28.4363  -17.0794   26.6118 C   0  0  0  0  0  0
  -28.7311  -22.9469   21.5792 C   0  0  0  0  0  0
  -28.3236  -25.5097   21.1481 C   0  0  0  0  0  0
  -28.1816  -24.0472   20.5876 C   0  0  1  0  0  0
  -29.5779  -16.7859   23.1547 N   0  0  0  0  0  0
  -29.6028  -15.5736   25.0989 N   0  0  0  0  0  0
  -28.9639  -16.7526   25.2928 N   0  0  0  0  0  0
  -28.1890  -18.6157   24.0509 N   0  0  0  0  0  0
  -31.1948  -14.7780   21.9060 N   0  0  0  0  0  0
  -28.0183  -21.6481   21.5842 N   0  0  0  0  0  0
  -28.8993  -23.9681   19.2916 N   0  3  0  0  0  0
  -31.4377  -12.4043   19.0629 H   0  0  0  0  0  0
  -30.2283  -11.3204   19.7283 H   0  0  0  0  0  0
  -29.7085  -11.9834   17.3345 H   0  0  0  0  0  0
  -29.5993  -13.6489   17.8448 H   0  0  0  0  0  0
  -27.9214  -11.3348   18.8734 H   0  0  0  0  0  0
  -27.3291  -12.5766   17.8203 H   0  0  0  0  0  0
  -27.6938  -14.2909   19.5426 H   0  0  0  0  0  0
  -28.5947  -12.1863   21.5348 H   0  0  0  0  0  0
  -28.4933  -13.9128   21.7294 H   0  0  0  0  0  0
  -25.2914   -9.5990   22.4645 H   0  0  0  0  0  0
  -24.0345   -7.4799   22.7362 H   0  0  0  0  0  0
  -21.0785   -8.8923   19.9191 H   0  0  0  0  0  0
  -22.3404  -10.9935   19.6435 H   0  0  0  0  0  0
  -21.2108   -7.6269   23.9654 H   0  0  0  0  0  0
  -21.1467   -6.0676   25.9046 H   0  0  0  0  0  0
  -22.0583   -2.7673   23.2756 H   0  0  0  0  0  0
  -22.4149  -11.9844   22.4724 H   0  0  0  0  0  0
  -21.1035  -13.1033   22.2006 H   0  0  0  0  0  0
  -24.6053  -15.8498   20.5505 H   0  0  0  0  0  0
  -26.2275  -15.6719   20.0821 H   0  0  0  0  0  0
  -26.7136  -32.5471   23.1096 H   0  0  0  0  0  0
  -25.0094  -33.9736   25.0429 H   0  0  0  0  0  0
  -22.6968  -31.3113   21.4029 H   0  0  0  0  0  0
  -23.3728  -35.9679   23.3286 H   0  0  0  0  0  0
  -24.3582  -36.8963   22.2049 H   0  0  0  0  0  0
  -23.7279  -37.6526   23.6677 H   0  0  0  0  0  0
  -26.0607  -31.5782   20.5949 H   0  0  0  0  0  0
  -26.8223  -30.8652   21.9881 H   0  0  0  0  0  0
  -28.0862  -29.0434   21.2043 H   0  0  0  0  0  0
  -26.0138  -25.9331   19.0533 H   0  0  0  0  0  0
  -23.9597  -27.2958   19.0301 H   0  0  0  0  0  0
  -23.7305  -30.6007   19.3976 H   0  0  0  0  0  0
  -22.7341  -29.2546   19.8580 H   0  0  0  0  0  0
  -25.1294  -36.1911   25.0805 H   0  0  0  0  0  0
  -20.9973  -28.3300   24.1388 H   0  0  0  0  0  0
  -20.5703  -26.2324   23.3605 H   0  0  0  0  0  0
  -21.6652  -26.7498   22.1191 H   0  0  0  0  0  0
  -19.6944  -25.6304   21.1241 H   0  0  0  0  0  0
  -19.6698  -27.3190   20.6718 H   0  0  0  0  0  0
  -17.4214  -26.6675   21.4004 H   0  0  0  0  0  0
  -18.0354  -26.0075   22.9011 H   0  0  0  0  0  0
  -19.7950  -30.7271   24.2253 H   0  0  0  0  0  0
  -17.5042  -31.6273   24.5177 H   0  0  0  0  0  0
  -15.5364  -30.3006   23.7672 H   0  0  0  0  0  0
  -15.8666  -28.0835   22.7068 H   0  0  0  0  0  0
  -24.5896  -30.7100   25.7801 H   0  0  0  0  0  0
  -24.8974  -32.2922   26.4879 H   0  0  0  0  0  0
  -25.8092  -30.8914   27.0211 H   0  0  0  0  0  0
  -26.2912  -29.6747   24.1212 H   0  0  0  0  0  0
  -27.4070  -29.7283   25.4654 H   0  0  0  0  0  0
  -27.8762  -30.4294   23.9350 H   0  0  0  0  0  0
  -27.2571  -33.3620   26.2085 H   0  0  0  0  0  0
  -28.3840  -32.6972   25.0365 H   0  0  0  0  0  0
  -28.0681  -31.8499   26.5426 H   0  0  0  0  0  0
  -28.2569  -38.0122   24.7490 H   0  0  0  0  0  0
  -28.1083  -36.2648   24.6282 H   0  0  0  0  0  0
  -27.2292  -37.1466   25.8855 H   0  0  0  0  0  0
  -20.9304  -29.8764   21.6869 H   0  0  0  0  0  0
  -26.0151  -38.2839   24.1404 H   0  0  0  0  0  0
  -30.4471  -20.0163   23.5035 H   0  0  0  0  0  0
  -29.6707  -21.6305   23.8960 H   0  0  0  0  0  0
  -27.4596  -20.5669   24.0127 H   0  0  0  0  0  0
  -29.1432  -19.7476   21.4738 H   0  0  0  0  0  0
  -28.9175  -16.8029   28.7258 H   0  0  0  0  0  0
  -30.3020  -16.6545   27.6492 H   0  0  0  0  0  0
  -29.1296  -15.3444   27.7591 H   0  0  0  0  0  0
  -29.1607  -22.8590   17.5121 H   0  0  0  0  0  0
  -27.4977  -22.9181   18.0750 H   0  0  0  0  0  0
  -28.6829  -21.8762   18.8892 H   0  0  0  0  0  0
  -30.0641  -13.5687   23.2377 H   0  0  0  0  0  0
  -31.5224  -14.2164   23.8537 H   0  0  0  0  0  0
  -28.4284  -18.1604   26.7374 H   0  0  0  0  0  0
  -27.4006  -16.7565   26.6503 H   0  0  0  0  0  0
  -29.7925  -22.7854   21.3874 H   0  0  0  0  0  0
  -28.6766  -23.3346   22.5965 H   0  0  0  0  0  0
  -29.2738  -25.5923   21.6755 H   0  0  0  0  0  0
  -27.5553  -25.6785   21.9082 H   0  0  0  0  0  0
  -27.1176  -23.8885   20.4015 H   0  0  0  0  0  0
  -27.5331  -18.6092   24.8242 H   0  0  0  0  0  0
  -31.9358  -15.4647   21.9263 H   0  0  0  0  0  0
  -27.6256  -21.3963   20.6797 H   0  0  0  0  0  0
  -28.7045  -24.8208   18.7861 H   0  0  0  0  0  0
  -29.8952  -23.9509   19.4632 H   0  0  0  0  0  0
  1 25  1  0  0  0
  1 30  2  0  0  0
  1 87  1  0  0  0
  2  3  1  0  0  0
  2 25  1  0  0  0
  2 90  1  0  0  0
  2 91  1  0  0  0
  3  4  1  0  0  0
  3 92  1  0  0  0
  3 93  1  0  0  0
  4  5  1  0  0  0
  4 94  1  0  0  0
  4 95  1  0  0  0
  5  6  1  0  0  0
  5 26  1  0  0  0
  5 96  1  0  0  0
  6 25  1  0  0  0
  6 97  1  0  0  0
  6 98  1  0  0  0
  7  8  2  0  0  0
  7 26  1  0  0  0
  7 29  1  0  0  0
  8  9  1  0  0  0
  8 22  1  0  0  0
  9 10  1  0  0  0
  9 27  2  0  0  0
 10 11  2  0  0  0
 10 15  1  0  0  0
 11 12  1  0  0  0
 11 99  1  0  0  0
 12 13  2  0  0  0
 12100  1  0  0  0
 13 14  1  0  0  0
 13 31  1  0  0  0
 14 15  2  0  0  0
 14101  1  0  0  0
 15102  1  0  0  0
 16 17  2  0  0  0
 16 21  1  0  0  0
 16 31  1  0  0  0
 17 18  1  0  0  0
 17103  1  0  0  0
 18 19  2  0  0  0
 18104  1  0  0  0
 19 20  1  0  0  0
 19 24  1  0  0  0
 20 21  2  0  0  0
 20105  1  0  0  0
 21 23  1  0  0  0
 22 28  1  0  0  0
 22 32  2  0  0  0
 26 27  1  0  0  0
 28106  1  0  0  0
 28107  1  0  0  0
 29108  1  0  0  0
 29109  1  0  0  0
 33 34  1  0  0  0
 33 66  1  0  0  0
 33 70  2  0  0  0
 34 36  1  0  0  0
 34 59  1  0  0  0
 34110  1  0  0  0
 35 44  2  0  0  0
 35 45  1  0  0  0
 35 68  1  0  0  0
 36 56  1  0  0  0
 36111  1  0  0  0
 37 39  1  0  0  0
 37 47  1  0  0  0
 37 66  1  0  0  0
 37112  1  0  0  0
 38 43  2  0  0  0
 38 46  1  0  0  0
 38 47  1  0  0  0
 39 64  1  0  0  0
 39 67  2  0  0  0
 40 52  1  0  0  0
 40 53  2  0  0  0
 40 58  1  0  0  0
 41113  1  0  0  0
 41114  1  0  0  0
 41115  1  0  0  0
 41 48  1  0  0  0
 42 43  1  0  0  0
 42 66  1  0  0  0
 42116  1  0  0  0
 42117  1  0  0  0
 43 44  1  0  0  0
 44118  1  0  0  0
 45 46  2  0  0  0
 45119  1  0  0  0
 46120  1  0  0  0
 47121  1  0  0  0
 47122  1  0  0  0
 48 56  1  0  0  0
 48 65  1  0  0  0
 48123  1  0  0  0
 49 50  1  0  0  0
 49 53  1  0  0  0
 49 64  1  0  0  0
 49124  1  0  0  0
 50 51  1  0  0  0
 50125  1  0  0  0
 50126  1  0  0  0
 51 52  1  0  0  0
 51127  1  0  0  0
 51128  1  0  0  0
 52129  1  0  0  0
 52130  1  0  0  0
 53 54  1  0  0  0
 54 55  2  0  0  0
 54131  1  0  0  0
 55 57  1  0  0  0
 55132  1  0  0  0
 56 69  2  0  0  0
 57 58  2  0  0  0
 57133  1  0  0  0
 58134  1  0  0  0
 59 60  1  0  0  0
 59 61  1  0  0  0
 59 62  1  0  0  0
 60135  1  0  0  0
 60136  1  0  0  0
 60137  1  0  0  0
 61138  1  0  0  0
 61139  1  0  0  0
 61140  1  0  0  0
 62141  1  0  0  0
 62142  1  0  0  0
 62143  1  0  0  0
 63 65  1  0  0  0
 63144  1  0  0  0
 63145  1  0  0  0
 63146  1  0  0  0
 64147  1  0  0  0
 65148  1  0  0  0
 68 81  1  0  0  0
 71 78  1  0  0  0
 71 83  1  0  0  0
 71 84  2  0  0  0
 72 83  2  0  0  0
 72 85  1  0  0  0
 72 86  1  0  0  0
 73 74  1  0  0  0
 73 75  1  0  0  0
 73149  1  0  0  0
 73150  1  0  0  0
 74 75  1  0  0  0
 74 86  1  0  0  0
 74151  1  0  0  0
 75 88  1  0  0  0
 75152  1  0  0  0
 76 79  1  0  0  0
 76153  1  0  0  0
 76154  1  0  0  0
 76155  1  0  0  0
 77 89  1  0  0  0
 77156  1  0  0  0
 77157  1  0  0  0
 77158  1  0  0  0
 78 87  1  0  0  0
 78159  1  0  0  0
 78160  1  0  0  0
 79 85  1  0  0  0
 79161  1  0  0  0
 79162  1  0  0  0
 80 88  1  0  0  0
 80163  1  0  0  0
 80164  1  0  0  0
 80 82  1  0  0  0
 81 82  1  0  0  0
 81165  1  0  0  0
 81166  1  0  0  0
 82 89  1  0  0  0
 82167  1  0  0  0
 84 85  1  0  0  0
 86168  1  0  0  0
 87169  1  0  0  0
 88170  1  0  0  0
 89171  1  0  0  0
 89172  1  0  0  0
M  CHG  1  89   1
M  ISO  4   1 100  68 101  81 101  87 100
M  END
> <chiral flag>
0

> <version>
0

> <s_m_source_file>
/data/baiqing/PycharmProjects/Reinvent-master-3.2/result/LINK_invent/BTK/process_docking_weight1_custom_sum_contain_oxygen_bond_distance_aromatic_linkinvent_7_9_3/rearranged_h_0199.sdf

> <i_m_source_file_index>
88

> <r_mmod_Potential_Energy-OPLS-2005>
-266.670227050781

> <r_mmod_Stretch_Energy-OPLS-2005>
48.9194564819336

> <r_mmod_Bend_Energy-OPLS-2005>
166.247940063477

> <r_mmod_Torsional_Energy-OPLS-2005>
346.553009033203

> <r_mmod_Improper_Torsional_Energy-OPLS-2005>
10.3003616333008

> <r_mmod_Van_der_Waal_Energy-OPLS-2005>
117.243537902832

> <r_mmod_Electrostatic_Energy-OPLS-2005>
-520.8115234375

> <r_mmod_Solvation_Energy-OPLS-2005>
-466.611633300781

> <b_mmod_Minimization_Converged-OPLS-2005>
0

> <r_mmod_RMS_Derivative-OPLS-2005>
11.6321353912354

$$$$
88
                    3D
 Structure written by MMmdl.
152161  0  0  1  0            999 V2000
  -30.6701  -14.6073   20.5074 C   0  0  0  0  0  0
  -30.4241  -12.3765   19.4541 C   0  0  0  0  0  0
  -29.5022  -12.5014   18.2232 C   0  0  0  0  0  0
  -28.0257  -12.3456   18.6352 C   0  0  0  0  0  0
  -27.6504  -13.2218   19.8608 C   0  0  2  0  0  0
  -28.6943  -13.0956   20.9932 C   0  0  0  0  0  0
  -25.2545  -13.8184   20.5684 C   0  0  0  0  0  0
  -24.1820  -13.0440   20.9190 C   0  0  0  0  0  0
  -24.6396  -11.6913   20.8741 C   0  0  0  0  0  0
  -23.9064  -10.4292   21.0405 C   0  0  0  0  0  0
  -24.3616   -9.4208   21.9184 C   0  0  0  0  0  0
  -23.6290   -8.2243   22.0757 C   0  0  0  0  0  0
  -22.4273   -8.0279   21.3543 C   0  0  0  0  0  0
  -21.9906   -9.0254   20.4647 C   0  0  0  0  0  0
  -22.7235  -10.2134   20.3054 C   0  0  0  0  0  0
  -21.6855   -6.0731   22.5275 C   0  0  0  0  0  0
  -21.4017   -6.5637   23.8208 C   0  0  0  0  0  0
  -21.3661   -5.6792   24.9174 C   0  0  0  0  0  0
  -21.6045   -4.3054   24.7225 C   0  0  0  0  0  0
  -21.8820   -3.8143   23.4347 C   0  0  0  0  0  0
  -21.9194   -4.6958   22.3402 C   0  0  0  0  0  0
  -22.7841  -13.5228   21.1849 C   0  0  0  0  0  0
  -22.1661   -4.2142   21.0979 F   0  0  0  0  0  0
  -21.5629   -3.4539   25.7739 F   0  0  0  0  0  0
  -30.0099  -13.4119   20.4217 N   0  0  0  0  0  0
  -26.2977  -12.9379   20.3316 N   0  0  0  0  0  0
  -25.9327  -11.6527   20.5758 N   0  0  0  0  0  0
  -22.0486  -12.8225   22.0408 N   0  0  0  0  0  0
  -25.4240  -15.1907   20.4091 N   0  0  0  0  0  0
  -31.8377  -14.7195   20.1259 O   0  0  0  0  0  0
  -21.6641   -6.8874   21.4236 O   0  0  0  0  0  0
  -22.3527  -14.5533   20.6695 O   0  0  0  0  0  0
  -24.6242  -31.8620   23.2050 C   0  0  0  0  0  0
  -25.9102  -32.4791   23.8367 C   0  0  1  0  0  0
  -27.2215  -27.3406   20.1116 C   0  0  0  0  0  0
  -25.5927  -33.8590   24.2294 N   0  0  0  0  0  0
  -23.4158  -30.4868   21.5475 C   0  0  2  0  0  0
  -24.8609  -28.9459   20.1104 C   0  0  0  0  0  0
  -22.7460  -29.4636   22.4950 C   0  0  0  0  0  0
  -18.0283  -28.1387   22.8491 C   0  0  0  0  0  0
  -24.1488  -36.7297   23.2638 C   0  0  0  0  0  0
  -25.9551  -30.7991   21.3731 C   0  0  0  0  0  0
  -26.0287  -29.4288   20.7140 C   0  0  0  0  0  0
  -27.2124  -28.6374   20.7050 C   0  0  0  0  0  0
  -26.0311  -26.9058   19.4834 C   0  0  0  0  0  0
  -24.8628  -27.6890   19.4871 C   0  0  0  0  0  0
  -23.6288  -29.8242   20.1615 C   0  0  0  0  0  0
  -25.4112  -36.3092   24.0330 C   0  0  1  0  0  0
  -20.5881  -28.3687   23.1295 C   0  0  2  0  0  0
  -20.6772  -26.9413   22.5415 C   0  0  0  0  0  0
  -19.5750  -26.6389   21.5215 C   0  0  0  0  0  0
  -18.1929  -26.7930   22.1626 C   0  0  0  0  0  0
  -19.1534  -28.8853   23.2889 C   0  0  0  0  0  0
  -18.9455  -30.1458   23.8907 C   0  0  0  0  0  0
  -17.6455  -30.6590   24.0566 C   0  0  0  0  0  0
  -25.9048  -34.9458   23.5110 C   0  0  0  0  0  0
  -16.5348  -29.9091   23.6330 C   0  0  0  0  0  0
  -16.7271  -28.6507   23.0354 C   0  0  0  0  0  0
  -26.4493  -31.6595   25.0730 C   0  0  0  0  0  0
  -25.3731  -31.3727   26.1462 C   0  0  0  0  0  0
  -27.0335  -30.3023   24.6170 C   0  0  0  0  0  0
  -27.6057  -32.4325   25.7499 C   0  0  0  0  0  0
  -27.5576  -37.1808   24.8465 C   0  0  0  0  0  0
  -21.4176  -29.3042   22.3688 N   0  0  0  0  0  0
  -26.4293  -37.3781   23.9406 N   0  0  0  0  0  0
  -24.6838  -31.0651   22.0991 N   0  0  0  0  0  0
  -23.4195  -28.8175   23.3018 O   0  0  0  0  0  0
  -28.3468  -26.5104   20.1662 O   0  0  0  0  0  0
  -26.5611  -34.8918   22.4673 O   0  0  0  0  0  0
  -23.5413  -32.1412   23.7391 O   0  0  0  0  0  0
  -29.8598  -21.6290   21.0856 C   0  0  0  0  0  0
  -29.6008  -20.4451   20.4307 C   0  0  0  0  0  0
  -29.7652  -18.2104   21.6706 C   0  0  0  0  0  0
  -30.0072  -18.0373   19.6336 C   0  0  0  0  0  0
  -30.4690  -17.1244   20.8036 C   0  0  0  0  0  0
  -29.3193  -24.1284   20.5250 C   0  0  0  0  0  0
  -28.1508  -25.0560   20.0110 C   0  0  0  0  0  0
  -28.7495  -20.7736   19.3714 N   0  0  0  0  0  0
  -28.5234  -22.0665   19.3454 N   0  0  0  0  0  0
  -29.1997  -22.6396   20.3755 N   0  0  0  0  0  0
  -30.1867  -19.1291   20.6028 N   0  0  0  0  0  0
  -29.9480  -15.7172   20.8418 N   0  0  0  0  0  0
  -31.4685  -12.4774   19.1539 H   0  0  0  0  0  0
  -30.3382  -11.3852   19.9018 H   0  0  0  0  0  0
  -29.7636  -11.7494   17.4773 H   0  0  0  0  0  0
  -29.6518  -13.4717   17.7467 H   0  0  0  0  0  0
  -27.8605  -11.2932   18.8693 H   0  0  0  0  0  0
  -27.3725  -12.5762   17.7925 H   0  0  0  0  0  0
  -27.6654  -14.2549   19.5135 H   0  0  0  0  0  0
  -28.6975  -12.0856   21.4058 H   0  0  0  0  0  0
  -28.4484  -13.7592   21.8236 H   0  0  0  0  0  0
  -25.2763   -9.5688   22.4756 H   0  0  0  0  0  0
  -24.0001   -7.4638   22.7482 H   0  0  0  0  0  0
  -21.0834   -8.8772   19.8956 H   0  0  0  0  0  0
  -22.3691  -10.9672   19.6162 H   0  0  0  0  0  0
  -21.2009   -7.6146   23.9708 H   0  0  0  0  0  0
  -21.1483   -6.0525   25.9076 H   0  0  0  0  0  0
  -22.0598   -2.7604   23.2851 H   0  0  0  0  0  0
  -22.4104  -11.9886   22.4798 H   0  0  0  0  0  0
  -21.1103  -13.1252   22.2608 H   0  0  0  0  0  0
  -24.6545  -15.8432   20.5138 H   0  0  0  0  0  0
  -26.2681  -15.6291   20.0636 H   0  0  0  0  0  0
  -26.7168  -32.5466   23.1116 H   0  0  0  0  0  0
  -25.0082  -33.9741   25.0443 H   0  0  0  0  0  0
  -22.7085  -31.3068   21.4075 H   0  0  0  0  0  0
  -23.3750  -35.9632   23.3310 H   0  0  0  0  0  0
  -24.3581  -36.8908   22.2052 H   0  0  0  0  0  0
  -23.7238  -37.6500   23.6652 H   0  0  0  0  0  0
  -26.0840  -31.5646   20.6068 H   0  0  0  0  0  0
  -26.8366  -30.8469   22.0009 H   0  0  0  0  0  0
  -28.1091  -29.0030   21.1859 H   0  0  0  0  0  0
  -25.9760  -25.9474   18.9892 H   0  0  0  0  0  0
  -23.9678  -27.3149   19.0093 H   0  0  0  0  0  0
  -23.7467  -30.6028   19.4068 H   0  0  0  0  0  0
  -22.7484  -29.2544   19.8587 H   0  0  0  0  0  0
  -25.1292  -36.1950   25.0823 H   0  0  0  0  0  0
  -20.9973  -28.3262   24.1415 H   0  0  0  0  0  0
  -20.5677  -26.2296   23.3612 H   0  0  0  0  0  0
  -21.6641  -26.7450   22.1206 H   0  0  0  0  0  0
  -19.6911  -25.6302   21.1245 H   0  0  0  0  0  0
  -19.6688  -27.3200   20.6745 H   0  0  0  0  0  0
  -17.4198  -26.6683   21.4028 H   0  0  0  0  0  0
  -18.0328  -26.0070   22.9019 H   0  0  0  0  0  0
  -19.7931  -30.7271   24.2280 H   0  0  0  0  0  0
  -17.5011  -31.6271   24.5167 H   0  0  0  0  0  0
  -15.5350  -30.2998   23.7647 H   0  0  0  0  0  0
  -15.8669  -28.0831   22.7065 H   0  0  0  0  0  0
  -24.5913  -30.7066   25.7796 H   0  0  0  0  0  0
  -24.8914  -32.2892   26.4879 H   0  0  0  0  0  0
  -25.8068  -30.8916   27.0238 H   0  0  0  0  0  0
  -26.2909  -29.6780   24.1190 H   0  0  0  0  0  0
  -27.4036  -29.7273   25.4668 H   0  0  0  0  0  0
  -27.8775  -30.4317   23.9391 H   0  0  0  0  0  0
  -27.2673  -33.3627   26.2076 H   0  0  0  0  0  0
  -28.3871  -32.6883   25.0330 H   0  0  0  0  0  0
  -28.0720  -31.8448   26.5415 H   0  0  0  0  0  0
  -28.2603  -38.0097   24.7505 H   0  0  0  0  0  0
  -28.1066  -36.2630   24.6304 H   0  0  0  0  0  0
  -27.2296  -37.1471   25.8868 H   0  0  0  0  0  0
  -20.9348  -29.8766   21.6905 H   0  0  0  0  0  0
  -26.0179  -38.2860   24.1403 H   0  0  0  0  0  0
  -30.5104  -21.8455   21.9230 H   0  0  0  0  0  0
  -30.2363  -18.3999   22.6361 H   0  0  0  0  0  0
  -28.6801  -18.1099   21.7478 H   0  0  0  0  0  0
  -28.9684  -17.8949   19.3266 H   0  0  0  0  0  0
  -30.6919  -18.0733   18.7853 H   0  0  0  0  0  0
  -31.5543  -17.1656   20.9397 H   0  0  0  0  0  0
  -29.4836  -24.3363   21.5819 H   0  0  0  0  0  0
  -30.2381  -24.4238   20.0184 H   0  0  0  0  0  0
  -27.9809  -24.8481   18.9539 H   0  0  0  0  0  0
  -27.2471  -24.7554   20.5436 H   0  0  0  0  0  0
  -28.9851  -15.5803   21.1084 H   0  0  0  0  0  0
  1 25  1  0  0  0
  1 30  2  0  0  0
  1 82  1  0  0  0
  2  3  1  0  0  0
  2 25  1  0  0  0
  2 83  1  0  0  0
  2 84  1  0  0  0
  3  4  1  0  0  0
  3 85  1  0  0  0
  3 86  1  0  0  0
  4  5  1  0  0  0
  4 87  1  0  0  0
  4 88  1  0  0  0
  5  6  1  0  0  0
  5 26  1  0  0  0
  5 89  1  0  0  0
  6 25  1  0  0  0
  6 90  1  0  0  0
  6 91  1  0  0  0
  7  8  2  0  0  0
  7 26  1  0  0  0
  7 29  1  0  0  0
  8  9  1  0  0  0
  8 22  1  0  0  0
  9 10  1  0  0  0
  9 27  2  0  0  0
 10 11  2  0  0  0
 10 15  1  0  0  0
 11 12  1  0  0  0
 11 92  1  0  0  0
 12 13  2  0  0  0
 12 93  1  0  0  0
 13 14  1  0  0  0
 13 31  1  0  0  0
 14 15  2  0  0  0
 14 94  1  0  0  0
 15 95  1  0  0  0
 16 17  2  0  0  0
 16 21  1  0  0  0
 16 31  1  0  0  0
 17 18  1  0  0  0
 17 96  1  0  0  0
 18 19  2  0  0  0
 18 97  1  0  0  0
 19 20  1  0  0  0
 19 24  1  0  0  0
 20 21  2  0  0  0
 20 98  1  0  0  0
 21 23  1  0  0  0
 22 28  1  0  0  0
 22 32  2  0  0  0
 26 27  1  0  0  0
 28 99  1  0  0  0
 28100  1  0  0  0
 29101  1  0  0  0
 29102  1  0  0  0
 33 34  1  0  0  0
 33 66  1  0  0  0
 33 70  2  0  0  0
 34 36  1  0  0  0
 34 59  1  0  0  0
 34103  1  0  0  0
 35 44  2  0  0  0
 35 45  1  0  0  0
 35 68  1  0  0  0
 36 56  1  0  0  0
 36104  1  0  0  0
 37 39  1  0  0  0
 37 47  1  0  0  0
 37 66  1  0  0  0
 37105  1  0  0  0
 38 43  2  0  0  0
 38 46  1  0  0  0
 38 47  1  0  0  0
 39 64  1  0  0  0
 39 67  2  0  0  0
 40 52  1  0  0  0
 40 53  2  0  0  0
 40 58  1  0  0  0
 41106  1  0  0  0
 41107  1  0  0  0
 41108  1  0  0  0
 41 48  1  0  0  0
 42 43  1  0  0  0
 42 66  1  0  0  0
 42109  1  0  0  0
 42110  1  0  0  0
 43 44  1  0  0  0
 44111  1  0  0  0
 45 46  2  0  0  0
 45112  1  0  0  0
 46113  1  0  0  0
 47114  1  0  0  0
 47115  1  0  0  0
 48 56  1  0  0  0
 48 65  1  0  0  0
 48116  1  0  0  0
 49 50  1  0  0  0
 49 53  1  0  0  0
 49 64  1  0  0  0
 49117  1  0  0  0
 50 51  1  0  0  0
 50118  1  0  0  0
 50119  1  0  0  0
 51 52  1  0  0  0
 51120  1  0  0  0
 51121  1  0  0  0
 52122  1  0  0  0
 52123  1  0  0  0
 53 54  1  0  0  0
 54 55  2  0  0  0
 54124  1  0  0  0
 55 57  1  0  0  0
 55125  1  0  0  0
 56 69  2  0  0  0
 57 58  2  0  0  0
 57126  1  0  0  0
 58127  1  0  0  0
 59 60  1  0  0  0
 59 61  1  0  0  0
 59 62  1  0  0  0
 60128  1  0  0  0
 60129  1  0  0  0
 60130  1  0  0  0
 61131  1  0  0  0
 61132  1  0  0  0
 61133  1  0  0  0
 62134  1  0  0  0
 62135  1  0  0  0
 62136  1  0  0  0
 63 65  1  0  0  0
 63137  1  0  0  0
 63138  1  0  0  0
 63139  1  0  0  0
 64140  1  0  0  0
 65141  1  0  0  0
 68 77  1  0  0  0
 71 72  2  0  0  0
 71 80  1  0  0  0
 71142  1  0  0  0
 72 78  1  0  0  0
 72 81  1  0  0  0
 73 75  1  0  0  0
 73 81  1  0  0  0
 73143  1  0  0  0
 73144  1  0  0  0
 74 75  1  0  0  0
 74 81  1  0  0  0
 74145  1  0  0  0
 74146  1  0  0  0
 75 82  1  0  0  0
 75147  1  0  0  0
 76 77  1  0  0  0
 76 80  1  0  0  0
 76148  1  0  0  0
 76149  1  0  0  0
 77150  1  0  0  0
 77151  1  0  0  0
 78 79  2  0  0  0
 79 80  1  0  0  0
 82152  1  0  0  0
M  ISO  4   1 100  68 101  77 101  82 100
M  END
> <chiral flag>
0

> <version>
0

> <s_m_source_file>
/data/baiqing/PycharmProjects/Reinvent-master-3.2/result/LINK_invent/BTK/process_docking_weight1_custom_sum_contain_oxygen_bond_distance_aromatic_linkinvent_7_9_3/rearranged_h_0199.sdf

> <i_m_source_file_index>
89

> <r_mmod_Potential_Energy-OPLS-2005>
-72.351936340332

> <r_mmod_Stretch_Energy-OPLS-2005>
62.0920372009277

> <r_mmod_Bend_Energy-OPLS-2005>
168.710571289062

> <r_mmod_Torsional_Energy-OPLS-2005>
241.539245605469

> <r_mmod_Improper_Torsional_Energy-OPLS-2005>
12.9635229110718

> <r_mmod_Van_der_Waal_Energy-OPLS-2005>
128.239074707031

> <r_mmod_Electrostatic_Energy-OPLS-2005>
-473.578521728516

> <r_mmod_Solvation_Energy-OPLS-2005>
-252.962966918945

> <b_mmod_Minimization_Converged-OPLS-2005>
0

> <r_mmod_RMS_Derivative-OPLS-2005>
0.58521831035614

$$$$
89
                    3D
 Structure written by MMmdl.
163172  0  0  1  0            999 V2000
  -30.6927  -14.4761   20.6306 C   0  0  0  0  0  0
  -30.4193  -12.3385   19.4067 C   0  0  0  0  0  0
  -29.4963  -12.5439   18.1862 C   0  0  0  0  0  0
  -28.0103  -12.3833   18.5787 C   0  0  0  0  0  0
  -27.6536  -13.1901   19.8530 C   0  0  2  0  0  0
  -28.6956  -12.9414   20.9737 C   0  0  0  0  0  0
  -25.2541  -13.8106   20.5535 C   0  0  0  0  0  0
  -24.1796  -13.0427   20.9124 C   0  0  0  0  0  0
  -24.6328  -11.6879   20.8674 C   0  0  0  0  0  0
  -23.8970  -10.4291   21.0367 C   0  0  0  0  0  0
  -24.3569   -9.4214   21.9152 C   0  0  0  0  0  0
  -23.6292   -8.2230   22.0733 C   0  0  0  0  0  0
  -22.4246   -8.0256   21.3521 C   0  0  0  0  0  0
  -21.9852   -9.0203   20.4632 C   0  0  0  0  0  0
  -22.7165  -10.2105   20.3032 C   0  0  0  0  0  0
  -21.6843   -6.0728   22.5285 C   0  0  0  0  0  0
  -21.4005   -6.5643   23.8226 C   0  0  0  0  0  0
  -21.3645   -5.6794   24.9173 C   0  0  0  0  0  0
  -21.6058   -4.3061   24.7208 C   0  0  0  0  0  0
  -21.8838   -3.8132   23.4338 C   0  0  0  0  0  0
  -21.9193   -4.6954   22.3391 C   0  0  0  0  0  0
  -22.7854  -13.5301   21.1844 C   0  0  0  0  0  0
  -22.1674   -4.2155   21.0963 F   0  0  0  0  0  0
  -21.5622   -3.4548   25.7724 F   0  0  0  0  0  0
  -30.0187  -13.3016   20.4466 N   0  0  0  0  0  0
  -26.2942  -12.9250   20.3136 N   0  0  0  0  0  0
  -25.9237  -11.6432   20.5596 N   0  0  0  0  0  0
  -22.0471  -12.8303   22.0396 N   0  0  0  0  0  0
  -25.4252  -15.1827   20.3946 N   0  0  0  0  0  0
  -31.8056  -14.6625   20.1239 O   0  0  0  0  0  0
  -21.6624   -6.8857   21.4243 O   0  0  0  0  0  0
  -22.3570  -14.5632   20.6732 O   0  0  0  0  0  0
  -24.6134  -31.8713   23.2107 C   0  0  0  0  0  0
  -25.9020  -32.4852   23.8416 C   0  0  1  0  0  0
  -27.2350  -27.4469   20.1291 C   0  0  0  0  0  0
  -25.5894  -33.8651   24.2358 N   0  0  0  0  0  0
  -23.4015  -30.4952   21.5499 C   0  0  2  0  0  0
  -24.8498  -28.9600   20.1141 C   0  0  0  0  0  0
  -22.7414  -29.4686   22.4985 C   0  0  0  0  0  0
  -18.0271  -28.1388   22.8491 C   0  0  0  0  0  0
  -24.1495  -36.7345   23.2631 C   0  0  0  0  0  0
  -25.9258  -30.8449   21.3551 C   0  0  0  0  0  0
  -26.0058  -29.4761   20.7126 C   0  0  0  0  0  0
  -27.2034  -28.7282   20.7151 C   0  0  0  0  0  0
  -26.0703  -26.9439   19.5078 C   0  0  0  0  0  0
  -24.8783  -27.6929   19.5031 C   0  0  0  0  0  0
  -23.6113  -29.8265   20.1629 C   0  0  0  0  0  0
  -25.4108  -36.3142   24.0343 C   0  0  1  0  0  0
  -20.5870  -28.3684   23.1329 C   0  0  2  0  0  0
  -20.6777  -26.9424   22.5424 C   0  0  0  0  0  0
  -19.5760  -26.6401   21.5214 C   0  0  0  0  0  0
  -18.1933  -26.7938   22.1617 C   0  0  0  0  0  0
  -19.1522  -28.8843   23.2912 C   0  0  0  0  0  0
  -18.9450  -30.1446   23.8934 C   0  0  0  0  0  0
  -17.6450  -30.6597   24.0582 C   0  0  0  0  0  0
  -25.9025  -34.9497   23.5141 C   0  0  0  0  0  0
  -16.5338  -29.9109   23.6306 C   0  0  0  0  0  0
  -16.7265  -28.6523   23.0326 C   0  0  0  0  0  0
  -26.4459  -31.6603   25.0715 C   0  0  0  0  0  0
  -25.3738  -31.3724   26.1481 C   0  0  0  0  0  0
  -27.0234  -30.3046   24.6013 C   0  0  0  0  0  0
  -27.6082  -32.4280   25.7448 C   0  0  0  0  0  0
  -27.5605  -37.1826   24.8456 C   0  0  0  0  0  0
  -21.4139  -29.3049   22.3724 N   0  0  0  0  0  0
  -26.4305  -37.3818   23.9412 N   0  0  0  0  0  0
  -24.6655  -31.0845   22.0983 N   0  0  0  0  0  0
  -23.4196  -28.8215   23.3008 O   0  0  0  0  0  0
  -28.3840  -26.6934   20.1904 O   0  0  0  0  0  0
  -26.5593  -34.8942   22.4705 O   0  0  0  0  0  0
  -23.5337  -32.1425   23.7525 O   0  0  0  0  0  0
  -31.4412  -19.8958   19.5959 C   0  0  0  0  0  0
  -31.0383  -18.7512   20.3730 C   0  0  0  0  0  0
  -31.3577  -21.1068   20.1635 C   0  0  0  0  0  0
  -30.6099  -18.8770   21.6530 C   0  0  0  0  0  0
  -30.5699  -20.2181   22.2869 C   0  0  0  0  0  0
  -28.7179  -17.2653   22.1109 C   0  0  0  0  0  0
  -28.8639  -16.1049   21.1319 C   0  0  0  0  0  0
  -30.9468  -16.3522   22.2422 C   0  0  0  0  0  0
  -30.1428  -17.6575   22.4642 C   0  0  1  0  0  0
  -29.4567  -23.3157   21.6724 C   0  0  0  0  0  0
  -29.5721  -24.7740   21.1730 C   0  0  0  0  0  0
  -30.8358  -22.6708   21.9623 C   0  0  0  0  0  0
  -28.2155  -25.4534   20.8939 C   0  0  0  0  0  0
  -30.9148  -21.2773   21.4867 N   0  0  0  0  0  0
  -30.1293  -15.4197   21.4423 N   0  0  0  0  0  0
  -30.2290  -20.3923   23.4631 O   0  0  0  0  0  0
  -31.4671  -12.4450   19.1193 H   0  0  0  0  0  0
  -30.3180  -11.3165   19.7777 H   0  0  0  0  0  0
  -29.7642  -11.8395   17.3979 H   0  0  0  0  0  0
  -29.6542  -13.5359   17.7607 H   0  0  0  0  0  0
  -27.8045  -11.3244   18.7304 H   0  0  0  0  0  0
  -27.3747  -12.6988   17.7485 H   0  0  0  0  0  0
  -27.6914  -14.2333   19.5402 H   0  0  0  0  0  0
  -28.7006  -11.8847   21.2500 H   0  0  0  0  0  0
  -28.4454  -13.4642   21.8959 H   0  0  0  0  0  0
  -25.2727   -9.5763   22.4672 H   0  0  0  0  0  0
  -24.0053   -7.4654   22.7452 H   0  0  0  0  0  0
  -21.0778   -8.8715   19.8951 H   0  0  0  0  0  0
  -22.3611  -10.9617   19.6114 H   0  0  0  0  0  0
  -21.1985   -7.6156   23.9735 H   0  0  0  0  0  0
  -21.1460   -6.0495   25.9095 H   0  0  0  0  0  0
  -22.0615   -2.7594   23.2808 H   0  0  0  0  0  0
  -22.4171  -11.9999   22.4820 H   0  0  0  0  0  0
  -21.1073  -13.1304   22.2580 H   0  0  0  0  0  0
  -24.6716  -15.8429   20.5465 H   0  0  0  0  0  0
  -26.2851  -15.6185   20.0910 H   0  0  0  0  0  0
  -26.7080  -32.5573   23.1186 H   0  0  0  0  0  0
  -25.0085  -33.9823   25.0528 H   0  0  0  0  0  0
  -22.6902  -31.3127   21.4126 H   0  0  0  0  0  0
  -23.3765  -35.9672   23.3283 H   0  0  0  0  0  0
  -24.3598  -36.8962   22.2050 H   0  0  0  0  0  0
  -23.7225  -37.6542   23.6632 H   0  0  0  0  0  0
  -26.0192  -31.6003   20.5738 H   0  0  0  0  0  0
  -26.8224  -30.9175   21.9585 H   0  0  0  0  0  0
  -28.0911  -29.1177   21.1956 H   0  0  0  0  0  0
  -26.0809  -25.9733   19.0334 H   0  0  0  0  0  0
  -23.9910  -27.2915   19.0330 H   0  0  0  0  0  0
  -23.7257  -30.6021   19.4051 H   0  0  0  0  0  0
  -22.7335  -29.2505   19.8630 H   0  0  0  0  0  0
  -25.1273  -36.2040   25.0839 H   0  0  0  0  0  0
  -20.9981  -28.3239   24.1446 H   0  0  0  0  0  0
  -20.5700  -26.2281   23.3598 H   0  0  0  0  0  0
  -21.6646  -26.7499   22.1202 H   0  0  0  0  0  0
  -19.6940  -25.6320   21.1219 H   0  0  0  0  0  0
  -19.6706  -27.3221   20.6754 H   0  0  0  0  0  0
  -17.4220  -26.6697   21.4005 H   0  0  0  0  0  0
  -18.0337  -26.0068   22.9010 H   0  0  0  0  0  0
  -19.7925  -30.7239   24.2329 H   0  0  0  0  0  0
  -17.5014  -31.6268   24.5194 H   0  0  0  0  0  0
  -15.5345  -30.3027   23.7610 H   0  0  0  0  0  0
  -15.8665  -28.0863   22.7008 H   0  0  0  0  0  0
  -24.5849  -30.7145   25.7821 H   0  0  0  0  0  0
  -24.8998  -32.2891   26.5008 H   0  0  0  0  0  0
  -25.8085  -30.8813   27.0196 H   0  0  0  0  0  0
  -26.2718  -29.6854   24.1092 H   0  0  0  0  0  0
  -27.4057  -29.7248   25.4432 H   0  0  0  0  0  0
  -27.8557  -30.4398   23.9093 H   0  0  0  0  0  0
  -27.2764  -33.3609   26.2032 H   0  0  0  0  0  0
  -28.3878  -32.6777   25.0229 H   0  0  0  0  0  0
  -28.0741  -31.8361   26.5337 H   0  0  0  0  0  0
  -28.2617  -38.0135   24.7520 H   0  0  0  0  0  0
  -28.1101  -36.2666   24.6240 H   0  0  0  0  0  0
  -27.2332  -37.1444   25.8862 H   0  0  0  0  0  0
  -20.9285  -29.8777   21.6959 H   0  0  0  0  0  0
  -26.0217  -38.2912   24.1386 H   0  0  0  0  0  0
  -31.7850  -19.7803   18.5762 H   0  0  0  0  0  0
  -31.0480  -17.7806   19.9010 H   0  0  0  0  0  0
  -31.6272  -22.0181   19.6446 H   0  0  0  0  0  0
  -28.2200  -16.9152   23.0187 H   0  0  0  0  0  0
  -28.1148  -18.0831   21.7067 H   0  0  0  0  0  0
  -28.8889  -16.4740   20.1029 H   0  0  0  0  0  0
  -27.9898  -15.4773   21.2464 H   0  0  0  0  0  0
  -31.1128  -15.8694   23.2066 H   0  0  0  0  0  0
  -31.9358  -16.5399   21.8185 H   0  0  0  0  0  0
  -30.1936  -17.9067   23.5264 H   0  0  0  0  0  0
  -28.9125  -22.7345   20.9228 H   0  0  0  0  0  0
  -28.8505  -23.2717   22.5818 H   0  0  0  0  0  0
  -30.1568  -24.7722   20.2519 H   0  0  0  0  0  0
  -30.1349  -25.3695   21.8936 H   0  0  0  0  0  0
  -31.0709  -22.7410   23.0256 H   0  0  0  0  0  0
  -31.6245  -23.2450   21.4812 H   0  0  0  0  0  0
  -27.7099  -25.6320   21.8458 H   0  0  0  0  0  0
  -27.5785  -24.7827   20.3178 H   0  0  0  0  0  0
  1 25  1  0  0  0
  1 30  2  0  0  0
  1 85  1  0  0  0
  2  3  1  0  0  0
  2 25  1  0  0  0
  2 87  1  0  0  0
  2 88  1  0  0  0
  3  4  1  0  0  0
  3 89  1  0  0  0
  3 90  1  0  0  0
  4  5  1  0  0  0
  4 91  1  0  0  0
  4 92  1  0  0  0
  5  6  1  0  0  0
  5 26  1  0  0  0
  5 93  1  0  0  0
  6 25  1  0  0  0
  6 94  1  0  0  0
  6 95  1  0  0  0
  7  8  2  0  0  0
  7 26  1  0  0  0
  7 29  1  0  0  0
  8  9  1  0  0  0
  8 22  1  0  0  0
  9 10  1  0  0  0
  9 27  2  0  0  0
 10 11  2  0  0  0
 10 15  1  0  0  0
 11 12  1  0  0  0
 11 96  1  0  0  0
 12 13  2  0  0  0
 12 97  1  0  0  0
 13 14  1  0  0  0
 13 31  1  0  0  0
 14 15  2  0  0  0
 14 98  1  0  0  0
 15 99  1  0  0  0
 16 17  2  0  0  0
 16 21  1  0  0  0
 16 31  1  0  0  0
 17 18  1  0  0  0
 17100  1  0  0  0
 18 19  2  0  0  0
 18101  1  0  0  0
 19 20  1  0  0  0
 19 24  1  0  0  0
 20 21  2  0  0  0
 20102  1  0  0  0
 21 23  1  0  0  0
 22 28  1  0  0  0
 22 32  2  0  0  0
 26 27  1  0  0  0
 28103  1  0  0  0
 28104  1  0  0  0
 29105  1  0  0  0
 29106  1  0  0  0
 33 34  1  0  0  0
 33 66  1  0  0  0
 33 70  2  0  0  0
 34 36  1  0  0  0
 34 59  1  0  0  0
 34107  1  0  0  0
 35 44  2  0  0  0
 35 45  1  0  0  0
 35 68  1  0  0  0
 36 56  1  0  0  0
 36108  1  0  0  0
 37 39  1  0  0  0
 37 47  1  0  0  0
 37 66  1  0  0  0
 37109  1  0  0  0
 38 43  2  0  0  0
 38 46  1  0  0  0
 38 47  1  0  0  0
 39 64  1  0  0  0
 39 67  2  0  0  0
 40 52  1  0  0  0
 40 53  2  0  0  0
 40 58  1  0  0  0
 41110  1  0  0  0
 41111  1  0  0  0
 41112  1  0  0  0
 41 48  1  0  0  0
 42 43  1  0  0  0
 42 66  1  0  0  0
 42113  1  0  0  0
 42114  1  0  0  0
 43 44  1  0  0  0
 44115  1  0  0  0
 45 46  2  0  0  0
 45116  1  0  0  0
 46117  1  0  0  0
 47118  1  0  0  0
 47119  1  0  0  0
 48 56  1  0  0  0
 48 65  1  0  0  0
 48120  1  0  0  0
 49 50  1  0  0  0
 49 53  1  0  0  0
 49 64  1  0  0  0
 49121  1  0  0  0
 50 51  1  0  0  0
 50122  1  0  0  0
 50123  1  0  0  0
 51 52  1  0  0  0
 51124  1  0  0  0
 51125  1  0  0  0
 52126  1  0  0  0
 52127  1  0  0  0
 53 54  1  0  0  0
 54 55  2  0  0  0
 54128  1  0  0  0
 55 57  1  0  0  0
 55129  1  0  0  0
 56 69  2  0  0  0
 57 58  2  0  0  0
 57130  1  0  0  0
 58131  1  0  0  0
 59 60  1  0  0  0
 59 61  1  0  0  0
 59 62  1  0  0  0
 60132  1  0  0  0
 60133  1  0  0  0
 60134  1  0  0  0
 61135  1  0  0  0
 61136  1  0  0  0
 61137  1  0  0  0
 62138  1  0  0  0
 62139  1  0  0  0
 62140  1  0  0  0
 63 65  1  0  0  0
 63141  1  0  0  0
 63142  1  0  0  0
 63143  1  0  0  0
 64144  1  0  0  0
 65145  1  0  0  0
 68 83  1  0  0  0
 71 72  1  0  0  0
 71 73  2  0  0  0
 71146  1  0  0  0
 72 74  2  0  0  0
 72147  1  0  0  0
 73 84  1  0  0  0
 73148  1  0  0  0
 74 75  1  0  0  0
 74 79  1  0  0  0
 75 84  1  0  0  0
 75 86  2  0  0  0
 76 77  1  0  0  0
 76 79  1  0  0  0
 76149  1  0  0  0
 76150  1  0  0  0
 77 85  1  0  0  0
 77151  1  0  0  0
 77152  1  0  0  0
 78 79  1  0  0  0
 78 85  1  0  0  0
 78153  1  0  0  0
 78154  1  0  0  0
 79155  1  0  0  0
 80 81  1  0  0  0
 80 82  1  0  0  0
 80156  1  0  0  0
 80157  1  0  0  0
 81 83  1  0  0  0
 81158  1  0  0  0
 81159  1  0  0  0
 82 84  1  0  0  0
 82160  1  0  0  0
 82161  1  0  0  0
 83162  1  0  0  0
 83163  1  0  0  0
M  ISO  4   1 100  68 101  83 101  85 100
M  END
> <chiral flag>
0

> <version>
0

> <s_m_source_file>
/data/baiqing/PycharmProjects/Reinvent-master-3.2/result/LINK_invent/BTK/process_docking_weight1_custom_sum_contain_oxygen_bond_distance_aromatic_linkinvent_7_9_3/rearranged_h_0199.sdf

> <i_m_source_file_index>
90

> <r_mmod_Potential_Energy-OPLS-2005>
280.190032958984

> <r_mmod_Stretch_Energy-OPLS-2005>
45.4765472412109

> <r_mmod_Bend_Energy-OPLS-2005>
121.44019317627

> <r_mmod_Torsional_Energy-OPLS-2005>
353.827392578125

> <r_mmod_Improper_Torsional_Energy-OPLS-2005>
4.52607202529907

> <r_mmod_Van_der_Waal_Energy-OPLS-2005>
163.345108032227

> <r_mmod_Electrostatic_Energy-OPLS-2005>
-221.969680786133

> <r_mmod_Solvation_Energy-OPLS-2005>
-201.172912597656

> <b_mmod_Minimization_Converged-OPLS-2005>
0

> <r_mmod_RMS_Derivative-OPLS-2005>
5.10248947143555

$$$$
90
                    3D
 Structure written by MMmdl.
159168  0  0  1  0            999 V2000
  -30.6614  -14.6115   20.5719 C   0  0  0  0  0  0
  -30.4366  -12.3998   19.4483 C   0  0  0  0  0  0
  -29.5042  -12.5198   18.2212 C   0  0  0  0  0  0
  -28.0231  -12.3677   18.6236 C   0  0  0  0  0  0
  -27.6547  -13.2189   19.8666 C   0  0  2  0  0  0
  -28.6984  -13.0235   20.9839 C   0  0  0  0  0  0
  -25.2567  -13.8193   20.5691 C   0  0  0  0  0  0
  -24.1828  -13.0450   20.9169 C   0  0  0  0  0  0
  -24.6402  -11.6919   20.8723 C   0  0  0  0  0  0
  -23.9080  -10.4300   21.0394 C   0  0  0  0  0  0
  -24.3633   -9.4218   21.9171 C   0  0  0  0  0  0
  -23.6302   -8.2257   22.0752 C   0  0  0  0  0  0
  -22.4283   -8.0294   21.3547 C   0  0  0  0  0  0
  -21.9919   -9.0271   20.4657 C   0  0  0  0  0  0
  -22.7251  -10.2145   20.3052 C   0  0  0  0  0  0
  -21.6863   -6.0742   22.5284 C   0  0  0  0  0  0
  -21.4034   -6.5638   23.8225 C   0  0  0  0  0  0
  -21.3654   -5.6777   24.9178 C   0  0  0  0  0  0
  -21.6039   -4.3043   24.7213 C   0  0  0  0  0  0
  -21.8827   -3.8146   23.4334 C   0  0  0  0  0  0
  -21.9203   -4.6969   22.3398 C   0  0  0  0  0  0
  -22.7846  -13.5238   21.1822 C   0  0  0  0  0  0
  -22.1665   -4.2159   21.0970 F   0  0  0  0  0  0
  -21.5614   -3.4521   25.7721 F   0  0  0  0  0  0
  -30.0091  -13.4089   20.4423 N   0  0  0  0  0  0
  -26.2997  -12.9380   20.3341 N   0  0  0  0  0  0
  -25.9337  -11.6525   20.5744 N   0  0  0  0  0  0
  -22.0501  -12.8255   22.0405 N   0  0  0  0  0  0
  -25.4273  -15.1919   20.4137 N   0  0  0  0  0  0
  -31.8010  -14.7497   20.1130 O   0  0  0  0  0  0
  -21.6643   -6.8892   21.4251 O   0  0  0  0  0  0
  -22.3531  -14.5533   20.6647 O   0  0  0  0  0  0
  -24.6236  -31.8627   23.2041 C   0  0  0  0  0  0
  -25.9087  -32.4801   23.8369 C   0  0  1  0  0  0
  -27.2172  -27.3453   20.1234 C   0  0  0  0  0  0
  -25.5917  -33.8602   24.2304 N   0  0  0  0  0  0
  -23.4166  -30.4844   21.5447 C   0  0  2  0  0  0
  -24.8617  -28.9390   20.1159 C   0  0  0  0  0  0
  -22.7466  -29.4625   22.4931 C   0  0  0  0  0  0
  -18.0278  -28.1400   22.8476 C   0  0  0  0  0  0
  -24.1490  -36.7301   23.2631 C   0  0  0  0  0  0
  -25.9533  -30.8010   21.3715 C   0  0  0  0  0  0
  -26.0269  -29.4266   20.7224 C   0  0  0  0  0  0
  -27.2111  -28.6389   20.7201 C   0  0  0  0  0  0
  -26.0382  -26.9006   19.4944 C   0  0  0  0  0  0
  -24.8665  -27.6792   19.4939 C   0  0  0  0  0  0
  -23.6321  -29.8197   20.1594 C   0  0  0  0  0  0
  -25.4110  -36.3102   24.0335 C   0  0  1  0  0  0
  -20.5880  -28.3695   23.1290 C   0  0  2  0  0  0
  -20.6779  -26.9422   22.5410 C   0  0  0  0  0  0
  -19.5754  -26.6394   21.5212 C   0  0  0  0  0  0
  -18.1927  -26.7939   22.1619 C   0  0  0  0  0  0
  -19.1532  -28.8861   23.2879 C   0  0  0  0  0  0
  -18.9456  -30.1462   23.8899 C   0  0  0  0  0  0
  -17.6461  -30.6597   24.0565 C   0  0  0  0  0  0
  -25.9045  -34.9473   23.5114 C   0  0  0  0  0  0
  -16.5349  -29.9105   23.6328 C   0  0  0  0  0  0
  -16.7270  -28.6526   23.0337 C   0  0  0  0  0  0
  -26.4487  -31.6597   25.0723 C   0  0  0  0  0  0
  -25.3732  -31.3713   26.1451 C   0  0  0  0  0  0
  -27.0317  -30.3034   24.6135 C   0  0  0  0  0  0
  -27.6070  -32.4303   25.7484 C   0  0  0  0  0  0
  -27.5582  -37.1801   24.8457 C   0  0  0  0  0  0
  -21.4178  -29.3053   22.3693 N   0  0  0  0  0  0
  -26.4285  -37.3800   23.9417 N   0  0  0  0  0  0
  -24.6826  -31.0662   22.0976 N   0  0  0  0  0  0
  -23.4206  -28.8168   23.3004 O   0  0  0  0  0  0
  -28.3393  -26.5241   20.0921 O   0  0  0  0  0  0
  -26.5595  -34.8938   22.4678 O   0  0  0  0  0  0
  -23.5402  -32.1405   23.7387 O   0  0  0  0  0  0
  -29.3742  -20.4278   18.9120 C   0  0  0  0  0  0
  -28.6913  -22.6332   18.6385 C   0  0  0  0  0  0
  -28.4413  -22.7573   20.0314 C   0  0  0  0  0  0
  -29.1679  -20.5151   20.3082 C   0  0  0  0  0  0
  -28.8104  -17.4236   22.2545 C   0  0  0  0  0  0
  -29.4918  -16.0403   22.2721 C   0  0  0  0  0  0
  -30.1380  -17.0807   20.2917 C   0  0  0  0  0  0
  -29.1137  -18.0892   20.9081 C   0  0  2  0  0  0
  -28.4033  -23.7630   17.6645 C   0  0  0  0  0  0
  -27.6534  -23.9816   20.6003 C   0  0  0  0  0  0
  -28.3534  -25.3540   20.9773 C   0  0  0  0  0  0
  -29.1595  -21.4845   18.0874 N   0  0  0  0  0  0
  -28.7152  -21.6918   20.8641 N   0  0  0  0  0  0
  -29.9228  -15.7313   20.9033 N   0  0  0  0  0  0
  -29.4860  -19.4760   21.1870 O   0  0  0  0  0  0
  -31.4762  -12.5280   19.1417 H   0  0  0  0  0  0
  -30.3864  -11.3989   19.8787 H   0  0  0  0  0  0
  -29.7647  -11.7702   17.4740 H   0  0  0  0  0  0
  -29.6545  -13.4893   17.7428 H   0  0  0  0  0  0
  -27.8394  -11.3137   18.8350 H   0  0  0  0  0  0
  -27.3766  -12.6258   17.7835 H   0  0  0  0  0  0
  -27.6879  -14.2636   19.5563 H   0  0  0  0  0  0
  -28.7231  -11.9808   21.3036 H   0  0  0  0  0  0
  -28.4099  -13.5691   21.8708 H   0  0  0  0  0  0
  -25.2793   -9.5686   22.4723 H   0  0  0  0  0  0
  -24.0015   -7.4653   22.7482 H   0  0  0  0  0  0
  -21.0840   -8.8801   19.8972 H   0  0  0  0  0  0
  -22.3725  -10.9675   19.6142 H   0  0  0  0  0  0
  -21.2047   -7.6146   23.9741 H   0  0  0  0  0  0
  -21.1459   -6.0494   25.9081 H   0  0  0  0  0  0
  -22.0614   -2.7609   23.2822 H   0  0  0  0  0  0
  -22.4107  -11.9904   22.4775 H   0  0  0  0  0  0
  -21.1137  -13.1321   22.2636 H   0  0  0  0  0  0
  -24.6627  -15.8479   20.5351 H   0  0  0  0  0  0
  -26.2842  -15.6348   20.1068 H   0  0  0  0  0  0
  -26.7157  -32.5493   23.1125 H   0  0  0  0  0  0
  -25.0131  -33.9762   25.0490 H   0  0  0  0  0  0
  -22.7080  -31.3026   21.4014 H   0  0  0  0  0  0
  -23.3767  -35.9615   23.3285 H   0  0  0  0  0  0
  -24.3595  -36.8922   22.2045 H   0  0  0  0  0  0
  -23.7220  -37.6497   23.6650 H   0  0  0  0  0  0
  -26.0766  -31.5611   20.5991 H   0  0  0  0  0  0
  -26.8380  -30.8578   21.9945 H   0  0  0  0  0  0
  -28.1099  -29.0088   21.1934 H   0  0  0  0  0  0
  -26.0195  -25.9465   18.9905 H   0  0  0  0  0  0
  -23.9762  -27.3050   19.0074 H   0  0  0  0  0  0
  -23.7618  -30.5958   19.4046 H   0  0  0  0  0  0
  -22.7527  -29.2514   19.8505 H   0  0  0  0  0  0
  -25.1291  -36.1951   25.0825 H   0  0  0  0  0  0
  -20.9952  -28.3263   24.1422 H   0  0  0  0  0  0
  -20.5686  -26.2299   23.3606 H   0  0  0  0  0  0
  -21.6649  -26.7475   22.1197 H   0  0  0  0  0  0
  -19.6919  -25.6304   21.1245 H   0  0  0  0  0  0
  -19.6701  -27.3201   20.6741 H   0  0  0  0  0  0
  -17.4200  -26.6664   21.4022 H   0  0  0  0  0  0
  -18.0339  -26.0097   22.9035 H   0  0  0  0  0  0
  -19.7936  -30.7263   24.2271 H   0  0  0  0  0  0
  -17.5028  -31.6274   24.5175 H   0  0  0  0  0  0
  -15.5354  -30.3013   23.7662 H   0  0  0  0  0  0
  -15.8664  -28.0860   22.7045 H   0  0  0  0  0  0
  -24.5917  -30.7052   25.7772 H   0  0  0  0  0  0
  -24.8908  -32.2866   26.4888 H   0  0  0  0  0  0
  -25.8066  -30.8881   27.0215 H   0  0  0  0  0  0
  -26.2872  -29.6795   24.1170 H   0  0  0  0  0  0
  -27.4047  -29.7278   25.4616 H   0  0  0  0  0  0
  -27.8738  -30.4352   23.9336 H   0  0  0  0  0  0
  -27.2711  -33.3594   26.2103 H   0  0  0  0  0  0
  -28.3863  -32.6858   25.0292 H   0  0  0  0  0  0
  -28.0761  -31.8391   26.5359 H   0  0  0  0  0  0
  -28.2583  -38.0120   24.7560 H   0  0  0  0  0  0
  -28.1102  -36.2656   24.6219 H   0  0  0  0  0  0
  -27.2314  -37.1370   25.8864 H   0  0  0  0  0  0
  -20.9344  -29.8796   21.6927 H   0  0  0  0  0  0
  -26.0170  -38.2870   24.1456 H   0  0  0  0  0  0
  -29.7551  -19.5260   18.4564 H   0  0  0  0  0  0
  -29.1793  -18.0208   23.0896 H   0  0  0  0  0  0
  -27.7318  -17.3265   22.3883 H   0  0  0  0  0  0
  -28.8242  -15.3215   22.7317 H   0  0  0  0  0  0
  -30.3785  -16.0714   22.9092 H   0  0  0  0  0  0
  -31.1557  -17.4097   20.5097 H   0  0  0  0  0  0
  -30.0360  -17.0350   19.2071 H   0  0  0  0  0  0
  -28.2030  -18.0743   20.3055 H   0  0  0  0  0  0
  -27.3296  -23.9090   17.5431 H   0  0  0  0  0  0
  -28.8267  -23.5553   16.6810 H   0  0  0  0  0  0
  -28.8392  -24.6973   18.0177 H   0  0  0  0  0  0
  -27.1894  -23.6124   21.5153 H   0  0  0  0  0  0
  -26.8037  -24.1667   19.9480 H   0  0  0  0  0  0
  -29.3834  -25.1574   21.2730 H   0  0  0  0  0  0
  -27.8777  -25.6934   21.8994 H   0  0  0  0  0  0
  1 25  1  0  0  0
  1 30  2  0  0  0
  1 84  1  0  0  0
  2  3  1  0  0  0
  2 25  1  0  0  0
  2 86  1  0  0  0
  2 87  1  0  0  0
  3  4  1  0  0  0
  3 88  1  0  0  0
  3 89  1  0  0  0
  4  5  1  0  0  0
  4 90  1  0  0  0
  4 91  1  0  0  0
  5  6  1  0  0  0
  5 26  1  0  0  0
  5 92  1  0  0  0
  6 25  1  0  0  0
  6 93  1  0  0  0
  6 94  1  0  0  0
  7  8  2  0  0  0
  7 26  1  0  0  0
  7 29  1  0  0  0
  8  9  1  0  0  0
  8 22  1  0  0  0
  9 10  1  0  0  0
  9 27  2  0  0  0
 10 11  2  0  0  0
 10 15  1  0  0  0
 11 12  1  0  0  0
 11 95  1  0  0  0
 12 13  2  0  0  0
 12 96  1  0  0  0
 13 14  1  0  0  0
 13 31  1  0  0  0
 14 15  2  0  0  0
 14 97  1  0  0  0
 15 98  1  0  0  0
 16 17  2  0  0  0
 16 21  1  0  0  0
 16 31  1  0  0  0
 17 18  1  0  0  0
 17 99  1  0  0  0
 18 19  2  0  0  0
 18100  1  0  0  0
 19 20  1  0  0  0
 19 24  1  0  0  0
 20 21  2  0  0  0
 20101  1  0  0  0
 21 23  1  0  0  0
 22 28  1  0  0  0
 22 32  2  0  0  0
 26 27  1  0  0  0
 28102  1  0  0  0
 28103  1  0  0  0
 29104  1  0  0  0
 29105  1  0  0  0
 33 34  1  0  0  0
 33 66  1  0  0  0
 33 70  2  0  0  0
 34 36  1  0  0  0
 34 59  1  0  0  0
 34106  1  0  0  0
 35 44  2  0  0  0
 35 45  1  0  0  0
 35 68  1  0  0  0
 36 56  1  0  0  0
 36107  1  0  0  0
 37 39  1  0  0  0
 37 47  1  0  0  0
 37 66  1  0  0  0
 37108  1  0  0  0
 38 43  2  0  0  0
 38 46  1  0  0  0
 38 47  1  0  0  0
 39 64  1  0  0  0
 39 67  2  0  0  0
 40 52  1  0  0  0
 40 53  2  0  0  0
 40 58  1  0  0  0
 41109  1  0  0  0
 41110  1  0  0  0
 41111  1  0  0  0
 41 48  1  0  0  0
 42 43  1  0  0  0
 42 66  1  0  0  0
 42112  1  0  0  0
 42113  1  0  0  0
 43 44  1  0  0  0
 44114  1  0  0  0
 45 46  2  0  0  0
 45115  1  0  0  0
 46116  1  0  0  0
 47117  1  0  0  0
 47118  1  0  0  0
 48 56  1  0  0  0
 48 65  1  0  0  0
 48119  1  0  0  0
 49 50  1  0  0  0
 49 53  1  0  0  0
 49 64  1  0  0  0
 49120  1  0  0  0
 50 51  1  0  0  0
 50121  1  0  0  0
 50122  1  0  0  0
 51 52  1  0  0  0
 51123  1  0  0  0
 51124  1  0  0  0
 52125  1  0  0  0
 52126  1  0  0  0
 53 54  1  0  0  0
 54 55  2  0  0  0
 54127  1  0  0  0
 55 57  1  0  0  0
 55128  1  0  0  0
 56 69  2  0  0  0
 57 58  2  0  0  0
 57129  1  0  0  0
 58130  1  0  0  0
 59 60  1  0  0  0
 59 61  1  0  0  0
 59 62  1  0  0  0
 60131  1  0  0  0
 60132  1  0  0  0
 60133  1  0  0  0
 61134  1  0  0  0
 61135  1  0  0  0
 61136  1  0  0  0
 62137  1  0  0  0
 62138  1  0  0  0
 62139  1  0  0  0
 63 65  1  0  0  0
 63140  1  0  0  0
 63141  1  0  0  0
 63142  1  0  0  0
 64143  1  0  0  0
 65144  1  0  0  0
 68 81  1  0  0  0
 71 74  2  0  0  0
 71 82  1  0  0  0
 71145  1  0  0  0
 72 73  1  0  0  0
 72 79  1  0  0  0
 72 82  2  0  0  0
 73 80  1  0  0  0
 73 83  2  0  0  0
 74 83  1  0  0  0
 74 85  1  0  0  0
 75 76  1  0  0  0
 75 78  1  0  0  0
 75146  1  0  0  0
 75147  1  0  0  0
 76 84  1  0  0  0
 76148  1  0  0  0
 76149  1  0  0  0
 77 78  1  0  0  0
 77 84  1  0  0  0
 77150  1  0  0  0
 77151  1  0  0  0
 78 85  1  0  0  0
 78152  1  0  0  0
 79153  1  0  0  0
 79154  1  0  0  0
 79155  1  0  0  0
 80 81  1  0  0  0
 80156  1  0  0  0
 80157  1  0  0  0
 81158  1  0  0  0
 81159  1  0  0  0
M  ISO  4   1 100  68 101  81 101  84 100
M  END
> <chiral flag>
0

> <version>
0

> <s_m_source_file>
/data/baiqing/PycharmProjects/Reinvent-master-3.2/result/LINK_invent/BTK/process_docking_weight1_custom_sum_contain_oxygen_bond_distance_aromatic_linkinvent_7_9_3/rearranged_h_0199.sdf

> <i_m_source_file_index>
91

> <r_mmod_Potential_Energy-OPLS-2005>
317.560821533203

> <r_mmod_Stretch_Energy-OPLS-2005>
71.5392684936523

> <r_mmod_Bend_Energy-OPLS-2005>
175.900314331055

> <r_mmod_Torsional_Energy-OPLS-2005>
370.205352783203

> <r_mmod_Improper_Torsional_Energy-OPLS-2005>
12.892557144165

> <r_mmod_Van_der_Waal_Energy-OPLS-2005>
139.058013916016

> <r_mmod_Electrostatic_Energy-OPLS-2005>
-274.112457275391

> <r_mmod_Solvation_Energy-OPLS-2005>
-213.19172668457

> <b_mmod_Minimization_Converged-OPLS-2005>
0

> <r_mmod_RMS_Derivative-OPLS-2005>
2.16214871406555

$$$$
91
                    3D
 Structure written by MMmdl.
165173  0  0  1  0            999 V2000
  -30.6667  -14.3982   20.5905 C   0  0  0  0  0  0
  -30.4287  -12.2620   19.4042 C   0  0  0  0  0  0
  -29.4978  -12.5124   18.1978 C   0  0  0  0  0  0
  -28.0129  -12.3885   18.5995 C   0  0  0  0  0  0
  -27.6719  -13.1815   19.8886 C   0  0  2  0  0  0
  -28.7077  -12.8787   20.9982 C   0  0  0  0  0  0
  -25.2637  -13.8058   20.5592 C   0  0  0  0  0  0
  -24.1897  -13.0394   20.9170 C   0  0  0  0  0  0
  -24.6400  -11.6846   20.8704 C   0  0  0  0  0  0
  -23.9037  -10.4291   21.0450 C   0  0  0  0  0  0
  -24.3588   -9.4212   21.9198 C   0  0  0  0  0  0
  -23.6288   -8.2236   22.0765 C   0  0  0  0  0  0
  -22.4260   -8.0277   21.3565 C   0  0  0  0  0  0
  -21.9897   -9.0253   20.4641 C   0  0  0  0  0  0
  -22.7220  -10.2136   20.3077 C   0  0  0  0  0  0
  -21.6854   -6.0729   22.5289 C   0  0  0  0  0  0
  -21.4020   -6.5641   23.8198 C   0  0  0  0  0  0
  -21.3665   -5.6780   24.9156 C   0  0  0  0  0  0
  -21.6033   -4.3054   24.7210 C   0  0  0  0  0  0
  -21.8829   -3.8156   23.4338 C   0  0  0  0  0  0
  -21.9192   -4.6968   22.3387 C   0  0  0  0  0  0
  -22.7960  -13.5235   21.1846 C   0  0  0  0  0  0
  -22.1663   -4.2156   21.0972 F   0  0  0  0  0  0
  -21.5614   -3.4534   25.7728 F   0  0  0  0  0  0
  -30.0475  -13.1987   20.4708 N   0  0  0  0  0  0
  -26.3072  -12.9185   20.3379 N   0  0  0  0  0  0
  -25.9323  -11.6382   20.5740 N   0  0  0  0  0  0
  -22.0551  -12.8308   22.0396 N   0  0  0  0  0  0
  -25.4350  -15.1764   20.3810 N   0  0  0  0  0  0
  -31.7648  -14.6545   20.0861 O   0  0  0  0  0  0
  -21.6640   -6.8875   21.4252 O   0  0  0  0  0  0
  -22.3677  -14.5533   20.6654 O   0  0  0  0  0  0
  -24.6131  -31.8725   23.2130 C   0  0  0  0  0  0
  -25.9033  -32.4860   23.8409 C   0  0  1  0  0  0
  -27.2309  -27.4655   20.0901 C   0  0  0  0  0  0
  -25.5885  -33.8662   24.2353 N   0  0  0  0  0  0
  -23.3980  -30.4969   21.5520 C   0  0  2  0  0  0
  -24.8409  -28.9677   20.1120 C   0  0  0  0  0  0
  -22.7360  -29.4699   22.4960 C   0  0  0  0  0  0
  -18.0246  -28.1291   22.8554 C   0  0  0  0  0  0
  -24.1487  -36.7329   23.2633 C   0  0  0  0  0  0
  -25.9216  -30.8489   21.3560 C   0  0  0  0  0  0
  -25.9996  -29.4841   20.7080 C   0  0  0  0  0  0
  -27.2006  -28.7439   20.6862 C   0  0  0  0  0  0
  -26.0627  -26.9594   19.4795 C   0  0  0  0  0  0
  -24.8690  -27.7061   19.4916 C   0  0  0  0  0  0
  -23.6016  -29.8371   20.1620 C   0  0  0  0  0  0
  -25.4107  -36.3133   24.0345 C   0  0  1  0  0  0
  -20.5797  -28.3742   23.1250 C   0  0  2  0  0  0
  -20.6783  -26.9447   22.5374 C   0  0  0  0  0  0
  -19.5692  -26.6227   21.5281 C   0  0  0  0  0  0
  -18.1926  -26.7807   22.1770 C   0  0  0  0  0  0
  -19.1457  -28.8829   23.2902 C   0  0  0  0  0  0
  -18.9378  -30.1453   23.8838 C   0  0  0  0  0  0
  -17.6373  -30.6578   24.0453 C   0  0  0  0  0  0
  -25.9033  -34.9517   23.5155 C   0  0  0  0  0  0
  -16.5288  -29.9042   23.6235 C   0  0  0  0  0  0
  -16.7219  -28.6418   23.0372 C   0  0  0  0  0  0
  -26.4468  -31.6628   25.0712 C   0  0  0  0  0  0
  -25.3725  -31.3713   26.1442 C   0  0  0  0  0  0
  -27.0297  -30.3088   24.6056 C   0  0  0  0  0  0
  -27.6067  -32.4332   25.7437 C   0  0  0  0  0  0
  -27.5579  -37.1826   24.8472 C   0  0  0  0  0  0
  -21.4072  -29.3174   22.3740 N   0  0  0  0  0  0
  -26.4289  -37.3805   23.9415 N   0  0  0  0  0  0
  -24.6626  -31.0871   22.0993 N   0  0  0  0  0  0
  -23.4157  -28.8133   23.2906 O   0  0  0  0  0  0
  -28.4176  -26.7536   20.0842 O   0  0  0  0  0  0
  -26.5615  -34.8955   22.4722 O   0  0  0  0  0  0
  -23.5333  -32.1424   23.7566 O   0  0  0  0  0  0
  -28.7189  -20.5364   22.5692 C   0  0  0  0  0  0
  -27.7577  -21.0858   21.5346 C   0  0  1  0  0  0
  -27.6198  -19.6536   22.0108 C   0  0  1  0  0  0
  -25.4915  -22.1013   21.0379 C   0  0  0  0  0  0
  -30.6584  -17.3831   19.8843 C   0  0  0  0  0  0
  -27.6111  -24.1687   20.6127 C   0  0  0  0  0  0
  -28.7767  -17.4853   21.6332 C   0  0  0  0  0  0
  -28.5028  -25.4452   20.7081 C   0  0  0  0  0  0
  -26.7549  -22.1664   21.9195 C   0  0  2  0  0  0
  -29.4927  -16.6290   20.5609 C   0  0  2  0  0  0
  -29.8719  -15.3319   21.1394 N   0  0  0  0  0  0
  -28.0936  -18.6503   21.0324 N   0  3  0  0  0  0
  -27.3912  -23.5097   21.9330 N   0  3  0  0  0  0
  -31.4711  -12.3795   19.1081 H   0  0  0  0  0  0
  -30.3323  -11.2322   19.7564 H   0  0  0  0  0  0
  -29.7286  -11.8105   17.3925 H   0  0  0  0  0  0
  -29.6914  -13.5068   17.7926 H   0  0  0  0  0  0
  -27.7855  -11.3327   18.7436 H   0  0  0  0  0  0
  -27.3804  -12.7236   17.7782 H   0  0  0  0  0  0
  -27.7381  -14.2375   19.6402 H   0  0  0  0  0  0
  -28.6706  -11.8206   21.2646 H   0  0  0  0  0  0
  -28.4741  -13.4060   21.9215 H   0  0  0  0  0  0
  -25.2723   -9.5688   22.4770 H   0  0  0  0  0  0
  -23.9979   -7.4657   22.7510 H   0  0  0  0  0  0
  -21.0819   -8.8776   19.8984 H   0  0  0  0  0  0
  -22.3679  -10.9670   19.6188 H   0  0  0  0  0  0
  -21.2038   -7.6151   23.9693 H   0  0  0  0  0  0
  -21.1459   -6.0526   25.9037 H   0  0  0  0  0  0
  -22.0614   -2.7628   23.2844 H   0  0  0  0  0  0
  -22.4120  -11.9944   22.4830 H   0  0  0  0  0  0
  -21.1151  -13.1376   22.2507 H   0  0  0  0  0  0
  -24.5957  -15.7455   20.3397 H   0  0  0  0  0  0
  -26.1634  -15.5169   19.7675 H   0  0  0  0  0  0
  -26.7091  -32.5587   23.1148 H   0  0  0  0  0  0
  -24.9970  -33.9845   25.0456 H   0  0  0  0  0  0
  -22.6854  -31.3137   21.4179 H   0  0  0  0  0  0
  -23.3734  -35.9666   23.3314 H   0  0  0  0  0  0
  -24.3553  -36.8932   22.2034 H   0  0  0  0  0  0
  -23.7264  -37.6552   23.6636 H   0  0  0  0  0  0
  -26.0189  -31.6070   20.5792 H   0  0  0  0  0  0
  -26.8116  -30.9021   21.9695 H   0  0  0  0  0  0
  -28.0993  -29.1533   21.1256 H   0  0  0  0  0  0
  -26.0693  -26.0141   18.9607 H   0  0  0  0  0  0
  -23.9852  -27.3166   19.0068 H   0  0  0  0  0  0
  -23.7124  -30.6149   19.4033 H   0  0  0  0  0  0
  -22.7190  -29.2675   19.8708 H   0  0  0  0  0  0
  -25.1278  -36.1960   25.0830 H   0  0  0  0  0  0
  -20.9847  -28.3373   24.1385 H   0  0  0  0  0  0
  -20.5809  -26.2358   23.3630 H   0  0  0  0  0  0
  -21.6568  -26.7449   22.1017 H   0  0  0  0  0  0
  -19.6824  -25.5981   21.1666 H   0  0  0  0  0  0
  -19.6511  -27.2810   20.6637 H   0  0  0  0  0  0
  -17.4104  -26.6394   21.4299 H   0  0  0  0  0  0
  -18.0541  -26.0017   22.9269 H   0  0  0  0  0  0
  -19.7907  -30.7282   24.2077 H   0  0  0  0  0  0
  -17.4795  -31.6247   24.5031 H   0  0  0  0  0  0
  -15.5265  -30.2891   23.7463 H   0  0  0  0  0  0
  -15.8557  -28.0822   22.7071 H   0  0  0  0  0  0
  -24.5897  -30.7055   25.7750 H   0  0  0  0  0  0
  -24.8896  -32.2872   26.4892 H   0  0  0  0  0  0
  -25.8061  -30.8861   27.0201 H   0  0  0  0  0  0
  -26.2835  -29.6815   24.1162 H   0  0  0  0  0  0
  -27.4129  -29.7321   25.4489 H   0  0  0  0  0  0
  -27.8624  -30.4412   23.9132 H   0  0  0  0  0  0
  -27.2725  -33.3631   26.2049 H   0  0  0  0  0  0
  -28.3842  -32.6926   25.0229 H   0  0  0  0  0  0
  -28.0770  -31.8439   26.5317 H   0  0  0  0  0  0
  -28.2620  -38.0106   24.7492 H   0  0  0  0  0  0
  -28.1063  -36.2644   24.6316 H   0  0  0  0  0  0
  -27.2306  -37.1484   25.8880 H   0  0  0  0  0  0
  -20.9215  -29.9026   21.7067 H   0  0  0  0  0  0
  -26.0183  -38.2877   24.1404 H   0  0  0  0  0  0
  -28.6100  -20.8647   23.6027 H   0  0  0  0  0  0
  -29.7468  -20.3709   22.2489 H   0  0  0  0  0  0
  -28.1621  -21.2080   20.5319 H   0  0  0  0  0  0
  -26.7932  -19.3376   22.6477 H   0  0  0  0  0  0
  -24.9726  -21.1514   21.1837 H   0  0  0  0  0  0
  -25.7317  -22.1832   19.9761 H   0  0  0  0  0  0
  -24.7920  -22.9005   21.2926 H   0  0  0  0  0  0
  -30.3637  -18.3804   19.5612 H   0  0  0  0  0  0
  -30.9874  -16.8617   18.9842 H   0  0  0  0  0  0
  -31.5183  -17.4882   20.5469 H   0  0  0  0  0  0
  -28.0798  -23.4413   19.9472 H   0  0  0  0  0  0
  -26.6279  -24.3977   20.2050 H   0  0  0  0  0  0
  -29.5077  -17.8318   22.3681 H   0  0  0  0  0  0
  -28.0317  -16.8973   22.1713 H   0  0  0  0  0  0
  -27.8976  -25.8635   21.5131 H   0  0  0  0  0  0
  -28.4384  -25.3743   19.6192 H   0  0  0  0  0  0
  -26.4496  -21.9530   22.9468 H   0  0  0  0  0  0
  -28.7659  -16.3972   19.7815 H   0  0  0  0  0  0
  -29.1234  -14.9050   21.6677 H   0  0  0  0  0  0
  -28.7272  -19.0746   20.3811 H   0  0  0  0  0  0
  -27.2973  -18.3195   20.5042 H   0  0  0  0  0  0
  -26.8148  -24.1147   22.4977 H   0  0  0  0  0  0
  -28.2777  -23.4222   22.4092 H   0  0  0  0  0  0
  1 25  1  0  0  0
  1 30  2  0  0  0
  1 81  1  0  0  0
  2  3  1  0  0  0
  2 25  1  0  0  0
  2 84  1  0  0  0
  2 85  1  0  0  0
  3  4  1  0  0  0
  3 86  1  0  0  0
  3 87  1  0  0  0
  4  5  1  0  0  0
  4 88  1  0  0  0
  4 89  1  0  0  0
  5  6  1  0  0  0
  5 26  1  0  0  0
  5 90  1  0  0  0
  6 25  1  0  0  0
  6 91  1  0  0  0
  6 92  1  0  0  0
  7  8  2  0  0  0
  7 26  1  0  0  0
  7 29  1  0  0  0
  8  9  1  0  0  0
  8 22  1  0  0  0
  9 10  1  0  0  0
  9 27  2  0  0  0
 10 11  2  0  0  0
 10 15  1  0  0  0
 11 12  1  0  0  0
 11 93  1  0  0  0
 12 13  2  0  0  0
 12 94  1  0  0  0
 13 14  1  0  0  0
 13 31  1  0  0  0
 14 15  2  0  0  0
 14 95  1  0  0  0
 15 96  1  0  0  0
 16 17  2  0  0  0
 16 21  1  0  0  0
 16 31  1  0  0  0
 17 18  1  0  0  0
 17 97  1  0  0  0
 18 19  2  0  0  0
 18 98  1  0  0  0
 19 20  1  0  0  0
 19 24  1  0  0  0
 20 21  2  0  0  0
 20 99  1  0  0  0
 21 23  1  0  0  0
 22 28  1  0  0  0
 22 32  2  0  0  0
 26 27  1  0  0  0
 28100  1  0  0  0
 28101  1  0  0  0
 29102  1  0  0  0
 29103  1  0  0  0
 33 34  1  0  0  0
 33 66  1  0  0  0
 33 70  2  0  0  0
 34 36  1  0  0  0
 34 59  1  0  0  0
 34104  1  0  0  0
 35 44  2  0  0  0
 35 45  1  0  0  0
 35 68  1  0  0  0
 36 56  1  0  0  0
 36105  1  0  0  0
 37 39  1  0  0  0
 37 47  1  0  0  0
 37 66  1  0  0  0
 37106  1  0  0  0
 38 43  2  0  0  0
 38 46  1  0  0  0
 38 47  1  0  0  0
 39 64  1  0  0  0
 39 67  2  0  0  0
 40 52  1  0  0  0
 40 53  2  0  0  0
 40 58  1  0  0  0
 41107  1  0  0  0
 41108  1  0  0  0
 41109  1  0  0  0
 41 48  1  0  0  0
 42 43  1  0  0  0
 42 66  1  0  0  0
 42110  1  0  0  0
 42111  1  0  0  0
 43 44  1  0  0  0
 44112  1  0  0  0
 45 46  2  0  0  0
 45113  1  0  0  0
 46114  1  0  0  0
 47115  1  0  0  0
 47116  1  0  0  0
 48 56  1  0  0  0
 48 65  1  0  0  0
 48117  1  0  0  0
 49 50  1  0  0  0
 49 53  1  0  0  0
 49 64  1  0  0  0
 49118  1  0  0  0
 50 51  1  0  0  0
 50119  1  0  0  0
 50120  1  0  0  0
 51 52  1  0  0  0
 51121  1  0  0  0
 51122  1  0  0  0
 52123  1  0  0  0
 52124  1  0  0  0
 53 54  1  0  0  0
 54 55  2  0  0  0
 54125  1  0  0  0
 55 57  1  0  0  0
 55126  1  0  0  0
 56 69  2  0  0  0
 57 58  2  0  0  0
 57127  1  0  0  0
 58128  1  0  0  0
 59 60  1  0  0  0
 59 61  1  0  0  0
 59 62  1  0  0  0
 60129  1  0  0  0
 60130  1  0  0  0
 60131  1  0  0  0
 61132  1  0  0  0
 61133  1  0  0  0
 61134  1  0  0  0
 62135  1  0  0  0
 62136  1  0  0  0
 62137  1  0  0  0
 63 65  1  0  0  0
 63138  1  0  0  0
 63139  1  0  0  0
 63140  1  0  0  0
 64141  1  0  0  0
 65142  1  0  0  0
 68 78  1  0  0  0
 71 73  1  0  0  0
 71143  1  0  0  0
 71144  1  0  0  0
 71 72  1  0  0  0
 72 73  1  0  0  0
 72 79  1  0  0  0
 72145  1  0  0  0
 73 82  1  0  0  0
 73146  1  0  0  0
 74147  1  0  0  0
 74148  1  0  0  0
 74149  1  0  0  0
 74 79  1  0  0  0
 75150  1  0  0  0
 75151  1  0  0  0
 75152  1  0  0  0
 75 80  1  0  0  0
 76 78  1  0  0  0
 76 83  1  0  0  0
 76153  1  0  0  0
 76154  1  0  0  0
 77 80  1  0  0  0
 77 82  1  0  0  0
 77155  1  0  0  0
 77156  1  0  0  0
 78157  1  0  0  0
 78158  1  0  0  0
 79 83  1  0  0  0
 79159  1  0  0  0
 80 81  1  0  0  0
 80160  1  0  0  0
 81161  1  0  0  0
 82162  1  0  0  0
 82163  1  0  0  0
 83164  1  0  0  0
 83165  1  0  0  0
M  CHG  2  82   1  83   1
M  ISO  4   1 100  68 101  78 101  81 100
M  END
> <chiral flag>
0

> <version>
0

> <s_m_source_file>
/data/baiqing/PycharmProjects/Reinvent-master-3.2/result/LINK_invent/BTK/process_docking_weight1_custom_sum_contain_oxygen_bond_distance_aromatic_linkinvent_7_9_3/rearranged_h_0199.sdf

> <i_m_source_file_index>
92

> <r_mmod_Potential_Energy-OPLS-2005>
-51.9444007873535

> <r_mmod_Stretch_Energy-OPLS-2005>
35.1165428161621

> <r_mmod_Bend_Energy-OPLS-2005>
328.308746337891

> <r_mmod_Torsional_Energy-OPLS-2005>
322.120697021484

> <r_mmod_Improper_Torsional_Energy-OPLS-2005>
10.7773542404175

> <r_mmod_Van_der_Waal_Energy-OPLS-2005>
147.591842651367

> <r_mmod_Electrostatic_Energy-OPLS-2005>
71.568977355957

> <r_mmod_Solvation_Energy-OPLS-2005>
-976.892578125

> <b_mmod_Minimization_Converged-OPLS-2005>
0

> <r_mmod_RMS_Derivative-OPLS-2005>
6.95256328582764

$$$$
92
                    3D
 Structure written by MMmdl.
160169  0  0  1  0            999 V2000
  -30.5568  -14.9645   20.3621 C   0  0  0  0  0  0
  -30.4469  -12.5911   19.4849 C   0  0  0  0  0  0
  -29.5226  -12.4643   18.2530 C   0  0  0  0  0  0
  -28.0512  -12.2851   18.6784 C   0  0  0  0  0  0
  -27.6233  -13.2329   19.8288 C   0  0  2  0  0  0
  -28.6758  -13.3102   20.9520 C   0  0  0  0  0  0
  -25.2478  -13.8157   20.5696 C   0  0  0  0  0  0
  -24.1776  -13.0409   20.9232 C   0  0  0  0  0  0
  -24.6373  -11.6893   20.8774 C   0  0  0  0  0  0
  -23.9039  -10.4282   21.0417 C   0  0  0  0  0  0
  -24.3592   -9.4201   21.9188 C   0  0  0  0  0  0
  -23.6290   -8.2228   22.0747 C   0  0  0  0  0  0
  -22.4269   -8.0264   21.3534 C   0  0  0  0  0  0
  -21.9893   -9.0237   20.4638 C   0  0  0  0  0  0
  -22.7215  -10.2131   20.3063 C   0  0  0  0  0  0
  -21.6848   -6.0728   22.5278 C   0  0  0  0  0  0
  -21.4011   -6.5632   23.8210 C   0  0  0  0  0  0
  -21.3659   -5.6789   24.9175 C   0  0  0  0  0  0
  -21.6052   -4.3055   24.7229 C   0  0  0  0  0  0
  -21.8830   -3.8144   23.4352 C   0  0  0  0  0  0
  -21.9197   -4.6955   22.3407 C   0  0  0  0  0  0
  -22.7818  -13.5194   21.1905 C   0  0  0  0  0  0
  -22.1660   -4.2139   21.0984 F   0  0  0  0  0  0
  -21.5634   -3.4542   25.7744 F   0  0  0  0  0  0
  -29.9419  -13.7117   20.3256 N   0  0  0  0  0  0
  -26.2873  -12.9356   20.3273 N   0  0  0  0  0  0
  -25.9302  -11.6504   20.5789 N   0  0  0  0  0  0
  -22.0460  -12.8204   22.0468 N   0  0  0  0  0  0
  -25.4173  -15.1879   20.4087 N   0  0  0  0  0  0
  -31.7890  -14.9778   20.2716 O   0  0  0  0  0  0
  -21.6633   -6.8864   21.4238 O   0  0  0  0  0  0
  -22.3530  -14.5507   20.6735 O   0  0  0  0  0  0
  -24.6418  -31.8457   23.1880 C   0  0  0  0  0  0
  -25.9191  -32.4708   23.8272 C   0  0  1  0  0  0
  -27.2202  -27.1501   20.1664 C   0  0  0  0  0  0
  -25.5947  -33.8509   24.2194 N   0  0  0  0  0  0
  -23.4451  -30.4655   21.5323 C   0  0  2  0  0  0
  -24.8960  -28.8956   20.1072 C   0  0  0  0  0  0
  -22.7572  -29.4561   22.4855 C   0  0  0  0  0  0
  -18.0309  -28.1402   22.8481 C   0  0  0  0  0  0
  -24.1484  -36.7250   23.2649 C   0  0  0  0  0  0
  -25.9988  -30.7277   21.3820 C   0  0  0  0  0  0
  -26.0712  -29.3393   20.7276 C   0  0  0  0  0  0
  -27.2340  -28.4841   20.7381 C   0  0  0  0  0  0
  -26.0195  -26.8044   19.5061 C   0  0  0  0  0  0
  -24.8839  -27.6427   19.4772 C   0  0  0  0  0  0
  -23.6694  -29.7935   20.1511 C   0  0  0  0  0  0
  -25.4118  -36.3043   24.0325 C   0  0  1  0  0  0
  -20.5925  -28.3725   23.1237 C   0  0  2  0  0  0
  -20.6795  -26.9429   22.5412 C   0  0  0  0  0  0
  -19.5770  -26.6381   21.5225 C   0  0  0  0  0  0
  -18.1945  -26.7946   22.1621 C   0  0  0  0  0  0
  -19.1566  -28.8881   23.2851 C   0  0  0  0  0  0
  -18.9483  -30.1477   23.8876 C   0  0  0  0  0  0
  -17.6481  -30.6602   24.0559 C   0  0  0  0  0  0
  -25.9070  -34.9416   23.5069 C   0  0  0  0  0  0
  -16.5370  -29.9097   23.6336 C   0  0  0  0  0  0
  -16.7289  -28.6514   23.0362 C   0  0  0  0  0  0
  -26.4522  -31.6570   25.0702 C   0  0  0  0  0  0
  -25.3710  -31.3740   26.1398 C   0  0  0  0  0  0
  -27.0397  -30.2988   24.6248 C   0  0  0  0  0  0
  -27.6063  -32.4337   25.7474 C   0  0  0  0  0  0
  -27.5574  -37.1784   24.8474 C   0  0  0  0  0  0
  -21.4270  -29.3038   22.3596 N   0  0  0  0  0  0
  -26.4285  -37.3751   23.9418 N   0  0  0  0  0  0
  -24.7149  -31.0352   22.0889 N   0  0  0  0  0  0
  -23.4226  -28.8111   23.2996 O   0  0  0  0  0  0
  -28.2801  -26.1759   20.2484 O   0  0  0  0  0  0
  -26.5662  -34.8921   22.4656 O   0  0  0  0  0  0
  -23.5539  -32.1307   23.7122 O   0  0  0  0  0  0
  -30.3666  -16.9173   16.5564 C   0  0  0  0  0  0
  -29.3394  -17.9766   16.8435 C   0  0  0  0  0  0
  -30.9235  -17.9114   18.9432 C   0  0  0  0  0  0
  -29.1944  -16.2590   18.8493 C   0  0  0  0  0  0
  -30.2574  -17.7017   20.3070 C   0  0  1  0  0  0
  -29.9855  -17.2260   17.9896 C   0  0  0  0  0  0
  -29.1791  -18.9942   20.5094 C   0  0  0  0  0  0
  -29.0459  -23.3621   20.4484 C   0  0  0  0  0  0
  -28.6036  -21.7313   20.4075 C   0  0  0  0  0  0
  -27.9932  -24.6490   20.1875 C   0  0  0  0  0  0
  -29.8056  -16.1806   20.1885 N   0  0  0  0  0  0
  -29.6207  -20.5198   20.5174 N   0  3  0  0  0  0
  -31.4720  -12.7646   19.1536 H   0  0  0  0  0  0
  -30.4683  -11.6620   20.0551 H   0  0  0  0  0  0
  -29.8354  -11.6131   17.6471 H   0  0  0  0  0  0
  -29.6298  -13.3340   17.6080 H   0  0  0  0  0  0
  -27.9428  -11.2510   19.0077 H   0  0  0  0  0  0
  -27.3856  -12.3995   17.8221 H   0  0  0  0  0  0
  -27.5527  -14.2182   19.3788 H   0  0  0  0  0  0
  -28.7729  -12.3569   21.4728 H   0  0  0  0  0  0
  -28.3794  -14.0473   21.6994 H   0  0  0  0  0  0
  -25.2732   -9.5694   22.4770 H   0  0  0  0  0  0
  -24.0002   -7.4612   22.7453 H   0  0  0  0  0  0
  -21.0830   -8.8760   19.8933 H   0  0  0  0  0  0
  -22.3657  -10.9674   19.6185 H   0  0  0  0  0  0
  -21.1988   -7.6139   23.9710 H   0  0  0  0  0  0
  -21.1467   -6.0520   25.9075 H   0  0  0  0  0  0
  -22.0607   -2.7605   23.2862 H   0  0  0  0  0  0
  -22.4041  -11.9841   22.4856 H   0  0  0  0  0  0
  -21.1074  -13.1239   22.2641 H   0  0  0  0  0  0
  -24.6481  -15.8419   20.5071 H   0  0  0  0  0  0
  -26.2756  -15.6254   20.1005 H   0  0  0  0  0  0
  -26.7254  -32.5327   23.0997 H   0  0  0  0  0  0
  -25.0071  -33.9612   25.0333 H   0  0  0  0  0  0
  -22.7459  -31.2904   21.3797 H   0  0  0  0  0  0
  -23.3762  -35.9566   23.3301 H   0  0  0  0  0  0
  -24.3564  -36.8885   22.2064 H   0  0  0  0  0  0
  -23.7214  -37.6439   23.6678 H   0  0  0  0  0  0
  -26.1528  -31.4825   20.6090 H   0  0  0  0  0  0
  -26.8707  -30.7794   22.0219 H   0  0  0  0  0  0
  -28.1260  -28.8218   21.2466 H   0  0  0  0  0  0
  -25.9219  -25.8453   19.0220 H   0  0  0  0  0  0
  -23.9888  -27.2992   18.9763 H   0  0  0  0  0  0
  -23.7952  -30.5665   19.3919 H   0  0  0  0  0  0
  -22.7858  -29.2294   19.8463 H   0  0  0  0  0  0
  -25.1307  -36.1873   25.0817 H   0  0  0  0  0  0
  -21.0014  -28.3308   24.1357 H   0  0  0  0  0  0
  -20.5703  -26.2334   23.3626 H   0  0  0  0  0  0
  -21.6658  -26.7436   22.1198 H   0  0  0  0  0  0
  -19.6931  -25.6287   21.1262 H   0  0  0  0  0  0
  -19.6715  -27.3182   20.6751 H   0  0  0  0  0  0
  -17.4225  -26.6694   21.4015 H   0  0  0  0  0  0
  -18.0329  -26.0098   22.9022 H   0  0  0  0  0  0
  -19.7957  -30.7302   24.2228 H   0  0  0  0  0  0
  -17.5036  -31.6279   24.5171 H   0  0  0  0  0  0
  -15.5372  -30.2996   23.7686 H   0  0  0  0  0  0
  -15.8683  -28.0830   22.7094 H   0  0  0  0  0  0
  -24.5865  -30.7130   25.7693 H   0  0  0  0  0  0
  -24.8926  -32.2918   26.4828 H   0  0  0  0  0  0
  -25.7986  -30.8880   27.0176 H   0  0  0  0  0  0
  -26.3008  -29.6707   24.1257 H   0  0  0  0  0  0
  -27.4057  -29.7283   25.4793 H   0  0  0  0  0  0
  -27.8889  -30.4271   23.9532 H   0  0  0  0  0  0
  -27.2671  -33.3663   26.1996 H   0  0  0  0  0  0
  -28.3888  -32.6860   25.0303 H   0  0  0  0  0  0
  -28.0713  -31.8497   26.5425 H   0  0  0  0  0  0
  -28.2600  -38.0077   24.7519 H   0  0  0  0  0  0
  -28.1064  -36.2606   24.6302 H   0  0  0  0  0  0
  -27.2289  -37.1428   25.8878 H   0  0  0  0  0  0
  -20.9486  -29.8731   21.6760 H   0  0  0  0  0  0
  -26.0158  -38.2824   24.1426 H   0  0  0  0  0  0
  -31.3459  -17.2471   16.2143 H   0  0  0  0  0  0
  -30.0131  -15.9843   16.1215 H   0  0  0  0  0  0
  -28.3028  -17.7467   16.6048 H   0  0  0  0  0  0
  -29.6332  -19.0122   16.6821 H   0  0  0  0  0  0
  -31.8935  -17.4120   18.9050 H   0  0  0  0  0  0
  -31.0817  -18.9558   18.6750 H   0  0  0  0  0  0
  -29.1447  -15.3089   18.3238 H   0  0  0  0  0  0
  -28.1644  -16.6072   18.9383 H   0  0  0  0  0  0
  -31.0130  -17.7671   21.0911 H   0  0  0  0  0  0
  -28.6371  -18.8253   21.4395 H   0  0  0  0  0  0
  -28.4210  -18.9173   19.7302 H   0  0  0  0  0  0
  -29.8633  -23.4860   19.7385 H   0  0  0  0  0  0
  -29.5020  -23.5394   21.4228 H   0  0  0  0  0  0
  -28.0479  -21.5763   19.4828 H   0  0  0  0  0  0
  -27.8715  -21.5822   21.2015 H   0  0  0  0  0  0
  -27.1569  -24.4895   20.8700 H   0  0  0  0  0  0
  -27.5850  -24.4644   19.1948 H   0  0  0  0  0  0
  -30.2810  -20.6358   19.7670 H   0  0  0  0  0  0
  -30.1395  -20.6611   21.3699 H   0  0  0  0  0  0
  1 25  1  0  0  0
  1 30  2  0  0  0
  1 81  1  0  0  0
  2  3  1  0  0  0
  2 25  1  0  0  0
  2 83  1  0  0  0
  2 84  1  0  0  0
  3  4  1  0  0  0
  3 85  1  0  0  0
  3 86  1  0  0  0
  4  5  1  0  0  0
  4 87  1  0  0  0
  4 88  1  0  0  0
  5  6  1  0  0  0
  5 26  1  0  0  0
  5 89  1  0  0  0
  6 25  1  0  0  0
  6 90  1  0  0  0
  6 91  1  0  0  0
  7  8  2  0  0  0
  7 26  1  0  0  0
  7 29  1  0  0  0
  8  9  1  0  0  0
  8 22  1  0  0  0
  9 10  1  0  0  0
  9 27  2  0  0  0
 10 11  2  0  0  0
 10 15  1  0  0  0
 11 12  1  0  0  0
 11 92  1  0  0  0
 12 13  2  0  0  0
 12 93  1  0  0  0
 13 14  1  0  0  0
 13 31  1  0  0  0
 14 15  2  0  0  0
 14 94  1  0  0  0
 15 95  1  0  0  0
 16 17  2  0  0  0
 16 21  1  0  0  0
 16 31  1  0  0  0
 17 18  1  0  0  0
 17 96  1  0  0  0
 18 19  2  0  0  0
 18 97  1  0  0  0
 19 20  1  0  0  0
 19 24  1  0  0  0
 20 21  2  0  0  0
 20 98  1  0  0  0
 21 23  1  0  0  0
 22 28  1  0  0  0
 22 32  2  0  0  0
 26 27  1  0  0  0
 28 99  1  0  0  0
 28100  1  0  0  0
 29101  1  0  0  0
 29102  1  0  0  0
 33 34  1  0  0  0
 33 66  1  0  0  0
 33 70  2  0  0  0
 34 36  1  0  0  0
 34 59  1  0  0  0
 34103  1  0  0  0
 35 44  2  0  0  0
 35 45  1  0  0  0
 35 68  1  0  0  0
 36 56  1  0  0  0
 36104  1  0  0  0
 37 39  1  0  0  0
 37 47  1  0  0  0
 37 66  1  0  0  0
 37105  1  0  0  0
 38 43  2  0  0  0
 38 46  1  0  0  0
 38 47  1  0  0  0
 39 64  1  0  0  0
 39 67  2  0  0  0
 40 52  1  0  0  0
 40 53  2  0  0  0
 40 58  1  0  0  0
 41106  1  0  0  0
 41107  1  0  0  0
 41108  1  0  0  0
 41 48  1  0  0  0
 42 43  1  0  0  0
 42 66  1  0  0  0
 42109  1  0  0  0
 42110  1  0  0  0
 43 44  1  0  0  0
 44111  1  0  0  0
 45 46  2  0  0  0
 45112  1  0  0  0
 46113  1  0  0  0
 47114  1  0  0  0
 47115  1  0  0  0
 48 56  1  0  0  0
 48 65  1  0  0  0
 48116  1  0  0  0
 49 50  1  0  0  0
 49 53  1  0  0  0
 49 64  1  0  0  0
 49117  1  0  0  0
 50 51  1  0  0  0
 50118  1  0  0  0
 50119  1  0  0  0
 51 52  1  0  0  0
 51120  1  0  0  0
 51121  1  0  0  0
 52122  1  0  0  0
 52123  1  0  0  0
 53 54  1  0  0  0
 54 55  2  0  0  0
 54124  1  0  0  0
 55 57  1  0  0  0
 55125  1  0  0  0
 56 69  2  0  0  0
 57 58  2  0  0  0
 57126  1  0  0  0
 58127  1  0  0  0
 59 60  1  0  0  0
 59 61  1  0  0  0
 59 62  1  0  0  0
 60128  1  0  0  0
 60129  1  0  0  0
 60130  1  0  0  0
 61131  1  0  0  0
 61132  1  0  0  0
 61133  1  0  0  0
 62134  1  0  0  0
 62135  1  0  0  0
 62136  1  0  0  0
 63 65  1  0  0  0
 63137  1  0  0  0
 63138  1  0  0  0
 63139  1  0  0  0
 64140  1  0  0  0
 65141  1  0  0  0
 68 80  1  0  0  0
 71 72  1  0  0  0
 71142  1  0  0  0
 71143  1  0  0  0
 71 76  1  0  0  0
 72 76  1  0  0  0
 72144  1  0  0  0
 72145  1  0  0  0
 73 75  1  0  0  0
 73 76  1  0  0  0
 73146  1  0  0  0
 73147  1  0  0  0
 74 76  1  0  0  0
 74 81  1  0  0  0
 74148  1  0  0  0
 74149  1  0  0  0
 75 77  1  0  0  0
 75 81  1  0  0  0
 75150  1  0  0  0
 77 82  1  0  0  0
 77151  1  0  0  0
 77152  1  0  0  0
 78 79  1  0  0  0
 78 80  1  0  0  0
 78153  1  0  0  0
 78154  1  0  0  0
 79 82  1  0  0  0
 79155  1  0  0  0
 79156  1  0  0  0
 80157  1  0  0  0
 80158  1  0  0  0
 82159  1  0  0  0
 82160  1  0  0  0
M  CHG  1  82   1
M  ISO  4   1 100  68 101  80 101  81 100
M  END
> <chiral flag>
0

> <version>
0

> <s_m_source_file>
/data/baiqing/PycharmProjects/Reinvent-master-3.2/result/LINK_invent/BTK/process_docking_weight1_custom_sum_contain_oxygen_bond_distance_aromatic_linkinvent_7_9_3/rearranged_h_0199.sdf

> <i_m_source_file_index>
93

> <r_mmod_Potential_Energy-OPLS-2005>
613.461669921875

> <r_mmod_Stretch_Energy-OPLS-2005>
268.42138671875

> <r_mmod_Bend_Energy-OPLS-2005>
295.008087158203

> <r_mmod_Torsional_Energy-OPLS-2005>
408.451904296875

> <r_mmod_Improper_Torsional_Energy-OPLS-2005>
13.3231048583984

> <r_mmod_Van_der_Waal_Energy-OPLS-2005>
110.683609008789

> <r_mmod_Electrostatic_Energy-OPLS-2005>
-212.712890625

> <r_mmod_Solvation_Energy-OPLS-2005>
-470.068878173828

> <b_mmod_Minimization_Converged-OPLS-2005>
0

> <r_mmod_RMS_Derivative-OPLS-2005>
2.37814211845398

$$$$
93
                    3D
 Structure written by MMmdl.
184193  0  0  1  0            999 V2000
  -30.7324  -14.3983   20.6601 C   0  0  0  0  0  0
  -30.4214  -12.2922   19.4092 C   0  0  0  0  0  0
  -29.4912  -12.5211   18.2008 C   0  0  0  0  0  0
  -28.0123  -12.3804   18.6115 C   0  0  0  0  0  0
  -27.6659  -13.2019   19.8817 C   0  0  2  0  0  0
  -28.6999  -12.9389   20.9973 C   0  0  0  0  0  0
  -25.2600  -13.8158   20.5676 C   0  0  0  0  0  0
  -24.1845  -13.0442   20.9166 C   0  0  0  0  0  0
  -24.6391  -11.6905   20.8730 C   0  0  0  0  0  0
  -23.9056  -10.4295   21.0403 C   0  0  0  0  0  0
  -24.3613   -9.4212   21.9179 C   0  0  0  0  0  0
  -23.6289   -8.2247   22.0752 C   0  0  0  0  0  0
  -22.4272   -8.0284   21.3541 C   0  0  0  0  0  0
  -21.9906   -9.0259   20.4646 C   0  0  0  0  0  0
  -22.7232  -10.2137   20.3052 C   0  0  0  0  0  0
  -21.6852   -6.0738   22.5280 C   0  0  0  0  0  0
  -21.4013   -6.5641   23.8216 C   0  0  0  0  0  0
  -21.3658   -5.6792   24.9177 C   0  0  0  0  0  0
  -21.6044   -4.3055   24.7227 C   0  0  0  0  0  0
  -21.8818   -3.8149   23.4349 C   0  0  0  0  0  0
  -21.9193   -4.6966   22.3405 C   0  0  0  0  0  0
  -22.7870  -13.5244   21.1841 C   0  0  0  0  0  0
  -22.1659   -4.2152   21.0979 F   0  0  0  0  0  0
  -21.5631   -3.4538   25.7740 F   0  0  0  0  0  0
  -30.0403  -13.2432   20.4650 N   0  0  0  0  0  0
  -26.3039  -12.9322   20.3377 N   0  0  0  0  0  0
  -25.9311  -11.6486   20.5750 N   0  0  0  0  0  0
  -22.0506  -12.8237   22.0397 N   0  0  0  0  0  0
  -25.4325  -15.1870   20.4071 N   0  0  0  0  0  0
  -31.7878  -14.6551   20.0675 O   0  0  0  0  0  0
  -21.6634   -6.8883   21.4240 O   0  0  0  0  0  0
  -22.3550  -14.5550   20.6691 O   0  0  0  0  0  0
  -24.6096  -31.8721   23.2124 C   0  0  0  0  0  0
  -25.9002  -32.4847   23.8412 C   0  0  1  0  0  0
  -27.2491  -27.4763   20.0972 C   0  0  0  0  0  0
  -25.5891  -33.8643   24.2355 N   0  0  0  0  0  0
  -23.3956  -30.4920   21.5522 C   0  0  2  0  0  0
  -24.8448  -28.9585   20.1191 C   0  0  0  0  0  0
  -22.7392  -29.4656   22.5025 C   0  0  0  0  0  0
  -18.0268  -28.1361   22.8477 C   0  0  0  0  0  0
  -24.1496  -36.7318   23.2640 C   0  0  0  0  0  0
  -25.9164  -30.8497   21.3579 C   0  0  0  0  0  0
  -25.9973  -29.4812   20.7190 C   0  0  0  0  0  0
  -27.1991  -28.7474   20.7159 C   0  0  0  0  0  0
  -26.0846  -26.9645   19.4891 C   0  0  0  0  0  0
  -24.8793  -27.6938   19.5057 C   0  0  0  0  0  0
  -23.6027  -29.8193   20.1680 C   0  0  0  0  0  0
  -25.4115  -36.3125   24.0346 C   0  0  1  0  0  0
  -20.5848  -28.3641   23.1336 C   0  0  2  0  0  0
  -20.6764  -26.9389   22.5419 C   0  0  0  0  0  0
  -19.5751  -26.6377   21.5204 C   0  0  0  0  0  0
  -18.1922  -26.7908   22.1615 C   0  0  0  0  0  0
  -19.1513  -28.8823   23.2898 C   0  0  0  0  0  0
  -18.9454  -30.1433   23.8904 C   0  0  0  0  0  0
  -17.6460  -30.6576   24.0557 C   0  0  0  0  0  0
  -25.9033  -34.9487   23.5142 C   0  0  0  0  0  0
  -16.5344  -29.9082   23.6322 C   0  0  0  0  0  0
  -16.7259  -28.6500   23.0337 C   0  0  0  0  0  0
  -26.4447  -31.6602   25.0716 C   0  0  0  0  0  0
  -25.3728  -31.3700   26.1477 C   0  0  0  0  0  0
  -27.0271  -30.3064   24.6026 C   0  0  0  0  0  0
  -27.6035  -32.4306   25.7474 C   0  0  0  0  0  0
  -27.5585  -37.1823   24.8469 C   0  0  0  0  0  0
  -21.4128  -29.3008   22.3754 N   0  0  0  0  0  0
  -26.4304  -37.3806   23.9405 N   0  0  0  0  0  0
  -24.6582  -31.0859   22.1003 N   0  0  0  0  0  0
  -23.4177  -28.8211   23.3058 O   0  0  0  0  0  0
  -28.3898  -26.7133   20.0104 O   0  0  0  0  0  0
  -26.5589  -34.8939   22.4701 O   0  0  0  0  0  0
  -23.5306  -32.1447   23.7554 O   0  0  0  0  0  0
  -27.8180  -22.0612   26.1724 C   0  0  0  0  0  0
  -29.6261  -20.1057   25.5289 C   0  0  0  0  0  0
  -27.3197  -20.8072   25.7672 C   0  0  0  0  0  0
  -28.2526  -19.7793   25.4620 C   0  0  0  0  0  0
  -29.2029  -22.2718   26.2041 C   0  0  0  0  0  0
  -28.8061  -17.4418   21.5035 C   0  0  0  0  0  0
  -29.0995  -16.0431   23.5638 C   0  0  0  0  0  0
  -30.0070  -16.7076   20.8787 C   0  0  0  0  0  0
  -30.2687  -15.3192   22.8635 C   0  0  0  0  0  0
  -28.9146  -17.4825   23.0386 C   0  0  0  0  0  0
  -25.2433  -21.5115   24.4965 C   0  0  0  0  0  0
  -27.2368  -17.6419   26.1071 C   0  0  0  0  0  0
  -25.8127  -20.6430   25.6285 C   0  0  0  0  0  0
  -27.7043  -18.2097   23.6657 C   0  0  0  0  0  0
  -30.2591  -24.2536   25.3829 C   0  0  0  0  0  0
  -29.1584  -24.7862   24.4413 C   0  0  0  0  0  0
  -28.6955  -25.9178   22.2887 C   0  0  0  0  0  0
  -29.2972  -26.7093   21.1116 C   0  0  0  0  0  0
  -30.0966  -21.3256   25.8719 N   0  0  0  0  0  0
  -30.1052  -15.3392   21.4030 N   0  0  0  0  0  0
  -29.7068  -23.5298   26.5262 N   0  0  0  0  0  0
  -27.8771  -18.4753   25.0931 N   0  0  0  0  0  0
  -29.7098  -25.5585   23.3099 N   0  3  0  0  0  0
  -31.4654  -12.3974   19.1076 H   0  0  0  0  0  0
  -30.3238  -11.2700   19.7788 H   0  0  0  0  0  0
  -29.7266  -11.8122   17.4054 H   0  0  0  0  0  0
  -29.6643  -13.5152   17.7855 H   0  0  0  0  0  0
  -27.8161  -11.3222   18.7901 H   0  0  0  0  0  0
  -27.3635  -12.6737   17.7857 H   0  0  0  0  0  0
  -27.7257  -14.2569   19.6128 H   0  0  0  0  0  0
  -28.6643  -11.8938   21.3079 H   0  0  0  0  0  0
  -28.4441  -13.5108   21.8889 H   0  0  0  0  0  0
  -25.2763   -9.5687   22.4748 H   0  0  0  0  0  0
  -24.0004   -7.4636   22.7470 H   0  0  0  0  0  0
  -21.0838   -8.8775   19.8951 H   0  0  0  0  0  0
  -22.3694  -10.9673   19.6159 H   0  0  0  0  0  0
  -21.2000   -7.6149   23.9721 H   0  0  0  0  0  0
  -21.1479   -6.0521   25.9081 H   0  0  0  0  0  0
  -22.0599   -2.7612   23.2846 H   0  0  0  0  0  0
  -22.4114  -11.9895   22.4785 H   0  0  0  0  0  0
  -21.1124  -13.1266   22.2598 H   0  0  0  0  0  0
  -24.6693  -15.8456   20.5172 H   0  0  0  0  0  0
  -26.2940  -15.6238   20.1049 H   0  0  0  0  0  0
  -26.7091  -32.5575   23.1203 H   0  0  0  0  0  0
  -25.0079  -33.9821   25.0526 H   0  0  0  0  0  0
  -22.6816  -31.3063   21.4129 H   0  0  0  0  0  0
  -23.3758  -35.9650   23.3319 H   0  0  0  0  0  0
  -24.3603  -36.8903   22.2050 H   0  0  0  0  0  0
  -23.7241  -37.6531   23.6634 H   0  0  0  0  0  0
  -26.0152  -31.6115   20.5829 H   0  0  0  0  0  0
  -26.8098  -30.9152   21.9669 H   0  0  0  0  0  0
  -28.0760  -29.1860   21.1685 H   0  0  0  0  0  0
  -26.1123  -25.9975   19.0060 H   0  0  0  0  0  0
  -23.9956  -27.2826   19.0363 H   0  0  0  0  0  0
  -23.7033  -30.5904   19.4031 H   0  0  0  0  0  0
  -22.7311  -29.2309   19.8758 H   0  0  0  0  0  0
  -25.1288  -36.2010   25.0840 H   0  0  0  0  0  0
  -20.9930  -28.3193   24.1458 H   0  0  0  0  0  0
  -20.5685  -26.2252   23.3592 H   0  0  0  0  0  0
  -21.6640  -26.7451   22.1206 H   0  0  0  0  0  0
  -19.6929  -25.6295   21.1226 H   0  0  0  0  0  0
  -19.6700  -27.3199   20.6735 H   0  0  0  0  0  0
  -17.4199  -26.6648   21.4009 H   0  0  0  0  0  0
  -18.0320  -26.0045   22.9011 H   0  0  0  0  0  0
  -19.7937  -30.7224   24.2286 H   0  0  0  0  0  0
  -17.5026  -31.6263   24.5148 H   0  0  0  0  0  0
  -15.5352  -30.2995   23.7643 H   0  0  0  0  0  0
  -15.8649  -28.0833   22.7043 H   0  0  0  0  0  0
  -24.5904  -30.7038   25.7813 H   0  0  0  0  0  0
  -24.8914  -32.2857   26.4914 H   0  0  0  0  0  0
  -25.8100  -30.8880   27.0231 H   0  0  0  0  0  0
  -26.2791  -29.6837   24.1103 H   0  0  0  0  0  0
  -27.4101  -29.7274   25.4436 H   0  0  0  0  0  0
  -27.8593  -30.4416   23.9110 H   0  0  0  0  0  0
  -27.2662  -33.3601   26.2071 H   0  0  0  0  0  0
  -28.3833  -32.6870   25.0285 H   0  0  0  0  0  0
  -28.0712  -31.8410   26.5372 H   0  0  0  0  0  0
  -28.2618  -38.0108   24.7513 H   0  0  0  0  0  0
  -28.1071  -36.2647   24.6305 H   0  0  0  0  0  0
  -27.2305  -37.1461   25.8874 H   0  0  0  0  0  0
  -20.9302  -29.8716   21.6957 H   0  0  0  0  0  0
  -26.0205  -38.2891   24.1405 H   0  0  0  0  0  0
  -27.1297  -22.8586   26.4160 H   0  0  0  0  0  0
  -30.3761  -19.3645   25.2939 H   0  0  0  0  0  0
  -27.8795  -16.9451   21.2114 H   0  0  0  0  0  0
  -28.7481  -18.4551   21.1042 H   0  0  0  0  0  0
  -29.2836  -16.0585   24.6380 H   0  0  0  0  0  0
  -28.1763  -15.4797   23.4192 H   0  0  0  0  0  0
  -30.9338  -17.2469   21.0813 H   0  0  0  0  0  0
  -29.8876  -16.6902   19.7930 H   0  0  0  0  0  0
  -30.3337  -14.2943   23.2342 H   0  0  0  0  0  0
  -31.2145  -15.7984   23.1220 H   0  0  0  0  0  0
  -29.8135  -18.0515   23.2804 H   0  0  0  0  0  0
  -24.1686  -21.3617   24.3951 H   0  0  0  0  0  0
  -25.7055  -21.2597   23.5413 H   0  0  0  0  0  0
  -25.4122  -22.5733   24.6802 H   0  0  0  0  0  0
  -27.1251  -18.1681   27.0568 H   0  0  0  0  0  0
  -27.8307  -16.7476   26.2985 H   0  0  0  0  0  0
  -26.2449  -17.3196   25.7870 H   0  0  0  0  0  0
  -25.3451  -20.9174   26.5746 H   0  0  0  0  0  0
  -25.5384  -19.6063   25.4477 H   0  0  0  0  0  0
  -26.7967  -17.6244   23.5077 H   0  0  0  0  0  0
  -27.5377  -19.1548   23.1454 H   0  0  0  0  0  0
  -30.8558  -25.0837   25.7635 H   0  0  0  0  0  0
  -30.9473  -23.6089   24.8332 H   0  0  0  0  0  0
  -28.4633  -25.4208   24.9943 H   0  0  0  0  0  0
  -28.5766  -23.9515   24.0454 H   0  0  0  0  0  0
  -28.2515  -24.9990   21.9034 H   0  0  0  0  0  0
  -27.8884  -26.4891   22.7494 H   0  0  0  0  0  0
  -30.1986  -26.2073   20.7596 H   0  0  0  0  0  0
  -29.6115  -27.7081   21.4111 H   0  0  0  0  0  0
  -29.0465  -24.0954   27.0502 H   0  0  0  0  0  0
  -30.4343  -25.0063   22.8755 H   0  0  0  0  0  0
  -30.1438  -26.3952   23.6708 H   0  0  0  0  0  0
  1 25  1  0  0  0
  1 30  2  0  0  0
  1 90  1  0  0  0
  2  3  1  0  0  0
  2 25  1  0  0  0
  2 94  1  0  0  0
  2 95  1  0  0  0
  3  4  1  0  0  0
  3 96  1  0  0  0
  3 97  1  0  0  0
  4  5  1  0  0  0
  4 98  1  0  0  0
  4 99  1  0  0  0
  5  6  1  0  0  0
  5 26  1  0  0  0
  5100  1  0  0  0
  6 25  1  0  0  0
  6101  1  0  0  0
  6102  1  0  0  0
  7  8  2  0  0  0
  7 26  1  0  0  0
  7 29  1  0  0  0
  8  9  1  0  0  0
  8 22  1  0  0  0
  9 10  1  0  0  0
  9 27  2  0  0  0
 10 11  2  0  0  0
 10 15  1  0  0  0
 11 12  1  0  0  0
 11103  1  0  0  0
 12 13  2  0  0  0
 12104  1  0  0  0
 13 14  1  0  0  0
 13 31  1  0  0  0
 14 15  2  0  0  0
 14105  1  0  0  0
 15106  1  0  0  0
 16 17  2  0  0  0
 16 21  1  0  0  0
 16 31  1  0  0  0
 17 18  1  0  0  0
 17107  1  0  0  0
 18 19  2  0  0  0
 18108  1  0  0  0
 19 20  1  0  0  0
 19 24  1  0  0  0
 20 21  2  0  0  0
 20109  1  0  0  0
 21 23  1  0  0  0
 22 28  1  0  0  0
 22 32  2  0  0  0
 26 27  1  0  0  0
 28110  1  0  0  0
 28111  1  0  0  0
 29112  1  0  0  0
 29113  1  0  0  0
 33 34  1  0  0  0
 33 66  1  0  0  0
 33 70  2  0  0  0
 34 36  1  0  0  0
 34 59  1  0  0  0
 34114  1  0  0  0
 35 44  2  0  0  0
 35 45  1  0  0  0
 35 68  1  0  0  0
 36 56  1  0  0  0
 36115  1  0  0  0
 37 39  1  0  0  0
 37 47  1  0  0  0
 37 66  1  0  0  0
 37116  1  0  0  0
 38 43  2  0  0  0
 38 46  1  0  0  0
 38 47  1  0  0  0
 39 64  1  0  0  0
 39 67  2  0  0  0
 40 52  1  0  0  0
 40 53  2  0  0  0
 40 58  1  0  0  0
 41117  1  0  0  0
 41118  1  0  0  0
 41119  1  0  0  0
 41 48  1  0  0  0
 42 43  1  0  0  0
 42 66  1  0  0  0
 42120  1  0  0  0
 42121  1  0  0  0
 43 44  1  0  0  0
 44122  1  0  0  0
 45 46  2  0  0  0
 45123  1  0  0  0
 46124  1  0  0  0
 47125  1  0  0  0
 47126  1  0  0  0
 48 56  1  0  0  0
 48 65  1  0  0  0
 48127  1  0  0  0
 49 50  1  0  0  0
 49 53  1  0  0  0
 49 64  1  0  0  0
 49128  1  0  0  0
 50 51  1  0  0  0
 50129  1  0  0  0
 50130  1  0  0  0
 51 52  1  0  0  0
 51131  1  0  0  0
 51132  1  0  0  0
 52133  1  0  0  0
 52134  1  0  0  0
 53 54  1  0  0  0
 54 55  2  0  0  0
 54135  1  0  0  0
 55 57  1  0  0  0
 55136  1  0  0  0
 56 69  2  0  0  0
 57 58  2  0  0  0
 57137  1  0  0  0
 58138  1  0  0  0
 59 60  1  0  0  0
 59 61  1  0  0  0
 59 62  1  0  0  0
 60139  1  0  0  0
 60140  1  0  0  0
 60141  1  0  0  0
 61142  1  0  0  0
 61143  1  0  0  0
 61144  1  0  0  0
 62145  1  0  0  0
 62146  1  0  0  0
 62147  1  0  0  0
 63 65  1  0  0  0
 63148  1  0  0  0
 63149  1  0  0  0
 63150  1  0  0  0
 64151  1  0  0  0
 65152  1  0  0  0
 68 88  1  0  0  0
 71 73  2  0  0  0
 71 75  1  0  0  0
 71153  1  0  0  0
 72 74  2  0  0  0
 72 89  1  0  0  0
 72154  1  0  0  0
 73 74  1  0  0  0
 73 83  1  0  0  0
 74 92  1  0  0  0
 75 89  2  0  0  0
 75 91  1  0  0  0
 76 78  1  0  0  0
 76 80  1  0  0  0
 76155  1  0  0  0
 76156  1  0  0  0
 77 79  1  0  0  0
 77 80  1  0  0  0
 77157  1  0  0  0
 77158  1  0  0  0
 78 90  1  0  0  0
 78159  1  0  0  0
 78160  1  0  0  0
 79 90  1  0  0  0
 79161  1  0  0  0
 79162  1  0  0  0
 80 84  1  0  0  0
 80163  1  0  0  0
 81 83  1  0  0  0
 81164  1  0  0  0
 81165  1  0  0  0
 81166  1  0  0  0
 82 92  1  0  0  0
 82167  1  0  0  0
 82168  1  0  0  0
 82169  1  0  0  0
 83170  1  0  0  0
 83171  1  0  0  0
 84 92  1  0  0  0
 84172  1  0  0  0
 84173  1  0  0  0
 85 86  1  0  0  0
 85 91  1  0  0  0
 85174  1  0  0  0
 85175  1  0  0  0
 86 93  1  0  0  0
 86176  1  0  0  0
 86177  1  0  0  0
 87 88  1  0  0  0
 87 93  1  0  0  0
 87178  1  0  0  0
 87179  1  0  0  0
 88180  1  0  0  0
 88181  1  0  0  0
 91182  1  0  0  0
 93183  1  0  0  0
 93184  1  0  0  0
M  CHG  1  93   1
M  ISO  4   1 100  68 101  88 101  90 100
M  END
> <chiral flag>
0

> <version>
0

> <s_m_source_file>
/data/baiqing/PycharmProjects/Reinvent-master-3.2/result/LINK_invent/BTK/process_docking_weight1_custom_sum_contain_oxygen_bond_distance_aromatic_linkinvent_7_9_3/rearranged_h_0199.sdf

> <i_m_source_file_index>
94

> <r_mmod_Potential_Energy-OPLS-2005>
-160.312622070312

> <r_mmod_Stretch_Energy-OPLS-2005>
35.8552398681641

> <r_mmod_Bend_Energy-OPLS-2005>
110.005844116211

> <r_mmod_Torsional_Energy-OPLS-2005>
358.505523681641

> <r_mmod_Improper_Torsional_Energy-OPLS-2005>
13.250714302063

> <r_mmod_Van_der_Waal_Energy-OPLS-2005>
151.355133056641

> <r_mmod_Electrostatic_Energy-OPLS-2005>
-353.991363525391

> <r_mmod_Solvation_Energy-OPLS-2005>
-481.36865234375

> <b_mmod_Minimization_Converged-OPLS-2005>
0

> <r_mmod_RMS_Derivative-OPLS-2005>
1.5699805021286

$$$$
