0
                    3D
 Structure written by MMmdl.
163171  0  0  1  0            999 V2000
  -30.7035  -14.3771   20.6466 C   0  0  0  0  0  0
  -30.4361  -12.2788   19.3840 C   0  0  0  0  0  0
  -29.4883  -12.5140   18.1901 C   0  0  0  0  0  0
  -28.0103  -12.3745   18.6093 C   0  0  0  0  0  0
  -27.6732  -13.1864   19.8874 C   0  0  2  0  0  0
  -28.7103  -12.8791   20.9894 C   0  0  0  0  0  0
  -25.2635  -13.8129   20.5660 C   0  0  0  0  0  0
  -24.1864  -13.0443   20.9149 C   0  0  0  0  0  0
  -24.6386  -11.6892   20.8720 C   0  0  0  0  0  0
  -23.9035  -10.4303   21.0417 C   0  0  0  0  0  0
  -24.3589   -9.4220   21.9193 C   0  0  0  0  0  0
  -23.6282   -8.2245   22.0756 C   0  0  0  0  0  0
  -22.4262   -8.0279   21.3539 C   0  0  0  0  0  0
  -21.9894   -9.0254   20.4637 C   0  0  0  0  0  0
  -22.7212  -10.2140   20.3066 C   0  0  0  0  0  0
  -21.6860   -6.0733   22.5276 C   0  0  0  0  0  0
  -21.4016   -6.5638   23.8212 C   0  0  0  0  0  0
  -21.3656   -5.6785   24.9173 C   0  0  0  0  0  0
  -21.6040   -4.3052   24.7221 C   0  0  0  0  0  0
  -21.8819   -3.8149   23.4343 C   0  0  0  0  0  0
  -21.9198   -4.6963   22.3403 C   0  0  0  0  0  0
  -22.7885  -13.5255   21.1824 C   0  0  0  0  0  0
  -22.1656   -4.2148   21.0983 F   0  0  0  0  0  0
  -21.5629   -3.4537   25.7739 F   0  0  0  0  0  0
  -30.0529  -13.2014   20.4579 N   0  0  0  0  0  0
  -26.3075  -12.9263   20.3407 N   0  0  0  0  0  0
  -25.9312  -11.6442   20.5771 N   0  0  0  0  0  0
  -22.0508  -12.8257   22.0369 N   0  0  0  0  0  0
  -25.4432  -15.1842   20.4043 N   0  0  0  0  0  0
  -31.7546  -14.6936   20.0788 O   0  0  0  0  0  0
  -21.6629   -6.8871   21.4236 O   0  0  0  0  0  0
  -22.3580  -14.5568   20.6686 O   0  0  0  0  0  0
  -24.6095  -31.8717   23.2131 C   0  0  0  0  0  0
  -25.9008  -32.4835   23.8408 C   0  0  1  0  0  0
  -27.2465  -27.4746   20.0751 C   0  0  0  0  0  0
  -25.5881  -33.8628   24.2346 N   0  0  0  0  0  0
  -23.3940  -30.4952   21.5533 C   0  0  2  0  0  0
  -24.8396  -28.9582   20.1212 C   0  0  0  0  0  0
  -22.7357  -29.4698   22.5029 C   0  0  0  0  0  0
  -18.0256  -28.1348   22.8468 C   0  0  0  0  0  0
  -24.1490  -36.7330   23.2640 C   0  0  0  0  0  0
  -25.9191  -30.8439   21.3620 C   0  0  0  0  0  0
  -25.9944  -29.4766   20.7181 C   0  0  0  0  0  0
  -27.1936  -28.7367   20.7019 C   0  0  0  0  0  0
  -26.0680  -26.9557   19.4857 C   0  0  0  0  0  0
  -24.8687  -27.6923   19.5105 C   0  0  0  0  0  0
  -23.6007  -29.8222   20.1687 C   0  0  0  0  0  0
  -25.4104  -36.3129   24.0345 C   0  0  1  0  0  0
  -20.5837  -28.3659   23.1338 C   0  0  2  0  0  0
  -20.6756  -26.9401   22.5423 C   0  0  0  0  0  0
  -19.5748  -26.6383   21.5199 C   0  0  0  0  0  0
  -18.1920  -26.7902   22.1603 C   0  0  0  0  0  0
  -19.1491  -28.8819   23.2891 C   0  0  0  0  0  0
  -18.9421  -30.1422   23.8892 C   0  0  0  0  0  0
  -17.6429  -30.6562   24.0541 C   0  0  0  0  0  0
  -25.9018  -34.9486   23.5141 C   0  0  0  0  0  0
  -16.5323  -29.9062   23.6294 C   0  0  0  0  0  0
  -16.7245  -28.6477   23.0321 C   0  0  0  0  0  0
  -26.4450  -31.6599   25.0715 C   0  0  0  0  0  0
  -25.3742  -31.3681   26.1481 C   0  0  0  0  0  0
  -27.0272  -30.3057   24.6047 C   0  0  0  0  0  0
  -27.6030  -32.4311   25.7473 C   0  0  0  0  0  0
  -27.5578  -37.1823   24.8468 C   0  0  0  0  0  0
  -21.4097  -29.3048   22.3762 N   0  0  0  0  0  0
  -26.4291  -37.3807   23.9409 N   0  0  0  0  0  0
  -24.6585  -31.0862   22.1014 N   0  0  0  0  0  0
  -23.4161  -28.8237   23.3047 O   0  0  0  0  0  0
  -28.4640  -26.8253   20.0664 O   0  0  0  0  0  0
  -26.5595  -34.8923   22.4712 O   0  0  0  0  0  0
  -23.5301  -32.1450   23.7558 O   0  0  0  0  0  0
  -27.0901  -23.5311   22.0616 C   0  0  0  0  0  0
  -26.9473  -22.2706   21.4385 C   0  0  0  0  0  0
  -27.8695  -23.1177   19.4999 C   0  0  0  0  0  0
  -28.0122  -24.3852   20.1244 C   0  0  0  0  0  0
  -28.2799  -22.8765   18.0579 C   0  0  0  0  0  0
  -26.3273  -21.0995   22.1779 C   0  0  0  0  0  0
  -28.6023  -25.5816   19.3805 C   0  0  0  0  0  0
  -28.8332  -17.1593   22.1831 C   0  0  0  0  0  0
  -28.6981  -18.6839   22.2667 C   0  0  0  0  0  0
  -30.1211  -16.6595   21.5059 C   0  0  0  0  0  0
  -27.4664  -19.0765   23.1053 C   0  0  0  0  0  0
  -27.6362  -24.5844   21.4138 N   0  0  0  0  0  0
  -27.3454  -22.0549   20.1599 N   0  0  0  0  0  0
  -30.0385  -15.2101   21.4479 N   0  0  0  0  0  0
  -27.2679  -20.5383   23.1681 N   0  3  0  0  0  0
  -31.4738  -12.4162   19.0736 H   0  0  0  0  0  0
  -30.3673  -11.2495   19.7389 H   0  0  0  0  0  0
  -29.7154  -11.8068   17.3918 H   0  0  0  0  0  0
  -29.6559  -13.5099   17.7748 H   0  0  0  0  0  0
  -27.8093  -11.3159   18.7802 H   0  0  0  0  0  0
  -27.3573  -12.6761   17.7892 H   0  0  0  0  0  0
  -27.7465  -14.2442   19.6356 H   0  0  0  0  0  0
  -28.6751  -11.8191   21.2470 H   0  0  0  0  0  0
  -28.4557  -13.3930   21.9178 H   0  0  0  0  0  0
  -25.2740   -9.5693   22.4749 H   0  0  0  0  0  0
  -23.9995   -7.4638   22.7478 H   0  0  0  0  0  0
  -21.0825   -8.8765   19.8946 H   0  0  0  0  0  0
  -22.3680  -10.9664   19.6166 H   0  0  0  0  0  0
  -21.2011   -7.6146   23.9717 H   0  0  0  0  0  0
  -21.1469   -6.0512   25.9066 H   0  0  0  0  0  0
  -22.0611   -2.7609   23.2848 H   0  0  0  0  0  0
  -22.4091  -11.9894   22.4729 H   0  0  0  0  0  0
  -21.1136  -13.1295   22.2615 H   0  0  0  0  0  0
  -24.6787  -15.8448   20.4975 H   0  0  0  0  0  0
  -26.2977  -15.6064   20.0628 H   0  0  0  0  0  0
  -26.7075  -32.5568   23.1173 H   0  0  0  0  0  0
  -25.0042  -33.9796   25.0498 H   0  0  0  0  0  0
  -22.6817  -31.3109   21.4147 H   0  0  0  0  0  0
  -23.3739  -35.9676   23.3321 H   0  0  0  0  0  0
  -24.3586  -36.8925   22.2050 H   0  0  0  0  0  0
  -23.7244  -37.6544   23.6632 H   0  0  0  0  0  0
  -26.0214  -31.6028   20.5852 H   0  0  0  0  0  0
  -26.8124  -30.9046   21.9717 H   0  0  0  0  0  0
  -28.0871  -29.1414   21.1583 H   0  0  0  0  0  0
  -26.0513  -25.9910   19.0027 H   0  0  0  0  0  0
  -23.9789  -27.2805   19.0546 H   0  0  0  0  0  0
  -23.7078  -30.5943   19.4064 H   0  0  0  0  0  0
  -22.7257  -29.2395   19.8756 H   0  0  0  0  0  0
  -25.1278  -36.2002   25.0836 H   0  0  0  0  0  0
  -20.9923  -28.3223   24.1466 H   0  0  0  0  0  0
  -21.6646  -26.7473   22.1251 H   0  0  0  0  0  0
  -20.5672  -26.2267   23.3601 H   0  0  0  0  0  0
  -19.6916  -25.6300   21.1219 H   0  0  0  0  0  0
  -19.6696  -27.3187   20.6731 H   0  0  0  0  0  0
  -17.4185  -26.6653   21.4007 H   0  0  0  0  0  0
  -18.0327  -26.0022   22.8979 H   0  0  0  0  0  0
  -19.7899  -30.7213   24.2289 H   0  0  0  0  0  0
  -17.4980  -31.6242   24.5131 H   0  0  0  0  0  0
  -15.5325  -30.2977   23.7592 H   0  0  0  0  0  0
  -15.8641  -28.0786   22.7076 H   0  0  0  0  0  0
  -24.5913  -30.7021   25.7839 H   0  0  0  0  0  0
  -24.8928  -32.2825   26.4957 H   0  0  0  0  0  0
  -25.8117  -30.8844   27.0224 H   0  0  0  0  0  0
  -26.2799  -29.6828   24.1122 H   0  0  0  0  0  0
  -27.4100  -29.7259   25.4455 H   0  0  0  0  0  0
  -27.8600  -30.4403   23.9139 H   0  0  0  0  0  0
  -27.2650  -33.3598   26.2078 H   0  0  0  0  0  0
  -28.3818  -32.6894   25.0288 H   0  0  0  0  0  0
  -28.0718  -31.8420   26.5367 H   0  0  0  0  0  0
  -28.2618  -38.0106   24.7506 H   0  0  0  0  0  0
  -28.1054  -36.2635   24.6304 H   0  0  0  0  0  0
  -27.2298  -37.1495   25.8875 H   0  0  0  0  0  0
  -20.9264  -29.8787   21.6997 H   0  0  0  0  0  0
  -26.0190  -38.2891   24.1396 H   0  0  0  0  0  0
  -26.7762  -23.6890   23.0837 H   0  0  0  0  0  0
  -27.7009  -23.5073   17.3819 H   0  0  0  0  0  0
  -28.1222  -21.8376   17.7620 H   0  0  0  0  0  0
  -29.3368  -23.1095   17.9184 H   0  0  0  0  0  0
  -26.0096  -20.3462   21.4574 H   0  0  0  0  0  0
  -25.4206  -21.4398   22.6814 H   0  0  0  0  0  0
  -28.1940  -25.6585   18.3727 H   0  0  0  0  0  0
  -29.6695  -25.3981   19.2518 H   0  0  0  0  0  0
  -28.7890  -16.7427   23.1931 H   0  0  0  0  0  0
  -27.9628  -16.7652   21.6533 H   0  0  0  0  0  0
  -29.5997  -19.1076   22.7126 H   0  0  0  0  0  0
  -28.6210  -19.0961   21.2601 H   0  0  0  0  0  0
  -30.2126  -17.0636   20.4961 H   0  0  0  0  0  0
  -31.0062  -16.9704   22.0618 H   0  0  0  0  0  0
  -27.6135  -18.7168   24.1244 H   0  0  0  0  0  0
  -26.5664  -18.5761   22.7421 H   0  0  0  0  0  0
  -29.2370  -14.7951   21.8974 H   0  0  0  0  0  0
  -28.1587  -20.9986   23.0811 H   0  0  0  0  0  0
  -26.8963  -20.7555   24.0775 H   0  0  0  0  0  0
  1 25  1  0  0  0
  1 30  2  0  0  0
  1 84  1  0  0  0
  2  3  1  0  0  0
  2 25  1  0  0  0
  2 86  1  0  0  0
  2 87  1  0  0  0
  3  4  1  0  0  0
  3 88  1  0  0  0
  3 89  1  0  0  0
  4  5  1  0  0  0
  4 90  1  0  0  0
  4 91  1  0  0  0
  5  6  1  0  0  0
  5 26  1  0  0  0
  5 92  1  0  0  0
  6 25  1  0  0  0
  6 93  1  0  0  0
  6 94  1  0  0  0
  7  8  2  0  0  0
  7 26  1  0  0  0
  7 29  1  0  0  0
  8  9  1  0  0  0
  8 22  1  0  0  0
  9 10  1  0  0  0
  9 27  2  0  0  0
 10 11  2  0  0  0
 10 15  1  0  0  0
 11 12  1  0  0  0
 11 95  1  0  0  0
 12 13  2  0  0  0
 12 96  1  0  0  0
 13 14  1  0  0  0
 13 31  1  0  0  0
 14 15  2  0  0  0
 14 97  1  0  0  0
 15 98  1  0  0  0
 16 17  2  0  0  0
 16 21  1  0  0  0
 16 31  1  0  0  0
 17 18  1  0  0  0
 17 99  1  0  0  0
 18 19  2  0  0  0
 18100  1  0  0  0
 19 20  1  0  0  0
 19 24  1  0  0  0
 20 21  2  0  0  0
 20101  1  0  0  0
 21 23  1  0  0  0
 22 28  1  0  0  0
 22 32  2  0  0  0
 26 27  1  0  0  0
 28102  1  0  0  0
 28103  1  0  0  0
 29104  1  0  0  0
 29105  1  0  0  0
 33 34  1  0  0  0
 33 66  1  0  0  0
 33 70  2  0  0  0
 34 36  1  0  0  0
 34 59  1  0  0  0
 34106  1  0  0  0
 35 44  2  0  0  0
 35 45  1  0  0  0
 35 68  1  0  0  0
 36 56  1  0  0  0
 36107  1  0  0  0
 37 39  1  0  0  0
 37 47  1  0  0  0
 37 66  1  0  0  0
 37108  1  0  0  0
 38 43  2  0  0  0
 38 46  1  0  0  0
 38 47  1  0  0  0
 39 64  1  0  0  0
 39 67  2  0  0  0
 40 52  1  0  0  0
 40 53  2  0  0  0
 40 58  1  0  0  0
 41109  1  0  0  0
 41110  1  0  0  0
 41111  1  0  0  0
 41 48  1  0  0  0
 42 43  1  0  0  0
 42 66  1  0  0  0
 42112  1  0  0  0
 42113  1  0  0  0
 43 44  1  0  0  0
 44114  1  0  0  0
 45 46  2  0  0  0
 45115  1  0  0  0
 46116  1  0  0  0
 47117  1  0  0  0
 47118  1  0  0  0
 48 56  1  0  0  0
 48 65  1  0  0  0
 48119  1  0  0  0
 49 50  1  0  0  0
 49 53  1  0  0  0
 49 64  1  0  0  0
 49120  1  0  0  0
 50 51  1  0  0  0
 50121  1  0  0  0
 50122  1  0  0  0
 51 52  1  0  0  0
 51123  1  0  0  0
 51124  1  0  0  0
 52125  1  0  0  0
 52126  1  0  0  0
 53 54  1  0  0  0
 54 55  2  0  0  0
 54127  1  0  0  0
 55 57  1  0  0  0
 55128  1  0  0  0
 56 69  2  0  0  0
 57 58  2  0  0  0
 57129  1  0  0  0
 58130  1  0  0  0
 59 60  1  0  0  0
 59 61  1  0  0  0
 59 62  1  0  0  0
 60131  1  0  0  0
 60132  1  0  0  0
 60133  1  0  0  0
 61134  1  0  0  0
 61135  1  0  0  0
 61136  1  0  0  0
 62137  1  0  0  0
 62138  1  0  0  0
 62139  1  0  0  0
 63 65  1  0  0  0
 63140  1  0  0  0
 63141  1  0  0  0
 63142  1  0  0  0
 64143  1  0  0  0
 65144  1  0  0  0
 68 77  1  0  0  0
 71 72  2  0  0  0
 71 82  1  0  0  0
 71145  1  0  0  0
 72 76  1  0  0  0
 72 83  1  0  0  0
 73 74  1  0  0  0
 73 75  1  0  0  0
 73 83  2  0  0  0
 74 77  1  0  0  0
 74 82  2  0  0  0
 75146  1  0  0  0
 75147  1  0  0  0
 75148  1  0  0  0
 76 85  1  0  0  0
 76149  1  0  0  0
 76150  1  0  0  0
 77151  1  0  0  0
 77152  1  0  0  0
 78 79  1  0  0  0
 78 80  1  0  0  0
 78153  1  0  0  0
 78154  1  0  0  0
 79 81  1  0  0  0
 79155  1  0  0  0
 79156  1  0  0  0
 80 84  1  0  0  0
 80157  1  0  0  0
 80158  1  0  0  0
 81 85  1  0  0  0
 81159  1  0  0  0
 81160  1  0  0  0
 84161  1  0  0  0
 85162  1  0  0  0
 85163  1  0  0  0
M  CHG  1  85   1
M  ISO  4   1 100  68 101  77 101  84 100
M  END
> <chiral flag>
0

> <version>
0

> <s_m_source_file>
/data/baiqing/PycharmProjects/Reinvent-master-3.2/result/LINK_invent/BTK/process_docking_weight1_custom_sum_contain_oxygen_bond_distance_aromatic_linkinvent_7_9_3/rearranged_h_0047.sdf

> <i_m_source_file_index>
1

> <r_mmod_Potential_Energy-OPLS-2005>
-244.575775146484

> <r_mmod_Stretch_Energy-OPLS-2005>
33.7992134094238

> <r_mmod_Bend_Energy-OPLS-2005>
99.3578567504883

> <r_mmod_Torsional_Energy-OPLS-2005>
199.138061523438

> <r_mmod_Improper_Torsional_Energy-OPLS-2005>
3.25743818283081

> <r_mmod_Van_der_Waal_Energy-OPLS-2005>
159.17170715332

> <r_mmod_Electrostatic_Energy-OPLS-2005>
-245.014373779297

> <r_mmod_Solvation_Energy-OPLS-2005>
-503.248748779297

> <b_mmod_Minimization_Converged-OPLS-2005>
0

> <r_mmod_RMS_Derivative-OPLS-2005>
2.72354340553284

$$$$
1
                    3D
 Structure written by MMmdl.
162170  0  0  1  0            999 V2000
  -30.7276  -14.4472   20.5882 C   0  0  0  0  0  0
  -30.4114  -12.3007   19.4118 C   0  0  0  0  0  0
  -29.4909  -12.5277   18.1964 C   0  0  0  0  0  0
  -28.0097  -12.3949   18.6011 C   0  0  0  0  0  0
  -27.6607  -13.2156   19.8729 C   0  0  2  0  0  0
  -28.7045  -12.9801   20.9883 C   0  0  0  0  0  0
  -25.2598  -13.8165   20.5735 C   0  0  0  0  0  0
  -24.1862  -13.0444   20.9214 C   0  0  0  0  0  0
  -24.6402  -11.6907   20.8713 C   0  0  0  0  0  0
  -23.9063  -10.4310   21.0401 C   0  0  0  0  0  0
  -24.3619   -9.4244   21.9190 C   0  0  0  0  0  0
  -23.6313   -8.2264   22.0757 C   0  0  0  0  0  0
  -22.4290   -8.0297   21.3557 C   0  0  0  0  0  0
  -21.9911   -9.0258   20.4653 C   0  0  0  0  0  0
  -22.7216  -10.2156   20.3068 C   0  0  0  0  0  0
  -21.6850   -6.0744   22.5281 C   0  0  0  0  0  0
  -21.3992   -6.5636   23.8220 C   0  0  0  0  0  0
  -21.3680   -5.6789   24.9182 C   0  0  0  0  0  0
  -21.6060   -4.3052   24.7221 C   0  0  0  0  0  0
  -21.8817   -3.8150   23.4332 C   0  0  0  0  0  0
  -21.9190   -4.6975   22.3395 C   0  0  0  0  0  0
  -22.7888  -13.5252   21.1879 C   0  0  0  0  0  0
  -22.1668   -4.2176   21.0970 F   0  0  0  0  0  0
  -21.5669   -3.4535   25.7732 F   0  0  0  0  0  0
  -30.0387  -13.2805   20.4452 N   0  0  0  0  0  0
  -26.3038  -12.9358   20.3342 N   0  0  0  0  0  0
  -25.9322  -11.6498   20.5673 N   0  0  0  0  0  0
  -22.0471  -12.8283   22.0420 N   0  0  0  0  0  0
  -25.4259  -15.1889   20.4182 N   0  0  0  0  0  0
  -31.8308  -14.6186   20.0627 O   0  0  0  0  0  0
  -21.6654   -6.8893   21.4249 O   0  0  0  0  0  0
  -22.3613  -14.5567   20.6716 O   0  0  0  0  0  0
  -24.6146  -31.8655   23.2075 C   0  0  0  0  0  0
  -25.9025  -32.4840   23.8369 C   0  0  1  0  0  0
  -27.2455  -27.4307   20.0958 C   0  0  0  0  0  0
  -25.5868  -33.8639   24.2294 N   0  0  0  0  0  0
  -23.4040  -30.4903   21.5459 C   0  0  2  0  0  0
  -24.8550  -28.9563   20.1138 C   0  0  0  0  0  0
  -22.7453  -29.4641   22.4962 C   0  0  0  0  0  0
  -18.0299  -28.1367   22.8524 C   0  0  0  0  0  0
  -24.1494  -36.7294   23.2635 C   0  0  0  0  0  0
  -25.9356  -30.8373   21.3564 C   0  0  0  0  0  0
  -26.0169  -29.4720   20.6988 C   0  0  0  0  0  0
  -27.2172  -28.7217   20.6761 C   0  0  0  0  0  0
  -26.0597  -26.9308   19.5079 C   0  0  0  0  0  0
  -24.8710  -27.6856   19.5159 C   0  0  0  0  0  0
  -23.6131  -29.8187   20.1621 C   0  0  0  0  0  0
  -25.4110  -36.3108   24.0340 C   0  0  1  0  0  0
  -20.5899  -28.3628   23.1321 C   0  0  2  0  0  0
  -20.6770  -26.9360   22.5394 C   0  0  0  0  0  0
  -19.5718  -26.6385   21.5212 C   0  0  0  0  0  0
  -18.1917  -26.7929   22.1654 C   0  0  0  0  0  0
  -19.1556  -28.8819   23.2926 C   0  0  0  0  0  0
  -18.9479  -30.1441   23.8905 C   0  0  0  0  0  0
  -17.6476  -30.6564   24.0579 C   0  0  0  0  0  0
  -25.9033  -34.9487   23.5115 C   0  0  0  0  0  0
  -16.5366  -29.9070   23.6334 C   0  0  0  0  0  0
  -16.7291  -28.6493   23.0349 C   0  0  0  0  0  0
  -26.4433  -31.6648   25.0716 C   0  0  0  0  0  0
  -25.3692  -31.3838   26.1484 C   0  0  0  0  0  0
  -27.0213  -30.3075   24.6093 C   0  0  0  0  0  0
  -27.6018  -32.4354   25.7468 C   0  0  0  0  0  0
  -27.5580  -37.1782   24.8474 C   0  0  0  0  0  0
  -21.4165  -29.3025   22.3748 N   0  0  0  0  0  0
  -26.4292  -37.3785   23.9426 N   0  0  0  0  0  0
  -24.6699  -31.0775   22.0962 N   0  0  0  0  0  0
  -23.4254  -28.8173   23.2951 O   0  0  0  0  0  0
  -28.4187  -26.6957   20.1250 O   0  0  0  0  0  0
  -26.5607  -34.8937   22.4687 O   0  0  0  0  0  0
  -23.5334  -32.1391   23.7481 O   0  0  0  0  0  0
  -28.4697  -21.0980   21.6884 C   0  0  0  0  0  0
  -29.1012  -20.5717   20.5816 C   0  0  0  0  0  0
  -29.3319  -23.0420   20.8227 C   0  0  0  0  0  0
  -28.1391  -19.1212   23.3086 C   0  0  0  0  0  0
  -31.3997  -18.5411   20.6196 C   0  0  0  0  0  0
  -27.5779  -20.4106   22.6916 C   0  0  0  0  0  0
  -29.0671  -19.1549   20.0533 C   0  0  0  0  0  0
  -29.5367  -24.5290   20.6802 C   0  0  0  0  0  0
  -30.1307  -15.6724   21.3107 C   0  0  0  0  0  0
  -29.6802  -16.7744   20.3076 C   0  0  0  0  0  0
  -28.2860  -25.2622   20.1404 C   0  0  0  0  0  0
  -28.6445  -22.4831   21.8230 N   0  0  0  0  0  0
  -29.9642  -18.1793   20.7383 N   0  3  1  0  0  0
  -29.8979  -21.8390   19.6629 S   0  0  0  0  0  0
  -31.4600  -12.3715   19.1172 H   0  0  0  0  0  0
  -30.2795  -11.2875   19.7917 H   0  0  0  0  0  0
  -29.7283  -11.8165   17.4046 H   0  0  0  0  0  0
  -29.6713  -13.5189   17.7792 H   0  0  0  0  0  0
  -27.8114  -11.3364   18.7748 H   0  0  0  0  0  0
  -27.3632  -12.6923   17.7732 H   0  0  0  0  0  0
  -27.7025  -14.2676   19.5931 H   0  0  0  0  0  0
  -28.6761  -11.9356   21.3027 H   0  0  0  0  0  0
  -28.4576  -13.5451   21.8854 H   0  0  0  0  0  0
  -25.2754   -9.5765   22.4781 H   0  0  0  0  0  0
  -24.0061   -7.4664   22.7448 H   0  0  0  0  0  0
  -21.0857   -8.8718   19.8958 H   0  0  0  0  0  0
  -22.3610  -10.9698   19.6208 H   0  0  0  0  0  0
  -21.1932   -7.6132   23.9742 H   0  0  0  0  0  0
  -21.1545   -6.0502   25.9100 H   0  0  0  0  0  0
  -22.0580   -2.7615   23.2801 H   0  0  0  0  0  0
  -22.3973  -11.9935   22.4881 H   0  0  0  0  0  0
  -21.1093  -13.1401   22.2530 H   0  0  0  0  0  0
  -24.6406  -15.8262   20.5111 H   0  0  0  0  0  0
  -26.2632  -15.6394   20.0767 H   0  0  0  0  0  0
  -26.7127  -32.5533   23.1149 H   0  0  0  0  0  0
  -25.0028  -33.9834   25.0451 H   0  0  0  0  0  0
  -22.6907  -31.3050   21.4029 H   0  0  0  0  0  0
  -23.3772  -35.9611   23.3316 H   0  0  0  0  0  0
  -24.3586  -36.8882   22.2043 H   0  0  0  0  0  0
  -23.7242  -37.6507   23.6633 H   0  0  0  0  0  0
  -26.0458  -31.6102   20.5950 H   0  0  0  0  0  0
  -26.8249  -30.8906   21.9728 H   0  0  0  0  0  0
  -28.1180  -29.1212   21.1222 H   0  0  0  0  0  0
  -26.0408  -25.9547   19.0438 H   0  0  0  0  0  0
  -23.9735  -27.2824   19.0681 H   0  0  0  0  0  0
  -23.7122  -30.5907   19.3962 H   0  0  0  0  0  0
  -22.7398  -29.2307   19.8689 H   0  0  0  0  0  0
  -25.1291  -36.1943   25.0830 H   0  0  0  0  0  0
  -21.0029  -28.3153   24.1422 H   0  0  0  0  0  0
  -20.5677  -26.2202   23.3563 H   0  0  0  0  0  0
  -21.6628  -26.7385   22.1144 H   0  0  0  0  0  0
  -19.6848  -25.6320   21.1170 H   0  0  0  0  0  0
  -19.6638  -27.3268   20.6803 H   0  0  0  0  0  0
  -17.4173  -26.6725   21.4071 H   0  0  0  0  0  0
  -18.0293  -26.0063   22.9030 H   0  0  0  0  0  0
  -19.7954  -30.7282   24.2239 H   0  0  0  0  0  0
  -17.5022  -31.6252   24.5184 H   0  0  0  0  0  0
  -15.5366  -30.2956   23.7655 H   0  0  0  0  0  0
  -15.8710  -28.0831   22.7001 H   0  0  0  0  0  0
  -24.5854  -30.7162   25.7886 H   0  0  0  0  0  0
  -24.8887  -32.3036   26.4838 H   0  0  0  0  0  0
  -25.8033  -30.9113   27.0299 H   0  0  0  0  0  0
  -26.2744  -29.6922   24.1065 H   0  0  0  0  0  0
  -27.3889  -29.7235   25.4539 H   0  0  0  0  0  0
  -27.8621  -30.4389   23.9278 H   0  0  0  0  0  0
  -27.2647  -33.3645   26.2064 H   0  0  0  0  0  0
  -28.3813  -32.6934   25.0293 H   0  0  0  0  0  0
  -28.0688  -31.8463   26.5368 H   0  0  0  0  0  0
  -28.2613  -38.0065   24.7521 H   0  0  0  0  0  0
  -28.1059  -36.2600   24.6302 H   0  0  0  0  0  0
  -27.2290  -37.1434   25.8874 H   0  0  0  0  0  0
  -20.9293  -29.8816   21.7058 H   0  0  0  0  0  0
  -26.0191  -38.2857   24.1456 H   0  0  0  0  0  0
  -27.5044  -18.8035   24.1374 H   0  0  0  0  0  0
  -29.1455  -19.2649   23.7022 H   0  0  0  0  0  0
  -28.1455  -18.2935   22.6018 H   0  0  0  0  0  0
  -32.0415  -17.8313   21.1403 H   0  0  0  0  0  0
  -31.5913  -19.5185   21.0597 H   0  0  0  0  0  0
  -31.7148  -18.5814   19.5760 H   0  0  0  0  0  0
  -26.6181  -20.1908   22.2248 H   0  0  0  0  0  0
  -27.3516  -21.0970   23.5071 H   0  0  0  0  0  0
  -29.2976  -19.1552   18.9858 H   0  0  0  0  0  0
  -28.0403  -18.7965   20.1311 H   0  0  0  0  0  0
  -30.3798  -24.7036   20.0117 H   0  0  0  0  0  0
  -29.8341  -24.9329   21.6497 H   0  0  0  0  0  0
  -29.3241  -15.4398   21.9996 H   0  0  0  0  0  0
  -30.9221  -16.0449   21.9604 H   0  0  0  0  0  0
  -28.6062  -16.6447   20.1644 H   0  0  0  0  0  0
  -30.1150  -16.6248   19.3166 H   0  0  0  0  0  0
  -28.0663  -24.9038   19.1332 H   0  0  0  0  0  0
  -27.4457  -24.9850   20.7808 H   0  0  0  0  0  0
  -29.7301  -18.2333   21.7165 H   0  0  0  0  0  0
  1 25  1  0  0  0
  1 30  2  0  0  0
  1 79  1  0  0  0
  2  3  1  0  0  0
  2 25  1  0  0  0
  2 85  1  0  0  0
  2 86  1  0  0  0
  3  4  1  0  0  0
  3 87  1  0  0  0
  3 88  1  0  0  0
  4  5  1  0  0  0
  4 89  1  0  0  0
  4 90  1  0  0  0
  5  6  1  0  0  0
  5 26  1  0  0  0
  5 91  1  0  0  0
  6 25  1  0  0  0
  6 92  1  0  0  0
  6 93  1  0  0  0
  7  8  2  0  0  0
  7 26  1  0  0  0
  7 29  1  0  0  0
  8  9  1  0  0  0
  8 22  1  0  0  0
  9 10  1  0  0  0
  9 27  2  0  0  0
 10 11  2  0  0  0
 10 15  1  0  0  0
 11 12  1  0  0  0
 11 94  1  0  0  0
 12 13  2  0  0  0
 12 95  1  0  0  0
 13 14  1  0  0  0
 13 31  1  0  0  0
 14 15  2  0  0  0
 14 96  1  0  0  0
 15 97  1  0  0  0
 16 17  2  0  0  0
 16 21  1  0  0  0
 16 31  1  0  0  0
 17 18  1  0  0  0
 17 98  1  0  0  0
 18 19  2  0  0  0
 18 99  1  0  0  0
 19 20  1  0  0  0
 19 24  1  0  0  0
 20 21  2  0  0  0
 20100  1  0  0  0
 21 23  1  0  0  0
 22 28  1  0  0  0
 22 32  2  0  0  0
 26 27  1  0  0  0
 28101  1  0  0  0
 28102  1  0  0  0
 29103  1  0  0  0
 29104  1  0  0  0
 33 34  1  0  0  0
 33 66  1  0  0  0
 33 70  2  0  0  0
 34 36  1  0  0  0
 34 59  1  0  0  0
 34105  1  0  0  0
 35 44  2  0  0  0
 35 45  1  0  0  0
 35 68  1  0  0  0
 36 56  1  0  0  0
 36106  1  0  0  0
 37 39  1  0  0  0
 37 47  1  0  0  0
 37 66  1  0  0  0
 37107  1  0  0  0
 38 43  2  0  0  0
 38 46  1  0  0  0
 38 47  1  0  0  0
 39 64  1  0  0  0
 39 67  2  0  0  0
 40 52  1  0  0  0
 40 53  2  0  0  0
 40 58  1  0  0  0
 41108  1  0  0  0
 41109  1  0  0  0
 41110  1  0  0  0
 41 48  1  0  0  0
 42 43  1  0  0  0
 42 66  1  0  0  0
 42111  1  0  0  0
 42112  1  0  0  0
 43 44  1  0  0  0
 44113  1  0  0  0
 45 46  2  0  0  0
 45114  1  0  0  0
 46115  1  0  0  0
 47116  1  0  0  0
 47117  1  0  0  0
 48 56  1  0  0  0
 48 65  1  0  0  0
 48118  1  0  0  0
 49 50  1  0  0  0
 49 53  1  0  0  0
 49 64  1  0  0  0
 49119  1  0  0  0
 50 51  1  0  0  0
 50120  1  0  0  0
 50121  1  0  0  0
 51 52  1  0  0  0
 51122  1  0  0  0
 51123  1  0  0  0
 52124  1  0  0  0
 52125  1  0  0  0
 53 54  1  0  0  0
 54 55  2  0  0  0
 54126  1  0  0  0
 55 57  1  0  0  0
 55127  1  0  0  0
 56 69  2  0  0  0
 57 58  2  0  0  0
 57128  1  0  0  0
 58129  1  0  0  0
 59 60  1  0  0  0
 59 61  1  0  0  0
 59 62  1  0  0  0
 60130  1  0  0  0
 60131  1  0  0  0
 60132  1  0  0  0
 61133  1  0  0  0
 61134  1  0  0  0
 61135  1  0  0  0
 62136  1  0  0  0
 62137  1  0  0  0
 62138  1  0  0  0
 63 65  1  0  0  0
 63139  1  0  0  0
 63140  1  0  0  0
 63141  1  0  0  0
 64142  1  0  0  0
 65143  1  0  0  0
 68 81  1  0  0  0
 71 72  2  0  0  0
 71 76  1  0  0  0
 71 82  1  0  0  0
 72 77  1  0  0  0
 72 84  1  0  0  0
 73 78  1  0  0  0
 73 82  2  0  0  0
 73 84  1  0  0  0
 74 76  1  0  0  0
 74144  1  0  0  0
 74145  1  0  0  0
 74146  1  0  0  0
 75147  1  0  0  0
 75148  1  0  0  0
 75149  1  0  0  0
 75 83  1  0  0  0
 76150  1  0  0  0
 76151  1  0  0  0
 77 83  1  0  0  0
 77152  1  0  0  0
 77153  1  0  0  0
 78 81  1  0  0  0
 78154  1  0  0  0
 78155  1  0  0  0
 79 80  1  0  0  0
 79156  1  0  0  0
 79157  1  0  0  0
 80 83  1  0  0  0
 80158  1  0  0  0
 80159  1  0  0  0
 81160  1  0  0  0
 81161  1  0  0  0
 83162  1  0  0  0
M  CHG  1  83   1
M  ISO  4   1 100  68 101  79 100  81 101
M  END
> <chiral flag>
0

> <version>
0

> <s_m_source_file>
/data/baiqing/PycharmProjects/Reinvent-master-3.2/result/LINK_invent/BTK/process_docking_weight1_custom_sum_contain_oxygen_bond_distance_aromatic_linkinvent_7_9_3/rearranged_h_0047.sdf

> <i_m_source_file_index>
2

> <r_mmod_Potential_Energy-OPLS-2005>
-262.018280029297

> <r_mmod_Stretch_Energy-OPLS-2005>
37.7395896911621

> <r_mmod_Bend_Energy-OPLS-2005>
104.527313232422

> <r_mmod_Torsional_Energy-OPLS-2005>
159.732482910156

> <r_mmod_Improper_Torsional_Energy-OPLS-2005>
3.22034549713135

> <r_mmod_Van_der_Waal_Energy-OPLS-2005>
122.490089416504

> <r_mmod_Electrostatic_Energy-OPLS-2005>
-266.576019287109

> <r_mmod_Solvation_Energy-OPLS-2005>
-435.141082763672

> <b_mmod_Minimization_Converged-OPLS-2005>
0

> <r_mmod_RMS_Derivative-OPLS-2005>
3.62383079528809

$$$$
2
                    3D
 Structure written by MMmdl.
157165  0  0  1  0            999 V2000
  -30.6949  -14.4973   20.5223 C   0  0  0  0  0  0
  -30.4150  -12.3114   19.4367 C   0  0  0  0  0  0
  -29.4945  -12.4857   18.2123 C   0  0  0  0  0  0
  -28.0152  -12.3590   18.6243 C   0  0  0  0  0  0
  -27.6523  -13.2141   19.8666 C   0  0  2  0  0  0
  -28.6940  -13.0376   20.9932 C   0  0  0  0  0  0
  -25.2553  -13.8190   20.5691 C   0  0  0  0  0  0
  -24.1810  -13.0446   20.9209 C   0  0  0  0  0  0
  -24.6372  -11.6919   20.8735 C   0  0  0  0  0  0
  -23.9036  -10.4296   21.0401 C   0  0  0  0  0  0
  -24.3600   -9.4217   21.9174 C   0  0  0  0  0  0
  -23.6292   -8.2239   22.0746 C   0  0  0  0  0  0
  -22.4271   -8.0270   21.3541 C   0  0  0  0  0  0
  -21.9895   -9.0231   20.4635 C   0  0  0  0  0  0
  -22.7207  -10.2120   20.3056 C   0  0  0  0  0  0
  -21.6856   -6.0733   22.5268 C   0  0  0  0  0  0
  -21.4005   -6.5632   23.8195 C   0  0  0  0  0  0
  -21.3672   -5.6786   24.9167 C   0  0  0  0  0  0
  -21.6062   -4.3048   24.7216 C   0  0  0  0  0  0
  -21.8826   -3.8144   23.4333 C   0  0  0  0  0  0
  -21.9190   -4.6964   22.3393 C   0  0  0  0  0  0
  -22.7837  -13.5220   21.1879 C   0  0  0  0  0  0
  -22.1661   -4.2151   21.0962 F   0  0  0  0  0  0
  -21.5641   -3.4528   25.7722 F   0  0  0  0  0  0
  -30.0193  -13.3216   20.4300 N   0  0  0  0  0  0
  -26.2961  -12.9350   20.3328 N   0  0  0  0  0  0
  -25.9299  -11.6515   20.5752 N   0  0  0  0  0  0
  -22.0482  -12.8187   22.0437 N   0  0  0  0  0  0
  -25.4290  -15.1899   20.4083 N   0  0  0  0  0  0
  -31.8555  -14.6248   20.1254 O   0  0  0  0  0  0
  -21.6643   -6.8857   21.4232 O   0  0  0  0  0  0
  -22.3502  -14.5508   20.6734 O   0  0  0  0  0  0
  -24.6144  -31.8686   23.2092 C   0  0  0  0  0  0
  -25.9029  -32.4831   23.8387 C   0  0  1  0  0  0
  -27.2339  -27.4314   20.0902 C   0  0  0  0  0  0
  -25.5869  -33.8620   24.2307 N   0  0  0  0  0  0
  -23.4016  -30.4907   21.5538 C   0  0  2  0  0  0
  -24.8481  -28.9630   20.1135 C   0  0  0  0  0  0
  -22.7417  -29.4640   22.5019 C   0  0  0  0  0  0
  -18.0256  -28.1385   22.8501 C   0  0  0  0  0  0
  -24.1487  -36.7323   23.2634 C   0  0  0  0  0  0
  -25.9324  -30.8395   21.3564 C   0  0  0  0  0  0
  -26.0124  -29.4733   20.7019 C   0  0  0  0  0  0
  -27.2092  -28.7173   20.6837 C   0  0  0  0  0  0
  -26.0488  -26.9443   19.4901 C   0  0  0  0  0  0
  -24.8638  -27.7001   19.5032 C   0  0  0  0  0  0
  -23.6071  -29.8262   20.1688 C   0  0  0  0  0  0
  -25.4113  -36.3120   24.0337 C   0  0  1  0  0  0
  -20.5859  -28.3656   23.1344 C   0  0  2  0  0  0
  -20.6744  -26.9385   22.5445 C   0  0  0  0  0  0
  -19.5712  -26.6391   21.5240 C   0  0  0  0  0  0
  -18.1888  -26.7930   22.1644 C   0  0  0  0  0  0
  -19.1514  -28.8845   23.2911 C   0  0  0  0  0  0
  -18.9439  -30.1452   23.8907 C   0  0  0  0  0  0
  -17.6438  -30.6584   24.0572 C   0  0  0  0  0  0
  -25.9043  -34.9480   23.5131 C   0  0  0  0  0  0
  -16.5330  -29.9092   23.6330 C   0  0  0  0  0  0
  -16.7247  -28.6520   23.0334 C   0  0  0  0  0  0
  -26.4444  -31.6608   25.0712 C   0  0  0  0  0  0
  -25.3692  -31.3747   26.1463 C   0  0  0  0  0  0
  -27.0259  -30.3038   24.6090 C   0  0  0  0  0  0
  -27.6031  -32.4328   25.7460 C   0  0  0  0  0  0
  -27.5583  -37.1802   24.8462 C   0  0  0  0  0  0
  -21.4147  -29.3011   22.3764 N   0  0  0  0  0  0
  -26.4289  -37.3803   23.9418 N   0  0  0  0  0  0
  -24.6691  -31.0805   22.0981 N   0  0  0  0  0  0
  -23.4201  -28.8169   23.3030 O   0  0  0  0  0  0
  -28.3971  -26.6797   20.1072 O   0  0  0  0  0  0
  -26.5610  -34.8923   22.4697 O   0  0  0  0  0  0
  -23.5339  -32.1436   23.7503 O   0  0  0  0  0  0
  -28.5680  -22.5426   21.9714 C   0  0  0  0  0  0
  -29.3126  -23.0593   20.9392 C   0  0  0  0  0  0
  -29.6334  -20.8275   21.0210 C   0  0  0  0  0  0
  -28.2113  -20.2708   22.9937 C   0  0  0  0  0  0
  -29.5351  -24.4855   20.4888 C   0  0  0  0  0  0
  -30.2960  -19.4945   20.7089 C   0  0  0  0  0  0
  -29.5692  -18.1450   20.9946 C   0  0  0  0  0  0
  -30.4688  -16.9532   20.5622 C   0  0  0  0  0  0
  -28.2221  -25.2533   20.2221 C   0  0  0  0  0  0
  -28.7849  -21.1856   22.0056 N   0  0  0  0  0  0
  -29.9426  -21.9689   20.3817 N   0  3  0  0  0  0
  -29.9670  -15.5918   20.8375 N   0  0  0  0  0  0
  -31.4609  -12.4034   19.1365 H   0  0  0  0  0  0
  -30.3118  -11.3112   19.8578 H   0  0  0  0  0  0
  -29.7357  -11.7435   17.4504 H   0  0  0  0  0  0
  -29.6676  -13.4627   17.7568 H   0  0  0  0  0  0
  -27.8247  -11.3048   18.8292 H   0  0  0  0  0  0
  -27.3715  -12.6265   17.7855 H   0  0  0  0  0  0
  -27.6810  -14.2563   19.5484 H   0  0  0  0  0  0
  -28.6682  -12.0189   21.3800 H   0  0  0  0  0  0
  -28.4652  -13.6856   21.8406 H   0  0  0  0  0  0
  -25.2758   -9.5685   22.4736 H   0  0  0  0  0  0
  -24.0026   -7.4620   22.7447 H   0  0  0  0  0  0
  -21.0843   -8.8715   19.8919 H   0  0  0  0  0  0
  -22.3660  -10.9648   19.6156 H   0  0  0  0  0  0
  -21.1979   -7.6144   23.9693 H   0  0  0  0  0  0
  -21.1503   -6.0523   25.9070 H   0  0  0  0  0  0
  -22.0601   -2.7612   23.2823 H   0  0  0  0  0  0
  -22.4111  -11.9866   22.4835 H   0  0  0  0  0  0
  -21.1083  -13.1176   22.2625 H   0  0  0  0  0  0
  -24.6642  -15.8504   20.5057 H   0  0  0  0  0  0
  -26.2768  -15.6191   20.0612 H   0  0  0  0  0  0
  -26.7091  -32.5562   23.1150 H   0  0  0  0  0  0
  -24.9920  -33.9771   25.0389 H   0  0  0  0  0  0
  -22.6883  -31.3074   21.4182 H   0  0  0  0  0  0
  -23.3739  -35.9656   23.3305 H   0  0  0  0  0  0
  -24.3578  -36.8947   22.2047 H   0  0  0  0  0  0
  -23.7249  -37.6531   23.6655 H   0  0  0  0  0  0
  -26.0397  -31.6109   20.5926 H   0  0  0  0  0  0
  -26.8186  -30.8959   21.9760 H   0  0  0  0  0  0
  -28.1072  -29.1112   21.1388 H   0  0  0  0  0  0
  -26.0143  -25.9831   18.9987 H   0  0  0  0  0  0
  -23.9714  -27.3057   19.0383 H   0  0  0  0  0  0
  -23.7023  -30.6013   19.4096 H   0  0  0  0  0  0
  -22.7334  -29.2424   19.8777 H   0  0  0  0  0  0
  -25.1284  -36.1967   25.0825 H   0  0  0  0  0  0
  -20.9927  -28.3209   24.1479 H   0  0  0  0  0  0
  -20.5685  -26.2229   23.3622 H   0  0  0  0  0  0
  -21.6596  -26.7444   22.1198 H   0  0  0  0  0  0
  -19.6865  -25.6323   21.1220 H   0  0  0  0  0  0
  -19.6657  -27.3242   20.6802 H   0  0  0  0  0  0
  -17.4161  -26.6690   21.4039 H   0  0  0  0  0  0
  -18.0256  -26.0093   22.9056 H   0  0  0  0  0  0
  -19.7922  -30.7263   24.2272 H   0  0  0  0  0  0
  -17.4997  -31.6257   24.5169 H   0  0  0  0  0  0
  -15.5327  -30.2973   23.7688 H   0  0  0  0  0  0
  -15.8647  -28.0857   22.7014 H   0  0  0  0  0  0
  -24.5828  -30.7138   25.7800 H   0  0  0  0  0  0
  -24.8906  -32.2914   26.4907 H   0  0  0  0  0  0
  -25.8006  -30.8900   27.0228 H   0  0  0  0  0  0
  -26.2796  -29.6820   24.1117 H   0  0  0  0  0  0
  -27.3992  -29.7265   25.4564 H   0  0  0  0  0  0
  -27.8650  -30.4351   23.9249 H   0  0  0  0  0  0
  -27.2636  -33.3609   26.2070 H   0  0  0  0  0  0
  -28.3783  -32.6933   25.0239 H   0  0  0  0  0  0
  -28.0733  -31.8427   26.5340 H   0  0  0  0  0  0
  -28.2604  -38.0097   24.7501 H   0  0  0  0  0  0
  -28.1073  -36.2628   24.6278 H   0  0  0  0  0  0
  -27.2293  -37.1430   25.8860 H   0  0  0  0  0  0
  -20.9309  -29.8754   21.7008 H   0  0  0  0  0  0
  -26.0193  -38.2883   24.1405 H   0  0  0  0  0  0
  -27.9364  -23.0418   22.6936 H   0  0  0  0  0  0
  -27.6615  -19.4819   22.4830 H   0  0  0  0  0  0
  -27.5134  -20.8135   23.6305 H   0  0  0  0  0  0
  -29.0112  -19.8534   23.6076 H   0  0  0  0  0  0
  -30.1557  -24.4958   19.5934 H   0  0  0  0  0  0
  -30.1035  -24.9991   21.2655 H   0  0  0  0  0  0
  -31.2494  -19.5194   21.2396 H   0  0  0  0  0  0
  -30.5394  -19.5393   19.6450 H   0  0  0  0  0  0
  -28.6127  -18.1222   20.4640 H   0  0  0  0  0  0
  -29.3528  -18.0415   22.0582 H   0  0  0  0  0  0
  -30.6550  -17.0350   19.4880 H   0  0  0  0  0  0
  -31.4425  -17.0584   21.0457 H   0  0  0  0  0  0
  -27.5277  -25.0624   21.0428 H   0  0  0  0  0  0
  -27.7765  -24.8435   19.3162 H   0  0  0  0  0  0
  -30.5970  -22.0154   19.6079 H   0  0  0  0  0  0
  -29.0004  -15.4646   21.1009 H   0  0  0  0  0  0
  1 25  1  0  0  0
  1 30  2  0  0  0
  1 82  1  0  0  0
  2  3  1  0  0  0
  2 25  1  0  0  0
  2 83  1  0  0  0
  2 84  1  0  0  0
  3  4  1  0  0  0
  3 85  1  0  0  0
  3 86  1  0  0  0
  4  5  1  0  0  0
  4 87  1  0  0  0
  4 88  1  0  0  0
  5  6  1  0  0  0
  5 26  1  0  0  0
  5 89  1  0  0  0
  6 25  1  0  0  0
  6 90  1  0  0  0
  6 91  1  0  0  0
  7  8  2  0  0  0
  7 26  1  0  0  0
  7 29  1  0  0  0
  8  9  1  0  0  0
  8 22  1  0  0  0
  9 10  1  0  0  0
  9 27  2  0  0  0
 10 11  2  0  0  0
 10 15  1  0  0  0
 11 12  1  0  0  0
 11 92  1  0  0  0
 12 13  2  0  0  0
 12 93  1  0  0  0
 13 14  1  0  0  0
 13 31  1  0  0  0
 14 15  2  0  0  0
 14 94  1  0  0  0
 15 95  1  0  0  0
 16 17  2  0  0  0
 16 21  1  0  0  0
 16 31  1  0  0  0
 17 18  1  0  0  0
 17 96  1  0  0  0
 18 19  2  0  0  0
 18 97  1  0  0  0
 19 20  1  0  0  0
 19 24  1  0  0  0
 20 21  2  0  0  0
 20 98  1  0  0  0
 21 23  1  0  0  0
 22 28  1  0  0  0
 22 32  2  0  0  0
 26 27  1  0  0  0
 28 99  1  0  0  0
 28100  1  0  0  0
 29101  1  0  0  0
 29102  1  0  0  0
 33 34  1  0  0  0
 33 66  1  0  0  0
 33 70  2  0  0  0
 34 36  1  0  0  0
 34 59  1  0  0  0
 34103  1  0  0  0
 35 44  2  0  0  0
 35 45  1  0  0  0
 35 68  1  0  0  0
 36 56  1  0  0  0
 36104  1  0  0  0
 37 39  1  0  0  0
 37 47  1  0  0  0
 37 66  1  0  0  0
 37105  1  0  0  0
 38 43  2  0  0  0
 38 46  1  0  0  0
 38 47  1  0  0  0
 39 64  1  0  0  0
 39 67  2  0  0  0
 40 52  1  0  0  0
 40 53  2  0  0  0
 40 58  1  0  0  0
 41106  1  0  0  0
 41107  1  0  0  0
 41108  1  0  0  0
 41 48  1  0  0  0
 42 43  1  0  0  0
 42 66  1  0  0  0
 42109  1  0  0  0
 42110  1  0  0  0
 43 44  1  0  0  0
 44111  1  0  0  0
 45 46  2  0  0  0
 45112  1  0  0  0
 46113  1  0  0  0
 47114  1  0  0  0
 47115  1  0  0  0
 48 56  1  0  0  0
 48 65  1  0  0  0
 48116  1  0  0  0
 49 50  1  0  0  0
 49 53  1  0  0  0
 49 64  1  0  0  0
 49117  1  0  0  0
 50 51  1  0  0  0
 50118  1  0  0  0
 50119  1  0  0  0
 51 52  1  0  0  0
 51120  1  0  0  0
 51121  1  0  0  0
 52122  1  0  0  0
 52123  1  0  0  0
 53 54  1  0  0  0
 54 55  2  0  0  0
 54124  1  0  0  0
 55 57  1  0  0  0
 55125  1  0  0  0
 56 69  2  0  0  0
 57 58  2  0  0  0
 57126  1  0  0  0
 58127  1  0  0  0
 59 60  1  0  0  0
 59 61  1  0  0  0
 59 62  1  0  0  0
 60128  1  0  0  0
 60129  1  0  0  0
 60130  1  0  0  0
 61131  1  0  0  0
 61132  1  0  0  0
 61133  1  0  0  0
 62134  1  0  0  0
 62135  1  0  0  0
 62136  1  0  0  0
 63 65  1  0  0  0
 63137  1  0  0  0
 63138  1  0  0  0
 63139  1  0  0  0
 64140  1  0  0  0
 65141  1  0  0  0
 68 79  1  0  0  0
 71 72  2  0  0  0
 71 80  1  0  0  0
 71142  1  0  0  0
 72 75  1  0  0  0
 72 81  1  0  0  0
 73 76  1  0  0  0
 73 80  1  0  0  0
 73 81  2  0  0  0
 74 80  1  0  0  0
 74143  1  0  0  0
 74144  1  0  0  0
 74145  1  0  0  0
 75 79  1  0  0  0
 75146  1  0  0  0
 75147  1  0  0  0
 76 77  1  0  0  0
 76148  1  0  0  0
 76149  1  0  0  0
 77 78  1  0  0  0
 77150  1  0  0  0
 77151  1  0  0  0
 78 82  1  0  0  0
 78152  1  0  0  0
 78153  1  0  0  0
 79154  1  0  0  0
 79155  1  0  0  0
 81156  1  0  0  0
 82157  1  0  0  0
M  CHG  1  81   1
M  ISO  4   1 100  68 101  79 101  82 100
M  END
> <chiral flag>
0

> <version>
0

> <s_m_source_file>
/data/baiqing/PycharmProjects/Reinvent-master-3.2/result/LINK_invent/BTK/process_docking_weight1_custom_sum_contain_oxygen_bond_distance_aromatic_linkinvent_7_9_3/rearranged_h_0047.sdf

> <i_m_source_file_index>
3

> <r_mmod_Potential_Energy-OPLS-2005>
-112.660209655762

> <r_mmod_Stretch_Energy-OPLS-2005>
37.3965034484863

> <r_mmod_Bend_Energy-OPLS-2005>
103.097457885742

> <r_mmod_Torsional_Energy-OPLS-2005>
213.965545654297

> <r_mmod_Improper_Torsional_Energy-OPLS-2005>
6.54605674743652

> <r_mmod_Van_der_Waal_Energy-OPLS-2005>
134.586898803711

> <r_mmod_Electrostatic_Energy-OPLS-2005>
-198.147262573242

> <r_mmod_Solvation_Energy-OPLS-2005>
-427.541687011719

> <b_mmod_Minimization_Converged-OPLS-2005>
0

> <r_mmod_RMS_Derivative-OPLS-2005>
3.35651803016663

$$$$
3
                    3D
 Structure written by MMmdl.
149157  0  0  1  0            999 V2000
  -30.3677  -15.3071   20.3913 C   0  0  0  0  0  0
  -30.4594  -12.8414   19.5239 C   0  0  0  0  0  0
  -29.5436  -12.5941   18.2920 C   0  0  0  0  0  0
  -28.0900  -12.3071   18.7138 C   0  0  0  0  0  0
  -27.6181  -13.2698   19.8306 C   0  0  2  0  0  0
  -28.6590  -13.3804   20.9618 C   0  0  0  0  0  0
  -25.2371  -13.8213   20.5652 C   0  0  0  0  0  0
  -24.1737  -13.0423   20.9233 C   0  0  0  0  0  0
  -24.6388  -11.6915   20.8755 C   0  0  0  0  0  0
  -23.9077  -10.4283   21.0396 C   0  0  0  0  0  0
  -24.3612   -9.4200   21.9185 C   0  0  0  0  0  0
  -23.6281   -8.2239   22.0760 C   0  0  0  0  0  0
  -22.4268   -8.0273   21.3544 C   0  0  0  0  0  0
  -21.9902   -9.0246   20.4650 C   0  0  0  0  0  0
  -22.7236  -10.2125   20.3055 C   0  0  0  0  0  0
  -21.6853   -6.0718   22.5270 C   0  0  0  0  0  0
  -21.4019   -6.5629   23.8201 C   0  0  0  0  0  0
  -21.3659   -5.6787   24.9166 C   0  0  0  0  0  0
  -21.6039   -4.3047   24.7224 C   0  0  0  0  0  0
  -21.8819   -3.8134   23.4346 C   0  0  0  0  0  0
  -21.9196   -4.6946   22.3398 C   0  0  0  0  0  0
  -22.7756  -13.5187   21.1885 C   0  0  0  0  0  0
  -22.1665   -4.2126   21.0977 F   0  0  0  0  0  0
  -21.5627   -3.4538   25.7741 F   0  0  0  0  0  0
  -29.8801  -13.9577   20.3648 N   0  0  0  0  0  0
  -26.2839  -12.9495   20.3222 N   0  0  0  0  0  0
  -25.9335  -11.6606   20.5731 N   0  0  0  0  0  0
  -22.0396  -12.8197   22.0449 N   0  0  0  0  0  0
  -25.3917  -15.1932   20.3931 N   0  0  0  0  0  0
  -31.5877  -15.3347   20.1627 O   0  0  0  0  0  0
  -21.6643   -6.8861   21.4232 O   0  0  0  0  0  0
  -22.3433  -14.5474   20.6700 O   0  0  0  0  0  0
  -24.6649  -31.8219   23.1659 C   0  0  0  0  0  0
  -25.9327  -32.4575   23.8131 C   0  0  1  0  0  0
  -27.2224  -26.9077   20.2010 C   0  0  0  0  0  0
  -25.5984  -33.8388   24.2037 N   0  0  0  0  0  0
  -23.4799  -30.4319   21.5167 C   0  0  2  0  0  0
  -24.9333  -28.8080   20.1220 C   0  0  0  0  0  0
  -22.7673  -29.4434   22.4776 C   0  0  0  0  0  0
  -18.0314  -28.1416   22.8466 C   0  0  0  0  0  0
  -24.1490  -36.7197   23.2643 C   0  0  0  0  0  0
  -26.0503  -30.6232   21.3971 C   0  0  0  0  0  0
  -26.1202  -29.2077   20.7497 C   0  0  0  0  0  0
  -27.2628  -28.2835   20.7556 C   0  0  0  0  0  0
  -26.0008  -26.6572   19.5368 C   0  0  0  0  0  0
  -24.8988  -27.5514   19.4956 C   0  0  0  0  0  0
  -23.7214  -29.7403   20.1473 C   0  0  0  0  0  0
  -25.4127  -36.2956   24.0297 C   0  0  1  0  0  0
  -20.5938  -28.3763   23.1189 C   0  0  2  0  0  0
  -20.6796  -26.9442   22.5408 C   0  0  0  0  0  0
  -19.5770  -26.6381   21.5221 C   0  0  0  0  0  0
  -18.1947  -26.7950   22.1613 C   0  0  0  0  0  0
  -19.1576  -28.8910   23.2815 C   0  0  0  0  0  0
  -18.9493  -30.1498   23.8855 C   0  0  0  0  0  0
  -17.6491  -30.6608   24.0558 C   0  0  0  0  0  0
  -25.9111  -34.9345   23.4991 C   0  0  0  0  0  0
  -16.5379  -29.9096   23.6354 C   0  0  0  0  0  0
  -16.7299  -28.6515   23.0372 C   0  0  0  0  0  0
  -26.4562  -31.6524   25.0666 C   0  0  0  0  0  0
  -25.3673  -31.3799   26.1319 C   0  0  0  0  0  0
  -27.0449  -30.2883   24.6418 C   0  0  0  0  0  0
  -27.6058  -32.4343   25.7457 C   0  0  0  0  0  0
  -27.5571  -37.1731   24.8457 C   0  0  0  0  0  0
  -21.4338  -29.3049   22.3534 N   0  0  0  0  0  0
  -26.4261  -37.3708   23.9430 N   0  0  0  0  0  0
  -24.7536  -30.9864   22.0799 N   0  0  0  0  0  0
  -23.4215  -28.8009   23.3027 O   0  0  0  0  0  0
  -28.2433  -25.8147   20.1767 O   0  0  0  0  0  0
  -26.5732  -34.8897   22.4598 O   0  0  0  0  0  0
  -23.5722  -32.1202   23.6746 O   0  0  0  0  0  0
  -28.3320  -22.4745   18.6510 C   0  0  0  0  0  0
  -28.4777  -21.1984   18.0699 C   0  0  0  0  0  0
  -28.5726  -22.6740   20.0152 C   0  0  0  0  0  0
  -29.1661  -20.1009   20.0160 C   0  0  0  0  0  0
  -28.4851  -16.7432   21.6667 C   0  0  0  0  0  0
  -28.0984  -24.2368   20.6703 C   0  0  0  0  0  0
  -29.9380  -18.5976   20.5002 C   0  0  0  0  0  0
  -29.4708  -16.8471   20.4887 C   0  0  1  0  0  0
  -28.8712  -20.0760   18.7213 N   0  0  0  0  0  0
  -29.0090  -21.4049   20.6551 N   0  0  0  0  0  0
  -31.4610  -13.0908   19.1721 H   0  0  0  0  0  0
  -30.5819  -11.9282   20.1090 H   0  0  0  0  0  0
  -29.9292  -11.7678   17.6934 H   0  0  0  0  0  0
  -29.5644  -13.4743   17.6486 H   0  0  0  0  0  0
  -28.0498  -11.2802   19.0800 H   0  0  0  0  0  0
  -27.4218  -12.3512   17.8527 H   0  0  0  0  0  0
  -27.5482  -14.2512   19.3598 H   0  0  0  0  0  0
  -28.8476  -12.3987   21.3996 H   0  0  0  0  0  0
  -28.2987  -13.9837   21.7903 H   0  0  0  0  0  0
  -25.2741   -9.5679   22.4780 H   0  0  0  0  0  0
  -23.9979   -7.4633   22.7481 H   0  0  0  0  0  0
  -21.0840   -8.8761   19.8954 H   0  0  0  0  0  0
  -22.3680  -10.9665   19.6175 H   0  0  0  0  0  0
  -21.2015   -7.6139   23.9693 H   0  0  0  0  0  0
  -21.1481   -6.0522   25.9064 H   0  0  0  0  0  0
  -22.0596   -2.7596   23.2856 H   0  0  0  0  0  0
  -22.4016  -11.9907   22.4924 H   0  0  0  0  0  0
  -21.0997  -13.1219   22.2585 H   0  0  0  0  0  0
  -24.6069  -15.8304   20.4695 H   0  0  0  0  0  0
  -26.2233  -15.6331   20.0221 H   0  0  0  0  0  0
  -26.7391  -32.5106   23.0838 H   0  0  0  0  0  0
  -25.0064  -33.9446   25.0145 H   0  0  0  0  0  0
  -22.7945  -31.2641   21.3421 H   0  0  0  0  0  0
  -23.3783  -35.9491   23.3238 H   0  0  0  0  0  0
  -24.3572  -36.8918   22.2072 H   0  0  0  0  0  0
  -23.7206  -37.6343   23.6754 H   0  0  0  0  0  0
  -26.2309  -31.3587   20.6126 H   0  0  0  0  0  0
  -26.9100  -30.6831   22.0526 H   0  0  0  0  0  0
  -28.1706  -28.5980   21.2523 H   0  0  0  0  0  0
  -25.8778  -25.6981   19.0538 H   0  0  0  0  0  0
  -23.9956  -27.2370   18.9898 H   0  0  0  0  0  0
  -23.8773  -30.5043   19.3845 H   0  0  0  0  0  0
  -22.8305  -29.1937   19.8325 H   0  0  0  0  0  0
  -25.1313  -36.1731   25.0782 H   0  0  0  0  0  0
  -21.0024  -28.3384   24.1314 H   0  0  0  0  0  0
  -20.5699  -26.2369   23.3644 H   0  0  0  0  0  0
  -21.6656  -26.7437   22.1193 H   0  0  0  0  0  0
  -19.6938  -25.6286   21.1262 H   0  0  0  0  0  0
  -19.6718  -27.3181   20.6746 H   0  0  0  0  0  0
  -17.4218  -26.6708   21.4014 H   0  0  0  0  0  0
  -18.0348  -26.0101   22.9021 H   0  0  0  0  0  0
  -19.7978  -30.7321   24.2202 H   0  0  0  0  0  0
  -17.5047  -31.6287   24.5170 H   0  0  0  0  0  0
  -15.5379  -30.2983   23.7710 H   0  0  0  0  0  0
  -15.8696  -28.0820   22.7119 H   0  0  0  0  0  0
  -24.5843  -30.7178   25.7606 H   0  0  0  0  0  0
  -24.8876  -32.3002   26.4653 H   0  0  0  0  0  0
  -25.7866  -30.8990   27.0164 H   0  0  0  0  0  0
  -26.3108  -29.6550   24.1419 H   0  0  0  0  0  0
  -27.3964  -29.7268   25.5086 H   0  0  0  0  0  0
  -27.9057  -30.4040   23.9829 H   0  0  0  0  0  0
  -27.2661  -33.3745   26.1815 H   0  0  0  0  0  0
  -28.3960  -32.6739   25.0326 H   0  0  0  0  0  0
  -28.0604  -31.8591   26.5534 H   0  0  0  0  0  0
  -28.2521  -38.0097   24.7588 H   0  0  0  0  0  0
  -28.1129  -36.2626   24.6166 H   0  0  0  0  0  0
  -27.2300  -37.1234   25.8859 H   0  0  0  0  0  0
  -20.9609  -29.8723   21.6639 H   0  0  0  0  0  0
  -26.0102  -38.2745   24.1515 H   0  0  0  0  0  0
  -27.9821  -23.2973   18.0421 H   0  0  0  0  0  0
  -28.2640  -21.0639   17.0201 H   0  0  0  0  0  0
  -27.9337  -17.6748   21.7993 H   0  0  0  0  0  0
  -29.0033  -16.5383   22.6044 H   0  0  0  0  0  0
  -27.7310  -15.9801   21.5114 H   0  0  0  0  0  0
  -28.5606  -24.2443   21.6575 H   0  0  0  0  0  0
  -27.0361  -24.1162   20.8831 H   0  0  0  0  0  0
  -30.2840  -18.7994   21.5141 H   0  0  0  0  0  0
  -30.8608  -18.6168   19.9208 H   0  0  0  0  0  0
  -28.8777  -16.7832   19.5764 H   0  0  0  0  0  0
  1 25  1  0  0  0
  1 30  2  0  0  0
  1 78  1  0  0  0
  2  3  1  0  0  0
  2 25  1  0  0  0
  2 81  1  0  0  0
  2 82  1  0  0  0
  3  4  1  0  0  0
  3 83  1  0  0  0
  3 84  1  0  0  0
  4  5  1  0  0  0
  4 85  1  0  0  0
  4 86  1  0  0  0
  5  6  1  0  0  0
  5 26  1  0  0  0
  5 87  1  0  0  0
  6 25  1  0  0  0
  6 88  1  0  0  0
  6 89  1  0  0  0
  7  8  2  0  0  0
  7 26  1  0  0  0
  7 29  1  0  0  0
  8  9  1  0  0  0
  8 22  1  0  0  0
  9 10  1  0  0  0
  9 27  2  0  0  0
 10 11  2  0  0  0
 10 15  1  0  0  0
 11 12  1  0  0  0
 11 90  1  0  0  0
 12 13  2  0  0  0
 12 91  1  0  0  0
 13 14  1  0  0  0
 13 31  1  0  0  0
 14 15  2  0  0  0
 14 92  1  0  0  0
 15 93  1  0  0  0
 16 17  2  0  0  0
 16 21  1  0  0  0
 16 31  1  0  0  0
 17 18  1  0  0  0
 17 94  1  0  0  0
 18 19  2  0  0  0
 18 95  1  0  0  0
 19 20  1  0  0  0
 19 24  1  0  0  0
 20 21  2  0  0  0
 20 96  1  0  0  0
 21 23  1  0  0  0
 22 28  1  0  0  0
 22 32  2  0  0  0
 26 27  1  0  0  0
 28 97  1  0  0  0
 28 98  1  0  0  0
 29 99  1  0  0  0
 29100  1  0  0  0
 33 34  1  0  0  0
 33 66  1  0  0  0
 33 70  2  0  0  0
 34 36  1  0  0  0
 34 59  1  0  0  0
 34101  1  0  0  0
 35 44  2  0  0  0
 35 45  1  0  0  0
 35 68  1  0  0  0
 36 56  1  0  0  0
 36102  1  0  0  0
 37 39  1  0  0  0
 37 47  1  0  0  0
 37 66  1  0  0  0
 37103  1  0  0  0
 38 43  2  0  0  0
 38 46  1  0  0  0
 38 47  1  0  0  0
 39 64  1  0  0  0
 39 67  2  0  0  0
 40 52  1  0  0  0
 40 53  2  0  0  0
 40 58  1  0  0  0
 41104  1  0  0  0
 41105  1  0  0  0
 41106  1  0  0  0
 41 48  1  0  0  0
 42 43  1  0  0  0
 42 66  1  0  0  0
 42107  1  0  0  0
 42108  1  0  0  0
 43 44  1  0  0  0
 44109  1  0  0  0
 45 46  2  0  0  0
 45110  1  0  0  0
 46111  1  0  0  0
 47112  1  0  0  0
 47113  1  0  0  0
 48 56  1  0  0  0
 48 65  1  0  0  0
 48114  1  0  0  0
 49 50  1  0  0  0
 49 53  1  0  0  0
 49 64  1  0  0  0
 49115  1  0  0  0
 50 51  1  0  0  0
 50116  1  0  0  0
 50117  1  0  0  0
 51 52  1  0  0  0
 51118  1  0  0  0
 51119  1  0  0  0
 52120  1  0  0  0
 52121  1  0  0  0
 53 54  1  0  0  0
 54 55  2  0  0  0
 54122  1  0  0  0
 55 57  1  0  0  0
 55123  1  0  0  0
 56 69  2  0  0  0
 57 58  2  0  0  0
 57124  1  0  0  0
 58125  1  0  0  0
 59 60  1  0  0  0
 59 61  1  0  0  0
 59 62  1  0  0  0
 60126  1  0  0  0
 60127  1  0  0  0
 60128  1  0  0  0
 61129  1  0  0  0
 61130  1  0  0  0
 61131  1  0  0  0
 62132  1  0  0  0
 62133  1  0  0  0
 62134  1  0  0  0
 63 65  1  0  0  0
 63135  1  0  0  0
 63136  1  0  0  0
 63137  1  0  0  0
 64138  1  0  0  0
 65139  1  0  0  0
 68 76  1  0  0  0
 71 72  2  0  0  0
 71 73  1  0  0  0
 71140  1  0  0  0
 72 79  1  0  0  0
 72141  1  0  0  0
 73 76  1  0  0  0
 73 80  2  0  0  0
 74 77  1  0  0  0
 74 79  2  0  0  0
 74 80  1  0  0  0
 75142  1  0  0  0
 75143  1  0  0  0
 75144  1  0  0  0
 75 78  1  0  0  0
 76145  1  0  0  0
 76146  1  0  0  0
 77 78  1  0  0  0
 77147  1  0  0  0
 77148  1  0  0  0
 78149  1  0  0  0
M  ISO  4   1 100  68 101  76 101  78 100
M  END
> <chiral flag>
0

> <version>
0

> <s_m_source_file>
/data/baiqing/PycharmProjects/Reinvent-master-3.2/result/LINK_invent/BTK/process_docking_weight1_custom_sum_contain_oxygen_bond_distance_aromatic_linkinvent_7_9_3/rearranged_h_0047.sdf

> <i_m_source_file_index>
4

> <r_mmod_Potential_Energy-OPLS-2005>
967.847717285156

> <r_mmod_Stretch_Energy-OPLS-2005>
633.264343261719

> <r_mmod_Bend_Energy-OPLS-2005>
469.693969726562

> <r_mmod_Torsional_Energy-OPLS-2005>
222.806030273438

> <r_mmod_Improper_Torsional_Energy-OPLS-2005>
6.92741203308105

> <r_mmod_Van_der_Waal_Energy-OPLS-2005>
128.068084716797

> <r_mmod_Electrostatic_Energy-OPLS-2005>
-746.607421875

> <r_mmod_Solvation_Energy-OPLS-2005>
-229.324203491211

> <b_mmod_Minimization_Converged-OPLS-2005>
0

> <r_mmod_RMS_Derivative-OPLS-2005>
1.85163974761963

$$$$
4
                    3D
 Structure written by MMmdl.
153161  0  0  1  0            999 V2000
  -30.5214  -15.0216   20.4017 C   0  0  0  0  0  0
  -30.4563  -12.6441   19.4892 C   0  0  0  0  0  0
  -29.5327  -12.5225   18.2532 C   0  0  0  0  0  0
  -28.0713  -12.2934   18.6807 C   0  0  0  0  0  0
  -27.6313  -13.2431   19.8281 C   0  0  2  0  0  0
  -28.6765  -13.3009   20.9592 C   0  0  0  0  0  0
  -25.2528  -13.8185   20.5727 C   0  0  0  0  0  0
  -24.1827  -13.0425   20.9239 C   0  0  0  0  0  0
  -24.6417  -11.6897   20.8715 C   0  0  0  0  0  0
  -23.9075  -10.4266   21.0373 C   0  0  0  0  0  0
  -24.3635   -9.4194   21.9147 C   0  0  0  0  0  0
  -23.6304   -8.2248   22.0727 C   0  0  0  0  0  0
  -22.4284   -8.0274   21.3528 C   0  0  0  0  0  0
  -21.9922   -9.0245   20.4629 C   0  0  0  0  0  0
  -22.7260  -10.2116   20.3025 C   0  0  0  0  0  0
  -21.6864   -6.0731   22.5274 C   0  0  0  0  0  0
  -21.4006   -6.5619   23.8205 C   0  0  0  0  0  0
  -21.3654   -5.6761   24.9168 C   0  0  0  0  0  0
  -21.6030   -4.3025   24.7214 C   0  0  0  0  0  0
  -21.8850   -3.8138   23.4346 C   0  0  0  0  0  0
  -21.9200   -4.6953   22.3394 C   0  0  0  0  0  0
  -22.7852  -13.5213   21.1886 C   0  0  0  0  0  0
  -22.1673   -4.2137   21.0983 F   0  0  0  0  0  0
  -21.5628   -3.4523   25.7732 F   0  0  0  0  0  0
  -29.9351  -13.7511   20.3448 N   0  0  0  0  0  0
  -26.2912  -12.9404   20.3195 N   0  0  0  0  0  0
  -25.9348  -11.6512   20.5657 N   0  0  0  0  0  0
  -22.0490  -12.8194   22.0427 N   0  0  0  0  0  0
  -25.4198  -15.1922   20.4234 N   0  0  0  0  0  0
  -31.7384  -15.0743   20.2065 O   0  0  0  0  0  0
  -21.6636   -6.8889   21.4224 O   0  0  0  0  0  0
  -22.3537  -14.5513   20.6716 O   0  0  0  0  0  0
  -24.6531  -31.8352   23.1835 C   0  0  0  0  0  0
  -25.9272  -32.4631   23.8247 C   0  0  1  0  0  0
  -27.2138  -27.0723   20.1406 C   0  0  0  0  0  0
  -25.6000  -33.8458   24.2133 N   0  0  0  0  0  0
  -23.4574  -30.4602   21.5310 C   0  0  2  0  0  0
  -24.9045  -28.8785   20.1074 C   0  0  0  0  0  0
  -22.7604  -29.4582   22.4833 C   0  0  0  0  0  0
  -18.0318  -28.1419   22.8458 C   0  0  0  0  0  0
  -24.1494  -36.7243   23.2655 C   0  0  0  0  0  0
  -26.0229  -30.6840   21.3980 C   0  0  0  0  0  0
  -26.0858  -29.2951   20.7311 C   0  0  0  0  0  0
  -27.2379  -28.4062   20.7353 C   0  0  0  0  0  0
  -26.0058  -26.7861   19.4607 C   0  0  0  0  0  0
  -24.8819  -27.6363   19.4581 C   0  0  0  0  0  0
  -23.6834  -29.7857   20.1509 C   0  0  0  0  0  0
  -25.4123  -36.2995   24.0296 C   0  0  1  0  0  0
  -20.5942  -28.3778   23.1175 C   0  0  2  0  0  0
  -20.6825  -26.9469   22.5367 C   0  0  0  0  0  0
  -19.5760  -26.6366   21.5217 C   0  0  0  0  0  0
  -18.1930  -26.7966   22.1595 C   0  0  0  0  0  0
  -19.1585  -28.8905   23.2820 C   0  0  0  0  0  0
  -18.9498  -30.1498   23.8828 C   0  0  0  0  0  0
  -17.6492  -30.6597   24.0588 C   0  0  0  0  0  0
  -25.9077  -34.9365   23.5014 C   0  0  0  0  0  0
  -16.5386  -29.9080   23.6369 C   0  0  0  0  0  0
  -16.7309  -28.6537   23.0331 C   0  0  0  0  0  0
  -26.4563  -31.6555   25.0745 C   0  0  0  0  0  0
  -25.3741  -31.3773   26.1442 C   0  0  0  0  0  0
  -27.0472  -30.2921   24.6454 C   0  0  0  0  0  0
  -27.6026  -32.4404   25.7572 C   0  0  0  0  0  0
  -27.5558  -37.1777   24.8466 C   0  0  0  0  0  0
  -21.4304  -29.3090   22.3547 N   0  0  0  0  0  0
  -26.4270  -37.3711   23.9405 N   0  0  0  0  0  0
  -24.7308  -31.0154   22.0905 N   0  0  0  0  0  0
  -23.4196  -28.8099   23.3015 O   0  0  0  0  0  0
  -28.2278  -26.0234   20.2321 O   0  0  0  0  0  0
  -26.5678  -34.8884   22.4601 O   0  0  0  0  0  0
  -23.5639  -32.1298   23.7011 O   0  0  0  0  0  0
  -29.6907  -21.4905   21.4418 C   0  0  0  0  0  0
  -29.1960  -20.7570   20.3665 C   0  0  0  0  0  0
  -28.6818  -23.1326   20.2490 C   0  0  0  0  0  0
  -30.4415  -20.9955   22.6434 C   0  0  0  0  0  0
  -27.9129  -21.7077   18.3299 C   0  0  0  0  0  0
  -29.1746  -19.1142   20.0053 C   0  0  0  0  0  0
  -27.9051  -24.5420   19.7888 C   0  0  0  0  0  0
  -30.0115  -17.7867   20.6983 C   0  0  0  0  0  0
  -29.3869  -22.8867   21.3610 N   0  0  0  0  0  0
  -28.5866  -21.8700   19.6127 N   0  0  0  0  0  0
  -29.7305  -16.2202   20.4742 N   0  0  0  0  0  0
  -31.4794  -12.8398   19.1602 H   0  0  0  0  0  0
  -30.4980  -11.7063   20.0477 H   0  0  0  0  0  0
  -29.8765  -11.7031   17.6223 H   0  0  0  0  0  0
  -29.6047  -13.4289   17.6483 H   0  0  0  0  0  0
  -27.9930  -11.2567   19.0136 H   0  0  0  0  0  0
  -27.4061  -12.3870   17.8238 H   0  0  0  0  0  0
  -27.5834  -14.2384   19.3843 H   0  0  0  0  0  0
  -28.7936  -12.3240   21.4340 H   0  0  0  0  0  0
  -28.3611  -13.9856   21.7502 H   0  0  0  0  0  0
  -25.2800   -9.5651   22.4701 H   0  0  0  0  0  0
  -23.9989   -7.4641   22.7467 H   0  0  0  0  0  0
  -21.0856   -8.8795   19.8947 H   0  0  0  0  0  0
  -22.3748  -10.9649   19.6113 H   0  0  0  0  0  0
  -21.1992   -7.6135   23.9701 H   0  0  0  0  0  0
  -21.1430   -6.0491   25.9052 H   0  0  0  0  0  0
  -22.0642   -2.7610   23.2845 H   0  0  0  0  0  0
  -22.4127  -11.9869   22.4818 H   0  0  0  0  0  0
  -21.1046  -13.1125   22.2555 H   0  0  0  0  0  0
  -24.6616  -15.8421   20.5959 H   0  0  0  0  0  0
  -26.2508  -15.6446   20.0673 H   0  0  0  0  0  0
  -26.7349  -32.5167   23.0988 H   0  0  0  0  0  0
  -25.0132  -33.9543   25.0271 H   0  0  0  0  0  0
  -22.7656  -31.2875   21.3718 H   0  0  0  0  0  0
  -23.3731  -35.9603   23.3314 H   0  0  0  0  0  0
  -24.3583  -36.8886   22.2073 H   0  0  0  0  0  0
  -23.7254  -37.6437   23.6707 H   0  0  0  0  0  0
  -26.1980  -31.4357   20.6291 H   0  0  0  0  0  0
  -26.8868  -30.7244   22.0496 H   0  0  0  0  0  0
  -28.1308  -28.7253   21.2538 H   0  0  0  0  0  0
  -25.8679  -25.8482   18.9451 H   0  0  0  0  0  0
  -23.9891  -27.3109   18.9441 H   0  0  0  0  0  0
  -23.8190  -30.5587   19.3936 H   0  0  0  0  0  0
  -22.7990  -29.2272   19.8409 H   0  0  0  0  0  0
  -25.1316  -36.1823   25.0780 H   0  0  0  0  0  0
  -21.0042  -28.3381   24.1290 H   0  0  0  0  0  0
  -20.5775  -26.2396   23.3600 H   0  0  0  0  0  0
  -21.6675  -26.7487   22.1094 H   0  0  0  0  0  0
  -19.6919  -25.6244   21.1314 H   0  0  0  0  0  0
  -19.6694  -27.3095   20.6673 H   0  0  0  0  0  0
  -17.4238  -26.6775   21.3974 H   0  0  0  0  0  0
  -18.0274  -26.0103   22.8966 H   0  0  0  0  0  0
  -19.7975  -30.7359   24.2144 H   0  0  0  0  0  0
  -17.5029  -31.6249   24.5236 H   0  0  0  0  0  0
  -15.5382  -30.2944   23.7717 H   0  0  0  0  0  0
  -15.8721  -28.0840   22.7014 H   0  0  0  0  0  0
  -24.5870  -30.7189   25.7762 H   0  0  0  0  0  0
  -24.9029  -32.2985   26.4891 H   0  0  0  0  0  0
  -25.8039  -30.8913   27.0215 H   0  0  0  0  0  0
  -26.3153  -29.6600   24.1430 H   0  0  0  0  0  0
  -27.3968  -29.7288   25.5121 H   0  0  0  0  0  0
  -27.9103  -30.4097   23.9897 H   0  0  0  0  0  0
  -27.2495  -33.3678   26.2111 H   0  0  0  0  0  0
  -28.3867  -32.7034   25.0452 H   0  0  0  0  0  0
  -28.0686  -31.8601   26.5552 H   0  0  0  0  0  0
  -28.2568  -38.0080   24.7474 H   0  0  0  0  0  0
  -28.1052  -36.2594   24.6335 H   0  0  0  0  0  0
  -27.2283  -37.1477   25.8874 H   0  0  0  0  0  0
  -20.9539  -29.8802   21.6708 H   0  0  0  0  0  0
  -26.0132  -38.2783   24.1383 H   0  0  0  0  0  0
  -31.4975  -21.2804   22.6054 H   0  0  0  0  0  0
  -30.3934  -19.9143   22.7398 H   0  0  0  0  0  0
  -30.0398  -21.4125   23.5681 H   0  0  0  0  0  0
  -26.8345  -21.8351   18.4462 H   0  0  0  0  0  0
  -28.1187  -20.7310   17.8925 H   0  0  0  0  0  0
  -28.2779  -22.4550   17.6265 H   0  0  0  0  0  0
  -29.3956  -19.0462   18.9419 H   0  0  0  0  0  0
  -28.1256  -18.8291   20.0549 H   0  0  0  0  0  0
  -27.9138  -24.5567   18.6995 H   0  0  0  0  0  0
  -26.8716  -24.3582   20.0741 H   0  0  0  0  0  0
  -29.8653  -17.8919   21.7745 H   0  0  0  0  0  0
  -31.0797  -17.9468   20.5482 H   0  0  0  0  0  0
  -28.7474  -16.0002   20.5010 H   0  0  0  0  0  0
  1 25  1  0  0  0
  1 30  2  0  0  0
  1 81  1  0  0  0
  2  3  1  0  0  0
  2 25  1  0  0  0
  2 82  1  0  0  0
  2 83  1  0  0  0
  3  4  1  0  0  0
  3 84  1  0  0  0
  3 85  1  0  0  0
  4  5  1  0  0  0
  4 86  1  0  0  0
  4 87  1  0  0  0
  5  6  1  0  0  0
  5 26  1  0  0  0
  5 88  1  0  0  0
  6 25  1  0  0  0
  6 89  1  0  0  0
  6 90  1  0  0  0
  7  8  2  0  0  0
  7 26  1  0  0  0
  7 29  1  0  0  0
  8  9  1  0  0  0
  8 22  1  0  0  0
  9 10  1  0  0  0
  9 27  2  0  0  0
 10 11  2  0  0  0
 10 15  1  0  0  0
 11 12  1  0  0  0
 11 91  1  0  0  0
 12 13  2  0  0  0
 12 92  1  0  0  0
 13 14  1  0  0  0
 13 31  1  0  0  0
 14 15  2  0  0  0
 14 93  1  0  0  0
 15 94  1  0  0  0
 16 17  2  0  0  0
 16 21  1  0  0  0
 16 31  1  0  0  0
 17 18  1  0  0  0
 17 95  1  0  0  0
 18 19  2  0  0  0
 18 96  1  0  0  0
 19 20  1  0  0  0
 19 24  1  0  0  0
 20 21  2  0  0  0
 20 97  1  0  0  0
 21 23  1  0  0  0
 22 28  1  0  0  0
 22 32  2  0  0  0
 26 27  1  0  0  0
 28 98  1  0  0  0
 28 99  1  0  0  0
 29100  1  0  0  0
 29101  1  0  0  0
 33 34  1  0  0  0
 33 66  1  0  0  0
 33 70  2  0  0  0
 34 36  1  0  0  0
 34 59  1  0  0  0
 34102  1  0  0  0
 35 44  2  0  0  0
 35 45  1  0  0  0
 35 68  1  0  0  0
 36 56  1  0  0  0
 36103  1  0  0  0
 37 39  1  0  0  0
 37 47  1  0  0  0
 37 66  1  0  0  0
 37104  1  0  0  0
 38 43  2  0  0  0
 38 46  1  0  0  0
 38 47  1  0  0  0
 39 64  1  0  0  0
 39 67  2  0  0  0
 40 52  1  0  0  0
 40 53  2  0  0  0
 40 58  1  0  0  0
 41105  1  0  0  0
 41106  1  0  0  0
 41107  1  0  0  0
 41 48  1  0  0  0
 42 43  1  0  0  0
 42 66  1  0  0  0
 42108  1  0  0  0
 42109  1  0  0  0
 43 44  1  0  0  0
 44110  1  0  0  0
 45 46  2  0  0  0
 45111  1  0  0  0
 46112  1  0  0  0
 47113  1  0  0  0
 47114  1  0  0  0
 48 56  1  0  0  0
 48 65  1  0  0  0
 48115  1  0  0  0
 49 50  1  0  0  0
 49 53  1  0  0  0
 49 64  1  0  0  0
 49116  1  0  0  0
 50 51  1  0  0  0
 50117  1  0  0  0
 50118  1  0  0  0
 51 52  1  0  0  0
 51119  1  0  0  0
 51120  1  0  0  0
 52121  1  0  0  0
 52122  1  0  0  0
 53 54  1  0  0  0
 54 55  2  0  0  0
 54123  1  0  0  0
 55 57  1  0  0  0
 55124  1  0  0  0
 56 69  2  0  0  0
 57 58  2  0  0  0
 57125  1  0  0  0
 58126  1  0  0  0
 59 60  1  0  0  0
 59 61  1  0  0  0
 59 62  1  0  0  0
 60127  1  0  0  0
 60128  1  0  0  0
 60129  1  0  0  0
 61130  1  0  0  0
 61131  1  0  0  0
 61132  1  0  0  0
 62133  1  0  0  0
 62134  1  0  0  0
 62135  1  0  0  0
 63 65  1  0  0  0
 63136  1  0  0  0
 63137  1  0  0  0
 63138  1  0  0  0
 64139  1  0  0  0
 65140  1  0  0  0
 68 77  1  0  0  0
 71 72  2  0  0  0
 71 74  1  0  0  0
 71 79  1  0  0  0
 72 76  1  0  0  0
 72 80  1  0  0  0
 73 77  1  0  0  0
 73 79  2  0  0  0
 73 80  1  0  0  0
 74141  1  0  0  0
 74142  1  0  0  0
 74143  1  0  0  0
 75 80  1  0  0  0
 75144  1  0  0  0
 75145  1  0  0  0
 75146  1  0  0  0
 76 78  1  0  0  0
 76147  1  0  0  0
 76148  1  0  0  0
 77149  1  0  0  0
 77150  1  0  0  0
 78 81  1  0  0  0
 78151  1  0  0  0
 78152  1  0  0  0
 81153  1  0  0  0
M  ISO  4   1 100  68 101  77 101  81 100
M  END
> <chiral flag>
0

> <version>
0

> <s_m_source_file>
/data/baiqing/PycharmProjects/Reinvent-master-3.2/result/LINK_invent/BTK/process_docking_weight1_custom_sum_contain_oxygen_bond_distance_aromatic_linkinvent_7_9_3/rearranged_h_0047.sdf

> <i_m_source_file_index>
5

> <r_mmod_Potential_Energy-OPLS-2005>
609.662841796875

> <r_mmod_Stretch_Energy-OPLS-2005>
328.588195800781

> <r_mmod_Bend_Energy-OPLS-2005>
310.751495361328

> <r_mmod_Torsional_Energy-OPLS-2005>
207.229080200195

> <r_mmod_Improper_Torsional_Energy-OPLS-2005>
4.98159027099609

> <r_mmod_Van_der_Waal_Energy-OPLS-2005>
111.261672973633

> <r_mmod_Electrostatic_Energy-OPLS-2005>
-365.922790527344

> <r_mmod_Solvation_Energy-OPLS-2005>
-244.502639770508

> <b_mmod_Minimization_Converged-OPLS-2005>
0

> <r_mmod_RMS_Derivative-OPLS-2005>
5.97749996185303

$$$$
5
                    3D
 Structure written by MMmdl.
175183  0  0  1  0            999 V2000
  -30.5573  -14.7379   20.4528 C   0  0  0  0  0  0
  -30.4488  -12.4418   19.4676 C   0  0  0  0  0  0
  -29.5132  -12.5012   18.2350 C   0  0  0  0  0  0
  -28.0376  -12.3134   18.6470 C   0  0  0  0  0  0
  -27.6434  -13.2099   19.8478 C   0  0  2  0  0  0
  -28.6893  -13.1191   20.9796 C   0  0  0  0  0  0
  -25.2563  -13.8128   20.5662 C   0  0  0  0  0  0
  -24.1821  -13.0416   20.9175 C   0  0  0  0  0  0
  -24.6382  -11.6888   20.8740 C   0  0  0  0  0  0
  -23.9047  -10.4276   21.0422 C   0  0  0  0  0  0
  -24.3615   -9.4198   21.9196 C   0  0  0  0  0  0
  -23.6290   -8.2236   22.0777 C   0  0  0  0  0  0
  -22.4276   -8.0271   21.3557 C   0  0  0  0  0  0
  -21.9901   -9.0241   20.4663 C   0  0  0  0  0  0
  -22.7227  -10.2119   20.3068 C   0  0  0  0  0  0
  -21.6852   -6.0726   22.5278 C   0  0  0  0  0  0
  -21.4016   -6.5643   23.8201 C   0  0  0  0  0  0
  -21.3646   -5.6804   24.9167 C   0  0  0  0  0  0
  -21.6043   -4.3065   24.7229 C   0  0  0  0  0  0
  -21.8817   -3.8146   23.4350 C   0  0  0  0  0  0
  -21.9198   -4.6955   22.3405 C   0  0  0  0  0  0
  -22.7850  -13.5231   21.1819 C   0  0  0  0  0  0
  -22.1666   -4.2144   21.0979 F   0  0  0  0  0  0
  -21.5622   -3.4547   25.7738 F   0  0  0  0  0  0
  -29.9995  -13.4789   20.4217 N   0  0  0  0  0  0
  -26.2948  -12.9286   20.3247 N   0  0  0  0  0  0
  -25.9306  -11.6446   20.5746 N   0  0  0  0  0  0
  -22.0500  -12.8229   22.0385 N   0  0  0  0  0  0
  -25.4268  -15.1837   20.4050 N   0  0  0  0  0  0
  -31.7456  -14.8843   20.1475 O   0  0  0  0  0  0
  -21.6643   -6.8871   21.4240 O   0  0  0  0  0  0
  -22.3543  -14.5531   20.6661 O   0  0  0  0  0  0
  -24.6274  -31.8556   23.1977 C   0  0  0  0  0  0
  -25.9104  -32.4755   23.8312 C   0  0  1  0  0  0
  -27.2297  -27.2877   20.1321 C   0  0  0  0  0  0
  -25.5898  -33.8553   24.2237 N   0  0  0  0  0  0
  -23.4235  -30.4767   21.5389 C   0  0  2  0  0  0
  -24.8741  -28.9220   20.1157 C   0  0  0  0  0  0
  -22.7485  -29.4589   22.4899 C   0  0  0  0  0  0
  -18.0299  -28.1365   22.8480 C   0  0  0  0  0  0
  -24.1492  -36.7271   23.2649 C   0  0  0  0  0  0
  -25.9666  -30.7792   21.3709 C   0  0  0  0  0  0
  -26.0444  -29.4006   20.7186 C   0  0  0  0  0  0
  -27.2275  -28.5991   20.7110 C   0  0  0  0  0  0
  -26.0383  -26.8675   19.5037 C   0  0  0  0  0  0
  -24.8749  -27.6607   19.4985 C   0  0  0  0  0  0
  -23.6432  -29.8056   20.1569 C   0  0  0  0  0  0
  -25.4103  -36.3052   24.0342 C   0  0  1  0  0  0
  -20.5897  -28.3660   23.1281 C   0  0  2  0  0  0
  -20.6768  -26.9378   22.5413 C   0  0  0  0  0  0
  -19.5748  -26.6364   21.5207 C   0  0  0  0  0  0
  -18.1939  -26.7914   22.1631 C   0  0  0  0  0  0
  -19.1557  -28.8831   23.2875 C   0  0  0  0  0  0
  -18.9485  -30.1442   23.8877 C   0  0  0  0  0  0
  -17.6486  -30.6568   24.0564 C   0  0  0  0  0  0
  -25.9047  -34.9437   23.5095 C   0  0  0  0  0  0
  -16.5369  -29.9064   23.6338 C   0  0  0  0  0  0
  -16.7292  -28.6495   23.0343 C   0  0  0  0  0  0
  -26.4484  -31.6577   25.0691 C   0  0  0  0  0  0
  -25.3706  -31.3750   26.1413 C   0  0  0  0  0  0
  -27.0324  -30.2998   24.6145 C   0  0  0  0  0  0
  -27.6026  -32.4326   25.7474 C   0  0  0  0  0  0
  -27.5568  -37.1785   24.8468 C   0  0  0  0  0  0
  -21.4195  -29.3021   22.3671 N   0  0  0  0  0  0
  -26.4267  -37.3751   23.9430 N   0  0  0  0  0  0
  -24.6914  -31.0544   22.0928 N   0  0  0  0  0  0
  -23.4213  -28.8132   23.2986 O   0  0  0  0  0  0
  -28.3387  -26.4213   20.1312 O   0  0  0  0  0  0
  -26.5632  -34.8920   22.4671 O   0  0  0  0  0  0
  -23.5435  -32.1364   23.7283 O   0  0  0  0  0  0
  -29.7478  -20.1873   22.2488 C   0  0  0  0  0  0
  -29.7988  -21.4786   22.7892 C   0  0  0  0  0  0
  -29.3977  -20.0500   20.9028 C   0  0  0  0  0  0
  -29.1964  -22.4292   20.7802 C   0  0  0  0  0  0
  -30.1064  -21.7043   24.2535 C   0  0  0  0  0  0
  -25.0334  -20.9525   21.6794 C   0  0  0  0  0  0
  -22.9794  -19.9518   20.6039 C   0  0  0  0  0  0
  -26.9421  -18.7437   18.2017 C   0  0  0  0  0  0
  -29.0553  -23.7994   19.9881 C   0  0  0  0  0  0
  -29.6154  -16.0326   20.6220 C   0  0  0  0  0  0
  -25.2540  -18.9417   20.1038 C   0  0  0  0  0  0
  -30.1307  -17.5747   20.6420 C   0  0  0  0  0  0
  -27.7135  -18.4201   20.6019 C   0  0  0  0  0  0
  -28.1562  -25.0007   20.5833 C   0  0  0  0  0  0
  -24.4796  -20.2406   20.4308 C   0  0  0  0  0  0
  -26.7243  -19.1619   19.6639 C   0  0  1  0  0  0
  -29.5383  -22.5753   22.0564 N   0  0  0  0  0  0
  -29.1397  -21.2010   20.1780 N   0  0  0  0  0  0
  -29.1422  -18.7206   20.3817 N   0  0  0  0  0  0
  -31.4843  -12.5923   19.1603 H   0  0  0  0  0  0
  -30.4127  -11.4575   19.9346 H   0  0  0  0  0  0
  -29.7956  -11.7390   17.5082 H   0  0  0  0  0  0
  -29.6285  -13.4616   17.7325 H   0  0  0  0  0  0
  -27.8963  -11.2632   18.9056 H   0  0  0  0  0  0
  -27.3787  -12.5057   17.8002 H   0  0  0  0  0  0
  -27.6361  -14.2270   19.4656 H   0  0  0  0  0  0
  -28.7225  -12.1089   21.3885 H   0  0  0  0  0  0
  -28.4178  -13.7648   21.8148 H   0  0  0  0  0  0
  -25.2767   -9.5666   22.4766 H   0  0  0  0  0  0
  -23.9991   -7.4628   22.7516 H   0  0  0  0  0  0
  -21.0819   -8.8744   19.8981 H   0  0  0  0  0  0
  -22.3678  -10.9651   19.6173 H   0  0  0  0  0  0
  -21.2015   -7.6155   23.9696 H   0  0  0  0  0  0
  -21.1466   -6.0540   25.9062 H   0  0  0  0  0  0
  -22.0614   -2.7612   23.2852 H   0  0  0  0  0  0
  -22.4134  -11.9877   22.4732 H   0  0  0  0  0  0
  -21.1131  -13.1258   22.2624 H   0  0  0  0  0  0
  -24.6546  -15.8325   20.5025 H   0  0  0  0  0  0
  -26.2629  -15.6093   20.0303 H   0  0  0  0  0  0
  -26.7158  -32.5414   23.1045 H   0  0  0  0  0  0
  -25.0009  -33.9688   25.0355 H   0  0  0  0  0  0
  -22.7190  -31.2968   21.3883 H   0  0  0  0  0  0
  -23.3752  -35.9605   23.3300 H   0  0  0  0  0  0
  -24.3593  -36.8895   22.2069 H   0  0  0  0  0  0
  -23.7260  -37.6478   23.6671 H   0  0  0  0  0  0
  -26.0999  -31.5412   20.6008 H   0  0  0  0  0  0
  -26.8452  -30.8280   22.0026 H   0  0  0  0  0  0
  -28.1283  -28.9696   21.1814 H   0  0  0  0  0  0
  -26.0011  -25.9074   19.0099 H   0  0  0  0  0  0
  -23.9817  -27.2868   19.0193 H   0  0  0  0  0  0
  -23.7688  -30.5791   19.3980 H   0  0  0  0  0  0
  -22.7630  -29.2350   19.8537 H   0  0  0  0  0  0
  -25.1291  -36.1874   25.0831 H   0  0  0  0  0  0
  -21.0010  -28.3206   24.1388 H   0  0  0  0  0  0
  -20.5641  -26.2261   23.3599 H   0  0  0  0  0  0
  -21.6635  -26.7369   22.1219 H   0  0  0  0  0  0
  -19.6903  -25.6276   21.1228 H   0  0  0  0  0  0
  -19.6687  -27.3171   20.6731 H   0  0  0  0  0  0
  -17.4202  -26.6678   21.4036 H   0  0  0  0  0  0
  -18.0339  -26.0032   22.9012 H   0  0  0  0  0  0
  -19.7960  -30.7275   24.2215 H   0  0  0  0  0  0
  -17.5038  -31.6250   24.5158 H   0  0  0  0  0  0
  -15.5372  -30.2972   23.7638 H   0  0  0  0  0  0
  -15.8704  -28.0815   22.7041 H   0  0  0  0  0  0
  -24.5877  -30.7094   25.7757 H   0  0  0  0  0  0
  -24.8903  -32.2943   26.4778 H   0  0  0  0  0  0
  -25.8011  -30.8981   27.0223 H   0  0  0  0  0  0
  -26.2897  -29.6755   24.1161 H   0  0  0  0  0  0
  -27.4029  -29.7242   25.4639 H   0  0  0  0  0  0
  -27.8763  -30.4298   23.9363 H   0  0  0  0  0  0
  -27.2608  -33.3635   26.2003 H   0  0  0  0  0  0
  -28.3857  -32.6854   25.0318 H   0  0  0  0  0  0
  -28.0646  -31.8473   26.5435 H   0  0  0  0  0  0
  -28.2565  -38.0099   24.7494 H   0  0  0  0  0  0
  -28.1082  -36.2624   24.6289 H   0  0  0  0  0  0
  -27.2300  -37.1425   25.8876 H   0  0  0  0  0  0
  -20.9349  -29.8776   21.6930 H   0  0  0  0  0  0
  -26.0146  -38.2824   24.1425 H   0  0  0  0  0  0
  -29.9130  -19.3295   22.8849 H   0  0  0  0  0  0
  -29.1796  -21.7950   24.8203 H   0  0  0  0  0  0
  -30.6766  -22.6224   24.3948 H   0  0  0  0  0  0
  -30.6821  -20.8764   24.6670 H   0  0  0  0  0  0
  -24.4648  -21.8582   21.8987 H   0  0  0  0  0  0
  -26.0748  -21.2483   21.5499 H   0  0  0  0  0  0
  -24.9861  -20.3108   22.5579 H   0  0  0  0  0  0
  -22.8046  -19.2537   21.4228 H   0  0  0  0  0  0
  -22.4208  -20.8626   20.8204 H   0  0  0  0  0  0
  -22.5493  -19.5200   19.6995 H   0  0  0  0  0  0
  -26.2945  -19.3103   17.5320 H   0  0  0  0  0  0
  -26.7368  -17.6837   18.0567 H   0  0  0  0  0  0
  -27.9712  -18.9312   17.8899 H   0  0  0  0  0  0
  -28.7162  -23.5763   18.9772 H   0  0  0  0  0  0
  -30.0711  -24.1758   19.8692 H   0  0  0  0  0  0
  -28.9514  -15.9601   19.7637 H   0  0  0  0  0  0
  -29.0015  -15.8782   21.5077 H   0  0  0  0  0  0
  -24.7183  -18.4001   19.3231 H   0  0  0  0  0  0
  -25.2141  -18.2775   20.9694 H   0  0  0  0  0  0
  -30.9030  -17.6691   19.8778 H   0  0  0  0  0  0
  -30.6531  -17.7434   21.5831 H   0  0  0  0  0  0
  -27.5099  -17.3576   20.4982 H   0  0  0  0  0  0
  -27.4692  -18.6515   21.6410 H   0  0  0  0  0  0
  -28.3587  -25.0403   21.6541 H   0  0  0  0  0  0
  -27.1127  -24.6941   20.5200 H   0  0  0  0  0  0
  -24.5790  -20.9225   19.5857 H   0  0  0  0  0  0
  -26.9038  -20.2316   19.7010 H   0  0  0  0  0  0
  1 25  1  0  0  0
  1 30  2  0  0  0
  1 80  1  0  0  0
  2  3  1  0  0  0
  2 25  1  0  0  0
  2 90  1  0  0  0
  2 91  1  0  0  0
  3  4  1  0  0  0
  3 92  1  0  0  0
  3 93  1  0  0  0
  4  5  1  0  0  0
  4 94  1  0  0  0
  4 95  1  0  0  0
  5  6  1  0  0  0
  5 26  1  0  0  0
  5 96  1  0  0  0
  6 25  1  0  0  0
  6 97  1  0  0  0
  6 98  1  0  0  0
  7  8  2  0  0  0
  7 26  1  0  0  0
  7 29  1  0  0  0
  8  9  1  0  0  0
  8 22  1  0  0  0
  9 10  1  0  0  0
  9 27  2  0  0  0
 10 11  2  0  0  0
 10 15  1  0  0  0
 11 12  1  0  0  0
 11 99  1  0  0  0
 12 13  2  0  0  0
 12100  1  0  0  0
 13 14  1  0  0  0
 13 31  1  0  0  0
 14 15  2  0  0  0
 14101  1  0  0  0
 15102  1  0  0  0
 16 17  2  0  0  0
 16 21  1  0  0  0
 16 31  1  0  0  0
 17 18  1  0  0  0
 17103  1  0  0  0
 18 19  2  0  0  0
 18104  1  0  0  0
 19 20  1  0  0  0
 19 24  1  0  0  0
 20 21  2  0  0  0
 20105  1  0  0  0
 21 23  1  0  0  0
 22 28  1  0  0  0
 22 32  2  0  0  0
 26 27  1  0  0  0
 28106  1  0  0  0
 28107  1  0  0  0
 29108  1  0  0  0
 29109  1  0  0  0
 33 34  1  0  0  0
 33 66  1  0  0  0
 33 70  2  0  0  0
 34 36  1  0  0  0
 34 59  1  0  0  0
 34110  1  0  0  0
 35 44  2  0  0  0
 35 45  1  0  0  0
 35 68  1  0  0  0
 36 56  1  0  0  0
 36111  1  0  0  0
 37 39  1  0  0  0
 37 47  1  0  0  0
 37 66  1  0  0  0
 37112  1  0  0  0
 38 43  2  0  0  0
 38 46  1  0  0  0
 38 47  1  0  0  0
 39 64  1  0  0  0
 39 67  2  0  0  0
 40 52  1  0  0  0
 40 53  2  0  0  0
 40 58  1  0  0  0
 41113  1  0  0  0
 41114  1  0  0  0
 41115  1  0  0  0
 41 48  1  0  0  0
 42 43  1  0  0  0
 42 66  1  0  0  0
 42116  1  0  0  0
 42117  1  0  0  0
 43 44  1  0  0  0
 44118  1  0  0  0
 45 46  2  0  0  0
 45119  1  0  0  0
 46120  1  0  0  0
 47121  1  0  0  0
 47122  1  0  0  0
 48 56  1  0  0  0
 48 65  1  0  0  0
 48123  1  0  0  0
 49 50  1  0  0  0
 49 53  1  0  0  0
 49 64  1  0  0  0
 49124  1  0  0  0
 50 51  1  0  0  0
 50125  1  0  0  0
 50126  1  0  0  0
 51 52  1  0  0  0
 51127  1  0  0  0
 51128  1  0  0  0
 52129  1  0  0  0
 52130  1  0  0  0
 53 54  1  0  0  0
 54 55  2  0  0  0
 54131  1  0  0  0
 55 57  1  0  0  0
 55132  1  0  0  0
 56 69  2  0  0  0
 57 58  2  0  0  0
 57133  1  0  0  0
 58134  1  0  0  0
 59 60  1  0  0  0
 59 61  1  0  0  0
 59 62  1  0  0  0
 60135  1  0  0  0
 60136  1  0  0  0
 60137  1  0  0  0
 61138  1  0  0  0
 61139  1  0  0  0
 61140  1  0  0  0
 62141  1  0  0  0
 62142  1  0  0  0
 62143  1  0  0  0
 63 65  1  0  0  0
 63144  1  0  0  0
 63145  1  0  0  0
 63146  1  0  0  0
 64147  1  0  0  0
 65148  1  0  0  0
 68 84  1  0  0  0
 71 72  2  0  0  0
 71 73  1  0  0  0
 71149  1  0  0  0
 72 75  1  0  0  0
 72 87  1  0  0  0
 73 88  2  0  0  0
 73 89  1  0  0  0
 74 79  1  0  0  0
 74 87  2  0  0  0
 74 88  1  0  0  0
 75150  1  0  0  0
 75151  1  0  0  0
 75152  1  0  0  0
 76153  1  0  0  0
 76154  1  0  0  0
 76155  1  0  0  0
 76 85  1  0  0  0
 77 85  1  0  0  0
 77156  1  0  0  0
 77157  1  0  0  0
 77158  1  0  0  0
 78159  1  0  0  0
 78160  1  0  0  0
 78161  1  0  0  0
 78 86  1  0  0  0
 79 84  1  0  0  0
 79162  1  0  0  0
 79163  1  0  0  0
 80 82  1  0  0  0
 80164  1  0  0  0
 80165  1  0  0  0
 81 85  1  0  0  0
 81 86  1  0  0  0
 81166  1  0  0  0
 81167  1  0  0  0
 82 89  1  0  0  0
 82168  1  0  0  0
 82169  1  0  0  0
 83 86  1  0  0  0
 83 89  1  0  0  0
 83170  1  0  0  0
 83171  1  0  0  0
 84172  1  0  0  0
 84173  1  0  0  0
 85174  1  0  0  0
 86175  1  0  0  0
M  ISO  4   1 100  68 101  80 100  84 101
M  END
> <chiral flag>
0

> <version>
0

> <s_m_source_file>
/data/baiqing/PycharmProjects/Reinvent-master-3.2/result/LINK_invent/BTK/process_docking_weight1_custom_sum_contain_oxygen_bond_distance_aromatic_linkinvent_7_9_3/rearranged_h_0047.sdf

> <i_m_source_file_index>
6

> <r_mmod_Potential_Energy-OPLS-2005>
-246.817810058594

> <r_mmod_Stretch_Energy-OPLS-2005>
119.158996582031

> <r_mmod_Bend_Energy-OPLS-2005>
170.952651977539

> <r_mmod_Torsional_Energy-OPLS-2005>
246.314300537109

> <r_mmod_Improper_Torsional_Energy-OPLS-2005>
11.0732774734497

> <r_mmod_Van_der_Waal_Energy-OPLS-2005>
142.479064941406

> <r_mmod_Electrostatic_Energy-OPLS-2005>
-792.995483398438

> <r_mmod_Solvation_Energy-OPLS-2005>
-219.259918212891

> <b_mmod_Minimization_Converged-OPLS-2005>
0

> <r_mmod_RMS_Derivative-OPLS-2005>
2.60919117927551

$$$$
6
                    3D
 Structure written by MMmdl.
157165  0  0  1  0            999 V2000
  -30.3201  -15.5459   20.3279 C   0  0  0  0  0  0
  -30.4225  -13.0022   19.5614 C   0  0  0  0  0  0
  -29.5562  -12.6627   18.3180 C   0  0  0  0  0  0
  -28.1099  -12.3410   18.7208 C   0  0  0  0  0  0
  -27.5946  -13.3123   19.8083 C   0  0  2  0  0  0
  -28.6093  -13.5864   20.9436 C   0  0  0  0  0  0
  -25.2276  -13.8316   20.5724 C   0  0  0  0  0  0
  -24.1669  -13.0492   20.9303 C   0  0  0  0  0  0
  -24.6379  -11.6993   20.8782 C   0  0  0  0  0  0
  -23.9104  -10.4333   21.0381 C   0  0  0  0  0  0
  -24.3646   -9.4245   21.9176 C   0  0  0  0  0  0
  -23.6339   -8.2257   22.0714 C   0  0  0  0  0  0
  -22.4320   -8.0280   21.3496 C   0  0  0  0  0  0
  -21.9964   -9.0261   20.4603 C   0  0  0  0  0  0
  -22.7262  -10.2182   20.3002 C   0  0  0  0  0  0
  -21.6872   -6.0737   22.5287 C   0  0  0  0  0  0
  -21.4006   -6.5636   23.8226 C   0  0  0  0  0  0
  -21.3656   -5.6753   24.9181 C   0  0  0  0  0  0
  -21.6035   -4.3024   24.7196 C   0  0  0  0  0  0
  -21.8819   -3.8140   23.4316 C   0  0  0  0  0  0
  -21.9206   -4.6952   22.3399 C   0  0  0  0  0  0
  -22.7686  -13.5278   21.1936 C   0  0  0  0  0  0
  -22.1651   -4.2152   21.0957 F   0  0  0  0  0  0
  -21.5651   -3.4491   25.7702 F   0  0  0  0  0  0
  -29.8033  -14.1848   20.3123 N   0  0  0  0  0  0
  -26.2713  -12.9626   20.3122 N   0  0  0  0  0  0
  -25.9314  -11.6709   20.5615 N   0  0  0  0  0  0
  -22.0272  -12.8303   22.0453 N   0  0  0  0  0  0
  -25.4020  -15.2022   20.4112 N   0  0  0  0  0  0
  -31.5430  -15.5043   20.1013 O   0  0  0  0  0  0
  -21.6669   -6.8888   21.4227 O   0  0  0  0  0  0
  -22.3387  -14.5562   20.6728 O   0  0  0  0  0  0
  -24.6805  -31.8081   23.1537 C   0  0  0  0  0  0
  -25.9425  -32.4471   23.8053 C   0  0  1  0  0  0
  -27.2395  -26.7361   20.2533 C   0  0  0  0  0  0
  -25.6028  -33.8298   24.1961 N   0  0  0  0  0  0
  -23.5009  -30.4064   21.5147 C   0  0  2  0  0  0
  -24.9639  -28.7505   20.1306 C   0  0  0  0  0  0
  -22.7725  -29.4375   22.4818 C   0  0  0  0  0  0
  -18.0318  -28.1423   22.8445 C   0  0  0  0  0  0
  -24.1507  -36.7118   23.2624 C   0  0  0  0  0  0
  -26.0809  -30.5542   21.4121 C   0  0  0  0  0  0
  -26.1540  -29.1179   20.7721 C   0  0  0  0  0  0
  -27.2825  -28.1470   20.7847 C   0  0  0  0  0  0
  -26.0184  -26.5691   19.5505 C   0  0  0  0  0  0
  -24.9361  -27.5030   19.4883 C   0  0  0  0  0  0
  -23.7487  -29.6922   20.1545 C   0  0  0  0  0  0
  -25.4164  -36.2887   24.0263 C   0  0  1  0  0  0
  -20.5940  -28.3805   23.1181 C   0  0  2  0  0  0
  -20.6795  -26.9463   22.5426 C   0  0  0  0  0  0
  -19.5784  -26.6399   21.5230 C   0  0  0  0  0  0
  -18.1962  -26.7971   22.1615 C   0  0  0  0  0  0
  -19.1572  -28.8942   23.2779 C   0  0  0  0  0  0
  -18.9485  -30.1534   23.8788 C   0  0  0  0  0  0
  -17.6468  -30.6615   24.0534 C   0  0  0  0  0  0
  -25.9157  -34.9278   23.4948 C   0  0  0  0  0  0
  -16.5361  -29.9061   23.6351 C   0  0  0  0  0  0
  -16.7306  -28.6503   23.0345 C   0  0  0  0  0  0
  -26.4638  -31.6417   25.0618 C   0  0  0  0  0  0
  -25.3738  -31.3720   26.1257 C   0  0  0  0  0  0
  -27.0508  -30.2711   24.6450 C   0  0  0  0  0  0
  -27.6155  -32.4227   25.7399 C   0  0  0  0  0  0
  -27.5584  -37.1700   24.8448 C   0  0  0  0  0  0
  -21.4387  -29.3033   22.3518 N   0  0  0  0  0  0
  -26.4267  -37.3669   23.9410 N   0  0  0  0  0  0
  -24.7780  -30.9546   22.0789 N   0  0  0  0  0  0
  -23.4169  -28.8032   23.3202 O   0  0  0  0  0  0
  -28.2519  -25.5646   20.2434 O   0  0  0  0  0  0
  -26.5818  -34.8878   22.4564 O   0  0  0  0  0  0
  -23.5857  -32.1156   23.6549 O   0  0  0  0  0  0
  -28.1692  -23.4714   23.2672 C   0  0  0  0  0  0
  -28.7937  -23.7579   22.0757 C   0  0  0  0  0  0
  -30.3548  -23.4456   23.6686 C   0  0  0  0  0  0
  -31.6613  -23.1939   24.3692 C   0  0  0  0  0  0
  -31.2694  -24.1165   21.4861 C   0  0  0  0  0  0
  -28.8901  -20.2926   20.5796 C   0  0  0  0  0  0
  -28.8296  -22.1419   20.0274 C   0  0  0  0  0  0
  -29.6871  -18.6182   20.0653 C   0  0  0  0  0  0
  -28.2376  -23.8558   20.6658 C   0  0  2  0  0  0
  -30.1490  -23.7996   22.3834 N   0  0  0  0  0  0
  -29.1441  -23.3039   24.2122 N   0  3  0  0  0  0
  -29.5586  -16.8904   20.4090 N   0  0  0  0  0  0
  -31.4370  -13.2317   19.2380 H   0  0  0  0  0  0
  -30.5244  -12.1238   20.2051 H   0  0  0  0  0  0
  -29.9941  -11.8400   17.7585 H   0  0  0  0  0  0
  -29.5607  -13.5203   17.6454 H   0  0  0  0  0  0
  -28.0843  -11.3189   19.0929 H   0  0  0  0  0  0
  -27.4559  -12.3684   17.8441 H   0  0  0  0  0  0
  -27.4765  -14.2627   19.2840 H   0  0  0  0  0  0
  -28.8340  -12.6821   21.5092 H   0  0  0  0  0  0
  -28.1996  -14.2976   21.6563 H   0  0  0  0  0  0
  -25.2758   -9.5757   22.4801 H   0  0  0  0  0  0
  -24.0043   -7.4637   22.7448 H   0  0  0  0  0  0
  -21.0895   -8.8741   19.8980 H   0  0  0  0  0  0
  -22.3642  -10.9682   19.6120 H   0  0  0  0  0  0
  -21.1964   -7.6124   23.9722 H   0  0  0  0  0  0
  -21.1490   -6.0485   25.9092 H   0  0  0  0  0  0
  -22.0624   -2.7585   23.2793 H   0  0  0  0  0  0
  -22.3805  -11.9985   22.4910 H   0  0  0  0  0  0
  -21.0832  -13.1266   22.2465 H   0  0  0  0  0  0
  -24.6506  -15.8826   20.4942 H   0  0  0  0  0  0
  -26.2654  -15.6016   20.0714 H   0  0  0  0  0  0
  -26.7469  -32.4988   23.0758 H   0  0  0  0  0  0
  -25.0069  -33.9338   25.0025 H   0  0  0  0  0  0
  -22.8222  -31.2409   21.3288 H   0  0  0  0  0  0
  -23.3839  -35.9364   23.3194 H   0  0  0  0  0  0
  -24.3575  -36.8872   22.2050 H   0  0  0  0  0  0
  -23.7173  -37.6222   23.6770 H   0  0  0  0  0  0
  -26.2719  -31.2804   20.6211 H   0  0  0  0  0  0
  -26.9296  -30.6256   22.0766 H   0  0  0  0  0  0
  -28.1929  -28.4575   21.2810 H   0  0  0  0  0  0
  -25.8701  -25.6253   19.0460 H   0  0  0  0  0  0
  -24.0439  -27.2120   18.9508 H   0  0  0  0  0  0
  -23.8951  -30.4446   19.3798 H   0  0  0  0  0  0
  -22.8565  -29.1383   19.8566 H   0  0  0  0  0  0
  -25.1361  -36.1647   25.0748 H   0  0  0  0  0  0
  -20.9985  -28.3436   24.1331 H   0  0  0  0  0  0
  -20.5706  -26.2423   23.3684 H   0  0  0  0  0  0
  -21.6667  -26.7469   22.1229 H   0  0  0  0  0  0
  -19.6962  -25.6305   21.1279 H   0  0  0  0  0  0
  -19.6741  -27.3184   20.6740 H   0  0  0  0  0  0
  -17.4264  -26.6720   21.3978 H   0  0  0  0  0  0
  -18.0323  -26.0105   22.9001 H   0  0  0  0  0  0
  -19.7942  -30.7371   24.2096 H   0  0  0  0  0  0
  -17.5015  -31.6273   24.5152 H   0  0  0  0  0  0
  -15.5345  -30.2918   23.7768 H   0  0  0  0  0  0
  -15.8709  -28.0797   22.7086 H   0  0  0  0  0  0
  -24.6017  -30.6967   25.7544 H   0  0  0  0  0  0
  -24.8857  -32.2948   26.4414 H   0  0  0  0  0  0
  -25.7964  -30.9072   27.0177 H   0  0  0  0  0  0
  -26.3215  -29.6405   24.1370 H   0  0  0  0  0  0
  -27.3828  -29.7037   25.5154 H   0  0  0  0  0  0
  -27.9248  -30.3734   24.0015 H   0  0  0  0  0  0
  -27.2761  -33.3640   26.1720 H   0  0  0  0  0  0
  -28.4082  -32.6574   25.0280 H   0  0  0  0  0  0
  -28.0699  -31.8500   26.5495 H   0  0  0  0  0  0
  -28.2531  -38.0067   24.7592 H   0  0  0  0  0  0
  -28.1159  -36.2610   24.6171 H   0  0  0  0  0  0
  -27.2324  -37.1186   25.8846 H   0  0  0  0  0  0
  -20.9741  -29.8561   21.6424 H   0  0  0  0  0  0
  -26.0115  -38.2691   24.1478 H   0  0  0  0  0  0
  -27.1206  -23.3279   23.4999 H   0  0  0  0  0  0
  -32.3788  -23.9789   24.1291 H   0  0  0  0  0  0
  -32.0497  -22.2230   24.0488 H   0  0  0  0  0  0
  -31.4964  -23.1773   25.4484 H   0  0  0  0  0  0
  -30.9265  -24.7681   20.6860 H   0  0  0  0  0  0
  -31.6832  -23.2017   21.0658 H   0  0  0  0  0  0
  -32.0539  -24.6412   22.0298 H   0  0  0  0  0  0
  -27.8297  -20.0510   20.6381 H   0  0  0  0  0  0
  -29.1686  -20.3580   21.6290 H   0  0  0  0  0  0
  -28.3381  -22.0781   19.0576 H   0  0  0  0  0  0
  -29.8713  -22.3334   19.7650 H   0  0  0  0  0  0
  -30.7587  -18.7993   20.1634 H   0  0  0  0  0  0
  -29.5356  -18.6151   18.9848 H   0  0  0  0  0  0
  -27.1604  -23.7182   20.7696 H   0  0  0  0  0  0
  -28.9782  -23.0730   25.1823 H   0  0  0  0  0  0
  -28.5956  -16.6721   20.6272 H   0  0  0  0  0  0
  1 25  1  0  0  0
  1 30  2  0  0  0
  1 82  1  0  0  0
  2  3  1  0  0  0
  2 25  1  0  0  0
  2 83  1  0  0  0
  2 84  1  0  0  0
  3  4  1  0  0  0
  3 85  1  0  0  0
  3 86  1  0  0  0
  4  5  1  0  0  0
  4 87  1  0  0  0
  4 88  1  0  0  0
  5  6  1  0  0  0
  5 26  1  0  0  0
  5 89  1  0  0  0
  6 25  1  0  0  0
  6 90  1  0  0  0
  6 91  1  0  0  0
  7  8  2  0  0  0
  7 26  1  0  0  0
  7 29  1  0  0  0
  8  9  1  0  0  0
  8 22  1  0  0  0
  9 10  1  0  0  0
  9 27  2  0  0  0
 10 11  2  0  0  0
 10 15  1  0  0  0
 11 12  1  0  0  0
 11 92  1  0  0  0
 12 13  2  0  0  0
 12 93  1  0  0  0
 13 14  1  0  0  0
 13 31  1  0  0  0
 14 15  2  0  0  0
 14 94  1  0  0  0
 15 95  1  0  0  0
 16 17  2  0  0  0
 16 21  1  0  0  0
 16 31  1  0  0  0
 17 18  1  0  0  0
 17 96  1  0  0  0
 18 19  2  0  0  0
 18 97  1  0  0  0
 19 20  1  0  0  0
 19 24  1  0  0  0
 20 21  2  0  0  0
 20 98  1  0  0  0
 21 23  1  0  0  0
 22 28  1  0  0  0
 22 32  2  0  0  0
 26 27  1  0  0  0
 28 99  1  0  0  0
 28100  1  0  0  0
 29101  1  0  0  0
 29102  1  0  0  0
 33 34  1  0  0  0
 33 66  1  0  0  0
 33 70  2  0  0  0
 34 36  1  0  0  0
 34 59  1  0  0  0
 34103  1  0  0  0
 35 44  2  0  0  0
 35 45  1  0  0  0
 35 68  1  0  0  0
 36 56  1  0  0  0
 36104  1  0  0  0
 37 39  1  0  0  0
 37 47  1  0  0  0
 37 66  1  0  0  0
 37105  1  0  0  0
 38 43  2  0  0  0
 38 46  1  0  0  0
 38 47  1  0  0  0
 39 64  1  0  0  0
 39 67  2  0  0  0
 40 52  1  0  0  0
 40 53  2  0  0  0
 40 58  1  0  0  0
 41106  1  0  0  0
 41107  1  0  0  0
 41108  1  0  0  0
 41 48  1  0  0  0
 42 43  1  0  0  0
 42 66  1  0  0  0
 42109  1  0  0  0
 42110  1  0  0  0
 43 44  1  0  0  0
 44111  1  0  0  0
 45 46  2  0  0  0
 45112  1  0  0  0
 46113  1  0  0  0
 47114  1  0  0  0
 47115  1  0  0  0
 48 56  1  0  0  0
 48 65  1  0  0  0
 48116  1  0  0  0
 49 50  1  0  0  0
 49 53  1  0  0  0
 49 64  1  0  0  0
 49117  1  0  0  0
 50 51  1  0  0  0
 50118  1  0  0  0
 50119  1  0  0  0
 51 52  1  0  0  0
 51120  1  0  0  0
 51121  1  0  0  0
 52122  1  0  0  0
 52123  1  0  0  0
 53 54  1  0  0  0
 54 55  2  0  0  0
 54124  1  0  0  0
 55 57  1  0  0  0
 55125  1  0  0  0
 56 69  2  0  0  0
 57 58  2  0  0  0
 57126  1  0  0  0
 58127  1  0  0  0
 59 60  1  0  0  0
 59 61  1  0  0  0
 59 62  1  0  0  0
 60128  1  0  0  0
 60129  1  0  0  0
 60130  1  0  0  0
 61131  1  0  0  0
 61132  1  0  0  0
 61133  1  0  0  0
 62134  1  0  0  0
 62135  1  0  0  0
 62136  1  0  0  0
 63 65  1  0  0  0
 63137  1  0  0  0
 63138  1  0  0  0
 63139  1  0  0  0
 64140  1  0  0  0
 65141  1  0  0  0
 68 79  1  0  0  0
 71 72  2  0  0  0
 71 81  1  0  0  0
 71142  1  0  0  0
 72 79  1  0  0  0
 72 80  1  0  0  0
 73 74  1  0  0  0
 73 80  1  0  0  0
 73 81  2  0  0  0
 74143  1  0  0  0
 74144  1  0  0  0
 74145  1  0  0  0
 75 80  1  0  0  0
 75146  1  0  0  0
 75147  1  0  0  0
 75148  1  0  0  0
 76 77  1  0  0  0
 76 78  1  0  0  0
 76149  1  0  0  0
 76150  1  0  0  0
 77151  1  0  0  0
 77152  1  0  0  0
 77 79  1  0  0  0
 78 82  1  0  0  0
 78153  1  0  0  0
 78154  1  0  0  0
 79155  1  0  0  0
 81156  1  0  0  0
 82157  1  0  0  0
M  CHG  1  81   1
M  ISO  4   1 100  68 101  79 101  82 100
M  END
> <chiral flag>
0

> <version>
0

> <s_m_source_file>
/data/baiqing/PycharmProjects/Reinvent-master-3.2/result/LINK_invent/BTK/process_docking_weight1_custom_sum_contain_oxygen_bond_distance_aromatic_linkinvent_7_9_3/rearranged_h_0047.sdf

> <i_m_source_file_index>
7

> <r_mmod_Potential_Energy-OPLS-2005>
2210.62841796875

> <r_mmod_Stretch_Energy-OPLS-2005>
1119.41027832031

> <r_mmod_Bend_Energy-OPLS-2005>
640.125244140625

> <r_mmod_Torsional_Energy-OPLS-2005>
240.113418579102

> <r_mmod_Improper_Torsional_Energy-OPLS-2005>
4.70902442932129

> <r_mmod_Van_der_Waal_Energy-OPLS-2005>
102.187446594238

> <r_mmod_Electrostatic_Energy-OPLS-2005>
-246.406478881836

> <r_mmod_Solvation_Energy-OPLS-2005>
-433.814422607422

> <b_mmod_Minimization_Converged-OPLS-2005>
0

> <r_mmod_RMS_Derivative-OPLS-2005>
7.65963315963745

$$$$
7
                    3D
 Structure written by MMmdl.
157165  0  0  1  0            999 V2000
  -30.5770  -14.6869   20.4719 C   0  0  0  0  0  0
  -30.4358  -12.4224   19.4555 C   0  0  0  0  0  0
  -29.5057  -12.5088   18.2245 C   0  0  0  0  0  0
  -28.0270  -12.3443   18.6337 C   0  0  0  0  0  0
  -27.6432  -13.2185   19.8564 C   0  0  2  0  0  0
  -28.6862  -13.0928   20.9883 C   0  0  0  0  0  0
  -25.2537  -13.8190   20.5734 C   0  0  0  0  0  0
  -24.1809  -13.0437   20.9241 C   0  0  0  0  0  0
  -24.6379  -11.6916   20.8763 C   0  0  0  0  0  0
  -23.9048  -10.4290   21.0418 C   0  0  0  0  0  0
  -24.3606   -9.4210   21.9197 C   0  0  0  0  0  0
  -23.6284   -8.2243   22.0750 C   0  0  0  0  0  0
  -22.4258   -8.0278   21.3545 C   0  0  0  0  0  0
  -21.9898   -9.0253   20.4641 C   0  0  0  0  0  0
  -22.7222  -10.2145   20.3055 C   0  0  0  0  0  0
  -21.6853   -6.0733   22.5279 C   0  0  0  0  0  0
  -21.4006   -6.5641   23.8209 C   0  0  0  0  0  0
  -21.3672   -5.6795   24.9172 C   0  0  0  0  0  0
  -21.6036   -4.3054   24.7224 C   0  0  0  0  0  0
  -21.8819   -3.8151   23.4343 C   0  0  0  0  0  0
  -21.9200   -4.6964   22.3400 C   0  0  0  0  0  0
  -22.7840  -13.5242   21.1895 C   0  0  0  0  0  0
  -22.1664   -4.2154   21.0972 F   0  0  0  0  0  0
  -21.5631   -3.4540   25.7737 F   0  0  0  0  0  0
  -29.9888  -13.4494   20.4169 N   0  0  0  0  0  0
  -26.2924  -12.9357   20.3273 N   0  0  0  0  0  0
  -25.9279  -11.6513   20.5723 N   0  0  0  0  0  0
  -22.0451  -12.8217   22.0423 N   0  0  0  0  0  0
  -25.4275  -15.1908   20.4200 N   0  0  0  0  0  0
  -31.7606  -14.8400   20.1560 O   0  0  0  0  0  0
  -21.6617   -6.8874   21.4244 O   0  0  0  0  0  0
  -22.3555  -14.5565   20.6767 O   0  0  0  0  0  0
  -24.6293  -31.8576   23.2036 C   0  0  0  0  0  0
  -25.9148  -32.4760   23.8334 C   0  0  1  0  0  0
  -27.1897  -27.2914   20.1182 C   0  0  0  0  0  0
  -25.5976  -33.8569   24.2278 N   0  0  0  0  0  0
  -23.4222  -30.4864   21.5476 C   0  0  2  0  0  0
  -24.8616  -28.9485   20.0999 C   0  0  0  0  0  0
  -22.7490  -29.4625   22.4940 C   0  0  0  0  0  0
  -18.0280  -28.1384   22.8471 C   0  0  0  0  0  0
  -24.1493  -36.7271   23.2644 C   0  0  0  0  0  0
  -25.9658  -30.7813   21.3779 C   0  0  0  0  0  0
  -26.0333  -29.4085   20.7165 C   0  0  0  0  0  0
  -27.2062  -28.5899   20.7192 C   0  0  0  0  0  0
  -26.0135  -26.9133   19.4377 C   0  0  0  0  0  0
  -24.8557  -27.7076   19.4486 C   0  0  0  0  0  0
  -23.6336  -29.8323   20.1577 C   0  0  0  0  0  0
  -25.4115  -36.3085   24.0338 C   0  0  1  0  0  0
  -20.5892  -28.3690   23.1271 C   0  0  2  0  0  0
  -20.6783  -26.9416   22.5406 C   0  0  0  0  0  0
  -19.5768  -26.6383   21.5206 C   0  0  0  0  0  0
  -18.1941  -26.7922   22.1609 C   0  0  0  0  0  0
  -19.1541  -28.8849   23.2864 C   0  0  0  0  0  0
  -18.9468  -30.1445   23.8878 C   0  0  0  0  0  0
  -17.6473  -30.6588   24.0555 C   0  0  0  0  0  0
  -25.9058  -34.9453   23.5102 C   0  0  0  0  0  0
  -16.5360  -29.9082   23.6328 C   0  0  0  0  0  0
  -16.7267  -28.6504   23.0343 C   0  0  0  0  0  0
  -26.4514  -31.6559   25.0696 C   0  0  0  0  0  0
  -25.3749  -31.3681   26.1427 C   0  0  0  0  0  0
  -27.0357  -30.2987   24.6139 C   0  0  0  0  0  0
  -27.6092  -32.4265   25.7466 C   0  0  0  0  0  0
  -27.5566  -37.1805   24.8474 C   0  0  0  0  0  0
  -21.4199  -29.3045   22.3658 N   0  0  0  0  0  0
  -26.4284  -37.3781   23.9417 N   0  0  0  0  0  0
  -24.6926  -31.0601   22.0979 N   0  0  0  0  0  0
  -23.4207  -28.8157   23.3026 O   0  0  0  0  0  0
  -28.2363  -26.3543   20.1903 O   0  0  0  0  0  0
  -26.5621  -34.8922   22.4662 O   0  0  0  0  0  0
  -23.5453  -32.1397   23.7343 O   0  0  0  0  0  0
  -26.5631  -20.2353   20.5774 C   0  0  0  0  0  0
  -26.1876  -22.4133   20.5310 C   0  0  0  0  0  0
  -27.8015  -20.8164   20.4370 C   0  0  0  0  0  0
  -27.5499  -22.2865   20.3766 C   0  0  0  0  0  0
  -24.1672  -20.9330   20.8308 C   0  0  0  0  0  0
  -29.0642  -19.8730   20.3770 C   0  0  0  0  0  0
  -28.4234  -23.5932   20.1415 C   0  0  0  0  0  0
  -28.8108  -18.2708   20.4038 C   0  0  0  0  0  0
  -30.0388  -17.2491   20.5579 C   0  0  0  0  0  0
  -27.8499  -24.9995   20.7040 C   0  0  0  0  0  0
  -25.5875  -21.1889   20.6572 N   0  0  0  0  0  0
  -29.7405  -15.7655   20.6716 N   0  0  0  0  0  0
  -31.4735  -12.5709   19.1550 H   0  0  0  0  0  0
  -30.3932  -11.4336   19.9129 H   0  0  0  0  0  0
  -29.7790  -11.7456   17.4955 H   0  0  0  0  0  0
  -29.6405  -13.4714   17.7270 H   0  0  0  0  0  0
  -27.8663  -11.2922   18.8673 H   0  0  0  0  0  0
  -27.3737  -12.5705   17.7904 H   0  0  0  0  0  0
  -27.6480  -14.2499   19.5035 H   0  0  0  0  0  0
  -28.7143  -12.0735   21.3803 H   0  0  0  0  0  0
  -28.4294  -13.7363   21.8328 H   0  0  0  0  0  0
  -25.2768   -9.5675   22.4784 H   0  0  0  0  0  0
  -24.0004   -7.4616   22.7456 H   0  0  0  0  0  0
  -21.0835   -8.8745   19.8939 H   0  0  0  0  0  0
  -22.3676  -10.9675   19.6155 H   0  0  0  0  0  0
  -21.1978   -7.6153   23.9719 H   0  0  0  0  0  0
  -21.1503   -6.0516   25.9077 H   0  0  0  0  0  0
  -22.0596   -2.7617   23.2827 H   0  0  0  0  0  0
  -22.4045  -11.9872   22.4810 H   0  0  0  0  0  0
  -21.1059  -13.1243   22.2606 H   0  0  0  0  0  0
  -24.6784  -15.8556   20.5771 H   0  0  0  0  0  0
  -26.2665  -15.6242   20.0588 H   0  0  0  0  0  0
  -26.7212  -32.5415   23.1069 H   0  0  0  0  0  0
  -25.0163  -33.9696   25.0453 H   0  0  0  0  0  0
  -22.7174  -31.3088   21.4100 H   0  0  0  0  0  0
  -23.3764  -35.9598   23.3312 H   0  0  0  0  0  0
  -24.3582  -36.8866   22.2057 H   0  0  0  0  0  0
  -23.7228  -37.6469   23.6640 H   0  0  0  0  0  0
  -26.1041  -31.5430   20.6088 H   0  0  0  0  0  0
  -26.8456  -30.8241   22.0084 H   0  0  0  0  0  0
  -28.0978  -28.9284   21.2269 H   0  0  0  0  0  0
  -25.9698  -25.9676   18.9174 H   0  0  0  0  0  0
  -23.9649  -27.3579   18.9450 H   0  0  0  0  0  0
  -23.7541  -30.6142   19.4068 H   0  0  0  0  0  0
  -22.7511  -29.2668   19.8534 H   0  0  0  0  0  0
  -25.1294  -36.1935   25.0829 H   0  0  0  0  0  0
  -20.9958  -28.3267   24.1410 H   0  0  0  0  0  0
  -20.5702  -26.2300   23.3609 H   0  0  0  0  0  0
  -21.6649  -26.7467   22.1201 H   0  0  0  0  0  0
  -19.6953  -25.6293   21.1236 H   0  0  0  0  0  0
  -19.6711  -27.3190   20.6736 H   0  0  0  0  0  0
  -17.4216  -26.6645   21.4011 H   0  0  0  0  0  0
  -18.0354  -26.0066   22.9010 H   0  0  0  0  0  0
  -19.7948  -30.7255   24.2257 H   0  0  0  0  0  0
  -17.5033  -31.6274   24.5148 H   0  0  0  0  0  0
  -15.5359  -30.2993   23.7664 H   0  0  0  0  0  0
  -15.8663  -28.0824   22.7074 H   0  0  0  0  0  0
  -24.5973  -30.6967   25.7750 H   0  0  0  0  0  0
  -24.8885  -32.2833   26.4815 H   0  0  0  0  0  0
  -25.8093  -30.8897   27.0217 H   0  0  0  0  0  0
  -26.2943  -29.6763   24.1116 H   0  0  0  0  0  0
  -27.4018  -29.7201   25.4630 H   0  0  0  0  0  0
  -27.8824  -30.4275   23.9395 H   0  0  0  0  0  0
  -27.2752  -33.3608   26.1991 H   0  0  0  0  0  0
  -28.3941  -32.6732   25.0301 H   0  0  0  0  0  0
  -28.0714  -31.8394   26.5419 H   0  0  0  0  0  0
  -28.2606  -38.0083   24.7511 H   0  0  0  0  0  0
  -28.1040  -36.2615   24.6317 H   0  0  0  0  0  0
  -27.2283  -37.1471   25.8878 H   0  0  0  0  0  0
  -20.9390  -29.8757   21.6858 H   0  0  0  0  0  0
  -26.0165  -38.2854   24.1402 H   0  0  0  0  0  0
  -26.2679  -19.1963   20.6399 H   0  0  0  0  0  0
  -25.5457  -23.2833   20.5466 H   0  0  0  0  0  0
  -23.7219  -20.6539   19.8759 H   0  0  0  0  0  0
  -23.6588  -21.8197   21.2138 H   0  0  0  0  0  0
  -24.0179  -20.1130   21.5348 H   0  0  0  0  0  0
  -29.6984  -20.1371   21.2235 H   0  0  0  0  0  0
  -29.6326  -20.1302   19.4839 H   0  0  0  0  0  0
  -28.5397  -23.6896   19.0625 H   0  0  0  0  0  0
  -29.4269  -23.4262   20.5341 H   0  0  0  0  0  0
  -28.2660  -18.0021   19.4966 H   0  0  0  0  0  0
  -28.1254  -18.0401   21.2202 H   0  0  0  0  0  0
  -30.6060  -17.5343   21.4457 H   0  0  0  0  0  0
  -30.7110  -17.3960   19.7097 H   0  0  0  0  0  0
  -28.0441  -25.0215   21.7764 H   0  0  0  0  0  0
  -26.7706  -24.9337   20.6744 H   0  0  0  0  0  0
  -28.7880  -15.5198   20.8998 H   0  0  0  0  0  0
  1 25  1  0  0  0
  1 30  2  0  0  0
  1 82  1  0  0  0
  2  3  1  0  0  0
  2 25  1  0  0  0
  2 83  1  0  0  0
  2 84  1  0  0  0
  3  4  1  0  0  0
  3 85  1  0  0  0
  3 86  1  0  0  0
  4  5  1  0  0  0
  4 87  1  0  0  0
  4 88  1  0  0  0
  5  6  1  0  0  0
  5 26  1  0  0  0
  5 89  1  0  0  0
  6 25  1  0  0  0
  6 90  1  0  0  0
  6 91  1  0  0  0
  7  8  2  0  0  0
  7 26  1  0  0  0
  7 29  1  0  0  0
  8  9  1  0  0  0
  8 22  1  0  0  0
  9 10  1  0  0  0
  9 27  2  0  0  0
 10 11  2  0  0  0
 10 15  1  0  0  0
 11 12  1  0  0  0
 11 92  1  0  0  0
 12 13  2  0  0  0
 12 93  1  0  0  0
 13 14  1  0  0  0
 13 31  1  0  0  0
 14 15  2  0  0  0
 14 94  1  0  0  0
 15 95  1  0  0  0
 16 17  2  0  0  0
 16 21  1  0  0  0
 16 31  1  0  0  0
 17 18  1  0  0  0
 17 96  1  0  0  0
 18 19  2  0  0  0
 18 97  1  0  0  0
 19 20  1  0  0  0
 19 24  1  0  0  0
 20 21  2  0  0  0
 20 98  1  0  0  0
 21 23  1  0  0  0
 22 28  1  0  0  0
 22 32  2  0  0  0
 26 27  1  0  0  0
 28 99  1  0  0  0
 28100  1  0  0  0
 29101  1  0  0  0
 29102  1  0  0  0
 33 34  1  0  0  0
 33 66  1  0  0  0
 33 70  2  0  0  0
 34 36  1  0  0  0
 34 59  1  0  0  0
 34103  1  0  0  0
 35 44  2  0  0  0
 35 45  1  0  0  0
 35 68  1  0  0  0
 36 56  1  0  0  0
 36104  1  0  0  0
 37 39  1  0  0  0
 37 47  1  0  0  0
 37 66  1  0  0  0
 37105  1  0  0  0
 38 43  2  0  0  0
 38 46  1  0  0  0
 38 47  1  0  0  0
 39 64  1  0  0  0
 39 67  2  0  0  0
 40 52  1  0  0  0
 40 53  2  0  0  0
 40 58  1  0  0  0
 41106  1  0  0  0
 41107  1  0  0  0
 41108  1  0  0  0
 41 48  1  0  0  0
 42 43  1  0  0  0
 42 66  1  0  0  0
 42109  1  0  0  0
 42110  1  0  0  0
 43 44  1  0  0  0
 44111  1  0  0  0
 45 46  2  0  0  0
 45112  1  0  0  0
 46113  1  0  0  0
 47114  1  0  0  0
 47115  1  0  0  0
 48 56  1  0  0  0
 48 65  1  0  0  0
 48116  1  0  0  0
 49 50  1  0  0  0
 49 53  1  0  0  0
 49 64  1  0  0  0
 49117  1  0  0  0
 50 51  1  0  0  0
 50118  1  0  0  0
 50119  1  0  0  0
 51 52  1  0  0  0
 51120  1  0  0  0
 51121  1  0  0  0
 52122  1  0  0  0
 52123  1  0  0  0
 53 54  1  0  0  0
 54 55  2  0  0  0
 54124  1  0  0  0
 55 57  1  0  0  0
 55125  1  0  0  0
 56 69  2  0  0  0
 57 58  2  0  0  0
 57126  1  0  0  0
 58127  1  0  0  0
 59 60  1  0  0  0
 59 61  1  0  0  0
 59 62  1  0  0  0
 60128  1  0  0  0
 60129  1  0  0  0
 60130  1  0  0  0
 61131  1  0  0  0
 61132  1  0  0  0
 61133  1  0  0  0
 62134  1  0  0  0
 62135  1  0  0  0
 62136  1  0  0  0
 63 65  1  0  0  0
 63137  1  0  0  0
 63138  1  0  0  0
 63139  1  0  0  0
 64140  1  0  0  0
 65141  1  0  0  0
 68 80  1  0  0  0
 71 73  2  0  0  0
 71 81  1  0  0  0
 71142  1  0  0  0
 72 74  2  0  0  0
 72 81  1  0  0  0
 72143  1  0  0  0
 73 74  1  0  0  0
 73 76  1  0  0  0
 74 77  1  0  0  0
 75 81  1  0  0  0
 75144  1  0  0  0
 75145  1  0  0  0
 75146  1  0  0  0
 76 78  1  0  0  0
 76147  1  0  0  0
 76148  1  0  0  0
 77 80  1  0  0  0
 77149  1  0  0  0
 77150  1  0  0  0
 78 79  1  0  0  0
 78151  1  0  0  0
 78152  1  0  0  0
 79 82  1  0  0  0
 79153  1  0  0  0
 79154  1  0  0  0
 80155  1  0  0  0
 80156  1  0  0  0
 82157  1  0  0  0
M  ISO  4   1 100  68 101  80 101  82 100
M  END
> <chiral flag>
0

> <version>
0

> <s_m_source_file>
/data/baiqing/PycharmProjects/Reinvent-master-3.2/result/LINK_invent/BTK/process_docking_weight1_custom_sum_contain_oxygen_bond_distance_aromatic_linkinvent_7_9_3/rearranged_h_0047.sdf

> <i_m_source_file_index>
8

> <r_mmod_Potential_Energy-OPLS-2005>
114.040390014648

> <r_mmod_Stretch_Energy-OPLS-2005>
110.960182189941

> <r_mmod_Bend_Energy-OPLS-2005>
161.031555175781

> <r_mmod_Torsional_Energy-OPLS-2005>
223.876953125

> <r_mmod_Improper_Torsional_Energy-OPLS-2005>
5.17344188690186

> <r_mmod_Van_der_Waal_Energy-OPLS-2005>
128.324768066406

> <r_mmod_Electrostatic_Energy-OPLS-2005>
-371.745880126953

> <r_mmod_Solvation_Energy-OPLS-2005>
-217.38459777832

> <b_mmod_Minimization_Converged-OPLS-2005>
0

> <r_mmod_RMS_Derivative-OPLS-2005>
3.62715554237366

$$$$
8
                    3D
 Structure written by MMmdl.
163171  0  0  1  0            999 V2000
  -30.6070  -14.7340   20.4711 C   0  0  0  0  0  0
  -30.4403  -12.4538   19.4561 C   0  0  0  0  0  0
  -29.5102  -12.5003   18.2237 C   0  0  0  0  0  0
  -28.0385  -12.3182   18.6468 C   0  0  0  0  0  0
  -27.6428  -13.2229   19.8436 C   0  0  2  0  0  0
  -28.6893  -13.1507   20.9751 C   0  0  0  0  0  0
  -25.2542  -13.8169   20.5701 C   0  0  0  0  0  0
  -24.1816  -13.0443   20.9235 C   0  0  0  0  0  0
  -24.6391  -11.6909   20.8766 C   0  0  0  0  0  0
  -23.9061  -10.4288   21.0427 C   0  0  0  0  0  0
  -24.3615   -9.4197   21.9199 C   0  0  0  0  0  0
  -23.6290   -8.2234   22.0762 C   0  0  0  0  0  0
  -22.4267   -8.0264   21.3543 C   0  0  0  0  0  0
  -21.9909   -9.0248   20.4653 C   0  0  0  0  0  0
  -22.7237  -10.2131   20.3071 C   0  0  0  0  0  0
  -21.6851   -6.0718   22.5274 C   0  0  0  0  0  0
  -21.4015   -6.5634   23.8208 C   0  0  0  0  0  0
  -21.3661   -5.6789   24.9172 C   0  0  0  0  0  0
  -21.6049   -4.3050   24.7227 C   0  0  0  0  0  0
  -21.8822   -3.8136   23.4350 C   0  0  0  0  0  0
  -21.9191   -4.6949   22.3408 C   0  0  0  0  0  0
  -22.7847  -13.5243   21.1882 C   0  0  0  0  0  0
  -22.1661   -4.2138   21.0978 F   0  0  0  0  0  0
  -21.5629   -3.4535   25.7746 F   0  0  0  0  0  0
  -29.9879  -13.5093   20.3876 N   0  0  0  0  0  0
  -26.2938  -12.9365   20.3236 N   0  0  0  0  0  0
  -25.9303  -11.6516   20.5714 N   0  0  0  0  0  0
  -22.0488  -12.8228   22.0426 N   0  0  0  0  0  0
  -25.4256  -15.1889   20.4093 N   0  0  0  0  0  0
  -31.8028  -14.8481   20.1904 O   0  0  0  0  0  0
  -21.6632   -6.8860   21.4233 O   0  0  0  0  0  0
  -22.3541  -14.5544   20.6716 O   0  0  0  0  0  0
  -24.6306  -31.8551   23.1991 C   0  0  0  0  0  0
  -25.9137  -32.4751   23.8325 C   0  0  1  0  0  0
  -27.2225  -27.2640   20.1263 C   0  0  0  0  0  0
  -25.5938  -33.8557   24.2241 N   0  0  0  0  0  0
  -23.4262  -30.4782   21.5426 C   0  0  2  0  0  0
  -24.8746  -28.9270   20.1091 C   0  0  0  0  0  0
  -22.7493  -29.4600   22.4914 C   0  0  0  0  0  0
  -18.0292  -28.1384   22.8466 C   0  0  0  0  0  0
  -24.1494  -36.7275   23.2637 C   0  0  0  0  0  0
  -25.9733  -30.7696   21.3787 C   0  0  0  0  0  0
  -26.0466  -29.3936   20.7168 C   0  0  0  0  0  0
  -27.2232  -28.5766   20.7111 C   0  0  0  0  0  0
  -26.0233  -26.8667   19.4897 C   0  0  0  0  0  0
  -24.8683  -27.6716   19.4847 C   0  0  0  0  0  0
  -23.6441  -29.8136   20.1582 C   0  0  0  0  0  0
  -25.4122  -36.3058   24.0312 C   0  0  1  0  0  0
  -20.5889  -28.3699   23.1275 C   0  0  2  0  0  0
  -20.6794  -26.9416   22.5426 C   0  0  0  0  0  0
  -19.5788  -26.6365   21.5220 C   0  0  0  0  0  0
  -18.1951  -26.7922   22.1607 C   0  0  0  0  0  0
  -19.1539  -28.8860   23.2860 C   0  0  0  0  0  0
  -18.9460  -30.1457   23.8882 C   0  0  0  0  0  0
  -17.6461  -30.6589   24.0550 C   0  0  0  0  0  0
  -25.9068  -34.9429   23.5077 C   0  0  0  0  0  0
  -16.5353  -29.9083   23.6327 C   0  0  0  0  0  0
  -16.7273  -28.6502   23.0342 C   0  0  0  0  0  0
  -26.4501  -31.6586   25.0720 C   0  0  0  0  0  0
  -25.3714  -31.3763   26.1437 C   0  0  0  0  0  0
  -27.0348  -30.2992   24.6232 C   0  0  0  0  0  0
  -27.6039  -32.4339   25.7499 C   0  0  0  0  0  0
  -27.5573  -37.1796   24.8461 C   0  0  0  0  0  0
  -21.4201  -29.3036   22.3659 N   0  0  0  0  0  0
  -26.4292  -37.3756   23.9398 N   0  0  0  0  0  0
  -24.6955  -31.0524   22.0960 N   0  0  0  0  0  0
  -23.4200  -28.8139   23.3007 O   0  0  0  0  0  0
  -28.3193  -26.3702   20.1918 O   0  0  0  0  0  0
  -26.5643  -34.8909   22.4653 O   0  0  0  0  0  0
  -23.5460  -32.1374   23.7296 O   0  0  0  0  0  0
  -28.0355  -21.5304   22.1521 C   0  0  0  0  0  0
  -27.7415  -20.4187   22.8892 C   0  0  0  0  0  0
  -28.9545  -19.7577   21.1046 C   0  0  0  0  0  0
  -26.9534  -20.2416   24.1475 C   0  0  0  0  0  0
  -30.5595  -19.1320   19.2246 C   0  0  0  0  0  0
  -28.3284  -18.0519   19.3503 C   0  0  0  0  0  0
  -29.2000  -23.7941   20.4150 C   0  0  0  0  0  0
  -29.1193  -22.2099   19.9988 C   0  0  0  0  0  0
  -30.1757  -17.3046   20.9872 C   0  0  0  0  0  0
  -28.0926  -24.8941   19.9917 C   0  0  0  0  0  0
  -29.5036  -18.5793   20.1952 C   0  0  0  0  0  0
  -28.7601  -21.1479   21.0453 N   0  0  0  0  0  0
  -28.3075  -19.3768   22.2153 N   0  3  0  0  0  0
  -29.8128  -15.8474   20.6873 N   0  0  0  0  0  0
  -31.4790  -12.5907   19.1473 H   0  0  0  0  0  0
  -30.3995  -11.4774   19.9415 H   0  0  0  0  0  0
  -29.7929  -11.7262   17.5081 H   0  0  0  0  0  0
  -29.6314  -13.4535   17.7057 H   0  0  0  0  0  0
  -27.9067  -11.2725   18.9263 H   0  0  0  0  0  0
  -27.3744  -12.4935   17.7999 H   0  0  0  0  0  0
  -27.6390  -14.2423   19.4581 H   0  0  0  0  0  0
  -28.7307  -12.1491   21.4063 H   0  0  0  0  0  0
  -28.4206  -13.8235   21.7911 H   0  0  0  0  0  0
  -25.2773   -9.5666   22.4772 H   0  0  0  0  0  0
  -23.9982   -7.4625   22.7490 H   0  0  0  0  0  0
  -21.0834   -8.8780   19.8969 H   0  0  0  0  0  0
  -22.3694  -10.9672   19.6180 H   0  0  0  0  0  0
  -21.2004   -7.6145   23.9698 H   0  0  0  0  0  0
  -21.1488   -6.0530   25.9077 H   0  0  0  0  0  0
  -22.0598   -2.7601   23.2857 H   0  0  0  0  0  0
  -22.4097  -11.9883   22.4819 H   0  0  0  0  0  0
  -21.1103  -13.1268   22.2617 H   0  0  0  0  0  0
  -24.6463  -15.8310   20.5004 H   0  0  0  0  0  0
  -26.2362  -15.6061   19.9723 H   0  0  0  0  0  0
  -26.7195  -32.5400   23.1055 H   0  0  0  0  0  0
  -25.0060  -33.9697   25.0370 H   0  0  0  0  0  0
  -22.7208  -31.2996   21.3985 H   0  0  0  0  0  0
  -23.3750  -35.9617   23.3315 H   0  0  0  0  0  0
  -24.3575  -36.8898   22.2049 H   0  0  0  0  0  0
  -23.7267  -37.6482   23.6670 H   0  0  0  0  0  0
  -26.1177  -31.5358   20.6154 H   0  0  0  0  0  0
  -26.8476  -30.8128   22.0159 H   0  0  0  0  0  0
  -28.1203  -28.9319   21.1992 H   0  0  0  0  0  0
  -25.9457  -25.9064   19.0027 H   0  0  0  0  0  0
  -23.9698  -27.3088   19.0040 H   0  0  0  0  0  0
  -23.7657  -30.5915   19.4039 H   0  0  0  0  0  0
  -22.7629  -29.2467   19.8520 H   0  0  0  0  0  0
  -25.1312  -36.1886   25.0803 H   0  0  0  0  0  0
  -20.9959  -28.3296   24.1406 H   0  0  0  0  0  0
  -20.5705  -26.2310   23.3635 H   0  0  0  0  0  0
  -21.6665  -26.7457   22.1224 H   0  0  0  0  0  0
  -19.6972  -25.6267   21.1280 H   0  0  0  0  0  0
  -19.6750  -27.3150   20.6733 H   0  0  0  0  0  0
  -17.4230  -26.6642   21.4001 H   0  0  0  0  0  0
  -18.0356  -26.0072   22.9014 H   0  0  0  0  0  0
  -19.7933  -30.7267   24.2255 H   0  0  0  0  0  0
  -17.5018  -31.6269   24.5147 H   0  0  0  0  0  0
  -15.5355  -30.2984   23.7669 H   0  0  0  0  0  0
  -15.8664  -28.0821   22.7072 H   0  0  0  0  0  0
  -24.5876  -30.7124   25.7773 H   0  0  0  0  0  0
  -24.8923  -32.2950   26.4829 H   0  0  0  0  0  0
  -25.8018  -30.8957   27.0230 H   0  0  0  0  0  0
  -26.2944  -29.6736   24.1226 H   0  0  0  0  0  0
  -27.3981  -29.7255   25.4768 H   0  0  0  0  0  0
  -27.8842  -30.4247   23.9512 H   0  0  0  0  0  0
  -27.2621  -33.3628   26.2071 H   0  0  0  0  0  0
  -28.3851  -32.6923   25.0340 H   0  0  0  0  0  0
  -28.0702  -31.8475   26.5425 H   0  0  0  0  0  0
  -28.2594  -38.0088   24.7486 H   0  0  0  0  0  0
  -28.1065  -36.2614   24.6314 H   0  0  0  0  0  0
  -27.2287  -37.1470   25.8866 H   0  0  0  0  0  0
  -20.9393  -29.8732   21.6834 H   0  0  0  0  0  0
  -26.0161  -38.2827   24.1404 H   0  0  0  0  0  0
  -27.7441  -22.5556   22.3332 H   0  0  0  0  0  0
  -27.5320  -20.5813   25.0062 H   0  0  0  0  0  0
  -26.6904  -19.1940   24.2995 H   0  0  0  0  0  0
  -26.0302  -20.8204   24.1014 H   0  0  0  0  0  0
  -30.1384  -19.8747   18.5478 H   0  0  0  0  0  0
  -30.9707  -18.3369   18.6020 H   0  0  0  0  0  0
  -31.3883  -19.5953   19.7608 H   0  0  0  0  0  0
  -27.8766  -18.8445   18.7524 H   0  0  0  0  0  0
  -27.5441  -17.6281   19.9758 H   0  0  0  0  0  0
  -28.6542  -17.2772   18.6556 H   0  0  0  0  0  0
  -30.1235  -24.1546   19.9609 H   0  0  0  0  0  0
  -29.3998  -23.8835   21.4823 H   0  0  0  0  0  0
  -30.1051  -21.9267   19.6317 H   0  0  0  0  0  0
  -28.4440  -22.0775   19.1534 H   0  0  0  0  0  0
  -29.9711  -17.4084   22.0510 H   0  0  0  0  0  0
  -31.2617  -17.3979   20.9494 H   0  0  0  0  0  0
  -27.1721  -24.6220   20.5109 H   0  0  0  0  0  0
  -27.8968  -24.7488   18.9291 H   0  0  0  0  0  0
  -28.2157  -18.4080   22.4944 H   0  0  0  0  0  0
  -28.8342  -15.6290   20.7883 H   0  0  0  0  0  0
  1 25  1  0  0  0
  1 30  2  0  0  0
  1 84  1  0  0  0
  2  3  1  0  0  0
  2 25  1  0  0  0
  2 85  1  0  0  0
  2 86  1  0  0  0
  3  4  1  0  0  0
  3 87  1  0  0  0
  3 88  1  0  0  0
  4  5  1  0  0  0
  4 89  1  0  0  0
  4 90  1  0  0  0
  5  6  1  0  0  0
  5 26  1  0  0  0
  5 91  1  0  0  0
  6 25  1  0  0  0
  6 92  1  0  0  0
  6 93  1  0  0  0
  7  8  2  0  0  0
  7 26  1  0  0  0
  7 29  1  0  0  0
  8  9  1  0  0  0
  8 22  1  0  0  0
  9 10  1  0  0  0
  9 27  2  0  0  0
 10 11  2  0  0  0
 10 15  1  0  0  0
 11 12  1  0  0  0
 11 94  1  0  0  0
 12 13  2  0  0  0
 12 95  1  0  0  0
 13 14  1  0  0  0
 13 31  1  0  0  0
 14 15  2  0  0  0
 14 96  1  0  0  0
 15 97  1  0  0  0
 16 17  2  0  0  0
 16 21  1  0  0  0
 16 31  1  0  0  0
 17 18  1  0  0  0
 17 98  1  0  0  0
 18 19  2  0  0  0
 18 99  1  0  0  0
 19 20  1  0  0  0
 19 24  1  0  0  0
 20 21  2  0  0  0
 20100  1  0  0  0
 21 23  1  0  0  0
 22 28  1  0  0  0
 22 32  2  0  0  0
 26 27  1  0  0  0
 28101  1  0  0  0
 28102  1  0  0  0
 29103  1  0  0  0
 29104  1  0  0  0
 33 34  1  0  0  0
 33 66  1  0  0  0
 33 70  2  0  0  0
 34 36  1  0  0  0
 34 59  1  0  0  0
 34105  1  0  0  0
 35 44  2  0  0  0
 35 45  1  0  0  0
 35 68  1  0  0  0
 36 56  1  0  0  0
 36106  1  0  0  0
 37 39  1  0  0  0
 37 47  1  0  0  0
 37 66  1  0  0  0
 37107  1  0  0  0
 38 43  2  0  0  0
 38 46  1  0  0  0
 38 47  1  0  0  0
 39 64  1  0  0  0
 39 67  2  0  0  0
 40 52  1  0  0  0
 40 53  2  0  0  0
 40 58  1  0  0  0
 41108  1  0  0  0
 41109  1  0  0  0
 41110  1  0  0  0
 41 48  1  0  0  0
 42 43  1  0  0  0
 42 66  1  0  0  0
 42111  1  0  0  0
 42112  1  0  0  0
 43 44  1  0  0  0
 44113  1  0  0  0
 45 46  2  0  0  0
 45114  1  0  0  0
 46115  1  0  0  0
 47116  1  0  0  0
 47117  1  0  0  0
 48 56  1  0  0  0
 48 65  1  0  0  0
 48118  1  0  0  0
 49 50  1  0  0  0
 49 53  1  0  0  0
 49 64  1  0  0  0
 49119  1  0  0  0
 50 51  1  0  0  0
 50120  1  0  0  0
 50121  1  0  0  0
 51 52  1  0  0  0
 51122  1  0  0  0
 51123  1  0  0  0
 52124  1  0  0  0
 52125  1  0  0  0
 53 54  1  0  0  0
 54 55  2  0  0  0
 54126  1  0  0  0
 55 57  1  0  0  0
 55127  1  0  0  0
 56 69  2  0  0  0
 57 58  2  0  0  0
 57128  1  0  0  0
 58129  1  0  0  0
 59 60  1  0  0  0
 59 61  1  0  0  0
 59 62  1  0  0  0
 60130  1  0  0  0
 60131  1  0  0  0
 60132  1  0  0  0
 61133  1  0  0  0
 61134  1  0  0  0
 61135  1  0  0  0
 62136  1  0  0  0
 62137  1  0  0  0
 62138  1  0  0  0
 63 65  1  0  0  0
 63139  1  0  0  0
 63140  1  0  0  0
 63141  1  0  0  0
 64142  1  0  0  0
 65143  1  0  0  0
 68 80  1  0  0  0
 71 72  2  0  0  0
 71 82  1  0  0  0
 71144  1  0  0  0
 72 74  1  0  0  0
 72 83  1  0  0  0
 73 81  1  0  0  0
 73 82  1  0  0  0
 73 83  2  0  0  0
 74145  1  0  0  0
 74146  1  0  0  0
 74147  1  0  0  0
 75148  1  0  0  0
 75149  1  0  0  0
 75150  1  0  0  0
 75 81  1  0  0  0
 76 81  1  0  0  0
 76151  1  0  0  0
 76152  1  0  0  0
 76153  1  0  0  0
 77 78  1  0  0  0
 77 80  1  0  0  0
 77154  1  0  0  0
 77155  1  0  0  0
 78 82  1  0  0  0
 78156  1  0  0  0
 78157  1  0  0  0
 79 81  1  0  0  0
 79 84  1  0  0  0
 79158  1  0  0  0
 79159  1  0  0  0
 80160  1  0  0  0
 80161  1  0  0  0
 83162  1  0  0  0
 84163  1  0  0  0
M  CHG  1  83   1
M  ISO  4   1 100  68 101  80 101  84 100
M  END
> <chiral flag>
0

> <version>
0

> <s_m_source_file>
/data/baiqing/PycharmProjects/Reinvent-master-3.2/result/LINK_invent/BTK/process_docking_weight1_custom_sum_contain_oxygen_bond_distance_aromatic_linkinvent_7_9_3/rearranged_h_0047.sdf

> <i_m_source_file_index>
9

> <r_mmod_Potential_Energy-OPLS-2005>
165.459259033203

> <r_mmod_Stretch_Energy-OPLS-2005>
136.877014160156

> <r_mmod_Bend_Energy-OPLS-2005>
203.375305175781

> <r_mmod_Torsional_Energy-OPLS-2005>
269.238708496094

> <r_mmod_Improper_Torsional_Energy-OPLS-2005>
5.54666805267334

> <r_mmod_Van_der_Waal_Energy-OPLS-2005>
115.644630432129

> <r_mmod_Electrostatic_Energy-OPLS-2005>
-224.685745239258

> <r_mmod_Solvation_Energy-OPLS-2005>
-424.569915771484

> <b_mmod_Minimization_Converged-OPLS-2005>
0

> <r_mmod_RMS_Derivative-OPLS-2005>
2.19991540908813

$$$$
9
                    3D
 Structure written by MMmdl.
164172  0  0  1  0            999 V2000
  -30.6363  -14.5620   20.5442 C   0  0  0  0  0  0
  -30.4395  -12.3585   19.4184 C   0  0  0  0  0  0
  -29.5009  -12.5009   18.2007 C   0  0  0  0  0  0
  -28.0221  -12.3485   18.6158 C   0  0  0  0  0  0
  -27.6555  -13.2016   19.8591 C   0  0  2  0  0  0
  -28.7002  -13.0120   20.9795 C   0  0  0  0  0  0
  -25.2598  -13.8151   20.5639 C   0  0  0  0  0  0
  -24.1840  -13.0437   20.9177 C   0  0  0  0  0  0
  -24.6386  -11.6904   20.8720 C   0  0  0  0  0  0
  -23.9042  -10.4296   21.0406 C   0  0  0  0  0  0
  -24.3595   -9.4217   21.9190 C   0  0  0  0  0  0
  -23.6279   -8.2246   22.0757 C   0  0  0  0  0  0
  -22.4266   -8.0273   21.3539 C   0  0  0  0  0  0
  -21.9892   -9.0249   20.4645 C   0  0  0  0  0  0
  -22.7214  -10.2139   20.3058 C   0  0  0  0  0  0
  -21.6852   -6.0725   22.5274 C   0  0  0  0  0  0
  -21.4016   -6.5631   23.8208 C   0  0  0  0  0  0
  -21.3658   -5.6786   24.9171 C   0  0  0  0  0  0
  -21.6042   -4.3048   24.7230 C   0  0  0  0  0  0
  -21.8819   -3.8137   23.4352 C   0  0  0  0  0  0
  -21.9197   -4.6951   22.3406 C   0  0  0  0  0  0
  -22.7869  -13.5251   21.1842 C   0  0  0  0  0  0
  -22.1660   -4.2130   21.0984 F   0  0  0  0  0  0
  -21.5636   -3.4539   25.7749 F   0  0  0  0  0  0
  -30.0176  -13.3525   20.4176 N   0  0  0  0  0  0
  -26.2997  -12.9288   20.3275 N   0  0  0  0  0  0
  -25.9307  -11.6462   20.5724 N   0  0  0  0  0  0
  -22.0493  -12.8243   22.0393 N   0  0  0  0  0  0
  -25.4364  -15.1861   20.4038 N   0  0  0  0  0  0
  -31.7990  -14.7588   20.1819 O   0  0  0  0  0  0
  -21.6630   -6.8867   21.4236 O   0  0  0  0  0  0
  -22.3558  -14.5562   20.6700 O   0  0  0  0  0  0
  -24.6176  -31.8628   23.2087 C   0  0  0  0  0  0
  -25.9036  -32.4798   23.8411 C   0  0  1  0  0  0
  -27.2241  -27.3647   20.1127 C   0  0  0  0  0  0
  -25.5874  -33.8600   24.2317 N   0  0  0  0  0  0
  -23.4094  -30.4849   21.5516 C   0  0  2  0  0  0
  -24.8558  -28.9514   20.1120 C   0  0  0  0  0  0
  -22.7436  -29.4586   22.4982 C   0  0  0  0  0  0
  -18.0250  -28.1351   22.8468 C   0  0  0  0  0  0
  -24.1477  -36.7306   23.2636 C   0  0  0  0  0  0
  -25.9458  -30.8064   21.3750 C   0  0  0  0  0  0
  -26.0207  -29.4383   20.7182 C   0  0  0  0  0  0
  -27.2045  -28.6530   20.7144 C   0  0  0  0  0  0
  -26.0418  -26.9265   19.4684 C   0  0  0  0  0  0
  -24.8669  -27.6990   19.4805 C   0  0  0  0  0  0
  -23.6201  -29.8230   20.1649 C   0  0  0  0  0  0
  -25.4104  -36.3103   24.0329 C   0  0  1  0  0  0
  -20.5845  -28.3617   23.1316 C   0  0  2  0  0  0
  -20.6733  -26.9351   22.5414 C   0  0  0  0  0  0
  -19.5731  -26.6351   21.5190 C   0  0  0  0  0  0
  -18.1901  -26.7883   22.1598 C   0  0  0  0  0  0
  -19.1506  -28.8802   23.2870 C   0  0  0  0  0  0
  -18.9440  -30.1403   23.8881 C   0  0  0  0  0  0
  -17.6450  -30.6563   24.0540 C   0  0  0  0  0  0
  -25.9030  -34.9460   23.5130 C   0  0  0  0  0  0
  -16.5331  -29.9060   23.6332 C   0  0  0  0  0  0
  -16.7240  -28.6473   23.0356 C   0  0  0  0  0  0
  -26.4461  -31.6598   25.0755 C   0  0  0  0  0  0
  -25.3746  -31.3693   26.1528 C   0  0  0  0  0  0
  -27.0294  -30.3027   24.6168 C   0  0  0  0  0  0
  -27.6029  -32.4335   25.7513 C   0  0  0  0  0  0
  -27.5576  -37.1803   24.8463 C   0  0  0  0  0  0
  -21.4150  -29.2993   22.3747 N   0  0  0  0  0  0
  -26.4289  -37.3788   23.9408 N   0  0  0  0  0  0
  -24.6758  -31.0680   22.1016 N   0  0  0  0  0  0
  -23.4199  -28.8112   23.3013 O   0  0  0  0  0  0
  -28.3705  -26.5726   20.1788 O   0  0  0  0  0  0
  -26.5620  -34.8916   22.4708 O   0  0  0  0  0  0
  -23.5349  -32.1400   23.7453 O   0  0  0  0  0  0
  -30.1548  -22.3950   22.9898 C   0  0  0  0  0  0
  -30.5349  -21.6200   24.0975 C   0  0  0  0  0  0
  -29.6820  -21.7770   21.8068 C   0  0  0  0  0  0
  -30.4926  -20.2231   23.9820 C   0  0  0  0  0  0
  -29.7094  -20.3359   21.7771 C   0  0  0  0  0  0
  -30.9448  -22.2914   25.3972 C   0  0  0  0  0  0
  -30.8664  -19.3067   25.1333 C   0  0  0  0  0  0
  -29.1079  -22.6852   20.6786 C   0  0  0  0  0  0
  -29.1434  -19.4411   20.6542 C   0  0  0  0  0  0
  -29.1008  -24.2474   20.9429 C   0  0  0  0  0  0
  -29.8904  -18.0977   20.2623 C   0  0  0  0  0  0
  -30.0974  -16.9747   21.3457 C   0  0  0  0  0  0
  -28.2731  -25.1298   19.9556 C   0  0  0  0  0  0
  -30.0984  -19.6163   22.8519 N   0  0  0  0  0  0
  -29.8212  -15.5705   20.9417 N   0  0  0  0  0  0
  -31.4784  -12.4978   19.1129 H   0  0  0  0  0  0
  -30.3774  -11.3530   19.8382 H   0  0  0  0  0  0
  -29.7525  -11.7582   17.4426 H   0  0  0  0  0  0
  -29.6508  -13.4748   17.7314 H   0  0  0  0  0  0
  -27.8450  -11.2934   18.8271 H   0  0  0  0  0  0
  -27.3699  -12.6025   17.7795 H   0  0  0  0  0  0
  -27.6867  -14.2426   19.5386 H   0  0  0  0  0  0
  -28.7041  -11.9788   21.3300 H   0  0  0  0  0  0
  -28.4525  -13.6169   21.8529 H   0  0  0  0  0  0
  -25.2744   -9.5694   22.4758 H   0  0  0  0  0  0
  -23.9990   -7.4635   22.7475 H   0  0  0  0  0  0
  -21.0822   -8.8766   19.8948 H   0  0  0  0  0  0
  -22.3672  -10.9673   19.6158 H   0  0  0  0  0  0
  -21.2004   -7.6138   23.9704 H   0  0  0  0  0  0
  -21.1479   -6.0518   25.9069 H   0  0  0  0  0  0
  -22.0603   -2.7598   23.2862 H   0  0  0  0  0  0
  -22.4084  -11.9896   22.4771 H   0  0  0  0  0  0
  -21.1121  -13.1290   22.2603 H   0  0  0  0  0  0
  -24.6768  -15.8495   20.5126 H   0  0  0  0  0  0
  -26.2869  -15.6155   20.0620 H   0  0  0  0  0  0
  -26.7108  -32.5501   23.1180 H   0  0  0  0  0  0
  -25.0031  -33.9758   25.0469 H   0  0  0  0  0  0
  -22.6983  -31.3015   21.4148 H   0  0  0  0  0  0
  -23.3734  -35.9640   23.3310 H   0  0  0  0  0  0
  -24.3568  -36.8925   22.2051 H   0  0  0  0  0  0
  -23.7243  -37.6515   23.6658 H   0  0  0  0  0  0
  -26.0774  -31.5701   20.6068 H   0  0  0  0  0  0
  -26.8257  -30.8547   22.0048 H   0  0  0  0  0  0
  -28.0983  -29.0121   21.2055 H   0  0  0  0  0  0
  -25.9919  -25.9833   18.9466 H   0  0  0  0  0  0
  -23.9761  -27.3239   18.9950 H   0  0  0  0  0  0
  -23.7356  -30.6016   19.4101 H   0  0  0  0  0  0
  -22.7406  -29.2496   19.8645 H   0  0  0  0  0  0
  -25.1280  -36.1974   25.0820 H   0  0  0  0  0  0
  -20.9902  -28.3165   24.1451 H   0  0  0  0  0  0
  -20.5605  -26.2211   23.3583 H   0  0  0  0  0  0
  -21.6610  -26.7380   22.1235 H   0  0  0  0  0  0
  -19.6900  -25.6265   21.1214 H   0  0  0  0  0  0
  -19.6689  -27.3156   20.6715 H   0  0  0  0  0  0
  -17.4163  -26.6584   21.4007 H   0  0  0  0  0  0
  -18.0326  -26.0017   22.8997 H   0  0  0  0  0  0
  -19.7924  -30.7189   24.2260 H   0  0  0  0  0  0
  -17.5016  -31.6254   24.5123 H   0  0  0  0  0  0
  -15.5333  -30.2972   23.7653 H   0  0  0  0  0  0
  -15.8620  -28.0787   22.7122 H   0  0  0  0  0  0
  -24.5921  -30.7015   25.7898 H   0  0  0  0  0  0
  -24.8933  -32.2834   26.5010 H   0  0  0  0  0  0
  -25.8127  -30.8879   27.0279 H   0  0  0  0  0  0
  -26.2848  -29.6795   24.1196 H   0  0  0  0  0  0
  -27.4005  -29.7252   25.4643 H   0  0  0  0  0  0
  -27.8716  -30.4316   23.9361 H   0  0  0  0  0  0
  -27.2639  -33.3629   26.2109 H   0  0  0  0  0  0
  -28.3832  -32.6916   25.0336 H   0  0  0  0  0  0
  -28.0714  -31.8470   26.5430 H   0  0  0  0  0  0
  -28.2588  -38.0101   24.7522 H   0  0  0  0  0  0
  -28.1075  -36.2636   24.6281 H   0  0  0  0  0  0
  -27.2296  -37.1457   25.8864 H   0  0  0  0  0  0
  -20.9294  -29.8780   21.7042 H   0  0  0  0  0  0
  -26.0175  -38.2852   24.1443 H   0  0  0  0  0  0
  -30.1956  -23.4676   23.0924 H   0  0  0  0  0  0
  -30.7668  -23.3664   25.3644 H   0  0  0  0  0  0
  -32.0031  -22.1232   25.5978 H   0  0  0  0  0  0
  -30.3678  -21.8946   26.2335 H   0  0  0  0  0  0
  -31.8736  -19.5253   25.4884 H   0  0  0  0  0  0
  -30.8399  -18.2580   24.8376 H   0  0  0  0  0  0
  -30.1712  -19.4322   25.9641 H   0  0  0  0  0  0
  -28.0830  -22.3601   20.4926 H   0  0  0  0  0  0
  -29.6601  -22.4854   19.7599 H   0  0  0  0  0  0
  -29.0722  -20.0551   19.7564 H   0  0  0  0  0  0
  -28.1141  -19.1983   20.9203 H   0  0  0  0  0  0
  -30.1274  -24.6161   20.9789 H   0  0  0  0  0  0
  -28.6651  -24.4373   21.9241 H   0  0  0  0  0  0
  -30.8637  -18.3549   19.8435 H   0  0  0  0  0  0
  -29.3299  -17.6712   19.4298 H   0  0  0  0  0  0
  -29.4099  -17.1616   22.1719 H   0  0  0  0  0  0
  -31.0956  -17.0461   21.7804 H   0  0  0  0  0  0
  -27.2541  -24.7610   20.0562 H   0  0  0  0  0  0
  -28.5834  -24.9259   18.9309 H   0  0  0  0  0  0
  -28.8721  -15.2698   21.1022 H   0  0  0  0  0  0
  1 25  1  0  0  0
  1 30  2  0  0  0
  1 85  1  0  0  0
  2  3  1  0  0  0
  2 25  1  0  0  0
  2 86  1  0  0  0
  2 87  1  0  0  0
  3  4  1  0  0  0
  3 88  1  0  0  0
  3 89  1  0  0  0
  4  5  1  0  0  0
  4 90  1  0  0  0
  4 91  1  0  0  0
  5  6  1  0  0  0
  5 26  1  0  0  0
  5 92  1  0  0  0
  6 25  1  0  0  0
  6 93  1  0  0  0
  6 94  1  0  0  0
  7  8  2  0  0  0
  7 26  1  0  0  0
  7 29  1  0  0  0
  8  9  1  0  0  0
  8 22  1  0  0  0
  9 10  1  0  0  0
  9 27  2  0  0  0
 10 11  2  0  0  0
 10 15  1  0  0  0
 11 12  1  0  0  0
 11 95  1  0  0  0
 12 13  2  0  0  0
 12 96  1  0  0  0
 13 14  1  0  0  0
 13 31  1  0  0  0
 14 15  2  0  0  0
 14 97  1  0  0  0
 15 98  1  0  0  0
 16 17  2  0  0  0
 16 21  1  0  0  0
 16 31  1  0  0  0
 17 18  1  0  0  0
 17 99  1  0  0  0
 18 19  2  0  0  0
 18100  1  0  0  0
 19 20  1  0  0  0
 19 24  1  0  0  0
 20 21  2  0  0  0
 20101  1  0  0  0
 21 23  1  0  0  0
 22 28  1  0  0  0
 22 32  2  0  0  0
 26 27  1  0  0  0
 28102  1  0  0  0
 28103  1  0  0  0
 29104  1  0  0  0
 29105  1  0  0  0
 33 34  1  0  0  0
 33 66  1  0  0  0
 33 70  2  0  0  0
 34 36  1  0  0  0
 34 59  1  0  0  0
 34106  1  0  0  0
 35 44  2  0  0  0
 35 45  1  0  0  0
 35 68  1  0  0  0
 36 56  1  0  0  0
 36107  1  0  0  0
 37 39  1  0  0  0
 37 47  1  0  0  0
 37 66  1  0  0  0
 37108  1  0  0  0
 38 43  2  0  0  0
 38 46  1  0  0  0
 38 47  1  0  0  0
 39 64  1  0  0  0
 39 67  2  0  0  0
 40 52  1  0  0  0
 40 53  2  0  0  0
 40 58  1  0  0  0
 41109  1  0  0  0
 41110  1  0  0  0
 41111  1  0  0  0
 41 48  1  0  0  0
 42 43  1  0  0  0
 42 66  1  0  0  0
 42112  1  0  0  0
 42113  1  0  0  0
 43 44  1  0  0  0
 44114  1  0  0  0
 45 46  2  0  0  0
 45115  1  0  0  0
 46116  1  0  0  0
 47117  1  0  0  0
 47118  1  0  0  0
 48 56  1  0  0  0
 48 65  1  0  0  0
 48119  1  0  0  0
 49 50  1  0  0  0
 49 53  1  0  0  0
 49 64  1  0  0  0
 49120  1  0  0  0
 50 51  1  0  0  0
 50121  1  0  0  0
 50122  1  0  0  0
 51 52  1  0  0  0
 51123  1  0  0  0
 51124  1  0  0  0
 52125  1  0  0  0
 52126  1  0  0  0
 53 54  1  0  0  0
 54 55  2  0  0  0
 54127  1  0  0  0
 55 57  1  0  0  0
 55128  1  0  0  0
 56 69  2  0  0  0
 57 58  2  0  0  0
 57129  1  0  0  0
 58130  1  0  0  0
 59 60  1  0  0  0
 59 61  1  0  0  0
 59 62  1  0  0  0
 60131  1  0  0  0
 60132  1  0  0  0
 60133  1  0  0  0
 61134  1  0  0  0
 61135  1  0  0  0
 61136  1  0  0  0
 62137  1  0  0  0
 62138  1  0  0  0
 62139  1  0  0  0
 63 65  1  0  0  0
 63140  1  0  0  0
 63141  1  0  0  0
 63142  1  0  0  0
 64143  1  0  0  0
 65144  1  0  0  0
 68 83  1  0  0  0
 71 72  2  0  0  0
 71 73  1  0  0  0
 71145  1  0  0  0
 72 74  1  0  0  0
 72 76  1  0  0  0
 73 75  2  0  0  0
 73 78  1  0  0  0
 74 77  1  0  0  0
 74 84  2  0  0  0
 75 79  1  0  0  0
 75 84  1  0  0  0
 76146  1  0  0  0
 76147  1  0  0  0
 76148  1  0  0  0
 77149  1  0  0  0
 77150  1  0  0  0
 77151  1  0  0  0
 78 80  1  0  0  0
 78152  1  0  0  0
 78153  1  0  0  0
 79 81  1  0  0  0
 79154  1  0  0  0
 79155  1  0  0  0
 80 83  1  0  0  0
 80156  1  0  0  0
 80157  1  0  0  0
 81 82  1  0  0  0
 81158  1  0  0  0
 81159  1  0  0  0
 82 85  1  0  0  0
 82160  1  0  0  0
 82161  1  0  0  0
 83162  1  0  0  0
 83163  1  0  0  0
 85164  1  0  0  0
M  ISO  4   1 100  68 101  83 101  85 100
M  END
> <chiral flag>
0

> <version>
0

> <s_m_source_file>
/data/baiqing/PycharmProjects/Reinvent-master-3.2/result/LINK_invent/BTK/process_docking_weight1_custom_sum_contain_oxygen_bond_distance_aromatic_linkinvent_7_9_3/rearranged_h_0047.sdf

> <i_m_source_file_index>
10

> <r_mmod_Potential_Energy-OPLS-2005>
-171.691192626953

> <r_mmod_Stretch_Energy-OPLS-2005>
59.3599472045898

> <r_mmod_Bend_Energy-OPLS-2005>
135.430908203125

> <r_mmod_Torsional_Energy-OPLS-2005>
209.816345214844

> <r_mmod_Improper_Torsional_Energy-OPLS-2005>
4.50771141052246

> <r_mmod_Van_der_Waal_Energy-OPLS-2005>
157.088027954102

> <r_mmod_Electrostatic_Energy-OPLS-2005>
-544.757690429688

> <r_mmod_Solvation_Energy-OPLS-2005>
-223.89079284668

> <b_mmod_Minimization_Converged-OPLS-2005>
0

> <r_mmod_RMS_Derivative-OPLS-2005>
2.17978692054749

$$$$
10
                    3D
 Structure written by MMmdl.
141148  0  0  1  0            999 V2000
  -30.1579  -16.0042   20.3103 C   0  0  0  0  0  0
  -30.3931  -13.3717   19.5196 C   0  0  0  0  0  0
  -29.5599  -12.7486   18.3507 C   0  0  0  0  0  0
  -28.1656  -12.3117   18.8184 C   0  0  0  0  0  0
  -27.5822  -13.3438   19.8026 C   0  0  2  0  0  0
  -28.5782  -13.8344   20.8885 C   0  0  0  0  0  0
  -25.2268  -13.8333   20.5854 C   0  0  0  0  0  0
  -24.1693  -13.0434   20.9318 C   0  0  0  0  0  0
  -24.6446  -11.6962   20.8767 C   0  0  0  0  0  0
  -23.9152  -10.4297   21.0389 C   0  0  0  0  0  0
  -24.3673   -9.4210   21.9175 C   0  0  0  0  0  0
  -23.6323   -8.2256   22.0751 C   0  0  0  0  0  0
  -22.4303   -8.0297   21.3542 C   0  0  0  0  0  0
  -21.9957   -9.0277   20.4640 C   0  0  0  0  0  0
  -22.7313  -10.2141   20.3043 C   0  0  0  0  0  0
  -21.6863   -6.0747   22.5278 C   0  0  0  0  0  0
  -21.4024   -6.5643   23.8214 C   0  0  0  0  0  0
  -21.3663   -5.6792   24.9173 C   0  0  0  0  0  0
  -21.6046   -4.3056   24.7220 C   0  0  0  0  0  0
  -21.8818   -3.8151   23.4341 C   0  0  0  0  0  0
  -21.9197   -4.6971   22.3399 C   0  0  0  0  0  0
  -22.7698  -13.5138   21.1943 C   0  0  0  0  0  0
  -22.1663   -4.2156   21.0978 F   0  0  0  0  0  0
  -21.5627   -3.4538   25.7733 F   0  0  0  0  0  0
  -29.6754  -14.5803   20.1917 N   0  0  0  0  0  0
  -26.2757  -12.9732   20.3285 N   0  0  0  0  0  0
  -25.9406  -11.6762   20.5683 N   0  0  0  0  0  0
  -22.0367  -12.8104   22.0489 N   0  0  0  0  0  0
  -25.3804  -15.2081   20.4305 N   0  0  0  0  0  0
  -31.4054  -15.8756   20.2875 O   0  0  0  0  0  0
  -21.6654   -6.8899   21.4245 O   0  0  0  0  0  0
  -22.3366  -14.5437   20.6785 O   0  0  0  0  0  0
  -24.7089  -31.7703   23.1298 C   0  0  0  0  0  0
  -25.9544  -32.4321   23.7938 C   0  0  1  0  0  0
  -27.2335  -26.4389   20.2486 C   0  0  0  0  0  0
  -25.6018  -33.8159   24.1798 N   0  0  0  0  0  0
  -23.5463  -30.3610   21.4910 C   0  0  2  0  0  0
  -25.0035  -28.6439   20.1337 C   0  0  0  0  0  0
  -22.7879  -29.4155   22.4638 C   0  0  0  0  0  0
  -18.0356  -28.1433   22.8436 C   0  0  0  0  0  0
  -24.1497  -36.7092   23.2659 C   0  0  0  0  0  0
  -26.1378  -30.4176   21.4320 C   0  0  0  0  0  0
  -26.1998  -28.9511   20.7920 C   0  0  0  0  0  0
  -27.2902  -27.8889   20.8015 C   0  0  0  0  0  0
  -25.9973  -26.4066   19.5333 C   0  0  0  0  0  0
  -24.9563  -27.3996   19.4789 C   0  0  0  0  0  0
  -23.8156  -29.6343   20.1389 C   0  0  0  0  0  0
  -25.4157  -36.2804   24.0261 C   0  0  1  0  0  0
  -20.6005  -28.3803   23.1093 C   0  0  2  0  0  0
  -20.6812  -26.9437   22.5406 C   0  0  0  0  0  0
  -19.5791  -26.6360   21.5218 C   0  0  0  0  0  0
  -18.1972  -26.7953   22.1611 C   0  0  0  0  0  0
  -19.1631  -28.8946   23.2738 C   0  0  0  0  0  0
  -18.9532  -30.1522   23.8795 C   0  0  0  0  0  0
  -17.6519  -30.6606   24.0541 C   0  0  0  0  0  0
  -25.9156  -34.9204   23.4881 C   0  0  0  0  0  0
  -16.5405  -29.9087   23.6354 C   0  0  0  0  0  0
  -16.7336  -28.6511   23.0364 C   0  0  0  0  0  0
  -26.4636  -31.6464   25.0666 C   0  0  0  0  0  0
  -25.3631  -31.3859   26.1230 C   0  0  0  0  0  0
  -27.0606  -30.2773   24.6751 C   0  0  0  0  0  0
  -27.6032  -32.4387   25.7503 C   0  0  0  0  0  0
  -27.5552  -37.1696   24.8465 C   0  0  0  0  0  0
  -21.4502  -29.3006   22.3388 N   0  0  0  0  0  0
  -26.4255  -37.3596   23.9410 N   0  0  0  0  0  0
  -24.8246  -30.8887   22.0696 N   0  0  0  0  0  0
  -23.4200  -28.7787   23.3094 O   0  0  0  0  0  0
  -28.1944  -25.1237   20.2181 O   0  0  0  0  0  0
  -26.5829  -34.8836   22.4521 O   0  0  0  0  0  0
  -23.6053  -32.0897   23.6092 O   0  0  0  0  0  0
  -29.3394  -19.3458   20.6208 C   0  0  0  0  0  0
  -28.2209  -23.2481   20.5239 C   0  0  0  0  0  0
  -28.8455  -21.2987   20.0050 C   0  0  1  0  0  0
  -29.4045  -17.4677   20.2729 N   0  0  0  0  0  0
  -30.1521  -21.6425   19.5791 O   0  0  0  0  0  0
  -31.3448  -13.7046   19.1042 H   0  0  0  0  0  0
  -30.6640  -12.6094   20.2522 H   0  0  0  0  0  0
  -30.0913  -11.9055   17.9069 H   0  0  0  0  0  0
  -29.4535  -13.4933   17.5604 H   0  0  0  0  0  0
  -28.2615  -11.3480   19.3202 H   0  0  0  0  0  0
  -27.4993  -12.1575   17.9684 H   0  0  0  0  0  0
  -27.3903  -14.2115   19.1690 H   0  0  0  0  0  0
  -28.9331  -13.0158   21.5168 H   0  0  0  0  0  0
  -28.0766  -14.5314   21.5610 H   0  0  0  0  0  0
  -25.2811   -9.5678   22.4762 H   0  0  0  0  0  0
  -24.0021   -7.4647   22.7476 H   0  0  0  0  0  0
  -21.0885   -8.8816   19.8942 H   0  0  0  0  0  0
  -22.3782  -10.9685   19.6154 H   0  0  0  0  0  0
  -21.2023   -7.6152   23.9718 H   0  0  0  0  0  0
  -21.1482   -6.0521   25.9075 H   0  0  0  0  0  0
  -22.0593   -2.7613   23.2840 H   0  0  0  0  0  0
  -22.4016  -11.9787   22.4892 H   0  0  0  0  0  0
  -21.0969  -13.1089   22.2684 H   0  0  0  0  0  0
  -24.6074  -15.8544   20.5474 H   0  0  0  0  0  0
  -26.2262  -15.6557   20.1037 H   0  0  0  0  0  0
  -26.7648  -32.4723   23.0664 H   0  0  0  0  0  0
  -25.0035  -33.9154   24.9866 H   0  0  0  0  0  0
  -22.8866  -31.2045   21.2782 H   0  0  0  0  0  0
  -23.3776  -35.9399   23.3247 H   0  0  0  0  0  0
  -24.3559  -36.8851   22.2088 H   0  0  0  0  0  0
  -23.7245  -37.6236   23.6813 H   0  0  0  0  0  0
  -26.3656  -31.1233   20.6319 H   0  0  0  0  0  0
  -26.9808  -30.4965   22.1056 H   0  0  0  0  0  0
  -28.1967  -28.1508   21.3282 H   0  0  0  0  0  0
  -25.7888  -25.4877   19.0033 H   0  0  0  0  0  0
  -24.0622  -27.1508   18.9237 H   0  0  0  0  0  0
  -24.0182  -30.3837   19.3726 H   0  0  0  0  0  0
  -22.9142  -29.1183   19.8040 H   0  0  0  0  0  0
  -25.1379  -36.1517   25.0748 H   0  0  0  0  0  0
  -21.0077  -28.3441   24.1223 H   0  0  0  0  0  0
  -20.5652  -26.2427   23.3689 H   0  0  0  0  0  0
  -21.6668  -26.7336   22.1235 H   0  0  0  0  0  0
  -19.6946  -25.6245   21.1308 H   0  0  0  0  0  0
  -19.6748  -27.3113   20.6704 H   0  0  0  0  0  0
  -17.4243  -26.6694   21.4013 H   0  0  0  0  0  0
  -18.0350  -26.0124   22.9034 H   0  0  0  0  0  0
  -19.8009  -30.7361   24.2119 H   0  0  0  0  0  0
  -17.5072  -31.6276   24.5164 H   0  0  0  0  0  0
  -15.5401  -30.2957   23.7741 H   0  0  0  0  0  0
  -15.8736  -28.0802   22.7133 H   0  0  0  0  0  0
  -24.5857  -30.7177   25.7510 H   0  0  0  0  0  0
  -24.8783  -32.3107   26.4366 H   0  0  0  0  0  0
  -25.7739  -30.9202   27.0195 H   0  0  0  0  0  0
  -26.3368  -29.6308   24.1785 H   0  0  0  0  0  0
  -27.3972  -29.7326   25.5583 H   0  0  0  0  0  0
  -27.9370  -30.3840   24.0359 H   0  0  0  0  0  0
  -27.2539  -33.3792   26.1779 H   0  0  0  0  0  0
  -28.3994  -32.6786   25.0444 H   0  0  0  0  0  0
  -28.0536  -31.8727   26.5668 H   0  0  0  0  0  0
  -28.2509  -38.0042   24.7513 H   0  0  0  0  0  0
  -28.1102  -36.2558   24.6285 H   0  0  0  0  0  0
  -27.2268  -37.1319   25.8866 H   0  0  0  0  0  0
  -20.9861  -29.8644   21.6403 H   0  0  0  0  0  0
  -26.0052  -38.2625   24.1441 H   0  0  0  0  0  0
  -28.6549  -19.2813   21.4673 H   0  0  0  0  0  0
  -30.3030  -19.4897   21.1109 H   0  0  0  0  0  0
  -27.1532  -23.0834   20.6702 H   0  0  0  0  0  0
  -28.6040  -23.2858   21.5437 H   0  0  0  0  0  0
  -28.2525  -21.1118   19.1084 H   0  0  0  0  0  0
  -28.4458  -17.2133   20.0737 H   0  0  0  0  0  0
  -30.4605  -20.9420   19.0095 H   0  0  0  0  0  0
  1 25  1  0  0  0
  1 30  2  0  0  0
  1 74  1  0  0  0
  2  3  1  0  0  0
  2 25  1  0  0  0
  2 76  1  0  0  0
  2 77  1  0  0  0
  3  4  1  0  0  0
  3 78  1  0  0  0
  3 79  1  0  0  0
  4  5  1  0  0  0
  4 80  1  0  0  0
  4 81  1  0  0  0
  5  6  1  0  0  0
  5 26  1  0  0  0
  5 82  1  0  0  0
  6 25  1  0  0  0
  6 83  1  0  0  0
  6 84  1  0  0  0
  7  8  2  0  0  0
  7 26  1  0  0  0
  7 29  1  0  0  0
  8  9  1  0  0  0
  8 22  1  0  0  0
  9 10  1  0  0  0
  9 27  2  0  0  0
 10 11  2  0  0  0
 10 15  1  0  0  0
 11 12  1  0  0  0
 11 85  1  0  0  0
 12 13  2  0  0  0
 12 86  1  0  0  0
 13 14  1  0  0  0
 13 31  1  0  0  0
 14 15  2  0  0  0
 14 87  1  0  0  0
 15 88  1  0  0  0
 16 17  2  0  0  0
 16 21  1  0  0  0
 16 31  1  0  0  0
 17 18  1  0  0  0
 17 89  1  0  0  0
 18 19  2  0  0  0
 18 90  1  0  0  0
 19 20  1  0  0  0
 19 24  1  0  0  0
 20 21  2  0  0  0
 20 91  1  0  0  0
 21 23  1  0  0  0
 22 28  1  0  0  0
 22 32  2  0  0  0
 26 27  1  0  0  0
 28 92  1  0  0  0
 28 93  1  0  0  0
 29 94  1  0  0  0
 29 95  1  0  0  0
 33 34  1  0  0  0
 33 66  1  0  0  0
 33 70  2  0  0  0
 34 36  1  0  0  0
 34 59  1  0  0  0
 34 96  1  0  0  0
 35 44  2  0  0  0
 35 45  1  0  0  0
 35 68  1  0  0  0
 36 56  1  0  0  0
 36 97  1  0  0  0
 37 39  1  0  0  0
 37 47  1  0  0  0
 37 66  1  0  0  0
 37 98  1  0  0  0
 38 43  2  0  0  0
 38 46  1  0  0  0
 38 47  1  0  0  0
 39 64  1  0  0  0
 39 67  2  0  0  0
 40 52  1  0  0  0
 40 53  2  0  0  0
 40 58  1  0  0  0
 41 99  1  0  0  0
 41100  1  0  0  0
 41101  1  0  0  0
 41 48  1  0  0  0
 42 43  1  0  0  0
 42 66  1  0  0  0
 42102  1  0  0  0
 42103  1  0  0  0
 43 44  1  0  0  0
 44104  1  0  0  0
 45 46  2  0  0  0
 45105  1  0  0  0
 46106  1  0  0  0
 47107  1  0  0  0
 47108  1  0  0  0
 48 56  1  0  0  0
 48 65  1  0  0  0
 48109  1  0  0  0
 49 50  1  0  0  0
 49 53  1  0  0  0
 49 64  1  0  0  0
 49110  1  0  0  0
 50 51  1  0  0  0
 50111  1  0  0  0
 50112  1  0  0  0
 51 52  1  0  0  0
 51113  1  0  0  0
 51114  1  0  0  0
 52115  1  0  0  0
 52116  1  0  0  0
 53 54  1  0  0  0
 54 55  2  0  0  0
 54117  1  0  0  0
 55 57  1  0  0  0
 55118  1  0  0  0
 56 69  2  0  0  0
 57 58  2  0  0  0
 57119  1  0  0  0
 58120  1  0  0  0
 59 60  1  0  0  0
 59 61  1  0  0  0
 59 62  1  0  0  0
 60121  1  0  0  0
 60122  1  0  0  0
 60123  1  0  0  0
 61124  1  0  0  0
 61125  1  0  0  0
 61126  1  0  0  0
 62127  1  0  0  0
 62128  1  0  0  0
 62129  1  0  0  0
 63 65  1  0  0  0
 63130  1  0  0  0
 63131  1  0  0  0
 63132  1  0  0  0
 64133  1  0  0  0
 65134  1  0  0  0
 68 72  1  0  0  0
 71 73  1  0  0  0
 71 74  1  0  0  0
 71135  1  0  0  0
 71136  1  0  0  0
 72 73  1  0  0  0
 72137  1  0  0  0
 72138  1  0  0  0
 73 75  1  0  0  0
 73139  1  0  0  0
 74140  1  0  0  0
 75141  1  0  0  0
M  ISO  4   1 100  68 101  72 101  74 100
M  END
> <chiral flag>
0

> <version>
0

> <s_m_source_file>
/data/baiqing/PycharmProjects/Reinvent-master-3.2/result/LINK_invent/BTK/process_docking_weight1_custom_sum_contain_oxygen_bond_distance_aromatic_linkinvent_7_9_3/rearranged_h_0047.sdf

> <i_m_source_file_index>
11

> <r_mmod_Potential_Energy-OPLS-2005>
4118.1962890625

> <r_mmod_Stretch_Energy-OPLS-2005>
1926.7265625

> <r_mmod_Bend_Energy-OPLS-2005>
903.36279296875

> <r_mmod_Torsional_Energy-OPLS-2005>
267.645202636719

> <r_mmod_Improper_Torsional_Energy-OPLS-2005>
5.161217212677

> <r_mmod_Van_der_Waal_Energy-OPLS-2005>
113.086250305176

> <r_mmod_Electrostatic_Energy-OPLS-2005>
-381.632110595703

> <r_mmod_Solvation_Energy-OPLS-2005>
-252.511611938477

> <b_mmod_Minimization_Converged-OPLS-2005>
0

> <r_mmod_RMS_Derivative-OPLS-2005>
0.746935725212097

$$$$
11
                    3D
 Structure written by MMmdl.
151159  0  0  1  0            999 V2000
  -30.4223  -15.2523   20.4268 C   0  0  0  0  0  0
  -30.4510  -12.8090   19.5172 C   0  0  0  0  0  0
  -29.5358  -12.6013   18.2797 C   0  0  0  0  0  0
  -28.0786  -12.3242   18.6948 C   0  0  0  0  0  0
  -27.6213  -13.2631   19.8370 C   0  0  2  0  0  0
  -28.6645  -13.3278   20.9685 C   0  0  0  0  0  0
  -25.2410  -13.8216   20.5710 C   0  0  0  0  0  0
  -24.1752  -13.0423   20.9233 C   0  0  0  0  0  0
  -24.6396  -11.6916   20.8750 C   0  0  0  0  0  0
  -23.9084  -10.4285   21.0403 C   0  0  0  0  0  0
  -24.3629   -9.4202   21.9183 C   0  0  0  0  0  0
  -23.6300   -8.2238   22.0752 C   0  0  0  0  0  0
  -22.4281   -8.0279   21.3544 C   0  0  0  0  0  0
  -21.9921   -9.0253   20.4645 C   0  0  0  0  0  0
  -22.7254  -10.2129   20.3054 C   0  0  0  0  0  0
  -21.6855   -6.0734   22.5279 C   0  0  0  0  0  0
  -21.4016   -6.5637   23.8213 C   0  0  0  0  0  0
  -21.3661   -5.6790   24.9175 C   0  0  0  0  0  0
  -21.6045   -4.3053   24.7225 C   0  0  0  0  0  0
  -21.8819   -3.8145   23.4346 C   0  0  0  0  0  0
  -21.9193   -4.6962   22.3403 C   0  0  0  0  0  0
  -22.7772  -13.5189   21.1893 C   0  0  0  0  0  0
  -22.1662   -4.2146   21.0981 F   0  0  0  0  0  0
  -21.5630   -3.4537   25.7739 F   0  0  0  0  0  0
  -29.8879  -13.9197   20.3786 N   0  0  0  0  0  0
  -26.2849  -12.9471   20.3238 N   0  0  0  0  0  0
  -25.9335  -11.6587   20.5719 N   0  0  0  0  0  0
  -22.0432  -12.8177   22.0456 N   0  0  0  0  0  0
  -25.4023  -15.1948   20.4122 N   0  0  0  0  0  0
  -31.6165  -15.2730   20.0804 O   0  0  0  0  0  0
  -21.6642   -6.8878   21.4241 O   0  0  0  0  0  0
  -22.3451  -14.5492   20.6738 O   0  0  0  0  0  0
  -24.6607  -31.8254   23.1713 C   0  0  0  0  0  0
  -25.9297  -32.4597   23.8173 C   0  0  1  0  0  0
  -27.2252  -26.9537   20.1802 C   0  0  0  0  0  0
  -25.5971  -33.8410   24.2081 N   0  0  0  0  0  0
  -23.4741  -30.4368   21.5204 C   0  0  2  0  0  0
  -24.9276  -28.8248   20.1138 C   0  0  0  0  0  0
  -22.7655  -29.4451   22.4794 C   0  0  0  0  0  0
  -18.0320  -28.1407   22.8466 C   0  0  0  0  0  0
  -24.1492  -36.7213   23.2646 C   0  0  0  0  0  0
  -26.0413  -30.6406   21.3966 C   0  0  0  0  0  0
  -26.1110  -29.2320   20.7423 C   0  0  0  0  0  0
  -27.2550  -28.3178   20.7488 C   0  0  0  0  0  0
  -26.0105  -26.6885   19.5096 C   0  0  0  0  0  0
  -24.9010  -27.5727   19.4778 C   0  0  0  0  0  0
  -23.7126  -29.7504   20.1471 C   0  0  0  0  0  0
  -25.4132  -36.2973   24.0301 C   0  0  1  0  0  0
  -20.5943  -28.3750   23.1195 C   0  0  2  0  0  0
  -20.6800  -26.9435   22.5402 C   0  0  0  0  0  0
  -19.5774  -26.6378   21.5213 C   0  0  0  0  0  0
  -18.1956  -26.7941   22.1621 C   0  0  0  0  0  0
  -19.1580  -28.8900   23.2818 C   0  0  0  0  0  0
  -18.9491  -30.1489   23.8854 C   0  0  0  0  0  0
  -17.6483  -30.6597   24.0555 C   0  0  0  0  0  0
  -25.9096  -34.9356   23.5013 C   0  0  0  0  0  0
  -16.5375  -29.9084   23.6340 C   0  0  0  0  0  0
  -16.7301  -28.6504   23.0359 C   0  0  0  0  0  0
  -26.4557  -31.6536   25.0694 C   0  0  0  0  0  0
  -25.3689  -31.3781   26.1354 C   0  0  0  0  0  0
  -27.0452  -30.2907   24.6407 C   0  0  0  0  0  0
  -27.6049  -32.4343   25.7500 C   0  0  0  0  0  0
  -27.5570  -37.1764   24.8465 C   0  0  0  0  0  0
  -21.4328  -29.3043   22.3548 N   0  0  0  0  0  0
  -26.4279  -37.3707   23.9408 N   0  0  0  0  0  0
  -24.7465  -30.9939   22.0836 N   0  0  0  0  0  0
  -23.4213  -28.8022   23.3028 O   0  0  0  0  0  0
  -28.2488  -25.8770   20.2465 O   0  0  0  0  0  0
  -26.5706  -34.8890   22.4609 O   0  0  0  0  0  0
  -23.5684  -32.1213   23.6824 O   0  0  0  0  0  0
  -30.3775  -20.3485   20.6709 C   0  0  0  0  0  0
  -29.1934  -21.1267   20.3266 C   0  0  0  0  0  0
  -28.2362  -20.0870   19.9948 C   0  0  0  0  0  0
  -29.6187  -18.0250   20.3674 C   0  0  0  0  0  0
  -26.8468  -20.4923   19.5523 C   0  0  0  0  0  0
  -28.7927  -16.3340   21.9019 C   0  0  0  0  0  0
  -29.1632  -22.8821   20.3388 C   0  0  0  0  0  0
  -28.0295  -24.2511   20.1485 C   0  0  0  0  0  0
  -30.5696  -18.9431   20.7094 N   0  0  0  0  0  0
  -28.4457  -18.6775   20.0395 N   0  0  0  0  0  0
  -29.6524  -16.5031   20.7234 N   0  0  0  0  0  0
  -31.4612  -13.0351   19.1745 H   0  0  0  0  0  0
  -30.5520  -11.8814   20.0832 H   0  0  0  0  0  0
  -29.9121  -11.7869   17.6592 H   0  0  0  0  0  0
  -29.5676  -13.4975   17.6584 H   0  0  0  0  0  0
  -28.0193  -11.2876   19.0287 H   0  0  0  0  0  0
  -27.4119  -12.4086   17.8357 H   0  0  0  0  0  0
  -27.5630  -14.2577   19.3936 H   0  0  0  0  0  0
  -28.8499  -12.3300   21.3696 H   0  0  0  0  0  0
  -28.2789  -13.8776   21.8187 H   0  0  0  0  0  0
  -25.2771   -9.5680   22.4761 H   0  0  0  0  0  0
  -24.0006   -7.4628   22.7473 H   0  0  0  0  0  0
  -21.0851   -8.8775   19.8953 H   0  0  0  0  0  0
  -22.3711  -10.9669   19.6164 H   0  0  0  0  0  0
  -21.2008   -7.6146   23.9718 H   0  0  0  0  0  0
  -21.1485   -6.0519   25.9079 H   0  0  0  0  0  0
  -22.0596   -2.7606   23.2848 H   0  0  0  0  0  0
  -22.4063  -11.9843   22.4843 H   0  0  0  0  0  0
  -21.1045  -13.1189   22.2667 H   0  0  0  0  0  0
  -24.6293  -15.8412   20.5263 H   0  0  0  0  0  0
  -26.2454  -15.6445   20.0792 H   0  0  0  0  0  0
  -26.7367  -32.5147   23.0891 H   0  0  0  0  0  0
  -25.0069  -33.9488   25.0198 H   0  0  0  0  0  0
  -22.7860  -31.2675   21.3499 H   0  0  0  0  0  0
  -23.3765  -35.9533   23.3279 H   0  0  0  0  0  0
  -24.3567  -36.8889   22.2066 H   0  0  0  0  0  0
  -23.7240  -37.6390   23.6720 H   0  0  0  0  0  0
  -26.2160  -31.3825   20.6161 H   0  0  0  0  0  0
  -26.9034  -30.6992   22.0491 H   0  0  0  0  0  0
  -28.1532  -28.6293   21.2637 H   0  0  0  0  0  0
  -25.8885  -25.7309   19.0249 H   0  0  0  0  0  0
  -24.0009  -27.2544   18.9698 H   0  0  0  0  0  0
  -23.8662  -30.5178   19.3877 H   0  0  0  0  0  0
  -22.8231  -29.2026   19.8310 H   0  0  0  0  0  0
  -25.1330  -36.1772   25.0792 H   0  0  0  0  0  0
  -21.0029  -28.3354   24.1318 H   0  0  0  0  0  0
  -20.5679  -26.2369   23.3639 H   0  0  0  0  0  0
  -21.6665  -26.7414   22.1209 H   0  0  0  0  0  0
  -19.6936  -25.6277   21.1270 H   0  0  0  0  0  0
  -19.6713  -27.3164   20.6722 H   0  0  0  0  0  0
  -17.4225  -26.6685   21.4022 H   0  0  0  0  0  0
  -18.0348  -26.0093   22.9027 H   0  0  0  0  0  0
  -19.7966  -30.7317   24.2208 H   0  0  0  0  0  0
  -17.5034  -31.6272   24.5165 H   0  0  0  0  0  0
  -15.5373  -30.2971   23.7686 H   0  0  0  0  0  0
  -15.8704  -28.0807   22.7099 H   0  0  0  0  0  0
  -24.5885  -30.7113   25.7667 H   0  0  0  0  0  0
  -24.8860  -32.2981   26.4660 H   0  0  0  0  0  0
  -25.7925  -30.9031   27.0211 H   0  0  0  0  0  0
  -26.3112  -29.6586   24.1394 H   0  0  0  0  0  0
  -27.3976  -29.7265   25.5052 H   0  0  0  0  0  0
  -27.9056  -30.4097   23.9819 H   0  0  0  0  0  0
  -27.2614  -33.3684   26.1959 H   0  0  0  0  0  0
  -28.3925  -32.6840   25.0378 H   0  0  0  0  0  0
  -28.0644  -31.8547   26.5517 H   0  0  0  0  0  0
  -28.2570  -38.0076   24.7512 H   0  0  0  0  0  0
  -28.1085  -36.2603   24.6294 H   0  0  0  0  0  0
  -27.2286  -37.1408   25.8868 H   0  0  0  0  0  0
  -20.9580  -29.8731   21.6676 H   0  0  0  0  0  0
  -26.0130  -38.2767   24.1416 H   0  0  0  0  0  0
  -31.2594  -20.9009   20.9600 H   0  0  0  0  0  0
  -26.6259  -21.5208   19.8359 H   0  0  0  0  0  0
  -26.0916  -19.8508   20.0064 H   0  0  0  0  0  0
  -26.7590  -20.4125   18.4690 H   0  0  0  0  0  0
  -28.6566  -17.2727   22.4420 H   0  0  0  0  0  0
  -29.2166  -15.6500   22.6386 H   0  0  0  0  0  0
  -27.7983  -16.0031   21.6084 H   0  0  0  0  0  0
  -29.6335  -23.0967   21.2988 H   0  0  0  0  0  0
  -29.9467  -23.1168   19.6175 H   0  0  0  0  0  0
  -27.2257  -24.0570   20.8594 H   0  0  0  0  0  0
  -27.5683  -24.1011   19.1724 H   0  0  0  0  0  0
  1 25  1  0  0  0
  1 30  2  0  0  0
  1 81  1  0  0  0
  2  3  1  0  0  0
  2 25  1  0  0  0
  2 82  1  0  0  0
  2 83  1  0  0  0
  3  4  1  0  0  0
  3 84  1  0  0  0
  3 85  1  0  0  0
  4  5  1  0  0  0
  4 86  1  0  0  0
  4 87  1  0  0  0
  5  6  1  0  0  0
  5 26  1  0  0  0
  5 88  1  0  0  0
  6 25  1  0  0  0
  6 89  1  0  0  0
  6 90  1  0  0  0
  7  8  2  0  0  0
  7 26  1  0  0  0
  7 29  1  0  0  0
  8  9  1  0  0  0
  8 22  1  0  0  0
  9 10  1  0  0  0
  9 27  2  0  0  0
 10 11  2  0  0  0
 10 15  1  0  0  0
 11 12  1  0  0  0
 11 91  1  0  0  0
 12 13  2  0  0  0
 12 92  1  0  0  0
 13 14  1  0  0  0
 13 31  1  0  0  0
 14 15  2  0  0  0
 14 93  1  0  0  0
 15 94  1  0  0  0
 16 17  2  0  0  0
 16 21  1  0  0  0
 16 31  1  0  0  0
 17 18  1  0  0  0
 17 95  1  0  0  0
 18 19  2  0  0  0
 18 96  1  0  0  0
 19 20  1  0  0  0
 19 24  1  0  0  0
 20 21  2  0  0  0
 20 97  1  0  0  0
 21 23  1  0  0  0
 22 28  1  0  0  0
 22 32  2  0  0  0
 26 27  1  0  0  0
 28 98  1  0  0  0
 28 99  1  0  0  0
 29100  1  0  0  0
 29101  1  0  0  0
 33 34  1  0  0  0
 33 66  1  0  0  0
 33 70  2  0  0  0
 34 36  1  0  0  0
 34 59  1  0  0  0
 34102  1  0  0  0
 35 44  2  0  0  0
 35 45  1  0  0  0
 35 68  1  0  0  0
 36 56  1  0  0  0
 36103  1  0  0  0
 37 39  1  0  0  0
 37 47  1  0  0  0
 37 66  1  0  0  0
 37104  1  0  0  0
 38 43  2  0  0  0
 38 46  1  0  0  0
 38 47  1  0  0  0
 39 64  1  0  0  0
 39 67  2  0  0  0
 40 52  1  0  0  0
 40 53  2  0  0  0
 40 58  1  0  0  0
 41105  1  0  0  0
 41106  1  0  0  0
 41107  1  0  0  0
 41 48  1  0  0  0
 42 43  1  0  0  0
 42 66  1  0  0  0
 42108  1  0  0  0
 42109  1  0  0  0
 43 44  1  0  0  0
 44110  1  0  0  0
 45 46  2  0  0  0
 45111  1  0  0  0
 46112  1  0  0  0
 47113  1  0  0  0
 47114  1  0  0  0
 48 56  1  0  0  0
 48 65  1  0  0  0
 48115  1  0  0  0
 49 50  1  0  0  0
 49 53  1  0  0  0
 49 64  1  0  0  0
 49116  1  0  0  0
 50 51  1  0  0  0
 50117  1  0  0  0
 50118  1  0  0  0
 51 52  1  0  0  0
 51119  1  0  0  0
 51120  1  0  0  0
 52121  1  0  0  0
 52122  1  0  0  0
 53 54  1  0  0  0
 54 55  2  0  0  0
 54123  1  0  0  0
 55 57  1  0  0  0
 55124  1  0  0  0
 56 69  2  0  0  0
 57 58  2  0  0  0
 57125  1  0  0  0
 58126  1  0  0  0
 59 60  1  0  0  0
 59 61  1  0  0  0
 59 62  1  0  0  0
 60127  1  0  0  0
 60128  1  0  0  0
 60129  1  0  0  0
 61130  1  0  0  0
 61131  1  0  0  0
 61132  1  0  0  0
 62133  1  0  0  0
 62134  1  0  0  0
 62135  1  0  0  0
 63 65  1  0  0  0
 63136  1  0  0  0
 63137  1  0  0  0
 63138  1  0  0  0
 64139  1  0  0  0
 65140  1  0  0  0
 68 78  1  0  0  0
 71 72  2  0  0  0
 71 79  1  0  0  0
 71141  1  0  0  0
 72 73  1  0  0  0
 72 77  1  0  0  0
 73 75  1  0  0  0
 73 80  2  0  0  0
 74 79  2  0  0  0
 74 80  1  0  0  0
 74 81  1  0  0  0
 75142  1  0  0  0
 75143  1  0  0  0
 75144  1  0  0  0
 76 81  1  0  0  0
 76145  1  0  0  0
 76146  1  0  0  0
 76147  1  0  0  0
 77 78  1  0  0  0
 77148  1  0  0  0
 77149  1  0  0  0
 78150  1  0  0  0
 78151  1  0  0  0
M  ISO  4   1 100  68 101  78 101  81 100
M  END
> <chiral flag>
0

> <version>
0

> <s_m_source_file>
/data/baiqing/PycharmProjects/Reinvent-master-3.2/result/LINK_invent/BTK/process_docking_weight1_custom_sum_contain_oxygen_bond_distance_aromatic_linkinvent_7_9_3/rearranged_h_0047.sdf

> <i_m_source_file_index>
12

> <r_mmod_Potential_Energy-OPLS-2005>
920.957946777344

> <r_mmod_Stretch_Energy-OPLS-2005>
512.295837402344

> <r_mmod_Bend_Energy-OPLS-2005>
467.019683837891

> <r_mmod_Torsional_Energy-OPLS-2005>
276.233489990234

> <r_mmod_Improper_Torsional_Energy-OPLS-2005>
7.24070453643799

> <r_mmod_Van_der_Waal_Energy-OPLS-2005>
144.012573242188

> <r_mmod_Electrostatic_Energy-OPLS-2005>
-687.619750976562

> <r_mmod_Solvation_Energy-OPLS-2005>
-215.055053710938

> <b_mmod_Minimization_Converged-OPLS-2005>
0

> <r_mmod_RMS_Derivative-OPLS-2005>
0.419563829898834

$$$$
12
                    3D
 Structure written by MMmdl.
143150  0  0  1  0            999 V2000
  -30.1636  -16.0165   20.2837 C   0  0  0  0  0  0
  -30.4021  -13.3807   19.5097 C   0  0  0  0  0  0
  -29.5672  -12.7447   18.3499 C   0  0  0  0  0  0
  -28.1808  -12.2975   18.8321 C   0  0  0  0  0  0
  -27.5888  -13.3376   19.8001 C   0  0  2  0  0  0
  -28.5861  -13.8471   20.8777 C   0  0  0  0  0  0
  -25.2337  -13.8308   20.5832 C   0  0  0  0  0  0
  -24.1745  -13.0427   20.9297 C   0  0  0  0  0  0
  -24.6485  -11.6955   20.8763 C   0  0  0  0  0  0
  -23.9183  -10.4297   21.0405 C   0  0  0  0  0  0
  -24.3690   -9.4205   21.9200 C   0  0  0  0  0  0
  -23.6323   -8.2263   22.0773 C   0  0  0  0  0  0
  -22.4301   -8.0322   21.3557 C   0  0  0  0  0  0
  -21.9971   -9.0311   20.4658 C   0  0  0  0  0  0
  -22.7347  -10.2160   20.3056 C   0  0  0  0  0  0
  -21.6865   -6.0767   22.5277 C   0  0  0  0  0  0
  -21.4023   -6.5660   23.8211 C   0  0  0  0  0  0
  -21.3650   -5.6801   24.9170 C   0  0  0  0  0  0
  -21.6034   -4.3069   24.7210 C   0  0  0  0  0  0
  -21.8818   -3.8167   23.4328 C   0  0  0  0  0  0
  -21.9194   -4.6989   22.3390 C   0  0  0  0  0  0
  -22.7748  -13.5156   21.1899 C   0  0  0  0  0  0
  -22.1667   -4.2180   21.0968 F   0  0  0  0  0  0
  -21.5617   -3.4544   25.7721 F   0  0  0  0  0  0
  -29.6793  -14.5908   20.1704 N   0  0  0  0  0  0
  -26.2827  -12.9698   20.3296 N   0  0  0  0  0  0
  -25.9450  -11.6736   20.5678 N   0  0  0  0  0  0
  -22.0376  -12.8144   22.0431 N   0  0  0  0  0  0
  -25.3914  -15.2038   20.4227 N   0  0  0  0  0  0
  -31.4110  -15.8730   20.3150 O   0  0  0  0  0  0
  -21.6650   -6.8922   21.4243 O   0  0  0  0  0  0
  -22.3446  -14.5464   20.6738 O   0  0  0  0  0  0
  -24.7056  -31.7721   23.1279 C   0  0  0  0  0  0
  -25.9532  -32.4316   23.7901 C   0  0  1  0  0  0
  -27.2397  -26.4470   20.2423 C   0  0  0  0  0  0
  -25.6018  -33.8158   24.1777 N   0  0  0  0  0  0
  -23.5424  -30.3631   21.4905 C   0  0  2  0  0  0
  -25.0002  -28.6446   20.1351 C   0  0  0  0  0  0
  -22.7854  -29.4187   22.4644 C   0  0  0  0  0  0
  -18.0371  -28.1416   22.8423 C   0  0  0  0  0  0
  -24.1517  -36.7085   23.2660 C   0  0  0  0  0  0
  -26.1337  -30.4200   21.4327 C   0  0  0  0  0  0
  -26.1981  -28.9547   20.7902 C   0  0  0  0  0  0
  -27.2916  -27.8963   20.7967 C   0  0  0  0  0  0
  -26.0015  -26.4115   19.5305 C   0  0  0  0  0  0
  -24.9557  -27.3989   19.4822 C   0  0  0  0  0  0
  -23.8105  -29.6337   20.1397 C   0  0  0  0  0  0
  -25.4171  -36.2793   24.0256 C   0  0  1  0  0  0
  -20.6014  -28.3800   23.1070 C   0  0  2  0  0  0
  -20.6839  -26.9442   22.5381 C   0  0  0  0  0  0
  -19.5827  -26.6358   21.5191 C   0  0  0  0  0  0
  -18.2003  -26.7940   22.1583 C   0  0  0  0  0  0
  -19.1638  -28.8931   23.2716 C   0  0  0  0  0  0
  -18.9548  -30.1508   23.8772 C   0  0  0  0  0  0
  -17.6539  -30.6592   24.0541 C   0  0  0  0  0  0
  -25.9163  -34.9196   23.4875 C   0  0  0  0  0  0
  -16.5425  -29.9075   23.6350 C   0  0  0  0  0  0
  -16.7348  -28.6498   23.0359 C   0  0  0  0  0  0
  -26.4636  -31.6450   25.0620 C   0  0  0  0  0  0
  -25.3610  -31.3840   26.1159 C   0  0  0  0  0  0
  -27.0610  -30.2754   24.6715 C   0  0  0  0  0  0
  -27.6057  -32.4362   25.7419 C   0  0  0  0  0  0
  -27.5566  -37.1691   24.8469 C   0  0  0  0  0  0
  -21.4482  -29.3015   22.3371 N   0  0  0  0  0  0
  -26.4271  -37.3581   23.9410 N   0  0  0  0  0  0
  -24.8204  -30.8911   22.0685 N   0  0  0  0  0  0
  -23.4189  -28.7845   23.3110 O   0  0  0  0  0  0
  -28.2103  -25.1382   20.2091 O   0  0  0  0  0  0
  -26.5834  -34.8827   22.4520 O   0  0  0  0  0  0
  -23.6030  -32.0923   23.6086 O   0  0  0  0  0  0
  -28.1464  -17.3478   19.4672 C   0  0  0  0  0  0
  -28.8124  -21.3013   19.9737 C   0  0  0  0  0  0
  -29.3809  -19.3622   20.5689 C   0  0  0  0  0  0
  -28.2518  -23.2636   20.5080 C   0  0  0  0  0  0
  -29.4090  -17.4905   20.1879 N   0  0  0  0  0  0
  -31.3491  -13.7206   19.0871 H   0  0  0  0  0  0
  -30.6891  -12.6298   20.2484 H   0  0  0  0  0  0
  -30.1007  -11.9032   17.9056 H   0  0  0  0  0  0
  -29.4507  -13.4882   17.5599 H   0  0  0  0  0  0
  -28.2969  -11.3475   19.3561 H   0  0  0  0  0  0
  -27.5119  -12.1116   17.9905 H   0  0  0  0  0  0
  -27.3888  -14.1854   19.1460 H   0  0  0  0  0  0
  -28.9521  -13.0395   21.5131 H   0  0  0  0  0  0
  -28.0824  -14.5461   21.5462 H   0  0  0  0  0  0
  -25.2818   -9.5670   22.4811 H   0  0  0  0  0  0
  -24.0006   -7.4646   22.7503 H   0  0  0  0  0  0
  -21.0901   -8.8859   19.8964 H   0  0  0  0  0  0
  -22.3825  -10.9720   19.6176 H   0  0  0  0  0  0
  -21.2033   -7.6171   23.9723 H   0  0  0  0  0  0
  -21.1463   -6.0535   25.9069 H   0  0  0  0  0  0
  -22.0599   -2.7631   23.2819 H   0  0  0  0  0  0
  -22.3953  -11.9803   22.4832 H   0  0  0  0  0  0
  -21.0994  -13.1198   22.2586 H   0  0  0  0  0  0
  -24.6180  -15.8537   20.5135 H   0  0  0  0  0  0
  -26.2365  -15.6377   20.0778 H   0  0  0  0  0  0
  -26.7628  -32.4715   23.0604 H   0  0  0  0  0  0
  -25.0022  -33.9142   24.9835 H   0  0  0  0  0  0
  -22.8827  -31.2078   21.2796 H   0  0  0  0  0  0
  -23.3793  -35.9400   23.3237 H   0  0  0  0  0  0
  -24.3589  -36.8852   22.2098 H   0  0  0  0  0  0
  -23.7284  -37.6231   23.6819 H   0  0  0  0  0  0
  -26.3696  -31.1317   20.6405 H   0  0  0  0  0  0
  -26.9701  -30.4928   22.1139 H   0  0  0  0  0  0
  -28.1969  -28.1645   21.3228 H   0  0  0  0  0  0
  -25.7942  -25.4939   18.9988 H   0  0  0  0  0  0
  -24.0597  -27.1443   18.9321 H   0  0  0  0  0  0
  -24.0068  -30.3831   19.3723 H   0  0  0  0  0  0
  -22.9079  -29.1151   19.8100 H   0  0  0  0  0  0
  -25.1403  -36.1503   25.0741 H   0  0  0  0  0  0
  -21.0074  -28.3462   24.1202 H   0  0  0  0  0  0
  -20.5710  -26.2429   23.3662 H   0  0  0  0  0  0
  -21.6702  -26.7377   22.1213 H   0  0  0  0  0  0
  -19.7002  -25.6243   21.1297 H   0  0  0  0  0  0
  -19.6788  -27.3096   20.6667 H   0  0  0  0  0  0
  -17.4282  -26.6659   21.3976 H   0  0  0  0  0  0
  -18.0400  -26.0087   22.8982 H   0  0  0  0  0  0
  -19.8041  -30.7337   24.2090 H   0  0  0  0  0  0
  -17.5110  -31.6270   24.5154 H   0  0  0  0  0  0
  -15.5426  -30.2945   23.7749 H   0  0  0  0  0  0
  -15.8745  -28.0788   22.7127 H   0  0  0  0  0  0
  -24.5835  -30.7168   25.7404 H   0  0  0  0  0  0
  -24.8745  -32.3083   26.4274 H   0  0  0  0  0  0
  -25.7670  -30.9167   27.0138 H   0  0  0  0  0  0
  -26.3378  -29.6279   24.1734 H   0  0  0  0  0  0
  -27.3964  -29.7306   25.5554 H   0  0  0  0  0  0
  -27.9394  -30.3809   24.0341 H   0  0  0  0  0  0
  -27.2609  -33.3796   26.1651 H   0  0  0  0  0  0
  -28.4001  -32.6704   25.0320 H   0  0  0  0  0  0
  -28.0563  -31.8717   26.5586 H   0  0  0  0  0  0
  -28.2518  -38.0043   24.7519 H   0  0  0  0  0  0
  -28.1127  -36.2561   24.6293 H   0  0  0  0  0  0
  -27.2274  -37.1305   25.8866 H   0  0  0  0  0  0
  -20.9828  -29.8607   21.6350 H   0  0  0  0  0  0
  -26.0066  -38.2612   24.1440 H   0  0  0  0  0  0
  -28.1011  -18.0711   18.6522 H   0  0  0  0  0  0
  -27.3084  -17.5390   20.1372 H   0  0  0  0  0  0
  -28.0019  -16.3666   19.0140 H   0  0  0  0  0  0
  -28.0363  -21.0683   19.2450 H   0  0  0  0  0  0
  -29.6673  -21.5348   19.3396 H   0  0  0  0  0  0
  -28.8748  -19.3113   21.5346 H   0  0  0  0  0  0
  -30.4241  -19.5134   20.8524 H   0  0  0  0  0  0
  -27.2187  -23.1099   20.8199 H   0  0  0  0  0  0
  -28.7962  -23.3194   21.4512 H   0  0  0  0  0  0
  1 25  1  0  0  0
  1 30  2  0  0  0
  1 75  1  0  0  0
  2  3  1  0  0  0
  2 25  1  0  0  0
  2 76  1  0  0  0
  2 77  1  0  0  0
  3  4  1  0  0  0
  3 78  1  0  0  0
  3 79  1  0  0  0
  4  5  1  0  0  0
  4 80  1  0  0  0
  4 81  1  0  0  0
  5  6  1  0  0  0
  5 26  1  0  0  0
  5 82  1  0  0  0
  6 25  1  0  0  0
  6 83  1  0  0  0
  6 84  1  0  0  0
  7  8  2  0  0  0
  7 26  1  0  0  0
  7 29  1  0  0  0
  8  9  1  0  0  0
  8 22  1  0  0  0
  9 10  1  0  0  0
  9 27  2  0  0  0
 10 11  2  0  0  0
 10 15  1  0  0  0
 11 12  1  0  0  0
 11 85  1  0  0  0
 12 13  2  0  0  0
 12 86  1  0  0  0
 13 14  1  0  0  0
 13 31  1  0  0  0
 14 15  2  0  0  0
 14 87  1  0  0  0
 15 88  1  0  0  0
 16 17  2  0  0  0
 16 21  1  0  0  0
 16 31  1  0  0  0
 17 18  1  0  0  0
 17 89  1  0  0  0
 18 19  2  0  0  0
 18 90  1  0  0  0
 19 20  1  0  0  0
 19 24  1  0  0  0
 20 21  2  0  0  0
 20 91  1  0  0  0
 21 23  1  0  0  0
 22 28  1  0  0  0
 22 32  2  0  0  0
 26 27  1  0  0  0
 28 92  1  0  0  0
 28 93  1  0  0  0
 29 94  1  0  0  0
 29 95  1  0  0  0
 33 34  1  0  0  0
 33 66  1  0  0  0
 33 70  2  0  0  0
 34 36  1  0  0  0
 34 59  1  0  0  0
 34 96  1  0  0  0
 35 44  2  0  0  0
 35 45  1  0  0  0
 35 68  1  0  0  0
 36 56  1  0  0  0
 36 97  1  0  0  0
 37 39  1  0  0  0
 37 47  1  0  0  0
 37 66  1  0  0  0
 37 98  1  0  0  0
 38 43  2  0  0  0
 38 46  1  0  0  0
 38 47  1  0  0  0
 39 64  1  0  0  0
 39 67  2  0  0  0
 40 52  1  0  0  0
 40 53  2  0  0  0
 40 58  1  0  0  0
 41 99  1  0  0  0
 41100  1  0  0  0
 41101  1  0  0  0
 41 48  1  0  0  0
 42 43  1  0  0  0
 42 66  1  0  0  0
 42102  1  0  0  0
 42103  1  0  0  0
 43 44  1  0  0  0
 44104  1  0  0  0
 45 46  2  0  0  0
 45105  1  0  0  0
 46106  1  0  0  0
 47107  1  0  0  0
 47108  1  0  0  0
 48 56  1  0  0  0
 48 65  1  0  0  0
 48109  1  0  0  0
 49 50  1  0  0  0
 49 53  1  0  0  0
 49 64  1  0  0  0
 49110  1  0  0  0
 50 51  1  0  0  0
 50111  1  0  0  0
 50112  1  0  0  0
 51 52  1  0  0  0
 51113  1  0  0  0
 51114  1  0  0  0
 52115  1  0  0  0
 52116  1  0  0  0
 53 54  1  0  0  0
 54 55  2  0  0  0
 54117  1  0  0  0
 55 57  1  0  0  0
 55118  1  0  0  0
 56 69  2  0  0  0
 57 58  2  0  0  0
 57119  1  0  0  0
 58120  1  0  0  0
 59 60  1  0  0  0
 59 61  1  0  0  0
 59 62  1  0  0  0
 60121  1  0  0  0
 60122  1  0  0  0
 60123  1  0  0  0
 61124  1  0  0  0
 61125  1  0  0  0
 61126  1  0  0  0
 62127  1  0  0  0
 62128  1  0  0  0
 62129  1  0  0  0
 63 65  1  0  0  0
 63130  1  0  0  0
 63131  1  0  0  0
 63132  1  0  0  0
 64133  1  0  0  0
 65134  1  0  0  0
 68 74  1  0  0  0
 71 75  1  0  0  0
 71135  1  0  0  0
 71136  1  0  0  0
 71137  1  0  0  0
 72 73  1  0  0  0
 72 74  1  0  0  0
 72138  1  0  0  0
 72139  1  0  0  0
 73 75  1  0  0  0
 73140  1  0  0  0
 73141  1  0  0  0
 74142  1  0  0  0
 74143  1  0  0  0
M  ISO  4   1 100  68 101  74 101  75 100
M  END
> <chiral flag>
0

> <version>
0

> <s_m_source_file>
/data/baiqing/PycharmProjects/Reinvent-master-3.2/result/LINK_invent/BTK/process_docking_weight1_custom_sum_contain_oxygen_bond_distance_aromatic_linkinvent_7_9_3/rearranged_h_0047.sdf

> <i_m_source_file_index>
13

> <r_mmod_Potential_Energy-OPLS-2005>
4303.49072265625

> <r_mmod_Stretch_Energy-OPLS-2005>
1937.3203125

> <r_mmod_Bend_Energy-OPLS-2005>
891.069641113281

> <r_mmod_Torsional_Energy-OPLS-2005>
308.0107421875

> <r_mmod_Improper_Torsional_Energy-OPLS-2005>
4.89766931533813

> <r_mmod_Van_der_Waal_Energy-OPLS-2005>
112.25927734375

> <r_mmod_Electrostatic_Energy-OPLS-2005>
-274.442291259766

> <r_mmod_Solvation_Energy-OPLS-2005>
-215.008483886719

> <b_mmod_Minimization_Converged-OPLS-2005>
0

> <r_mmod_RMS_Derivative-OPLS-2005>
2.3036835193634

$$$$
13
                    3D
 Structure written by MMmdl.
156164  0  0  1  0            999 V2000
  -30.7062  -14.4099   20.7025 C   0  0  0  0  0  0
  -30.4244  -12.3252   19.3855 C   0  0  0  0  0  0
  -29.4841  -12.5616   18.1848 C   0  0  0  0  0  0
  -28.0052  -12.4071   18.5929 C   0  0  0  0  0  0
  -27.6611  -13.2002   19.8788 C   0  0  2  0  0  0
  -28.6971  -12.9055   20.9845 C   0  0  0  0  0  0
  -25.2568  -13.8131   20.5665 C   0  0  0  0  0  0
  -24.1843  -13.0415   20.9155 C   0  0  0  0  0  0
  -24.6376  -11.6862   20.8668 C   0  0  0  0  0  0
  -23.9024  -10.4274   21.0354 C   0  0  0  0  0  0
  -24.3577   -9.4199   21.9141 C   0  0  0  0  0  0
  -23.6271   -8.2239   22.0731 C   0  0  0  0  0  0
  -22.4247   -8.0258   21.3523 C   0  0  0  0  0  0
  -21.9862   -9.0220   20.4614 C   0  0  0  0  0  0
  -22.7178  -10.2114   20.3010 C   0  0  0  0  0  0
  -21.6872   -6.0712   22.5275 C   0  0  0  0  0  0
  -21.4026   -6.5620   23.8198 C   0  0  0  0  0  0
  -21.3663   -5.6781   24.9163 C   0  0  0  0  0  0
  -21.6044   -4.3042   24.7237 C   0  0  0  0  0  0
  -21.8813   -3.8125   23.4364 C   0  0  0  0  0  0
  -21.9191   -4.6939   22.3413 C   0  0  0  0  0  0
  -22.7844  -13.5210   21.1849 C   0  0  0  0  0  0
  -22.1659   -4.2119   21.0990 F   0  0  0  0  0  0
  -21.5631   -3.4526   25.7760 F   0  0  0  0  0  0
  -30.0378  -13.2489   20.4655 N   0  0  0  0  0  0
  -26.3008  -12.9313   20.3315 N   0  0  0  0  0  0
  -25.9295  -11.6457   20.5665 N   0  0  0  0  0  0
  -22.0503  -12.8202   22.0415 N   0  0  0  0  0  0
  -25.4262  -15.1871   20.4116 N   0  0  0  0  0  0
  -31.7439  -14.7309   20.1129 O   0  0  0  0  0  0
  -21.6622   -6.8848   21.4225 O   0  0  0  0  0  0
  -22.3488  -14.5526   20.6700 O   0  0  0  0  0  0
  -24.6102  -31.8692   23.2109 C   0  0  0  0  0  0
  -25.8994  -32.4840   23.8481 C   0  0  1  0  0  0
  -27.2215  -27.4226   20.1118 C   0  0  0  0  0  0
  -25.5876  -33.8656   24.2401 N   0  0  0  0  0  0
  -23.3962  -30.4910   21.5503 C   0  0  2  0  0  0
  -24.8421  -28.9573   20.1124 C   0  0  0  0  0  0
  -22.7395  -29.4644   22.5006 C   0  0  0  0  0  0
  -18.0269  -28.1327   22.8499 C   0  0  0  0  0  0
  -24.1457  -36.7343   23.2644 C   0  0  0  0  0  0
  -25.9196  -30.8271   21.3648 C   0  0  0  0  0  0
  -25.9948  -29.4581   20.7242 C   0  0  0  0  0  0
  -27.1797  -28.6913   20.7339 C   0  0  0  0  0  0
  -26.0554  -26.9504   19.4686 C   0  0  0  0  0  0
  -24.8659  -27.7046   19.4816 C   0  0  0  0  0  0
  -23.6019  -29.8209   20.1626 C   0  0  0  0  0  0
  -25.4065  -36.3143   24.0371 C   0  0  1  0  0  0
  -20.5848  -28.3627   23.1304 C   0  0  2  0  0  0
  -20.6727  -26.9372   22.5396 C   0  0  0  0  0  0
  -19.5726  -26.6340   21.5163 C   0  0  0  0  0  0
  -18.1914  -26.7884   22.1592 C   0  0  0  0  0  0
  -19.1522  -28.8786   23.2905 C   0  0  0  0  0  0
  -18.9478  -30.1374   23.8949 C   0  0  0  0  0  0
  -17.6501  -30.6573   24.0557 C   0  0  0  0  0  0
  -25.8994  -34.9498   23.5171 C   0  0  0  0  0  0
  -16.5376  -29.9091   23.6307 C   0  0  0  0  0  0
  -16.7264  -28.6455   23.0405 C   0  0  0  0  0  0
  -26.4437  -31.6634   25.0812 C   0  0  0  0  0  0
  -25.3710  -31.3769   26.1591 C   0  0  0  0  0  0
  -27.0297  -30.3114   24.6109 C   0  0  0  0  0  0
  -27.6040  -32.4344   25.7576 C   0  0  0  0  0  0
  -27.5570  -37.1808   24.8475 C   0  0  0  0  0  0
  -21.4126  -29.3042   22.3786 N   0  0  0  0  0  0
  -26.4265  -37.3821   23.9427 N   0  0  0  0  0  0
  -24.6606  -31.0784   22.1018 N   0  0  0  0  0  0
  -23.4175  -28.8181   23.3041 O   0  0  0  0  0  0
  -28.4092  -26.7146   20.1543 O   0  0  0  0  0  0
  -26.5573  -34.8932   22.4741 O   0  0  0  0  0  0
  -23.5297  -32.1519   23.7451 O   0  0  0  0  0  0
  -31.3056  -21.8190   21.9101 C   0  0  0  0  0  0
  -30.2721  -22.0992   20.9688 C   0  0  0  0  0  0
  -30.9739  -20.5814   22.3731 C   0  0  0  0  0  0
  -30.0989  -23.3427   20.1075 C   0  0  0  0  0  0
  -29.3884  -24.5463   20.7770 C   0  0  0  0  0  0
  -29.5399  -17.6130   21.1907 C   0  0  0  0  0  0
  -29.0746  -18.8890   21.9531 C   0  0  0  0  0  0
  -30.4064  -16.5980   21.9874 C   0  0  0  0  0  0
  -28.4444  -25.3172   19.8214 C   0  0  0  0  0  0
  -29.3993  -21.0840   20.8782 N   0  0  0  0  0  0
  -29.8455  -20.1201   21.7350 N   0  0  0  0  0  0
  -30.1194  -15.2017   21.6161 N   0  0  0  0  0  0
  -31.6365  -19.9135   23.3466 F   0  0  0  0  0  0
  -31.4692  -12.4481   19.0896 H   0  0  0  0  0  0
  -30.3281  -11.2951   19.7315 H   0  0  0  0  0  0
  -29.7207  -11.8711   17.3743 H   0  0  0  0  0  0
  -29.6438  -13.5630   17.7826 H   0  0  0  0  0  0
  -27.8024  -11.3466   18.7367 H   0  0  0  0  0  0
  -27.3572  -12.7199   17.7754 H   0  0  0  0  0  0
  -27.7250  -14.2596   19.6327 H   0  0  0  0  0  0
  -28.6757  -11.8446   21.2321 H   0  0  0  0  0  0
  -28.4312  -13.4085   21.9142 H   0  0  0  0  0  0
  -25.2725   -9.5721   22.4686 H   0  0  0  0  0  0
  -24.0003   -7.4642   22.7453 H   0  0  0  0  0  0
  -21.0782   -8.8674   19.8943 H   0  0  0  0  0  0
  -22.3570  -10.9608   19.6107 H   0  0  0  0  0  0
  -21.2012   -7.6121   23.9700 H   0  0  0  0  0  0
  -21.1501   -6.0508   25.9069 H   0  0  0  0  0  0
  -22.0596   -2.7583   23.2864 H   0  0  0  0  0  0
  -22.4157  -11.9892   22.4824 H   0  0  0  0  0  0
  -21.1107  -13.1165   22.2621 H   0  0  0  0  0  0
  -24.6519  -15.8351   20.5159 H   0  0  0  0  0  0
  -26.2823  -15.6349   20.1091 H   0  0  0  0  0  0
  -26.7091  -32.5560   23.1292 H   0  0  0  0  0  0
  -25.0152  -33.9871   25.0637 H   0  0  0  0  0  0
  -22.6885  -31.3124   21.4138 H   0  0  0  0  0  0
  -23.3704  -35.9685   23.3322 H   0  0  0  0  0  0
  -24.3578  -36.8914   22.2051 H   0  0  0  0  0  0
  -23.7189  -37.6549   23.6646 H   0  0  0  0  0  0
  -26.0204  -31.5733   20.5771 H   0  0  0  0  0  0
  -26.8138  -30.9045   21.9694 H   0  0  0  0  0  0
  -28.0625  -29.0608   21.2350 H   0  0  0  0  0  0
  -26.0471  -26.0177   18.9281 H   0  0  0  0  0  0
  -23.9834  -27.3222   18.9848 H   0  0  0  0  0  0
  -23.7013  -30.5954   19.4007 H   0  0  0  0  0  0
  -22.7283  -29.2294   19.8762 H   0  0  0  0  0  0
  -25.1198  -36.2076   25.0863 H   0  0  0  0  0  0
  -20.9948  -28.3144   24.1411 H   0  0  0  0  0  0
  -20.5506  -26.2276   23.3598 H   0  0  0  0  0  0
  -21.6618  -26.7352   22.1270 H   0  0  0  0  0  0
  -19.6900  -25.6235   21.1221 H   0  0  0  0  0  0
  -19.6629  -27.3120   20.6663 H   0  0  0  0  0  0
  -17.4172  -26.6626   21.4011 H   0  0  0  0  0  0
  -18.0351  -25.9989   22.8958 H   0  0  0  0  0  0
  -19.7964  -30.7130   24.2366 H   0  0  0  0  0  0
  -17.5087  -31.6257   24.5136 H   0  0  0  0  0  0
  -15.5398  -30.3050   23.7539 H   0  0  0  0  0  0
  -15.8650  -28.0747   22.7207 H   0  0  0  0  0  0
  -24.5869  -30.7103   25.7981 H   0  0  0  0  0  0
  -24.8916  -32.2943   26.5030 H   0  0  0  0  0  0
  -25.8060  -30.8995   27.0386 H   0  0  0  0  0  0
  -26.2861  -29.6900   24.1090 H   0  0  0  0  0  0
  -27.4112  -29.7309   25.4521 H   0  0  0  0  0  0
  -27.8672  -30.4539   23.9264 H   0  0  0  0  0  0
  -27.2699  -33.3648   26.2193 H   0  0  0  0  0  0
  -28.3843  -32.6869   25.0385 H   0  0  0  0  0  0
  -28.0735  -31.8453   26.5459 H   0  0  0  0  0  0
  -28.2580  -38.0107   24.7520 H   0  0  0  0  0  0
  -28.1071  -36.2642   24.6291 H   0  0  0  0  0  0
  -27.2355  -37.1475   25.8900 H   0  0  0  0  0  0
  -20.9296  -29.8947   21.7169 H   0  0  0  0  0  0
  -26.0181  -38.2913   24.1406 H   0  0  0  0  0  0
  -32.1457  -22.4287   22.2098 H   0  0  0  0  0  0
  -29.5687  -23.0644   19.1971 H   0  0  0  0  0  0
  -31.0762  -23.7055   19.7824 H   0  0  0  0  0  0
  -30.1422  -25.2197   21.1853 H   0  0  0  0  0  0
  -28.8036  -24.2094   21.6324 H   0  0  0  0  0  0
  -30.0504  -17.8825   20.2656 H   0  0  0  0  0  0
  -28.6324  -17.0966   20.8707 H   0  0  0  0  0  0
  -29.0086  -18.6978   23.0243 H   0  0  0  0  0  0
  -28.0516  -19.1058   21.6462 H   0  0  0  0  0  0
  -30.1958  -16.6815   23.0547 H   0  0  0  0  0  0
  -31.4674  -16.8218   21.8768 H   0  0  0  0  0  0
  -28.7834  -25.2328   18.7855 H   0  0  0  0  0  0
  -27.4776  -24.8197   19.8962 H   0  0  0  0  0  0
  -29.3239  -14.7860   22.0765 H   0  0  0  0  0  0
  1 25  1  0  0  0
  1 30  2  0  0  0
  1 82  1  0  0  0
  2  3  1  0  0  0
  2 25  1  0  0  0
  2 84  1  0  0  0
  2 85  1  0  0  0
  3  4  1  0  0  0
  3 86  1  0  0  0
  3 87  1  0  0  0
  4  5  1  0  0  0
  4 88  1  0  0  0
  4 89  1  0  0  0
  5  6  1  0  0  0
  5 26  1  0  0  0
  5 90  1  0  0  0
  6 25  1  0  0  0
  6 91  1  0  0  0
  6 92  1  0  0  0
  7  8  2  0  0  0
  7 26  1  0  0  0
  7 29  1  0  0  0
  8  9  1  0  0  0
  8 22  1  0  0  0
  9 10  1  0  0  0
  9 27  2  0  0  0
 10 11  2  0  0  0
 10 15  1  0  0  0
 11 12  1  0  0  0
 11 93  1  0  0  0
 12 13  2  0  0  0
 12 94  1  0  0  0
 13 14  1  0  0  0
 13 31  1  0  0  0
 14 15  2  0  0  0
 14 95  1  0  0  0
 15 96  1  0  0  0
 16 17  2  0  0  0
 16 21  1  0  0  0
 16 31  1  0  0  0
 17 18  1  0  0  0
 17 97  1  0  0  0
 18 19  2  0  0  0
 18 98  1  0  0  0
 19 20  1  0  0  0
 19 24  1  0  0  0
 20 21  2  0  0  0
 20 99  1  0  0  0
 21 23  1  0  0  0
 22 28  1  0  0  0
 22 32  2  0  0  0
 26 27  1  0  0  0
 28100  1  0  0  0
 28101  1  0  0  0
 29102  1  0  0  0
 29103  1  0  0  0
 33 34  1  0  0  0
 33 66  1  0  0  0
 33 70  2  0  0  0
 34 36  1  0  0  0
 34 59  1  0  0  0
 34104  1  0  0  0
 35 44  2  0  0  0
 35 45  1  0  0  0
 35 68  1  0  0  0
 36 56  1  0  0  0
 36105  1  0  0  0
 37 39  1  0  0  0
 37 47  1  0  0  0
 37 66  1  0  0  0
 37106  1  0  0  0
 38 43  2  0  0  0
 38 46  1  0  0  0
 38 47  1  0  0  0
 39 64  1  0  0  0
 39 67  2  0  0  0
 40 52  1  0  0  0
 40 53  2  0  0  0
 40 58  1  0  0  0
 41107  1  0  0  0
 41108  1  0  0  0
 41109  1  0  0  0
 41 48  1  0  0  0
 42 43  1  0  0  0
 42 66  1  0  0  0
 42110  1  0  0  0
 42111  1  0  0  0
 43 44  1  0  0  0
 44112  1  0  0  0
 45 46  2  0  0  0
 45113  1  0  0  0
 46114  1  0  0  0
 47115  1  0  0  0
 47116  1  0  0  0
 48 56  1  0  0  0
 48 65  1  0  0  0
 48117  1  0  0  0
 49 50  1  0  0  0
 49 53  1  0  0  0
 49 64  1  0  0  0
 49118  1  0  0  0
 50 51  1  0  0  0
 50119  1  0  0  0
 50120  1  0  0  0
 51 52  1  0  0  0
 51121  1  0  0  0
 51122  1  0  0  0
 52123  1  0  0  0
 52124  1  0  0  0
 53 54  1  0  0  0
 54 55  2  0  0  0
 54125  1  0  0  0
 55 57  1  0  0  0
 55126  1  0  0  0
 56 69  2  0  0  0
 57 58  2  0  0  0
 57127  1  0  0  0
 58128  1  0  0  0
 59 60  1  0  0  0
 59 61  1  0  0  0
 59 62  1  0  0  0
 60129  1  0  0  0
 60130  1  0  0  0
 60131  1  0  0  0
 61132  1  0  0  0
 61133  1  0  0  0
 61134  1  0  0  0
 62135  1  0  0  0
 62136  1  0  0  0
 62137  1  0  0  0
 63 65  1  0  0  0
 63138  1  0  0  0
 63139  1  0  0  0
 63140  1  0  0  0
 64141  1  0  0  0
 65142  1  0  0  0
 68 79  1  0  0  0
 71 72  1  0  0  0
 71 73  2  0  0  0
 71143  1  0  0  0
 72 74  1  0  0  0
 72 80  2  0  0  0
 73 81  1  0  0  0
 73 83  1  0  0  0
 74 75  1  0  0  0
 74144  1  0  0  0
 74145  1  0  0  0
 75 79  1  0  0  0
 75146  1  0  0  0
 75147  1  0  0  0
 76 77  1  0  0  0
 76 78  1  0  0  0
 76148  1  0  0  0
 76149  1  0  0  0
 77 81  1  0  0  0
 77150  1  0  0  0
 77151  1  0  0  0
 78 82  1  0  0  0
 78152  1  0  0  0
 78153  1  0  0  0
 79154  1  0  0  0
 79155  1  0  0  0
 80 81  1  0  0  0
 82156  1  0  0  0
M  ISO  4   1 100  68 101  79 101  82 100
M  END
> <chiral flag>
0

> <version>
0

> <s_m_source_file>
/data/baiqing/PycharmProjects/Reinvent-master-3.2/result/LINK_invent/BTK/process_docking_weight1_custom_sum_contain_oxygen_bond_distance_aromatic_linkinvent_7_9_3/rearranged_h_0047.sdf

> <i_m_source_file_index>
14

> <r_mmod_Potential_Energy-OPLS-2005>
-92.7399139404297

> <r_mmod_Stretch_Energy-OPLS-2005>
38.0823135375977

> <r_mmod_Bend_Energy-OPLS-2005>
118.503227233887

> <r_mmod_Torsional_Energy-OPLS-2005>
224.572906494141

> <r_mmod_Improper_Torsional_Energy-OPLS-2005>
2.27884840965271

> <r_mmod_Van_der_Waal_Energy-OPLS-2005>
127.578918457031

> <r_mmod_Electrostatic_Energy-OPLS-2005>
-400.186767578125

> <r_mmod_Solvation_Energy-OPLS-2005>
-216.391510009766

> <b_mmod_Minimization_Converged-OPLS-2005>
0

> <r_mmod_RMS_Derivative-OPLS-2005>
6.1243748664856

$$$$
14
                    3D
 Structure written by MMmdl.
164173  0  0  1  0            999 V2000
  -30.7389  -14.4135   20.6075 C   0  0  0  0  0  0
  -30.4181  -12.2796   19.4265 C   0  0  0  0  0  0
  -29.4984  -12.4890   18.2095 C   0  0  0  0  0  0
  -28.0205  -12.3476   18.6216 C   0  0  0  0  0  0
  -27.6594  -13.1912   19.8752 C   0  0  2  0  0  0
  -28.6991  -12.9809   20.9991 C   0  0  0  0  0  0
  -25.2528  -13.8034   20.5659 C   0  0  0  0  0  0
  -24.1796  -13.0336   20.9150 C   0  0  0  0  0  0
  -24.6399  -11.6805   20.8754 C   0  0  0  0  0  0
  -23.9099  -10.4213   21.0395 C   0  0  0  0  0  0
  -24.3623   -9.4164   21.9212 C   0  0  0  0  0  0
  -23.6281   -8.2224   22.0807 C   0  0  0  0  0  0
  -22.4267   -8.0276   21.3548 C   0  0  0  0  0  0
  -21.9929   -9.0251   20.4630 C   0  0  0  0  0  0
  -22.7330  -10.2070   20.2965 C   0  0  0  0  0  0
  -21.6849   -6.0695   22.5202 C   0  0  0  0  0  0
  -21.4012   -6.5598   23.8110 C   0  0  0  0  0  0
  -21.3670   -5.6763   24.9078 C   0  0  0  0  0  0
  -21.6071   -4.3022   24.7180 C   0  0  0  0  0  0
  -21.8849   -3.8116   23.4304 C   0  0  0  0  0  0
  -21.9197   -4.6921   22.3351 C   0  0  0  0  0  0
  -22.7836  -13.5156   21.1849 C   0  0  0  0  0  0
  -22.1698   -4.2100   21.0943 F   0  0  0  0  0  0
  -21.5674   -3.4512   25.7725 F   0  0  0  0  0  0
  -30.0361  -13.2623   20.4467 N   0  0  0  0  0  0
  -26.2991  -12.9241   20.3358 N   0  0  0  0  0  0
  -25.9312  -11.6408   20.5808 N   0  0  0  0  0  0
  -22.0495  -12.8216   22.0482 N   0  0  0  0  0  0
  -25.4171  -15.1768   20.4210 N   0  0  0  0  0  0
  -31.8789  -14.5850   20.1720 O   0  0  0  0  0  0
  -21.6662   -6.8848   21.4160 O   0  0  0  0  0  0
  -22.3551  -14.5482   20.6677 O   0  0  0  0  0  0
  -24.6123  -31.8715   23.2144 C   0  0  0  0  0  0
  -25.9019  -32.4841   23.8433 C   0  0  1  0  0  0
  -27.2413  -27.4830   20.0700 C   0  0  0  0  0  0
  -25.5880  -33.8634   24.2364 N   0  0  0  0  0  0
  -23.4005  -30.4984   21.5526 C   0  0  2  0  0  0
  -24.8473  -28.9765   20.1130 C   0  0  0  0  0  0
  -22.7392  -29.4684   22.4974 C   0  0  0  0  0  0
  -18.0266  -28.1369   22.8499 C   0  0  0  0  0  0
  -24.1498  -36.7334   23.2633 C   0  0  0  0  0  0
  -25.9253  -30.8505   21.3659 C   0  0  0  0  0  0
  -26.0042  -29.4902   20.7111 C   0  0  0  0  0  0
  -27.2013  -28.7455   20.6959 C   0  0  0  0  0  0
  -26.0699  -26.9962   19.4388 C   0  0  0  0  0  0
  -24.8702  -27.7242   19.4802 C   0  0  0  0  0  0
  -23.6098  -29.8361   20.1663 C   0  0  0  0  0  0
  -25.4101  -36.3122   24.0346 C   0  0  1  0  0  0
  -20.5856  -28.3651   23.1310 C   0  0  2  0  0  0
  -20.6756  -26.9390   22.5407 C   0  0  0  0  0  0
  -19.5737  -26.6381   21.5206 C   0  0  0  0  0  0
  -18.1919  -26.7916   22.1620 C   0  0  0  0  0  0
  -19.1521  -28.8819   23.2907 C   0  0  0  0  0  0
  -18.9444  -30.1418   23.8930 C   0  0  0  0  0  0
  -17.6451  -30.6572   24.0565 C   0  0  0  0  0  0
  -25.9016  -34.9483   23.5147 C   0  0  0  0  0  0
  -16.5338  -29.9090   23.6317 C   0  0  0  0  0  0
  -16.7255  -28.6503   23.0344 C   0  0  0  0  0  0
  -26.4473  -31.6585   25.0723 C   0  0  0  0  0  0
  -25.3764  -31.3663   26.1486 C   0  0  0  0  0  0
  -27.0304  -30.3037   24.6048 C   0  0  0  0  0  0
  -27.6058  -32.4294   25.7465 C   0  0  0  0  0  0
  -27.5584  -37.1813   24.8459 C   0  0  0  0  0  0
  -21.4113  -29.3043   22.3710 N   0  0  0  0  0  0
  -26.4299  -37.3790   23.9406 N   0  0  0  0  0  0
  -24.6642  -31.0875   22.1027 N   0  0  0  0  0  0
  -23.4180  -28.8199   23.2986 O   0  0  0  0  0  0
  -28.4238  -26.7774   20.1085 O   0  0  0  0  0  0
  -26.5570  -34.8914   22.4695 O   0  0  0  0  0  0
  -23.5321  -32.1433   23.7543 O   0  0  0  0  0  0
  -27.1931  -20.5737   19.9401 C   0  0  0  0  0  0
  -27.1462  -19.3442   19.2873 C   0  0  0  0  0  0
  -26.2237  -20.8798   17.9331 C   0  0  0  0  0  0
  -26.6508  -22.8882   19.3892 C   0  0  0  0  0  0
  -27.6668  -20.9736   21.2205 C   0  0  0  0  0  0
  -27.3015  -23.1794   20.6229 C   0  0  0  0  0  0
  -25.5768  -21.5319   16.7558 C   0  0  0  0  0  0
  -27.9986  -20.0292   22.3588 C   0  0  0  0  0  0
  -27.6315  -17.9188   19.4451 C   0  0  0  0  0  0
  -27.5359  -24.6361   20.9795 C   0  0  0  0  0  0
  -28.6584  -17.5206   20.5255 C   0  0  0  0  0  0
  -29.5915  -16.4010   20.0247 C   0  0  0  0  0  0
  -28.3681  -25.3683   19.8943 C   0  0  0  0  0  0
  -26.5049  -19.5840   18.0617 N   0  0  0  0  0  0
  -27.7591  -22.2810   21.5332 N   0  0  0  0  0  0
  -26.6628  -21.5210   19.0503 N   0  0  0  0  0  0
  -30.0367  -15.4612   21.0560 N   0  0  0  0  0  0
  -31.4648  -12.3617   19.1317 H   0  0  0  0  0  0
  -30.3037  -11.2716   19.8261 H   0  0  0  0  0  0
  -29.7390  -11.7669   17.4273 H   0  0  0  0  0  0
  -29.6791  -13.4729   17.7739 H   0  0  0  0  0  0
  -27.8430  -11.2892   18.8207 H   0  0  0  0  0  0
  -27.3703  -12.6108   17.7865 H   0  0  0  0  0  0
  -27.6957  -14.2318   19.5646 H   0  0  0  0  0  0
  -28.6597  -11.9551   21.3700 H   0  0  0  0  0  0
  -28.4680  -13.6139   21.8574 H   0  0  0  0  0  0
  -25.2786   -9.5660   22.4763 H   0  0  0  0  0  0
  -23.9945   -7.4668   22.7614 H   0  0  0  0  0  0
  -21.0847   -8.8824   19.8935 H   0  0  0  0  0  0
  -22.3926  -10.9597   19.5987 H   0  0  0  0  0  0
  -21.2012   -7.6096   23.9583 H   0  0  0  0  0  0
  -21.1471   -6.0504   25.8967 H   0  0  0  0  0  0
  -22.0651   -2.7585   23.2830 H   0  0  0  0  0  0
  -21.1112  -13.1195   22.2778 H   0  0  0  0  0  0
  -22.4173  -12.0000   22.5037 H   0  0  0  0  0  0
  -24.6606  -15.8311   20.5750 H   0  0  0  0  0  0
  -26.2922  -15.6183   20.1840 H   0  0  0  0  0  0
  -26.7087  -32.5598   23.1207 H   0  0  0  0  0  0
  -25.0062  -33.9815   25.0536 H   0  0  0  0  0  0
  -22.6903  -31.3151   21.4118 H   0  0  0  0  0  0
  -23.3755  -35.9682   23.3304 H   0  0  0  0  0  0
  -24.3616  -36.8925   22.2051 H   0  0  0  0  0  0
  -23.7262  -37.6543   23.6633 H   0  0  0  0  0  0
  -26.0325  -31.6238   20.6043 H   0  0  0  0  0  0
  -26.8176  -30.9039   21.9780 H   0  0  0  0  0  0
  -28.0929  -29.1365   21.1668 H   0  0  0  0  0  0
  -26.0550  -26.0642   18.8975 H   0  0  0  0  0  0
  -23.9802  -27.3325   19.0082 H   0  0  0  0  0  0
  -23.7221  -30.6124   19.4091 H   0  0  0  0  0  0
  -22.7393  -29.2523   19.8643 H   0  0  0  0  0  0
  -25.1281  -36.2003   25.0846 H   0  0  0  0  0  0
  -20.9957  -28.3228   24.1426 H   0  0  0  0  0  0
  -20.5651  -26.2264   23.3590 H   0  0  0  0  0  0
  -21.6627  -26.7425   22.1205 H   0  0  0  0  0  0
  -19.6901  -25.6308   21.1211 H   0  0  0  0  0  0
  -19.6683  -27.3216   20.6761 H   0  0  0  0  0  0
  -17.4179  -26.6654   21.4029 H   0  0  0  0  0  0
  -18.0321  -26.0055   22.9013 H   0  0  0  0  0  0
  -19.7917  -30.7210   24.2337 H   0  0  0  0  0  0
  -17.5009  -31.6261   24.5146 H   0  0  0  0  0  0
  -15.5345  -30.2998   23.7612 H   0  0  0  0  0  0
  -15.8653  -28.0824   22.7047 H   0  0  0  0  0  0
  -24.5910  -30.7047   25.7809 H   0  0  0  0  0  0
  -24.9013  -32.2825   26.4997 H   0  0  0  0  0  0
  -25.8154  -30.8764   27.0186 H   0  0  0  0  0  0
  -26.2834  -29.6769   24.1161 H   0  0  0  0  0  0
  -27.4158  -29.7274   25.4465 H   0  0  0  0  0  0
  -27.8632  -30.4366   23.9137 H   0  0  0  0  0  0
  -27.2672  -33.3551   26.2114 H   0  0  0  0  0  0
  -28.3823  -32.6903   25.0267 H   0  0  0  0  0  0
  -28.0777  -31.8375   26.5310 H   0  0  0  0  0  0
  -28.2592  -38.0112   24.7508 H   0  0  0  0  0  0
  -28.1085  -36.2646   24.6296 H   0  0  0  0  0  0
  -27.2303  -37.1469   25.8857 H   0  0  0  0  0  0
  -20.9239  -29.8809   21.6987 H   0  0  0  0  0  0
  -26.0202  -38.2874   24.1396 H   0  0  0  0  0  0
  -26.2557  -23.6137   18.6923 H   0  0  0  0  0  0
  -25.2445  -20.7840   16.0351 H   0  0  0  0  0  0
  -26.2792  -22.2020   16.2578 H   0  0  0  0  0  0
  -24.7062  -22.1058   17.0743 H   0  0  0  0  0  0
  -27.8489  -20.5004   23.3321 H   0  0  0  0  0  0
  -29.0376  -19.7139   22.3227 H   0  0  0  0  0  0
  -27.3415  -19.1615   22.3298 H   0  0  0  0  0  0
  -28.0871  -17.6627   18.4854 H   0  0  0  0  0  0
  -26.7652  -17.2658   19.5246 H   0  0  0  0  0  0
  -28.0499  -24.7185   21.9372 H   0  0  0  0  0  0
  -26.5591  -25.0915   21.1357 H   0  0  0  0  0  0
  -28.1479  -17.2390   21.4477 H   0  0  0  0  0  0
  -29.3107  -18.3627   20.7321 H   0  0  0  0  0  0
  -30.4702  -16.8699   19.5792 H   0  0  0  0  0  0
  -29.1303  -15.8457   19.2058 H   0  0  0  0  0  0
  -28.0116  -25.1751   18.8818 H   0  0  0  0  0  0
  -29.3849  -24.9785   19.9138 H   0  0  0  0  0  0
  -30.5208  -15.9410   21.8042 H   0  0  0  0  0  0
  1 25  1  0  0  0
  1 30  2  0  0  0
  1 87  1  0  0  0
  2  3  1  0  0  0
  2 25  1  0  0  0
  2 88  1  0  0  0
  2 89  1  0  0  0
  3  4  1  0  0  0
  3 90  1  0  0  0
  3 91  1  0  0  0
  4  5  1  0  0  0
  4 92  1  0  0  0
  4 93  1  0  0  0
  5  6  1  0  0  0
  5 26  1  0  0  0
  5 94  1  0  0  0
  6 25  1  0  0  0
  6 95  1  0  0  0
  6 96  1  0  0  0
  7  8  2  0  0  0
  7 26  1  0  0  0
  7 29  1  0  0  0
  8  9  1  0  0  0
  8 22  1  0  0  0
  9 10  1  0  0  0
  9 27  2  0  0  0
 10 11  2  0  0  0
 10 15  1  0  0  0
 11 12  1  0  0  0
 11 97  1  0  0  0
 12 13  2  0  0  0
 12 98  1  0  0  0
 13 14  1  0  0  0
 13 31  1  0  0  0
 14 15  2  0  0  0
 14 99  1  0  0  0
 15100  1  0  0  0
 16 17  2  0  0  0
 16 21  1  0  0  0
 16 31  1  0  0  0
 17 18  1  0  0  0
 17101  1  0  0  0
 18 19  2  0  0  0
 18102  1  0  0  0
 19 20  1  0  0  0
 19 24  1  0  0  0
 20 21  2  0  0  0
 20103  1  0  0  0
 21 23  1  0  0  0
 22 28  1  0  0  0
 22 32  2  0  0  0
 26 27  1  0  0  0
 28104  1  0  0  0
 28105  1  0  0  0
 29106  1  0  0  0
 29107  1  0  0  0
 33 34  1  0  0  0
 33 66  1  0  0  0
 33 70  2  0  0  0
 34 36  1  0  0  0
 34 59  1  0  0  0
 34108  1  0  0  0
 35 44  2  0  0  0
 35 45  1  0  0  0
 35 68  1  0  0  0
 36 56  1  0  0  0
 36109  1  0  0  0
 37 39  1  0  0  0
 37 47  1  0  0  0
 37 66  1  0  0  0
 37110  1  0  0  0
 38 43  2  0  0  0
 38 46  1  0  0  0
 38 47  1  0  0  0
 39 64  1  0  0  0
 39 67  2  0  0  0
 40 52  1  0  0  0
 40 53  2  0  0  0
 40 58  1  0  0  0
 41111  1  0  0  0
 41112  1  0  0  0
 41113  1  0  0  0
 41 48  1  0  0  0
 42 43  1  0  0  0
 42 66  1  0  0  0
 42114  1  0  0  0
 42115  1  0  0  0
 43 44  1  0  0  0
 44116  1  0  0  0
 45 46  2  0  0  0
 45117  1  0  0  0
 46118  1  0  0  0
 47119  1  0  0  0
 47120  1  0  0  0
 48 56  1  0  0  0
 48 65  1  0  0  0
 48121  1  0  0  0
 49 50  1  0  0  0
 49 53  1  0  0  0
 49 64  1  0  0  0
 49122  1  0  0  0
 50 51  1  0  0  0
 50123  1  0  0  0
 50124  1  0  0  0
 51 52  1  0  0  0
 51125  1  0  0  0
 51126  1  0  0  0
 52127  1  0  0  0
 52128  1  0  0  0
 53 54  1  0  0  0
 54 55  2  0  0  0
 54129  1  0  0  0
 55 57  1  0  0  0
 55130  1  0  0  0
 56 69  2  0  0  0
 57 58  2  0  0  0
 57131  1  0  0  0
 58132  1  0  0  0
 59 60  1  0  0  0
 59 61  1  0  0  0
 59 62  1  0  0  0
 60133  1  0  0  0
 60134  1  0  0  0
 60135  1  0  0  0
 61136  1  0  0  0
 61137  1  0  0  0
 61138  1  0  0  0
 62139  1  0  0  0
 62140  1  0  0  0
 62141  1  0  0  0
 63 65  1  0  0  0
 63142  1  0  0  0
 63143  1  0  0  0
 63144  1  0  0  0
 64145  1  0  0  0
 65146  1  0  0  0
 68 83  1  0  0  0
 71 72  2  0  0  0
 71 75  1  0  0  0
 71 86  1  0  0  0
 72 79  1  0  0  0
 72 84  1  0  0  0
 73 77  1  0  0  0
 73 84  2  0  0  0
 73 86  1  0  0  0
 74 76  2  0  0  0
 74 86  1  0  0  0
 74147  1  0  0  0
 75 78  1  0  0  0
 75 85  2  0  0  0
 76 80  1  0  0  0
 76 85  1  0  0  0
 77148  1  0  0  0
 77149  1  0  0  0
 77150  1  0  0  0
 78151  1  0  0  0
 78152  1  0  0  0
 78153  1  0  0  0
 79 81  1  0  0  0
 79154  1  0  0  0
 79155  1  0  0  0
 80 83  1  0  0  0
 80156  1  0  0  0
 80157  1  0  0  0
 81 82  1  0  0  0
 81158  1  0  0  0
 81159  1  0  0  0
 82 87  1  0  0  0
 82160  1  0  0  0
 82161  1  0  0  0
 83162  1  0  0  0
 83163  1  0  0  0
 87164  1  0  0  0
M  ISO  4   1 100  68 101  83 101  87 100
M  END
> <chiral flag>
0

> <version>
0

> <s_m_source_file>
/data/baiqing/PycharmProjects/Reinvent-master-3.2/result/LINK_invent/BTK/process_docking_weight1_custom_sum_contain_oxygen_bond_distance_aromatic_linkinvent_7_9_3/rearranged_h_0047.sdf

> <i_m_source_file_index>
15

> <r_mmod_Potential_Energy-OPLS-2005>
-17.4132041931152

> <r_mmod_Stretch_Energy-OPLS-2005>
35.3708763122559

> <r_mmod_Bend_Energy-OPLS-2005>
179.178329467773

> <r_mmod_Torsional_Energy-OPLS-2005>
278.508117675781

> <r_mmod_Improper_Torsional_Energy-OPLS-2005>
10.7989387512207

> <r_mmod_Van_der_Waal_Energy-OPLS-2005>
158.700698852539

> <r_mmod_Electrostatic_Energy-OPLS-2005>
-406.313171386719

> <r_mmod_Solvation_Energy-OPLS-2005>
-286.705657958984

> <b_mmod_Minimization_Converged-OPLS-2005>
0

> <r_mmod_RMS_Derivative-OPLS-2005>
5.11154937744141

$$$$
15
                    3D
 Structure written by MMmdl.
157165  0  0  1  0            999 V2000
  -30.6078  -14.7284   20.4607 C   0  0  0  0  0  0
  -30.4223  -12.4430   19.4694 C   0  0  0  0  0  0
  -29.5061  -12.5276   18.2294 C   0  0  0  0  0  0
  -28.0317  -12.3644   18.6497 C   0  0  0  0  0  0
  -27.6420  -13.2441   19.8675 C   0  0  2  0  0  0
  -28.6899  -13.1547   20.9988 C   0  0  0  0  0  0
  -25.2503  -13.8206   20.5777 C   0  0  0  0  0  0
  -24.1784  -13.0424   20.9253 C   0  0  0  0  0  0
  -24.6380  -11.6903   20.8758 C   0  0  0  0  0  0
  -23.9046  -10.4260   21.0389 C   0  0  0  0  0  0
  -24.3605   -9.4187   21.9172 C   0  0  0  0  0  0
  -23.6298   -8.2208   22.0751 C   0  0  0  0  0  0
  -22.4290   -8.0220   21.3524 C   0  0  0  0  0  0
  -21.9903   -9.0186   20.4637 C   0  0  0  0  0  0
  -22.7205  -10.2085   20.3048 C   0  0  0  0  0  0
  -21.6849   -6.0688   22.5267 C   0  0  0  0  0  0
  -21.3990   -6.5609   23.8185 C   0  0  0  0  0  0
  -21.3690   -5.6787   24.9175 C   0  0  0  0  0  0
  -21.6064   -4.3044   24.7244 C   0  0  0  0  0  0
  -21.8816   -3.8107   23.4373 C   0  0  0  0  0  0
  -21.9192   -4.6915   22.3409 C   0  0  0  0  0  0
  -22.7803  -13.5183   21.1916 C   0  0  0  0  0  0
  -22.1659   -4.2089   21.0996 F   0  0  0  0  0  0
  -21.5666   -3.4534   25.7767 F   0  0  0  0  0  0
  -29.9877  -13.5016   20.4113 N   0  0  0  0  0  0
  -26.2942  -12.9428   20.3408 N   0  0  0  0  0  0
  -25.9319  -11.6549   20.5777 N   0  0  0  0  0  0
  -22.0478  -12.8130   22.0479 N   0  0  0  0  0  0
  -25.4224  -15.1923   20.4184 N   0  0  0  0  0  0
  -31.7940  -14.8287   20.1361 O   0  0  0  0  0  0
  -21.6656   -6.8819   21.4215 O   0  0  0  0  0  0
  -22.3472  -14.5489   20.6771 O   0  0  0  0  0  0
  -24.6301  -31.8540   23.1963 C   0  0  0  0  0  0
  -25.9113  -32.4729   23.8339 C   0  0  1  0  0  0
  -27.2157  -27.2688   20.1295 C   0  0  0  0  0  0
  -25.5906  -33.8544   24.2266 N   0  0  0  0  0  0
  -23.4260  -30.4754   21.5398 C   0  0  2  0  0  0
  -24.8711  -28.9153   20.1172 C   0  0  0  0  0  0
  -22.7488  -29.4602   22.4912 C   0  0  0  0  0  0
  -18.0276  -28.1386   22.8457 C   0  0  0  0  0  0
  -24.1483  -36.7298   23.2645 C   0  0  0  0  0  0
  -25.9707  -30.7719   21.3682 C   0  0  0  0  0  0
  -26.0447  -29.3934   20.7137 C   0  0  0  0  0  0
  -27.2260  -28.5852   20.6963 C   0  0  0  0  0  0
  -26.0212  -26.8443   19.5177 C   0  0  0  0  0  0
  -24.8637  -27.6492   19.5068 C   0  0  0  0  0  0
  -23.6423  -29.8028   20.1590 C   0  0  0  0  0  0
  -25.4099  -36.3064   24.0331 C   0  0  1  0  0  0
  -20.5879  -28.3705   23.1252 C   0  0  2  0  0  0
  -20.6774  -26.9424   22.5402 C   0  0  0  0  0  0
  -19.5761  -26.6386   21.5197 C   0  0  0  0  0  0
  -18.1933  -26.7921   22.1597 C   0  0  0  0  0  0
  -19.1530  -28.8862   23.2837 C   0  0  0  0  0  0
  -18.9454  -30.1455   23.8867 C   0  0  0  0  0  0
  -17.6455  -30.6587   24.0559 C   0  0  0  0  0  0
  -25.9051  -34.9432   23.5110 C   0  0  0  0  0  0
  -16.5345  -29.9085   23.6328 C   0  0  0  0  0  0
  -16.7261  -28.6505   23.0337 C   0  0  0  0  0  0
  -26.4524  -31.6540   25.0719 C   0  0  0  0  0  0
  -25.3771  -31.3640   26.1443 C   0  0  0  0  0  0
  -27.0369  -30.2943   24.6203 C   0  0  0  0  0  0
  -27.6082  -32.4289   25.7479 C   0  0  0  0  0  0
  -27.5574  -37.1786   24.8462 C   0  0  0  0  0  0
  -21.4187  -29.3040   22.3636 N   0  0  0  0  0  0
  -26.4285  -37.3753   23.9419 N   0  0  0  0  0  0
  -24.6953  -31.0529   22.0929 N   0  0  0  0  0  0
  -23.4174  -28.8151   23.3030 O   0  0  0  0  0  0
  -28.3255  -26.4038   20.1037 O   0  0  0  0  0  0
  -26.5639  -34.8908   22.4696 O   0  0  0  0  0  0
  -23.5446  -32.1372   23.7269 O   0  0  0  0  0  0
  -30.7475  -20.4332   19.2023 C   0  0  0  0  0  0
  -30.1397  -22.6884   19.1147 C   0  0  0  0  0  0
  -29.5981  -20.0926   19.9828 C   0  0  0  0  0  0
  -28.9738  -22.4571   19.8776 C   0  0  0  0  0  0
  -31.7701  -19.4456   18.6712 C   0  0  0  0  0  0
  -30.4664  -24.0454   18.5210 C   0  0  0  0  0  0
  -29.2116  -18.5784   20.3983 C   0  0  0  0  0  0
  -27.9164  -23.6441   20.0424 C   0  0  0  0  0  0
  -30.2522  -17.3138   20.3619 C   0  0  0  0  0  0
  -28.2658  -25.0556   20.7594 C   0  0  0  0  0  0
  -31.0073  -21.7029   18.8018 N   0  0  0  0  0  0
  -28.7251  -21.1450   20.3076 N   0  0  0  0  0  0
  -29.8345  -15.8673   20.6454 N   0  0  0  0  0  0
  -31.4703  -12.5384   19.1814 H   0  0  0  0  0  0
  -30.3280  -11.4596   19.9313 H   0  0  0  0  0  0
  -29.7734  -11.7558   17.5068 H   0  0  0  0  0  0
  -29.6536  -13.4801   17.7144 H   0  0  0  0  0  0
  -27.8827  -11.3149   18.9038 H   0  0  0  0  0  0
  -27.3686  -12.5717   17.8093 H   0  0  0  0  0  0
  -27.6387  -14.2748   19.5117 H   0  0  0  0  0  0
  -28.7215  -12.1471   21.4142 H   0  0  0  0  0  0
  -28.4452  -13.8180   21.8310 H   0  0  0  0  0  0
  -25.2740   -9.5672   22.4773 H   0  0  0  0  0  0
  -24.0006   -7.4601   22.7479 H   0  0  0  0  0  0
  -21.0829   -8.8658   19.8956 H   0  0  0  0  0  0
  -22.3604  -10.9613   19.6176 H   0  0  0  0  0  0
  -21.1928   -7.6107   23.9658 H   0  0  0  0  0  0
  -21.1565   -6.0536   25.9081 H   0  0  0  0  0  0
  -22.0582   -2.7560   23.2902 H   0  0  0  0  0  0
  -22.4129  -11.9772   22.4806 H   0  0  0  0  0  0
  -21.1084  -13.1097   22.2725 H   0  0  0  0  0  0
  -24.6594  -15.8543   20.5119 H   0  0  0  0  0  0
  -26.2701  -15.6164   20.0632 H   0  0  0  0  0  0
  -26.7172  -32.5372   23.1078 H   0  0  0  0  0  0
  -25.0005  -33.9702   25.0370 H   0  0  0  0  0  0
  -22.7203  -31.2945   21.3883 H   0  0  0  0  0  0
  -23.3747  -35.9630   23.3285 H   0  0  0  0  0  0
  -24.3584  -36.8962   22.2071 H   0  0  0  0  0  0
  -23.7242  -37.6493   23.6694 H   0  0  0  0  0  0
  -26.1029  -31.5285   20.5943 H   0  0  0  0  0  0
  -26.8521  -30.8283   21.9953 H   0  0  0  0  0  0
  -28.1382  -28.9544   21.1442 H   0  0  0  0  0  0
  -25.9794  -25.8723   19.0486 H   0  0  0  0  0  0
  -23.9636  -27.2820   19.0339 H   0  0  0  0  0  0
  -23.7604  -30.5764   19.3992 H   0  0  0  0  0  0
  -22.7636  -29.2279   19.8595 H   0  0  0  0  0  0
  -25.1266  -36.1934   25.0821 H   0  0  0  0  0  0
  -20.9943  -28.3304   24.1382 H   0  0  0  0  0  0
  -20.5683  -26.2321   23.3607 H   0  0  0  0  0  0
  -21.6651  -26.7468   22.1200 H   0  0  0  0  0  0
  -19.6969  -25.6301   21.1225 H   0  0  0  0  0  0
  -19.6721  -27.3199   20.6734 H   0  0  0  0  0  0
  -17.4209  -26.6631   21.3999 H   0  0  0  0  0  0
  -18.0364  -26.0057   22.8998 H   0  0  0  0  0  0
  -19.7935  -30.7261   24.2244 H   0  0  0  0  0  0
  -17.5014  -31.6261   24.5172 H   0  0  0  0  0  0
  -15.5354  -30.2985   23.7676 H   0  0  0  0  0  0
  -15.8641  -28.0826   22.7079 H   0  0  0  0  0  0
  -24.6007  -30.6913   25.7773 H   0  0  0  0  0  0
  -24.8899  -32.2776   26.4855 H   0  0  0  0  0  0
  -25.8141  -30.8853   27.0219 H   0  0  0  0  0  0
  -26.2947  -29.6639   24.1292 H   0  0  0  0  0  0
  -27.4098  -29.7247   25.4730 H   0  0  0  0  0  0
  -27.8798  -30.4171   23.9396 H   0  0  0  0  0  0
  -27.2719  -33.3629   26.1988 H   0  0  0  0  0  0
  -28.3928  -32.6783   25.0322 H   0  0  0  0  0  0
  -28.0703  -31.8448   26.5446 H   0  0  0  0  0  0
  -28.2559  -38.0108   24.7525 H   0  0  0  0  0  0
  -28.1101  -36.2645   24.6257 H   0  0  0  0  0  0
  -27.2306  -37.1398   25.8865 H   0  0  0  0  0  0
  -20.9398  -29.8697   21.6762 H   0  0  0  0  0  0
  -26.0167  -38.2832   24.1425 H   0  0  0  0  0  0
  -32.2896  -18.9259   19.4752 H   0  0  0  0  0  0
  -32.5343  -19.9438   18.0731 H   0  0  0  0  0  0
  -31.2923  -18.7354   17.9999 H   0  0  0  0  0  0
  -29.5963  -24.4671   18.0193 H   0  0  0  0  0  0
  -31.2653  -23.9672   17.7835 H   0  0  0  0  0  0
  -30.7945  -24.7339   19.2984 H   0  0  0  0  0  0
  -28.3645  -18.3202   19.7610 H   0  0  0  0  0  0
  -28.7978  -18.6306   21.4067 H   0  0  0  0  0  0
  -27.0609  -23.2161   20.5687 H   0  0  0  0  0  0
  -27.5217  -23.8650   19.0518 H   0  0  0  0  0  0
  -31.0895  -17.5309   21.0240 H   0  0  0  0  0  0
  -30.6566  -17.2369   19.3583 H   0  0  0  0  0  0
  -29.2327  -24.9288   21.2486 H   0  0  0  0  0  0
  -27.5644  -25.1562   21.5898 H   0  0  0  0  0  0
  -28.8740  -15.7109   20.9128 H   0  0  0  0  0  0
  1 25  1  0  0  0
  1 30  2  0  0  0
  1 83  1  0  0  0
  2  3  1  0  0  0
  2 25  1  0  0  0
  2 84  1  0  0  0
  2 85  1  0  0  0
  3  4  1  0  0  0
  3 86  1  0  0  0
  3 87  1  0  0  0
  4  5  1  0  0  0
  4 88  1  0  0  0
  4 89  1  0  0  0
  5  6  1  0  0  0
  5 26  1  0  0  0
  5 90  1  0  0  0
  6 25  1  0  0  0
  6 91  1  0  0  0
  6 92  1  0  0  0
  7  8  2  0  0  0
  7 26  1  0  0  0
  7 29  1  0  0  0
  8  9  1  0  0  0
  8 22  1  0  0  0
  9 10  1  0  0  0
  9 27  2  0  0  0
 10 11  2  0  0  0
 10 15  1  0  0  0
 11 12  1  0  0  0
 11 93  1  0  0  0
 12 13  2  0  0  0
 12 94  1  0  0  0
 13 14  1  0  0  0
 13 31  1  0  0  0
 14 15  2  0  0  0
 14 95  1  0  0  0
 15 96  1  0  0  0
 16 17  2  0  0  0
 16 21  1  0  0  0
 16 31  1  0  0  0
 17 18  1  0  0  0
 17 97  1  0  0  0
 18 19  2  0  0  0
 18 98  1  0  0  0
 19 20  1  0  0  0
 19 24  1  0  0  0
 20 21  2  0  0  0
 20 99  1  0  0  0
 21 23  1  0  0  0
 22 28  1  0  0  0
 22 32  2  0  0  0
 26 27  1  0  0  0
 28100  1  0  0  0
 28101  1  0  0  0
 29102  1  0  0  0
 29103  1  0  0  0
 33 34  1  0  0  0
 33 66  1  0  0  0
 33 70  2  0  0  0
 34 36  1  0  0  0
 34 59  1  0  0  0
 34104  1  0  0  0
 35 44  2  0  0  0
 35 45  1  0  0  0
 35 68  1  0  0  0
 36 56  1  0  0  0
 36105  1  0  0  0
 37 39  1  0  0  0
 37 47  1  0  0  0
 37 66  1  0  0  0
 37106  1  0  0  0
 38 43  2  0  0  0
 38 46  1  0  0  0
 38 47  1  0  0  0
 39 64  1  0  0  0
 39 67  2  0  0  0
 40 52  1  0  0  0
 40 53  2  0  0  0
 40 58  1  0  0  0
 41107  1  0  0  0
 41108  1  0  0  0
 41109  1  0  0  0
 41 48  1  0  0  0
 42 43  1  0  0  0
 42 66  1  0  0  0
 42110  1  0  0  0
 42111  1  0  0  0
 43 44  1  0  0  0
 44112  1  0  0  0
 45 46  2  0  0  0
 45113  1  0  0  0
 46114  1  0  0  0
 47115  1  0  0  0
 47116  1  0  0  0
 48 56  1  0  0  0
 48 65  1  0  0  0
 48117  1  0  0  0
 49 50  1  0  0  0
 49 53  1  0  0  0
 49 64  1  0  0  0
 49118  1  0  0  0
 50 51  1  0  0  0
 50119  1  0  0  0
 50120  1  0  0  0
 51 52  1  0  0  0
 51121  1  0  0  0
 51122  1  0  0  0
 52123  1  0  0  0
 52124  1  0  0  0
 53 54  1  0  0  0
 54 55  2  0  0  0
 54125  1  0  0  0
 55 57  1  0  0  0
 55126  1  0  0  0
 56 69  2  0  0  0
 57 58  2  0  0  0
 57127  1  0  0  0
 58128  1  0  0  0
 59 60  1  0  0  0
 59 61  1  0  0  0
 59 62  1  0  0  0
 60129  1  0  0  0
 60130  1  0  0  0
 60131  1  0  0  0
 61132  1  0  0  0
 61133  1  0  0  0
 61134  1  0  0  0
 62135  1  0  0  0
 62136  1  0  0  0
 62137  1  0  0  0
 63 65  1  0  0  0
 63138  1  0  0  0
 63139  1  0  0  0
 63140  1  0  0  0
 64141  1  0  0  0
 65142  1  0  0  0
 68 80  1  0  0  0
 71 73  2  0  0  0
 71 75  1  0  0  0
 71 81  1  0  0  0
 72 74  1  0  0  0
 72 76  1  0  0  0
 72 81  2  0  0  0
 73 77  1  0  0  0
 73 82  1  0  0  0
 74 78  1  0  0  0
 74 82  2  0  0  0
 75143  1  0  0  0
 75144  1  0  0  0
 75145  1  0  0  0
 76146  1  0  0  0
 76147  1  0  0  0
 76148  1  0  0  0
 77 79  1  0  0  0
 77149  1  0  0  0
 77150  1  0  0  0
 78 80  1  0  0  0
 78151  1  0  0  0
 78152  1  0  0  0
 79 83  1  0  0  0
 79153  1  0  0  0
 79154  1  0  0  0
 80155  1  0  0  0
 80156  1  0  0  0
 83157  1  0  0  0
M  ISO  4   1 100  68 101  80 101  83 100
M  END
> <chiral flag>
0

> <version>
0

> <s_m_source_file>
/data/baiqing/PycharmProjects/Reinvent-master-3.2/result/LINK_invent/BTK/process_docking_weight1_custom_sum_contain_oxygen_bond_distance_aromatic_linkinvent_7_9_3/rearranged_h_0047.sdf

> <i_m_source_file_index>
16

> <r_mmod_Potential_Energy-OPLS-2005>
193.148422241211

> <r_mmod_Stretch_Energy-OPLS-2005>
136.470520019531

> <r_mmod_Bend_Energy-OPLS-2005>
194.281158447266

> <r_mmod_Torsional_Energy-OPLS-2005>
233.308898925781

> <r_mmod_Improper_Torsional_Energy-OPLS-2005>
6.54612398147583

> <r_mmod_Van_der_Waal_Energy-OPLS-2005>
140.969573974609

> <r_mmod_Electrostatic_Energy-OPLS-2005>
-365.847381591797

> <r_mmod_Solvation_Energy-OPLS-2005>
-228.303726196289

> <b_mmod_Minimization_Converged-OPLS-2005>
0

> <r_mmod_RMS_Derivative-OPLS-2005>
3.86537933349609

$$$$
16
                    3D
 Structure written by MMmdl.
155163  0  0  1  0            999 V2000
  -30.6862  -14.6046   20.5404 C   0  0  0  0  0  0
  -30.4234  -12.3844   19.4481 C   0  0  0  0  0  0
  -29.4965  -12.5020   18.2210 C   0  0  0  0  0  0
  -28.0230  -12.3407   18.6385 C   0  0  0  0  0  0
  -27.6481  -13.2240   19.8582 C   0  0  2  0  0  0
  -28.6936  -13.1009   20.9892 C   0  0  0  0  0  0
  -25.2532  -13.8204   20.5690 C   0  0  0  0  0  0
  -24.1820  -13.0451   20.9204 C   0  0  0  0  0  0
  -24.6401  -11.6923   20.8764 C   0  0  0  0  0  0
  -23.9074  -10.4297   21.0411 C   0  0  0  0  0  0
  -24.3623   -9.4208   21.9182 C   0  0  0  0  0  0
  -23.6296   -8.2248   22.0760 C   0  0  0  0  0  0
  -22.4276   -8.0290   21.3553 C   0  0  0  0  0  0
  -21.9909   -9.0262   20.4654 C   0  0  0  0  0  0
  -22.7244  -10.2136   20.3060 C   0  0  0  0  0  0
  -21.6853   -6.0738   22.5280 C   0  0  0  0  0  0
  -21.4016   -6.5641   23.8216 C   0  0  0  0  0  0
  -21.3671   -5.6791   24.9177 C   0  0  0  0  0  0
  -21.6047   -4.3055   24.7218 C   0  0  0  0  0  0
  -21.8815   -3.8148   23.4337 C   0  0  0  0  0  0
  -21.9188   -4.6966   22.3395 C   0  0  0  0  0  0
  -22.7834  -13.5226   21.1855 C   0  0  0  0  0  0
  -22.1656   -4.2159   21.0968 F   0  0  0  0  0  0
  -21.5632   -3.4534   25.7726 F   0  0  0  0  0  0
  -30.0084  -13.4208   20.4159 N   0  0  0  0  0  0
  -26.2969  -12.9402   20.3319 N   0  0  0  0  0  0
  -25.9334  -11.6542   20.5784 N   0  0  0  0  0  0
  -22.0469  -12.8242   22.0418 N   0  0  0  0  0  0
  -25.4212  -15.1934   20.4095 N   0  0  0  0  0  0
  -31.8493  -14.7144   20.1476 O   0  0  0  0  0  0
  -21.6648   -6.8885   21.4246 O   0  0  0  0  0  0
  -22.3503  -14.5503   20.6660 O   0  0  0  0  0  0
  -24.6240  -31.8630   23.2054 C   0  0  0  0  0  0
  -25.9098  -32.4802   23.8375 C   0  0  1  0  0  0
  -27.2169  -27.3278   20.1219 C   0  0  0  0  0  0
  -25.5923  -33.8600   24.2312 N   0  0  0  0  0  0
  -23.4171  -30.4879   21.5491 C   0  0  2  0  0  0
  -24.8654  -28.9582   20.1063 C   0  0  0  0  0  0
  -22.7472  -29.4618   22.4948 C   0  0  0  0  0  0
  -18.0281  -28.1365   22.8497 C   0  0  0  0  0  0
  -24.1491  -36.7288   23.2634 C   0  0  0  0  0  0
  -25.9594  -30.7982   21.3798 C   0  0  0  0  0  0
  -26.0342  -29.4295   20.7180 C   0  0  0  0  0  0
  -27.2121  -28.6254   20.7214 C   0  0  0  0  0  0
  -26.0312  -26.9276   19.4577 C   0  0  0  0  0  0
  -24.8664  -27.7133   19.4654 C   0  0  0  0  0  0
  -23.6313  -29.8331   20.1605 C   0  0  0  0  0  0
  -25.4110  -36.3094   24.0338 C   0  0  1  0  0  0
  -20.5885  -28.3650   23.1304 C   0  0  2  0  0  0
  -20.6783  -26.9375   22.5419 C   0  0  0  0  0  0
  -19.5749  -26.6359   21.5232 C   0  0  0  0  0  0
  -18.1920  -26.7907   22.1635 C   0  0  0  0  0  0
  -19.1537  -28.8828   23.2895 C   0  0  0  0  0  0
  -18.9456  -30.1444   23.8886 C   0  0  0  0  0  0
  -17.6452  -30.6572   24.0553 C   0  0  0  0  0  0
  -25.9041  -34.9465   23.5123 C   0  0  0  0  0  0
  -16.5344  -29.9059   23.6337 C   0  0  0  0  0  0
  -16.7266  -28.6485   23.0347 C   0  0  0  0  0  0
  -26.4480  -31.6593   25.0732 C   0  0  0  0  0  0
  -25.3709  -31.3743   26.1454 C   0  0  0  0  0  0
  -27.0335  -30.3016   24.6187 C   0  0  0  0  0  0
  -27.6051  -32.4314   25.7497 C   0  0  0  0  0  0
  -27.5591  -37.1789   24.8453 C   0  0  0  0  0  0
  -21.4186  -29.3016   22.3704 N   0  0  0  0  0  0
  -26.4289  -37.3788   23.9422 N   0  0  0  0  0  0
  -24.6852  -31.0651   22.1012 N   0  0  0  0  0  0
  -23.4210  -28.8148   23.3007 O   0  0  0  0  0  0
  -28.3178  -26.4560   20.2119 O   0  0  0  0  0  0
  -26.5600  -34.8930   22.4680 O   0  0  0  0  0  0
  -23.5406  -32.1436   23.7380 O   0  0  0  0  0  0
  -28.2692  -20.0914   20.9518 C   0  0  0  0  0  0
  -28.6920  -18.7640   21.2332 C   0  0  0  0  0  0
  -29.1625  -21.0462   20.3959 C   0  0  0  0  0  0
  -30.0209  -18.3765   20.9660 C   0  0  0  0  0  0
  -30.4788  -20.5650   20.1637 C   0  0  0  0  0  0
  -31.5363  -21.4451   19.5261 C   0  0  0  0  0  0
  -28.6146  -22.4296   19.8765 C   0  0  0  0  0  0
  -30.6211  -16.9971   21.3980 C   0  0  0  0  0  0
  -28.9830  -23.8445   20.5081 C   0  0  0  0  0  0
  -28.0717  -25.0196   19.9441 C   0  0  0  0  0  0
  -30.8829  -19.2899   20.4470 N   0  0  0  0  0  0
  -30.0031  -15.6947   20.9905 N   0  0  0  0  0  0
  -31.4651  -12.4922   19.1414 H   0  0  0  0  0  0
  -30.3459  -11.3937   19.8972 H   0  0  0  0  0  0
  -29.7566  -11.7505   17.4741 H   0  0  0  0  0  0
  -29.6410  -13.4725   17.7456 H   0  0  0  0  0  0
  -27.8651  -11.2894   18.8824 H   0  0  0  0  0  0
  -27.3646  -12.5563   17.7959 H   0  0  0  0  0  0
  -27.6618  -14.2550   19.5044 H   0  0  0  0  0  0
  -28.7019  -12.0924   21.4023 H   0  0  0  0  0  0
  -28.4451  -13.7641   21.8189 H   0  0  0  0  0  0
  -25.2765   -9.5694   22.4755 H   0  0  0  0  0  0
  -24.0015   -7.4642   22.7472 H   0  0  0  0  0  0
  -21.0841   -8.8768   19.8963 H   0  0  0  0  0  0
  -22.3692  -10.9672   19.6172 H   0  0  0  0  0  0
  -21.2010   -7.6149   23.9724 H   0  0  0  0  0  0
  -21.1507   -6.0518   25.9083 H   0  0  0  0  0  0
  -22.0583   -2.7611   23.2823 H   0  0  0  0  0  0
  -22.4066  -11.9921   22.4852 H   0  0  0  0  0  0
  -21.1090  -13.1291   22.2603 H   0  0  0  0  0  0
  -24.6462  -15.8405   20.5117 H   0  0  0  0  0  0
  -26.2644  -15.6389   20.0700 H   0  0  0  0  0  0
  -26.7162  -32.5483   23.1130 H   0  0  0  0  0  0
  -25.0106  -33.9758   25.0477 H   0  0  0  0  0  0
  -22.7099  -31.3081   21.4112 H   0  0  0  0  0  0
  -23.3780  -35.9590   23.3258 H   0  0  0  0  0  0
  -24.3602  -36.8931   22.2055 H   0  0  0  0  0  0
  -23.7206  -37.6465   23.6670 H   0  0  0  0  0  0
  -26.0963  -31.5693   20.6199 H   0  0  0  0  0  0
  -26.8366  -30.8390   22.0133 H   0  0  0  0  0  0
  -28.1029  -28.9790   21.2219 H   0  0  0  0  0  0
  -25.9656  -25.9877   18.9316 H   0  0  0  0  0  0
  -23.9754  -27.3558   18.9680 H   0  0  0  0  0  0
  -23.7444  -30.6150   19.4081 H   0  0  0  0  0  0
  -22.7541  -29.2587   19.8569 H   0  0  0  0  0  0
  -25.1288  -36.1950   25.0830 H   0  0  0  0  0  0
  -20.9980  -28.3200   24.1425 H   0  0  0  0  0  0
  -20.5712  -26.2238   23.3603 H   0  0  0  0  0  0
  -21.6644  -26.7416   22.1194 H   0  0  0  0  0  0
  -19.6901  -25.6272   21.1247 H   0  0  0  0  0  0
  -19.6696  -27.3196   20.6784 H   0  0  0  0  0  0
  -17.4207  -26.6674   21.4018 H   0  0  0  0  0  0
  -18.0292  -26.0045   22.9027 H   0  0  0  0  0  0
  -19.7931  -30.7278   24.2233 H   0  0  0  0  0  0
  -17.4998  -31.6256   24.5145 H   0  0  0  0  0  0
  -15.5341  -30.2947   23.7670 H   0  0  0  0  0  0
  -15.8670  -28.0804   22.7041 H   0  0  0  0  0  0
  -24.5883  -30.7094   25.7773 H   0  0  0  0  0  0
  -24.8910  -32.2925   26.4853 H   0  0  0  0  0  0
  -25.8020  -30.8929   27.0239 H   0  0  0  0  0  0
  -26.2923  -29.6756   24.1205 H   0  0  0  0  0  0
  -27.4027  -29.7277   25.4690 H   0  0  0  0  0  0
  -27.8790  -30.4296   23.9428 H   0  0  0  0  0  0
  -27.2673  -33.3606   26.2097 H   0  0  0  0  0  0
  -28.3854  -32.6874   25.0318 H   0  0  0  0  0  0
  -28.0727  -31.8419   26.5392 H   0  0  0  0  0  0
  -28.2570  -38.0126   24.7572 H   0  0  0  0  0  0
  -28.1132  -36.2662   24.6195 H   0  0  0  0  0  0
  -27.2319  -37.1326   25.8856 H   0  0  0  0  0  0
  -20.9342  -29.8761   21.6949 H   0  0  0  0  0  0
  -26.0169  -38.2850   24.1471 H   0  0  0  0  0  0
  -27.2398  -20.3652   21.1358 H   0  0  0  0  0  0
  -28.0006  -18.0592   21.6720 H   0  0  0  0  0  0
  -31.2240  -21.7501   18.5279 H   0  0  0  0  0  0
  -32.4892  -20.9227   19.4303 H   0  0  0  0  0  0
  -31.7076  -22.3397   20.1247 H   0  0  0  0  0  0
  -27.5265  -22.3453   19.8969 H   0  0  0  0  0  0
  -28.8535  -22.4780   18.8125 H   0  0  0  0  0  0
  -30.6116  -16.9936   22.4881 H   0  0  0  0  0  0
  -31.6818  -17.0017   21.1424 H   0  0  0  0  0  0
  -30.0320  -24.0719   20.3250 H   0  0  0  0  0  0
  -28.8601  -23.8052   21.5911 H   0  0  0  0  0  0
  -27.0784  -24.7646   20.3155 H   0  0  0  0  0  0
  -28.0366  -24.9133   18.8596 H   0  0  0  0  0  0
  -29.0251  -15.5745   21.2038 H   0  0  0  0  0  0
  1 25  1  0  0  0
  1 30  2  0  0  0
  1 82  1  0  0  0
  2  3  1  0  0  0
  2 25  1  0  0  0
  2 83  1  0  0  0
  2 84  1  0  0  0
  3  4  1  0  0  0
  3 85  1  0  0  0
  3 86  1  0  0  0
  4  5  1  0  0  0
  4 87  1  0  0  0
  4 88  1  0  0  0
  5  6  1  0  0  0
  5 26  1  0  0  0
  5 89  1  0  0  0
  6 25  1  0  0  0
  6 90  1  0  0  0
  6 91  1  0  0  0
  7  8  2  0  0  0
  7 26  1  0  0  0
  7 29  1  0  0  0
  8  9  1  0  0  0
  8 22  1  0  0  0
  9 10  1  0  0  0
  9 27  2  0  0  0
 10 11  2  0  0  0
 10 15  1  0  0  0
 11 12  1  0  0  0
 11 92  1  0  0  0
 12 13  2  0  0  0
 12 93  1  0  0  0
 13 14  1  0  0  0
 13 31  1  0  0  0
 14 15  2  0  0  0
 14 94  1  0  0  0
 15 95  1  0  0  0
 16 17  2  0  0  0
 16 21  1  0  0  0
 16 31  1  0  0  0
 17 18  1  0  0  0
 17 96  1  0  0  0
 18 19  2  0  0  0
 18 97  1  0  0  0
 19 20  1  0  0  0
 19 24  1  0  0  0
 20 21  2  0  0  0
 20 98  1  0  0  0
 21 23  1  0  0  0
 22 28  1  0  0  0
 22 32  2  0  0  0
 26 27  1  0  0  0
 28 99  1  0  0  0
 28100  1  0  0  0
 29101  1  0  0  0
 29102  1  0  0  0
 33 34  1  0  0  0
 33 66  1  0  0  0
 33 70  2  0  0  0
 34 36  1  0  0  0
 34 59  1  0  0  0
 34103  1  0  0  0
 35 44  2  0  0  0
 35 45  1  0  0  0
 35 68  1  0  0  0
 36 56  1  0  0  0
 36104  1  0  0  0
 37 39  1  0  0  0
 37 47  1  0  0  0
 37 66  1  0  0  0
 37105  1  0  0  0
 38 43  2  0  0  0
 38 46  1  0  0  0
 38 47  1  0  0  0
 39 64  1  0  0  0
 39 67  2  0  0  0
 40 52  1  0  0  0
 40 53  2  0  0  0
 40 58  1  0  0  0
 41106  1  0  0  0
 41107  1  0  0  0
 41108  1  0  0  0
 41 48  1  0  0  0
 42 43  1  0  0  0
 42 66  1  0  0  0
 42109  1  0  0  0
 42110  1  0  0  0
 43 44  1  0  0  0
 44111  1  0  0  0
 45 46  2  0  0  0
 45112  1  0  0  0
 46113  1  0  0  0
 47114  1  0  0  0
 47115  1  0  0  0
 48 56  1  0  0  0
 48 65  1  0  0  0
 48116  1  0  0  0
 49 50  1  0  0  0
 49 53  1  0  0  0
 49 64  1  0  0  0
 49117  1  0  0  0
 50 51  1  0  0  0
 50118  1  0  0  0
 50119  1  0  0  0
 51 52  1  0  0  0
 51120  1  0  0  0
 51121  1  0  0  0
 52122  1  0  0  0
 52123  1  0  0  0
 53 54  1  0  0  0
 54 55  2  0  0  0
 54124  1  0  0  0
 55 57  1  0  0  0
 55125  1  0  0  0
 56 69  2  0  0  0
 57 58  2  0  0  0
 57126  1  0  0  0
 58127  1  0  0  0
 59 60  1  0  0  0
 59 61  1  0  0  0
 59 62  1  0  0  0
 60128  1  0  0  0
 60129  1  0  0  0
 60130  1  0  0  0
 61131  1  0  0  0
 61132  1  0  0  0
 61133  1  0  0  0
 62134  1  0  0  0
 62135  1  0  0  0
 62136  1  0  0  0
 63 65  1  0  0  0
 63137  1  0  0  0
 63138  1  0  0  0
 63139  1  0  0  0
 64140  1  0  0  0
 65141  1  0  0  0
 68 80  1  0  0  0
 71 72  2  0  0  0
 71 73  1  0  0  0
 71142  1  0  0  0
 72 74  1  0  0  0
 72143  1  0  0  0
 73 75  2  0  0  0
 73 77  1  0  0  0
 74 78  1  0  0  0
 74 81  2  0  0  0
 75 76  1  0  0  0
 75 81  1  0  0  0
 76144  1  0  0  0
 76145  1  0  0  0
 76146  1  0  0  0
 77 79  1  0  0  0
 77147  1  0  0  0
 77148  1  0  0  0
 78 82  1  0  0  0
 78149  1  0  0  0
 78150  1  0  0  0
 79 80  1  0  0  0
 79151  1  0  0  0
 79152  1  0  0  0
 80153  1  0  0  0
 80154  1  0  0  0
 82155  1  0  0  0
M  ISO  4   1 100  68 101  80 101  82 100
M  END
> <chiral flag>
0

> <version>
0

> <s_m_source_file>
/data/baiqing/PycharmProjects/Reinvent-master-3.2/result/LINK_invent/BTK/process_docking_weight1_custom_sum_contain_oxygen_bond_distance_aromatic_linkinvent_7_9_3/rearranged_h_0047.sdf

> <i_m_source_file_index>
17

> <r_mmod_Potential_Energy-OPLS-2005>
-229.258911132812

> <r_mmod_Stretch_Energy-OPLS-2005>
72.9674987792969

> <r_mmod_Bend_Energy-OPLS-2005>
144.089874267578

> <r_mmod_Torsional_Energy-OPLS-2005>
200.872802734375

> <r_mmod_Improper_Torsional_Energy-OPLS-2005>
4.72208786010742

> <r_mmod_Van_der_Waal_Energy-OPLS-2005>
153.08332824707

> <r_mmod_Electrostatic_Energy-OPLS-2005>
-622.81640625

> <r_mmod_Solvation_Energy-OPLS-2005>
-228.694534301758

> <b_mmod_Minimization_Converged-OPLS-2005>
0

> <r_mmod_RMS_Derivative-OPLS-2005>
2.15413665771484

$$$$
17
                    3D
 Structure written by MMmdl.
161169  0  0  1  0            999 V2000
  -30.7384  -14.3971   20.6203 C   0  0  0  0  0  0
  -30.4230  -12.2745   19.4166 C   0  0  0  0  0  0
  -29.4971  -12.5213   18.2085 C   0  0  0  0  0  0
  -28.0158  -12.3948   18.6152 C   0  0  0  0  0  0
  -27.6730  -13.2073   19.8923 C   0  0  2  0  0  0
  -28.7115  -12.9427   21.0078 C   0  0  0  0  0  0
  -25.2627  -13.8172   20.5700 C   0  0  0  0  0  0
  -24.1864  -13.0442   20.9167 C   0  0  0  0  0  0
  -24.6421  -11.6913   20.8739 C   0  0  0  0  0  0
  -23.9088  -10.4298   21.0408 C   0  0  0  0  0  0
  -24.3633   -9.4210   21.9190 C   0  0  0  0  0  0
  -23.6297   -8.2250   22.0758 C   0  0  0  0  0  0
  -22.4280   -8.0292   21.3541 C   0  0  0  0  0  0
  -21.9929   -9.0272   20.4644 C   0  0  0  0  0  0
  -22.7270  -10.2145   20.3051 C   0  0  0  0  0  0
  -21.6848   -6.0748   22.5282 C   0  0  0  0  0  0
  -21.4016   -6.5649   23.8222 C   0  0  0  0  0  0
  -21.3659   -5.6794   24.9177 C   0  0  0  0  0  0
  -21.6043   -4.3056   24.7226 C   0  0  0  0  0  0
  -21.8816   -3.8155   23.4346 C   0  0  0  0  0  0
  -21.9196   -4.6975   22.3401 C   0  0  0  0  0  0
  -22.7885  -13.5246   21.1832 C   0  0  0  0  0  0
  -22.1658   -4.2163   21.0972 F   0  0  0  0  0  0
  -21.5633   -3.4536   25.7737 F   0  0  0  0  0  0
  -30.0555  -13.2316   20.4707 N   0  0  0  0  0  0
  -26.3087  -12.9345   20.3442 N   0  0  0  0  0  0
  -25.9353  -11.6500   20.5791 N   0  0  0  0  0  0
  -22.0514  -12.8225   22.0373 N   0  0  0  0  0  0
  -25.4352  -15.1882   20.4106 N   0  0  0  0  0  0
  -31.8091  -14.6347   20.0545 O   0  0  0  0  0  0
  -21.6634   -6.8896   21.4246 O   0  0  0  0  0  0
  -22.3571  -14.5559   20.6696 O   0  0  0  0  0  0
  -24.6134  -31.8719   23.2160 C   0  0  0  0  0  0
  -25.9036  -32.4849   23.8432 C   0  0  1  0  0  0
  -27.2153  -27.4357   20.0767 C   0  0  0  0  0  0
  -25.5885  -33.8643   24.2347 N   0  0  0  0  0  0
  -23.3996  -30.5029   21.5582 C   0  0  2  0  0  0
  -24.8412  -28.9879   20.1043 C   0  0  0  0  0  0
  -22.7407  -29.4682   22.4998 C   0  0  0  0  0  0
  -18.0265  -28.1379   22.8476 C   0  0  0  0  0  0
  -24.1485  -36.7329   23.2635 C   0  0  0  0  0  0
  -25.9327  -30.8377   21.3703 C   0  0  0  0  0  0
  -26.0065  -29.4768   20.7089 C   0  0  0  0  0  0
  -27.1958  -28.7077   20.6988 C   0  0  0  0  0  0
  -26.0346  -26.9980   19.4202 C   0  0  0  0  0  0
  -24.8512  -27.7460   19.4574 C   0  0  0  0  0  0
  -23.6048  -29.8511   20.1676 C   0  0  0  0  0  0
  -25.4108  -36.3131   24.0334 C   0  0  1  0  0  0
  -20.5850  -28.3657   23.1290 C   0  0  2  0  0  0
  -20.6752  -26.9391   22.5394 C   0  0  0  0  0  0
  -19.5728  -26.6395   21.5189 C   0  0  0  0  0  0
  -18.1912  -26.7923   22.1613 C   0  0  0  0  0  0
  -19.1516  -28.8831   23.2878 C   0  0  0  0  0  0
  -18.9449  -30.1436   23.8891 C   0  0  0  0  0  0
  -17.6463  -30.6577   24.0554 C   0  0  0  0  0  0
  -25.9029  -34.9486   23.5140 C   0  0  0  0  0  0
  -16.5343  -29.9088   23.6331 C   0  0  0  0  0  0
  -16.7257  -28.6510   23.0326 C   0  0  0  0  0  0
  -26.4456  -31.6605   25.0738 C   0  0  0  0  0  0
  -25.3705  -31.3674   26.1461 C   0  0  0  0  0  0
  -27.0276  -30.3053   24.6078 C   0  0  0  0  0  0
  -27.6034  -32.4310   25.7513 C   0  0  0  0  0  0
  -27.5588  -37.1813   24.8462 C   0  0  0  0  0  0
  -21.4138  -29.3043   22.3728 N   0  0  0  0  0  0
  -26.4308  -37.3805   23.9396 N   0  0  0  0  0  0
  -24.6680  -31.0829   22.1065 N   0  0  0  0  0  0
  -23.4179  -28.8179   23.3004 O   0  0  0  0  0  0
  -28.3449  -26.6312   20.1459 O   0  0  0  0  0  0
  -26.5610  -34.8935   22.4715 O   0  0  0  0  0  0
  -23.5330  -32.1460   23.7556 O   0  0  0  0  0  0
  -30.1798  -21.4210   21.4791 C   0  0  0  0  0  0
  -30.6845  -20.1601   21.8608 C   0  0  0  0  0  0
  -28.7955  -21.5591   21.2371 C   0  0  0  0  0  0
  -29.7884  -19.0836   21.9999 C   0  0  0  0  0  0
  -27.9761  -20.4157   21.4188 C   0  0  0  0  0  0
  -25.7032  -20.6736   22.5169 C   0  0  0  0  0  0
  -28.1631  -22.8612   20.7453 C   0  0  0  0  0  0
  -30.2337  -17.6618   22.3195 C   0  0  0  0  0  0
  -26.4667  -20.4207   21.2094 C   0  0  0  0  0  0
  -28.9713  -24.1874   20.7027 C   0  0  0  0  0  0
  -30.2397  -16.7820   21.0536 C   0  0  0  0  0  0
  -28.0695  -25.2244   19.9985 C   0  0  0  0  0  0
  -28.4643  -19.2229   21.8027 N   0  0  0  0  0  0
  -30.1001  -15.3440   21.3167 N   0  0  0  0  0  0
  -31.4686  -12.3659   19.1163 H   0  0  0  0  0  0
  -30.3112  -11.2534   19.7840 H   0  0  0  0  0  0
  -29.7257  -11.8187   17.4061 H   0  0  0  0  0  0
  -29.6840  -13.5178   17.8044 H   0  0  0  0  0  0
  -27.8034  -11.3383   18.7788 H   0  0  0  0  0  0
  -27.3745  -12.7094   17.7901 H   0  0  0  0  0  0
  -27.7328  -14.2633   19.6282 H   0  0  0  0  0  0
  -28.6666  -11.8986   21.3236 H   0  0  0  0  0  0
  -28.4749  -13.5189   21.9027 H   0  0  0  0  0  0
  -25.2780   -9.5678   22.4766 H   0  0  0  0  0  0
  -24.0003   -7.4641   22.7478 H   0  0  0  0  0  0
  -21.0870   -8.8807   19.8940 H   0  0  0  0  0  0
  -22.3752  -10.9689   19.6152 H   0  0  0  0  0  0
  -21.1999   -7.6156   23.9732 H   0  0  0  0  0  0
  -21.1483   -6.0518   25.9085 H   0  0  0  0  0  0
  -22.0595   -2.7621   23.2836 H   0  0  0  0  0  0
  -22.4109  -11.9860   22.4726 H   0  0  0  0  0  0
  -21.1135  -13.1261   22.2582 H   0  0  0  0  0  0
  -24.6773  -15.8505   20.5354 H   0  0  0  0  0  0
  -26.2989  -15.6276   20.1166 H   0  0  0  0  0  0
  -26.7092  -32.5561   23.1188 H   0  0  0  0  0  0
  -24.9962  -33.9825   25.0437 H   0  0  0  0  0  0
  -22.6870  -31.3202   21.4278 H   0  0  0  0  0  0
  -23.3747  -35.9666   23.3310 H   0  0  0  0  0  0
  -24.3562  -36.8945   22.2048 H   0  0  0  0  0  0
  -23.7252  -37.6544   23.6637 H   0  0  0  0  0  0
  -26.0422  -31.6046   20.6019 H   0  0  0  0  0  0
  -26.8246  -30.8889   21.9837 H   0  0  0  0  0  0
  -28.0881  -29.0726   21.1884 H   0  0  0  0  0  0
  -25.9894  -26.0655   18.8749 H   0  0  0  0  0  0
  -23.9629  -27.3717   18.9689 H   0  0  0  0  0  0
  -23.7034  -30.6321   19.4128 H   0  0  0  0  0  0
  -22.7282  -29.2714   19.8735 H   0  0  0  0  0  0
  -25.1279  -36.2023   25.0830 H   0  0  0  0  0  0
  -20.9927  -28.3229   24.1410 H   0  0  0  0  0  0
  -20.5636  -26.2273   23.3588 H   0  0  0  0  0  0
  -21.6626  -26.7446   22.1184 H   0  0  0  0  0  0
  -19.6894  -25.6313   21.1204 H   0  0  0  0  0  0
  -19.6665  -27.3218   20.6716 H   0  0  0  0  0  0
  -17.4177  -26.6642   21.4028 H   0  0  0  0  0  0
  -18.0314  -26.0084   22.9017 H   0  0  0  0  0  0
  -19.7938  -30.7230   24.2267 H   0  0  0  0  0  0
  -17.5031  -31.6256   24.5164 H   0  0  0  0  0  0
  -15.5347  -30.2984   23.7681 H   0  0  0  0  0  0
  -15.8649  -28.0854   22.7021 H   0  0  0  0  0  0
  -24.5908  -30.7002   25.7761 H   0  0  0  0  0  0
  -24.8836  -32.2796   26.4911 H   0  0  0  0  0  0
  -25.8042  -30.8832   27.0216 H   0  0  0  0  0  0
  -26.2777  -29.6805   24.1199 H   0  0  0  0  0  0
  -27.4120  -29.7309   25.4517 H   0  0  0  0  0  0
  -27.8590  -30.4383   23.9151 H   0  0  0  0  0  0
  -27.2669  -33.3616   26.2098 H   0  0  0  0  0  0
  -28.3847  -32.6861   25.0334 H   0  0  0  0  0  0
  -28.0675  -31.8410   26.5426 H   0  0  0  0  0  0
  -28.2599  -38.0118   24.7507 H   0  0  0  0  0  0
  -28.1094  -36.2644   24.6293 H   0  0  0  0  0  0
  -27.2274  -37.1449   25.8858 H   0  0  0  0  0  0
  -20.9307  -29.8847   21.7017 H   0  0  0  0  0  0
  -26.0208  -38.2883   24.1420 H   0  0  0  0  0  0
  -30.8539  -22.2548   21.3506 H   0  0  0  0  0  0
  -31.7453  -20.0220   22.0219 H   0  0  0  0  0  0
  -24.6269  -20.6650   22.3503 H   0  0  0  0  0  0
  -25.9673  -21.6411   22.9432 H   0  0  0  0  0  0
  -25.9321  -19.9087   23.2594 H   0  0  0  0  0  0
  -27.2831  -23.0319   21.3674 H   0  0  0  0  0  0
  -27.7885  -22.6593   19.7404 H   0  0  0  0  0  0
  -29.5521  -17.2503   23.0640 H   0  0  0  0  0  0
  -31.2215  -17.6699   22.7805 H   0  0  0  0  0  0
  -26.1656  -19.4528   20.8036 H   0  0  0  0  0  0
  -26.1732  -21.1441   20.4504 H   0  0  0  0  0  0
  -29.9071  -24.0765   20.1539 H   0  0  0  0  0  0
  -29.2181  -24.5153   21.7127 H   0  0  0  0  0  0
  -31.1191  -17.0204   20.4528 H   0  0  0  0  0  0
  -29.3813  -17.0428   20.4331 H   0  0  0  0  0  0
  -27.0831  -25.0233   20.4200 H   0  0  0  0  0  0
  -28.0127  -24.9896   18.9334 H   0  0  0  0  0  0
  -29.2581  -15.0484   21.7896 H   0  0  0  0  0  0
  1 25  1  0  0  0
  1 30  2  0  0  0
  1 84  1  0  0  0
  2  3  1  0  0  0
  2 25  1  0  0  0
  2 85  1  0  0  0
  2 86  1  0  0  0
  3  4  1  0  0  0
  3 87  1  0  0  0
  3 88  1  0  0  0
  4  5  1  0  0  0
  4 89  1  0  0  0
  4 90  1  0  0  0
  5  6  1  0  0  0
  5 26  1  0  0  0
  5 91  1  0  0  0
  6 25  1  0  0  0
  6 92  1  0  0  0
  6 93  1  0  0  0
  7  8  2  0  0  0
  7 26  1  0  0  0
  7 29  1  0  0  0
  8  9  1  0  0  0
  8 22  1  0  0  0
  9 10  1  0  0  0
  9 27  2  0  0  0
 10 11  2  0  0  0
 10 15  1  0  0  0
 11 12  1  0  0  0
 11 94  1  0  0  0
 12 13  2  0  0  0
 12 95  1  0  0  0
 13 14  1  0  0  0
 13 31  1  0  0  0
 14 15  2  0  0  0
 14 96  1  0  0  0
 15 97  1  0  0  0
 16 17  2  0  0  0
 16 21  1  0  0  0
 16 31  1  0  0  0
 17 18  1  0  0  0
 17 98  1  0  0  0
 18 19  2  0  0  0
 18 99  1  0  0  0
 19 20  1  0  0  0
 19 24  1  0  0  0
 20 21  2  0  0  0
 20100  1  0  0  0
 21 23  1  0  0  0
 22 28  1  0  0  0
 22 32  2  0  0  0
 26 27  1  0  0  0
 28101  1  0  0  0
 28102  1  0  0  0
 29103  1  0  0  0
 29104  1  0  0  0
 33 34  1  0  0  0
 33 66  1  0  0  0
 33 70  2  0  0  0
 34 36  1  0  0  0
 34 59  1  0  0  0
 34105  1  0  0  0
 35 44  2  0  0  0
 35 45  1  0  0  0
 35 68  1  0  0  0
 36 56  1  0  0  0
 36106  1  0  0  0
 37 39  1  0  0  0
 37 47  1  0  0  0
 37 66  1  0  0  0
 37107  1  0  0  0
 38 43  2  0  0  0
 38 46  1  0  0  0
 38 47  1  0  0  0
 39 64  1  0  0  0
 39 67  2  0  0  0
 40 52  1  0  0  0
 40 53  2  0  0  0
 40 58  1  0  0  0
 41108  1  0  0  0
 41109  1  0  0  0
 41110  1  0  0  0
 41 48  1  0  0  0
 42 43  1  0  0  0
 42 66  1  0  0  0
 42111  1  0  0  0
 42112  1  0  0  0
 43 44  1  0  0  0
 44113  1  0  0  0
 45 46  2  0  0  0
 45114  1  0  0  0
 46115  1  0  0  0
 47116  1  0  0  0
 47117  1  0  0  0
 48 56  1  0  0  0
 48 65  1  0  0  0
 48118  1  0  0  0
 49 50  1  0  0  0
 49 53  1  0  0  0
 49 64  1  0  0  0
 49119  1  0  0  0
 50 51  1  0  0  0
 50120  1  0  0  0
 50121  1  0  0  0
 51 52  1  0  0  0
 51122  1  0  0  0
 51123  1  0  0  0
 52124  1  0  0  0
 52125  1  0  0  0
 53 54  1  0  0  0
 54 55  2  0  0  0
 54126  1  0  0  0
 55 57  1  0  0  0
 55127  1  0  0  0
 56 69  2  0  0  0
 57 58  2  0  0  0
 57128  1  0  0  0
 58129  1  0  0  0
 59 60  1  0  0  0
 59 61  1  0  0  0
 59 62  1  0  0  0
 60130  1  0  0  0
 60131  1  0  0  0
 60132  1  0  0  0
 61133  1  0  0  0
 61134  1  0  0  0
 61135  1  0  0  0
 62136  1  0  0  0
 62137  1  0  0  0
 62138  1  0  0  0
 63 65  1  0  0  0
 63139  1  0  0  0
 63140  1  0  0  0
 63141  1  0  0  0
 64142  1  0  0  0
 65143  1  0  0  0
 68 82  1  0  0  0
 71 72  2  0  0  0
 71 73  1  0  0  0
 71144  1  0  0  0
 72 74  1  0  0  0
 72145  1  0  0  0
 73 75  2  0  0  0
 73 77  1  0  0  0
 74 78  1  0  0  0
 74 83  2  0  0  0
 75 79  1  0  0  0
 75 83  1  0  0  0
 76 79  1  0  0  0
 76146  1  0  0  0
 76147  1  0  0  0
 76148  1  0  0  0
 77 80  1  0  0  0
 77149  1  0  0  0
 77150  1  0  0  0
 78 81  1  0  0  0
 78151  1  0  0  0
 78152  1  0  0  0
 79153  1  0  0  0
 79154  1  0  0  0
 80 82  1  0  0  0
 80155  1  0  0  0
 80156  1  0  0  0
 81 84  1  0  0  0
 81157  1  0  0  0
 81158  1  0  0  0
 82159  1  0  0  0
 82160  1  0  0  0
 84161  1  0  0  0
M  ISO  4   1 100  68 101  82 101  84 100
M  END
> <chiral flag>
0

> <version>
0

> <s_m_source_file>
/data/baiqing/PycharmProjects/Reinvent-master-3.2/result/LINK_invent/BTK/process_docking_weight1_custom_sum_contain_oxygen_bond_distance_aromatic_linkinvent_7_9_3/rearranged_h_0047.sdf

> <i_m_source_file_index>
18

> <r_mmod_Potential_Energy-OPLS-2005>
-197.48063659668

> <r_mmod_Stretch_Energy-OPLS-2005>
36.0143280029297

> <r_mmod_Bend_Energy-OPLS-2005>
109.812438964844

> <r_mmod_Torsional_Energy-OPLS-2005>
194.788146972656

> <r_mmod_Improper_Torsional_Energy-OPLS-2005>
4.59694147109985

> <r_mmod_Van_der_Waal_Energy-OPLS-2005>
174.835784912109

> <r_mmod_Electrostatic_Energy-OPLS-2005>
-516.142761230469

> <r_mmod_Solvation_Energy-OPLS-2005>
-214.620620727539

> <b_mmod_Minimization_Converged-OPLS-2005>
0

> <r_mmod_RMS_Derivative-OPLS-2005>
2.0308792591095

$$$$
18
                    3D
 Structure written by MMmdl.
148156  0  0  1  0            999 V2000
  -30.6415  -14.6755   20.4385 C   0  0  0  0  0  0
  -30.4137  -12.3960   19.4882 C   0  0  0  0  0  0
  -29.4939  -12.4827   18.2477 C   0  0  0  0  0  0
  -28.0167  -12.3326   18.6583 C   0  0  0  0  0  0
  -27.6354  -13.2278   19.8664 C   0  0  2  0  0  0
  -28.6868  -13.1370   20.9973 C   0  0  0  0  0  0
  -25.2409  -13.8187   20.5756 C   0  0  0  0  0  0
  -24.1721  -13.0446   20.9254 C   0  0  0  0  0  0
  -24.6301  -11.6905   20.8812 C   0  0  0  0  0  0
  -23.9001  -10.4284   21.0484 C   0  0  0  0  0  0
  -24.3561   -9.4195   21.9254 C   0  0  0  0  0  0
  -23.6243   -8.2227   22.0788 C   0  0  0  0  0  0
  -22.4242   -8.0261   21.3560 C   0  0  0  0  0  0
  -21.9867   -9.0235   20.4671 C   0  0  0  0  0  0
  -22.7184  -10.2130   20.3112 C   0  0  0  0  0  0
  -21.6836   -6.0713   22.5272 C   0  0  0  0  0  0
  -21.4013   -6.5618   23.8199 C   0  0  0  0  0  0
  -21.3666   -5.6784   24.9160 C   0  0  0  0  0  0
  -21.6042   -4.3043   24.7221 C   0  0  0  0  0  0
  -21.8807   -3.8126   23.4341 C   0  0  0  0  0  0
  -21.9170   -4.6941   22.3398 C   0  0  0  0  0  0
  -22.7729  -13.5219   21.1887 C   0  0  0  0  0  0
  -22.1654   -4.2111   21.0990 F   0  0  0  0  0  0
  -21.5638   -3.4537   25.7740 F   0  0  0  0  0  0
  -29.9908  -13.4666   20.4134 N   0  0  0  0  0  0
  -26.2857  -12.9401   20.3406 N   0  0  0  0  0  0
  -25.9244  -11.6533   20.5844 N   0  0  0  0  0  0
  -22.0362  -12.8269   22.0478 N   0  0  0  0  0  0
  -25.4030  -15.1919   20.4168 N   0  0  0  0  0  0
  -31.8376  -14.7382   20.1493 O   0  0  0  0  0  0
  -21.6611   -6.8856   21.4245 O   0  0  0  0  0  0
  -22.3461  -14.5549   20.6704 O   0  0  0  0  0  0
  -24.6267  -31.8624   23.2078 C   0  0  0  0  0  0
  -25.9097  -32.4805   23.8420 C   0  0  1  0  0  0
  -27.2400  -27.3190   20.1227 C   0  0  0  0  0  0
  -25.5918  -33.8609   24.2338 N   0  0  0  0  0  0
  -23.4222  -30.4830   21.5524 C   0  0  2  0  0  0
  -24.8737  -28.9440   20.1164 C   0  0  0  0  0  0
  -22.7482  -29.4621   22.5004 C   0  0  0  0  0  0
  -18.0271  -28.1391   22.8501 C   0  0  0  0  0  0
  -24.1469  -36.7269   23.2640 C   0  0  0  0  0  0
  -25.9642  -30.7961   21.3785 C   0  0  0  0  0  0
  -26.0434  -29.4232   20.7203 C   0  0  0  0  0  0
  -27.2275  -28.6233   20.7134 C   0  0  0  0  0  0
  -26.0420  -26.9064   19.4899 C   0  0  0  0  0  0
  -24.8760  -27.6901   19.4920 C   0  0  0  0  0  0
  -23.6374  -29.8176   20.1686 C   0  0  0  0  0  0
  -25.4093  -36.3101   24.0344 C   0  0  1  0  0  0
  -20.5881  -28.3690   23.1306 C   0  0  2  0  0  0
  -20.6762  -26.9415   22.5428 C   0  0  0  0  0  0
  -19.5741  -26.6396   21.5226 C   0  0  0  0  0  0
  -18.1920  -26.7938   22.1633 C   0  0  0  0  0  0
  -19.1530  -28.8857   23.2895 C   0  0  0  0  0  0
  -18.9451  -30.1459   23.8909 C   0  0  0  0  0  0
  -17.6455  -30.6602   24.0556 C   0  0  0  0  0  0
  -25.9036  -34.9471   23.5136 C   0  0  0  0  0  0
  -16.5342  -29.9095   23.6342 C   0  0  0  0  0  0
  -16.7255  -28.6501   23.0382 C   0  0  0  0  0  0
  -26.4498  -31.6623   25.0777 C   0  0  0  0  0  0
  -25.3721  -31.3750   26.1487 C   0  0  0  0  0  0
  -27.0357  -30.3056   24.6230 C   0  0  0  0  0  0
  -27.6080  -32.4334   25.7535 C   0  0  0  0  0  0
  -27.5566  -37.1796   24.8477 C   0  0  0  0  0  0
  -21.4195  -29.3023   22.3704 N   0  0  0  0  0  0
  -26.4273  -37.3779   23.9419 N   0  0  0  0  0  0
  -24.6899  -31.0625   22.1035 N   0  0  0  0  0  0
  -23.4203  -28.8171   23.3096 O   0  0  0  0  0  0
  -28.3508  -26.4460   20.1818 O   0  0  0  0  0  0
  -26.5603  -34.8925   22.4698 O   0  0  0  0  0  0
  -23.5421  -32.1407   23.7412 O   0  0  0  0  0  0
  -29.0937  -20.9606   20.4018 C   0  0  0  0  0  0
  -29.7773  -18.5236   20.2472 C   0  0  0  0  0  0
  -28.4324  -22.3557   20.1545 C   0  0  0  0  0  0
  -30.3380  -17.1288   19.8254 C   0  0  0  0  0  0
  -29.1032  -23.8013   20.3552 C   0  0  0  0  0  0
  -28.0881  -24.9913   19.9987 C   0  0  0  0  0  0
  -28.9904  -20.2697   21.5594 N   0  0  0  0  0  0
  -29.3707  -18.9004   21.4744 N   0  0  0  0  0  0
  -29.8978  -15.8326   20.4846 N   0  0  0  0  0  0
  -29.7744  -19.9229   19.1163 S   0  0  0  0  0  0
  -31.4628  -12.4838   19.1989 H   0  0  0  0  0  0
  -30.3278  -11.4205   19.9720 H   0  0  0  0  0  0
  -29.7525  -11.6996   17.5342 H   0  0  0  0  0  0
  -29.6404  -13.4370   17.7400 H   0  0  0  0  0  0
  -27.8622  -11.2857   18.9223 H   0  0  0  0  0  0
  -27.3509  -12.5328   17.8184 H   0  0  0  0  0  0
  -27.6337  -14.2500   19.4921 H   0  0  0  0  0  0
  -28.7083  -12.1284   21.4160 H   0  0  0  0  0  0
  -28.4462  -13.8059   21.8260 H   0  0  0  0  0  0
  -25.2692   -9.5650   22.4865 H   0  0  0  0  0  0
  -23.9909   -7.4597   22.7533 H   0  0  0  0  0  0
  -21.0762   -8.8749   19.8992 H   0  0  0  0  0  0
  -22.3614  -10.9679   19.6227 H   0  0  0  0  0  0
  -21.2047   -7.6127   23.9684 H   0  0  0  0  0  0
  -21.1518   -6.0536   25.9057 H   0  0  0  0  0  0
  -22.0592   -2.7592   23.2849 H   0  0  0  0  0  0
  -22.3867  -11.9853   22.4807 H   0  0  0  0  0  0
  -21.1033  -13.1405   22.2784 H   0  0  0  0  0  0
  -24.6306  -15.8375   20.5385 H   0  0  0  0  0  0
  -26.2374  -15.6400   20.0638 H   0  0  0  0  0  0
  -26.7184  -32.5533   23.1200 H   0  0  0  0  0  0
  -25.0088  -33.9790   25.0501 H   0  0  0  0  0  0
  -22.7134  -31.3027   21.4122 H   0  0  0  0  0  0
  -23.3761  -35.9568   23.3326 H   0  0  0  0  0  0
  -24.3532  -36.8867   22.2045 H   0  0  0  0  0  0
  -23.7206  -37.6469   23.6634 H   0  0  0  0  0  0
  -26.0889  -31.5612   20.6126 H   0  0  0  0  0  0
  -26.8451  -30.8514   22.0069 H   0  0  0  0  0  0
  -28.1183  -28.9874   21.2044 H   0  0  0  0  0  0
  -25.9674  -25.9515   18.9963 H   0  0  0  0  0  0
  -23.9798  -27.3174   19.0139 H   0  0  0  0  0  0
  -23.7429  -30.5973   19.4142 H   0  0  0  0  0  0
  -22.7604  -29.2396   19.8729 H   0  0  0  0  0  0
  -25.1275  -36.1946   25.0831 H   0  0  0  0  0  0
  -20.9948  -28.3251   24.1426 H   0  0  0  0  0  0
  -20.5672  -26.2282   23.3619 H   0  0  0  0  0  0
  -21.6629  -26.7445   22.1210 H   0  0  0  0  0  0
  -19.6902  -25.6309   21.1250 H   0  0  0  0  0  0
  -19.6694  -27.3206   20.6759 H   0  0  0  0  0  0
  -17.4187  -26.6695   21.4030 H   0  0  0  0  0  0
  -18.0306  -26.0078   22.9025 H   0  0  0  0  0  0
  -19.7917  -30.7272   24.2297 H   0  0  0  0  0  0
  -17.4995  -31.6288   24.5146 H   0  0  0  0  0  0
  -15.5341  -30.2994   23.7662 H   0  0  0  0  0  0
  -15.8647  -28.0804   22.7129 H   0  0  0  0  0  0
  -24.5888  -30.7118   25.7795 H   0  0  0  0  0  0
  -24.8920  -32.2918   26.4917 H   0  0  0  0  0  0
  -25.8013  -30.8912   27.0273 H   0  0  0  0  0  0
  -26.2969  -29.6823   24.1172 H   0  0  0  0  0  0
  -27.3997  -29.7283   25.4754 H   0  0  0  0  0  0
  -27.8846  -30.4387   23.9512 H   0  0  0  0  0  0
  -27.2716  -33.3620   26.2149 H   0  0  0  0  0  0
  -28.3854  -32.6913   25.0332 H   0  0  0  0  0  0
  -28.0790  -31.8439   26.5420 H   0  0  0  0  0  0
  -28.2615  -38.0073   24.7502 H   0  0  0  0  0  0
  -28.1052  -36.2607   24.6326 H   0  0  0  0  0  0
  -27.2290  -37.1458   25.8890 H   0  0  0  0  0  0
  -20.9368  -29.8677   21.6866 H   0  0  0  0  0  0
  -26.0182  -38.2854   24.1434 H   0  0  0  0  0  0
  -27.5409  -22.3561   20.7801 H   0  0  0  0  0  0
  -28.0536  -22.3240   19.1343 H   0  0  0  0  0  0
  -30.0953  -17.0124   18.7672 H   0  0  0  0  0  0
  -31.4235  -17.2151   19.8564 H   0  0  0  0  0  0
  -30.0012  -23.8916   19.7395 H   0  0  0  0  0  0
  -29.4319  -23.9027   21.3880 H   0  0  0  0  0  0
  -27.8426  -24.8472   18.9466 H   0  0  0  0  0  0
  -27.1780  -24.7726   20.5630 H   0  0  0  0  0  0
  -28.9111  -15.7321   20.6631 H   0  0  0  0  0  0
  1 25  1  0  0  0
  1 30  2  0  0  0
  1 79  1  0  0  0
  2  3  1  0  0  0
  2 25  1  0  0  0
  2 81  1  0  0  0
  2 82  1  0  0  0
  3  4  1  0  0  0
  3 83  1  0  0  0
  3 84  1  0  0  0
  4  5  1  0  0  0
  4 85  1  0  0  0
  4 86  1  0  0  0
  5  6  1  0  0  0
  5 26  1  0  0  0
  5 87  1  0  0  0
  6 25  1  0  0  0
  6 88  1  0  0  0
  6 89  1  0  0  0
  7  8  2  0  0  0
  7 26  1  0  0  0
  7 29  1  0  0  0
  8  9  1  0  0  0
  8 22  1  0  0  0
  9 10  1  0  0  0
  9 27  2  0  0  0
 10 11  2  0  0  0
 10 15  1  0  0  0
 11 12  1  0  0  0
 11 90  1  0  0  0
 12 13  2  0  0  0
 12 91  1  0  0  0
 13 14  1  0  0  0
 13 31  1  0  0  0
 14 15  2  0  0  0
 14 92  1  0  0  0
 15 93  1  0  0  0
 16 17  2  0  0  0
 16 21  1  0  0  0
 16 31  1  0  0  0
 17 18  1  0  0  0
 17 94  1  0  0  0
 18 19  2  0  0  0
 18 95  1  0  0  0
 19 20  1  0  0  0
 19 24  1  0  0  0
 20 21  2  0  0  0
 20 96  1  0  0  0
 21 23  1  0  0  0
 22 28  1  0  0  0
 22 32  2  0  0  0
 26 27  1  0  0  0
 28 97  1  0  0  0
 28 98  1  0  0  0
 29 99  1  0  0  0
 29100  1  0  0  0
 33 34  1  0  0  0
 33 66  1  0  0  0
 33 70  2  0  0  0
 34 36  1  0  0  0
 34 59  1  0  0  0
 34101  1  0  0  0
 35 44  2  0  0  0
 35 45  1  0  0  0
 35 68  1  0  0  0
 36 56  1  0  0  0
 36102  1  0  0  0
 37 39  1  0  0  0
 37 47  1  0  0  0
 37 66  1  0  0  0
 37103  1  0  0  0
 38 43  2  0  0  0
 38 46  1  0  0  0
 38 47  1  0  0  0
 39 64  1  0  0  0
 39 67  2  0  0  0
 40 52  1  0  0  0
 40 53  2  0  0  0
 40 58  1  0  0  0
 41104  1  0  0  0
 41105  1  0  0  0
 41106  1  0  0  0
 41 48  1  0  0  0
 42 43  1  0  0  0
 42 66  1  0  0  0
 42107  1  0  0  0
 42108  1  0  0  0
 43 44  1  0  0  0
 44109  1  0  0  0
 45 46  2  0  0  0
 45110  1  0  0  0
 46111  1  0  0  0
 47112  1  0  0  0
 47113  1  0  0  0
 48 56  1  0  0  0
 48 65  1  0  0  0
 48114  1  0  0  0
 49 50  1  0  0  0
 49 53  1  0  0  0
 49 64  1  0  0  0
 49115  1  0  0  0
 50 51  1  0  0  0
 50116  1  0  0  0
 50117  1  0  0  0
 51 52  1  0  0  0
 51118  1  0  0  0
 51119  1  0  0  0
 52120  1  0  0  0
 52121  1  0  0  0
 53 54  1  0  0  0
 54 55  2  0  0  0
 54122  1  0  0  0
 55 57  1  0  0  0
 55123  1  0  0  0
 56 69  2  0  0  0
 57 58  2  0  0  0
 57124  1  0  0  0
 58125  1  0  0  0
 59 60  1  0  0  0
 59 61  1  0  0  0
 59 62  1  0  0  0
 60126  1  0  0  0
 60127  1  0  0  0
 60128  1  0  0  0
 61129  1  0  0  0
 61130  1  0  0  0
 61131  1  0  0  0
 62132  1  0  0  0
 62133  1  0  0  0
 62134  1  0  0  0
 63 65  1  0  0  0
 63135  1  0  0  0
 63136  1  0  0  0
 63137  1  0  0  0
 64138  1  0  0  0
 65139  1  0  0  0
 68 76  1  0  0  0
 71 73  1  0  0  0
 71 77  2  0  0  0
 71 80  1  0  0  0
 72 74  1  0  0  0
 72 78  2  0  0  0
 72 80  1  0  0  0
 73 75  1  0  0  0
 73140  1  0  0  0
 73141  1  0  0  0
 74 79  1  0  0  0
 74142  1  0  0  0
 74143  1  0  0  0
 75 76  1  0  0  0
 75144  1  0  0  0
 75145  1  0  0  0
 76146  1  0  0  0
 76147  1  0  0  0
 77 78  1  0  0  0
 79148  1  0  0  0
M  ISO  4   1 100  68 101  76 101  79 100
M  END
> <chiral flag>
0

> <version>
0

> <s_m_source_file>
/data/baiqing/PycharmProjects/Reinvent-master-3.2/result/LINK_invent/BTK/process_docking_weight1_custom_sum_contain_oxygen_bond_distance_aromatic_linkinvent_7_9_3/rearranged_h_0047.sdf

> <i_m_source_file_index>
19

> <r_mmod_Potential_Energy-OPLS-2005>
-17.333101272583

> <r_mmod_Stretch_Energy-OPLS-2005>
90.3785018920898

> <r_mmod_Bend_Energy-OPLS-2005>
179.990661621094

> <r_mmod_Torsional_Energy-OPLS-2005>
194.110412597656

> <r_mmod_Improper_Torsional_Energy-OPLS-2005>
10.5713720321655

> <r_mmod_Van_der_Waal_Energy-OPLS-2005>
127.039047241211

> <r_mmod_Electrostatic_Energy-OPLS-2005>
-443.584655761719

> <r_mmod_Solvation_Energy-OPLS-2005>
-235.732971191406

> <b_mmod_Minimization_Converged-OPLS-2005>
0

> <r_mmod_RMS_Derivative-OPLS-2005>
4.80270910263062

$$$$
19
                    3D
 Structure written by MMmdl.
177185  0  0  1  0            999 V2000
  -30.6720  -14.4975   20.4647 C   0  0  0  0  0  0
  -30.4197  -12.2889   19.4249 C   0  0  0  0  0  0
  -29.4867  -12.4509   18.2070 C   0  0  0  0  0  0
  -28.0032  -12.3405   18.6193 C   0  0  0  0  0  0
  -27.6471  -13.1883   19.8719 C   0  0  2  0  0  0
  -28.7019  -13.0131   20.9873 C   0  0  0  0  0  0
  -25.2551  -13.8097   20.5714 C   0  0  0  0  0  0
  -24.1798  -13.0410   20.9202 C   0  0  0  0  0  0
  -24.6338  -11.6868   20.8782 C   0  0  0  0  0  0
  -23.9029  -10.4272   21.0445 C   0  0  0  0  0  0
  -24.3594   -9.4187   21.9214 C   0  0  0  0  0  0
  -23.6282   -8.2227   22.0758 C   0  0  0  0  0  0
  -22.4269   -8.0285   21.3546 C   0  0  0  0  0  0
  -21.9905   -9.0254   20.4647 C   0  0  0  0  0  0
  -22.7225  -10.2126   20.3074 C   0  0  0  0  0  0
  -21.6846   -6.0746   22.5283 C   0  0  0  0  0  0
  -21.4006   -6.5645   23.8221 C   0  0  0  0  0  0
  -21.3656   -5.6795   24.9187 C   0  0  0  0  0  0
  -21.6049   -4.3064   24.7227 C   0  0  0  0  0  0
  -21.8818   -3.8159   23.4353 C   0  0  0  0  0  0
  -21.9183   -4.6972   22.3408 C   0  0  0  0  0  0
  -22.7827  -13.5225   21.1856 C   0  0  0  0  0  0
  -22.1652   -4.2155   21.0981 F   0  0  0  0  0  0
  -21.5635   -3.4551   25.7743 F   0  0  0  0  0  0
  -30.0230  -13.3043   20.4082 N   0  0  0  0  0  0
  -26.2953  -12.9222   20.3426 N   0  0  0  0  0  0
  -25.9260  -11.6414   20.5846 N   0  0  0  0  0  0
  -22.0466  -12.8219   22.0397 N   0  0  0  0  0  0
  -25.4311  -15.1822   20.4059 N   0  0  0  0  0  0
  -31.8651  -14.6243   20.1730 O   0  0  0  0  0  0
  -21.6641   -6.8887   21.4244 O   0  0  0  0  0  0
  -22.3534  -14.5548   20.6700 O   0  0  0  0  0  0
  -24.6117  -31.8680   23.2071 C   0  0  0  0  0  0
  -25.9018  -32.4827   23.8395 C   0  0  1  0  0  0
  -27.2404  -27.4521   20.1012 C   0  0  0  0  0  0
  -25.5893  -33.8632   24.2341 N   0  0  0  0  0  0
  -23.3987  -30.4877   21.5459 C   0  0  2  0  0  0
  -24.8504  -28.9490   20.1192 C   0  0  0  0  0  0
  -22.7391  -29.4650   22.4988 C   0  0  0  0  0  0
  -18.0277  -28.1393   22.8479 C   0  0  0  0  0  0
  -24.1442  -36.7285   23.2670 C   0  0  0  0  0  0
  -25.9255  -30.8344   21.3621 C   0  0  0  0  0  0
  -26.0065  -29.4677   20.7176 C   0  0  0  0  0  0
  -27.2055  -28.7248   20.7096 C   0  0  0  0  0  0
  -26.0737  -26.9368   19.5040 C   0  0  0  0  0  0
  -24.8769  -27.6783   19.5133 C   0  0  0  0  0  0
  -23.6110  -29.8131   20.1637 C   0  0  0  0  0  0
  -25.4064  -36.3130   24.0372 C   0  0  1  0  0  0
  -20.5862  -28.3639   23.1316 C   0  0  2  0  0  0
  -20.6742  -26.9378   22.5415 C   0  0  0  0  0  0
  -19.5711  -26.6386   21.5215 C   0  0  0  0  0  0
  -18.1901  -26.7941   22.1631 C   0  0  0  0  0  0
  -19.1533  -28.8826   23.2911 C   0  0  0  0  0  0
  -18.9480  -30.1437   23.8911 C   0  0  0  0  0  0
  -17.6488  -30.6606   24.0549 C   0  0  0  0  0  0
  -25.8996  -34.9502   23.5143 C   0  0  0  0  0  0
  -16.5364  -29.9116   23.6324 C   0  0  0  0  0  0
  -16.7273  -28.6548   23.0312 C   0  0  0  0  0  0
  -26.4511  -31.6594   25.0710 C   0  0  0  0  0  0
  -25.3834  -31.3640   26.1499 C   0  0  0  0  0  0
  -27.0382  -30.3044   24.6080 C   0  0  0  0  0  0
  -27.6071  -32.4346   25.7472 C   0  0  0  0  0  0
  -27.5548  -37.1777   24.8499 C   0  0  0  0  0  0
  -21.4126  -29.2999   22.3714 N   0  0  0  0  0  0
  -26.4255  -37.3813   23.9471 N   0  0  0  0  0  0
  -24.6623  -31.0801   22.0954 N   0  0  0  0  0  0
  -23.4166  -28.8217   23.3043 O   0  0  0  0  0  0
  -28.4020  -26.7232   20.0574 O   0  0  0  0  0  0
  -26.5539  -34.8966   22.4701 O   0  0  0  0  0  0
  -23.5310  -32.1434   23.7470 O   0  0  0  0  0  0
  -30.8892  -18.4372   21.4058 C   0  0  0  0  0  0
  -30.5178  -19.8085   21.4728 C   0  0  0  0  0  0
  -29.7336  -17.7512   21.6593 C   0  0  0  0  0  0
  -31.0938  -15.9532   17.1861 C   0  0  0  0  0  0
  -27.3565  -18.5325   22.2103 C   0  0  0  0  0  0
  -27.6166  -22.1214   19.1087 C   0  0  0  0  0  0
  -31.3647  -21.0240   21.2293 C   0  0  0  0  0  0
  -29.4527  -16.2684   21.6655 C   0  0  0  0  0  0
  -30.5946  -16.8489   18.3315 C   0  0  0  0  0  0
  -31.3612  -21.4982   19.7601 C   0  0  0  0  0  0
  -28.3179  -24.4712   20.9945 C   0  0  0  0  0  0
  -29.4499  -16.2168   19.1532 C   0  0  0  0  0  0
  -29.9914  -21.5733   19.0440 C   0  0  0  0  0  0
  -29.2427  -23.7769   19.9671 C   0  0  0  0  0  0
  -28.6664  -25.9533   21.2316 C   0  0  0  0  0  0
  -29.2350  -19.9666   21.7507 N   0  0  0  0  0  0
  -28.7577  -18.7097   21.8866 N   0  0  0  0  0  0
  -29.8444  -15.5704   20.4294 N   0  0  0  0  0  0
  -28.9311  -22.3287   19.7672 N   0  3  1  0  0  0
  -31.4630  -12.3867   19.1165 H   0  0  0  0  0  0
  -30.3241  -11.2914   19.8545 H   0  0  0  0  0  0
  -29.7151  -11.6950   17.4551 H   0  0  0  0  0  0
  -29.6652  -13.4118   17.7257 H   0  0  0  0  0  0
  -27.7940  -11.2877   18.8175 H   0  0  0  0  0  0
  -27.3619  -12.6215   17.7820 H   0  0  0  0  0  0
  -27.6486  -14.2245   19.5578 H   0  0  0  0  0  0
  -28.6827  -11.9941   21.3750 H   0  0  0  0  0  0
  -28.4811  -13.6623   21.8356 H   0  0  0  0  0  0
  -25.2734   -9.5658   22.4801 H   0  0  0  0  0  0
  -23.9992   -7.4601   22.7469 H   0  0  0  0  0  0
  -21.0854   -8.8774   19.8945 H   0  0  0  0  0  0
  -22.3712  -10.9672   19.6187 H   0  0  0  0  0  0
  -21.2005   -7.6151   23.9723 H   0  0  0  0  0  0
  -21.1476   -6.0536   25.9083 H   0  0  0  0  0  0
  -22.0599   -2.7624   23.2854 H   0  0  0  0  0  0
  -22.4075  -11.9854   22.4751 H   0  0  0  0  0  0
  -21.1102  -13.1261   22.2647 H   0  0  0  0  0  0
  -24.6607  -15.8362   20.4836 H   0  0  0  0  0  0
  -26.2804  -15.6109   20.0622 H   0  0  0  0  0  0
  -26.7059  -32.5584   23.1142 H   0  0  0  0  0  0
  -25.0069  -33.9814   25.0489 H   0  0  0  0  0  0
  -22.6855  -31.3024   21.3968 H   0  0  0  0  0  0
  -23.3754  -35.9572   23.3354 H   0  0  0  0  0  0
  -24.3530  -36.8873   22.2082 H   0  0  0  0  0  0
  -23.7140  -37.6470   23.6652 H   0  0  0  0  0  0
  -26.0359  -31.5904   20.5863 H   0  0  0  0  0  0
  -26.8158  -30.8959   21.9766 H   0  0  0  0  0  0
  -28.1031  -29.1238   21.1612 H   0  0  0  0  0  0
  -26.0973  -25.9647   19.0320 H   0  0  0  0  0  0
  -23.9891  -27.2697   19.0501 H   0  0  0  0  0  0
  -23.7230  -30.5861   19.4032 H   0  0  0  0  0  0
  -22.7376  -29.2320   19.8610 H   0  0  0  0  0  0
  -25.1207  -36.1990   25.0856 H   0  0  0  0  0  0
  -20.9949  -28.3240   24.1432 H   0  0  0  0  0  0
  -20.5623  -26.2268   23.3609 H   0  0  0  0  0  0
  -21.6609  -26.7396   22.1200 H   0  0  0  0  0  0
  -19.6835  -25.6305   21.1213 H   0  0  0  0  0  0
  -19.6647  -27.3242   20.6778 H   0  0  0  0  0  0
  -17.4137  -26.6700   21.4066 H   0  0  0  0  0  0
  -18.0278  -26.0116   22.9054 H   0  0  0  0  0  0
  -19.7961  -30.7232   24.2290 H   0  0  0  0  0  0
  -17.5064  -31.6284   24.5154 H   0  0  0  0  0  0
  -15.5369  -30.3020   23.7648 H   0  0  0  0  0  0
  -15.8682  -28.0896   22.6954 H   0  0  0  0  0  0
  -24.6033  -30.6935   25.7872 H   0  0  0  0  0  0
  -24.9020  -32.2771   26.4987 H   0  0  0  0  0  0
  -25.8281  -30.8816   27.0218 H   0  0  0  0  0  0
  -26.2896  -29.6726   24.1282 H   0  0  0  0  0  0
  -27.4337  -29.7335   25.4503 H   0  0  0  0  0  0
  -27.8643  -30.4364   23.9096 H   0  0  0  0  0  0
  -27.2651  -33.3640   26.2024 H   0  0  0  0  0  0
  -28.3904  -32.6917   25.0332 H   0  0  0  0  0  0
  -28.0729  -31.8509   26.5425 H   0  0  0  0  0  0
  -28.2554  -38.0077   24.7561 H   0  0  0  0  0  0
  -28.1041  -36.2612   24.6273 H   0  0  0  0  0  0
  -27.2299  -37.1389   25.8914 H   0  0  0  0  0  0
  -20.9291  -29.8730   21.6944 H   0  0  0  0  0  0
  -26.0149  -38.2879   24.1539 H   0  0  0  0  0  0
  -31.8595  -18.0195   21.1780 H   0  0  0  0  0  0
  -31.8628  -16.4633   16.6060 H   0  0  0  0  0  0
  -30.2864  -15.6978   16.4980 H   0  0  0  0  0  0
  -31.5264  -15.0223   17.5516 H   0  0  0  0  0  0
  -26.8158  -18.2040   21.3241 H   0  0  0  0  0  0
  -26.9195  -19.4671   22.5635 H   0  0  0  0  0  0
  -27.2487  -17.7863   22.9960 H   0  0  0  0  0  0
  -27.4073  -21.0601   18.9682 H   0  0  0  0  0  0
  -27.5998  -22.5990   18.1270 H   0  0  0  0  0  0
  -26.7900  -22.5220   19.6929 H   0  0  0  0  0  0
  -32.3913  -20.8212   21.5385 H   0  0  0  0  0  0
  -31.0286  -21.8359   21.8750 H   0  0  0  0  0  0
  -28.3885  -16.0852   21.8085 H   0  0  0  0  0  0
  -29.9420  -15.8183   22.5311 H   0  0  0  0  0  0
  -30.2264  -17.7763   17.8884 H   0  0  0  0  0  0
  -31.4275  -17.1351   18.9719 H   0  0  0  0  0  0
  -31.9690  -20.7939   19.1908 H   0  0  0  0  0  0
  -31.8871  -22.4504   19.6826 H   0  0  0  0  0  0
  -28.3799  -23.9267   21.9394 H   0  0  0  0  0  0
  -27.2753  -24.4217   20.6871 H   0  0  0  0  0  0
  -28.9309  -15.5064   18.5142 H   0  0  0  0  0  0
  -28.6968  -16.9812   19.3526 H   0  0  0  0  0  0
  -29.6396  -20.5545   18.8723 H   0  0  0  0  0  0
  -30.1293  -22.0096   18.0533 H   0  0  0  0  0  0
  -30.2683  -23.8931   20.3185 H   0  0  0  0  0  0
  -29.1965  -24.2945   19.0067 H   0  0  0  0  0  0
  -29.7205  -26.0586   21.4902 H   0  0  0  0  0  0
  -28.1040  -26.3254   22.0904 H   0  0  0  0  0  0
  -28.8643  -21.8820   20.6752 H   0  0  0  0  0  0
  1 25  1  0  0  0
  1 30  2  0  0  0
  1 88  1  0  0  0
  2  3  1  0  0  0
  2 25  1  0  0  0
  2 90  1  0  0  0
  2 91  1  0  0  0
  3  4  1  0  0  0
  3 92  1  0  0  0
  3 93  1  0  0  0
  4  5  1  0  0  0
  4 94  1  0  0  0
  4 95  1  0  0  0
  5  6  1  0  0  0
  5 26  1  0  0  0
  5 96  1  0  0  0
  6 25  1  0  0  0
  6 97  1  0  0  0
  6 98  1  0  0  0
  7  8  2  0  0  0
  7 26  1  0  0  0
  7 29  1  0  0  0
  8  9  1  0  0  0
  8 22  1  0  0  0
  9 10  1  0  0  0
  9 27  2  0  0  0
 10 11  2  0  0  0
 10 15  1  0  0  0
 11 12  1  0  0  0
 11 99  1  0  0  0
 12 13  2  0  0  0
 12100  1  0  0  0
 13 14  1  0  0  0
 13 31  1  0  0  0
 14 15  2  0  0  0
 14101  1  0  0  0
 15102  1  0  0  0
 16 17  2  0  0  0
 16 21  1  0  0  0
 16 31  1  0  0  0
 17 18  1  0  0  0
 17103  1  0  0  0
 18 19  2  0  0  0
 18104  1  0  0  0
 19 20  1  0  0  0
 19 24  1  0  0  0
 20 21  2  0  0  0
 20105  1  0  0  0
 21 23  1  0  0  0
 22 28  1  0  0  0
 22 32  2  0  0  0
 26 27  1  0  0  0
 28106  1  0  0  0
 28107  1  0  0  0
 29108  1  0  0  0
 29109  1  0  0  0
 33 34  1  0  0  0
 33 66  1  0  0  0
 33 70  2  0  0  0
 34 36  1  0  0  0
 34 59  1  0  0  0
 34110  1  0  0  0
 35 44  2  0  0  0
 35 45  1  0  0  0
 35 68  1  0  0  0
 36 56  1  0  0  0
 36111  1  0  0  0
 37 39  1  0  0  0
 37 47  1  0  0  0
 37 66  1  0  0  0
 37112  1  0  0  0
 38 43  2  0  0  0
 38 46  1  0  0  0
 38 47  1  0  0  0
 39 64  1  0  0  0
 39 67  2  0  0  0
 40 52  1  0  0  0
 40 53  2  0  0  0
 40 58  1  0  0  0
 41113  1  0  0  0
 41114  1  0  0  0
 41115  1  0  0  0
 41 48  1  0  0  0
 42 43  1  0  0  0
 42 66  1  0  0  0
 42116  1  0  0  0
 42117  1  0  0  0
 43 44  1  0  0  0
 44118  1  0  0  0
 45 46  2  0  0  0
 45119  1  0  0  0
 46120  1  0  0  0
 47121  1  0  0  0
 47122  1  0  0  0
 48 56  1  0  0  0
 48 65  1  0  0  0
 48123  1  0  0  0
 49 50  1  0  0  0
 49 53  1  0  0  0
 49 64  1  0  0  0
 49124  1  0  0  0
 50 51  1  0  0  0
 50125  1  0  0  0
 50126  1  0  0  0
 51 52  1  0  0  0
 51127  1  0  0  0
 51128  1  0  0  0
 52129  1  0  0  0
 52130  1  0  0  0
 53 54  1  0  0  0
 54 55  2  0  0  0
 54131  1  0  0  0
 55 57  1  0  0  0
 55132  1  0  0  0
 56 69  2  0  0  0
 57 58  2  0  0  0
 57133  1  0  0  0
 58134  1  0  0  0
 59 60  1  0  0  0
 59 61  1  0  0  0
 59 62  1  0  0  0
 60135  1  0  0  0
 60136  1  0  0  0
 60137  1  0  0  0
 61138  1  0  0  0
 61139  1  0  0  0
 61140  1  0  0  0
 62141  1  0  0  0
 62142  1  0  0  0
 62143  1  0  0  0
 63 65  1  0  0  0
 63144  1  0  0  0
 63145  1  0  0  0
 63146  1  0  0  0
 64147  1  0  0  0
 65148  1  0  0  0
 68 85  1  0  0  0
 71 72  1  0  0  0
 71 73  2  0  0  0
 71149  1  0  0  0
 72 77  1  0  0  0
 72 86  2  0  0  0
 73 78  1  0  0  0
 73 87  1  0  0  0
 74 79  1  0  0  0
 74150  1  0  0  0
 74151  1  0  0  0
 74152  1  0  0  0
 75 87  1  0  0  0
 75153  1  0  0  0
 75154  1  0  0  0
 75155  1  0  0  0
 76156  1  0  0  0
 76157  1  0  0  0
 76158  1  0  0  0
 76 89  1  0  0  0
 77 80  1  0  0  0
 77159  1  0  0  0
 77160  1  0  0  0
 78 88  1  0  0  0
 78161  1  0  0  0
 78162  1  0  0  0
 79 82  1  0  0  0
 79163  1  0  0  0
 79164  1  0  0  0
 80 83  1  0  0  0
 80165  1  0  0  0
 80166  1  0  0  0
 81 84  1  0  0  0
 81 85  1  0  0  0
 81167  1  0  0  0
 81168  1  0  0  0
 82 88  1  0  0  0
 82169  1  0  0  0
 82170  1  0  0  0
 83 89  1  0  0  0
 83171  1  0  0  0
 83172  1  0  0  0
 84 89  1  0  0  0
 84173  1  0  0  0
 84174  1  0  0  0
 85175  1  0  0  0
 85176  1  0  0  0
 86 87  1  0  0  0
 89177  1  0  0  0
M  CHG  1  89   1
M  ISO  4   1 100  68 101  85 101  88 100
M  END
> <chiral flag>
0

> <version>
0

> <s_m_source_file>
/data/baiqing/PycharmProjects/Reinvent-master-3.2/result/LINK_invent/BTK/process_docking_weight1_custom_sum_contain_oxygen_bond_distance_aromatic_linkinvent_7_9_3/rearranged_h_0047.sdf

> <i_m_source_file_index>
20

> <r_mmod_Potential_Energy-OPLS-2005>
-86.7260131835938

> <r_mmod_Stretch_Energy-OPLS-2005>
36.206428527832

> <r_mmod_Bend_Energy-OPLS-2005>
98.1733932495117

> <r_mmod_Torsional_Energy-OPLS-2005>
347.301971435547

> <r_mmod_Improper_Torsional_Energy-OPLS-2005>
12.7561025619507

> <r_mmod_Van_der_Waal_Energy-OPLS-2005>
109.962051391602

> <r_mmod_Electrostatic_Energy-OPLS-2005>
-319.465667724609

> <r_mmod_Solvation_Energy-OPLS-2005>
-390.317657470703

> <b_mmod_Minimization_Converged-OPLS-2005>
0

> <r_mmod_RMS_Derivative-OPLS-2005>
3.63081908226013

$$$$
20
                    3D
 Structure written by MMmdl.
151159  0  0  1  0            999 V2000
  -30.5916  -14.7295   20.4608 C   0  0  0  0  0  0
  -30.4331  -12.4464   19.4658 C   0  0  0  0  0  0
  -29.5089  -12.5139   18.2300 C   0  0  0  0  0  0
  -28.0339  -12.3375   18.6408 C   0  0  0  0  0  0
  -27.6415  -13.2279   19.8504 C   0  0  2  0  0  0
  -28.6841  -13.1393   20.9858 C   0  0  0  0  0  0
  -25.2500  -13.8184   20.5676 C   0  0  0  0  0  0
  -24.1785  -13.0432   20.9194 C   0  0  0  0  0  0
  -24.6373  -11.6908   20.8727 C   0  0  0  0  0  0
  -23.9053  -10.4288   21.0396 C   0  0  0  0  0  0
  -24.3612   -9.4202   21.9175 C   0  0  0  0  0  0
  -23.6298   -8.2233   22.0744 C   0  0  0  0  0  0
  -22.4281   -8.0265   21.3527 C   0  0  0  0  0  0
  -21.9906   -9.0238   20.4638 C   0  0  0  0  0  0
  -22.7222  -10.2121   20.3043 C   0  0  0  0  0  0
  -21.6860   -6.0737   22.5276 C   0  0  0  0  0  0
  -21.4015   -6.5643   23.8208 C   0  0  0  0  0  0
  -21.3655   -5.6791   24.9172 C   0  0  0  0  0  0
  -21.6044   -4.3052   24.7217 C   0  0  0  0  0  0
  -21.8819   -3.8149   23.4340 C   0  0  0  0  0  0
  -21.9191   -4.6965   22.3397 C   0  0  0  0  0  0
  -22.7809  -13.5215   21.1879 C   0  0  0  0  0  0
  -22.1660   -4.2153   21.0977 F   0  0  0  0  0  0
  -21.5636   -3.4530   25.7723 F   0  0  0  0  0  0
  -29.9864  -13.4961   20.4102 N   0  0  0  0  0  0
  -26.2919  -12.9382   20.3247 N   0  0  0  0  0  0
  -25.9300  -11.6525   20.5724 N   0  0  0  0  0  0
  -22.0459  -12.8195   22.0440 N   0  0  0  0  0  0
  -25.4226  -15.1904   20.4087 N   0  0  0  0  0  0
  -31.7740  -14.8497   20.1300 O   0  0  0  0  0  0
  -21.6635   -6.8871   21.4233 O   0  0  0  0  0  0
  -22.3485  -14.5526   20.6736 O   0  0  0  0  0  0
  -24.6293  -31.8539   23.1957 C   0  0  0  0  0  0
  -25.9131  -32.4742   23.8303 C   0  0  1  0  0  0
  -27.2259  -27.2701   20.1285 C   0  0  0  0  0  0
  -25.5929  -33.8543   24.2231 N   0  0  0  0  0  0
  -23.4257  -30.4757   21.5376 C   0  0  2  0  0  0
  -24.8725  -28.9189   20.1082 C   0  0  0  0  0  0
  -22.7489  -29.4602   22.4901 C   0  0  0  0  0  0
  -18.0292  -28.1381   22.8494 C   0  0  0  0  0  0
  -24.1492  -36.7278   23.2639 C   0  0  0  0  0  0
  -25.9687  -30.7712   21.3720 C   0  0  0  0  0  0
  -26.0414  -29.3938   20.7155 C   0  0  0  0  0  0
  -27.2166  -28.5810   20.7130 C   0  0  0  0  0  0
  -26.0309  -26.8508   19.5032 C   0  0  0  0  0  0
  -24.8726  -27.6553   19.4940 C   0  0  0  0  0  0
  -23.6427  -29.8052   20.1540 C   0  0  0  0  0  0
  -25.4116  -36.3056   24.0319 C   0  0  1  0  0  0
  -20.5898  -28.3690   23.1273 C   0  0  2  0  0  0
  -20.6777  -26.9409   22.5410 C   0  0  0  0  0  0
  -19.5752  -26.6379   21.5214 C   0  0  0  0  0  0
  -18.1935  -26.7923   22.1631 C   0  0  0  0  0  0
  -19.1548  -28.8848   23.2879 C   0  0  0  0  0  0
  -18.9469  -30.1451   23.8895 C   0  0  0  0  0  0
  -17.6472  -30.6587   24.0565 C   0  0  0  0  0  0
  -25.9059  -34.9432   23.5079 C   0  0  0  0  0  0
  -16.5358  -29.9091   23.6332 C   0  0  0  0  0  0
  -16.7282  -28.6501   23.0359 C   0  0  0  0  0  0
  -26.4502  -31.6570   25.0693 C   0  0  0  0  0  0
  -25.3730  -31.3739   26.1421 C   0  0  0  0  0  0
  -27.0343  -30.2979   24.6187 C   0  0  0  0  0  0
  -27.6043  -32.4317   25.7485 C   0  0  0  0  0  0
  -27.5577  -37.1795   24.8462 C   0  0  0  0  0  0
  -21.4195  -29.3039   22.3656 N   0  0  0  0  0  0
  -26.4287  -37.3760   23.9410 N   0  0  0  0  0  0
  -24.6932  -31.0523   22.0919 N   0  0  0  0  0  0
  -23.4194  -28.8157   23.3007 O   0  0  0  0  0  0
  -28.3584  -26.4317   20.2031 O   0  0  0  0  0  0
  -26.5634  -34.8920   22.4655 O   0  0  0  0  0  0
  -23.5446  -32.1364   23.7260 O   0  0  0  0  0  0
  -28.3352  -21.0792   20.7471 C   0  0  0  0  0  0
  -30.0861  -22.0927   19.8402 C   0  0  0  0  0  0
  -29.1975  -20.0184   20.4333 C   0  0  0  0  0  0
  -30.2931  -20.7312   19.8510 C   0  0  0  0  0  0
  -28.9835  -18.4494   20.6803 C   0  0  0  0  0  0
  -28.2633  -23.7492   20.7270 C   0  0  0  0  0  0
  -30.1209  -17.3233   20.4203 C   0  0  0  0  0  0
  -28.4273  -25.0070   19.7262 C   0  0  0  0  0  0
  -28.8474  -22.3654   20.4034 N   0  0  0  0  0  0
  -29.7947  -15.8460   20.6659 N   0  0  0  0  0  0
  -31.7388  -19.9991   19.2609 Cl  0  0  0  0  0  0
  -31.4736  -12.5767   19.1625 H   0  0  0  0  0  0
  -30.3799  -11.4627   19.9348 H   0  0  0  0  0  0
  -29.7899  -11.7473   17.5055 H   0  0  0  0  0  0
  -29.6382  -13.4750   17.7282 H   0  0  0  0  0  0
  -27.8835  -11.2880   18.8955 H   0  0  0  0  0  0
  -27.3776  -12.5384   17.7936 H   0  0  0  0  0  0
  -27.6422  -14.2536   19.4807 H   0  0  0  0  0  0
  -28.7116  -12.1315   21.4023 H   0  0  0  0  0  0
  -28.4186  -13.8039   21.8096 H   0  0  0  0  0  0
  -25.2760   -9.5690   22.4747 H   0  0  0  0  0  0
  -24.0022   -7.4617   22.7450 H   0  0  0  0  0  0
  -21.0840   -8.8733   19.8938 H   0  0  0  0  0  0
  -22.3670  -10.9653   19.6149 H   0  0  0  0  0  0
  -21.2001   -7.6150   23.9723 H   0  0  0  0  0  0
  -21.1488   -6.0515   25.9081 H   0  0  0  0  0  0
  -22.0607   -2.7615   23.2828 H   0  0  0  0  0  0
  -22.4084  -11.9860   22.4831 H   0  0  0  0  0  0
  -21.1070  -13.1197   22.2643 H   0  0  0  0  0  0
  -24.6564  -15.8476   20.5102 H   0  0  0  0  0  0
  -26.2658  -15.6215   20.0521 H   0  0  0  0  0  0
  -26.7200  -32.5392   23.1043 H   0  0  0  0  0  0
  -25.0068  -33.9674   25.0371 H   0  0  0  0  0  0
  -22.7222  -31.2970   21.3892 H   0  0  0  0  0  0
  -23.3749  -35.9614   23.3292 H   0  0  0  0  0  0
  -24.3585  -36.8915   22.2057 H   0  0  0  0  0  0
  -23.7251  -37.6478   23.6674 H   0  0  0  0  0  0
  -26.1067  -31.5342   20.6043 H   0  0  0  0  0  0
  -26.8449  -30.8181   22.0068 H   0  0  0  0  0  0
  -28.1136  -28.9423   21.1981 H   0  0  0  0  0  0
  -25.9558  -25.8800   19.0386 H   0  0  0  0  0  0
  -23.9749  -27.2822   19.0193 H   0  0  0  0  0  0
  -23.7661  -30.5783   19.3941 H   0  0  0  0  0  0
  -22.7619  -29.2362   19.8518 H   0  0  0  0  0  0
  -25.1303  -36.1894   25.0807 H   0  0  0  0  0  0
  -21.0002  -28.3265   24.1391 H   0  0  0  0  0  0
  -20.5675  -26.2300   23.3614 H   0  0  0  0  0  0
  -21.6647  -26.7436   22.1208 H   0  0  0  0  0  0
  -19.6917  -25.6288   21.1245 H   0  0  0  0  0  0
  -19.6689  -27.3187   20.6741 H   0  0  0  0  0  0
  -17.4210  -26.6674   21.4032 H   0  0  0  0  0  0
  -18.0338  -26.0058   22.9019 H   0  0  0  0  0  0
  -19.7942  -30.7265   24.2264 H   0  0  0  0  0  0
  -17.5027  -31.6269   24.5159 H   0  0  0  0  0  0
  -15.5362  -30.2997   23.7640 H   0  0  0  0  0  0
  -15.8681  -28.0817   22.7085 H   0  0  0  0  0  0
  -24.5894  -30.7098   25.7763 H   0  0  0  0  0  0
  -24.8940  -32.2923   26.4823 H   0  0  0  0  0  0
  -25.8048  -30.8937   27.0209 H   0  0  0  0  0  0
  -26.2925  -29.6726   24.1206 H   0  0  0  0  0  0
  -27.4013  -29.7244   25.4707 H   0  0  0  0  0  0
  -27.8806  -30.4236   23.9431 H   0  0  0  0  0  0
  -27.2627  -33.3617   26.2041 H   0  0  0  0  0  0
  -28.3873  -32.6876   25.0337 H   0  0  0  0  0  0
  -28.0683  -31.8456   26.5428 H   0  0  0  0  0  0
  -28.2583  -38.0102   24.7512 H   0  0  0  0  0  0
  -28.1084  -36.2633   24.6281 H   0  0  0  0  0  0
  -27.2301  -37.1434   25.8867 H   0  0  0  0  0  0
  -20.9362  -29.8764   21.6872 H   0  0  0  0  0  0
  -26.0158  -38.2829   24.1414 H   0  0  0  0  0  0
  -27.3683  -21.0306   21.2330 H   0  0  0  0  0  0
  -30.7338  -22.8914   19.5040 H   0  0  0  0  0  0
  -28.1091  -18.1749   20.0890 H   0  0  0  0  0  0
  -28.6586  -18.3602   21.7173 H   0  0  0  0  0  0
  -27.2020  -23.6226   20.9457 H   0  0  0  0  0  0
  -28.7119  -24.0430   21.6756 H   0  0  0  0  0  0
  -31.0046  -17.5708   21.0094 H   0  0  0  0  0  0
  -30.4300  -17.3998   19.3770 H   0  0  0  0  0  0
  -27.8029  -24.8555   18.8480 H   0  0  0  0  0  0
  -29.4382  -24.9319   19.3265 H   0  0  0  0  0  0
  -28.8393  -15.6417   20.9178 H   0  0  0  0  0  0
  1 25  1  0  0  0
  1 30  2  0  0  0
  1 80  1  0  0  0
  2  3  1  0  0  0
  2 25  1  0  0  0
  2 82  1  0  0  0
  2 83  1  0  0  0
  3  4  1  0  0  0
  3 84  1  0  0  0
  3 85  1  0  0  0
  4  5  1  0  0  0
  4 86  1  0  0  0
  4 87  1  0  0  0
  5  6  1  0  0  0
  5 26  1  0  0  0
  5 88  1  0  0  0
  6 25  1  0  0  0
  6 89  1  0  0  0
  6 90  1  0  0  0
  7  8  2  0  0  0
  7 26  1  0  0  0
  7 29  1  0  0  0
  8  9  1  0  0  0
  8 22  1  0  0  0
  9 10  1  0  0  0
  9 27  2  0  0  0
 10 11  2  0  0  0
 10 15  1  0  0  0
 11 12  1  0  0  0
 11 91  1  0  0  0
 12 13  2  0  0  0
 12 92  1  0  0  0
 13 14  1  0  0  0
 13 31  1  0  0  0
 14 15  2  0  0  0
 14 93  1  0  0  0
 15 94  1  0  0  0
 16 17  2  0  0  0
 16 21  1  0  0  0
 16 31  1  0  0  0
 17 18  1  0  0  0
 17 95  1  0  0  0
 18 19  2  0  0  0
 18 96  1  0  0  0
 19 20  1  0  0  0
 19 24  1  0  0  0
 20 21  2  0  0  0
 20 97  1  0  0  0
 21 23  1  0  0  0
 22 28  1  0  0  0
 22 32  2  0  0  0
 26 27  1  0  0  0
 28 98  1  0  0  0
 28 99  1  0  0  0
 29100  1  0  0  0
 29101  1  0  0  0
 33 34  1  0  0  0
 33 66  1  0  0  0
 33 70  2  0  0  0
 34 36  1  0  0  0
 34 59  1  0  0  0
 34102  1  0  0  0
 35 44  2  0  0  0
 35 45  1  0  0  0
 35 68  1  0  0  0
 36 56  1  0  0  0
 36103  1  0  0  0
 37 39  1  0  0  0
 37 47  1  0  0  0
 37 66  1  0  0  0
 37104  1  0  0  0
 38 43  2  0  0  0
 38 46  1  0  0  0
 38 47  1  0  0  0
 39 64  1  0  0  0
 39 67  2  0  0  0
 40 52  1  0  0  0
 40 53  2  0  0  0
 40 58  1  0  0  0
 41105  1  0  0  0
 41106  1  0  0  0
 41107  1  0  0  0
 41 48  1  0  0  0
 42 43  1  0  0  0
 42 66  1  0  0  0
 42108  1  0  0  0
 42109  1  0  0  0
 43 44  1  0  0  0
 44110  1  0  0  0
 45 46  2  0  0  0
 45111  1  0  0  0
 46112  1  0  0  0
 47113  1  0  0  0
 47114  1  0  0  0
 48 56  1  0  0  0
 48 65  1  0  0  0
 48115  1  0  0  0
 49 50  1  0  0  0
 49 53  1  0  0  0
 49 64  1  0  0  0
 49116  1  0  0  0
 50 51  1  0  0  0
 50117  1  0  0  0
 50118  1  0  0  0
 51 52  1  0  0  0
 51119  1  0  0  0
 51120  1  0  0  0
 52121  1  0  0  0
 52122  1  0  0  0
 53 54  1  0  0  0
 54 55  2  0  0  0
 54123  1  0  0  0
 55 57  1  0  0  0
 55124  1  0  0  0
 56 69  2  0  0  0
 57 58  2  0  0  0
 57125  1  0  0  0
 58126  1  0  0  0
 59 60  1  0  0  0
 59 61  1  0  0  0
 59 62  1  0  0  0
 60127  1  0  0  0
 60128  1  0  0  0
 60129  1  0  0  0
 61130  1  0  0  0
 61131  1  0  0  0
 61132  1  0  0  0
 62133  1  0  0  0
 62134  1  0  0  0
 62135  1  0  0  0
 63 65  1  0  0  0
 63136  1  0  0  0
 63137  1  0  0  0
 63138  1  0  0  0
 64139  1  0  0  0
 65140  1  0  0  0
 68 78  1  0  0  0
 71 73  2  0  0  0
 71 79  1  0  0  0
 71141  1  0  0  0
 72 74  2  0  0  0
 72 79  1  0  0  0
 72142  1  0  0  0
 73 74  1  0  0  0
 73 75  1  0  0  0
 74 81  1  0  0  0
 75 77  1  0  0  0
 75143  1  0  0  0
 75144  1  0  0  0
 76 78  1  0  0  0
 76 79  1  0  0  0
 76145  1  0  0  0
 76146  1  0  0  0
 77 80  1  0  0  0
 77147  1  0  0  0
 77148  1  0  0  0
 78149  1  0  0  0
 78150  1  0  0  0
 80151  1  0  0  0
M  ISO  4   1 100  68 101  78 101  80 100
M  END
> <chiral flag>
0

> <version>
0

> <s_m_source_file>
/data/baiqing/PycharmProjects/Reinvent-master-3.2/result/LINK_invent/BTK/process_docking_weight1_custom_sum_contain_oxygen_bond_distance_aromatic_linkinvent_7_9_3/rearranged_h_0047.sdf

> <i_m_source_file_index>
21

> <r_mmod_Potential_Energy-OPLS-2005>
117.017768859863

> <r_mmod_Stretch_Energy-OPLS-2005>
117.228607177734

> <r_mmod_Bend_Energy-OPLS-2005>
180.001235961914

> <r_mmod_Torsional_Energy-OPLS-2005>
206.739120483398

> <r_mmod_Improper_Torsional_Energy-OPLS-2005>
5.98493337631226

> <r_mmod_Van_der_Waal_Energy-OPLS-2005>
111.776786804199

> <r_mmod_Electrostatic_Energy-OPLS-2005>
-360.121398925781

> <r_mmod_Solvation_Energy-OPLS-2005>
-221.29084777832

> <b_mmod_Minimization_Converged-OPLS-2005>
0

> <r_mmod_RMS_Derivative-OPLS-2005>
1.88235509395599

$$$$
21
                    3D
 Structure written by MMmdl.
157165  0  0  1  0            999 V2000
  -30.6201  -14.7230   20.4700 C   0  0  0  0  0  0
  -30.4371  -12.4404   19.4876 C   0  0  0  0  0  0
  -29.5153  -12.5058   18.2494 C   0  0  0  0  0  0
  -28.0413  -12.3302   18.6598 C   0  0  0  0  0  0
  -27.6473  -13.2270   19.8624 C   0  0  2  0  0  0
  -28.6901  -13.1491   21.0013 C   0  0  0  0  0  0
  -25.2509  -13.8155   20.5637 C   0  0  0  0  0  0
  -24.1796  -13.0421   20.9216 C   0  0  0  0  0  0
  -24.6388  -11.6906   20.8775 C   0  0  0  0  0  0
  -23.9056  -10.4287   21.0425 C   0  0  0  0  0  0
  -24.3606   -9.4191   21.9193 C   0  0  0  0  0  0
  -23.6288   -8.2219   22.0749 C   0  0  0  0  0  0
  -22.4270   -8.0266   21.3536 C   0  0  0  0  0  0
  -21.9904   -9.0241   20.4636 C   0  0  0  0  0  0
  -22.7232  -10.2124   20.3064 C   0  0  0  0  0  0
  -21.6842   -6.0716   22.5269 C   0  0  0  0  0  0
  -21.4008   -6.5627   23.8204 C   0  0  0  0  0  0
  -21.3670   -5.6778   24.9168 C   0  0  0  0  0  0
  -21.6042   -4.3042   24.7217 C   0  0  0  0  0  0
  -21.8824   -3.8134   23.4340 C   0  0  0  0  0  0
  -21.9191   -4.6949   22.3397 C   0  0  0  0  0  0
  -22.7823  -13.5208   21.1873 C   0  0  0  0  0  0
  -22.1659   -4.2137   21.0973 F   0  0  0  0  0  0
  -21.5641   -3.4528   25.7733 F   0  0  0  0  0  0
  -30.0013  -13.4944   20.4329 N   0  0  0  0  0  0
  -26.2958  -12.9363   20.3322 N   0  0  0  0  0  0
  -25.9326  -11.6511   20.5804 N   0  0  0  0  0  0
  -22.0466  -12.8208   22.0444 N   0  0  0  0  0  0
  -25.4169  -15.1824   20.3836 N   0  0  0  0  0  0
  -31.7830  -14.8430   20.0754 O   0  0  0  0  0  0
  -21.6634   -6.8864   21.4235 O   0  0  0  0  0  0
  -22.3508  -14.5504   20.6707 O   0  0  0  0  0  0
  -24.6317  -31.8551   23.1998 C   0  0  0  0  0  0
  -25.9143  -32.4761   23.8335 C   0  0  1  0  0  0
  -27.2225  -27.2756   20.1170 C   0  0  0  0  0  0
  -25.5941  -33.8565   24.2264 N   0  0  0  0  0  0
  -23.4272  -30.4772   21.5451 C   0  0  2  0  0  0
  -24.8758  -28.9342   20.1039 C   0  0  0  0  0  0
  -22.7512  -29.4578   22.4938 C   0  0  0  0  0  0
  -18.0298  -28.1388   22.8476 C   0  0  0  0  0  0
  -24.1486  -36.7291   23.2633 C   0  0  0  0  0  0
  -25.9719  -30.7718   21.3767 C   0  0  0  0  0  0
  -26.0461  -29.3964   20.7180 C   0  0  0  0  0  0
  -27.2227  -28.5801   20.7131 C   0  0  0  0  0  0
  -26.0301  -26.8882   19.4603 C   0  0  0  0  0  0
  -24.8746  -27.6902   19.4576 C   0  0  0  0  0  0
  -23.6441  -29.8156   20.1588 C   0  0  0  0  0  0
  -25.4117  -36.3086   24.0319 C   0  0  1  0  0  0
  -20.5897  -28.3683   23.1293 C   0  0  2  0  0  0
  -20.6793  -26.9397   22.5443 C   0  0  0  0  0  0
  -19.5784  -26.6370   21.5229 C   0  0  0  0  0  0
  -18.1942  -26.7934   22.1609 C   0  0  0  0  0  0
  -19.1543  -28.8855   23.2875 C   0  0  0  0  0  0
  -18.9453  -30.1454   23.8889 C   0  0  0  0  0  0
  -17.6448  -30.6578   24.0565 C   0  0  0  0  0  0
  -25.9051  -34.9448   23.5092 C   0  0  0  0  0  0
  -16.5345  -29.9076   23.6325 C   0  0  0  0  0  0
  -16.7276  -28.6504   23.0326 C   0  0  0  0  0  0
  -26.4513  -31.6571   25.0712 C   0  0  0  0  0  0
  -25.3734  -31.3706   26.1426 C   0  0  0  0  0  0
  -27.0327  -30.2988   24.6166 C   0  0  0  0  0  0
  -27.6079  -32.4293   25.7480 C   0  0  0  0  0  0
  -27.5582  -37.1807   24.8470 C   0  0  0  0  0  0
  -21.4223  -29.3025   22.3687 N   0  0  0  0  0  0
  -26.4298  -37.3786   23.9403 N   0  0  0  0  0  0
  -24.6967  -31.0510   22.0975 N   0  0  0  0  0  0
  -23.4220  -28.8111   23.3028 O   0  0  0  0  0  0
  -28.3137  -26.3760   20.1879 O   0  0  0  0  0  0
  -26.5620  -34.8921   22.4663 O   0  0  0  0  0  0
  -23.5465  -32.1373   23.7292 O   0  0  0  0  0  0
  -27.2233  -21.9395   20.0017 C   0  0  0  0  0  0
  -28.5710  -22.2050   20.3314 C   0  0  0  0  0  0
  -27.4991  -19.6611   20.3663 C   0  0  0  0  0  0
  -28.8910  -19.8199   20.6205 C   0  0  0  0  0  0
  -26.3531  -18.1628   22.0717 C   0  0  0  0  0  0
  -29.0501  -23.7212   20.4466 C   0  0  0  0  0  0
  -26.7543  -18.3539   20.6000 C   0  0  0  0  0  0
  -29.7484  -18.5615   21.1041 C   0  0  0  0  0  0
  -29.9889  -17.2610   20.1698 C   0  0  0  0  0  0
  -28.0314  -24.9088   20.0277 C   0  0  0  0  0  0
  -26.6944  -20.6966   20.0296 N   0  0  0  0  0  0
  -29.4101  -21.1199   20.6150 N   0  0  0  0  0  0
  -29.8477  -15.8404   20.7298 N   0  0  0  0  0  0
  -31.4773  -12.5615   19.1833 H   0  0  0  0  0  0
  -30.3796  -11.4609   19.9650 H   0  0  0  0  0  0
  -29.7973  -11.7351   17.5301 H   0  0  0  0  0  0
  -29.6442  -13.4638   17.7432 H   0  0  0  0  0  0
  -27.8998  -11.2808   18.9208 H   0  0  0  0  0  0
  -27.3829  -12.5223   17.8115 H   0  0  0  0  0  0
  -27.6477  -14.2511   19.4894 H   0  0  0  0  0  0
  -28.7157  -12.1488   21.4360 H   0  0  0  0  0  0
  -28.4236  -13.8255   21.8151 H   0  0  0  0  0  0
  -25.2746   -9.5664   22.4769 H   0  0  0  0  0  0
  -23.9992   -7.4605   22.7456 H   0  0  0  0  0  0
  -21.0835   -8.8749   19.8942 H   0  0  0  0  0  0
  -22.3686  -10.9657   19.6175 H   0  0  0  0  0  0
  -21.1996   -7.6129   23.9706 H   0  0  0  0  0  0
  -21.1497   -6.0507   25.9070 H   0  0  0  0  0  0
  -22.0605   -2.7596   23.2836 H   0  0  0  0  0  0
  -22.4081  -11.9870   22.4825 H   0  0  0  0  0  0
  -21.1091  -13.1247   22.2666 H   0  0  0  0  0  0
  -24.6361  -15.8263   20.4424 H   0  0  0  0  0  0
  -26.2352  -15.5899   19.9556 H   0  0  0  0  0  0
  -26.7206  -32.5427   23.1077 H   0  0  0  0  0  0
  -25.0111  -33.9697   25.0428 H   0  0  0  0  0  0
  -22.7222  -31.2985   21.4043 H   0  0  0  0  0  0
  -23.3747  -35.9620   23.3299 H   0  0  0  0  0  0
  -24.3580  -36.8914   22.2047 H   0  0  0  0  0  0
  -23.7235  -37.6494   23.6650 H   0  0  0  0  0  0
  -26.1012  -31.5290   20.6022 H   0  0  0  0  0  0
  -26.8541  -30.8277   22.0023 H   0  0  0  0  0  0
  -28.1174  -28.9291   21.2091 H   0  0  0  0  0  0
  -25.9559  -25.9417   18.9461 H   0  0  0  0  0  0
  -23.9871  -27.3417   18.9466 H   0  0  0  0  0  0
  -23.7604  -30.5946   19.4044 H   0  0  0  0  0  0
  -22.7641  -29.2449   19.8582 H   0  0  0  0  0  0
  -25.1296  -36.1935   25.0810 H   0  0  0  0  0  0
  -20.9959  -28.3265   24.1423 H   0  0  0  0  0  0
  -20.5701  -26.2279   23.3639 H   0  0  0  0  0  0
  -21.6661  -26.7424   22.1248 H   0  0  0  0  0  0
  -19.6950  -25.6277   21.1265 H   0  0  0  0  0  0
  -19.6744  -27.3170   20.6751 H   0  0  0  0  0  0
  -17.4242  -26.6698   21.3974 H   0  0  0  0  0  0
  -18.0292  -26.0069   22.8989 H   0  0  0  0  0  0
  -19.7918  -30.7287   24.2243 H   0  0  0  0  0  0
  -17.4981  -31.6254   24.5175 H   0  0  0  0  0  0
  -15.5346  -30.2973   23.7633 H   0  0  0  0  0  0
  -15.8681  -28.0839   22.6999 H   0  0  0  0  0  0
  -24.5951  -30.7005   25.7763 H   0  0  0  0  0  0
  -24.8867  -32.2859   26.4811 H   0  0  0  0  0  0
  -25.8058  -30.8936   27.0229 H   0  0  0  0  0  0
  -26.2884  -29.6762   24.1192 H   0  0  0  0  0  0
  -27.4021  -29.7229   25.4660 H   0  0  0  0  0  0
  -27.8763  -30.4265   23.9376 H   0  0  0  0  0  0
  -27.2720  -33.3620   26.2029 H   0  0  0  0  0  0
  -28.3908  -32.6812   25.0310 H   0  0  0  0  0  0
  -28.0721  -31.8425   26.5420 H   0  0  0  0  0  0
  -28.2610  -38.0094   24.7512 H   0  0  0  0  0  0
  -28.1063  -36.2631   24.6303 H   0  0  0  0  0  0
  -27.2292  -37.1465   25.8870 H   0  0  0  0  0  0
  -20.9405  -29.8739   21.6890 H   0  0  0  0  0  0
  -26.0170  -38.2855   24.1411 H   0  0  0  0  0  0
  -26.5280  -22.7275   19.7572 H   0  0  0  0  0  0
  -25.8350  -17.2152   22.2141 H   0  0  0  0  0  0
  -25.6869  -18.9566   22.4068 H   0  0  0  0  0  0
  -27.2172  -18.1569   22.7345 H   0  0  0  0  0  0
  -29.9708  -23.8276   19.8746 H   0  0  0  0  0  0
  -29.3287  -23.8744   21.4893 H   0  0  0  0  0  0
  -27.3311  -17.5024   20.2542 H   0  0  0  0  0  0
  -25.8502  -18.3502   19.9870 H   0  0  0  0  0  0
  -29.3124  -18.2237   22.0414 H   0  0  0  0  0  0
  -30.7280  -18.9389   21.3998 H   0  0  0  0  0  0
  -30.9683  -17.3632   19.7026 H   0  0  0  0  0  0
  -29.3014  -17.3128   19.3262 H   0  0  0  0  0  0
  -27.1137  -24.7203   20.5866 H   0  0  0  0  0  0
  -27.7965  -24.7480   18.9743 H   0  0  0  0  0  0
  -28.9448  -15.6258   21.1262 H   0  0  0  0  0  0
  1 25  1  0  0  0
  1 30  2  0  0  0
  1 83  1  0  0  0
  2  3  1  0  0  0
  2 25  1  0  0  0
  2 84  1  0  0  0
  2 85  1  0  0  0
  3  4  1  0  0  0
  3 86  1  0  0  0
  3 87  1  0  0  0
  4  5  1  0  0  0
  4 88  1  0  0  0
  4 89  1  0  0  0
  5  6  1  0  0  0
  5 26  1  0  0  0
  5 90  1  0  0  0
  6 25  1  0  0  0
  6 91  1  0  0  0
  6 92  1  0  0  0
  7  8  2  0  0  0
  7 26  1  0  0  0
  7 29  1  0  0  0
  8  9  1  0  0  0
  8 22  1  0  0  0
  9 10  1  0  0  0
  9 27  2  0  0  0
 10 11  2  0  0  0
 10 15  1  0  0  0
 11 12  1  0  0  0
 11 93  1  0  0  0
 12 13  2  0  0  0
 12 94  1  0  0  0
 13 14  1  0  0  0
 13 31  1  0  0  0
 14 15  2  0  0  0
 14 95  1  0  0  0
 15 96  1  0  0  0
 16 17  2  0  0  0
 16 21  1  0  0  0
 16 31  1  0  0  0
 17 18  1  0  0  0
 17 97  1  0  0  0
 18 19  2  0  0  0
 18 98  1  0  0  0
 19 20  1  0  0  0
 19 24  1  0  0  0
 20 21  2  0  0  0
 20 99  1  0  0  0
 21 23  1  0  0  0
 22 28  1  0  0  0
 22 32  2  0  0  0
 26 27  1  0  0  0
 28100  1  0  0  0
 28101  1  0  0  0
 29102  1  0  0  0
 29103  1  0  0  0
 33 34  1  0  0  0
 33 66  1  0  0  0
 33 70  2  0  0  0
 34 36  1  0  0  0
 34 59  1  0  0  0
 34104  1  0  0  0
 35 44  2  0  0  0
 35 45  1  0  0  0
 35 68  1  0  0  0
 36 56  1  0  0  0
 36105  1  0  0  0
 37 39  1  0  0  0
 37 47  1  0  0  0
 37 66  1  0  0  0
 37106  1  0  0  0
 38 43  2  0  0  0
 38 46  1  0  0  0
 38 47  1  0  0  0
 39 64  1  0  0  0
 39 67  2  0  0  0
 40 52  1  0  0  0
 40 53  2  0  0  0
 40 58  1  0  0  0
 41107  1  0  0  0
 41108  1  0  0  0
 41109  1  0  0  0
 41 48  1  0  0  0
 42 43  1  0  0  0
 42 66  1  0  0  0
 42110  1  0  0  0
 42111  1  0  0  0
 43 44  1  0  0  0
 44112  1  0  0  0
 45 46  2  0  0  0
 45113  1  0  0  0
 46114  1  0  0  0
 47115  1  0  0  0
 47116  1  0  0  0
 48 56  1  0  0  0
 48 65  1  0  0  0
 48117  1  0  0  0
 49 50  1  0  0  0
 49 53  1  0  0  0
 49 64  1  0  0  0
 49118  1  0  0  0
 50 51  1  0  0  0
 50119  1  0  0  0
 50120  1  0  0  0
 51 52  1  0  0  0
 51121  1  0  0  0
 51122  1  0  0  0
 52123  1  0  0  0
 52124  1  0  0  0
 53 54  1  0  0  0
 54 55  2  0  0  0
 54125  1  0  0  0
 55 57  1  0  0  0
 55126  1  0  0  0
 56 69  2  0  0  0
 57 58  2  0  0  0
 57127  1  0  0  0
 58128  1  0  0  0
 59 60  1  0  0  0
 59 61  1  0  0  0
 59 62  1  0  0  0
 60129  1  0  0  0
 60130  1  0  0  0
 60131  1  0  0  0
 61132  1  0  0  0
 61133  1  0  0  0
 61134  1  0  0  0
 62135  1  0  0  0
 62136  1  0  0  0
 62137  1  0  0  0
 63 65  1  0  0  0
 63138  1  0  0  0
 63139  1  0  0  0
 63140  1  0  0  0
 64141  1  0  0  0
 65142  1  0  0  0
 68 80  1  0  0  0
 71 72  2  0  0  0
 71 81  1  0  0  0
 71143  1  0  0  0
 72 76  1  0  0  0
 72 82  1  0  0  0
 73 74  1  0  0  0
 73 77  1  0  0  0
 73 81  2  0  0  0
 74 78  1  0  0  0
 74 82  2  0  0  0
 75 77  1  0  0  0
 75144  1  0  0  0
 75145  1  0  0  0
 75146  1  0  0  0
 76 80  1  0  0  0
 76147  1  0  0  0
 76148  1  0  0  0
 77149  1  0  0  0
 77150  1  0  0  0
 78 79  1  0  0  0
 78151  1  0  0  0
 78152  1  0  0  0
 79 83  1  0  0  0
 79153  1  0  0  0
 79154  1  0  0  0
 80155  1  0  0  0
 80156  1  0  0  0
 83157  1  0  0  0
M  ISO  4   1 100  68 101  80 101  83 100
M  END
> <chiral flag>
0

> <version>
0

> <s_m_source_file>
/data/baiqing/PycharmProjects/Reinvent-master-3.2/result/LINK_invent/BTK/process_docking_weight1_custom_sum_contain_oxygen_bond_distance_aromatic_linkinvent_7_9_3/rearranged_h_0047.sdf

> <i_m_source_file_index>
22

> <r_mmod_Potential_Energy-OPLS-2005>
184.243743896484

> <r_mmod_Stretch_Energy-OPLS-2005>
124.332847595215

> <r_mmod_Bend_Energy-OPLS-2005>
162.233901977539

> <r_mmod_Torsional_Energy-OPLS-2005>
219.738723754883

> <r_mmod_Improper_Torsional_Energy-OPLS-2005>
8.1666202545166

> <r_mmod_Van_der_Waal_Energy-OPLS-2005>
143.855346679688

> <r_mmod_Electrostatic_Energy-OPLS-2005>
-323.174591064453

> <r_mmod_Solvation_Energy-OPLS-2005>
-228.818054199219

> <b_mmod_Minimization_Converged-OPLS-2005>
0

> <r_mmod_RMS_Derivative-OPLS-2005>
2.30716037750244

$$$$
22
                    3D
 Structure written by MMmdl.
160168  0  0  1  0            999 V2000
  -30.6979  -14.4832   20.5949 C   0  0  0  0  0  0
  -30.4244  -12.3279   19.4117 C   0  0  0  0  0  0
  -29.4901  -12.5099   18.1984 C   0  0  0  0  0  0
  -28.0131  -12.3624   18.6157 C   0  0  0  0  0  0
  -27.6577  -13.2065   19.8687 C   0  0  2  0  0  0
  -28.6996  -12.9919   20.9871 C   0  0  0  0  0  0
  -25.2577  -13.8159   20.5671 C   0  0  0  0  0  0
  -24.1829  -13.0438   20.9179 C   0  0  0  0  0  0
  -24.6381  -11.6905   20.8727 C   0  0  0  0  0  0
  -23.9050  -10.4294   21.0400 C   0  0  0  0  0  0
  -24.3608   -9.4211   21.9178 C   0  0  0  0  0  0
  -23.6288   -8.2243   22.0748 C   0  0  0  0  0  0
  -22.4269   -8.0280   21.3540 C   0  0  0  0  0  0
  -21.9902   -9.0249   20.4641 C   0  0  0  0  0  0
  -22.7224  -10.2134   20.3049 C   0  0  0  0  0  0
  -21.6854   -6.0735   22.5280 C   0  0  0  0  0  0
  -21.4013   -6.5640   23.8213 C   0  0  0  0  0  0
  -21.3659   -5.6793   24.9174 C   0  0  0  0  0  0
  -21.6044   -4.3054   24.7226 C   0  0  0  0  0  0
  -21.8821   -3.8147   23.4346 C   0  0  0  0  0  0
  -21.9192   -4.6963   22.3400 C   0  0  0  0  0  0
  -22.7857  -13.5239   21.1851 C   0  0  0  0  0  0
  -22.1663   -4.2150   21.0978 F   0  0  0  0  0  0
  -21.5628   -3.4538   25.7738 F   0  0  0  0  0  0
  -30.0254  -13.3110   20.4307 N   0  0  0  0  0  0
  -26.2999  -12.9325   20.3333 N   0  0  0  0  0  0
  -25.9304  -11.6484   20.5741 N   0  0  0  0  0  0
  -22.0497  -12.8224   22.0409 N   0  0  0  0  0  0
  -25.4312  -15.1873   20.4088 N   0  0  0  0  0  0
  -31.8244  -14.6796   20.1308 O   0  0  0  0  0  0
  -21.6636   -6.8875   21.4240 O   0  0  0  0  0  0
  -22.3548  -14.5551   20.6715 O   0  0  0  0  0  0
  -24.6158  -31.8688   23.2087 C   0  0  0  0  0  0
  -25.9047  -32.4825   23.8393 C   0  0  1  0  0  0
  -27.2326  -27.4141   20.1004 C   0  0  0  0  0  0
  -25.5900  -33.8628   24.2330 N   0  0  0  0  0  0
  -23.4043  -30.4893   21.5517 C   0  0  2  0  0  0
  -24.8497  -28.9511   20.1219 C   0  0  0  0  0  0
  -22.7415  -29.4646   22.5006 C   0  0  0  0  0  0
  -18.0269  -28.1362   22.8490 C   0  0  0  0  0  0
  -24.1490  -36.7306   23.2637 C   0  0  0  0  0  0
  -25.9348  -30.8267   21.3660 C   0  0  0  0  0  0
  -26.0123  -29.4581   20.7153 C   0  0  0  0  0  0
  -27.2076  -28.6989   20.6976 C   0  0  0  0  0  0
  -26.0522  -26.9302   19.4970 C   0  0  0  0  0  0
  -24.8654  -27.6870   19.5088 C   0  0  0  0  0  0
  -23.6131  -29.8200   20.1680 C   0  0  0  0  0  0
  -25.4112  -36.3120   24.0339 C   0  0  1  0  0  0
  -20.5856  -28.3657   23.1316 C   0  0  2  0  0  0
  -20.6762  -26.9397   22.5414 C   0  0  0  0  0  0
  -19.5745  -26.6381   21.5203 C   0  0  0  0  0  0
  -18.1918  -26.7908   22.1615 C   0  0  0  0  0  0
  -19.1516  -28.8828   23.2896 C   0  0  0  0  0  0
  -18.9454  -30.1432   23.8908 C   0  0  0  0  0  0
  -17.6458  -30.6580   24.0553 C   0  0  0  0  0  0
  -25.9033  -34.9484   23.5133 C   0  0  0  0  0  0
  -16.5347  -29.9080   23.6323 C   0  0  0  0  0  0
  -16.7257  -28.6491   23.0350 C   0  0  0  0  0  0
  -26.4480  -31.6597   25.0719 C   0  0  0  0  0  0
  -25.3732  -31.3701   26.1458 C   0  0  0  0  0  0
  -27.0320  -30.3040   24.6091 C   0  0  0  0  0  0
  -27.6060  -32.4321   25.7478 C   0  0  0  0  0  0
  -27.5592  -37.1804   24.8469 C   0  0  0  0  0  0
  -21.4145  -29.3026   22.3739 N   0  0  0  0  0  0
  -26.4311  -37.3794   23.9402 N   0  0  0  0  0  0
  -24.6697  -31.0762   22.1002 N   0  0  0  0  0  0
  -23.4182  -28.8198   23.3066 O   0  0  0  0  0  0
  -28.4095  -26.6906   20.0547 O   0  0  0  0  0  0
  -26.5606  -34.8944   22.4699 O   0  0  0  0  0  0
  -23.5346  -32.1465   23.7461 O   0  0  0  0  0  0
  -29.5435  -20.7936   19.3700 C   0  0  0  0  0  0
  -27.8337  -22.0625   21.0443 C   0  0  0  0  0  0
  -28.9090  -20.0871   20.4295 C   0  0  0  0  0  0
  -28.4501  -22.7632   19.9709 C   0  0  0  0  0  0
  -30.4744  -20.1177   18.3839 C   0  0  0  0  0  0
  -26.8272  -22.7114   21.9755 C   0  0  0  0  0  0
  -29.0220  -18.5615   20.6506 C   0  0  0  0  0  0
  -28.0861  -24.2073   19.5668 C   0  0  0  0  0  0
  -30.4490  -17.9912   20.8682 C   0  0  0  0  0  0
  -30.5746  -16.7206   21.7608 C   0  0  0  0  0  0
  -28.4203  -25.3415   20.5787 C   0  0  0  0  0  0
  -28.0791  -20.7460   21.2786 N   0  0  0  0  0  0
  -29.3278  -22.1199   19.1577 N   0  0  0  0  0  0
  -30.0204  -15.4617   21.2294 N   0  0  0  0  0  0
  -31.4658  -12.4422   19.1056 H   0  0  0  0  0  0
  -30.3411  -11.3168   19.8127 H   0  0  0  0  0  0
  -29.7330  -11.7820   17.4229 H   0  0  0  0  0  0
  -29.6493  -13.4940   17.7545 H   0  0  0  0  0  0
  -27.8310  -11.3065   18.8178 H   0  0  0  0  0  0
  -27.3588  -12.6277   17.7844 H   0  0  0  0  0  0
  -27.7004  -14.2536   19.5681 H   0  0  0  0  0  0
  -28.6837  -11.9547   21.3247 H   0  0  0  0  0  0
  -28.4534  -13.5852   21.8685 H   0  0  0  0  0  0
  -25.2755   -9.5692   22.4750 H   0  0  0  0  0  0
  -24.0004   -7.4634   22.7464 H   0  0  0  0  0  0
  -21.0837   -8.8763   19.8942 H   0  0  0  0  0  0
  -22.3681  -10.9669   19.6158 H   0  0  0  0  0  0
  -21.2007   -7.6150   23.9717 H   0  0  0  0  0  0
  -21.1480   -6.0522   25.9078 H   0  0  0  0  0  0
  -22.0600   -2.7610   23.2845 H   0  0  0  0  0  0
  -22.4115  -11.9881   22.4786 H   0  0  0  0  0  0
  -21.1113  -13.1246   22.2614 H   0  0  0  0  0  0
  -24.6667  -15.8448   20.5167 H   0  0  0  0  0  0
  -26.2864  -15.6232   20.0881 H   0  0  0  0  0  0
  -26.7113  -32.5544   23.1154 H   0  0  0  0  0  0
  -25.0061  -33.9793   25.0484 H   0  0  0  0  0  0
  -22.6920  -31.3052   21.4115 H   0  0  0  0  0  0
  -23.3765  -35.9628   23.3326 H   0  0  0  0  0  0
  -24.3582  -36.8896   22.2048 H   0  0  0  0  0  0
  -23.7240  -37.6512   23.6640 H   0  0  0  0  0  0
  -26.0466  -31.5930   20.5979 H   0  0  0  0  0  0
  -26.8208  -30.8808   21.9866 H   0  0  0  0  0  0
  -28.1098  -29.0927   21.1453 H   0  0  0  0  0  0
  -26.0359  -25.9855   18.9812 H   0  0  0  0  0  0
  -23.9751  -27.2968   19.0347 H   0  0  0  0  0  0
  -23.7229  -30.5939   19.4073 H   0  0  0  0  0  0
  -22.7371  -29.2389   19.8735 H   0  0  0  0  0  0
  -25.1286  -36.1994   25.0832 H   0  0  0  0  0  0
  -20.9928  -28.3236   24.1440 H   0  0  0  0  0  0
  -20.5663  -26.2267   23.3602 H   0  0  0  0  0  0
  -21.6634  -26.7449   22.1203 H   0  0  0  0  0  0
  -19.6920  -25.6295   21.1229 H   0  0  0  0  0  0
  -19.6684  -27.3198   20.6740 H   0  0  0  0  0  0
  -17.4184  -26.6652   21.4017 H   0  0  0  0  0  0
  -18.0322  -26.0038   22.9001 H   0  0  0  0  0  0
  -19.7939  -30.7225   24.2290 H   0  0  0  0  0  0
  -17.5025  -31.6262   24.5156 H   0  0  0  0  0  0
  -15.5348  -30.2988   23.7645 H   0  0  0  0  0  0
  -15.8651  -28.0816   22.7064 H   0  0  0  0  0  0
  -24.5903  -30.7059   25.7781 H   0  0  0  0  0  0
  -24.8919  -32.2852   26.4917 H   0  0  0  0  0  0
  -25.8068  -30.8858   27.0212 H   0  0  0  0  0  0
  -26.2871  -29.6783   24.1163 H   0  0  0  0  0  0
  -27.4113  -29.7296   25.4549 H   0  0  0  0  0  0
  -27.8693  -30.4358   23.9235 H   0  0  0  0  0  0
  -27.2683  -33.3618   26.2078 H   0  0  0  0  0  0
  -28.3853  -32.6886   25.0286 H   0  0  0  0  0  0
  -28.0744  -31.8424   26.5371 H   0  0  0  0  0  0
  -28.2612  -38.0104   24.7522 H   0  0  0  0  0  0
  -28.1093  -36.2631   24.6294 H   0  0  0  0  0  0
  -27.2301  -37.1441   25.8873 H   0  0  0  0  0  0
  -20.9315  -29.8764   21.6965 H   0  0  0  0  0  0
  -26.0217  -38.2879   24.1395 H   0  0  0  0  0  0
  -30.0556  -19.1733   18.0378 H   0  0  0  0  0  0
  -31.4396  -19.9225   18.8511 H   0  0  0  0  0  0
  -30.6479  -20.7423   17.5069 H   0  0  0  0  0  0
  -27.3393  -23.3230   22.7181 H   0  0  0  0  0  0
  -26.2409  -21.9627   22.5099 H   0  0  0  0  0  0
  -26.1308  -23.3422   21.4239 H   0  0  0  0  0  0
  -28.5511  -18.0512   19.8100 H   0  0  0  0  0  0
  -28.4134  -18.3071   21.5190 H   0  0  0  0  0  0
  -27.0222  -24.1948   19.3473 H   0  0  0  0  0  0
  -28.5788  -24.4367   18.6215 H   0  0  0  0  0  0
  -31.0340  -18.7678   21.3615 H   0  0  0  0  0  0
  -30.9407  -17.8215   19.9110 H   0  0  0  0  0  0
  -30.0967  -16.9113   22.7224 H   0  0  0  0  0  0
  -31.6296  -16.5657   21.9962 H   0  0  0  0  0  0
  -29.4370  -25.1763   20.9368 H   0  0  0  0  0  0
  -27.7828  -25.2817   21.4606 H   0  0  0  0  0  0
  -29.0824  -15.2254   21.5181 H   0  0  0  0  0  0
  1 25  1  0  0  0
  1 30  2  0  0  0
  1 84  1  0  0  0
  2  3  1  0  0  0
  2 25  1  0  0  0
  2 85  1  0  0  0
  2 86  1  0  0  0
  3  4  1  0  0  0
  3 87  1  0  0  0
  3 88  1  0  0  0
  4  5  1  0  0  0
  4 89  1  0  0  0
  4 90  1  0  0  0
  5  6  1  0  0  0
  5 26  1  0  0  0
  5 91  1  0  0  0
  6 25  1  0  0  0
  6 92  1  0  0  0
  6 93  1  0  0  0
  7  8  2  0  0  0
  7 26  1  0  0  0
  7 29  1  0  0  0
  8  9  1  0  0  0
  8 22  1  0  0  0
  9 10  1  0  0  0
  9 27  2  0  0  0
 10 11  2  0  0  0
 10 15  1  0  0  0
 11 12  1  0  0  0
 11 94  1  0  0  0
 12 13  2  0  0  0
 12 95  1  0  0  0
 13 14  1  0  0  0
 13 31  1  0  0  0
 14 15  2  0  0  0
 14 96  1  0  0  0
 15 97  1  0  0  0
 16 17  2  0  0  0
 16 21  1  0  0  0
 16 31  1  0  0  0
 17 18  1  0  0  0
 17 98  1  0  0  0
 18 19  2  0  0  0
 18 99  1  0  0  0
 19 20  1  0  0  0
 19 24  1  0  0  0
 20 21  2  0  0  0
 20100  1  0  0  0
 21 23  1  0  0  0
 22 28  1  0  0  0
 22 32  2  0  0  0
 26 27  1  0  0  0
 28101  1  0  0  0
 28102  1  0  0  0
 29103  1  0  0  0
 29104  1  0  0  0
 33 34  1  0  0  0
 33 66  1  0  0  0
 33 70  2  0  0  0
 34 36  1  0  0  0
 34 59  1  0  0  0
 34105  1  0  0  0
 35 44  2  0  0  0
 35 45  1  0  0  0
 35 68  1  0  0  0
 36 56  1  0  0  0
 36106  1  0  0  0
 37 39  1  0  0  0
 37 47  1  0  0  0
 37 66  1  0  0  0
 37107  1  0  0  0
 38 43  2  0  0  0
 38 46  1  0  0  0
 38 47  1  0  0  0
 39 64  1  0  0  0
 39 67  2  0  0  0
 40 52  1  0  0  0
 40 53  2  0  0  0
 40 58  1  0  0  0
 41108  1  0  0  0
 41109  1  0  0  0
 41110  1  0  0  0
 41 48  1  0  0  0
 42 43  1  0  0  0
 42 66  1  0  0  0
 42111  1  0  0  0
 42112  1  0  0  0
 43 44  1  0  0  0
 44113  1  0  0  0
 45 46  2  0  0  0
 45114  1  0  0  0
 46115  1  0  0  0
 47116  1  0  0  0
 47117  1  0  0  0
 48 56  1  0  0  0
 48 65  1  0  0  0
 48118  1  0  0  0
 49 50  1  0  0  0
 49 53  1  0  0  0
 49 64  1  0  0  0
 49119  1  0  0  0
 50 51  1  0  0  0
 50120  1  0  0  0
 50121  1  0  0  0
 51 52  1  0  0  0
 51122  1  0  0  0
 51123  1  0  0  0
 52124  1  0  0  0
 52125  1  0  0  0
 53 54  1  0  0  0
 54 55  2  0  0  0
 54126  1  0  0  0
 55 57  1  0  0  0
 55127  1  0  0  0
 56 69  2  0  0  0
 57 58  2  0  0  0
 57128  1  0  0  0
 58129  1  0  0  0
 59 60  1  0  0  0
 59 61  1  0  0  0
 59 62  1  0  0  0
 60130  1  0  0  0
 60131  1  0  0  0
 60132  1  0  0  0
 61133  1  0  0  0
 61134  1  0  0  0
 61135  1  0  0  0
 62136  1  0  0  0
 62137  1  0  0  0
 62138  1  0  0  0
 63 65  1  0  0  0
 63139  1  0  0  0
 63140  1  0  0  0
 63141  1  0  0  0
 64142  1  0  0  0
 65143  1  0  0  0
 68 81  1  0  0  0
 71 73  2  0  0  0
 71 75  1  0  0  0
 71 83  1  0  0  0
 72 74  1  0  0  0
 72 76  1  0  0  0
 72 82  2  0  0  0
 73 77  1  0  0  0
 73 82  1  0  0  0
 74 78  1  0  0  0
 74 83  2  0  0  0
 75144  1  0  0  0
 75145  1  0  0  0
 75146  1  0  0  0
 76147  1  0  0  0
 76148  1  0  0  0
 76149  1  0  0  0
 77 79  1  0  0  0
 77150  1  0  0  0
 77151  1  0  0  0
 78 81  1  0  0  0
 78152  1  0  0  0
 78153  1  0  0  0
 79 80  1  0  0  0
 79154  1  0  0  0
 79155  1  0  0  0
 80 84  1  0  0  0
 80156  1  0  0  0
 80157  1  0  0  0
 81158  1  0  0  0
 81159  1  0  0  0
 84160  1  0  0  0
M  ISO  4   1 100  68 101  81 101  84 100
M  END
> <chiral flag>
0

> <version>
0

> <s_m_source_file>
/data/baiqing/PycharmProjects/Reinvent-master-3.2/result/LINK_invent/BTK/process_docking_weight1_custom_sum_contain_oxygen_bond_distance_aromatic_linkinvent_7_9_3/rearranged_h_0047.sdf

> <i_m_source_file_index>
23

> <r_mmod_Potential_Energy-OPLS-2005>
-51.7948112487793

> <r_mmod_Stretch_Energy-OPLS-2005>
44.2139167785645

> <r_mmod_Bend_Energy-OPLS-2005>
112.529190063477

> <r_mmod_Torsional_Energy-OPLS-2005>
217.24626159668

> <r_mmod_Improper_Torsional_Energy-OPLS-2005>
3.1684627532959

> <r_mmod_Van_der_Waal_Energy-OPLS-2005>
150.443984985352

> <r_mmod_Electrostatic_Energy-OPLS-2005>
-370.294189453125

> <r_mmod_Solvation_Energy-OPLS-2005>
-222.69416809082

> <b_mmod_Minimization_Converged-OPLS-2005>
0

> <r_mmod_RMS_Derivative-OPLS-2005>
1.25639081001282

$$$$
23
                    3D
 Structure written by MMmdl.
154162  0  0  1  0            999 V2000
  -30.5465  -14.9685   20.4115 C   0  0  0  0  0  0
  -30.4392  -12.6048   19.4856 C   0  0  0  0  0  0
  -29.5169  -12.5268   18.2476 C   0  0  0  0  0  0
  -28.0512  -12.3127   18.6715 C   0  0  0  0  0  0
  -27.6261  -13.2511   19.8311 C   0  0  2  0  0  0
  -28.6728  -13.2969   20.9631 C   0  0  0  0  0  0
  -25.2457  -13.8219   20.5727 C   0  0  0  0  0  0
  -24.1776  -13.0438   20.9238 C   0  0  0  0  0  0
  -24.6393  -11.6924   20.8755 C   0  0  0  0  0  0
  -23.9078  -10.4292   21.0401 C   0  0  0  0  0  0
  -24.3626   -9.4207   21.9180 C   0  0  0  0  0  0
  -23.6300   -8.2243   22.0751 C   0  0  0  0  0  0
  -22.4283   -8.0279   21.3539 C   0  0  0  0  0  0
  -21.9920   -9.0254   20.4644 C   0  0  0  0  0  0
  -22.7247  -10.2133   20.3055 C   0  0  0  0  0  0
  -21.6856   -6.0736   22.5275 C   0  0  0  0  0  0
  -21.4012   -6.5641   23.8209 C   0  0  0  0  0  0
  -21.3659   -5.6794   24.9172 C   0  0  0  0  0  0
  -21.6045   -4.3058   24.7224 C   0  0  0  0  0  0
  -21.8819   -3.8148   23.4346 C   0  0  0  0  0  0
  -21.9194   -4.6963   22.3400 C   0  0  0  0  0  0
  -22.7794  -13.5207   21.1893 C   0  0  0  0  0  0
  -22.1665   -4.2150   21.0977 F   0  0  0  0  0  0
  -21.5630   -3.4543   25.7735 F   0  0  0  0  0  0
  -29.9406  -13.7129   20.3497 N   0  0  0  0  0  0
  -26.2879  -12.9460   20.3238 N   0  0  0  0  0  0
  -25.9328  -11.6586   20.5736 N   0  0  0  0  0  0
  -22.0450  -12.8186   22.0444 N   0  0  0  0  0  0
  -25.4107  -15.1950   20.4157 N   0  0  0  0  0  0
  -31.7636  -15.0116   20.2054 O   0  0  0  0  0  0
  -21.6643   -6.8878   21.4236 O   0  0  0  0  0  0
  -22.3475  -14.5509   20.6733 O   0  0  0  0  0  0
  -24.6468  -31.8414   23.1876 C   0  0  0  0  0  0
  -25.9226  -32.4683   23.8266 C   0  0  1  0  0  0
  -27.2134  -27.1086   20.1610 C   0  0  0  0  0  0
  -25.5954  -33.8491   24.2171 N   0  0  0  0  0  0
  -23.4518  -30.4611   21.5339 C   0  0  2  0  0  0
  -24.9017  -28.8844   20.1136 C   0  0  0  0  0  0
  -22.7582  -29.4531   22.4855 C   0  0  0  0  0  0
  -18.0302  -28.1383   22.8482 C   0  0  0  0  0  0
  -24.1484  -36.7247   23.2646 C   0  0  0  0  0  0
  -26.0106  -30.7059   21.3931 C   0  0  0  0  0  0
  -26.0806  -29.3148   20.7359 C   0  0  0  0  0  0
  -27.2391  -28.4450   20.7400 C   0  0  0  0  0  0
  -26.0119  -26.7927   19.4901 C   0  0  0  0  0  0
  -24.8818  -27.6377   19.4734 C   0  0  0  0  0  0
  -23.6810  -29.7913   20.1537 C   0  0  0  0  0  0
  -25.4120  -36.3021   24.0312 C   0  0  1  0  0  0
  -20.5917  -28.3716   23.1226 C   0  0  2  0  0  0
  -20.6786  -26.9415   22.5404 C   0  0  0  0  0  0
  -19.5754  -26.6369   21.5220 C   0  0  0  0  0  0
  -18.1933  -26.7920   22.1628 C   0  0  0  0  0  0
  -19.1560  -28.8868   23.2842 C   0  0  0  0  0  0
  -18.9483  -30.1464   23.8866 C   0  0  0  0  0  0
  -17.6479  -30.6585   24.0558 C   0  0  0  0  0  0
  -25.9077  -34.9399   23.5050 C   0  0  0  0  0  0
  -16.5368  -29.9081   23.6339 C   0  0  0  0  0  0
  -16.7287  -28.6497   23.0364 C   0  0  0  0  0  0
  -26.4532  -31.6570   25.0726 C   0  0  0  0  0  0
  -25.3699  -31.3777   26.1411 C   0  0  0  0  0  0
  -27.0416  -30.2957   24.6351 C   0  0  0  0  0  0
  -27.6043  -32.4366   25.7511 C   0  0  0  0  0  0
  -27.5566  -37.1783   24.8464 C   0  0  0  0  0  0
  -21.4270  -29.3041   22.3597 N   0  0  0  0  0  0
  -26.4275  -37.3743   23.9409 N   0  0  0  0  0  0
  -24.7231  -31.0243   22.0929 N   0  0  0  0  0  0
  -23.4211  -28.8089   23.3026 O   0  0  0  0  0  0
  -28.2556  -26.1021   20.1958 O   0  0  0  0  0  0
  -26.5674  -34.8911   22.4637 O   0  0  0  0  0  0
  -23.5579  -32.1303   23.7072 O   0  0  0  0  0  0
  -26.5495  -21.2012   22.4418 C   0  0  0  0  0  0
  -26.8056  -19.8304   22.3502 C   0  0  0  0  0  0
  -28.2751  -21.7002   20.9123 C   0  0  0  0  0  0
  -28.5845  -20.1940   20.8648 C   0  0  0  0  0  0
  -25.9676  -18.8186   23.1011 C   0  0  0  0  0  0
  -28.8143  -23.1257   20.2683 C   0  0  0  0  0  0
  -29.5469  -19.1403   20.0686 C   0  0  0  0  0  0
  -30.1729  -17.6962   20.7424 C   0  0  0  0  0  0
  -27.9343  -24.5888   20.4808 C   0  0  0  0  0  0
  -27.2729  -22.0943   21.7428 N   0  0  0  0  0  0
  -27.7965  -19.3522   21.5810 N   0  0  0  0  0  0
  -29.7818  -16.1723   20.5009 N   0  0  0  0  0  0
  -31.4696  -12.7683   19.1675 H   0  0  0  0  0  0
  -30.4412  -11.6596   20.0309 H   0  0  0  0  0  0
  -29.8362  -11.7208   17.5858 H   0  0  0  0  0  0
  -29.6010  -13.4490   17.6706 H   0  0  0  0  0  0
  -27.9499  -11.2731   18.9850 H   0  0  0  0  0  0
  -27.3859  -12.4381   17.8163 H   0  0  0  0  0  0
  -27.5824  -14.2494   19.3944 H   0  0  0  0  0  0
  -28.7692  -12.3274   21.4537 H   0  0  0  0  0  0
  -28.3732  -14.0093   21.7337 H   0  0  0  0  0  0
  -25.2767   -9.5686   22.4763 H   0  0  0  0  0  0
  -24.0007   -7.4635   22.7473 H   0  0  0  0  0  0
  -21.0850   -8.8770   19.8953 H   0  0  0  0  0  0
  -22.3695  -10.9673   19.6173 H   0  0  0  0  0  0
  -21.2000   -7.6149   23.9709 H   0  0  0  0  0  0
  -21.1483   -6.0526   25.9073 H   0  0  0  0  0  0
  -22.0599   -2.7611   23.2844 H   0  0  0  0  0  0
  -22.4080  -11.9853   22.4828 H   0  0  0  0  0  0
  -21.1063  -13.1191   22.2655 H   0  0  0  0  0  0
  -24.6396  -15.8436   20.5285 H   0  0  0  0  0  0
  -26.2524  -15.6395   20.0739 H   0  0  0  0  0  0
  -26.7297  -32.5285   23.0998 H   0  0  0  0  0  0
  -25.0068  -33.9603   25.0293 H   0  0  0  0  0  0
  -22.7558  -31.2879   21.3785 H   0  0  0  0  0  0
  -23.3754  -35.9568   23.3296 H   0  0  0  0  0  0
  -24.3555  -36.8899   22.2062 H   0  0  0  0  0  0
  -23.7248  -37.6441   23.6695 H   0  0  0  0  0  0
  -26.1710  -31.4595   20.6209 H   0  0  0  0  0  0
  -26.8790  -30.7547   22.0389 H   0  0  0  0  0  0
  -28.1380  -28.7711   21.2437 H   0  0  0  0  0  0
  -25.9175  -25.8521   18.9694 H   0  0  0  0  0  0
  -23.9871  -27.3072   18.9640 H   0  0  0  0  0  0
  -23.8212  -30.5653   19.3981 H   0  0  0  0  0  0
  -22.7947  -29.2366   19.8412 H   0  0  0  0  0  0
  -25.1315  -36.1837   25.0805 H   0  0  0  0  0  0
  -21.0003  -28.3310   24.1351 H   0  0  0  0  0  0
  -20.5676  -26.2335   23.3630 H   0  0  0  0  0  0
  -21.6653  -26.7414   22.1209 H   0  0  0  0  0  0
  -19.6912  -25.6276   21.1262 H   0  0  0  0  0  0
  -19.6683  -27.3167   20.6738 H   0  0  0  0  0  0
  -17.4210  -26.6669   21.4026 H   0  0  0  0  0  0
  -18.0325  -26.0054   22.9016 H   0  0  0  0  0  0
  -19.7960  -30.7284   24.2220 H   0  0  0  0  0  0
  -17.5039  -31.6265   24.5158 H   0  0  0  0  0  0
  -15.5367  -30.2983   23.7673 H   0  0  0  0  0  0
  -15.8684  -28.0811   22.7099 H   0  0  0  0  0  0
  -24.5869  -30.7133   25.7737 H   0  0  0  0  0  0
  -24.8899  -32.2970   26.4775 H   0  0  0  0  0  0
  -25.7965  -30.8989   27.0234 H   0  0  0  0  0  0
  -26.3058  -29.6659   24.1339 H   0  0  0  0  0  0
  -27.3992  -29.7279   25.4953 H   0  0  0  0  0  0
  -27.8971  -30.4186   23.9707 H   0  0  0  0  0  0
  -27.2610  -33.3692   26.2001 H   0  0  0  0  0  0
  -28.3887  -32.6898   25.0368 H   0  0  0  0  0  0
  -28.0665  -31.8561   26.5505 H   0  0  0  0  0  0
  -28.2587  -38.0079   24.7515 H   0  0  0  0  0  0
  -28.1060  -36.2612   24.6285 H   0  0  0  0  0  0
  -27.2277  -37.1435   25.8866 H   0  0  0  0  0  0
  -20.9484  -29.8761   21.6780 H   0  0  0  0  0  0
  -26.0130  -38.2801   24.1428 H   0  0  0  0  0  0
  -25.7550  -21.5848   23.0655 H   0  0  0  0  0  0
  -24.9296  -18.8780   22.7737 H   0  0  0  0  0  0
  -26.0013  -19.0192   24.1716 H   0  0  0  0  0  0
  -26.3196  -17.7998   22.9339 H   0  0  0  0  0  0
  -28.9554  -22.9617   19.2005 H   0  0  0  0  0  0
  -29.8143  -23.2794   20.6727 H   0  0  0  0  0  0
  -30.4075  -19.7408   19.7719 H   0  0  0  0  0  0
  -29.0534  -18.8956   19.1280 H   0  0  0  0  0  0
  -30.1976  -17.8385   21.8231 H   0  0  0  0  0  0
  -31.2278  -17.7142   20.4657 H   0  0  0  0  0  0
  -27.7300  -24.6323   21.5512 H   0  0  0  0  0  0
  -26.9642  -24.3741   20.0399 H   0  0  0  0  0  0
  -28.7876  -16.0044   20.5391 H   0  0  0  0  0  0
  1 25  1  0  0  0
  1 30  2  0  0  0
  1 82  1  0  0  0
  2  3  1  0  0  0
  2 25  1  0  0  0
  2 83  1  0  0  0
  2 84  1  0  0  0
  3  4  1  0  0  0
  3 85  1  0  0  0
  3 86  1  0  0  0
  4  5  1  0  0  0
  4 87  1  0  0  0
  4 88  1  0  0  0
  5  6  1  0  0  0
  5 26  1  0  0  0
  5 89  1  0  0  0
  6 25  1  0  0  0
  6 90  1  0  0  0
  6 91  1  0  0  0
  7  8  2  0  0  0
  7 26  1  0  0  0
  7 29  1  0  0  0
  8  9  1  0  0  0
  8 22  1  0  0  0
  9 10  1  0  0  0
  9 27  2  0  0  0
 10 11  2  0  0  0
 10 15  1  0  0  0
 11 12  1  0  0  0
 11 92  1  0  0  0
 12 13  2  0  0  0
 12 93  1  0  0  0
 13 14  1  0  0  0
 13 31  1  0  0  0
 14 15  2  0  0  0
 14 94  1  0  0  0
 15 95  1  0  0  0
 16 17  2  0  0  0
 16 21  1  0  0  0
 16 31  1  0  0  0
 17 18  1  0  0  0
 17 96  1  0  0  0
 18 19  2  0  0  0
 18 97  1  0  0  0
 19 20  1  0  0  0
 19 24  1  0  0  0
 20 21  2  0  0  0
 20 98  1  0  0  0
 21 23  1  0  0  0
 22 28  1  0  0  0
 22 32  2  0  0  0
 26 27  1  0  0  0
 28 99  1  0  0  0
 28100  1  0  0  0
 29101  1  0  0  0
 29102  1  0  0  0
 33 34  1  0  0  0
 33 66  1  0  0  0
 33 70  2  0  0  0
 34 36  1  0  0  0
 34 59  1  0  0  0
 34103  1  0  0  0
 35 44  2  0  0  0
 35 45  1  0  0  0
 35 68  1  0  0  0
 36 56  1  0  0  0
 36104  1  0  0  0
 37 39  1  0  0  0
 37 47  1  0  0  0
 37 66  1  0  0  0
 37105  1  0  0  0
 38 43  2  0  0  0
 38 46  1  0  0  0
 38 47  1  0  0  0
 39 64  1  0  0  0
 39 67  2  0  0  0
 40 52  1  0  0  0
 40 53  2  0  0  0
 40 58  1  0  0  0
 41106  1  0  0  0
 41107  1  0  0  0
 41108  1  0  0  0
 41 48  1  0  0  0
 42 43  1  0  0  0
 42 66  1  0  0  0
 42109  1  0  0  0
 42110  1  0  0  0
 43 44  1  0  0  0
 44111  1  0  0  0
 45 46  2  0  0  0
 45112  1  0  0  0
 46113  1  0  0  0
 47114  1  0  0  0
 47115  1  0  0  0
 48 56  1  0  0  0
 48 65  1  0  0  0
 48116  1  0  0  0
 49 50  1  0  0  0
 49 53  1  0  0  0
 49 64  1  0  0  0
 49117  1  0  0  0
 50 51  1  0  0  0
 50118  1  0  0  0
 50119  1  0  0  0
 51 52  1  0  0  0
 51120  1  0  0  0
 51121  1  0  0  0
 52122  1  0  0  0
 52123  1  0  0  0
 53 54  1  0  0  0
 54 55  2  0  0  0
 54124  1  0  0  0
 55 57  1  0  0  0
 55125  1  0  0  0
 56 69  2  0  0  0
 57 58  2  0  0  0
 57126  1  0  0  0
 58127  1  0  0  0
 59 60  1  0  0  0
 59 61  1  0  0  0
 59 62  1  0  0  0
 60128  1  0  0  0
 60129  1  0  0  0
 60130  1  0  0  0
 61131  1  0  0  0
 61132  1  0  0  0
 61133  1  0  0  0
 62134  1  0  0  0
 62135  1  0  0  0
 62136  1  0  0  0
 63 65  1  0  0  0
 63137  1  0  0  0
 63138  1  0  0  0
 63139  1  0  0  0
 64140  1  0  0  0
 65141  1  0  0  0
 68 79  1  0  0  0
 71 72  2  0  0  0
 71 80  1  0  0  0
 71142  1  0  0  0
 72 75  1  0  0  0
 72 81  1  0  0  0
 73 74  1  0  0  0
 73 76  1  0  0  0
 73 80  2  0  0  0
 74 77  1  0  0  0
 74 81  2  0  0  0
 75143  1  0  0  0
 75144  1  0  0  0
 75145  1  0  0  0
 76 79  1  0  0  0
 76146  1  0  0  0
 76147  1  0  0  0
 77 78  1  0  0  0
 77148  1  0  0  0
 77149  1  0  0  0
 78 82  1  0  0  0
 78150  1  0  0  0
 78151  1  0  0  0
 79152  1  0  0  0
 79153  1  0  0  0
 82154  1  0  0  0
M  ISO  4   1 100  68 101  79 101  82 100
M  END
> <chiral flag>
0

> <version>
0

> <s_m_source_file>
/data/baiqing/PycharmProjects/Reinvent-master-3.2/result/LINK_invent/BTK/process_docking_weight1_custom_sum_contain_oxygen_bond_distance_aromatic_linkinvent_7_9_3/rearranged_h_0047.sdf

> <i_m_source_file_index>
24

> <r_mmod_Potential_Energy-OPLS-2005>
714.479553222656

> <r_mmod_Stretch_Energy-OPLS-2005>
313.849822998047

> <r_mmod_Bend_Energy-OPLS-2005>
364.504943847656

> <r_mmod_Torsional_Energy-OPLS-2005>
240.260620117188

> <r_mmod_Improper_Torsional_Energy-OPLS-2005>
4.50526142120361

> <r_mmod_Van_der_Waal_Energy-OPLS-2005>
135.845062255859

> <r_mmod_Electrostatic_Energy-OPLS-2005>
-334.90966796875

> <r_mmod_Solvation_Energy-OPLS-2005>
-222.779861450195

> <b_mmod_Minimization_Converged-OPLS-2005>
0

> <r_mmod_RMS_Derivative-OPLS-2005>
0.959522187709808

$$$$
24
                    3D
 Structure written by MMmdl.
155163  0  0  1  0            999 V2000
  -30.6438  -14.7028   20.5320 C   0  0  0  0  0  0
  -30.4369  -12.4400   19.4812 C   0  0  0  0  0  0
  -29.5198  -12.5320   18.2414 C   0  0  0  0  0  0
  -28.0392  -12.3639   18.6365 C   0  0  0  0  0  0
  -27.6497  -13.2318   19.8622 C   0  0  2  0  0  0
  -28.6884  -13.1085   20.9955 C   0  0  0  0  0  0
  -25.2535  -13.8205   20.5696 C   0  0  0  0  0  0
  -24.1821  -13.0435   20.9186 C   0  0  0  0  0  0
  -24.6406  -11.6920   20.8712 C   0  0  0  0  0  0
  -23.9082  -10.4294   21.0383 C   0  0  0  0  0  0
  -24.3630   -9.4210   21.9169 C   0  0  0  0  0  0
  -23.6302   -8.2243   22.0743 C   0  0  0  0  0  0
  -22.4277   -8.0287   21.3542 C   0  0  0  0  0  0
  -21.9910   -9.0255   20.4639 C   0  0  0  0  0  0
  -22.7243  -10.2131   20.3046 C   0  0  0  0  0  0
  -21.6849   -6.0741   22.5282 C   0  0  0  0  0  0
  -21.4009   -6.5643   23.8216 C   0  0  0  0  0  0
  -21.3659   -5.6789   24.9178 C   0  0  0  0  0  0
  -21.6043   -4.3055   24.7221 C   0  0  0  0  0  0
  -21.8812   -3.8150   23.4340 C   0  0  0  0  0  0
  -21.9189   -4.6968   22.3399 C   0  0  0  0  0  0
  -22.7836  -13.5209   21.1854 C   0  0  0  0  0  0
  -22.1654   -4.2158   21.0973 F   0  0  0  0  0  0
  -21.5631   -3.4535   25.7729 F   0  0  0  0  0  0
  -30.0013  -13.4822   20.4434 N   0  0  0  0  0  0
  -26.2973  -12.9407   20.3302 N   0  0  0  0  0  0
  -25.9342  -11.6544   20.5720 N   0  0  0  0  0  0
  -22.0488  -12.8215   22.0431 N   0  0  0  0  0  0
  -25.4229  -15.1931   20.4149 N   0  0  0  0  0  0
  -31.7683  -14.8313   20.0351 O   0  0  0  0  0  0
  -21.6642   -6.8886   21.4246 O   0  0  0  0  0  0
  -22.3509  -14.5495   20.6679 O   0  0  0  0  0  0
  -24.6308  -31.8558   23.1975 C   0  0  0  0  0  0
  -25.9133  -32.4760   23.8331 C   0  0  1  0  0  0
  -27.2241  -27.2690   20.1370 C   0  0  0  0  0  0
  -25.5929  -33.8561   24.2251 N   0  0  0  0  0  0
  -23.4290  -30.4771   21.5404 C   0  0  2  0  0  0
  -24.8784  -28.9223   20.1136 C   0  0  0  0  0  0
  -22.7506  -29.4605   22.4905 C   0  0  0  0  0  0
  -18.0301  -28.1396   22.8483 C   0  0  0  0  0  0
  -24.1490  -36.7286   23.2641 C   0  0  0  0  0  0
  -25.9745  -30.7693   21.3797 C   0  0  0  0  0  0
  -26.0488  -29.3919   20.7236 C   0  0  0  0  0  0
  -27.2264  -28.5776   20.7241 C   0  0  0  0  0  0
  -26.0361  -26.8698   19.4880 C   0  0  0  0  0  0
  -24.8758  -27.6680   19.4850 C   0  0  0  0  0  0
  -23.6496  -29.8091   20.1577 C   0  0  0  0  0  0
  -25.4116  -36.3072   24.0327 C   0  0  1  0  0  0
  -20.5906  -28.3705   23.1268 C   0  0  2  0  0  0
  -20.6796  -26.9424   22.5407 C   0  0  0  0  0  0
  -19.5770  -26.6388   21.5216 C   0  0  0  0  0  0
  -18.1949  -26.7937   22.1623 C   0  0  0  0  0  0
  -19.1556  -28.8866   23.2875 C   0  0  0  0  0  0
  -18.9478  -30.1467   23.8895 C   0  0  0  0  0  0
  -17.6477  -30.6599   24.0562 C   0  0  0  0  0  0
  -25.9057  -34.9440   23.5091 C   0  0  0  0  0  0
  -16.5367  -29.9094   23.6336 C   0  0  0  0  0  0
  -16.7287  -28.6511   23.0355 C   0  0  0  0  0  0
  -26.4497  -31.6590   25.0725 C   0  0  0  0  0  0
  -25.3714  -31.3757   26.1443 C   0  0  0  0  0  0
  -27.0351  -30.3005   24.6225 C   0  0  0  0  0  0
  -27.6048  -32.4330   25.7499 C   0  0  0  0  0  0
  -27.5581  -37.1797   24.8462 C   0  0  0  0  0  0
  -21.4213  -29.3046   22.3644 N   0  0  0  0  0  0
  -26.4291  -37.3770   23.9410 N   0  0  0  0  0  0
  -24.6969  -31.0523   22.0952 N   0  0  0  0  0  0
  -23.4202  -28.8148   23.3012 O   0  0  0  0  0  0
  -28.3151  -26.3734   20.1633 O   0  0  0  0  0  0
  -26.5631  -34.8917   22.4662 O   0  0  0  0  0  0
  -23.5454  -32.1378   23.7267 O   0  0  0  0  0  0
  -29.5447  -23.0556   22.5590 C   0  0  0  0  0  0
  -29.4755  -21.2612   21.4552 C   0  0  0  0  0  0
  -29.7049  -15.9025   22.4254 C   0  0  0  0  0  0
  -29.4944  -20.0493   20.4559 C   0  0  0  0  0  0
  -29.6568  -18.5634   21.1179 C   0  0  0  0  0  0
  -28.9691  -23.6808   20.2288 C   0  0  0  0  0  0
  -29.9066  -17.1965   20.2770 C   0  0  0  0  0  0
  -28.0599  -24.9703   20.6374 C   0  0  0  0  0  0
  -29.8263  -22.1096   23.4458 N   0  0  0  0  0  0
  -29.7745  -20.9503   22.7305 N   0  0  0  0  0  0
  -29.2660  -22.6507   21.3047 N   0  0  0  0  0  0
  -29.9463  -15.8248   20.9797 N   0  0  0  0  0  0
  -31.4804  -12.5556   19.1833 H   0  0  0  0  0  0
  -30.3749  -11.4505   19.9366 H   0  0  0  0  0  0
  -29.8001  -11.7799   17.5034 H   0  0  0  0  0  0
  -29.6627  -13.5017   17.7612 H   0  0  0  0  0  0
  -27.8708  -11.3109   18.8634 H   0  0  0  0  0  0
  -27.3965  -12.6017   17.7883 H   0  0  0  0  0  0
  -27.6606  -14.2677   19.5233 H   0  0  0  0  0  0
  -28.7199  -12.0877   21.3775 H   0  0  0  0  0  0
  -28.3866  -13.7269   21.8376 H   0  0  0  0  0  0
  -25.2773   -9.5679   22.4753 H   0  0  0  0  0  0
  -24.0008   -7.4625   22.7461 H   0  0  0  0  0  0
  -21.0830   -8.8769   19.8951 H   0  0  0  0  0  0
  -22.3691  -10.9673   19.6160 H   0  0  0  0  0  0
  -21.2005   -7.6148   23.9722 H   0  0  0  0  0  0
  -21.1491   -6.0525   25.9082 H   0  0  0  0  0  0
  -22.0594   -2.7617   23.2835 H   0  0  0  0  0  0
  -22.4091  -11.9891   22.4870 H   0  0  0  0  0  0
  -21.1094  -13.1247   22.2591 H   0  0  0  0  0  0
  -24.6612  -15.8510   20.5410 H   0  0  0  0  0  0
  -26.2864  -15.6392   20.1298 H   0  0  0  0  0  0
  -26.7202  -32.5415   23.1072 H   0  0  0  0  0  0
  -25.0063  -33.9697   25.0389 H   0  0  0  0  0  0
  -22.7257  -31.2991   21.3908 H   0  0  0  0  0  0
  -23.3755  -35.9616   23.3295 H   0  0  0  0  0  0
  -24.3581  -36.8916   22.2057 H   0  0  0  0  0  0
  -23.7240  -37.6482   23.6671 H   0  0  0  0  0  0
  -26.1156  -31.5293   20.6098 H   0  0  0  0  0  0
  -26.8503  -30.8175   22.0153 H   0  0  0  0  0  0
  -28.1222  -28.9306   21.2159 H   0  0  0  0  0  0
  -25.9900  -25.9167   18.9819 H   0  0  0  0  0  0
  -23.9822  -27.3039   18.9971 H   0  0  0  0  0  0
  -23.7779  -30.5836   19.4008 H   0  0  0  0  0  0
  -22.7690  -29.2428   19.8495 H   0  0  0  0  0  0
  -25.1298  -36.1915   25.0821 H   0  0  0  0  0  0
  -21.0004  -28.3295   24.1387 H   0  0  0  0  0  0
  -20.5708  -26.2319   23.3617 H   0  0  0  0  0  0
  -21.6663  -26.7457   22.1196 H   0  0  0  0  0  0
  -19.6935  -25.6294   21.1261 H   0  0  0  0  0  0
  -19.6715  -27.3189   20.6741 H   0  0  0  0  0  0
  -17.4222  -26.6690   21.4023 H   0  0  0  0  0  0
  -18.0344  -26.0082   22.9020 H   0  0  0  0  0  0
  -19.7955  -30.7285   24.2264 H   0  0  0  0  0  0
  -17.5033  -31.6277   24.5163 H   0  0  0  0  0  0
  -15.5368  -30.2997   23.7660 H   0  0  0  0  0  0
  -15.8689  -28.0827   22.7073 H   0  0  0  0  0  0
  -24.5866  -30.7137   25.7763 H   0  0  0  0  0  0
  -24.8940  -32.2944   26.4864 H   0  0  0  0  0  0
  -25.8016  -30.8920   27.0224 H   0  0  0  0  0  0
  -26.2950  -29.6745   24.1227 H   0  0  0  0  0  0
  -27.4006  -29.7271   25.4754 H   0  0  0  0  0  0
  -27.8833  -30.4274   23.9494 H   0  0  0  0  0  0
  -27.2651  -33.3623   26.2081 H   0  0  0  0  0  0
  -28.3858  -32.6903   25.0332 H   0  0  0  0  0  0
  -28.0721  -31.8459   26.5414 H   0  0  0  0  0  0
  -28.2589  -38.0103   24.7514 H   0  0  0  0  0  0
  -28.1089  -36.2633   24.6278 H   0  0  0  0  0  0
  -27.2306  -37.1431   25.8867 H   0  0  0  0  0  0
  -20.9405  -29.8753   21.6831 H   0  0  0  0  0  0
  -26.0169  -38.2843   24.1415 H   0  0  0  0  0  0
  -29.5672  -24.0951   22.8522 H   0  0  0  0  0  0
  -30.3888  -16.6121   22.8902 H   0  0  0  0  0  0
  -29.8668  -14.9544   22.9430 H   0  0  0  0  0  0
  -28.6808  -16.2151   22.6295 H   0  0  0  0  0  0
  -30.3130  -20.2182   19.7556 H   0  0  0  0  0  0
  -28.5801  -20.0848   19.8640 H   0  0  0  0  0  0
  -28.7790  -18.4167   21.7471 H   0  0  0  0  0  0
  -30.4985  -18.6267   21.8073 H   0  0  0  0  0  0
  -29.9353  -24.0510   19.8845 H   0  0  0  0  0  0
  -28.5282  -23.1692   19.3731 H   0  0  0  0  0  0
  -30.8301  -17.3174   19.7098 H   0  0  0  0  0  0
  -29.1185  -17.1250   19.5265 H   0  0  0  0  0  0
  -28.0568  -25.0759   21.7197 H   0  0  0  0  0  0
  -27.0334  -24.6767   20.4288 H   0  0  0  0  0  0
  1 25  1  0  0  0
  1 30  2  0  0  0
  1 82  1  0  0  0
  2  3  1  0  0  0
  2 25  1  0  0  0
  2 83  1  0  0  0
  2 84  1  0  0  0
  3  4  1  0  0  0
  3 85  1  0  0  0
  3 86  1  0  0  0
  4  5  1  0  0  0
  4 87  1  0  0  0
  4 88  1  0  0  0
  5  6  1  0  0  0
  5 26  1  0  0  0
  5 89  1  0  0  0
  6 25  1  0  0  0
  6 90  1  0  0  0
  6 91  1  0  0  0
  7  8  2  0  0  0
  7 26  1  0  0  0
  7 29  1  0  0  0
  8  9  1  0  0  0
  8 22  1  0  0  0
  9 10  1  0  0  0
  9 27  2  0  0  0
 10 11  2  0  0  0
 10 15  1  0  0  0
 11 12  1  0  0  0
 11 92  1  0  0  0
 12 13  2  0  0  0
 12 93  1  0  0  0
 13 14  1  0  0  0
 13 31  1  0  0  0
 14 15  2  0  0  0
 14 94  1  0  0  0
 15 95  1  0  0  0
 16 17  2  0  0  0
 16 21  1  0  0  0
 16 31  1  0  0  0
 17 18  1  0  0  0
 17 96  1  0  0  0
 18 19  2  0  0  0
 18 97  1  0  0  0
 19 20  1  0  0  0
 19 24  1  0  0  0
 20 21  2  0  0  0
 20 98  1  0  0  0
 21 23  1  0  0  0
 22 28  1  0  0  0
 22 32  2  0  0  0
 26 27  1  0  0  0
 28 99  1  0  0  0
 28100  1  0  0  0
 29101  1  0  0  0
 29102  1  0  0  0
 33 34  1  0  0  0
 33 66  1  0  0  0
 33 70  2  0  0  0
 34 36  1  0  0  0
 34 59  1  0  0  0
 34103  1  0  0  0
 35 44  2  0  0  0
 35 45  1  0  0  0
 35 68  1  0  0  0
 36 56  1  0  0  0
 36104  1  0  0  0
 37 39  1  0  0  0
 37 47  1  0  0  0
 37 66  1  0  0  0
 37105  1  0  0  0
 38 43  2  0  0  0
 38 46  1  0  0  0
 38 47  1  0  0  0
 39 64  1  0  0  0
 39 67  2  0  0  0
 40 52  1  0  0  0
 40 53  2  0  0  0
 40 58  1  0  0  0
 41106  1  0  0  0
 41107  1  0  0  0
 41108  1  0  0  0
 41 48  1  0  0  0
 42 43  1  0  0  0
 42 66  1  0  0  0
 42109  1  0  0  0
 42110  1  0  0  0
 43 44  1  0  0  0
 44111  1  0  0  0
 45 46  2  0  0  0
 45112  1  0  0  0
 46113  1  0  0  0
 47114  1  0  0  0
 47115  1  0  0  0
 48 56  1  0  0  0
 48 65  1  0  0  0
 48116  1  0  0  0
 49 50  1  0  0  0
 49 53  1  0  0  0
 49 64  1  0  0  0
 49117  1  0  0  0
 50 51  1  0  0  0
 50118  1  0  0  0
 50119  1  0  0  0
 51 52  1  0  0  0
 51120  1  0  0  0
 51121  1  0  0  0
 52122  1  0  0  0
 52123  1  0  0  0
 53 54  1  0  0  0
 54 55  2  0  0  0
 54124  1  0  0  0
 55 57  1  0  0  0
 55125  1  0  0  0
 56 69  2  0  0  0
 57 58  2  0  0  0
 57126  1  0  0  0
 58127  1  0  0  0
 59 60  1  0  0  0
 59 61  1  0  0  0
 59 62  1  0  0  0
 60128  1  0  0  0
 60129  1  0  0  0
 60130  1  0  0  0
 61131  1  0  0  0
 61132  1  0  0  0
 61133  1  0  0  0
 62134  1  0  0  0
 62135  1  0  0  0
 62136  1  0  0  0
 63 65  1  0  0  0
 63137  1  0  0  0
 63138  1  0  0  0
 63139  1  0  0  0
 64140  1  0  0  0
 65141  1  0  0  0
 68 78  1  0  0  0
 71 79  2  0  0  0
 71 81  1  0  0  0
 71142  1  0  0  0
 72 74  1  0  0  0
 72 80  2  0  0  0
 72 81  1  0  0  0
 73 82  1  0  0  0
 73143  1  0  0  0
 73144  1  0  0  0
 73145  1  0  0  0
 74 75  1  0  0  0
 74146  1  0  0  0
 74147  1  0  0  0
 75 77  1  0  0  0
 75148  1  0  0  0
 75149  1  0  0  0
 76 78  1  0  0  0
 76 81  1  0  0  0
 76150  1  0  0  0
 76151  1  0  0  0
 77 82  1  0  0  0
 77152  1  0  0  0
 77153  1  0  0  0
 78154  1  0  0  0
 78155  1  0  0  0
 79 80  1  0  0  0
M  ISO  4   1 100  68 101  78 101  82 100
M  END
> <chiral flag>
0

> <version>
0

> <s_m_source_file>
/data/baiqing/PycharmProjects/Reinvent-master-3.2/result/LINK_invent/BTK/process_docking_weight1_custom_sum_contain_oxygen_bond_distance_aromatic_linkinvent_7_9_3/rearranged_h_0047.sdf

> <i_m_source_file_index>
25

> <r_mmod_Potential_Energy-OPLS-2005>
327.189178466797

> <r_mmod_Stretch_Energy-OPLS-2005>
135.505905151367

> <r_mmod_Bend_Energy-OPLS-2005>
205.277816772461

> <r_mmod_Torsional_Energy-OPLS-2005>
315.467956542969

> <r_mmod_Improper_Torsional_Energy-OPLS-2005>
6.78264808654785

> <r_mmod_Van_der_Waal_Energy-OPLS-2005>
130.204925537109

> <r_mmod_Electrostatic_Energy-OPLS-2005>
-306.551574707031

> <r_mmod_Solvation_Energy-OPLS-2005>
-230.061889648438

> <b_mmod_Minimization_Converged-OPLS-2005>
0

> <r_mmod_RMS_Derivative-OPLS-2005>
1.69427633285522

$$$$
25
                    3D
 Structure written by MMmdl.
166174  0  0  1  0            999 V2000
  -30.4053  -15.2142   20.3511 C   0  0  0  0  0  0
  -30.4474  -12.7633   19.5286 C   0  0  0  0  0  0
  -29.5416  -12.5820   18.2836 C   0  0  0  0  0  0
  -28.0800  -12.3166   18.6926 C   0  0  0  0  0  0
  -27.6136  -13.2722   19.8190 C   0  0  2  0  0  0
  -28.6444  -13.4036   20.9550 C   0  0  0  0  0  0
  -25.2405  -13.8239   20.5728 C   0  0  0  0  0  0
  -24.1746  -13.0436   20.9232 C   0  0  0  0  0  0
  -24.6391  -11.6932   20.8719 C   0  0  0  0  0  0
  -23.9088  -10.4295   21.0379 C   0  0  0  0  0  0
  -24.3640   -9.4221   21.9165 C   0  0  0  0  0  0
  -23.6316   -8.2253   22.0753 C   0  0  0  0  0  0
  -22.4297   -8.0277   21.3549 C   0  0  0  0  0  0
  -21.9922   -9.0242   20.4643 C   0  0  0  0  0  0
  -22.7248  -10.2128   20.3043 C   0  0  0  0  0  0
  -21.6863   -6.0735   22.5276 C   0  0  0  0  0  0
  -21.4014   -6.5634   23.8206 C   0  0  0  0  0  0
  -21.3669   -5.6788   24.9166 C   0  0  0  0  0  0
  -21.6058   -4.3054   24.7215 C   0  0  0  0  0  0
  -21.8816   -3.8144   23.4332 C   0  0  0  0  0  0
  -21.9199   -4.6962   22.3392 C   0  0  0  0  0  0
  -22.7771  -13.5190   21.1899 C   0  0  0  0  0  0
  -22.1668   -4.2151   21.0965 F   0  0  0  0  0  0
  -21.5638   -3.4534   25.7727 F   0  0  0  0  0  0
  -29.8948  -13.8904   20.3562 N   0  0  0  0  0  0
  -26.2820  -12.9510   20.3160 N   0  0  0  0  0  0
  -25.9327  -11.6617   20.5664 N   0  0  0  0  0  0
  -22.0435  -12.8172   22.0465 N   0  0  0  0  0  0
  -25.4072  -15.1975   20.4203 N   0  0  0  0  0  0
  -31.6374  -15.2412   20.2150 O   0  0  0  0  0  0
  -21.6664   -6.8882   21.4242 O   0  0  0  0  0  0
  -22.3443  -14.5491   20.6743 O   0  0  0  0  0  0
  -24.6589  -31.8281   23.1733 C   0  0  0  0  0  0
  -25.9284  -32.4615   23.8191 C   0  0  1  0  0  0
  -27.2192  -26.9676   20.1891 C   0  0  0  0  0  0
  -25.5965  -33.8430   24.2102 N   0  0  0  0  0  0
  -23.4711  -30.4388   21.5248 C   0  0  2  0  0  0
  -24.9223  -28.8271   20.1230 C   0  0  0  0  0  0
  -22.7642  -29.4461   22.4828 C   0  0  0  0  0  0
  -18.0308  -28.1403   22.8468 C   0  0  0  0  0  0
  -24.1488  -36.7217   23.2647 C   0  0  0  0  0  0
  -26.0380  -30.6479   21.3958 C   0  0  0  0  0  0
  -26.1075  -29.2389   20.7464 C   0  0  0  0  0  0
  -27.2564  -28.3328   20.7466 C   0  0  0  0  0  0
  -26.0023  -26.6910   19.5298 C   0  0  0  0  0  0
  -24.8918  -27.5713   19.4951 C   0  0  0  0  0  0
  -23.7077  -29.7517   20.1526 C   0  0  0  0  0  0
  -25.4131  -36.2990   24.0306 C   0  0  1  0  0  0
  -20.5929  -28.3742   23.1208 C   0  0  2  0  0  0
  -20.6794  -26.9431   22.5409 C   0  0  0  0  0  0
  -19.5770  -26.6376   21.5218 C   0  0  0  0  0  0
  -18.1945  -26.7938   22.1618 C   0  0  0  0  0  0
  -19.1567  -28.8894   23.2824 C   0  0  0  0  0  0
  -18.9484  -30.1485   23.8860 C   0  0  0  0  0  0
  -17.6479  -30.6601   24.0551 C   0  0  0  0  0  0
  -25.9094  -34.9367   23.5025 C   0  0  0  0  0  0
  -16.5367  -29.9086   23.6346 C   0  0  0  0  0  0
  -16.7290  -28.6501   23.0374 C   0  0  0  0  0  0
  -26.4544  -31.6542   25.0703 C   0  0  0  0  0  0
  -25.3678  -31.3777   26.1364 C   0  0  0  0  0  0
  -27.0434  -30.2914   24.6402 C   0  0  0  0  0  0
  -27.6045  -32.4341   25.7508 C   0  0  0  0  0  0
  -27.5575  -37.1767   24.8464 C   0  0  0  0  0  0
  -21.4318  -29.3037   22.3565 N   0  0  0  0  0  0
  -26.4280  -37.3721   23.9412 N   0  0  0  0  0  0
  -24.7440  -30.9978   22.0853 N   0  0  0  0  0  0
  -23.4203  -28.8034   23.3062 O   0  0  0  0  0  0
  -28.2554  -25.9098   20.1571 O   0  0  0  0  0  0
  -26.5707  -34.8891   22.4622 O   0  0  0  0  0  0
  -23.5669  -32.1229   23.6854 O   0  0  0  0  0  0
  -29.7714  -19.9385   20.1575 C   0  0  0  0  0  0
  -31.0709  -19.9118   19.5533 C   0  0  0  0  0  0
  -29.4198  -21.4175   20.0505 C   0  0  0  0  0  0
  -31.9591  -18.2311   17.8909 C   0  0  0  0  0  0
  -31.8499  -25.6004   19.6825 C   0  0  0  0  0  0
  -32.9227  -23.5232   20.6273 C   0  0  0  0  0  0
  -29.3512  -18.3603   20.7478 C   0  0  0  0  0  0
  -32.0144  -18.7529   19.3342 C   0  0  0  0  0  0
  -28.2359  -22.6495   20.2179 C   0  0  0  0  0  0
  -29.5079  -16.6932   20.0983 C   0  0  0  0  0  0
  -30.8644  -23.3437   19.0587 C   0  0  0  0  0  0
  -28.1590  -24.3789   20.7125 C   0  0  0  0  0  0
  -31.6028  -24.1581   20.1528 C   0  0  0  0  0  0
  -31.4974  -21.0701   19.1326 N   0  0  0  0  0  0
  -30.5558  -21.9644   19.4429 N   0  0  0  0  0  0
  -31.4698  -12.9695   19.2096 H   0  0  0  0  0  0
  -30.4978  -11.8415   20.1100 H   0  0  0  0  0  0
  -29.9116  -11.7703   17.6569 H   0  0  0  0  0  0
  -29.5884  -13.4872   17.6757 H   0  0  0  0  0  0
  -28.0126  -11.2829   19.0321 H   0  0  0  0  0  0
  -27.4216  -12.4009   17.8275 H   0  0  0  0  0  0
  -27.5396  -14.2522   19.3461 H   0  0  0  0  0  0
  -28.7889  -12.4538   21.4708 H   0  0  0  0  0  0
  -28.2950  -14.1169   21.7037 H   0  0  0  0  0  0
  -25.2777   -9.5714   22.4749 H   0  0  0  0  0  0
  -24.0031   -7.4652   22.7472 H   0  0  0  0  0  0
  -21.0861   -8.8746   19.8945 H   0  0  0  0  0  0
  -22.3685  -10.9662   19.6162 H   0  0  0  0  0  0
  -21.1997   -7.6143   23.9707 H   0  0  0  0  0  0
  -21.1504   -6.0517   25.9075 H   0  0  0  0  0  0
  -22.0591   -2.7604   23.2826 H   0  0  0  0  0  0
  -22.4076  -11.9845   22.4849 H   0  0  0  0  0  0
  -21.1042  -13.1177   22.2664 H   0  0  0  0  0  0
  -24.6415  -15.8507   20.5421 H   0  0  0  0  0  0
  -26.2578  -15.6411   20.0992 H   0  0  0  0  0  0
  -26.7354  -32.5168   23.0911 H   0  0  0  0  0  0
  -25.0051  -33.9516   25.0208 H   0  0  0  0  0  0
  -22.7826  -31.2691   21.3553 H   0  0  0  0  0  0
  -23.3773  -35.9524   23.3274 H   0  0  0  0  0  0
  -24.3562  -36.8899   22.2070 H   0  0  0  0  0  0
  -23.7218  -37.6384   23.6720 H   0  0  0  0  0  0
  -26.2089  -31.3884   20.6133 H   0  0  0  0  0  0
  -26.9025  -30.7086   22.0455 H   0  0  0  0  0  0
  -28.1657  -28.6554   21.2337 H   0  0  0  0  0  0
  -25.8932  -25.7308   19.0454 H   0  0  0  0  0  0
  -23.9904  -27.2493   18.9923 H   0  0  0  0  0  0
  -23.8613  -30.5189   19.3927 H   0  0  0  0  0  0
  -22.8179  -29.2031   19.8379 H   0  0  0  0  0  0
  -25.1327  -36.1797   25.0797 H   0  0  0  0  0  0
  -21.0004  -28.3341   24.1335 H   0  0  0  0  0  0
  -20.5690  -26.2355   23.3639 H   0  0  0  0  0  0
  -21.6658  -26.7430   22.1205 H   0  0  0  0  0  0
  -19.6938  -25.6276   21.1278 H   0  0  0  0  0  0
  -19.6716  -27.3164   20.6732 H   0  0  0  0  0  0
  -17.4221  -26.6681   21.4015 H   0  0  0  0  0  0
  -18.0341  -26.0090   22.9023 H   0  0  0  0  0  0
  -19.7959  -30.7309   24.2221 H   0  0  0  0  0  0
  -17.5030  -31.6282   24.5148 H   0  0  0  0  0  0
  -15.5369  -30.2979   23.7699 H   0  0  0  0  0  0
  -15.8683  -28.0805   22.7136 H   0  0  0  0  0  0
  -24.5868  -30.7124   25.7659 H   0  0  0  0  0  0
  -24.8857  -32.2976   26.4687 H   0  0  0  0  0  0
  -25.7908  -30.9002   27.0210 H   0  0  0  0  0  0
  -26.3091  -29.6602   24.1384 H   0  0  0  0  0  0
  -27.3953  -29.7263   25.5041 H   0  0  0  0  0  0
  -27.9033  -30.4104   23.9809 H   0  0  0  0  0  0
  -27.2619  -33.3678   26.1976 H   0  0  0  0  0  0
  -28.3912  -32.6845   25.0381 H   0  0  0  0  0  0
  -28.0645  -31.8543   26.5517 H   0  0  0  0  0  0
  -28.2569  -38.0086   24.7534 H   0  0  0  0  0  0
  -28.1098  -36.2618   24.6266 H   0  0  0  0  0  0
  -27.2292  -37.1377   25.8865 H   0  0  0  0  0  0
  -20.9573  -29.8694   21.6665 H   0  0  0  0  0  0
  -26.0135  -38.2779   24.1433 H   0  0  0  0  0  0
  -32.6186  -17.3733   17.7603 H   0  0  0  0  0  0
  -32.2692  -19.0019   17.1856 H   0  0  0  0  0  0
  -30.9510  -17.9231   17.6178 H   0  0  0  0  0  0
  -32.3466  -26.1895   20.4543 H   0  0  0  0  0  0
  -30.9145  -26.1039   19.4372 H   0  0  0  0  0  0
  -32.4788  -25.6255   18.7916 H   0  0  0  0  0  0
  -33.4019  -24.1386   21.3893 H   0  0  0  0  0  0
  -33.6259  -23.4007   19.8025 H   0  0  0  0  0  0
  -32.7594  -22.5421   21.0726 H   0  0  0  0  0  0
  -28.2877  -18.4292   20.9773 H   0  0  0  0  0  0
  -29.7914  -18.2837   21.7421 H   0  0  0  0  0  0
  -31.8247  -17.9455   20.0353 H   0  0  0  0  0  0
  -33.0369  -19.0617   19.5552 H   0  0  0  0  0  0
  -27.5216  -22.1906   20.9012 H   0  0  0  0  0  0
  -27.6924  -22.6373   19.2734 H   0  0  0  0  0  0
  -29.4746  -16.7999   19.0158 H   0  0  0  0  0  0
  -28.5130  -16.3056   20.3148 H   0  0  0  0  0  0
  -31.4826  -23.3174   18.1588 H   0  0  0  0  0  0
  -29.9536  -23.8507   18.7435 H   0  0  0  0  0  0
  -28.7598  -24.4197   21.6200 H   0  0  0  0  0  0
  -27.1427  -24.4198   21.1054 H   0  0  0  0  0  0
  -30.9543  -24.2069   21.0262 H   0  0  0  0  0  0
  1 25  1  0  0  0
  1 30  2  0  0  0
  1 80  1  0  0  0
  2  3  1  0  0  0
  2 25  1  0  0  0
  2 86  1  0  0  0
  2 87  1  0  0  0
  3  4  1  0  0  0
  3 88  1  0  0  0
  3 89  1  0  0  0
  4  5  1  0  0  0
  4 90  1  0  0  0
  4 91  1  0  0  0
  5  6  1  0  0  0
  5 26  1  0  0  0
  5 92  1  0  0  0
  6 25  1  0  0  0
  6 93  1  0  0  0
  6 94  1  0  0  0
  7  8  2  0  0  0
  7 26  1  0  0  0
  7 29  1  0  0  0
  8  9  1  0  0  0
  8 22  1  0  0  0
  9 10  1  0  0  0
  9 27  2  0  0  0
 10 11  2  0  0  0
 10 15  1  0  0  0
 11 12  1  0  0  0
 11 95  1  0  0  0
 12 13  2  0  0  0
 12 96  1  0  0  0
 13 14  1  0  0  0
 13 31  1  0  0  0
 14 15  2  0  0  0
 14 97  1  0  0  0
 15 98  1  0  0  0
 16 17  2  0  0  0
 16 21  1  0  0  0
 16 31  1  0  0  0
 17 18  1  0  0  0
 17 99  1  0  0  0
 18 19  2  0  0  0
 18100  1  0  0  0
 19 20  1  0  0  0
 19 24  1  0  0  0
 20 21  2  0  0  0
 20101  1  0  0  0
 21 23  1  0  0  0
 22 28  1  0  0  0
 22 32  2  0  0  0
 26 27  1  0  0  0
 28102  1  0  0  0
 28103  1  0  0  0
 29104  1  0  0  0
 29105  1  0  0  0
 33 34  1  0  0  0
 33 66  1  0  0  0
 33 70  2  0  0  0
 34 36  1  0  0  0
 34 59  1  0  0  0
 34106  1  0  0  0
 35 44  2  0  0  0
 35 45  1  0  0  0
 35 68  1  0  0  0
 36 56  1  0  0  0
 36107  1  0  0  0
 37 39  1  0  0  0
 37 47  1  0  0  0
 37 66  1  0  0  0
 37108  1  0  0  0
 38 43  2  0  0  0
 38 46  1  0  0  0
 38 47  1  0  0  0
 39 64  1  0  0  0
 39 67  2  0  0  0
 40 52  1  0  0  0
 40 53  2  0  0  0
 40 58  1  0  0  0
 41109  1  0  0  0
 41110  1  0  0  0
 41111  1  0  0  0
 41 48  1  0  0  0
 42 43  1  0  0  0
 42 66  1  0  0  0
 42112  1  0  0  0
 42113  1  0  0  0
 43 44  1  0  0  0
 44114  1  0  0  0
 45 46  2  0  0  0
 45115  1  0  0  0
 46116  1  0  0  0
 47117  1  0  0  0
 47118  1  0  0  0
 48 56  1  0  0  0
 48 65  1  0  0  0
 48119  1  0  0  0
 49 50  1  0  0  0
 49 53  1  0  0  0
 49 64  1  0  0  0
 49120  1  0  0  0
 50 51  1  0  0  0
 50121  1  0  0  0
 50122  1  0  0  0
 51 52  1  0  0  0
 51123  1  0  0  0
 51124  1  0  0  0
 52125  1  0  0  0
 52126  1  0  0  0
 53 54  1  0  0  0
 54 55  2  0  0  0
 54127  1  0  0  0
 55 57  1  0  0  0
 55128  1  0  0  0
 56 69  2  0  0  0
 57 58  2  0  0  0
 57129  1  0  0  0
 58130  1  0  0  0
 59 60  1  0  0  0
 59 61  1  0  0  0
 59 62  1  0  0  0
 60131  1  0  0  0
 60132  1  0  0  0
 60133  1  0  0  0
 61134  1  0  0  0
 61135  1  0  0  0
 61136  1  0  0  0
 62137  1  0  0  0
 62138  1  0  0  0
 62139  1  0  0  0
 63 65  1  0  0  0
 63140  1  0  0  0
 63141  1  0  0  0
 63142  1  0  0  0
 64143  1  0  0  0
 65144  1  0  0  0
 68 82  1  0  0  0
 71 72  1  0  0  0
 71 73  2  0  0  0
 71 77  1  0  0  0
 72 78  1  0  0  0
 72 84  2  0  0  0
 73 79  1  0  0  0
 73 85  1  0  0  0
 74 78  1  0  0  0
 74145  1  0  0  0
 74146  1  0  0  0
 74147  1  0  0  0
 75148  1  0  0  0
 75149  1  0  0  0
 75150  1  0  0  0
 75 83  1  0  0  0
 76 83  1  0  0  0
 76151  1  0  0  0
 76152  1  0  0  0
 76153  1  0  0  0
 77 80  1  0  0  0
 77154  1  0  0  0
 77155  1  0  0  0
 78156  1  0  0  0
 78157  1  0  0  0
 79 82  1  0  0  0
 79158  1  0  0  0
 79159  1  0  0  0
 80160  1  0  0  0
 80161  1  0  0  0
 81 83  1  0  0  0
 81 85  1  0  0  0
 81162  1  0  0  0
 81163  1  0  0  0
 82164  1  0  0  0
 82165  1  0  0  0
 83166  1  0  0  0
 84 85  1  0  0  0
M  ISO  4   1 100  68 101  80 100  82 101
M  END
> <chiral flag>
0

> <version>
0

> <s_m_source_file>
/data/baiqing/PycharmProjects/Reinvent-master-3.2/result/LINK_invent/BTK/process_docking_weight1_custom_sum_contain_oxygen_bond_distance_aromatic_linkinvent_7_9_3/rearranged_h_0047.sdf

> <i_m_source_file_index>
26

> <r_mmod_Potential_Energy-OPLS-2005>
1351.31140136719

> <r_mmod_Stretch_Energy-OPLS-2005>
584.743835449219

> <r_mmod_Bend_Energy-OPLS-2005>
557.423583984375

> <r_mmod_Torsional_Energy-OPLS-2005>
233.731567382812

> <r_mmod_Improper_Torsional_Energy-OPLS-2005>
10.6402959823608

> <r_mmod_Van_der_Waal_Energy-OPLS-2005>
102.603050231934

> <r_mmod_Electrostatic_Energy-OPLS-2005>
-334.893218994141

> <r_mmod_Solvation_Energy-OPLS-2005>
-201.471313476562

> <b_mmod_Minimization_Converged-OPLS-2005>
0

> <r_mmod_RMS_Derivative-OPLS-2005>
1.60307800769806

$$$$
26
                    3D
 Structure written by MMmdl.
159167  0  0  1  0            999 V2000
  -30.6816  -14.6907   20.5891 C   0  0  0  0  0  0
  -30.4377  -12.4521   19.4772 C   0  0  0  0  0  0
  -29.5190  -12.5570   18.2441 C   0  0  0  0  0  0
  -28.0411  -12.3887   18.6388 C   0  0  0  0  0  0
  -27.6555  -13.2448   19.8745 C   0  0  2  0  0  0
  -28.6979  -13.1362   21.0102 C   0  0  0  0  0  0
  -25.2537  -13.8244   20.5686 C   0  0  0  0  0  0
  -24.1831  -13.0423   20.9175 C   0  0  0  0  0  0
  -24.6462  -11.6931   20.8733 C   0  0  0  0  0  0
  -23.9124  -10.4291   21.0377 C   0  0  0  0  0  0
  -24.3656   -9.4194   21.9155 C   0  0  0  0  0  0
  -23.6321   -8.2235   22.0738 C   0  0  0  0  0  0
  -22.4302   -8.0291   21.3538 C   0  0  0  0  0  0
  -21.9942   -9.0241   20.4628 C   0  0  0  0  0  0
  -22.7273  -10.2119   20.3036 C   0  0  0  0  0  0
  -21.6862   -6.0734   22.5266 C   0  0  0  0  0  0
  -21.4009   -6.5621   23.8196 C   0  0  0  0  0  0
  -21.3671   -5.6776   24.9161 C   0  0  0  0  0  0
  -21.6071   -4.3042   24.7223 C   0  0  0  0  0  0
  -21.8820   -3.8131   23.4340 C   0  0  0  0  0  0
  -21.9195   -4.6957   22.3398 C   0  0  0  0  0  0
  -22.7847  -13.5199   21.1803 C   0  0  0  0  0  0
  -22.1650   -4.2127   21.0977 F   0  0  0  0  0  0
  -21.5652   -3.4543   25.7740 F   0  0  0  0  0  0
  -30.0121  -13.4891   20.4536 N   0  0  0  0  0  0
  -26.3015  -12.9476   20.3366 N   0  0  0  0  0  0
  -25.9399  -11.6609   20.5757 N   0  0  0  0  0  0
  -22.0477  -12.8214   22.0397 N   0  0  0  0  0  0
  -25.4241  -15.1975   20.4110 N   0  0  0  0  0  0
  -31.8128  -14.8135   20.1066 O   0  0  0  0  0  0
  -21.6672   -6.8880   21.4234 O   0  0  0  0  0  0
  -22.3502  -14.5455   20.6599 O   0  0  0  0  0  0
  -24.6320  -31.8494   23.1950 C   0  0  0  0  0  0
  -25.9105  -32.4765   23.8338 C   0  0  1  0  0  0
  -27.2384  -27.2433   20.1441 C   0  0  0  0  0  0
  -25.5846  -33.8577   24.2196 N   0  0  0  0  0  0
  -23.4368  -30.4678   21.5344 C   0  0  2  0  0  0
  -24.8883  -28.9092   20.1201 C   0  0  0  0  0  0
  -22.7488  -29.4574   22.4875 C   0  0  0  0  0  0
  -18.0289  -28.1359   22.8499 C   0  0  0  0  0  0
  -24.1460  -36.7357   23.2629 C   0  0  0  0  0  0
  -25.9800  -30.7638   21.3724 C   0  0  0  0  0  0
  -26.0596  -29.3813   20.7216 C   0  0  0  0  0  0
  -27.2367  -28.5626   20.7221 C   0  0  0  0  0  0
  -26.0444  -26.8546   19.4968 C   0  0  0  0  0  0
  -24.8837  -27.6529   19.4991 C   0  0  0  0  0  0
  -23.6533  -29.7849   20.1588 C   0  0  0  0  0  0
  -25.4093  -36.3089   24.0273 C   0  0  1  0  0  0
  -20.5890  -28.3704   23.1213 C   0  0  2  0  0  0
  -20.6764  -26.9398   22.5384 C   0  0  0  0  0  0
  -19.5746  -26.6341   21.5182 C   0  0  0  0  0  0
  -18.1932  -26.7915   22.1609 C   0  0  0  0  0  0
  -19.1543  -28.8857   23.2869 C   0  0  0  0  0  0
  -18.9461  -30.1451   23.8909 C   0  0  0  0  0  0
  -17.6454  -30.6581   24.0573 C   0  0  0  0  0  0
  -25.9032  -34.9451   23.5059 C   0  0  0  0  0  0
  -16.5352  -29.9059   23.6345 C   0  0  0  0  0  0
  -16.7277  -28.6460   23.0417 C   0  0  0  0  0  0
  -26.4450  -31.6661   25.0789 C   0  0  0  0  0  0
  -25.3657  -31.3848   26.1514 C   0  0  0  0  0  0
  -27.0321  -30.3052   24.6386 C   0  0  0  0  0  0
  -27.5974  -32.4443   25.7594 C   0  0  0  0  0  0
  -27.5568  -37.1790   24.8401 C   0  0  0  0  0  0
  -21.4182  -29.3078   22.3617 N   0  0  0  0  0  0
  -26.4272  -37.3780   23.9393 N   0  0  0  0  0  0
  -24.7026  -31.0431   22.0932 N   0  0  0  0  0  0
  -23.4155  -28.8085   23.2984 O   0  0  0  0  0  0
  -28.3243  -26.3307   20.2412 O   0  0  0  0  0  0
  -26.5636  -34.8915   22.4650 O   0  0  0  0  0  0
  -23.5422  -32.1330   23.7157 O   0  0  0  0  0  0
  -30.7622  -19.3105   20.7972 C   0  0  0  0  0  0
  -28.6518  -19.5054   20.4571 C   0  0  0  0  0  0
  -29.5931  -18.4899   20.6208 C   0  0  0  0  0  0
  -30.2302  -15.8839   25.1056 C   0  0  0  0  0  0
  -29.3547  -16.9044   20.4798 C   0  0  0  0  0  0
  -29.9080  -15.3388   23.7002 C   0  0  0  0  0  0
  -28.9912  -23.6268   20.5459 C   0  0  0  0  0  0
  -28.5142  -22.1264   20.1352 C   0  0  0  0  0  0
  -30.5661  -16.1585   22.5671 C   0  0  0  0  0  0
  -28.0976  -24.8601   19.9664 C   0  0  0  0  0  0
  -30.5392  -20.6446   20.7018 N   0  0  0  0  0  0
  -29.2057  -20.8044   20.4908 N   0  0  0  0  0  0
  -30.0834  -15.7809   21.2212 N   0  0  0  0  0  0
  -31.4762  -12.5780   19.1647 H   0  0  0  0  0  0
  -30.3877  -11.4546   19.9212 H   0  0  0  0  0  0
  -29.7898  -11.8033   17.5032 H   0  0  0  0  0  0
  -29.6658  -13.5257   17.7615 H   0  0  0  0  0  0
  -27.8657  -11.3326   18.8440 H   0  0  0  0  0  0
  -27.4038  -12.6402   17.7918 H   0  0  0  0  0  0
  -27.6637  -14.2816   19.5346 H   0  0  0  0  0  0
  -28.7215  -12.1257   21.4211 H   0  0  0  0  0  0
  -28.4245  -13.7938   21.8333 H   0  0  0  0  0  0
  -25.2783   -9.5679   22.4752 H   0  0  0  0  0  0
  -24.0021   -7.4652   22.7487 H   0  0  0  0  0  0
  -21.0846   -8.8736   19.8972 H   0  0  0  0  0  0
  -22.3674  -10.9654   19.6176 H   0  0  0  0  0  0
  -21.1965   -7.6117   23.9690 H   0  0  0  0  0  0
  -21.1525   -6.0507   25.9062 H   0  0  0  0  0  0
  -22.0609   -2.7598   23.2847 H   0  0  0  0  0  0
  -22.4052  -11.9894   22.4851 H   0  0  0  0  0  0
  -21.1088  -13.1256   22.2545 H   0  0  0  0  0  0
  -24.6594  -15.8550   20.5208 H   0  0  0  0  0  0
  -26.2792  -15.6387   20.0958 H   0  0  0  0  0  0
  -26.7224  -32.5390   23.1145 H   0  0  0  0  0  0
  -24.9981  -33.9765   25.0311 H   0  0  0  0  0  0
  -22.7422  -31.2944   21.3687 H   0  0  0  0  0  0
  -23.3720  -35.9677   23.3232 H   0  0  0  0  0  0
  -24.3548  -36.9114   22.2065 H   0  0  0  0  0  0
  -23.7244  -37.6532   23.6749 H   0  0  0  0  0  0
  -26.1132  -31.5169   20.5931 H   0  0  0  0  0  0
  -26.8589  -30.8200   22.0057 H   0  0  0  0  0  0
  -28.1343  -28.9201   21.2048 H   0  0  0  0  0  0
  -25.9657  -25.9018   18.9978 H   0  0  0  0  0  0
  -23.9896  -27.2748   19.0247 H   0  0  0  0  0  0
  -23.7645  -30.5472   19.3873 H   0  0  0  0  0  0
  -22.7853  -29.1907   19.8658 H   0  0  0  0  0  0
  -25.1266  -36.1951   25.0758 H   0  0  0  0  0  0
  -21.0003  -28.3285   24.1317 H   0  0  0  0  0  0
  -20.5575  -26.2310   23.3616 H   0  0  0  0  0  0
  -21.6637  -26.7362   22.1215 H   0  0  0  0  0  0
  -19.6890  -25.6220   21.1290 H   0  0  0  0  0  0
  -19.6693  -27.3092   20.6679 H   0  0  0  0  0  0
  -17.4175  -26.6657   21.4034 H   0  0  0  0  0  0
  -18.0375  -26.0003   22.8978 H   0  0  0  0  0  0
  -19.7928  -30.7276   24.2228 H   0  0  0  0  0  0
  -17.5007  -31.6252   24.5183 H   0  0  0  0  0  0
  -15.5358  -30.2986   23.7630 H   0  0  0  0  0  0
  -15.8668  -28.0762   22.7187 H   0  0  0  0  0  0
  -24.5744  -30.7330   25.7827 H   0  0  0  0  0  0
  -24.8965  -32.3036   26.5039 H   0  0  0  0  0  0
  -25.7917  -30.8933   27.0279 H   0  0  0  0  0  0
  -26.2941  -29.6832   24.1335 H   0  0  0  0  0  0
  -27.3843  -29.7343   25.4996 H   0  0  0  0  0  0
  -27.8872  -30.4289   23.9749 H   0  0  0  0  0  0
  -27.2535  -33.3712   26.2226 H   0  0  0  0  0  0
  -28.3789  -32.7128   25.0466 H   0  0  0  0  0  0
  -28.0672  -31.8598   26.5533 H   0  0  0  0  0  0
  -28.2481  -38.0175   24.7569 H   0  0  0  0  0  0
  -28.1166  -36.2731   24.6064 H   0  0  0  0  0  0
  -27.2307  -37.1261   25.8791 H   0  0  0  0  0  0
  -20.9311  -29.8923   21.6968 H   0  0  0  0  0  0
  -26.0151  -38.2825   24.1502 H   0  0  0  0  0  0
  -31.7851  -18.9788   20.9285 H   0  0  0  0  0  0
  -27.5934  -19.4079   20.2572 H   0  0  0  0  0  0
  -29.9259  -15.1792   25.8795 H   0  0  0  0  0  0
  -29.7093  -16.8224   25.3113 H   0  0  0  0  0  0
  -31.2993  -16.0659   25.2357 H   0  0  0  0  0  0
  -29.4102  -16.6470   19.4197 H   0  0  0  0  0  0
  -28.3082  -16.7086   20.7252 H   0  0  0  0  0  0
  -28.8230  -15.3339   23.5760 H   0  0  0  0  0  0
  -30.2240  -14.2950   23.6388 H   0  0  0  0  0  0
  -30.0251  -23.7680   20.2362 H   0  0  0  0  0  0
  -28.9951  -23.6981   21.6341 H   0  0  0  0  0  0
  -28.4156  -22.1141   19.0516 H   0  0  0  0  0  0
  -27.4943  -22.0151   20.5002 H   0  0  0  0  0  0
  -31.6523  -16.0359   22.6150 H   0  0  0  0  0  0
  -30.3871  -17.2133   22.7750 H   0  0  0  0  0  0
  -27.0869  -24.6059   20.2848 H   0  0  0  0  0  0
  -28.0899  -24.7647   18.8803 H   0  0  0  0  0  0
  1 25  1  0  0  0
  1 30  2  0  0  0
  1 83  1  0  0  0
  2  3  1  0  0  0
  2 25  1  0  0  0
  2 84  1  0  0  0
  2 85  1  0  0  0
  3  4  1  0  0  0
  3 86  1  0  0  0
  3 87  1  0  0  0
  4  5  1  0  0  0
  4 88  1  0  0  0
  4 89  1  0  0  0
  5  6  1  0  0  0
  5 26  1  0  0  0
  5 90  1  0  0  0
  6 25  1  0  0  0
  6 91  1  0  0  0
  6 92  1  0  0  0
  7  8  2  0  0  0
  7 26  1  0  0  0
  7 29  1  0  0  0
  8  9  1  0  0  0
  8 22  1  0  0  0
  9 10  1  0  0  0
  9 27  2  0  0  0
 10 11  2  0  0  0
 10 15  1  0  0  0
 11 12  1  0  0  0
 11 93  1  0  0  0
 12 13  2  0  0  0
 12 94  1  0  0  0
 13 14  1  0  0  0
 13 31  1  0  0  0
 14 15  2  0  0  0
 14 95  1  0  0  0
 15 96  1  0  0  0
 16 17  2  0  0  0
 16 21  1  0  0  0
 16 31  1  0  0  0
 17 18  1  0  0  0
 17 97  1  0  0  0
 18 19  2  0  0  0
 18 98  1  0  0  0
 19 20  1  0  0  0
 19 24  1  0  0  0
 20 21  2  0  0  0
 20 99  1  0  0  0
 21 23  1  0  0  0
 22 28  1  0  0  0
 22 32  2  0  0  0
 26 27  1  0  0  0
 28100  1  0  0  0
 28101  1  0  0  0
 29102  1  0  0  0
 29103  1  0  0  0
 33 34  1  0  0  0
 33 66  1  0  0  0
 33 70  2  0  0  0
 34 36  1  0  0  0
 34 59  1  0  0  0
 34104  1  0  0  0
 35 44  2  0  0  0
 35 45  1  0  0  0
 35 68  1  0  0  0
 36 56  1  0  0  0
 36105  1  0  0  0
 37 39  1  0  0  0
 37 47  1  0  0  0
 37 66  1  0  0  0
 37106  1  0  0  0
 38 43  2  0  0  0
 38 46  1  0  0  0
 38 47  1  0  0  0
 39 64  1  0  0  0
 39 67  2  0  0  0
 40 52  1  0  0  0
 40 53  2  0  0  0
 40 58  1  0  0  0
 41107  1  0  0  0
 41108  1  0  0  0
 41109  1  0  0  0
 41 48  1  0  0  0
 42 43  1  0  0  0
 42 66  1  0  0  0
 42110  1  0  0  0
 42111  1  0  0  0
 43 44  1  0  0  0
 44112  1  0  0  0
 45 46  2  0  0  0
 45113  1  0  0  0
 46114  1  0  0  0
 47115  1  0  0  0
 47116  1  0  0  0
 48 56  1  0  0  0
 48 65  1  0  0  0
 48117  1  0  0  0
 49 50  1  0  0  0
 49 53  1  0  0  0
 49 64  1  0  0  0
 49118  1  0  0  0
 50 51  1  0  0  0
 50119  1  0  0  0
 50120  1  0  0  0
 51 52  1  0  0  0
 51121  1  0  0  0
 51122  1  0  0  0
 52123  1  0  0  0
 52124  1  0  0  0
 53 54  1  0  0  0
 54 55  2  0  0  0
 54125  1  0  0  0
 55 57  1  0  0  0
 55126  1  0  0  0
 56 69  2  0  0  0
 57 58  2  0  0  0
 57127  1  0  0  0
 58128  1  0  0  0
 59 60  1  0  0  0
 59 61  1  0  0  0
 59 62  1  0  0  0
 60129  1  0  0  0
 60130  1  0  0  0
 60131  1  0  0  0
 61132  1  0  0  0
 61133  1  0  0  0
 61134  1  0  0  0
 62135  1  0  0  0
 62136  1  0  0  0
 62137  1  0  0  0
 63 65  1  0  0  0
 63138  1  0  0  0
 63139  1  0  0  0
 63140  1  0  0  0
 64141  1  0  0  0
 65142  1  0  0  0
 68 80  1  0  0  0
 71 73  1  0  0  0
 71 81  2  0  0  0
 71143  1  0  0  0
 72 73  2  0  0  0
 72 82  1  0  0  0
 72144  1  0  0  0
 73 75  1  0  0  0
 74 76  1  0  0  0
 74145  1  0  0  0
 74146  1  0  0  0
 74147  1  0  0  0
 75 83  1  0  0  0
 75148  1  0  0  0
 75149  1  0  0  0
 76 79  1  0  0  0
 76150  1  0  0  0
 76151  1  0  0  0
 77 78  1  0  0  0
 77 80  1  0  0  0
 77152  1  0  0  0
 77153  1  0  0  0
 78 82  1  0  0  0
 78154  1  0  0  0
 78155  1  0  0  0
 79 83  1  0  0  0
 79156  1  0  0  0
 79157  1  0  0  0
 80158  1  0  0  0
 80159  1  0  0  0
 81 82  1  0  0  0
M  ISO  4   1 100  68 101  80 101  83 100
M  END
> <chiral flag>
0

> <version>
0

> <s_m_source_file>
/data/baiqing/PycharmProjects/Reinvent-master-3.2/result/LINK_invent/BTK/process_docking_weight1_custom_sum_contain_oxygen_bond_distance_aromatic_linkinvent_7_9_3/rearranged_h_0047.sdf

> <i_m_source_file_index>
27

> <r_mmod_Potential_Energy-OPLS-2005>
337.254730224609

> <r_mmod_Stretch_Energy-OPLS-2005>
134.100341796875

> <r_mmod_Bend_Energy-OPLS-2005>
205.233612060547

> <r_mmod_Torsional_Energy-OPLS-2005>
292.003753662109

> <r_mmod_Improper_Torsional_Energy-OPLS-2005>
4.59080505371094

> <r_mmod_Van_der_Waal_Energy-OPLS-2005>
110.948089599609

> <r_mmod_Electrostatic_Energy-OPLS-2005>
-274.797241210938

> <r_mmod_Solvation_Energy-OPLS-2005>
-213.467956542969

> <b_mmod_Minimization_Converged-OPLS-2005>
0

> <r_mmod_RMS_Derivative-OPLS-2005>
7.13256406784058

$$$$
27
                    3D
 Structure written by MMmdl.
155163  0  0  1  0            999 V2000
  -30.7532  -14.4426   20.5252 C   0  0  0  0  0  0
  -30.4074  -12.2787   19.4262 C   0  0  0  0  0  0
  -29.4978  -12.5080   18.2046 C   0  0  0  0  0  0
  -28.0161  -12.3885   18.6125 C   0  0  0  0  0  0
  -27.6636  -13.2210   19.8787 C   0  0  2  0  0  0
  -28.7110  -13.0274   20.9998 C   0  0  0  0  0  0
  -25.2599  -13.8169   20.5714 C   0  0  0  0  0  0
  -24.1861  -13.0441   20.9185 C   0  0  0  0  0  0
  -24.6436  -11.6907   20.8726 C   0  0  0  0  0  0
  -23.9100  -10.4291   21.0378 C   0  0  0  0  0  0
  -24.3632   -9.4203   21.9153 C   0  0  0  0  0  0
  -23.6294   -8.2251   22.0725 C   0  0  0  0  0  0
  -22.4279   -8.0277   21.3520 C   0  0  0  0  0  0
  -21.9922   -9.0259   20.4631 C   0  0  0  0  0  0
  -22.7263  -10.2137   20.3043 C   0  0  0  0  0  0
  -21.6853   -6.0746   22.5268 C   0  0  0  0  0  0
  -21.4010   -6.5642   23.8206 C   0  0  0  0  0  0
  -21.3684   -5.6791   24.9161 C   0  0  0  0  0  0
  -21.6062   -4.3055   24.7206 C   0  0  0  0  0  0
  -21.8825   -3.8154   23.4324 C   0  0  0  0  0  0
  -21.9192   -4.6973   22.3388 C   0  0  0  0  0  0
  -22.7889  -13.5228   21.1856 C   0  0  0  0  0  0
  -22.1656   -4.2170   21.0962 F   0  0  0  0  0  0
  -21.5657   -3.4537   25.7721 F   0  0  0  0  0  0
  -30.0388  -13.2896   20.4284 N   0  0  0  0  0  0
  -26.3060  -12.9376   20.3425 N   0  0  0  0  0  0
  -25.9372  -11.6518   20.5779 N   0  0  0  0  0  0
  -22.0538  -12.8191   22.0392 N   0  0  0  0  0  0
  -25.4319  -15.1880   20.4149 N   0  0  0  0  0  0
  -31.9098  -14.5428   20.1150 O   0  0  0  0  0  0
  -21.6630   -6.8885   21.4226 O   0  0  0  0  0  0
  -22.3589  -14.5561   20.6738 O   0  0  0  0  0  0
  -24.6092  -31.8683   23.2120 C   0  0  0  0  0  0
  -25.8998  -32.4832   23.8388 C   0  0  1  0  0  0
  -27.2270  -27.4469   20.1050 C   0  0  0  0  0  0
  -25.5859  -33.8640   24.2308 N   0  0  0  0  0  0
  -23.3961  -30.4926   21.5517 C   0  0  2  0  0  0
  -24.8403  -28.9665   20.1119 C   0  0  0  0  0  0
  -22.7371  -29.4652   22.5000 C   0  0  0  0  0  0
  -18.0269  -28.1394   22.8501 C   0  0  0  0  0  0
  -24.1482  -36.7321   23.2643 C   0  0  0  0  0  0
  -25.9220  -30.8422   21.3606 C   0  0  0  0  0  0
  -26.0000  -29.4787   20.7088 C   0  0  0  0  0  0
  -27.1932  -28.7241   20.7064 C   0  0  0  0  0  0
  -26.0492  -26.9526   19.4958 C   0  0  0  0  0  0
  -24.8593  -27.7009   19.5080 C   0  0  0  0  0  0
  -23.6023  -29.8308   20.1638 C   0  0  0  0  0  0
  -25.4111  -36.3129   24.0341 C   0  0  1  0  0  0
  -20.5851  -28.3655   23.1373 C   0  0  2  0  0  0
  -20.6773  -26.9404   22.5460 C   0  0  0  0  0  0
  -19.5757  -26.6410   21.5251 C   0  0  0  0  0  0
  -18.1924  -26.7945   22.1632 C   0  0  0  0  0  0
  -19.1511  -28.8833   23.2925 C   0  0  0  0  0  0
  -18.9449  -30.1448   23.8920 C   0  0  0  0  0  0
  -17.6458  -30.6601   24.0586 C   0  0  0  0  0  0
  -25.9032  -34.9496   23.5128 C   0  0  0  0  0  0
  -16.5344  -29.9115   23.6356 C   0  0  0  0  0  0
  -16.7257  -28.6535   23.0355 C   0  0  0  0  0  0
  -26.4451  -31.6612   25.0698 C   0  0  0  0  0  0
  -25.3745  -31.3769   26.1473 C   0  0  0  0  0  0
  -27.0267  -30.3057   24.6063 C   0  0  0  0  0  0
  -27.6020  -32.4337   25.7452 C   0  0  0  0  0  0
  -27.5594  -37.1805   24.8462 C   0  0  0  0  0  0
  -21.4097  -29.3015   22.3759 N   0  0  0  0  0  0
  -26.4295  -37.3812   23.9422 N   0  0  0  0  0  0
  -24.6607  -31.0809   22.1006 N   0  0  0  0  0  0
  -23.4157  -28.8209   23.3040 O   0  0  0  0  0  0
  -28.4056  -26.7267   20.1464 O   0  0  0  0  0  0
  -26.5623  -34.8936   22.4704 O   0  0  0  0  0  0
  -23.5290  -32.1427   23.7526 O   0  0  0  0  0  0
  -28.5158  -21.3014   20.3337 C   0  0  0  0  0  0
  -29.5663  -20.6129   20.8736 C   0  0  0  0  0  0
  -30.3010  -19.4029   20.3679 C   0  0  0  0  0  0
  -29.6997  -18.0690   20.8690 C   0  0  0  0  0  0
  -27.6479  -24.7359   21.4075 C   0  0  0  0  0  0
  -27.1774  -23.2687   21.2954 C   0  0  0  0  0  0
  -30.6569  -16.8866   20.6326 C   0  0  0  0  0  0
  -28.3286  -25.2933   20.1350 C   0  0  0  0  0  0
  -29.8931  -21.1989   22.0954 N   0  0  0  0  0  0
  -29.1001  -22.1996   22.3209 N   0  0  0  0  0  0
  -28.2542  -22.2893   21.2672 N   0  0  0  0  0  0
  -30.0813  -15.5532   20.8760 N   0  0  0  0  0  0
  -31.4579  -12.3315   19.1344 H   0  0  0  0  0  0
  -30.2585  -11.2752   19.8300 H   0  0  0  0  0  0
  -29.7269  -11.7884   17.4182 H   0  0  0  0  0  0
  -29.6919  -13.4957   17.7811 H   0  0  0  0  0  0
  -27.8099  -11.3321   18.7900 H   0  0  0  0  0  0
  -27.3769  -12.6825   17.7795 H   0  0  0  0  0  0
  -27.7022  -14.2702   19.5838 H   0  0  0  0  0  0
  -28.6753  -12.0116   21.3966 H   0  0  0  0  0  0
  -28.5051  -13.6857   21.8444 H   0  0  0  0  0  0
  -25.2786   -9.5669   22.4712 H   0  0  0  0  0  0
  -24.0015   -7.4647   22.7435 H   0  0  0  0  0  0
  -21.0872   -8.8794   19.8920 H   0  0  0  0  0  0
  -22.3736  -10.9671   19.6158 H   0  0  0  0  0  0
  -21.1969   -7.6146   23.9713 H   0  0  0  0  0  0
  -21.1521   -6.0510   25.9072 H   0  0  0  0  0  0
  -22.0575   -2.7617   23.2807 H   0  0  0  0  0  0
  -22.4182  -11.9855   22.4768 H   0  0  0  0  0  0
  -21.1148  -13.1201   22.2625 H   0  0  0  0  0  0
  -24.6701  -15.8444   20.5384 H   0  0  0  0  0  0
  -26.2924  -15.6264   20.1121 H   0  0  0  0  0  0
  -26.7036  -32.5571   23.1122 H   0  0  0  0  0  0
  -25.0012  -33.9816   25.0446 H   0  0  0  0  0  0
  -22.6864  -31.3090   21.4124 H   0  0  0  0  0  0
  -23.3759  -35.9641   23.3324 H   0  0  0  0  0  0
  -24.3563  -36.8942   22.2053 H   0  0  0  0  0  0
  -23.7220  -37.6529   23.6644 H   0  0  0  0  0  0
  -26.0335  -31.6084   20.5935 H   0  0  0  0  0  0
  -26.8094  -30.8920   21.9795 H   0  0  0  0  0  0
  -28.0816  -29.1109   21.1857 H   0  0  0  0  0  0
  -26.0239  -25.9891   19.0117 H   0  0  0  0  0  0
  -23.9685  -27.2956   19.0487 H   0  0  0  0  0  0
  -23.7098  -30.6077   19.4054 H   0  0  0  0  0  0
  -22.7268  -29.2505   19.8676 H   0  0  0  0  0  0
  -25.1280  -36.2010   25.0840 H   0  0  0  0  0  0
  -20.9909  -28.3209   24.1504 H   0  0  0  0  0  0
  -20.5763  -26.2214   23.3612 H   0  0  0  0  0  0
  -21.6638  -26.7525   22.1191 H   0  0  0  0  0  0
  -19.6938  -25.6340   21.1253 H   0  0  0  0  0  0
  -19.6740  -27.3242   20.6801 H   0  0  0  0  0  0
  -17.4214  -26.6724   21.4014 H   0  0  0  0  0  0
  -18.0284  -26.0090   22.9014 H   0  0  0  0  0  0
  -19.7927  -30.7279   24.2272 H   0  0  0  0  0  0
  -17.5020  -31.6287   24.5184 H   0  0  0  0  0  0
  -15.5341  -30.3031   23.7680 H   0  0  0  0  0  0
  -15.8644  -28.0888   22.7030 H   0  0  0  0  0  0
  -24.5795  -30.7242   25.7842 H   0  0  0  0  0  0
  -24.9070  -32.2962   26.5009 H   0  0  0  0  0  0
  -25.8081  -30.8852   27.0184 H   0  0  0  0  0  0
  -26.2781  -29.6816   24.1148 H   0  0  0  0  0  0
  -27.4093  -29.7303   25.4508 H   0  0  0  0  0  0
  -27.8597  -30.4403   23.9157 H   0  0  0  0  0  0
  -27.2620  -33.3627   26.2053 H   0  0  0  0  0  0
  -28.3813  -32.6926   25.0268 H   0  0  0  0  0  0
  -28.0683  -31.8445   26.5368 H   0  0  0  0  0  0
  -28.2606  -38.0106   24.7552 H   0  0  0  0  0  0
  -28.1094  -36.2649   24.6226 H   0  0  0  0  0  0
  -27.2316  -37.1402   25.8863 H   0  0  0  0  0  0
  -20.9202  -29.8713   21.7002 H   0  0  0  0  0  0
  -26.0204  -38.2904   24.1445 H   0  0  0  0  0  0
  -27.9476  -21.1651   19.4213 H   0  0  0  0  0  0
  -31.3466  -19.4680   20.6753 H   0  0  0  0  0  0
  -30.3261  -19.4077   19.2761 H   0  0  0  0  0  0
  -28.7443  -17.9025   20.3701 H   0  0  0  0  0  0
  -29.4910  -18.1427   21.9377 H   0  0  0  0  0  0
  -28.3157  -24.8598   22.2604 H   0  0  0  0  0  0
  -26.7676  -25.3307   21.6489 H   0  0  0  0  0  0
  -26.5531  -23.1337   20.4114 H   0  0  0  0  0  0
  -26.5421  -23.0267   22.1492 H   0  0  0  0  0  0
  -31.0103  -16.9309   19.5991 H   0  0  0  0  0  0
  -31.5425  -17.0031   21.2592 H   0  0  0  0  0  0
  -27.8432  -24.9410   19.2267 H   0  0  0  0  0  0
  -29.3472  -24.9058   20.0826 H   0  0  0  0  0  0
  -29.1187  -15.4776   21.1637 H   0  0  0  0  0  0
  1 25  1  0  0  0
  1 30  2  0  0  0
  1 82  1  0  0  0
  2  3  1  0  0  0
  2 25  1  0  0  0
  2 83  1  0  0  0
  2 84  1  0  0  0
  3  4  1  0  0  0
  3 85  1  0  0  0
  3 86  1  0  0  0
  4  5  1  0  0  0
  4 87  1  0  0  0
  4 88  1  0  0  0
  5  6  1  0  0  0
  5 26  1  0  0  0
  5 89  1  0  0  0
  6 25  1  0  0  0
  6 90  1  0  0  0
  6 91  1  0  0  0
  7  8  2  0  0  0
  7 26  1  0  0  0
  7 29  1  0  0  0
  8  9  1  0  0  0
  8 22  1  0  0  0
  9 10  1  0  0  0
  9 27  2  0  0  0
 10 11  2  0  0  0
 10 15  1  0  0  0
 11 12  1  0  0  0
 11 92  1  0  0  0
 12 13  2  0  0  0
 12 93  1  0  0  0
 13 14  1  0  0  0
 13 31  1  0  0  0
 14 15  2  0  0  0
 14 94  1  0  0  0
 15 95  1  0  0  0
 16 17  2  0  0  0
 16 21  1  0  0  0
 16 31  1  0  0  0
 17 18  1  0  0  0
 17 96  1  0  0  0
 18 19  2  0  0  0
 18 97  1  0  0  0
 19 20  1  0  0  0
 19 24  1  0  0  0
 20 21  2  0  0  0
 20 98  1  0  0  0
 21 23  1  0  0  0
 22 28  1  0  0  0
 22 32  2  0  0  0
 26 27  1  0  0  0
 28 99  1  0  0  0
 28100  1  0  0  0
 29101  1  0  0  0
 29102  1  0  0  0
 33 34  1  0  0  0
 33 66  1  0  0  0
 33 70  2  0  0  0
 34 36  1  0  0  0
 34 59  1  0  0  0
 34103  1  0  0  0
 35 44  2  0  0  0
 35 45  1  0  0  0
 35 68  1  0  0  0
 36 56  1  0  0  0
 36104  1  0  0  0
 37 39  1  0  0  0
 37 47  1  0  0  0
 37 66  1  0  0  0
 37105  1  0  0  0
 38 43  2  0  0  0
 38 46  1  0  0  0
 38 47  1  0  0  0
 39 64  1  0  0  0
 39 67  2  0  0  0
 40 52  1  0  0  0
 40 53  2  0  0  0
 40 58  1  0  0  0
 41106  1  0  0  0
 41107  1  0  0  0
 41108  1  0  0  0
 41 48  1  0  0  0
 42 43  1  0  0  0
 42 66  1  0  0  0
 42109  1  0  0  0
 42110  1  0  0  0
 43 44  1  0  0  0
 44111  1  0  0  0
 45 46  2  0  0  0
 45112  1  0  0  0
 46113  1  0  0  0
 47114  1  0  0  0
 47115  1  0  0  0
 48 56  1  0  0  0
 48 65  1  0  0  0
 48116  1  0  0  0
 49 50  1  0  0  0
 49 53  1  0  0  0
 49 64  1  0  0  0
 49117  1  0  0  0
 50 51  1  0  0  0
 50118  1  0  0  0
 50119  1  0  0  0
 51 52  1  0  0  0
 51120  1  0  0  0
 51121  1  0  0  0
 52122  1  0  0  0
 52123  1  0  0  0
 53 54  1  0  0  0
 54 55  2  0  0  0
 54124  1  0  0  0
 55 57  1  0  0  0
 55125  1  0  0  0
 56 69  2  0  0  0
 57 58  2  0  0  0
 57126  1  0  0  0
 58127  1  0  0  0
 59 60  1  0  0  0
 59 61  1  0  0  0
 59 62  1  0  0  0
 60128  1  0  0  0
 60129  1  0  0  0
 60130  1  0  0  0
 61131  1  0  0  0
 61132  1  0  0  0
 61133  1  0  0  0
 62134  1  0  0  0
 62135  1  0  0  0
 62136  1  0  0  0
 63 65  1  0  0  0
 63137  1  0  0  0
 63138  1  0  0  0
 63139  1  0  0  0
 64140  1  0  0  0
 65141  1  0  0  0
 68 78  1  0  0  0
 71 72  2  0  0  0
 71 81  1  0  0  0
 71142  1  0  0  0
 72 73  1  0  0  0
 72 79  1  0  0  0
 73 74  1  0  0  0
 73143  1  0  0  0
 73144  1  0  0  0
 74 77  1  0  0  0
 74145  1  0  0  0
 74146  1  0  0  0
 75 76  1  0  0  0
 75 78  1  0  0  0
 75147  1  0  0  0
 75148  1  0  0  0
 76 81  1  0  0  0
 76149  1  0  0  0
 76150  1  0  0  0
 77 82  1  0  0  0
 77151  1  0  0  0
 77152  1  0  0  0
 78153  1  0  0  0
 78154  1  0  0  0
 79 80  2  0  0  0
 80 81  1  0  0  0
 82155  1  0  0  0
M  ISO  4   1 100  68 101  78 101  82 100
M  END
> <chiral flag>
0

> <version>
0

> <s_m_source_file>
/data/baiqing/PycharmProjects/Reinvent-master-3.2/result/LINK_invent/BTK/process_docking_weight1_custom_sum_contain_oxygen_bond_distance_aromatic_linkinvent_7_9_3/rearranged_h_0047.sdf

> <i_m_source_file_index>
28

> <r_mmod_Potential_Energy-OPLS-2005>
-146.884063720703

> <r_mmod_Stretch_Energy-OPLS-2005>
32.2897758483887

> <r_mmod_Bend_Energy-OPLS-2005>
96.0587997436523

> <r_mmod_Torsional_Energy-OPLS-2005>
202.407150268555

> <r_mmod_Improper_Torsional_Energy-OPLS-2005>
5.4475302696228

> <r_mmod_Van_der_Waal_Energy-OPLS-2005>
132.960144042969

> <r_mmod_Electrostatic_Energy-OPLS-2005>
-403.792572021484

> <r_mmod_Solvation_Energy-OPLS-2005>
-228.558624267578

> <b_mmod_Minimization_Converged-OPLS-2005>
0

> <r_mmod_RMS_Derivative-OPLS-2005>
3.56122970581055

$$$$
28
                    3D
 Structure written by MMmdl.
152160  0  0  1  0            999 V2000
  -30.5388  -14.9703   20.4153 C   0  0  0  0  0  0
  -30.4400  -12.6020   19.5027 C   0  0  0  0  0  0
  -29.5247  -12.5312   18.2585 C   0  0  0  0  0  0
  -28.0570  -12.3172   18.6743 C   0  0  0  0  0  0
  -27.6288  -13.2519   19.8364 C   0  0  2  0  0  0
  -28.6704  -13.2918   20.9744 C   0  0  0  0  0  0
  -25.2455  -13.8223   20.5712 C   0  0  0  0  0  0
  -24.1777  -13.0440   20.9228 C   0  0  0  0  0  0
  -24.6401  -11.6926   20.8748 C   0  0  0  0  0  0
  -23.9087  -10.4293   21.0406 C   0  0  0  0  0  0
  -24.3635   -9.4206   21.9181 C   0  0  0  0  0  0
  -23.6303   -8.2245   22.0753 C   0  0  0  0  0  0
  -22.4284   -8.0285   21.3546 C   0  0  0  0  0  0
  -21.9924   -9.0260   20.4648 C   0  0  0  0  0  0
  -22.7260  -10.2135   20.3055 C   0  0  0  0  0  0
  -21.6858   -6.0737   22.5278 C   0  0  0  0  0  0
  -21.4017   -6.5640   23.8210 C   0  0  0  0  0  0
  -21.3661   -5.6794   24.9174 C   0  0  0  0  0  0
  -21.6045   -4.3055   24.7225 C   0  0  0  0  0  0
  -21.8819   -3.8147   23.4345 C   0  0  0  0  0  0
  -21.9194   -4.6963   22.3402 C   0  0  0  0  0  0
  -22.7795  -13.5206   21.1881 C   0  0  0  0  0  0
  -22.1662   -4.2149   21.0978 F   0  0  0  0  0  0
  -21.5630   -3.4538   25.7737 F   0  0  0  0  0  0
  -29.9436  -13.7080   20.3731 N   0  0  0  0  0  0
  -26.2884  -12.9462   20.3235 N   0  0  0  0  0  0
  -25.9336  -11.6588   20.5732 N   0  0  0  0  0  0
  -22.0448  -12.8193   22.0439 N   0  0  0  0  0  0
  -25.4104  -15.1954   20.4128 N   0  0  0  0  0  0
  -31.7442  -15.0263   20.1504 O   0  0  0  0  0  0
  -21.6646   -6.8882   21.4242 O   0  0  0  0  0  0
  -22.3474  -14.5506   20.6719 O   0  0  0  0  0  0
  -24.6463  -31.8417   23.1867 C   0  0  0  0  0  0
  -25.9223  -32.4683   23.8264 C   0  0  1  0  0  0
  -27.2141  -27.1085   20.1525 C   0  0  0  0  0  0
  -25.5958  -33.8490   24.2176 N   0  0  0  0  0  0
  -23.4513  -30.4617   21.5324 C   0  0  2  0  0  0
  -24.9015  -28.8869   20.1086 C   0  0  0  0  0  0
  -22.7583  -29.4537   22.4841 C   0  0  0  0  0  0
  -18.0308  -28.1397   22.8476 C   0  0  0  0  0  0
  -24.1492  -36.7251   23.2642 C   0  0  0  0  0  0
  -26.0104  -30.7063   21.3914 C   0  0  0  0  0  0
  -26.0804  -29.3158   20.7313 C   0  0  0  0  0  0
  -27.2372  -28.4435   20.7363 C   0  0  0  0  0  0
  -26.0097  -26.7940   19.4826 C   0  0  0  0  0  0
  -24.8812  -27.6406   19.4676 C   0  0  0  0  0  0
  -23.6797  -29.7921   20.1518 C   0  0  0  0  0  0
  -25.4126  -36.3025   24.0312 C   0  0  1  0  0  0
  -20.5922  -28.3727   23.1224 C   0  0  2  0  0  0
  -20.6790  -26.9426   22.5401 C   0  0  0  0  0  0
  -19.5763  -26.6381   21.5210 C   0  0  0  0  0  0
  -18.1946  -26.7935   22.1623 C   0  0  0  0  0  0
  -19.1566  -28.8881   23.2842 C   0  0  0  0  0  0
  -18.9480  -30.1475   23.8871 C   0  0  0  0  0  0
  -17.6476  -30.6592   24.0559 C   0  0  0  0  0  0
  -25.9078  -34.9400   23.5053 C   0  0  0  0  0  0
  -16.5367  -29.9083   23.6337 C   0  0  0  0  0  0
  -16.7292  -28.6502   23.0358 C   0  0  0  0  0  0
  -26.4529  -31.6565   25.0721 C   0  0  0  0  0  0
  -25.3701  -31.3769   26.1407 C   0  0  0  0  0  0
  -27.0402  -30.2953   24.6338 C   0  0  0  0  0  0
  -27.6049  -32.4343   25.7510 C   0  0  0  0  0  0
  -27.5575  -37.1783   24.8464 C   0  0  0  0  0  0
  -21.4271  -29.3050   22.3592 N   0  0  0  0  0  0
  -26.4286  -37.3741   23.9406 N   0  0  0  0  0  0
  -24.7226  -31.0250   22.0915 N   0  0  0  0  0  0
  -23.4212  -28.8084   23.3002 O   0  0  0  0  0  0
  -28.2438  -26.0902   20.2397 O   0  0  0  0  0  0
  -26.5668  -34.8901   22.4636 O   0  0  0  0  0  0
  -23.5575  -32.1305   23.7069 O   0  0  0  0  0  0
  -30.1089  -23.3975   20.9492 C   0  0  0  0  0  0
  -28.5009  -21.8031   20.1693 C   0  0  0  0  0  0
  -28.8352  -23.2415   20.3707 C   0  0  0  0  0  0
  -30.9061  -22.2738   21.2841 C   0  0  0  0  0  0
  -29.3747  -20.6518   20.5194 C   0  0  0  0  0  0
  -32.2598  -22.4947   21.9255 C   0  0  0  0  0  0
  -27.9035  -24.5724   20.0274 C   0  0  0  0  0  0
  -29.0341  -19.0214   20.4851 C   0  0  0  0  0  0
  -30.1304  -17.7183   20.4441 C   0  0  0  0  0  0
  -30.5568  -20.9711   21.0921 N   0  0  0  0  0  0
  -29.7675  -16.1661   20.5450 N   0  0  0  0  0  0
  -31.4744  -12.7587   19.1927 H   0  0  0  0  0  0
  -30.4342  -11.6544   20.0435 H   0  0  0  0  0  0
  -29.8480  -11.7284   17.5944 H   0  0  0  0  0  0
  -29.6131  -13.4568   17.6874 H   0  0  0  0  0  0
  -27.9535  -11.2765   18.9828 H   0  0  0  0  0  0
  -27.3962  -12.4477   17.8162 H   0  0  0  0  0  0
  -27.5885  -14.2522   19.4043 H   0  0  0  0  0  0
  -28.7622  -12.3200   21.4616 H   0  0  0  0  0  0
  -28.3668  -13.9993   21.7473 H   0  0  0  0  0  0
  -25.2778   -9.5681   22.4758 H   0  0  0  0  0  0
  -24.0010   -7.4638   22.7474 H   0  0  0  0  0  0
  -21.0855   -8.8783   19.8954 H   0  0  0  0  0  0
  -22.3719  -10.9675   19.6164 H   0  0  0  0  0  0
  -21.2008   -7.6148   23.9714 H   0  0  0  0  0  0
  -21.1484   -6.0523   25.9077 H   0  0  0  0  0  0
  -22.0595   -2.7609   23.2845 H   0  0  0  0  0  0
  -22.4080  -11.9869   22.4842 H   0  0  0  0  0  0
  -21.1056  -13.1198   22.2627 H   0  0  0  0  0  0
  -24.6372  -15.8429   20.5220 H   0  0  0  0  0  0
  -26.2463  -15.6373   20.0533 H   0  0  0  0  0  0
  -26.7291  -32.5276   23.0991 H   0  0  0  0  0  0
  -25.0074  -33.9602   25.0301 H   0  0  0  0  0  0
  -22.7554  -31.2887   21.3771 H   0  0  0  0  0  0
  -23.3759  -35.9578   23.3290 H   0  0  0  0  0  0
  -24.3575  -36.8902   22.2061 H   0  0  0  0  0  0
  -23.7245  -37.6440   23.6693 H   0  0  0  0  0  0
  -26.1723  -31.4606   20.6202 H   0  0  0  0  0  0
  -26.8782  -30.7544   22.0375 H   0  0  0  0  0  0
  -28.1317  -28.7650   21.2509 H   0  0  0  0  0  0
  -25.8975  -25.8449   18.9812 H   0  0  0  0  0  0
  -23.9832  -27.3089   18.9646 H   0  0  0  0  0  0
  -23.8187  -30.5672   19.3972 H   0  0  0  0  0  0
  -22.7936  -29.2366   19.8392 H   0  0  0  0  0  0
  -25.1316  -36.1848   25.0804 H   0  0  0  0  0  0
  -21.0017  -28.3321   24.1343 H   0  0  0  0  0  0
  -20.5678  -26.2343   23.3624 H   0  0  0  0  0  0
  -21.6656  -26.7424   22.1202 H   0  0  0  0  0  0
  -19.6922  -25.6283   21.1260 H   0  0  0  0  0  0
  -19.6699  -27.3173   20.6724 H   0  0  0  0  0  0
  -17.4212  -26.6677   21.4030 H   0  0  0  0  0  0
  -18.0348  -26.0083   22.9028 H   0  0  0  0  0  0
  -19.7955  -30.7301   24.2228 H   0  0  0  0  0  0
  -17.5027  -31.6269   24.5166 H   0  0  0  0  0  0
  -15.5365  -30.2976   23.7675 H   0  0  0  0  0  0
  -15.8693  -28.0812   22.7087 H   0  0  0  0  0  0
  -24.5888  -30.7110   25.7725 H   0  0  0  0  0  0
  -24.8882  -32.2957   26.4760 H   0  0  0  0  0  0
  -25.7971  -30.8989   27.0233 H   0  0  0  0  0  0
  -26.3031  -29.6668   24.1330 H   0  0  0  0  0  0
  -27.3976  -29.7268   25.4934 H   0  0  0  0  0  0
  -27.8955  -30.4174   23.9690 H   0  0  0  0  0  0
  -27.2631  -33.3664   26.2022 H   0  0  0  0  0  0
  -28.3893  -32.6875   25.0366 H   0  0  0  0  0  0
  -28.0681  -31.8517   26.5484 H   0  0  0  0  0  0
  -28.2583  -38.0088   24.7509 H   0  0  0  0  0  0
  -28.1081  -36.2617   24.6293 H   0  0  0  0  0  0
  -27.2291  -37.1430   25.8866 H   0  0  0  0  0  0
  -20.9483  -29.8765   21.6772 H   0  0  0  0  0  0
  -26.0150  -38.2808   24.1408 H   0  0  0  0  0  0
  -30.4747  -24.3957   21.1528 H   0  0  0  0  0  0
  -27.5282  -21.5756   19.7535 H   0  0  0  0  0  0
  -32.1590  -23.1112   22.8188 H   0  0  0  0  0  0
  -32.9275  -23.0056   21.2316 H   0  0  0  0  0  0
  -32.7285  -21.5549   22.2187 H   0  0  0  0  0  0
  -26.9690  -24.3924   20.5595 H   0  0  0  0  0  0
  -27.6611  -24.4650   18.9701 H   0  0  0  0  0  0
  -28.3647  -18.8905   19.6351 H   0  0  0  0  0  0
  -28.3993  -18.8600   21.3559 H   0  0  0  0  0  0
  -30.8402  -17.8930   21.2531 H   0  0  0  0  0  0
  -30.7211  -17.8318   19.5348 H   0  0  0  0  0  0
  -28.7892  -15.9841   20.7154 H   0  0  0  0  0  0
  1 25  1  0  0  0
  1 30  2  0  0  0
  1 81  1  0  0  0
  2  3  1  0  0  0
  2 25  1  0  0  0
  2 82  1  0  0  0
  2 83  1  0  0  0
  3  4  1  0  0  0
  3 84  1  0  0  0
  3 85  1  0  0  0
  4  5  1  0  0  0
  4 86  1  0  0  0
  4 87  1  0  0  0
  5  6  1  0  0  0
  5 26  1  0  0  0
  5 88  1  0  0  0
  6 25  1  0  0  0
  6 89  1  0  0  0
  6 90  1  0  0  0
  7  8  2  0  0  0
  7 26  1  0  0  0
  7 29  1  0  0  0
  8  9  1  0  0  0
  8 22  1  0  0  0
  9 10  1  0  0  0
  9 27  2  0  0  0
 10 11  2  0  0  0
 10 15  1  0  0  0
 11 12  1  0  0  0
 11 91  1  0  0  0
 12 13  2  0  0  0
 12 92  1  0  0  0
 13 14  1  0  0  0
 13 31  1  0  0  0
 14 15  2  0  0  0
 14 93  1  0  0  0
 15 94  1  0  0  0
 16 17  2  0  0  0
 16 21  1  0  0  0
 16 31  1  0  0  0
 17 18  1  0  0  0
 17 95  1  0  0  0
 18 19  2  0  0  0
 18 96  1  0  0  0
 19 20  1  0  0  0
 19 24  1  0  0  0
 20 21  2  0  0  0
 20 97  1  0  0  0
 21 23  1  0  0  0
 22 28  1  0  0  0
 22 32  2  0  0  0
 26 27  1  0  0  0
 28 98  1  0  0  0
 28 99  1  0  0  0
 29100  1  0  0  0
 29101  1  0  0  0
 33 34  1  0  0  0
 33 66  1  0  0  0
 33 70  2  0  0  0
 34 36  1  0  0  0
 34 59  1  0  0  0
 34102  1  0  0  0
 35 44  2  0  0  0
 35 45  1  0  0  0
 35 68  1  0  0  0
 36 56  1  0  0  0
 36103  1  0  0  0
 37 39  1  0  0  0
 37 47  1  0  0  0
 37 66  1  0  0  0
 37104  1  0  0  0
 38 43  2  0  0  0
 38 46  1  0  0  0
 38 47  1  0  0  0
 39 64  1  0  0  0
 39 67  2  0  0  0
 40 52  1  0  0  0
 40 53  2  0  0  0
 40 58  1  0  0  0
 41105  1  0  0  0
 41106  1  0  0  0
 41107  1  0  0  0
 41 48  1  0  0  0
 42 43  1  0  0  0
 42 66  1  0  0  0
 42108  1  0  0  0
 42109  1  0  0  0
 43 44  1  0  0  0
 44110  1  0  0  0
 45 46  2  0  0  0
 45111  1  0  0  0
 46112  1  0  0  0
 47113  1  0  0  0
 47114  1  0  0  0
 48 56  1  0  0  0
 48 65  1  0  0  0
 48115  1  0  0  0
 49 50  1  0  0  0
 49 53  1  0  0  0
 49 64  1  0  0  0
 49116  1  0  0  0
 50 51  1  0  0  0
 50117  1  0  0  0
 50118  1  0  0  0
 51 52  1  0  0  0
 51119  1  0  0  0
 51120  1  0  0  0
 52121  1  0  0  0
 52122  1  0  0  0
 53 54  1  0  0  0
 54 55  2  0  0  0
 54123  1  0  0  0
 55 57  1  0  0  0
 55124  1  0  0  0
 56 69  2  0  0  0
 57 58  2  0  0  0
 57125  1  0  0  0
 58126  1  0  0  0
 59 60  1  0  0  0
 59 61  1  0  0  0
 59 62  1  0  0  0
 60127  1  0  0  0
 60128  1  0  0  0
 60129  1  0  0  0
 61130  1  0  0  0
 61131  1  0  0  0
 61132  1  0  0  0
 62133  1  0  0  0
 62134  1  0  0  0
 62135  1  0  0  0
 63 65  1  0  0  0
 63136  1  0  0  0
 63137  1  0  0  0
 63138  1  0  0  0
 64139  1  0  0  0
 65140  1  0  0  0
 68 77  1  0  0  0
 71 73  2  0  0  0
 71 74  1  0  0  0
 71141  1  0  0  0
 72 73  1  0  0  0
 72 75  2  0  0  0
 72142  1  0  0  0
 73 77  1  0  0  0
 74 76  1  0  0  0
 74 80  2  0  0  0
 75 78  1  0  0  0
 75 80  1  0  0  0
 76143  1  0  0  0
 76144  1  0  0  0
 76145  1  0  0  0
 77146  1  0  0  0
 77147  1  0  0  0
 78 79  1  0  0  0
 78148  1  0  0  0
 78149  1  0  0  0
 79 81  1  0  0  0
 79150  1  0  0  0
 79151  1  0  0  0
 81152  1  0  0  0
M  ISO  4   1 100  68 101  77 101  81 100
M  END
> <chiral flag>
0

> <version>
0

> <s_m_source_file>
/data/baiqing/PycharmProjects/Reinvent-master-3.2/result/LINK_invent/BTK/process_docking_weight1_custom_sum_contain_oxygen_bond_distance_aromatic_linkinvent_7_9_3/rearranged_h_0047.sdf

> <i_m_source_file_index>
29

> <r_mmod_Potential_Energy-OPLS-2005>
362.217590332031

> <r_mmod_Stretch_Energy-OPLS-2005>
279.386871337891

> <r_mmod_Bend_Energy-OPLS-2005>
248.093475341797

> <r_mmod_Torsional_Energy-OPLS-2005>
211.178970336914

> <r_mmod_Improper_Torsional_Energy-OPLS-2005>
4.99006128311157

> <r_mmod_Van_der_Waal_Energy-OPLS-2005>
132.476989746094

> <r_mmod_Electrostatic_Energy-OPLS-2005>
-495.792236328125

> <r_mmod_Solvation_Energy-OPLS-2005>
-233.995208740234

> <b_mmod_Minimization_Converged-OPLS-2005>
0

> <r_mmod_RMS_Derivative-OPLS-2005>
0.47812694311142

$$$$
29
                    3D
 Structure written by MMmdl.
156164  0  0  1  0            999 V2000
  -30.6000  -14.7599   20.4198 C   0  0  0  0  0  0
  -30.4403  -12.4769   19.4154 C   0  0  0  0  0  0
  -29.4823  -12.5196   18.1999 C   0  0  0  0  0  0
  -28.0160  -12.3258   18.6433 C   0  0  0  0  0  0
  -27.6332  -13.2278   19.8464 C   0  0  2  0  0  0
  -28.7055  -13.1496   20.9573 C   0  0  0  0  0  0
  -25.2484  -13.8189   20.5738 C   0  0  0  0  0  0
  -24.1792  -13.0435   20.9305 C   0  0  0  0  0  0
  -24.6362  -11.6909   20.8759 C   0  0  0  0  0  0
  -23.9010  -10.4268   21.0380 C   0  0  0  0  0  0
  -24.3550   -9.4171   21.9150 C   0  0  0  0  0  0
  -23.6249   -8.2202   22.0697 C   0  0  0  0  0  0
  -22.4237   -8.0217   21.3489 C   0  0  0  0  0  0
  -21.9875   -9.0193   20.4596 C   0  0  0  0  0  0
  -22.7195  -10.2096   20.3038 C   0  0  0  0  0  0
  -21.6825   -6.0687   22.5268 C   0  0  0  0  0  0
  -21.4001   -6.5605   23.8211 C   0  0  0  0  0  0
  -21.3659   -5.6769   24.9184 C   0  0  0  0  0  0
  -21.6087   -4.3027   24.7244 C   0  0  0  0  0  0
  -21.8795   -3.8102   23.4357 C   0  0  0  0  0  0
  -21.9200   -4.6920   22.3414 C   0  0  0  0  0  0
  -22.7808  -13.5199   21.1935 C   0  0  0  0  0  0
  -22.1654   -4.2095   21.0996 F   0  0  0  0  0  0
  -21.5646   -3.4523   25.7758 F   0  0  0  0  0  0
  -29.9947  -13.5253   20.3479 N   0  0  0  0  0  0
  -26.2899  -12.9396   20.3353 N   0  0  0  0  0  0
  -25.9305  -11.6519   20.5818 N   0  0  0  0  0  0
  -22.0473  -12.8171   22.0482 N   0  0  0  0  0  0
  -25.4227  -15.1919   20.4080 N   0  0  0  0  0  0
  -31.8209  -14.8687   20.2745 O   0  0  0  0  0  0
  -21.6619   -6.8821   21.4206 O   0  0  0  0  0  0
  -22.3487  -14.5528   20.6819 O   0  0  0  0  0  0
  -24.6299  -31.8555   23.2001 C   0  0  0  0  0  0
  -25.9111  -32.4774   23.8364 C   0  0  1  0  0  0
  -27.2359  -27.2710   20.1128 C   0  0  0  0  0  0
  -25.5904  -33.8583   24.2289 N   0  0  0  0  0  0
  -23.4294  -30.4747   21.5481 C   0  0  2  0  0  0
  -24.8777  -28.9176   20.1172 C   0  0  0  0  0  0
  -22.7504  -29.4586   22.4946 C   0  0  0  0  0  0
  -18.0292  -28.1370   22.8502 C   0  0  0  0  0  0
  -24.1467  -36.7286   23.2641 C   0  0  0  0  0  0
  -25.9749  -30.7665   21.3800 C   0  0  0  0  0  0
  -26.0510  -29.3898   20.7187 C   0  0  0  0  0  0
  -27.2344  -28.5801   20.7001 C   0  0  0  0  0  0
  -26.0399  -26.8668   19.4832 C   0  0  0  0  0  0
  -24.8746  -27.6626   19.4887 C   0  0  0  0  0  0
  -23.6483  -29.8059   20.1659 C   0  0  0  0  0  0
  -25.4095  -36.3103   24.0338 C   0  0  1  0  0  0
  -20.5893  -28.3662   23.1291 C   0  0  2  0  0  0
  -20.6751  -26.9370   22.5411 C   0  0  0  0  0  0
  -19.5732  -26.6362   21.5217 C   0  0  0  0  0  0
  -18.1933  -26.7914   22.1636 C   0  0  0  0  0  0
  -19.1540  -28.8847   23.2892 C   0  0  0  0  0  0
  -18.9453  -30.1455   23.8897 C   0  0  0  0  0  0
  -17.6446  -30.6575   24.0564 C   0  0  0  0  0  0
  -25.9035  -34.9460   23.5122 C   0  0  0  0  0  0
  -16.5348  -29.9068   23.6333 C   0  0  0  0  0  0
  -16.7275  -28.6486   23.0365 C   0  0  0  0  0  0
  -26.4482  -31.6610   25.0746 C   0  0  0  0  0  0
  -25.3735  -31.3732   26.1481 C   0  0  0  0  0  0
  -27.0328  -30.3049   24.6200 C   0  0  0  0  0  0
  -27.6055  -32.4337   25.7512 C   0  0  0  0  0  0
  -27.5575  -37.1792   24.8473 C   0  0  0  0  0  0
  -21.4207  -29.3013   22.3683 N   0  0  0  0  0  0
  -26.4290  -37.3786   23.9414 N   0  0  0  0  0  0
  -24.6972  -31.0513   22.0983 N   0  0  0  0  0  0
  -23.4188  -28.8113   23.3045 O   0  0  0  0  0  0
  -28.3512  -26.3976   20.1084 O   0  0  0  0  0  0
  -26.5606  -34.8910   22.4693 O   0  0  0  0  0  0
  -23.5439  -32.1385   23.7282 O   0  0  0  0  0  0
  -29.0556  -20.2474   17.3642 C   0  0  0  0  0  0
  -29.2229  -21.0165   19.3883 C   0  0  0  0  0  0
  -29.7170  -19.6569   19.3855 C   0  0  0  0  0  0
  -30.0774  -18.0093   17.4295 C   0  0  0  0  0  0
  -28.9282  -22.2117   20.3764 C   0  0  0  0  0  0
  -30.4522  -18.6450   20.3495 C   0  0  0  0  0  0
  -29.0421  -23.7532   19.8359 C   0  0  0  0  0  0
  -29.8461  -17.2745   20.9967 C   0  0  0  0  0  0
  -28.1793  -24.9524   20.4992 C   0  0  0  0  0  0
  -28.7778  -21.3057   18.0976 N   0  0  0  0  0  0
  -29.6208  -19.2482   18.0428 N   0  0  0  0  0  0
  -29.7724  -15.8676   20.3912 N   0  0  0  0  0  0
  -31.4668  -12.6519   19.0771 H   0  0  0  0  0  0
  -30.4229  -11.4929   19.8896 H   0  0  0  0  0  0
  -29.7567  -11.7526   17.4764 H   0  0  0  0  0  0
  -29.5686  -13.4783   17.6893 H   0  0  0  0  0  0
  -27.9003  -11.2822   18.9288 H   0  0  0  0  0  0
  -27.3356  -12.4951   17.8086 H   0  0  0  0  0  0
  -27.6193  -14.2473   19.4589 H   0  0  0  0  0  0
  -28.7647  -12.1432   21.3762 H   0  0  0  0  0  0
  -28.4568  -13.8225   21.7832 H   0  0  0  0  0  0
  -25.2672   -9.5688   22.4748 H   0  0  0  0  0  0
  -23.9941   -7.4600   22.7442 H   0  0  0  0  0  0
  -21.0785   -8.8684   19.8932 H   0  0  0  0  0  0
  -22.3564  -10.9607   19.6156 H   0  0  0  0  0  0
  -21.1958   -7.6105   23.9683 H   0  0  0  0  0  0
  -21.1527   -6.0513   25.9091 H   0  0  0  0  0  0
  -22.0585   -2.7554   23.2890 H   0  0  0  0  0  0
  -22.3987  -11.9787   22.4865 H   0  0  0  0  0  0
  -21.1075  -13.1147   22.2748 H   0  0  0  0  0  0
  -24.6662  -15.8576   20.5159 H   0  0  0  0  0  0
  -26.2835  -15.6205   20.0951 H   0  0  0  0  0  0
  -26.7174  -32.5434   23.1103 H   0  0  0  0  0  0
  -25.0080  -33.9744   25.0454 H   0  0  0  0  0  0
  -22.7277  -31.2972   21.3980 H   0  0  0  0  0  0
  -23.3758  -35.9599   23.3327 H   0  0  0  0  0  0
  -24.3565  -36.8886   22.2059 H   0  0  0  0  0  0
  -23.7192  -37.6472   23.6653 H   0  0  0  0  0  0
  -26.1070  -31.5276   20.6133 H   0  0  0  0  0  0
  -26.8564  -30.8209   22.0102 H   0  0  0  0  0  0
  -28.1366  -28.9352   21.1739 H   0  0  0  0  0  0
  -25.9914  -25.9158   18.9766 H   0  0  0  0  0  0
  -23.9797  -27.2923   19.0051 H   0  0  0  0  0  0
  -23.7800  -30.5839   19.4123 H   0  0  0  0  0  0
  -22.7658  -29.2426   19.8515 H   0  0  0  0  0  0
  -25.1270  -36.1965   25.0834 H   0  0  0  0  0  0
  -20.9994  -28.3217   24.1413 H   0  0  0  0  0  0
  -20.5656  -26.2263   23.3608 H   0  0  0  0  0  0
  -21.6625  -26.7397   22.1213 H   0  0  0  0  0  0
  -19.6880  -25.6287   21.1243 H   0  0  0  0  0  0
  -19.6673  -27.3184   20.6764 H   0  0  0  0  0  0
  -17.4190  -26.6692   21.4044 H   0  0  0  0  0  0
  -18.0311  -26.0064   22.9032 H   0  0  0  0  0  0
  -19.7932  -30.7279   24.2255 H   0  0  0  0  0  0
  -17.5000  -31.6260   24.5141 H   0  0  0  0  0  0
  -15.5351  -30.2950   23.7651 H   0  0  0  0  0  0
  -15.8683  -28.0790   22.7065 H   0  0  0  0  0  0
  -24.5893  -30.7085   25.7815 H   0  0  0  0  0  0
  -24.8924  -32.2880   26.4955 H   0  0  0  0  0  0
  -25.8073  -30.8882   27.0232 H   0  0  0  0  0  0
  -26.2890  -29.6814   24.1200 H   0  0  0  0  0  0
  -27.4011  -29.7272   25.4686 H   0  0  0  0  0  0
  -27.8783  -30.4367   23.9441 H   0  0  0  0  0  0
  -27.2687  -33.3626   26.2117 H   0  0  0  0  0  0
  -28.3857  -32.6898   25.0342 H   0  0  0  0  0  0
  -28.0730  -31.8445   26.5400 H   0  0  0  0  0  0
  -28.2592  -38.0078   24.7519 H   0  0  0  0  0  0
  -28.1053  -36.2613   24.6310 H   0  0  0  0  0  0
  -27.2294  -37.1467   25.8869 H   0  0  0  0  0  0
  -20.9372  -29.8757   21.6912 H   0  0  0  0  0  0
  -26.0178  -38.2857   24.1443 H   0  0  0  0  0  0
  -28.8743  -20.2104   16.3021 H   0  0  0  0  0  0
  -29.9334  -17.1569   18.0930 H   0  0  0  0  0  0
  -31.1358  -18.0878   17.1904 H   0  0  0  0  0  0
  -29.5221  -17.8152   16.5077 H   0  0  0  0  0  0
  -29.5554  -22.1179   21.2661 H   0  0  0  0  0  0
  -27.9058  -22.0781   20.7353 H   0  0  0  0  0  0
  -30.7594  -19.2543   21.1992 H   0  0  0  0  0  0
  -31.4026  -18.3782   19.8864 H   0  0  0  0  0  0
  -28.7652  -23.7708   18.7840 H   0  0  0  0  0  0
  -30.0994  -24.0266   19.8553 H   0  0  0  0  0  0
  -28.8460  -17.5138   21.3628 H   0  0  0  0  0  0
  -30.4267  -17.1123   21.9051 H   0  0  0  0  0  0
  -28.3776  -24.9187   21.5708 H   0  0  0  0  0  0
  -27.1325  -24.6651   20.4177 H   0  0  0  0  0  0
  -28.8181  -15.6033   20.2018 H   0  0  0  0  0  0
  1 25  1  0  0  0
  1 30  2  0  0  0
  1 82  1  0  0  0
  2  3  1  0  0  0
  2 25  1  0  0  0
  2 83  1  0  0  0
  2 84  1  0  0  0
  3  4  1  0  0  0
  3 85  1  0  0  0
  3 86  1  0  0  0
  4  5  1  0  0  0
  4 87  1  0  0  0
  4 88  1  0  0  0
  5  6  1  0  0  0
  5 26  1  0  0  0
  5 89  1  0  0  0
  6 25  1  0  0  0
  6 90  1  0  0  0
  6 91  1  0  0  0
  7  8  2  0  0  0
  7 26  1  0  0  0
  7 29  1  0  0  0
  8  9  1  0  0  0
  8 22  1  0  0  0
  9 10  1  0  0  0
  9 27  2  0  0  0
 10 11  2  0  0  0
 10 15  1  0  0  0
 11 12  1  0  0  0
 11 92  1  0  0  0
 12 13  2  0  0  0
 12 93  1  0  0  0
 13 14  1  0  0  0
 13 31  1  0  0  0
 14 15  2  0  0  0
 14 94  1  0  0  0
 15 95  1  0  0  0
 16 17  2  0  0  0
 16 21  1  0  0  0
 16 31  1  0  0  0
 17 18  1  0  0  0
 17 96  1  0  0  0
 18 19  2  0  0  0
 18 97  1  0  0  0
 19 20  1  0  0  0
 19 24  1  0  0  0
 20 21  2  0  0  0
 20 98  1  0  0  0
 21 23  1  0  0  0
 22 28  1  0  0  0
 22 32  2  0  0  0
 26 27  1  0  0  0
 28 99  1  0  0  0
 28100  1  0  0  0
 29101  1  0  0  0
 29102  1  0  0  0
 33 34  1  0  0  0
 33 66  1  0  0  0
 33 70  2  0  0  0
 34 36  1  0  0  0
 34 59  1  0  0  0
 34103  1  0  0  0
 35 44  2  0  0  0
 35 45  1  0  0  0
 35 68  1  0  0  0
 36 56  1  0  0  0
 36104  1  0  0  0
 37 39  1  0  0  0
 37 47  1  0  0  0
 37 66  1  0  0  0
 37105  1  0  0  0
 38 43  2  0  0  0
 38 46  1  0  0  0
 38 47  1  0  0  0
 39 64  1  0  0  0
 39 67  2  0  0  0
 40 52  1  0  0  0
 40 53  2  0  0  0
 40 58  1  0  0  0
 41106  1  0  0  0
 41107  1  0  0  0
 41108  1  0  0  0
 41 48  1  0  0  0
 42 43  1  0  0  0
 42 66  1  0  0  0
 42109  1  0  0  0
 42110  1  0  0  0
 43 44  1  0  0  0
 44111  1  0  0  0
 45 46  2  0  0  0
 45112  1  0  0  0
 46113  1  0  0  0
 47114  1  0  0  0
 47115  1  0  0  0
 48 56  1  0  0  0
 48 65  1  0  0  0
 48116  1  0  0  0
 49 50  1  0  0  0
 49 53  1  0  0  0
 49 64  1  0  0  0
 49117  1  0  0  0
 50 51  1  0  0  0
 50118  1  0  0  0
 50119  1  0  0  0
 51 52  1  0  0  0
 51120  1  0  0  0
 51121  1  0  0  0
 52122  1  0  0  0
 52123  1  0  0  0
 53 54  1  0  0  0
 54 55  2  0  0  0
 54124  1  0  0  0
 55 57  1  0  0  0
 55125  1  0  0  0
 56 69  2  0  0  0
 57 58  2  0  0  0
 57126  1  0  0  0
 58127  1  0  0  0
 59 60  1  0  0  0
 59 61  1  0  0  0
 59 62  1  0  0  0
 60128  1  0  0  0
 60129  1  0  0  0
 60130  1  0  0  0
 61131  1  0  0  0
 61132  1  0  0  0
 61133  1  0  0  0
 62134  1  0  0  0
 62135  1  0  0  0
 62136  1  0  0  0
 63 65  1  0  0  0
 63137  1  0  0  0
 63138  1  0  0  0
 63139  1  0  0  0
 64140  1  0  0  0
 65141  1  0  0  0
 68 79  1  0  0  0
 71 80  2  0  0  0
 71 81  1  0  0  0
 71142  1  0  0  0
 72 73  2  0  0  0
 72 75  1  0  0  0
 72 80  1  0  0  0
 73 76  1  0  0  0
 73 81  1  0  0  0
 74 81  1  0  0  0
 74143  1  0  0  0
 74144  1  0  0  0
 74145  1  0  0  0
 75 77  1  0  0  0
 75146  1  0  0  0
 75147  1  0  0  0
 76 78  1  0  0  0
 76148  1  0  0  0
 76149  1  0  0  0
 77 79  1  0  0  0
 77150  1  0  0  0
 77151  1  0  0  0
 78 82  1  0  0  0
 78152  1  0  0  0
 78153  1  0  0  0
 79154  1  0  0  0
 79155  1  0  0  0
 82156  1  0  0  0
M  ISO  4   1 100  68 101  79 101  82 100
M  END
> <chiral flag>
0

> <version>
0

> <s_m_source_file>
/data/baiqing/PycharmProjects/Reinvent-master-3.2/result/LINK_invent/BTK/process_docking_weight1_custom_sum_contain_oxygen_bond_distance_aromatic_linkinvent_7_9_3/rearranged_h_0047.sdf

> <i_m_source_file_index>
30

> <r_mmod_Potential_Energy-OPLS-2005>
199.910049438477

> <r_mmod_Stretch_Energy-OPLS-2005>
138.691146850586

> <r_mmod_Bend_Energy-OPLS-2005>
236.486923217773

> <r_mmod_Torsional_Energy-OPLS-2005>
257.181213378906

> <r_mmod_Improper_Torsional_Energy-OPLS-2005>
8.03860855102539

> <r_mmod_Van_der_Waal_Energy-OPLS-2005>
112.44800567627

> <r_mmod_Electrostatic_Energy-OPLS-2005>
-413.26171875

> <r_mmod_Solvation_Energy-OPLS-2005>
-229.198822021484

> <b_mmod_Minimization_Converged-OPLS-2005>
0

> <r_mmod_RMS_Derivative-OPLS-2005>
7.46528434753418

$$$$
30
                    3D
 Structure written by MMmdl.
156164  0  0  1  0            999 V2000
  -30.5809  -14.8420   20.4402 C   0  0  0  0  0  0
  -30.4351  -12.5137   19.4978 C   0  0  0  0  0  0
  -29.5140  -12.5141   18.2557 C   0  0  0  0  0  0
  -28.0458  -12.3153   18.6718 C   0  0  0  0  0  0
  -27.6378  -13.2370   19.8503 C   0  0  2  0  0  0
  -28.6798  -13.2227   20.9914 C   0  0  0  0  0  0
  -25.2489  -13.8214   20.5702 C   0  0  0  0  0  0
  -24.1783  -13.0454   20.9204 C   0  0  0  0  0  0
  -24.6372  -11.6934   20.8756 C   0  0  0  0  0  0
  -23.9053  -10.4304   21.0410 C   0  0  0  0  0  0
  -24.3609   -9.4216   21.9188 C   0  0  0  0  0  0
  -23.6284   -8.2248   22.0756 C   0  0  0  0  0  0
  -22.4271   -8.0280   21.3541 C   0  0  0  0  0  0
  -21.9900   -9.0258   20.4649 C   0  0  0  0  0  0
  -22.7223  -10.2144   20.3056 C   0  0  0  0  0  0
  -21.6857   -6.0726   22.5269 C   0  0  0  0  0  0
  -21.4017   -6.5632   23.8202 C   0  0  0  0  0  0
  -21.3661   -5.6791   24.9168 C   0  0  0  0  0  0
  -21.6050   -4.3054   24.7224 C   0  0  0  0  0  0
  -21.8818   -3.8139   23.4346 C   0  0  0  0  0  0
  -21.9191   -4.6952   22.3398 C   0  0  0  0  0  0
  -22.7803  -13.5241   21.1869 C   0  0  0  0  0  0
  -22.1657   -4.2130   21.0977 F   0  0  0  0  0  0
  -21.5629   -3.4542   25.7740 F   0  0  0  0  0  0
  -29.9758  -13.5951   20.4088 N   0  0  0  0  0  0
  -26.2915  -12.9422   20.3295 N   0  0  0  0  0  0
  -25.9308  -11.6561   20.5776 N   0  0  0  0  0  0
  -22.0442  -12.8236   22.0424 N   0  0  0  0  0  0
  -25.4217  -15.1936   20.4112 N   0  0  0  0  0  0
  -31.7589  -14.9392   20.0861 O   0  0  0  0  0  0
  -21.6648   -6.8870   21.4231 O   0  0  0  0  0  0
  -22.3487  -14.5542   20.6716 O   0  0  0  0  0  0
  -24.6397  -31.8517   23.1957 C   0  0  0  0  0  0
  -25.9192  -32.4744   23.8328 C   0  0  1  0  0  0
  -27.2123  -27.1792   20.1315 C   0  0  0  0  0  0
  -25.5962  -33.8543   24.2252 N   0  0  0  0  0  0
  -23.4412  -30.4774   21.5401 C   0  0  2  0  0  0
  -24.8925  -28.9262   20.1052 C   0  0  0  0  0  0
  -22.7538  -29.4607   22.4864 C   0  0  0  0  0  0
  -18.0304  -28.1406   22.8467 C   0  0  0  0  0  0
  -24.1491  -36.7268   23.2637 C   0  0  0  0  0  0
  -25.9971  -30.7366   21.3940 C   0  0  0  0  0  0
  -26.0687  -29.3535   20.7339 C   0  0  0  0  0  0
  -27.2279  -28.4922   20.7443 C   0  0  0  0  0  0
  -26.0172  -26.8778   19.4284 C   0  0  0  0  0  0
  -24.8783  -27.6994   19.4381 C   0  0  0  0  0  0
  -23.6663  -29.8196   20.1552 C   0  0  0  0  0  0
  -25.4121  -36.3060   24.0325 C   0  0  1  0  0  0
  -20.5907  -28.3742   23.1221 C   0  0  2  0  0  0
  -20.6785  -26.9444   22.5387 C   0  0  0  0  0  0
  -19.5760  -26.6384   21.5200 C   0  0  0  0  0  0
  -18.1948  -26.7942   22.1620 C   0  0  0  0  0  0
  -19.1554  -28.8886   23.2848 C   0  0  0  0  0  0
  -18.9456  -30.1476   23.8887 C   0  0  0  0  0  0
  -17.6443  -30.6585   24.0562 C   0  0  0  0  0  0
  -25.9063  -34.9426   23.5088 C   0  0  0  0  0  0
  -16.5344  -29.9074   23.6319 C   0  0  0  0  0  0
  -16.7290  -28.6500   23.0341 C   0  0  0  0  0  0
  -26.4519  -31.6586   25.0738 C   0  0  0  0  0  0
  -25.3703  -31.3764   26.1433 C   0  0  0  0  0  0
  -27.0374  -30.2993   24.6277 C   0  0  0  0  0  0
  -27.6075  -32.4319   25.7517 C   0  0  0  0  0  0
  -27.5579  -37.1795   24.8467 C   0  0  0  0  0  0
  -21.4233  -29.3087   22.3601 N   0  0  0  0  0  0
  -26.4293  -37.3764   23.9410 N   0  0  0  0  0  0
  -24.7125  -31.0409   22.0985 N   0  0  0  0  0  0
  -23.4195  -28.8126   23.2984 O   0  0  0  0  0  0
  -28.2315  -26.1624   20.2375 O   0  0  0  0  0  0
  -26.5626  -34.8905   22.4651 O   0  0  0  0  0  0
  -23.5524  -32.1376   23.7199 O   0  0  0  0  0  0
  -30.1018  -21.4038   20.7026 C   0  0  0  0  0  0
  -29.7223  -22.7977   20.4971 C   0  0  0  0  0  0
  -27.8638  -20.7306   20.3856 C   0  0  0  0  0  0
  -29.1875  -20.2924   20.6560 C   0  0  0  0  0  0
  -28.3768  -23.2309   20.2454 C   0  0  0  0  0  0
  -27.4711  -22.1038   20.1843 C   0  0  0  0  0  0
  -25.1849  -22.5752   21.1906 C   0  0  0  0  0  0
  -29.4863  -18.7529   21.1200 C   0  0  0  0  0  0
  -25.9841  -22.3091   19.9066 C   0  0  0  0  0  0
  -27.8062  -24.7289   19.8857 C   0  0  0  0  0  0
  -29.9622  -17.4739   20.1907 C   0  0  0  0  0  0
  -29.7995  -15.9889   20.6541 N   0  0  0  0  0  0
  -31.4733  -12.6464   19.1918 H   0  0  0  0  0  0
  -30.3971  -11.5493   20.0065 H   0  0  0  0  0  0
  -29.8144  -11.7281   17.5623 H   0  0  0  0  0  0
  -29.6170  -13.4565   17.7155 H   0  0  0  0  0  0
  -27.9279  -11.2716   18.9669 H   0  0  0  0  0  0
  -27.3823  -12.4668   17.8201 H   0  0  0  0  0  0
  -27.6190  -14.2476   19.4419 H   0  0  0  0  0  0
  -28.7347  -12.2401   21.4612 H   0  0  0  0  0  0
  -28.3937  -13.9220   21.7787 H   0  0  0  0  0  0
  -25.2747   -9.5704   22.4772 H   0  0  0  0  0  0
  -23.9991   -7.4645   22.7476 H   0  0  0  0  0  0
  -21.0826   -8.8779   19.8952 H   0  0  0  0  0  0
  -22.3668  -10.9689   19.6174 H   0  0  0  0  0  0
  -21.2009   -7.6144   23.9697 H   0  0  0  0  0  0
  -21.1484   -6.0527   25.9073 H   0  0  0  0  0  0
  -22.0592   -2.7596   23.2855 H   0  0  0  0  0  0
  -22.4063  -11.9922   22.4856 H   0  0  0  0  0  0
  -21.1056  -13.1264   22.2616 H   0  0  0  0  0  0
  -24.6595  -15.8535   20.5203 H   0  0  0  0  0  0
  -26.2715  -15.6250   20.0712 H   0  0  0  0  0  0
  -26.7251  -32.5383   23.1060 H   0  0  0  0  0  0
  -25.0114  -33.9673   25.0402 H   0  0  0  0  0  0
  -22.7429  -31.3032   21.3922 H   0  0  0  0  0  0
  -23.3759  -35.9592   23.3293 H   0  0  0  0  0  0
  -24.3586  -36.8896   22.2052 H   0  0  0  0  0  0
  -23.7235  -37.6463   23.6661 H   0  0  0  0  0  0
  -26.1439  -31.4932   20.6221 H   0  0  0  0  0  0
  -26.8707  -30.7902   22.0315 H   0  0  0  0  0  0
  -28.1135  -28.8050   21.2798 H   0  0  0  0  0  0
  -25.8954  -25.9619   18.8724 H   0  0  0  0  0  0
  -23.9891  -27.3720   18.9177 H   0  0  0  0  0  0
  -23.7970  -30.5981   19.4033 H   0  0  0  0  0  0
  -22.7837  -29.2572   19.8453 H   0  0  0  0  0  0
  -25.1304  -36.1898   25.0817 H   0  0  0  0  0  0
  -21.0001  -28.3337   24.1340 H   0  0  0  0  0  0
  -20.5661  -26.2372   23.3612 H   0  0  0  0  0  0
  -21.6654  -26.7455   22.1192 H   0  0  0  0  0  0
  -19.6913  -25.6277   21.1266 H   0  0  0  0  0  0
  -19.6673  -27.3177   20.6711 H   0  0  0  0  0  0
  -17.4205  -26.6666   21.4040 H   0  0  0  0  0  0
  -18.0383  -26.0102   22.9043 H   0  0  0  0  0  0
  -19.7926  -30.7290   24.2262 H   0  0  0  0  0  0
  -17.4977  -31.6255   24.5179 H   0  0  0  0  0  0
  -15.5337  -30.2956   23.7629 H   0  0  0  0  0  0
  -15.8703  -28.0803   22.7053 H   0  0  0  0  0  0
  -24.5898  -30.7102   25.7745 H   0  0  0  0  0  0
  -24.8869  -32.2940   26.4798 H   0  0  0  0  0  0
  -25.7982  -30.8977   27.0254 H   0  0  0  0  0  0
  -26.2989  -29.6735   24.1259 H   0  0  0  0  0  0
  -27.3987  -29.7276   25.4836 H   0  0  0  0  0  0
  -27.8898  -30.4258   23.9599 H   0  0  0  0  0  0
  -27.2707  -33.3641   26.2071 H   0  0  0  0  0  0
  -28.3904  -32.6844   25.0348 H   0  0  0  0  0  0
  -28.0722  -31.8449   26.5454 H   0  0  0  0  0  0
  -28.2596  -38.0089   24.7516 H   0  0  0  0  0  0
  -28.1073  -36.2624   24.6293 H   0  0  0  0  0  0
  -27.2296  -37.1448   25.8867 H   0  0  0  0  0  0
  -20.9424  -29.8860   21.6842 H   0  0  0  0  0  0
  -26.0165  -38.2836   24.1407 H   0  0  0  0  0  0
  -31.1372  -21.1956   20.9358 H   0  0  0  0  0  0
  -30.4975  -23.5504   20.5413 H   0  0  0  0  0  0
  -27.0890  -19.9756   20.3709 H   0  0  0  0  0  0
  -24.1301  -22.7375   20.9658 H   0  0  0  0  0  0
  -25.5461  -23.4548   21.7226 H   0  0  0  0  0  0
  -25.2516  -21.7316   21.8769 H   0  0  0  0  0  0
  -28.5690  -18.4359   21.6171 H   0  0  0  0  0  0
  -30.2067  -18.8310   21.9350 H   0  0  0  0  0  0
  -25.5789  -21.4194   19.4237 H   0  0  0  0  0  0
  -25.8266  -23.1029   19.1773 H   0  0  0  0  0  0
  -26.8242  -24.6800   20.3441 H   0  0  0  0  0  0
  -27.6673  -24.7115   18.8044 H   0  0  0  0  0  0
  -30.9996  -17.6295   19.8916 H   0  0  0  0  0  0
  -29.3896  -17.5345   19.2644 H   0  0  0  0  0  0
  -28.8717  -15.7670   20.9819 H   0  0  0  0  0  0
  1 25  1  0  0  0
  1 30  2  0  0  0
  1 82  1  0  0  0
  2  3  1  0  0  0
  2 25  1  0  0  0
  2 83  1  0  0  0
  2 84  1  0  0  0
  3  4  1  0  0  0
  3 85  1  0  0  0
  3 86  1  0  0  0
  4  5  1  0  0  0
  4 87  1  0  0  0
  4 88  1  0  0  0
  5  6  1  0  0  0
  5 26  1  0  0  0
  5 89  1  0  0  0
  6 25  1  0  0  0
  6 90  1  0  0  0
  6 91  1  0  0  0
  7  8  2  0  0  0
  7 26  1  0  0  0
  7 29  1  0  0  0
  8  9  1  0  0  0
  8 22  1  0  0  0
  9 10  1  0  0  0
  9 27  2  0  0  0
 10 11  2  0  0  0
 10 15  1  0  0  0
 11 12  1  0  0  0
 11 92  1  0  0  0
 12 13  2  0  0  0
 12 93  1  0  0  0
 13 14  1  0  0  0
 13 31  1  0  0  0
 14 15  2  0  0  0
 14 94  1  0  0  0
 15 95  1  0  0  0
 16 17  2  0  0  0
 16 21  1  0  0  0
 16 31  1  0  0  0
 17 18  1  0  0  0
 17 96  1  0  0  0
 18 19  2  0  0  0
 18 97  1  0  0  0
 19 20  1  0  0  0
 19 24  1  0  0  0
 20 21  2  0  0  0
 20 98  1  0  0  0
 21 23  1  0  0  0
 22 28  1  0  0  0
 22 32  2  0  0  0
 26 27  1  0  0  0
 28 99  1  0  0  0
 28100  1  0  0  0
 29101  1  0  0  0
 29102  1  0  0  0
 33 34  1  0  0  0
 33 66  1  0  0  0
 33 70  2  0  0  0
 34 36  1  0  0  0
 34 59  1  0  0  0
 34103  1  0  0  0
 35 44  2  0  0  0
 35 45  1  0  0  0
 35 68  1  0  0  0
 36 56  1  0  0  0
 36104  1  0  0  0
 37 39  1  0  0  0
 37 47  1  0  0  0
 37 66  1  0  0  0
 37105  1  0  0  0
 38 43  2  0  0  0
 38 46  1  0  0  0
 38 47  1  0  0  0
 39 64  1  0  0  0
 39 67  2  0  0  0
 40 52  1  0  0  0
 40 53  2  0  0  0
 40 58  1  0  0  0
 41106  1  0  0  0
 41107  1  0  0  0
 41108  1  0  0  0
 41 48  1  0  0  0
 42 43  1  0  0  0
 42 66  1  0  0  0
 42109  1  0  0  0
 42110  1  0  0  0
 43 44  1  0  0  0
 44111  1  0  0  0
 45 46  2  0  0  0
 45112  1  0  0  0
 46113  1  0  0  0
 47114  1  0  0  0
 47115  1  0  0  0
 48 56  1  0  0  0
 48 65  1  0  0  0
 48116  1  0  0  0
 49 50  1  0  0  0
 49 53  1  0  0  0
 49 64  1  0  0  0
 49117  1  0  0  0
 50 51  1  0  0  0
 50118  1  0  0  0
 50119  1  0  0  0
 51 52  1  0  0  0
 51120  1  0  0  0
 51121  1  0  0  0
 52122  1  0  0  0
 52123  1  0  0  0
 53 54  1  0  0  0
 54 55  2  0  0  0
 54124  1  0  0  0
 55 57  1  0  0  0
 55125  1  0  0  0
 56 69  2  0  0  0
 57 58  2  0  0  0
 57126  1  0  0  0
 58127  1  0  0  0
 59 60  1  0  0  0
 59 61  1  0  0  0
 59 62  1  0  0  0
 60128  1  0  0  0
 60129  1  0  0  0
 60130  1  0  0  0
 61131  1  0  0  0
 61132  1  0  0  0
 61133  1  0  0  0
 62134  1  0  0  0
 62135  1  0  0  0
 62136  1  0  0  0
 63 65  1  0  0  0
 63137  1  0  0  0
 63138  1  0  0  0
 63139  1  0  0  0
 64140  1  0  0  0
 65141  1  0  0  0
 68 80  1  0  0  0
 71 72  2  0  0  0
 71 74  1  0  0  0
 71142  1  0  0  0
 72 75  1  0  0  0
 72143  1  0  0  0
 73 74  2  0  0  0
 73 76  1  0  0  0
 73144  1  0  0  0
 74 78  1  0  0  0
 75 76  2  0  0  0
 75 80  1  0  0  0
 76 79  1  0  0  0
 77 79  1  0  0  0
 77145  1  0  0  0
 77146  1  0  0  0
 77147  1  0  0  0
 78 81  1  0  0  0
 78148  1  0  0  0
 78149  1  0  0  0
 79150  1  0  0  0
 79151  1  0  0  0
 80152  1  0  0  0
 80153  1  0  0  0
 81 82  1  0  0  0
 81154  1  0  0  0
 81155  1  0  0  0
 82156  1  0  0  0
M  ISO  4   1 100  68 101  80 101  82 100
M  END
> <chiral flag>
0

> <version>
0

> <s_m_source_file>
/data/baiqing/PycharmProjects/Reinvent-master-3.2/result/LINK_invent/BTK/process_docking_weight1_custom_sum_contain_oxygen_bond_distance_aromatic_linkinvent_7_9_3/rearranged_h_0047.sdf

> <i_m_source_file_index>
31

> <r_mmod_Potential_Energy-OPLS-2005>
400.517425537109

> <r_mmod_Stretch_Energy-OPLS-2005>
189.694061279297

> <r_mmod_Bend_Energy-OPLS-2005>
257.051605224609

> <r_mmod_Torsional_Energy-OPLS-2005>
220.756393432617

> <r_mmod_Improper_Torsional_Energy-OPLS-2005>
7.69404935836792

> <r_mmod_Van_der_Waal_Energy-OPLS-2005>
149.318252563477

> <r_mmod_Electrostatic_Energy-OPLS-2005>
-361.085723876953

> <r_mmod_Solvation_Energy-OPLS-2005>
-211.303634643555

> <b_mmod_Minimization_Converged-OPLS-2005>
0

> <r_mmod_RMS_Derivative-OPLS-2005>
1.70820009708405

$$$$
31
                    3D
 Structure written by MMmdl.
173181  0  0  1  0            999 V2000
  -30.5968  -14.8983   20.3591 C   0  0  0  0  0  0
  -30.4342  -12.5549   19.4547 C   0  0  0  0  0  0
  -29.5006  -12.4850   18.2282 C   0  0  0  0  0  0
  -28.0347  -12.2909   18.6646 C   0  0  0  0  0  0
  -27.6201  -13.2228   19.8353 C   0  0  2  0  0  0
  -28.6862  -13.2852   20.9478 C   0  0  0  0  0  0
  -25.2472  -13.8137   20.5768 C   0  0  0  0  0  0
  -24.1760  -13.0395   20.9246 C   0  0  0  0  0  0
  -24.6349  -11.6874   20.8788 C   0  0  0  0  0  0
  -23.9030  -10.4260   21.0412 C   0  0  0  0  0  0
  -24.3593   -9.4182   21.9188 C   0  0  0  0  0  0
  -23.6280   -8.2216   22.0754 C   0  0  0  0  0  0
  -22.4266   -8.0258   21.3542 C   0  0  0  0  0  0
  -21.9892   -9.0223   20.4638 C   0  0  0  0  0  0
  -22.7205  -10.2111   20.3050 C   0  0  0  0  0  0
  -21.6838   -6.0725   22.5277 C   0  0  0  0  0  0
  -21.4002   -6.5630   23.8208 C   0  0  0  0  0  0
  -21.3658   -5.6790   24.9174 C   0  0  0  0  0  0
  -21.6050   -4.3055   24.7222 C   0  0  0  0  0  0
  -21.8818   -3.8138   23.4342 C   0  0  0  0  0  0
  -21.9185   -4.6955   22.3401 C   0  0  0  0  0  0
  -22.7786  -13.5204   21.1867 C   0  0  0  0  0  0
  -22.1650   -4.2141   21.0978 F   0  0  0  0  0  0
  -21.5643   -3.4545   25.7735 F   0  0  0  0  0  0
  -29.9498  -13.6701   20.3043 N   0  0  0  0  0  0
  -26.2865  -12.9302   20.3365 N   0  0  0  0  0  0
  -25.9279  -11.6463   20.5826 N   0  0  0  0  0  0
  -22.0409  -12.8220   22.0423 N   0  0  0  0  0  0
  -25.4189  -15.1859   20.4186 N   0  0  0  0  0  0
  -31.8303  -14.8901   20.3282 O   0  0  0  0  0  0
  -21.6630   -6.8863   21.4236 O   0  0  0  0  0  0
  -22.3509  -14.5528   20.6707 O   0  0  0  0  0  0
  -24.6402  -31.8465   23.1896 C   0  0  0  0  0  0
  -25.9191  -32.4704   23.8286 C   0  0  1  0  0  0
  -27.2285  -27.1920   20.1441 C   0  0  0  0  0  0
  -25.5963  -33.8514   24.2211 N   0  0  0  0  0  0
  -23.4415  -30.4659   21.5351 C   0  0  2  0  0  0
  -24.8897  -28.8997   20.1098 C   0  0  0  0  0  0
  -22.7531  -29.4570   22.4892 C   0  0  0  0  0  0
  -18.0281  -28.1400   22.8472 C   0  0  0  0  0  0
  -24.1487  -36.7266   23.2650 C   0  0  0  0  0  0
  -25.9941  -30.7387   21.3795 C   0  0  0  0  0  0
  -26.0647  -29.3539   20.7243 C   0  0  0  0  0  0
  -27.2327  -28.5144   20.7283 C   0  0  0  0  0  0
  -26.0293  -26.8230   19.4944 C   0  0  0  0  0  0
  -24.8833  -27.6440   19.4808 C   0  0  0  0  0  0
  -23.6626  -29.7936   20.1536 C   0  0  0  0  0  0
  -25.4117  -36.3044   24.0326 C   0  0  1  0  0  0
  -20.5898  -28.3704   23.1266 C   0  0  2  0  0  0
  -20.6786  -26.9417   22.5408 C   0  0  0  0  0  0
  -19.5756  -26.6382   21.5216 C   0  0  0  0  0  0
  -18.1930  -26.7938   22.1612 C   0  0  0  0  0  0
  -19.1540  -28.8867   23.2856 C   0  0  0  0  0  0
  -18.9467  -30.1472   23.8865 C   0  0  0  0  0  0
  -17.6466  -30.6595   24.0556 C   0  0  0  0  0  0
  -25.9066  -34.9420   23.5071 C   0  0  0  0  0  0
  -16.5353  -29.9090   23.6346 C   0  0  0  0  0  0
  -16.7265  -28.6515   23.0354 C   0  0  0  0  0  0
  -26.4520  -31.6561   25.0713 C   0  0  0  0  0  0
  -25.3734  -31.3733   26.1428 C   0  0  0  0  0  0
  -27.0397  -30.2975   24.6272 C   0  0  0  0  0  0
  -27.6052  -32.4331   25.7487 C   0  0  0  0  0  0
  -27.5567  -37.1787   24.8460 C   0  0  0  0  0  0
  -21.4229  -29.3042   22.3635 N   0  0  0  0  0  0
  -26.4271  -37.3761   23.9408 N   0  0  0  0  0  0
  -24.7117  -31.0363   22.0896 N   0  0  0  0  0  0
  -23.4187  -28.8134   23.3044 O   0  0  0  0  0  0
  -28.3090  -26.2561   20.2152 O   0  0  0  0  0  0
  -26.5635  -34.8922   22.4643 O   0  0  0  0  0  0
  -23.5537  -32.1317   23.7144 O   0  0  0  0  0  0
  -28.4413  -19.5869   20.4248 C   0  0  0  0  0  0
  -28.1725  -21.0201   20.3394 C   0  0  0  0  0  0
  -29.7572  -19.0261   20.5562 C   0  0  0  0  0  0
  -29.2365  -21.9809   20.3837 C   0  0  0  0  0  0
  -30.7407  -20.0718   20.5317 C   0  0  0  0  0  0
  -25.6602  -20.5159   19.9094 C   0  0  0  0  0  0
  -32.6602  -19.7971   22.1648 C   0  0  0  0  0  0
  -29.2312  -17.5503   16.6615 C   0  0  0  0  0  0
  -31.1748  -16.0658   17.2159 C   0  0  0  0  0  0
  -26.7434  -21.5495   20.2531 C   0  0  0  0  0  0
  -30.1075  -17.4612   20.9633 C   0  0  0  0  0  0
  -29.1847  -23.6163   20.5577 C   0  0  0  0  0  0
  -32.2228  -19.7681   20.6935 C   0  0  0  0  0  0
  -29.2270  -16.3822   18.8935 C   0  0  0  0  0  0
  -28.1058  -24.7434   20.0081 C   0  0  0  0  0  0
  -30.1191  -17.0236   17.7989 C   0  0  0  0  0  0
  -30.4852  -21.4281   20.4563 N   0  0  0  0  0  0
  -29.8928  -16.1265   20.1834 N   0  0  0  0  0  0
  -31.4644  -12.7095   19.1264 H   0  0  0  0  0  0
  -30.4276  -11.6148   20.0085 H   0  0  0  0  0  0
  -29.8081  -11.6721   17.5689 H   0  0  0  0  0  0
  -29.5846  -13.3977   17.6407 H   0  0  0  0  0  0
  -27.9228  -11.2504   18.9706 H   0  0  0  0  0  0
  -27.3655  -12.4294   17.8140 H   0  0  0  0  0  0
  -27.5384  -14.2128   19.4067 H   0  0  0  0  0  0
  -28.7831  -12.3268   21.4608 H   0  0  0  0  0  0
  -28.4079  -14.0233   21.7023 H   0  0  0  0  0  0
  -25.2716   -9.5683   22.4797 H   0  0  0  0  0  0
  -23.9985   -7.4606   22.7478 H   0  0  0  0  0  0
  -21.0821   -8.8717   19.8949 H   0  0  0  0  0  0
  -22.3623  -10.9659   19.6185 H   0  0  0  0  0  0
  -21.1988   -7.6136   23.9714 H   0  0  0  0  0  0
  -21.1487   -6.0517   25.9083 H   0  0  0  0  0  0
  -22.0606   -2.7601   23.2837 H   0  0  0  0  0  0
  -22.3979  -11.9873   22.4834 H   0  0  0  0  0  0
  -21.1025  -13.1264   22.2594 H   0  0  0  0  0  0
  -24.6594  -15.8449   20.5455 H   0  0  0  0  0  0
  -26.2845  -15.6275   20.1382 H   0  0  0  0  0  0
  -26.7274  -32.5305   23.1038 H   0  0  0  0  0  0
  -25.0129  -33.9635   25.0375 H   0  0  0  0  0  0
  -22.7439  -31.2913   21.3800 H   0  0  0  0  0  0
  -23.3757  -35.9587   23.3281 H   0  0  0  0  0  0
  -24.3600  -36.8909   22.2070 H   0  0  0  0  0  0
  -23.7211  -37.6451   23.6695 H   0  0  0  0  0  0
  -26.1458  -31.4939   20.6061 H   0  0  0  0  0  0
  -26.8671  -30.7875   22.0178 H   0  0  0  0  0  0
  -28.1248  -28.8578   21.2348 H   0  0  0  0  0  0
  -25.9525  -25.8651   19.0006 H   0  0  0  0  0  0
  -23.9894  -27.2888   18.9833 H   0  0  0  0  0  0
  -23.7878  -30.5662   19.3931 H   0  0  0  0  0  0
  -22.7795  -29.2272   19.8505 H   0  0  0  0  0  0
  -25.1303  -36.1886   25.0816 H   0  0  0  0  0  0
  -20.9975  -28.3278   24.1394 H   0  0  0  0  0  0
  -20.5689  -26.2309   23.3617 H   0  0  0  0  0  0
  -21.6661  -26.7442   22.1196 H   0  0  0  0  0  0
  -19.6910  -25.6285   21.1255 H   0  0  0  0  0  0
  -19.6708  -27.3194   20.6749 H   0  0  0  0  0  0
  -17.4211  -26.6679   21.4008 H   0  0  0  0  0  0
  -18.0304  -26.0092   22.9011 H   0  0  0  0  0  0
  -19.7955  -30.7287   24.2226 H   0  0  0  0  0  0
  -17.5030  -31.6276   24.5152 H   0  0  0  0  0  0
  -15.5352  -30.2984   23.7713 H   0  0  0  0  0  0
  -15.8660  -28.0832   22.7091 H   0  0  0  0  0  0
  -24.5912  -30.7068   25.7774 H   0  0  0  0  0  0
  -24.8939  -32.2919   26.4832 H   0  0  0  0  0  0
  -25.8067  -30.8934   27.0215 H   0  0  0  0  0  0
  -26.3026  -29.6682   24.1277 H   0  0  0  0  0  0
  -27.4031  -29.7276   25.4830 H   0  0  0  0  0  0
  -27.8918  -30.4224   23.9584 H   0  0  0  0  0  0
  -27.2639  -33.3652   26.2012 H   0  0  0  0  0  0
  -28.3901  -32.6856   25.0340 H   0  0  0  0  0  0
  -28.0691  -31.8488   26.5441 H   0  0  0  0  0  0
  -28.2581  -38.0093   24.7539 H   0  0  0  0  0  0
  -28.1068  -36.2627   24.6254 H   0  0  0  0  0  0
  -27.2295  -37.1396   25.8866 H   0  0  0  0  0  0
  -20.9415  -29.8757   21.6842 H   0  0  0  0  0  0
  -26.0137  -38.2828   24.1424 H   0  0  0  0  0  0
  -27.6158  -18.8932   20.4545 H   0  0  0  0  0  0
  -24.6951  -21.0093   19.7841 H   0  0  0  0  0  0
  -25.5429  -19.7750   20.7007 H   0  0  0  0  0  0
  -25.8843  -19.9962   18.9771 H   0  0  0  0  0  0
  -33.7291  -19.6087   22.2636 H   0  0  0  0  0  0
  -32.1291  -19.0479   22.7527 H   0  0  0  0  0  0
  -32.4519  -20.7709   22.6088 H   0  0  0  0  0  0
  -29.8279  -17.9691   15.8502 H   0  0  0  0  0  0
  -28.5639  -18.3368   17.0159 H   0  0  0  0  0  0
  -28.6098  -16.7556   16.2431 H   0  0  0  0  0  0
  -31.7579  -16.5511   16.4327 H   0  0  0  0  0  0
  -30.7109  -15.1867   16.7682 H   0  0  0  0  0  0
  -31.8911  -15.7268   17.9610 H   0  0  0  0  0  0
  -26.7205  -22.3272   19.4891 H   0  0  0  0  0  0
  -26.4948  -22.0384   21.1965 H   0  0  0  0  0  0
  -29.5543  -17.3075   21.8898 H   0  0  0  0  0  0
  -31.1451  -17.4240   21.2897 H   0  0  0  0  0  0
  -30.1527  -23.9631   20.1963 H   0  0  0  0  0  0
  -29.2352  -23.7689   21.6357 H   0  0  0  0  0  0
  -32.7954  -20.5124   20.1382 H   0  0  0  0  0  0
  -32.4787  -18.8175   20.2257 H   0  0  0  0  0  0
  -28.8375  -15.4651   18.4648 H   0  0  0  0  0  0
  -28.3548  -17.0090   19.0805 H   0  0  0  0  0  0
  -27.1390  -24.4874   20.4426 H   0  0  0  0  0  0
  -28.0009  -24.5930   18.9343 H   0  0  0  0  0  0
  -30.6449  -17.8807   18.2196 H   0  0  0  0  0  0
  1 25  1  0  0  0
  1 30  2  0  0  0
  1 88  1  0  0  0
  2  3  1  0  0  0
  2 25  1  0  0  0
  2 89  1  0  0  0
  2 90  1  0  0  0
  3  4  1  0  0  0
  3 91  1  0  0  0
  3 92  1  0  0  0
  4  5  1  0  0  0
  4 93  1  0  0  0
  4 94  1  0  0  0
  5  6  1  0  0  0
  5 26  1  0  0  0
  5 95  1  0  0  0
  6 25  1  0  0  0
  6 96  1  0  0  0
  6 97  1  0  0  0
  7  8  2  0  0  0
  7 26  1  0  0  0
  7 29  1  0  0  0
  8  9  1  0  0  0
  8 22  1  0  0  0
  9 10  1  0  0  0
  9 27  2  0  0  0
 10 11  2  0  0  0
 10 15  1  0  0  0
 11 12  1  0  0  0
 11 98  1  0  0  0
 12 13  2  0  0  0
 12 99  1  0  0  0
 13 14  1  0  0  0
 13 31  1  0  0  0
 14 15  2  0  0  0
 14100  1  0  0  0
 15101  1  0  0  0
 16 17  2  0  0  0
 16 21  1  0  0  0
 16 31  1  0  0  0
 17 18  1  0  0  0
 17102  1  0  0  0
 18 19  2  0  0  0
 18103  1  0  0  0
 19 20  1  0  0  0
 19 24  1  0  0  0
 20 21  2  0  0  0
 20104  1  0  0  0
 21 23  1  0  0  0
 22 28  1  0  0  0
 22 32  2  0  0  0
 26 27  1  0  0  0
 28105  1  0  0  0
 28106  1  0  0  0
 29107  1  0  0  0
 29108  1  0  0  0
 33 34  1  0  0  0
 33 66  1  0  0  0
 33 70  2  0  0  0
 34 36  1  0  0  0
 34 59  1  0  0  0
 34109  1  0  0  0
 35 44  2  0  0  0
 35 45  1  0  0  0
 35 68  1  0  0  0
 36 56  1  0  0  0
 36110  1  0  0  0
 37 39  1  0  0  0
 37 47  1  0  0  0
 37 66  1  0  0  0
 37111  1  0  0  0
 38 43  2  0  0  0
 38 46  1  0  0  0
 38 47  1  0  0  0
 39 64  1  0  0  0
 39 67  2  0  0  0
 40 52  1  0  0  0
 40 53  2  0  0  0
 40 58  1  0  0  0
 41112  1  0  0  0
 41113  1  0  0  0
 41114  1  0  0  0
 41 48  1  0  0  0
 42 43  1  0  0  0
 42 66  1  0  0  0
 42115  1  0  0  0
 42116  1  0  0  0
 43 44  1  0  0  0
 44117  1  0  0  0
 45 46  2  0  0  0
 45118  1  0  0  0
 46119  1  0  0  0
 47120  1  0  0  0
 47121  1  0  0  0
 48 56  1  0  0  0
 48 65  1  0  0  0
 48122  1  0  0  0
 49 50  1  0  0  0
 49 53  1  0  0  0
 49 64  1  0  0  0
 49123  1  0  0  0
 50 51  1  0  0  0
 50124  1  0  0  0
 50125  1  0  0  0
 51 52  1  0  0  0
 51126  1  0  0  0
 51127  1  0  0  0
 52128  1  0  0  0
 52129  1  0  0  0
 53 54  1  0  0  0
 54 55  2  0  0  0
 54130  1  0  0  0
 55 57  1  0  0  0
 55131  1  0  0  0
 56 69  2  0  0  0
 57 58  2  0  0  0
 57132  1  0  0  0
 58133  1  0  0  0
 59 60  1  0  0  0
 59 61  1  0  0  0
 59 62  1  0  0  0
 60134  1  0  0  0
 60135  1  0  0  0
 60136  1  0  0  0
 61137  1  0  0  0
 61138  1  0  0  0
 61139  1  0  0  0
 62140  1  0  0  0
 62141  1  0  0  0
 62142  1  0  0  0
 63 65  1  0  0  0
 63143  1  0  0  0
 63144  1  0  0  0
 63145  1  0  0  0
 64146  1  0  0  0
 65147  1  0  0  0
 68 85  1  0  0  0
 71 72  2  0  0  0
 71 73  1  0  0  0
 71148  1  0  0  0
 72 74  1  0  0  0
 72 80  1  0  0  0
 73 75  2  0  0  0
 73 81  1  0  0  0
 74 82  1  0  0  0
 74 87  2  0  0  0
 75 83  1  0  0  0
 75 87  1  0  0  0
 76 80  1  0  0  0
 76149  1  0  0  0
 76150  1  0  0  0
 76151  1  0  0  0
 77 83  1  0  0  0
 77152  1  0  0  0
 77153  1  0  0  0
 77154  1  0  0  0
 78155  1  0  0  0
 78156  1  0  0  0
 78157  1  0  0  0
 78 86  1  0  0  0
 79 86  1  0  0  0
 79158  1  0  0  0
 79159  1  0  0  0
 79160  1  0  0  0
 80161  1  0  0  0
 80162  1  0  0  0
 81 88  1  0  0  0
 81163  1  0  0  0
 81164  1  0  0  0
 82 85  1  0  0  0
 82165  1  0  0  0
 82166  1  0  0  0
 83167  1  0  0  0
 83168  1  0  0  0
 84 86  1  0  0  0
 84 88  1  0  0  0
 84169  1  0  0  0
 84170  1  0  0  0
 85171  1  0  0  0
 85172  1  0  0  0
 86173  1  0  0  0
M  ISO  4   1 100  68 101  85 101  88 100
M  END
> <chiral flag>
0

> <version>
0

> <s_m_source_file>
/data/baiqing/PycharmProjects/Reinvent-master-3.2/result/LINK_invent/BTK/process_docking_weight1_custom_sum_contain_oxygen_bond_distance_aromatic_linkinvent_7_9_3/rearranged_h_0047.sdf

> <i_m_source_file_index>
32

> <r_mmod_Potential_Energy-OPLS-2005>
439.624908447266

> <r_mmod_Stretch_Energy-OPLS-2005>
202.004043579102

> <r_mmod_Bend_Energy-OPLS-2005>
262.220916748047

> <r_mmod_Torsional_Energy-OPLS-2005>
309.335540771484

> <r_mmod_Improper_Torsional_Energy-OPLS-2005>
9.23407363891602

> <r_mmod_Van_der_Waal_Energy-OPLS-2005>
127.459884643555

> <r_mmod_Electrostatic_Energy-OPLS-2005>
-432.511505126953

> <r_mmod_Solvation_Energy-OPLS-2005>
-201.486053466797

> <b_mmod_Minimization_Converged-OPLS-2005>
0

> <r_mmod_RMS_Derivative-OPLS-2005>
2.74236059188843

$$$$
32
                    3D
 Structure written by MMmdl.
154162  0  0  1  0            999 V2000
  -30.5859  -14.7171   20.4774 C   0  0  0  0  0  0
  -30.4439  -12.4427   19.4523 C   0  0  0  0  0  0
  -29.5035  -12.4807   18.2270 C   0  0  0  0  0  0
  -28.0294  -12.3179   18.6432 C   0  0  0  0  0  0
  -27.6451  -13.2092   19.8514 C   0  0  2  0  0  0
  -28.6905  -13.1071   20.9824 C   0  0  0  0  0  0
  -25.2574  -13.8163   20.5657 C   0  0  0  0  0  0
  -24.1835  -13.0455   20.9208 C   0  0  0  0  0  0
  -24.6380  -11.6912   20.8739 C   0  0  0  0  0  0
  -23.9037  -10.4316   21.0398 C   0  0  0  0  0  0
  -24.3597   -9.4231   21.9166 C   0  0  0  0  0  0
  -23.6301   -8.2250   22.0747 C   0  0  0  0  0  0
  -22.4287   -8.0274   21.3526 C   0  0  0  0  0  0
  -21.9904   -9.0241   20.4637 C   0  0  0  0  0  0
  -22.7206  -10.2143   20.3050 C   0  0  0  0  0  0
  -21.6864   -6.0718   22.5264 C   0  0  0  0  0  0
  -21.4012   -6.5624   23.8196 C   0  0  0  0  0  0
  -21.3663   -5.6784   24.9158 C   0  0  0  0  0  0
  -21.6060   -4.3049   24.7218 C   0  0  0  0  0  0
  -21.8821   -3.8135   23.4340 C   0  0  0  0  0  0
  -21.9212   -4.6945   22.3404 C   0  0  0  0  0  0
  -22.7866  -13.5255   21.1851 C   0  0  0  0  0  0
  -22.1677   -4.2118   21.0969 F   0  0  0  0  0  0
  -21.5639   -3.4546   25.7737 F   0  0  0  0  0  0
  -29.9896  -13.4796   20.4055 N   0  0  0  0  0  0
  -26.2938  -12.9298   20.3230 N   0  0  0  0  0  0
  -25.9290  -11.6475   20.5750 N   0  0  0  0  0  0
  -22.0508  -12.8248   22.0395 N   0  0  0  0  0  0
  -25.4368  -15.1884   20.4086 N   0  0  0  0  0  0
  -31.7662  -14.8660   20.1484 O   0  0  0  0  0  0
  -21.6650   -6.8860   21.4232 O   0  0  0  0  0  0
  -22.3531  -14.5546   20.6674 O   0  0  0  0  0  0
  -24.6333  -31.8518   23.1993 C   0  0  0  0  0  0
  -25.9179  -32.4707   23.8326 C   0  0  1  0  0  0
  -27.2133  -27.2475   20.1582 C   0  0  0  0  0  0
  -25.5951  -33.8504   24.2242 N   0  0  0  0  0  0
  -23.4282  -30.4786   21.5392 C   0  0  2  0  0  0
  -24.8750  -28.9166   20.1170 C   0  0  0  0  0  0
  -22.7480  -29.4613   22.4891 C   0  0  0  0  0  0
  -18.0280  -28.1381   22.8459 C   0  0  0  0  0  0
  -24.1484  -36.7272   23.2636 C   0  0  0  0  0  0
  -25.9752  -30.7646   21.3799 C   0  0  0  0  0  0
  -26.0489  -29.3867   20.7239 C   0  0  0  0  0  0
  -27.2226  -28.5653   20.7260 C   0  0  0  0  0  0
  -26.0185  -26.8480   19.5208 C   0  0  0  0  0  0
  -24.8660  -27.6557   19.5040 C   0  0  0  0  0  0
  -23.6507  -29.8093   20.1562 C   0  0  0  0  0  0
  -25.4101  -36.3026   24.0326 C   0  0  1  0  0  0
  -20.5880  -28.3688   23.1236 C   0  0  2  0  0  0
  -20.6757  -26.9405   22.5368 C   0  0  0  0  0  0
  -19.5756  -26.6370   21.5159 C   0  0  0  0  0  0
  -18.1935  -26.7913   22.1589 C   0  0  0  0  0  0
  -19.1538  -28.8853   23.2839 C   0  0  0  0  0  0
  -18.9465  -30.1440   23.8869 C   0  0  0  0  0  0
  -17.6472  -30.6588   24.0545 C   0  0  0  0  0  0
  -25.9054  -34.9402   23.5090 C   0  0  0  0  0  0
  -16.5361  -29.9082   23.6328 C   0  0  0  0  0  0
  -16.7265  -28.6499   23.0357 C   0  0  0  0  0  0
  -26.4546  -31.6551   25.0740 C   0  0  0  0  0  0
  -25.3771  -31.3737   26.1466 C   0  0  0  0  0  0
  -27.0411  -30.2952   24.6290 C   0  0  0  0  0  0
  -27.6102  -32.4280   25.7511 C   0  0  0  0  0  0
  -27.5565  -37.1770   24.8460 C   0  0  0  0  0  0
  -21.4184  -29.3058   22.3627 N   0  0  0  0  0  0
  -26.4263  -37.3735   23.9422 N   0  0  0  0  0  0
  -24.6971  -31.0497   22.0953 N   0  0  0  0  0  0
  -23.4161  -28.8139   23.2975 O   0  0  0  0  0  0
  -28.3041  -26.3493   20.1961 O   0  0  0  0  0  0
  -26.5628  -34.8892   22.4648 O   0  0  0  0  0  0
  -23.5483  -32.1328   23.7305 O   0  0  0  0  0  0
  -28.9613  -21.0848   19.7742 C   0  0  0  0  0  0
  -29.1831  -19.9415   20.5562 C   0  0  0  0  0  0
  -29.3177  -21.8408   21.8043 C   0  0  0  0  0  0
  -29.5493  -22.6913   23.0114 C   0  0  0  0  0  0
  -29.1046  -18.3905   20.2385 C   0  0  0  0  0  0
  -29.0766  -23.7404   20.0622 C   0  0  0  0  0  0
  -30.0843  -17.2909   20.9102 C   0  0  0  0  0  0
  -28.0732  -24.9035   20.5769 C   0  0  0  0  0  0
  -29.0565  -22.2565   20.5463 N   0  0  0  0  0  0
  -29.3813  -20.4861   21.8063 N   0  3  0  0  0  0
  -29.7709  -15.8012   20.7452 N   0  0  0  0  0  0
  -31.4684  -12.6161   19.1193 H   0  0  0  0  0  0
  -30.4408  -11.4581   19.9244 H   0  0  0  0  0  0
  -29.7815  -11.6932   17.5236 H   0  0  0  0  0  0
  -29.6228  -13.4249   17.6968 H   0  0  0  0  0  0
  -27.8787  -11.2679   18.8982 H   0  0  0  0  0  0
  -27.3730  -12.5230   17.7976 H   0  0  0  0  0  0
  -27.6513  -14.2367   19.4870 H   0  0  0  0  0  0
  -28.7303  -12.0931   21.3821 H   0  0  0  0  0  0
  -28.4171  -13.7522   21.8186 H   0  0  0  0  0  0
  -25.2745   -9.5725   22.4727 H   0  0  0  0  0  0
  -24.0036   -7.4644   22.7465 H   0  0  0  0  0  0
  -21.0836   -8.8751   19.8944 H   0  0  0  0  0  0
  -22.3654  -10.9674   19.6164 H   0  0  0  0  0  0
  -21.1975   -7.6127   23.9683 H   0  0  0  0  0  0
  -21.1488   -6.0511   25.9062 H   0  0  0  0  0  0
  -22.0601   -2.7590   23.2846 H   0  0  0  0  0  0
  -22.4140  -11.9938   22.4826 H   0  0  0  0  0  0
  -21.1094  -13.1226   22.2554 H   0  0  0  0  0  0
  -24.6848  -15.8545   20.5461 H   0  0  0  0  0  0
  -26.2704  -15.6121   20.0251 H   0  0  0  0  0  0
  -26.7246  -32.5367   23.1065 H   0  0  0  0  0  0
  -25.0045  -33.9593   25.0352 H   0  0  0  0  0  0
  -22.7270  -31.3017   21.3890 H   0  0  0  0  0  0
  -23.3734  -35.9620   23.3274 H   0  0  0  0  0  0
  -24.3585  -36.8911   22.2054 H   0  0  0  0  0  0
  -23.7258  -37.6474   23.6678 H   0  0  0  0  0  0
  -26.1162  -31.5247   20.6106 H   0  0  0  0  0  0
  -26.8501  -30.8106   22.0166 H   0  0  0  0  0  0
  -28.1227  -28.9177   21.2114 H   0  0  0  0  0  0
  -25.9552  -25.8833   19.0421 H   0  0  0  0  0  0
  -23.9682  -27.2844   19.0272 H   0  0  0  0  0  0
  -23.7872  -30.5846   19.4008 H   0  0  0  0  0  0
  -22.7681  -29.2473   19.8426 H   0  0  0  0  0  0
  -25.1279  -36.1840   25.0818 H   0  0  0  0  0  0
  -20.9964  -28.3262   24.1366 H   0  0  0  0  0  0
  -20.5576  -26.2311   23.3572 H   0  0  0  0  0  0
  -21.6632  -26.7385   22.1215 H   0  0  0  0  0  0
  -19.6915  -25.6261   21.1225 H   0  0  0  0  0  0
  -19.6714  -27.3141   20.6662 H   0  0  0  0  0  0
  -17.4174  -26.6599   21.4028 H   0  0  0  0  0  0
  -18.0415  -26.0056   22.9004 H   0  0  0  0  0  0
  -19.7949  -30.7240   24.2239 H   0  0  0  0  0  0
  -17.5050  -31.6272   24.5129 H   0  0  0  0  0  0
  -15.5365  -30.2998   23.7683 H   0  0  0  0  0  0
  -15.8652  -28.0815   22.7125 H   0  0  0  0  0  0
  -24.5928  -30.7092   25.7826 H   0  0  0  0  0  0
  -24.9004  -32.2928   26.4883 H   0  0  0  0  0  0
  -25.8095  -30.8921   27.0246 H   0  0  0  0  0  0
  -26.3032  -29.6648   24.1316 H   0  0  0  0  0  0
  -27.4052  -29.7270   25.4864 H   0  0  0  0  0  0
  -27.8928  -30.4189   23.9596 H   0  0  0  0  0  0
  -27.2722  -33.3560   26.2126 H   0  0  0  0  0  0
  -28.3931  -32.6840   25.0364 H   0  0  0  0  0  0
  -28.0774  -31.8374   26.5400 H   0  0  0  0  0  0
  -28.2561  -38.0080   24.7496 H   0  0  0  0  0  0
  -28.1072  -36.2608   24.6279 H   0  0  0  0  0  0
  -27.2289  -37.1409   25.8861 H   0  0  0  0  0  0
  -20.9349  -29.8829   21.6894 H   0  0  0  0  0  0
  -26.0131  -38.2797   24.1449 H   0  0  0  0  0  0
  -28.7476  -21.1395   18.7141 H   0  0  0  0  0  0
  -30.5210  -23.1743   22.9222 H   0  0  0  0  0  0
  -29.5350  -22.0578   23.8959 H   0  0  0  0  0  0
  -28.7573  -23.4291   23.0955 H   0  0  0  0  0  0
  -29.2213  -18.2882   19.1597 H   0  0  0  0  0  0
  -28.0727  -18.0935   20.4286 H   0  0  0  0  0  0
  -30.0934  -24.0883   20.2437 H   0  0  0  0  0  0
  -28.9722  -23.6935   18.9774 H   0  0  0  0  0  0
  -30.0916  -17.4670   21.9846 H   0  0  0  0  0  0
  -31.1087  -17.4700   20.5866 H   0  0  0  0  0  0
  -28.0757  -24.9071   21.6646 H   0  0  0  0  0  0
  -27.0687  -24.5814   20.3109 H   0  0  0  0  0  0
  -29.5478  -19.9387   22.6446 H   0  0  0  0  0  0
  -28.8195  -15.5405   20.9597 H   0  0  0  0  0  0
  1 25  1  0  0  0
  1 30  2  0  0  0
  1 81  1  0  0  0
  2  3  1  0  0  0
  2 25  1  0  0  0
  2 82  1  0  0  0
  2 83  1  0  0  0
  3  4  1  0  0  0
  3 84  1  0  0  0
  3 85  1  0  0  0
  4  5  1  0  0  0
  4 86  1  0  0  0
  4 87  1  0  0  0
  5  6  1  0  0  0
  5 26  1  0  0  0
  5 88  1  0  0  0
  6 25  1  0  0  0
  6 89  1  0  0  0
  6 90  1  0  0  0
  7  8  2  0  0  0
  7 26  1  0  0  0
  7 29  1  0  0  0
  8  9  1  0  0  0
  8 22  1  0  0  0
  9 10  1  0  0  0
  9 27  2  0  0  0
 10 11  2  0  0  0
 10 15  1  0  0  0
 11 12  1  0  0  0
 11 91  1  0  0  0
 12 13  2  0  0  0
 12 92  1  0  0  0
 13 14  1  0  0  0
 13 31  1  0  0  0
 14 15  2  0  0  0
 14 93  1  0  0  0
 15 94  1  0  0  0
 16 17  2  0  0  0
 16 21  1  0  0  0
 16 31  1  0  0  0
 17 18  1  0  0  0
 17 95  1  0  0  0
 18 19  2  0  0  0
 18 96  1  0  0  0
 19 20  1  0  0  0
 19 24  1  0  0  0
 20 21  2  0  0  0
 20 97  1  0  0  0
 21 23  1  0  0  0
 22 28  1  0  0  0
 22 32  2  0  0  0
 26 27  1  0  0  0
 28 98  1  0  0  0
 28 99  1  0  0  0
 29100  1  0  0  0
 29101  1  0  0  0
 33 34  1  0  0  0
 33 66  1  0  0  0
 33 70  2  0  0  0
 34 36  1  0  0  0
 34 59  1  0  0  0
 34102  1  0  0  0
 35 44  2  0  0  0
 35 45  1  0  0  0
 35 68  1  0  0  0
 36 56  1  0  0  0
 36103  1  0  0  0
 37 39  1  0  0  0
 37 47  1  0  0  0
 37 66  1  0  0  0
 37104  1  0  0  0
 38 43  2  0  0  0
 38 46  1  0  0  0
 38 47  1  0  0  0
 39 64  1  0  0  0
 39 67  2  0  0  0
 40 52  1  0  0  0
 40 53  2  0  0  0
 40 58  1  0  0  0
 41105  1  0  0  0
 41106  1  0  0  0
 41107  1  0  0  0
 41 48  1  0  0  0
 42 43  1  0  0  0
 42 66  1  0  0  0
 42108  1  0  0  0
 42109  1  0  0  0
 43 44  1  0  0  0
 44110  1  0  0  0
 45 46  2  0  0  0
 45111  1  0  0  0
 46112  1  0  0  0
 47113  1  0  0  0
 47114  1  0  0  0
 48 56  1  0  0  0
 48 65  1  0  0  0
 48115  1  0  0  0
 49 50  1  0  0  0
 49 53  1  0  0  0
 49 64  1  0  0  0
 49116  1  0  0  0
 50 51  1  0  0  0
 50117  1  0  0  0
 50118  1  0  0  0
 51 52  1  0  0  0
 51119  1  0  0  0
 51120  1  0  0  0
 52121  1  0  0  0
 52122  1  0  0  0
 53 54  1  0  0  0
 54 55  2  0  0  0
 54123  1  0  0  0
 55 57  1  0  0  0
 55124  1  0  0  0
 56 69  2  0  0  0
 57 58  2  0  0  0
 57125  1  0  0  0
 58126  1  0  0  0
 59 60  1  0  0  0
 59 61  1  0  0  0
 59 62  1  0  0  0
 60127  1  0  0  0
 60128  1  0  0  0
 60129  1  0  0  0
 61130  1  0  0  0
 61131  1  0  0  0
 61132  1  0  0  0
 62133  1  0  0  0
 62134  1  0  0  0
 62135  1  0  0  0
 63 65  1  0  0  0
 63136  1  0  0  0
 63137  1  0  0  0
 63138  1  0  0  0
 64139  1  0  0  0
 65140  1  0  0  0
 68 78  1  0  0  0
 71 72  2  0  0  0
 71 79  1  0  0  0
 71141  1  0  0  0
 72 75  1  0  0  0
 72 80  1  0  0  0
 73 74  1  0  0  0
 73 79  1  0  0  0
 73 80  2  0  0  0
 74142  1  0  0  0
 74143  1  0  0  0
 74144  1  0  0  0
 75 77  1  0  0  0
 75145  1  0  0  0
 75146  1  0  0  0
 76 78  1  0  0  0
 76 79  1  0  0  0
 76147  1  0  0  0
 76148  1  0  0  0
 77 81  1  0  0  0
 77149  1  0  0  0
 77150  1  0  0  0
 78151  1  0  0  0
 78152  1  0  0  0
 80153  1  0  0  0
 81154  1  0  0  0
M  CHG  1  80   1
M  ISO  4   1 100  68 101  78 101  81 100
M  END
> <chiral flag>
0

> <version>
0

> <s_m_source_file>
/data/baiqing/PycharmProjects/Reinvent-master-3.2/result/LINK_invent/BTK/process_docking_weight1_custom_sum_contain_oxygen_bond_distance_aromatic_linkinvent_7_9_3/rearranged_h_0047.sdf

> <i_m_source_file_index>
33

> <r_mmod_Potential_Energy-OPLS-2005>
69.6150131225586

> <r_mmod_Stretch_Energy-OPLS-2005>
120.3623046875

> <r_mmod_Bend_Energy-OPLS-2005>
168.925720214844

> <r_mmod_Torsional_Energy-OPLS-2005>
229.90168762207

> <r_mmod_Improper_Torsional_Energy-OPLS-2005>
5.48546361923218

> <r_mmod_Van_der_Waal_Energy-OPLS-2005>
114.679656982422

> <r_mmod_Electrostatic_Energy-OPLS-2005>
-215.234786987305

> <r_mmod_Solvation_Energy-OPLS-2005>
-437.921539306641

> <b_mmod_Minimization_Converged-OPLS-2005>
0

> <r_mmod_RMS_Derivative-OPLS-2005>
4.28953742980957

$$$$
33
                    3D
 Structure written by MMmdl.
153161  0  0  1  0            999 V2000
  -30.6371  -14.6497   20.4961 C   0  0  0  0  0  0
  -30.4309  -12.4006   19.4498 C   0  0  0  0  0  0
  -29.5006  -12.4985   18.2219 C   0  0  0  0  0  0
  -28.0268  -12.3288   18.6403 C   0  0  0  0  0  0
  -27.6463  -13.2188   19.8530 C   0  0  2  0  0  0
  -28.6924  -13.1058   20.9827 C   0  0  0  0  0  0
  -25.2540  -13.8185   20.5686 C   0  0  0  0  0  0
  -24.1817  -13.0442   20.9203 C   0  0  0  0  0  0
  -24.6401  -11.6919   20.8764 C   0  0  0  0  0  0
  -23.9083  -10.4295   21.0426 C   0  0  0  0  0  0
  -24.3635   -9.4201   21.9203 C   0  0  0  0  0  0
  -23.6300   -8.2243   22.0762 C   0  0  0  0  0  0
  -22.4279   -8.0292   21.3554 C   0  0  0  0  0  0
  -21.9929   -9.0276   20.4656 C   0  0  0  0  0  0
  -22.7265  -10.2143   20.3069 C   0  0  0  0  0  0
  -21.6850   -6.0753   22.5288 C   0  0  0  0  0  0
  -21.4017   -6.5652   23.8230 C   0  0  0  0  0  0
  -21.3653   -5.6797   24.9188 C   0  0  0  0  0  0
  -21.6034   -4.3062   24.7235 C   0  0  0  0  0  0
  -21.8815   -3.8161   23.4357 C   0  0  0  0  0  0
  -21.9191   -4.6978   22.3414 C   0  0  0  0  0  0
  -22.7836  -13.5231   21.1858 C   0  0  0  0  0  0
  -22.1656   -4.2171   21.0988 F   0  0  0  0  0  0
  -21.5622   -3.4540   25.7746 F   0  0  0  0  0  0
  -30.0008  -13.4399   20.4053 N   0  0  0  0  0  0
  -26.2960  -12.9368   20.3292 N   0  0  0  0  0  0
  -25.9325  -11.6522   20.5773 N   0  0  0  0  0  0
  -22.0483  -12.8221   22.0417 N   0  0  0  0  0  0
  -25.4234  -15.1913   20.4089 N   0  0  0  0  0  0
  -31.8208  -14.7723   20.1716 O   0  0  0  0  0  0
  -21.6629   -6.8899   21.4253 O   0  0  0  0  0  0
  -22.3532  -14.5546   20.6717 O   0  0  0  0  0  0
  -24.6264  -31.8599   23.2007 C   0  0  0  0  0  0
  -25.9104  -32.4782   23.8335 C   0  0  1  0  0  0
  -27.2242  -27.3141   20.1013 C   0  0  0  0  0  0
  -25.5925  -33.8582   24.2265 N   0  0  0  0  0  0
  -23.4188  -30.4852   21.5447 C   0  0  2  0  0  0
  -24.8641  -28.9409   20.1090 C   0  0  0  0  0  0
  -22.7464  -29.4629   22.4921 C   0  0  0  0  0  0
  -18.0282  -28.1375   22.8490 C   0  0  0  0  0  0
  -24.1500  -36.7305   23.2632 C   0  0  0  0  0  0
  -25.9607  -30.7881   21.3721 C   0  0  0  0  0  0
  -26.0339  -29.4150   20.7139 C   0  0  0  0  0  0
  -27.2126  -28.6122   20.7052 C   0  0  0  0  0  0
  -26.0182  -26.8841   19.4984 C   0  0  0  0  0  0
  -24.8585  -27.6805   19.4960 C   0  0  0  0  0  0
  -23.6328  -29.8226   20.1589 C   0  0  0  0  0  0
  -25.4119  -36.3082   24.0326 C   0  0  1  0  0  0
  -20.5888  -28.3681   23.1292 C   0  0  2  0  0  0
  -20.6787  -26.9403   22.5407 C   0  0  0  0  0  0
  -19.5756  -26.6378   21.5209 C   0  0  0  0  0  0
  -18.1926  -26.7925   22.1612 C   0  0  0  0  0  0
  -19.1539  -28.8839   23.2891 C   0  0  0  0  0  0
  -18.9454  -30.1447   23.8902 C   0  0  0  0  0  0
  -17.6457  -30.6584   24.0560 C   0  0  0  0  0  0
  -25.9049  -34.9461   23.5089 C   0  0  0  0  0  0
  -16.5348  -29.9077   23.6336 C   0  0  0  0  0  0
  -16.7271  -28.6496   23.0349 C   0  0  0  0  0  0
  -26.4483  -31.6599   25.0707 C   0  0  0  0  0  0
  -25.3703  -31.3754   26.1432 C   0  0  0  0  0  0
  -27.0313  -30.3016   24.6163 C   0  0  0  0  0  0
  -27.6048  -32.4337   25.7465 C   0  0  0  0  0  0
  -27.5601  -37.1792   24.8443 C   0  0  0  0  0  0
  -21.4173  -29.3047   22.3686 N   0  0  0  0  0  0
  -26.4294  -37.3785   23.9417 N   0  0  0  0  0  0
  -24.6877  -31.0602   22.0962 N   0  0  0  0  0  0
  -23.4197  -28.8162   23.2992 O   0  0  0  0  0  0
  -28.3572  -26.4856   20.1673 O   0  0  0  0  0  0
  -26.5605  -34.8931   22.4651 O   0  0  0  0  0  0
  -23.5427  -32.1399   23.7331 O   0  0  0  0  0  0
  -28.0618  -21.7361   20.6640 C   0  0  0  0  0  0
  -29.3887  -21.2233   20.5985 C   0  0  0  0  0  0
  -28.7996  -23.8420   19.9804 C   0  0  0  0  0  0
  -26.8951  -20.8732   21.1024 C   0  0  0  0  0  0
  -29.8686  -19.8192   21.1451 C   0  0  0  0  0  0
  -28.4978  -25.2598   19.3419 C   0  0  0  0  0  0
  -29.5002  -18.4142   20.4821 C   0  0  0  0  0  0
  -30.3082  -17.1632   21.0740 C   0  0  0  0  0  0
  -27.7763  -23.0393   20.3418 N   0  0  0  0  0  0
  -30.3625  -22.0990   20.2173 N   0  0  0  0  0  0
  -30.0736  -23.3870   19.9084 N   0  0  0  0  0  0
  -29.8657  -15.7497   20.7821 N   0  0  0  0  0  0
  -31.4716  -12.5206   19.1444 H   0  0  0  0  0  0
  -30.3647  -11.4130   19.9095 H   0  0  0  0  0  0
  -29.7681  -11.7457   17.4791 H   0  0  0  0  0  0
  -29.6326  -13.4680   17.7387 H   0  0  0  0  0  0
  -27.8743  -11.2786   18.8929 H   0  0  0  0  0  0
  -27.3665  -12.5336   17.7969 H   0  0  0  0  0  0
  -27.6563  -14.2460   19.4888 H   0  0  0  0  0  0
  -28.7083  -12.0953   21.3935 H   0  0  0  0  0  0
  -28.4411  -13.7661   21.8140 H   0  0  0  0  0  0
  -25.2783   -9.5662   22.4780 H   0  0  0  0  0  0
  -24.0011   -7.4623   22.7473 H   0  0  0  0  0  0
  -21.0865   -8.8805   19.8957 H   0  0  0  0  0  0
  -22.3747  -10.9693   19.6176 H   0  0  0  0  0  0
  -21.2012   -7.6158   23.9747 H   0  0  0  0  0  0
  -21.1472   -6.0523   25.9093 H   0  0  0  0  0  0
  -22.0595   -2.7627   23.2853 H   0  0  0  0  0  0
  -22.4082  -11.9859   22.4766 H   0  0  0  0  0  0
  -21.1126  -13.1284   22.2681 H   0  0  0  0  0  0
  -24.6521  -15.8418   20.5099 H   0  0  0  0  0  0
  -26.2675  -15.6326   20.0680 H   0  0  0  0  0  0
  -26.7173  -32.5445   23.1081 H   0  0  0  0  0  0
  -25.0125  -33.9736   25.0448 H   0  0  0  0  0  0
  -22.7132  -31.3073   21.4051 H   0  0  0  0  0  0
  -23.3773  -35.9618   23.3231 H   0  0  0  0  0  0
  -24.3601  -36.8984   22.2056 H   0  0  0  0  0  0
  -23.7254  -37.6494   23.6690 H   0  0  0  0  0  0
  -26.0901  -31.5498   20.6021 H   0  0  0  0  0  0
  -26.8427  -30.8397   21.9973 H   0  0  0  0  0  0
  -28.1110  -28.9748   21.1857 H   0  0  0  0  0  0
  -25.9108  -25.9096   19.0516 H   0  0  0  0  0  0
  -23.9557  -27.3071   19.0317 H   0  0  0  0  0  0
  -23.7500  -30.6020   19.4050 H   0  0  0  0  0  0
  -22.7520  -29.2533   19.8574 H   0  0  0  0  0  0
  -25.1300  -36.1916   25.0818 H   0  0  0  0  0  0
  -20.9983  -28.3250   24.1414 H   0  0  0  0  0  0
  -20.5694  -26.2276   23.3597 H   0  0  0  0  0  0
  -21.6659  -26.7421   22.1201 H   0  0  0  0  0  0
  -19.6906  -25.6279   21.1262 H   0  0  0  0  0  0
  -19.6709  -27.3179   20.6734 H   0  0  0  0  0  0
  -17.4203  -26.6681   21.4001 H   0  0  0  0  0  0
  -18.0299  -26.0052   22.8989 H   0  0  0  0  0  0
  -19.7924  -30.7270   24.2264 H   0  0  0  0  0  0
  -17.5001  -31.6269   24.5144 H   0  0  0  0  0  0
  -15.5347  -30.2966   23.7668 H   0  0  0  0  0  0
  -15.8671  -28.0827   22.7045 H   0  0  0  0  0  0
  -24.5916  -30.7039   25.7791 H   0  0  0  0  0  0
  -24.8836  -32.2920   26.4777 H   0  0  0  0  0  0
  -25.8035  -30.9026   27.0254 H   0  0  0  0  0  0
  -26.2882  -29.6775   24.1187 H   0  0  0  0  0  0
  -27.4016  -29.7268   25.4663 H   0  0  0  0  0  0
  -27.8744  -30.4293   23.9367 H   0  0  0  0  0  0
  -27.2683  -33.3667   26.2002 H   0  0  0  0  0  0
  -28.3872  -32.6861   25.0291 H   0  0  0  0  0  0
  -28.0690  -31.8481   26.5407 H   0  0  0  0  0  0
  -28.2563  -38.0144   24.7581 H   0  0  0  0  0  0
  -28.1177  -36.2694   24.6165 H   0  0  0  0  0  0
  -27.2337  -37.1304   25.8846 H   0  0  0  0  0  0
  -20.9311  -29.8811   21.6957 H   0  0  0  0  0  0
  -26.0171  -38.2852   24.1448 H   0  0  0  0  0  0
  -27.1501  -20.3055   21.9969 H   0  0  0  0  0  0
  -26.6355  -20.1656   20.3137 H   0  0  0  0  0  0
  -26.0134  -21.4737   21.3291 H   0  0  0  0  0  0
  -29.5801  -19.7793   22.1961 H   0  0  0  0  0  0
  -30.9579  -19.8683   21.1712 H   0  0  0  0  0  0
  -27.7120  -25.1273   18.6044 H   0  0  0  0  0  0
  -29.3604  -25.4815   18.7122 H   0  0  0  0  0  0
  -29.6855  -18.4692   19.4091 H   0  0  0  0  0  0
  -28.4291  -18.2475   20.5952 H   0  0  0  0  0  0
  -30.2920  -17.2456   22.1612 H   0  0  0  0  0  0
  -31.3585  -17.2740   20.8020 H   0  0  0  0  0  0
  -28.8901  -15.5498   20.9415 H   0  0  0  0  0  0
  1 25  1  0  0  0
  1 30  2  0  0  0
  1 82  1  0  0  0
  2  3  1  0  0  0
  2 25  1  0  0  0
  2 83  1  0  0  0
  2 84  1  0  0  0
  3  4  1  0  0  0
  3 85  1  0  0  0
  3 86  1  0  0  0
  4  5  1  0  0  0
  4 87  1  0  0  0
  4 88  1  0  0  0
  5  6  1  0  0  0
  5 26  1  0  0  0
  5 89  1  0  0  0
  6 25  1  0  0  0
  6 90  1  0  0  0
  6 91  1  0  0  0
  7  8  2  0  0  0
  7 26  1  0  0  0
  7 29  1  0  0  0
  8  9  1  0  0  0
  8 22  1  0  0  0
  9 10  1  0  0  0
  9 27  2  0  0  0
 10 11  2  0  0  0
 10 15  1  0  0  0
 11 12  1  0  0  0
 11 92  1  0  0  0
 12 13  2  0  0  0
 12 93  1  0  0  0
 13 14  1  0  0  0
 13 31  1  0  0  0
 14 15  2  0  0  0
 14 94  1  0  0  0
 15 95  1  0  0  0
 16 17  2  0  0  0
 16 21  1  0  0  0
 16 31  1  0  0  0
 17 18  1  0  0  0
 17 96  1  0  0  0
 18 19  2  0  0  0
 18 97  1  0  0  0
 19 20  1  0  0  0
 19 24  1  0  0  0
 20 21  2  0  0  0
 20 98  1  0  0  0
 21 23  1  0  0  0
 22 28  1  0  0  0
 22 32  2  0  0  0
 26 27  1  0  0  0
 28 99  1  0  0  0
 28100  1  0  0  0
 29101  1  0  0  0
 29102  1  0  0  0
 33 34  1  0  0  0
 33 66  1  0  0  0
 33 70  2  0  0  0
 34 36  1  0  0  0
 34 59  1  0  0  0
 34103  1  0  0  0
 35 44  2  0  0  0
 35 45  1  0  0  0
 35 68  1  0  0  0
 36 56  1  0  0  0
 36104  1  0  0  0
 37 39  1  0  0  0
 37 47  1  0  0  0
 37 66  1  0  0  0
 37105  1  0  0  0
 38 43  2  0  0  0
 38 46  1  0  0  0
 38 47  1  0  0  0
 39 64  1  0  0  0
 39 67  2  0  0  0
 40 52  1  0  0  0
 40 53  2  0  0  0
 40 58  1  0  0  0
 41106  1  0  0  0
 41107  1  0  0  0
 41108  1  0  0  0
 41 48  1  0  0  0
 42 43  1  0  0  0
 42 66  1  0  0  0
 42109  1  0  0  0
 42110  1  0  0  0
 43 44  1  0  0  0
 44111  1  0  0  0
 45 46  2  0  0  0
 45112  1  0  0  0
 46113  1  0  0  0
 47114  1  0  0  0
 47115  1  0  0  0
 48 56  1  0  0  0
 48 65  1  0  0  0
 48116  1  0  0  0
 49 50  1  0  0  0
 49 53  1  0  0  0
 49 64  1  0  0  0
 49117  1  0  0  0
 50 51  1  0  0  0
 50118  1  0  0  0
 50119  1  0  0  0
 51 52  1  0  0  0
 51120  1  0  0  0
 51121  1  0  0  0
 52122  1  0  0  0
 52123  1  0  0  0
 53 54  1  0  0  0
 54 55  2  0  0  0
 54124  1  0  0  0
 55 57  1  0  0  0
 55125  1  0  0  0
 56 69  2  0  0  0
 57 58  2  0  0  0
 57126  1  0  0  0
 58127  1  0  0  0
 59 60  1  0  0  0
 59 61  1  0  0  0
 59 62  1  0  0  0
 60128  1  0  0  0
 60129  1  0  0  0
 60130  1  0  0  0
 61131  1  0  0  0
 61132  1  0  0  0
 61133  1  0  0  0
 62134  1  0  0  0
 62135  1  0  0  0
 62136  1  0  0  0
 63 65  1  0  0  0
 63137  1  0  0  0
 63138  1  0  0  0
 63139  1  0  0  0
 64140  1  0  0  0
 65141  1  0  0  0
 68 76  1  0  0  0
 71 72  2  0  0  0
 71 74  1  0  0  0
 71 79  1  0  0  0
 72 75  1  0  0  0
 72 80  1  0  0  0
 73 76  1  0  0  0
 73 79  2  0  0  0
 73 81  1  0  0  0
 74142  1  0  0  0
 74143  1  0  0  0
 74144  1  0  0  0
 75 77  1  0  0  0
 75145  1  0  0  0
 75146  1  0  0  0
 76147  1  0  0  0
 76148  1  0  0  0
 77 78  1  0  0  0
 77149  1  0  0  0
 77150  1  0  0  0
 78 82  1  0  0  0
 78151  1  0  0  0
 78152  1  0  0  0
 80 81  2  0  0  0
 82153  1  0  0  0
M  ISO  4   1 100  68 101  76 101  82 100
M  END
> <chiral flag>
0

> <version>
0

> <s_m_source_file>
/data/baiqing/PycharmProjects/Reinvent-master-3.2/result/LINK_invent/BTK/process_docking_weight1_custom_sum_contain_oxygen_bond_distance_aromatic_linkinvent_7_9_3/rearranged_h_0047.sdf

> <i_m_source_file_index>
34

> <r_mmod_Potential_Energy-OPLS-2005>
86.4223480224609

> <r_mmod_Stretch_Energy-OPLS-2005>
88.923095703125

> <r_mmod_Bend_Energy-OPLS-2005>
164.847061157227

> <r_mmod_Torsional_Energy-OPLS-2005>
204.192916870117

> <r_mmod_Improper_Torsional_Energy-OPLS-2005>
6.62948226928711

> <r_mmod_Van_der_Waal_Energy-OPLS-2005>
149.978317260742

> <r_mmod_Electrostatic_Energy-OPLS-2005>
-336.082153320312

> <r_mmod_Solvation_Energy-OPLS-2005>
-244.315185546875

> <b_mmod_Minimization_Converged-OPLS-2005>
0

> <r_mmod_RMS_Derivative-OPLS-2005>
1.71746671199799

$$$$
34
                    3D
 Structure written by MMmdl.
153161  0  0  1  0            999 V2000
  -30.5820  -14.7548   20.5073 C   0  0  0  0  0  0
  -30.4439  -12.4722   19.4640 C   0  0  0  0  0  0
  -29.5166  -12.5177   18.2304 C   0  0  0  0  0  0
  -28.0421  -12.3262   18.6465 C   0  0  0  0  0  0
  -27.6417  -13.2220   19.8482 C   0  0  2  0  0  0
  -28.6859  -13.1309   20.9794 C   0  0  0  0  0  0
  -25.2486  -13.8151   20.5691 C   0  0  0  0  0  0
  -24.1783  -13.0428   20.9185 C   0  0  0  0  0  0
  -24.6351  -11.6912   20.8730 C   0  0  0  0  0  0
  -23.9021  -10.4315   21.0399 C   0  0  0  0  0  0
  -24.3583   -9.4241   21.9166 C   0  0  0  0  0  0
  -23.6313   -8.2247   22.0743 C   0  0  0  0  0  0
  -22.4292   -8.0262   21.3536 C   0  0  0  0  0  0
  -21.9897   -9.0211   20.4630 C   0  0  0  0  0  0
  -22.7180  -10.2123   20.3055 C   0  0  0  0  0  0
  -21.6848   -6.0736   22.5301 C   0  0  0  0  0  0
  -21.3982   -6.5615   23.8227 C   0  0  0  0  0  0
  -21.3685   -5.6770   24.9172 C   0  0  0  0  0  0
  -21.6067   -4.3036   24.7237 C   0  0  0  0  0  0
  -21.8800   -3.8134   23.4352 C   0  0  0  0  0  0
  -21.9182   -4.6967   22.3418 C   0  0  0  0  0  0
  -22.7784  -13.5210   21.1879 C   0  0  0  0  0  0
  -22.1651   -4.2134   21.1005 F   0  0  0  0  0  0
  -21.5682   -3.4529   25.7758 F   0  0  0  0  0  0
  -29.9784  -13.5178   20.4041 N   0  0  0  0  0  0
  -26.2911  -12.9347   20.3237 N   0  0  0  0  0  0
  -25.9258  -11.6503   20.5688 N   0  0  0  0  0  0
  -22.0408  -12.8257   22.0457 N   0  0  0  0  0  0
  -25.4152  -15.1892   20.4104 N   0  0  0  0  0  0
  -31.7752  -14.8843   20.2239 O   0  0  0  0  0  0
  -21.6632   -6.8876   21.4265 O   0  0  0  0  0  0
  -22.3517  -14.5542   20.6734 O   0  0  0  0  0  0
  -24.6330  -31.8545   23.1996 C   0  0  0  0  0  0
  -25.9144  -32.4765   23.8338 C   0  0  1  0  0  0
  -27.2194  -27.2379   20.1414 C   0  0  0  0  0  0
  -25.5937  -33.8571   24.2252 N   0  0  0  0  0  0
  -23.4308  -30.4793   21.5454 C   0  0  2  0  0  0
  -24.8786  -28.9278   20.1097 C   0  0  0  0  0  0
  -22.7515  -29.4590   22.4916 C   0  0  0  0  0  0
  -18.0294  -28.1423   22.8481 C   0  0  0  0  0  0
  -24.1495  -36.7292   23.2644 C   0  0  0  0  0  0
  -25.9794  -30.7596   21.3864 C   0  0  0  0  0  0
  -26.0483  -29.3784   20.7334 C   0  0  0  0  0  0
  -27.2151  -28.5435   20.7466 C   0  0  0  0  0  0
  -26.0342  -26.8836   19.4474 C   0  0  0  0  0  0
  -24.8790  -27.6892   19.4548 C   0  0  0  0  0  0
  -23.6504  -29.8206   20.1577 C   0  0  0  0  0  0
  -25.4130  -36.3092   24.0309 C   0  0  1  0  0  0
  -20.5900  -28.3719   23.1287 C   0  0  2  0  0  0
  -20.6799  -26.9442   22.5430 C   0  0  0  0  0  0
  -19.5770  -26.6405   21.5238 C   0  0  0  0  0  0
  -18.1938  -26.7967   22.1627 C   0  0  0  0  0  0
  -19.1551  -28.8886   23.2877 C   0  0  0  0  0  0
  -18.9474  -30.1488   23.8894 C   0  0  0  0  0  0
  -17.6468  -30.6623   24.0558 C   0  0  0  0  0  0
  -25.9065  -34.9453   23.5095 C   0  0  0  0  0  0
  -16.5355  -29.9112   23.6355 C   0  0  0  0  0  0
  -16.7277  -28.6545   23.0348 C   0  0  0  0  0  0
  -26.4499  -31.6609   25.0749 C   0  0  0  0  0  0
  -25.3698  -31.3754   26.1449 C   0  0  0  0  0  0
  -27.0345  -30.3047   24.6218 C   0  0  0  0  0  0
  -27.6072  -32.4339   25.7493 C   0  0  0  0  0  0
  -27.5585  -37.1812   24.8461 C   0  0  0  0  0  0
  -21.4217  -29.3050   22.3652 N   0  0  0  0  0  0
  -26.4304  -37.3796   23.9401 N   0  0  0  0  0  0
  -24.7003  -31.0502   22.0990 N   0  0  0  0  0  0
  -23.4219  -28.8168   23.3044 O   0  0  0  0  0  0
  -28.3054  -26.3216   20.2706 O   0  0  0  0  0  0
  -26.5648  -34.8913   22.4672 O   0  0  0  0  0  0
  -23.5468  -32.1366   23.7286 O   0  0  0  0  0  0
  -28.7125  -22.2715   20.3075 C   0  0  0  0  0  0
  -28.8652  -23.6475   20.5736 C   0  0  0  0  0  0
  -29.7483  -23.5992   21.7000 C   0  0  0  0  0  0
  -30.3197  -24.7206   22.5348 C   0  0  0  0  0  0
  -28.1872  -24.8843   19.8216 C   0  0  0  0  0  0
  -29.4810  -18.6550   20.6314 C   0  0  0  0  0  0
  -29.5999  -19.9713   21.5805 C   0  0  0  0  0  0
  -30.0922  -17.2731   21.2641 C   0  0  0  0  0  0
  -30.0794  -22.3454   22.0353 N   0  0  0  0  0  0
  -29.4627  -21.4642   21.1984 N   0  0  0  0  0  0
  -29.7699  -15.8575   20.7652 N   0  0  0  0  0  0
  -31.4793  -12.6342   19.1592 H   0  0  0  0  0  0
  -30.4249  -11.4871   19.9360 H   0  0  0  0  0  0
  -29.8085  -11.7460   17.5145 H   0  0  0  0  0  0
  -29.6304  -13.4770   17.7220 H   0  0  0  0  0  0
  -27.9081  -11.2780   18.9197 H   0  0  0  0  0  0
  -27.3842  -12.5112   17.7962 H   0  0  0  0  0  0
  -27.6435  -14.2435   19.4674 H   0  0  0  0  0  0
  -28.7412  -12.1185   21.3835 H   0  0  0  0  0  0
  -28.4076  -13.7805   21.8103 H   0  0  0  0  0  0
  -25.2709   -9.5723   22.4745 H   0  0  0  0  0  0
  -24.0019   -7.4643   22.7465 H   0  0  0  0  0  0
  -21.0819   -8.8710   19.8964 H   0  0  0  0  0  0
  -22.3606  -10.9648   19.6198 H   0  0  0  0  0  0
  -21.1945   -7.6109   23.9719 H   0  0  0  0  0  0
  -21.1543   -6.0492   25.9076 H   0  0  0  0  0  0
  -22.0578   -2.7596   23.2843 H   0  0  0  0  0  0
  -22.3917  -11.9934   22.4951 H   0  0  0  0  0  0
  -21.1026  -13.1339   22.2610 H   0  0  0  0  0  0
  -24.6417  -15.8370   20.5158 H   0  0  0  0  0  0
  -26.2514  -15.6346   20.0570 H   0  0  0  0  0  0
  -26.7214  -32.5398   23.1057 H   0  0  0  0  0  0
  -25.0067  -33.9740   25.0383 H   0  0  0  0  0  0
  -22.7248  -31.2999   21.4022 H   0  0  0  0  0  0
  -23.3778  -35.9616   23.3324 H   0  0  0  0  0  0
  -24.3583  -36.8909   22.2063 H   0  0  0  0  0  0
  -23.7213  -37.6479   23.6658 H   0  0  0  0  0  0
  -26.1241  -31.5168   20.6134 H   0  0  0  0  0  0
  -26.8545  -30.8082   22.0232 H   0  0  0  0  0  0
  -28.0994  -28.8809   21.2717 H   0  0  0  0  0  0
  -25.9458  -25.9703   18.8821 H   0  0  0  0  0  0
  -23.9903  -27.3529   18.9420 H   0  0  0  0  0  0
  -23.7797  -30.6002   19.4045 H   0  0  0  0  0  0
  -22.7657  -29.2604   19.8499 H   0  0  0  0  0  0
  -25.1325  -36.1968   25.0801 H   0  0  0  0  0  0
  -20.9967  -28.3309   24.1419 H   0  0  0  0  0  0
  -20.5763  -26.2311   23.3618 H   0  0  0  0  0  0
  -21.6653  -26.7501   22.1174 H   0  0  0  0  0  0
  -19.6936  -25.6316   21.1274 H   0  0  0  0  0  0
  -19.6738  -27.3206   20.6752 H   0  0  0  0  0  0
  -17.4213  -26.6699   21.4010 H   0  0  0  0  0  0
  -18.0329  -26.0125   22.9039 H   0  0  0  0  0  0
  -19.7944  -30.7308   24.2260 H   0  0  0  0  0  0
  -17.5025  -31.6302   24.5161 H   0  0  0  0  0  0
  -15.5364  -30.3008   23.7708 H   0  0  0  0  0  0
  -15.8657  -28.0863   22.7062 H   0  0  0  0  0  0
  -24.5875  -30.7114   25.7742 H   0  0  0  0  0  0
  -24.8880  -32.2914   26.4875 H   0  0  0  0  0  0
  -25.7992  -30.8907   27.0220 H   0  0  0  0  0  0
  -26.2922  -29.6801   24.1237 H   0  0  0  0  0  0
  -27.4044  -29.7318   25.4725 H   0  0  0  0  0  0
  -27.8785  -30.4369   23.9450 H   0  0  0  0  0  0
  -27.2724  -33.3648   26.2061 H   0  0  0  0  0  0
  -28.3855  -32.6875   25.0290 H   0  0  0  0  0  0
  -28.0744  -31.8460   26.5386 H   0  0  0  0  0  0
  -28.2624  -38.0099   24.7534 H   0  0  0  0  0  0
  -28.1065  -36.2636   24.6280 H   0  0  0  0  0  0
  -27.2294  -37.1439   25.8863 H   0  0  0  0  0  0
  -20.9421  -29.8734   21.6803 H   0  0  0  0  0  0
  -26.0196  -38.2876   24.1432 H   0  0  0  0  0  0
  -28.0945  -21.8030   19.5544 H   0  0  0  0  0  0
  -30.4447  -24.4053   23.5727 H   0  0  0  0  0  0
  -29.6829  -25.6079   22.5489 H   0  0  0  0  0  0
  -31.3092  -25.0217   22.1810 H   0  0  0  0  0  0
  -27.1405  -24.6037   19.7371 H   0  0  0  0  0  0
  -28.5603  -24.8965   18.7959 H   0  0  0  0  0  0
  -29.9665  -18.8515   19.6768 H   0  0  0  0  0  0
  -28.4213  -18.5096   20.4084 H   0  0  0  0  0  0
  -30.5833  -19.8870   22.0490 H   0  0  0  0  0  0
  -28.9080  -19.8152   22.4128 H   0  0  0  0  0  0
  -31.1725  -17.3755   21.3684 H   0  0  0  0  0  0
  -29.7213  -17.2482   22.2898 H   0  0  0  0  0  0
  -28.7903  -15.6248   20.8244 H   0  0  0  0  0  0
  1 25  1  0  0  0
  1 30  2  0  0  0
  1 81  1  0  0  0
  2  3  1  0  0  0
  2 25  1  0  0  0
  2 82  1  0  0  0
  2 83  1  0  0  0
  3  4  1  0  0  0
  3 84  1  0  0  0
  3 85  1  0  0  0
  4  5  1  0  0  0
  4 86  1  0  0  0
  4 87  1  0  0  0
  5  6  1  0  0  0
  5 26  1  0  0  0
  5 88  1  0  0  0
  6 25  1  0  0  0
  6 89  1  0  0  0
  6 90  1  0  0  0
  7  8  2  0  0  0
  7 26  1  0  0  0
  7 29  1  0  0  0
  8  9  1  0  0  0
  8 22  1  0  0  0
  9 10  1  0  0  0
  9 27  2  0  0  0
 10 11  2  0  0  0
 10 15  1  0  0  0
 11 12  1  0  0  0
 11 91  1  0  0  0
 12 13  2  0  0  0
 12 92  1  0  0  0
 13 14  1  0  0  0
 13 31  1  0  0  0
 14 15  2  0  0  0
 14 93  1  0  0  0
 15 94  1  0  0  0
 16 17  2  0  0  0
 16 21  1  0  0  0
 16 31  1  0  0  0
 17 18  1  0  0  0
 17 95  1  0  0  0
 18 19  2  0  0  0
 18 96  1  0  0  0
 19 20  1  0  0  0
 19 24  1  0  0  0
 20 21  2  0  0  0
 20 97  1  0  0  0
 21 23  1  0  0  0
 22 28  1  0  0  0
 22 32  2  0  0  0
 26 27  1  0  0  0
 28 98  1  0  0  0
 28 99  1  0  0  0
 29100  1  0  0  0
 29101  1  0  0  0
 33 34  1  0  0  0
 33 66  1  0  0  0
 33 70  2  0  0  0
 34 36  1  0  0  0
 34 59  1  0  0  0
 34102  1  0  0  0
 35 44  2  0  0  0
 35 45  1  0  0  0
 35 68  1  0  0  0
 36 56  1  0  0  0
 36103  1  0  0  0
 37 39  1  0  0  0
 37 47  1  0  0  0
 37 66  1  0  0  0
 37104  1  0  0  0
 38 43  2  0  0  0
 38 46  1  0  0  0
 38 47  1  0  0  0
 39 64  1  0  0  0
 39 67  2  0  0  0
 40 52  1  0  0  0
 40 53  2  0  0  0
 40 58  1  0  0  0
 41105  1  0  0  0
 41106  1  0  0  0
 41107  1  0  0  0
 41 48  1  0  0  0
 42 43  1  0  0  0
 42 66  1  0  0  0
 42108  1  0  0  0
 42109  1  0  0  0
 43 44  1  0  0  0
 44110  1  0  0  0
 45 46  2  0  0  0
 45111  1  0  0  0
 46112  1  0  0  0
 47113  1  0  0  0
 47114  1  0  0  0
 48 56  1  0  0  0
 48 65  1  0  0  0
 48115  1  0  0  0
 49 50  1  0  0  0
 49 53  1  0  0  0
 49 64  1  0  0  0
 49116  1  0  0  0
 50 51  1  0  0  0
 50117  1  0  0  0
 50118  1  0  0  0
 51 52  1  0  0  0
 51119  1  0  0  0
 51120  1  0  0  0
 52121  1  0  0  0
 52122  1  0  0  0
 53 54  1  0  0  0
 54 55  2  0  0  0
 54123  1  0  0  0
 55 57  1  0  0  0
 55124  1  0  0  0
 56 69  2  0  0  0
 57 58  2  0  0  0
 57125  1  0  0  0
 58126  1  0  0  0
 59 60  1  0  0  0
 59 61  1  0  0  0
 59 62  1  0  0  0
 60127  1  0  0  0
 60128  1  0  0  0
 60129  1  0  0  0
 61130  1  0  0  0
 61131  1  0  0  0
 61132  1  0  0  0
 62133  1  0  0  0
 62134  1  0  0  0
 62135  1  0  0  0
 63 65  1  0  0  0
 63136  1  0  0  0
 63137  1  0  0  0
 63138  1  0  0  0
 64139  1  0  0  0
 65140  1  0  0  0
 68 75  1  0  0  0
 71 72  2  0  0  0
 71 80  1  0  0  0
 71141  1  0  0  0
 72 73  1  0  0  0
 72 75  1  0  0  0
 73 74  1  0  0  0
 73 79  2  0  0  0
 74142  1  0  0  0
 74143  1  0  0  0
 74144  1  0  0  0
 75145  1  0  0  0
 75146  1  0  0  0
 76 77  1  0  0  0
 76 78  1  0  0  0
 76147  1  0  0  0
 76148  1  0  0  0
 77 80  1  0  0  0
 77149  1  0  0  0
 77150  1  0  0  0
 78 81  1  0  0  0
 78151  1  0  0  0
 78152  1  0  0  0
 79 80  1  0  0  0
 81153  1  0  0  0
M  ISO  4   1 100  68 101  75 101  81 100
M  END
> <chiral flag>
0

> <version>
0

> <s_m_source_file>
/data/baiqing/PycharmProjects/Reinvent-master-3.2/result/LINK_invent/BTK/process_docking_weight1_custom_sum_contain_oxygen_bond_distance_aromatic_linkinvent_7_9_3/rearranged_h_0047.sdf

> <i_m_source_file_index>
35

> <r_mmod_Potential_Energy-OPLS-2005>
182.114608764648

> <r_mmod_Stretch_Energy-OPLS-2005>
135.909362792969

> <r_mmod_Bend_Energy-OPLS-2005>
213.490783691406

> <r_mmod_Torsional_Energy-OPLS-2005>
227.581115722656

> <r_mmod_Improper_Torsional_Energy-OPLS-2005>
4.92629146575928

> <r_mmod_Van_der_Waal_Energy-OPLS-2005>
118.778099060059

> <r_mmod_Electrostatic_Energy-OPLS-2005>
-387.799835205078

> <r_mmod_Solvation_Energy-OPLS-2005>
-230.349212646484

> <b_mmod_Minimization_Converged-OPLS-2005>
0

> <r_mmod_RMS_Derivative-OPLS-2005>
5.60199213027954

$$$$
35
                    3D
 Structure written by MMmdl.
153161  0  0  1  0            999 V2000
  -30.5973  -14.7375   20.4580 C   0  0  0  0  0  0
  -30.4427  -12.4463   19.4834 C   0  0  0  0  0  0
  -29.5230  -12.5121   18.2426 C   0  0  0  0  0  0
  -28.0443  -12.3395   18.6462 C   0  0  0  0  0  0
  -27.6488  -13.2291   19.8562 C   0  0  2  0  0  0
  -28.6910  -13.1418   20.9940 C   0  0  0  0  0  0
  -25.2535  -13.8188   20.5637 C   0  0  0  0  0  0
  -24.1811  -13.0448   20.9162 C   0  0  0  0  0  0
  -24.6399  -11.6913   20.8728 C   0  0  0  0  0  0
  -23.9067  -10.4294   21.0399 C   0  0  0  0  0  0
  -24.3615   -9.4207   21.9183 C   0  0  0  0  0  0
  -23.6272   -8.2252   22.0766 C   0  0  0  0  0  0
  -22.4255   -8.0278   21.3563 C   0  0  0  0  0  0
  -21.9891   -9.0253   20.4663 C   0  0  0  0  0  0
  -22.7241  -10.2118   20.3065 C   0  0  0  0  0  0
  -21.6849   -6.0725   22.5267 C   0  0  0  0  0  0
  -21.4021   -6.5627   23.8202 C   0  0  0  0  0  0
  -21.3659   -5.6780   24.9155 C   0  0  0  0  0  0
  -21.6032   -4.3044   24.7229 C   0  0  0  0  0  0
  -21.8821   -3.8133   23.4352 C   0  0  0  0  0  0
  -21.9192   -4.6950   22.3400 C   0  0  0  0  0  0
  -22.7828  -13.5242   21.1803 C   0  0  0  0  0  0
  -22.1657   -4.2137   21.0982 F   0  0  0  0  0  0
  -21.5630   -3.4529   25.7748 F   0  0  0  0  0  0
  -29.9990  -13.4963   20.4273 N   0  0  0  0  0  0
  -26.2959  -12.9391   20.3252 N   0  0  0  0  0  0
  -25.9328  -11.6531   20.5726 N   0  0  0  0  0  0
  -22.0455  -12.8272   22.0378 N   0  0  0  0  0  0
  -25.4275  -15.1902   20.4037 N   0  0  0  0  0  0
  -31.7621  -14.8711   20.0759 O   0  0  0  0  0  0
  -21.6632   -6.8865   21.4231 O   0  0  0  0  0  0
  -22.3512  -14.5527   20.6607 O   0  0  0  0  0  0
  -24.6329  -31.8563   23.2010 C   0  0  0  0  0  0
  -25.9160  -32.4761   23.8349 C   0  0  1  0  0  0
  -27.2127  -27.2602   20.1375 C   0  0  0  0  0  0
  -25.5955  -33.8562   24.2274 N   0  0  0  0  0  0
  -23.4280  -30.4818   21.5427 C   0  0  2  0  0  0
  -24.8749  -28.9272   20.1120 C   0  0  0  0  0  0
  -22.7510  -29.4620   22.4909 C   0  0  0  0  0  0
  -18.0299  -28.1397   22.8488 C   0  0  0  0  0  0
  -24.1482  -36.7283   23.2637 C   0  0  0  0  0  0
  -25.9737  -30.7687   21.3805 C   0  0  0  0  0  0
  -26.0445  -29.3894   20.7269 C   0  0  0  0  0  0
  -27.2181  -28.5686   20.7292 C   0  0  0  0  0  0
  -26.0256  -26.8746   19.4778 C   0  0  0  0  0  0
  -24.8700  -27.6782   19.4755 C   0  0  0  0  0  0
  -23.6486  -29.8175   20.1579 C   0  0  0  0  0  0
  -25.4108  -36.3069   24.0332 C   0  0  1  0  0  0
  -20.5905  -28.3720   23.1261 C   0  0  2  0  0  0
  -20.6799  -26.9437   22.5402 C   0  0  0  0  0  0
  -19.5767  -26.6396   21.5214 C   0  0  0  0  0  0
  -18.1945  -26.7943   22.1622 C   0  0  0  0  0  0
  -19.1554  -28.8873   23.2870 C   0  0  0  0  0  0
  -18.9473  -30.1472   23.8896 C   0  0  0  0  0  0
  -17.6470  -30.6590   24.0571 C   0  0  0  0  0  0
  -25.9061  -34.9444   23.5101 C   0  0  0  0  0  0
  -16.5360  -29.9091   23.6325 C   0  0  0  0  0  0
  -16.7287  -28.6506   23.0351 C   0  0  0  0  0  0
  -26.4521  -31.6583   25.0739 C   0  0  0  0  0  0
  -25.3736  -31.3741   26.1457 C   0  0  0  0  0  0
  -27.0375  -30.3001   24.6221 C   0  0  0  0  0  0
  -27.6078  -32.4326   25.7511 C   0  0  0  0  0  0
  -27.5575  -37.1797   24.8464 C   0  0  0  0  0  0
  -21.4218  -29.3060   22.3640 N   0  0  0  0  0  0
  -26.4279  -37.3774   23.9420 N   0  0  0  0  0  0
  -24.6974  -31.0545   22.0965 N   0  0  0  0  0  0
  -23.4209  -28.8156   23.3010 O   0  0  0  0  0  0
  -28.3041  -26.3633   20.1736 O   0  0  0  0  0  0
  -26.5615  -34.8915   22.4659 O   0  0  0  0  0  0
  -23.5490  -32.1374   23.7310 O   0  0  0  0  0  0
  -29.7254  -21.2290   20.6021 C   0  0  0  0  0  0
  -27.7203  -21.6099   19.9320 C   0  0  0  0  0  0
  -29.0691  -19.9815   20.5730 C   0  0  0  0  0  0
  -29.3826  -23.9804   18.4716 C   0  0  0  0  0  0
  -29.4242  -18.5251   21.1141 C   0  0  0  0  0  0
  -29.9150  -17.2885   20.1909 C   0  0  0  0  0  0
  -28.0528  -24.8984   20.4432 C   0  0  0  0  0  0
  -29.1223  -23.7823   19.9727 C   0  0  1  0  0  0
  -27.7782  -20.2801   20.1200 N   0  0  0  0  0  0
  -28.8475  -22.2895   20.2019 N   0  0  0  0  0  0
  -29.7956  -15.8422   20.7015 N   0  0  0  0  0  0
  -31.4852  -12.5690   19.1865 H   0  0  0  0  0  0
  -30.3868  -11.4640   19.9564 H   0  0  0  0  0  0
  -29.8101  -11.7433   17.5224 H   0  0  0  0  0  0
  -29.6582  -13.4670   17.7336 H   0  0  0  0  0  0
  -27.8895  -11.2889   18.8899 H   0  0  0  0  0  0
  -27.3947  -12.5534   17.7965 H   0  0  0  0  0  0
  -27.6521  -14.2553   19.4875 H   0  0  0  0  0  0
  -28.7171  -12.1359   21.4142 H   0  0  0  0  0  0
  -28.4272  -13.8064   21.8175 H   0  0  0  0  0  0
  -25.2774   -9.5657   22.4739 H   0  0  0  0  0  0
  -23.9974   -7.4642   22.7485 H   0  0  0  0  0  0
  -21.0828   -8.8774   19.8979 H   0  0  0  0  0  0
  -22.3716  -10.9638   19.6150 H   0  0  0  0  0  0
  -21.2035   -7.6134   23.9699 H   0  0  0  0  0  0
  -21.1469   -6.0515   25.9055 H   0  0  0  0  0  0
  -22.0616   -2.7603   23.2856 H   0  0  0  0  0  0
  -22.4061  -11.9963   22.4821 H   0  0  0  0  0  0
  -21.1073  -13.1304   22.2545 H   0  0  0  0  0  0
  -24.6623  -15.8510   20.4967 H   0  0  0  0  0  0
  -26.2772  -15.6164   20.0562 H   0  0  0  0  0  0
  -26.7218  -32.5410   23.1088 H   0  0  0  0  0  0
  -25.0138  -33.9689   25.0443 H   0  0  0  0  0  0
  -22.7240  -31.3048   21.3981 H   0  0  0  0  0  0
  -23.3745  -35.9612   23.3284 H   0  0  0  0  0  0
  -24.3576  -36.8920   22.2052 H   0  0  0  0  0  0
  -23.7232  -37.6480   23.6666 H   0  0  0  0  0  0
  -26.1111  -31.5246   20.6059 H   0  0  0  0  0  0
  -26.8530  -30.8209   22.0112 H   0  0  0  0  0  0
  -28.1133  -28.9187   21.2238 H   0  0  0  0  0  0
  -25.9668  -25.9360   18.9484 H   0  0  0  0  0  0
  -23.9802  -27.3283   18.9720 H   0  0  0  0  0  0
  -23.7829  -30.5958   19.4067 H   0  0  0  0  0  0
  -22.7641  -29.2600   19.8461 H   0  0  0  0  0  0
  -25.1280  -36.1912   25.0823 H   0  0  0  0  0  0
  -20.9997  -28.3313   24.1382 H   0  0  0  0  0  0
  -20.5724  -26.2332   23.3616 H   0  0  0  0  0  0
  -21.6667  -26.7490   22.1185 H   0  0  0  0  0  0
  -19.6940  -25.6301   21.1259 H   0  0  0  0  0  0
  -19.6701  -27.3192   20.6731 H   0  0  0  0  0  0
  -17.4226  -26.6702   21.4016 H   0  0  0  0  0  0
  -18.0340  -26.0081   22.9011 H   0  0  0  0  0  0
  -19.7946  -30.7293   24.2276 H   0  0  0  0  0  0
  -17.5019  -31.6273   24.5177 H   0  0  0  0  0  0
  -15.5363  -30.2994   23.7649 H   0  0  0  0  0  0
  -15.8688  -28.0822   22.7069 H   0  0  0  0  0  0
  -24.5899  -30.7102   25.7781 H   0  0  0  0  0  0
  -24.8943  -32.2920   26.4877 H   0  0  0  0  0  0
  -25.8047  -30.8916   27.0238 H   0  0  0  0  0  0
  -26.2961  -29.6738   24.1245 H   0  0  0  0  0  0
  -27.4057  -29.7277   25.4745 H   0  0  0  0  0  0
  -27.8838  -30.4280   23.9466 H   0  0  0  0  0  0
  -27.2684  -33.3624   26.2086 H   0  0  0  0  0  0
  -28.3894  -32.6890   25.0345 H   0  0  0  0  0  0
  -28.0740  -31.8456   26.5434 H   0  0  0  0  0  0
  -28.2589  -38.0095   24.7519 H   0  0  0  0  0  0
  -28.1075  -36.2636   24.6270 H   0  0  0  0  0  0
  -27.2305  -37.1429   25.8868 H   0  0  0  0  0  0
  -20.9413  -29.8758   21.6813 H   0  0  0  0  0  0
  -26.0154  -38.2847   24.1417 H   0  0  0  0  0  0
  -30.7423  -21.4523   20.8966 H   0  0  0  0  0  0
  -26.8318  -22.1043   19.5630 H   0  0  0  0  0  0
  -29.6926  -25.0029   18.2528 H   0  0  0  0  0  0
  -28.4815  -23.7765   17.8902 H   0  0  0  0  0  0
  -30.1675  -23.3136   18.1157 H   0  0  0  0  0  0
  -28.5314  -18.1685   21.6285 H   0  0  0  0  0  0
  -30.1575  -18.6402   21.9124 H   0  0  0  0  0  0
  -30.9385  -17.4751   19.8648 H   0  0  0  0  0  0
  -29.3157  -17.3166   19.2802 H   0  0  0  0  0  0
  -27.9403  -24.8102   21.5249 H   0  0  0  0  0  0
  -27.0898  -24.5821   20.0515 H   0  0  0  0  0  0
  -30.0518  -24.0030   20.4987 H   0  0  0  0  0  0
  -28.8903  -15.6044   21.0805 H   0  0  0  0  0  0
  1 25  1  0  0  0
  1 30  2  0  0  0
  1 81  1  0  0  0
  2  3  1  0  0  0
  2 25  1  0  0  0
  2 82  1  0  0  0
  2 83  1  0  0  0
  3  4  1  0  0  0
  3 84  1  0  0  0
  3 85  1  0  0  0
  4  5  1  0  0  0
  4 86  1  0  0  0
  4 87  1  0  0  0
  5  6  1  0  0  0
  5 26  1  0  0  0
  5 88  1  0  0  0
  6 25  1  0  0  0
  6 89  1  0  0  0
  6 90  1  0  0  0
  7  8  2  0  0  0
  7 26  1  0  0  0
  7 29  1  0  0  0
  8  9  1  0  0  0
  8 22  1  0  0  0
  9 10  1  0  0  0
  9 27  2  0  0  0
 10 11  2  0  0  0
 10 15  1  0  0  0
 11 12  1  0  0  0
 11 91  1  0  0  0
 12 13  2  0  0  0
 12 92  1  0  0  0
 13 14  1  0  0  0
 13 31  1  0  0  0
 14 15  2  0  0  0
 14 93  1  0  0  0
 15 94  1  0  0  0
 16 17  2  0  0  0
 16 21  1  0  0  0
 16 31  1  0  0  0
 17 18  1  0  0  0
 17 95  1  0  0  0
 18 19  2  0  0  0
 18 96  1  0  0  0
 19 20  1  0  0  0
 19 24  1  0  0  0
 20 21  2  0  0  0
 20 97  1  0  0  0
 21 23  1  0  0  0
 22 28  1  0  0  0
 22 32  2  0  0  0
 26 27  1  0  0  0
 28 98  1  0  0  0
 28 99  1  0  0  0
 29100  1  0  0  0
 29101  1  0  0  0
 33 34  1  0  0  0
 33 66  1  0  0  0
 33 70  2  0  0  0
 34 36  1  0  0  0
 34 59  1  0  0  0
 34102  1  0  0  0
 35 44  2  0  0  0
 35 45  1  0  0  0
 35 68  1  0  0  0
 36 56  1  0  0  0
 36103  1  0  0  0
 37 39  1  0  0  0
 37 47  1  0  0  0
 37 66  1  0  0  0
 37104  1  0  0  0
 38 43  2  0  0  0
 38 46  1  0  0  0
 38 47  1  0  0  0
 39 64  1  0  0  0
 39 67  2  0  0  0
 40 52  1  0  0  0
 40 53  2  0  0  0
 40 58  1  0  0  0
 41105  1  0  0  0
 41106  1  0  0  0
 41107  1  0  0  0
 41 48  1  0  0  0
 42 43  1  0  0  0
 42 66  1  0  0  0
 42108  1  0  0  0
 42109  1  0  0  0
 43 44  1  0  0  0
 44110  1  0  0  0
 45 46  2  0  0  0
 45111  1  0  0  0
 46112  1  0  0  0
 47113  1  0  0  0
 47114  1  0  0  0
 48 56  1  0  0  0
 48 65  1  0  0  0
 48115  1  0  0  0
 49 50  1  0  0  0
 49 53  1  0  0  0
 49 64  1  0  0  0
 49116  1  0  0  0
 50 51  1  0  0  0
 50117  1  0  0  0
 50118  1  0  0  0
 51 52  1  0  0  0
 51119  1  0  0  0
 51120  1  0  0  0
 52121  1  0  0  0
 52122  1  0  0  0
 53 54  1  0  0  0
 54 55  2  0  0  0
 54123  1  0  0  0
 55 57  1  0  0  0
 55124  1  0  0  0
 56 69  2  0  0  0
 57 58  2  0  0  0
 57125  1  0  0  0
 58126  1  0  0  0
 59 60  1  0  0  0
 59 61  1  0  0  0
 59 62  1  0  0  0
 60127  1  0  0  0
 60128  1  0  0  0
 60129  1  0  0  0
 61130  1  0  0  0
 61131  1  0  0  0
 61132  1  0  0  0
 62133  1  0  0  0
 62134  1  0  0  0
 62135  1  0  0  0
 63 65  1  0  0  0
 63136  1  0  0  0
 63137  1  0  0  0
 63138  1  0  0  0
 64139  1  0  0  0
 65140  1  0  0  0
 68 77  1  0  0  0
 71 73  2  0  0  0
 71 80  1  0  0  0
 71141  1  0  0  0
 72 79  2  0  0  0
 72 80  1  0  0  0
 72142  1  0  0  0
 73 75  1  0  0  0
 73 79  1  0  0  0
 74143  1  0  0  0
 74144  1  0  0  0
 74145  1  0  0  0
 74 78  1  0  0  0
 75 76  1  0  0  0
 75146  1  0  0  0
 75147  1  0  0  0
 76 81  1  0  0  0
 76148  1  0  0  0
 76149  1  0  0  0
 77 78  1  0  0  0
 77150  1  0  0  0
 77151  1  0  0  0
 78 80  1  0  0  0
 78152  1  0  0  0
 81153  1  0  0  0
M  ISO  4   1 100  68 101  77 101  81 100
M  END
> <chiral flag>
0

> <version>
0

> <s_m_source_file>
/data/baiqing/PycharmProjects/Reinvent-master-3.2/result/LINK_invent/BTK/process_docking_weight1_custom_sum_contain_oxygen_bond_distance_aromatic_linkinvent_7_9_3/rearranged_h_0047.sdf

> <i_m_source_file_index>
36

> <r_mmod_Potential_Energy-OPLS-2005>
147.768035888672

> <r_mmod_Stretch_Energy-OPLS-2005>
122.740608215332

> <r_mmod_Bend_Energy-OPLS-2005>
170.713607788086

> <r_mmod_Torsional_Energy-OPLS-2005>
242.79948425293

> <r_mmod_Improper_Torsional_Energy-OPLS-2005>
7.39993810653687

> <r_mmod_Van_der_Waal_Energy-OPLS-2005>
114.832908630371

> <r_mmod_Electrostatic_Energy-OPLS-2005>
-366.361999511719

> <r_mmod_Solvation_Energy-OPLS-2005>
-227.694473266602

> <b_mmod_Minimization_Converged-OPLS-2005>
0

> <r_mmod_RMS_Derivative-OPLS-2005>
2.82597923278809

$$$$
36
                    3D
 Structure written by MMmdl.
152160  0  0  1  0            999 V2000
  -30.4722  -15.1980   20.3641 C   0  0  0  0  0  0
  -30.4389  -12.7425   19.5403 C   0  0  0  0  0  0
  -29.5394  -12.5763   18.2893 C   0  0  0  0  0  0
  -28.0790  -12.3206   18.6996 C   0  0  0  0  0  0
  -27.6192  -13.2779   19.8267 C   0  0  2  0  0  0
  -28.6521  -13.4237   20.9643 C   0  0  0  0  0  0
  -25.2430  -13.8269   20.5742 C   0  0  0  0  0  0
  -24.1775  -13.0462   20.9234 C   0  0  0  0  0  0
  -24.6425  -11.6955   20.8750 C   0  0  0  0  0  0
  -23.9116  -10.4311   21.0403 C   0  0  0  0  0  0
  -24.3649   -9.4215   21.9182 C   0  0  0  0  0  0
  -23.6322   -8.2250   22.0748 C   0  0  0  0  0  0
  -22.4304   -8.0283   21.3542 C   0  0  0  0  0  0
  -21.9953   -9.0261   20.4641 C   0  0  0  0  0  0
  -22.7283  -10.2148   20.3055 C   0  0  0  0  0  0
  -21.6871   -6.0735   22.5276 C   0  0  0  0  0  0
  -21.4022   -6.5638   23.8207 C   0  0  0  0  0  0
  -21.3668   -5.6796   24.9172 C   0  0  0  0  0  0
  -21.6049   -4.3059   24.7226 C   0  0  0  0  0  0
  -21.8822   -3.8144   23.4348 C   0  0  0  0  0  0
  -21.9202   -4.6960   22.3403 C   0  0  0  0  0  0
  -22.7791  -13.5198   21.1892 C   0  0  0  0  0  0
  -22.1669   -4.2142   21.0985 F   0  0  0  0  0  0
  -21.5636   -3.4545   25.7740 F   0  0  0  0  0  0
  -29.9105  -13.8912   20.3618 N   0  0  0  0  0  0
  -26.2859  -12.9552   20.3205 N   0  0  0  0  0  0
  -25.9368  -11.6653   20.5705 N   0  0  0  0  0  0
  -22.0457  -12.8164   22.0434 N   0  0  0  0  0  0
  -25.4130  -15.2002   20.4218 N   0  0  0  0  0  0
  -31.6871  -15.1447   20.1199 O   0  0  0  0  0  0
  -21.6662   -6.8882   21.4239 O   0  0  0  0  0  0
  -22.3466  -14.5505   20.6751 O   0  0  0  0  0  0
  -24.6579  -31.8272   23.1732 C   0  0  0  0  0  0
  -25.9281  -32.4607   23.8181 C   0  0  1  0  0  0
  -27.2118  -26.9702   20.1780 C   0  0  0  0  0  0
  -25.5969  -33.8423   24.2090 N   0  0  0  0  0  0
  -23.4698  -30.4395   21.5238 C   0  0  2  0  0  0
  -24.9218  -28.8342   20.1137 C   0  0  0  0  0  0
  -22.7636  -29.4454   22.4811 C   0  0  0  0  0  0
  -18.0314  -28.1398   22.8469 C   0  0  0  0  0  0
  -24.1507  -36.7215   23.2642 C   0  0  0  0  0  0
  -26.0365  -30.6479   21.3963 C   0  0  0  0  0  0
  -26.1047  -29.2415   20.7419 C   0  0  0  0  0  0
  -27.2477  -28.3299   20.7488 C   0  0  0  0  0  0
  -26.0003  -26.7036   19.5035 C   0  0  0  0  0  0
  -24.8915  -27.5850   19.4753 C   0  0  0  0  0  0
  -23.7048  -29.7541   20.1500 C   0  0  0  0  0  0
  -25.4146  -36.2976   24.0295 C   0  0  1  0  0  0
  -20.5933  -28.3732   23.1209 C   0  0  2  0  0  0
  -20.6793  -26.9423   22.5404 C   0  0  0  0  0  0
  -19.5773  -26.6376   21.5208 C   0  0  0  0  0  0
  -18.1949  -26.7935   22.1615 C   0  0  0  0  0  0
  -19.1573  -28.8889   23.2825 C   0  0  0  0  0  0
  -18.9478  -30.1475   23.8861 C   0  0  0  0  0  0
  -17.6471  -30.6589   24.0550 C   0  0  0  0  0  0
  -25.9102  -34.9359   23.5011 C   0  0  0  0  0  0
  -16.5363  -29.9067   23.6345 C   0  0  0  0  0  0
  -16.7293  -28.6488   23.0365 C   0  0  0  0  0  0
  -26.4549  -31.6526   25.0689 C   0  0  0  0  0  0
  -25.3685  -31.3759   26.1349 C   0  0  0  0  0  0
  -27.0435  -30.2904   24.6383 C   0  0  0  0  0  0
  -27.6057  -32.4319   25.7485 C   0  0  0  0  0  0
  -27.5582  -37.1764   24.8459 C   0  0  0  0  0  0
  -21.4311  -29.3028   22.3564 N   0  0  0  0  0  0
  -26.4296  -37.3704   23.9394 N   0  0  0  0  0  0
  -24.7427  -30.9971   22.0848 N   0  0  0  0  0  0
  -23.4210  -28.8024   23.3032 O   0  0  0  0  0  0
  -28.2258  -25.8930   20.2412 O   0  0  0  0  0  0
  -26.5703  -34.8884   22.4601 O   0  0  0  0  0  0
  -23.5654  -32.1222   23.6857 O   0  0  0  0  0  0
  -31.2383  -20.6762   20.1466 C   0  0  0  0  0  0
  -30.0590  -19.8951   20.2850 C   0  0  0  0  0  0
  -32.5178  -20.1266   20.0477 C   0  0  0  0  0  0
  -30.3800  -18.3398   20.3326 C   0  0  0  0  0  0
  -33.7369  -21.0143   19.8804 C   0  0  0  0  0  0
  -28.8039  -21.0702   20.3243 C   0  0  0  0  0  0
  -29.6833  -16.7709   20.4918 C   0  0  0  0  0  0
  -29.0133  -22.8588   20.2649 C   0  0  0  0  0  0
  -27.9508  -24.2838   20.1820 C   0  0  0  0  0  0
  -32.7279  -18.8096   20.0942 N   0  0  0  0  0  0
  -31.6931  -17.9930   20.2390 N   0  0  0  0  0  0
  -31.4697  -12.9034   19.2247 H   0  0  0  0  0  0
  -30.4573  -11.8225   20.1281 H   0  0  0  0  0  0
  -29.9027  -11.7635   17.6596 H   0  0  0  0  0  0
  -29.5962  -13.4833   17.6847 H   0  0  0  0  0  0
  -28.0069  -11.2878   19.0399 H   0  0  0  0  0  0
  -27.4182  -12.4047   17.8358 H   0  0  0  0  0  0
  -27.5466  -14.2562   19.3499 H   0  0  0  0  0  0
  -28.7872  -12.4860   21.5044 H   0  0  0  0  0  0
  -28.3053  -14.1541   21.6974 H   0  0  0  0  0  0
  -25.2792   -9.5695   22.4761 H   0  0  0  0  0  0
  -24.0033   -7.4647   22.7475 H   0  0  0  0  0  0
  -21.0884   -8.8787   19.8945 H   0  0  0  0  0  0
  -22.3733  -10.9689   19.6166 H   0  0  0  0  0  0
  -21.2006   -7.6144   23.9704 H   0  0  0  0  0  0
  -21.1495   -6.0527   25.9075 H   0  0  0  0  0  0
  -22.0594   -2.7603   23.2852 H   0  0  0  0  0  0
  -22.4114  -11.9824   22.4801 H   0  0  0  0  0  0
  -21.1061  -13.1152   22.2642 H   0  0  0  0  0  0
  -24.6558  -15.8627   20.5432 H   0  0  0  0  0  0
  -26.2687  -15.6336   20.1031 H   0  0  0  0  0  0
  -26.7342  -32.5167   23.0888 H   0  0  0  0  0  0
  -25.0065  -33.9505   25.0205 H   0  0  0  0  0  0
  -22.7807  -31.2690   21.3541 H   0  0  0  0  0  0
  -23.3779  -35.9534   23.3274 H   0  0  0  0  0  0
  -24.3585  -36.8893   22.2062 H   0  0  0  0  0  0
  -23.7263  -37.6395   23.6715 H   0  0  0  0  0  0
  -26.2092  -31.3905   20.6165 H   0  0  0  0  0  0
  -26.8995  -30.7059   22.0472 H   0  0  0  0  0  0
  -28.1463  -28.6362   21.2659 H   0  0  0  0  0  0
  -25.8755  -25.7503   19.0106 H   0  0  0  0  0  0
  -23.9912  -27.2686   18.9666 H   0  0  0  0  0  0
  -23.8479  -30.5182   19.3859 H   0  0  0  0  0  0
  -22.8181  -29.1968   19.8420 H   0  0  0  0  0  0
  -25.1350  -36.1774   25.0789 H   0  0  0  0  0  0
  -21.0012  -28.3329   24.1336 H   0  0  0  0  0  0
  -20.5672  -26.2339   23.3631 H   0  0  0  0  0  0
  -21.6657  -26.7408   22.1211 H   0  0  0  0  0  0
  -19.6929  -25.6275   21.1261 H   0  0  0  0  0  0
  -19.6719  -27.3165   20.6724 H   0  0  0  0  0  0
  -17.4219  -26.6672   21.4021 H   0  0  0  0  0  0
  -18.0350  -26.0087   22.9026 H   0  0  0  0  0  0
  -19.7946  -30.7300   24.2227 H   0  0  0  0  0  0
  -17.5013  -31.6275   24.5138 H   0  0  0  0  0  0
  -15.5355  -30.2945   23.7695 H   0  0  0  0  0  0
  -15.8696  -28.0780   22.7115 H   0  0  0  0  0  0
  -24.5875  -30.7113   25.7631 H   0  0  0  0  0  0
  -24.8866  -32.2954   26.4681 H   0  0  0  0  0  0
  -25.7919  -30.8967   27.0185 H   0  0  0  0  0  0
  -26.3084  -29.6597   24.1378 H   0  0  0  0  0  0
  -27.3966  -29.7256   25.5015 H   0  0  0  0  0  0
  -27.9027  -30.4096   23.9787 H   0  0  0  0  0  0
  -27.2642  -33.3648   26.1985 H   0  0  0  0  0  0
  -28.3913  -32.6835   25.0346 H   0  0  0  0  0  0
  -28.0682  -31.8499   26.5466 H   0  0  0  0  0  0
  -28.2569  -38.0089   24.7514 H   0  0  0  0  0  0
  -28.1116  -36.2612   24.6288 H   0  0  0  0  0  0
  -27.2292  -37.1408   25.8860 H   0  0  0  0  0  0
  -20.9543  -29.8717   21.6707 H   0  0  0  0  0  0
  -26.0150  -38.2765   24.1398 H   0  0  0  0  0  0
  -31.2117  -21.7500   20.1066 H   0  0  0  0  0  0
  -33.6767  -21.5657   18.9424 H   0  0  0  0  0  0
  -34.6628  -20.4389   19.8715 H   0  0  0  0  0  0
  -33.7981  -21.7382   20.6933 H   0  0  0  0  0  0
  -28.2250  -20.8494   21.2223 H   0  0  0  0  0  0
  -28.1388  -20.8019   19.5025 H   0  0  0  0  0  0
  -28.8591  -16.7404   19.7795 H   0  0  0  0  0  0
  -29.2001  -16.7665   21.4688 H   0  0  0  0  0  0
  -29.6447  -23.0163   19.3919 H   0  0  0  0  0  0
  -29.6537  -23.0787   21.1192 H   0  0  0  0  0  0
  -27.1989  -24.1221   20.9554 H   0  0  0  0  0  0
  -27.4037  -24.1409   19.2505 H   0  0  0  0  0  0
  1 25  1  0  0  0
  1 30  2  0  0  0
  1 77  1  0  0  0
  2  3  1  0  0  0
  2 25  1  0  0  0
  2 82  1  0  0  0
  2 83  1  0  0  0
  3  4  1  0  0  0
  3 84  1  0  0  0
  3 85  1  0  0  0
  4  5  1  0  0  0
  4 86  1  0  0  0
  4 87  1  0  0  0
  5  6  1  0  0  0
  5 26  1  0  0  0
  5 88  1  0  0  0
  6 25  1  0  0  0
  6 89  1  0  0  0
  6 90  1  0  0  0
  7  8  2  0  0  0
  7 26  1  0  0  0
  7 29  1  0  0  0
  8  9  1  0  0  0
  8 22  1  0  0  0
  9 10  1  0  0  0
  9 27  2  0  0  0
 10 11  2  0  0  0
 10 15  1  0  0  0
 11 12  1  0  0  0
 11 91  1  0  0  0
 12 13  2  0  0  0
 12 92  1  0  0  0
 13 14  1  0  0  0
 13 31  1  0  0  0
 14 15  2  0  0  0
 14 93  1  0  0  0
 15 94  1  0  0  0
 16 17  2  0  0  0
 16 21  1  0  0  0
 16 31  1  0  0  0
 17 18  1  0  0  0
 17 95  1  0  0  0
 18 19  2  0  0  0
 18 96  1  0  0  0
 19 20  1  0  0  0
 19 24  1  0  0  0
 20 21  2  0  0  0
 20 97  1  0  0  0
 21 23  1  0  0  0
 22 28  1  0  0  0
 22 32  2  0  0  0
 26 27  1  0  0  0
 28 98  1  0  0  0
 28 99  1  0  0  0
 29100  1  0  0  0
 29101  1  0  0  0
 33 34  1  0  0  0
 33 66  1  0  0  0
 33 70  2  0  0  0
 34 36  1  0  0  0
 34 59  1  0  0  0
 34102  1  0  0  0
 35 44  2  0  0  0
 35 45  1  0  0  0
 35 68  1  0  0  0
 36 56  1  0  0  0
 36103  1  0  0  0
 37 39  1  0  0  0
 37 47  1  0  0  0
 37 66  1  0  0  0
 37104  1  0  0  0
 38 43  2  0  0  0
 38 46  1  0  0  0
 38 47  1  0  0  0
 39 64  1  0  0  0
 39 67  2  0  0  0
 40 52  1  0  0  0
 40 53  2  0  0  0
 40 58  1  0  0  0
 41105  1  0  0  0
 41106  1  0  0  0
 41107  1  0  0  0
 41 48  1  0  0  0
 42 43  1  0  0  0
 42 66  1  0  0  0
 42108  1  0  0  0
 42109  1  0  0  0
 43 44  1  0  0  0
 44110  1  0  0  0
 45 46  2  0  0  0
 45111  1  0  0  0
 46112  1  0  0  0
 47113  1  0  0  0
 47114  1  0  0  0
 48 56  1  0  0  0
 48 65  1  0  0  0
 48115  1  0  0  0
 49 50  1  0  0  0
 49 53  1  0  0  0
 49 64  1  0  0  0
 49116  1  0  0  0
 50 51  1  0  0  0
 50117  1  0  0  0
 50118  1  0  0  0
 51 52  1  0  0  0
 51119  1  0  0  0
 51120  1  0  0  0
 52121  1  0  0  0
 52122  1  0  0  0
 53 54  1  0  0  0
 54 55  2  0  0  0
 54123  1  0  0  0
 55 57  1  0  0  0
 55124  1  0  0  0
 56 69  2  0  0  0
 57 58  2  0  0  0
 57125  1  0  0  0
 58126  1  0  0  0
 59 60  1  0  0  0
 59 61  1  0  0  0
 59 62  1  0  0  0
 60127  1  0  0  0
 60128  1  0  0  0
 60129  1  0  0  0
 61130  1  0  0  0
 61131  1  0  0  0
 61132  1  0  0  0
 62133  1  0  0  0
 62134  1  0  0  0
 62135  1  0  0  0
 63 65  1  0  0  0
 63136  1  0  0  0
 63137  1  0  0  0
 63138  1  0  0  0
 64139  1  0  0  0
 65140  1  0  0  0
 68 79  1  0  0  0
 71 72  2  0  0  0
 71 73  1  0  0  0
 71141  1  0  0  0
 72 74  1  0  0  0
 72 76  1  0  0  0
 73 75  1  0  0  0
 73 80  2  0  0  0
 74 77  1  0  0  0
 74 81  2  0  0  0
 75142  1  0  0  0
 75143  1  0  0  0
 75144  1  0  0  0
 76 78  1  0  0  0
 76145  1  0  0  0
 76146  1  0  0  0
 77147  1  0  0  0
 77148  1  0  0  0
 78 79  1  0  0  0
 78149  1  0  0  0
 78150  1  0  0  0
 79151  1  0  0  0
 79152  1  0  0  0
 80 81  1  0  0  0
M  ISO  4   1 100  68 101  77 100  79 101
M  END
> <chiral flag>
0

> <version>
0

> <s_m_source_file>
/data/baiqing/PycharmProjects/Reinvent-master-3.2/result/LINK_invent/BTK/process_docking_weight1_custom_sum_contain_oxygen_bond_distance_aromatic_linkinvent_7_9_3/rearranged_h_0047.sdf

> <i_m_source_file_index>
37

> <r_mmod_Potential_Energy-OPLS-2005>
1267.93139648438

> <r_mmod_Stretch_Energy-OPLS-2005>
589.616333007812

> <r_mmod_Bend_Energy-OPLS-2005>
498.681457519531

> <r_mmod_Torsional_Energy-OPLS-2005>
181.673797607422

> <r_mmod_Improper_Torsional_Energy-OPLS-2005>
2.93107557296753

> <r_mmod_Van_der_Waal_Energy-OPLS-2005>
140.890991210938

> <r_mmod_Electrostatic_Energy-OPLS-2005>
-284.285247802734

> <r_mmod_Solvation_Energy-OPLS-2005>
-243.480255126953

> <b_mmod_Minimization_Converged-OPLS-2005>
0

> <r_mmod_RMS_Derivative-OPLS-2005>
1.94225335121155

$$$$
37
                    3D
 Structure written by MMmdl.
159167  0  0  1  0            999 V2000
  -30.5376  -14.9557   20.4164 C   0  0  0  0  0  0
  -30.4375  -12.5904   19.5106 C   0  0  0  0  0  0
  -29.5233  -12.5329   18.2641 C   0  0  0  0  0  0
  -28.0553  -12.3194   18.6780 C   0  0  0  0  0  0
  -27.6295  -13.2506   19.8434 C   0  0  2  0  0  0
  -28.6690  -13.2810   20.9846 C   0  0  0  0  0  0
  -25.2448  -13.8218   20.5714 C   0  0  0  0  0  0
  -24.1766  -13.0434   20.9223 C   0  0  0  0  0  0
  -24.6390  -11.6925   20.8754 C   0  0  0  0  0  0
  -23.9079  -10.4292   21.0409 C   0  0  0  0  0  0
  -24.3628   -9.4206   21.9185 C   0  0  0  0  0  0
  -23.6302   -8.2241   22.0754 C   0  0  0  0  0  0
  -22.4284   -8.0279   21.3544 C   0  0  0  0  0  0
  -21.9919   -9.0251   20.4647 C   0  0  0  0  0  0
  -22.7251  -10.2130   20.3059 C   0  0  0  0  0  0
  -21.6855   -6.0735   22.5279 C   0  0  0  0  0  0
  -21.4015   -6.5641   23.8209 C   0  0  0  0  0  0
  -21.3657   -5.6795   24.9172 C   0  0  0  0  0  0
  -21.6044   -4.3058   24.7226 C   0  0  0  0  0  0
  -21.8820   -3.8150   23.4347 C   0  0  0  0  0  0
  -21.9191   -4.6964   22.3401 C   0  0  0  0  0  0
  -22.7787  -13.5198   21.1879 C   0  0  0  0  0  0
  -22.1661   -4.2148   21.0979 F   0  0  0  0  0  0
  -21.5628   -3.4541   25.7739 F   0  0  0  0  0  0
  -29.9466  -13.6922   20.3899 N   0  0  0  0  0  0
  -26.2880  -12.9460   20.3265 N   0  0  0  0  0  0
  -25.9325  -11.6586   20.5754 N   0  0  0  0  0  0
  -22.0451  -12.8177   22.0441 N   0  0  0  0  0  0
  -25.4103  -15.1946   20.4127 N   0  0  0  0  0  0
  -31.7339  -15.0191   20.1132 O   0  0  0  0  0  0
  -21.6647   -6.8879   21.4242 O   0  0  0  0  0  0
  -22.3459  -14.5495   20.6719 O   0  0  0  0  0  0
  -24.6444  -31.8419   23.1865 C   0  0  0  0  0  0
  -25.9212  -32.4679   23.8260 C   0  0  1  0  0  0
  -27.2157  -27.1188   20.1541 C   0  0  0  0  0  0
  -25.5954  -33.8488   24.2173 N   0  0  0  0  0  0
  -23.4485  -30.4602   21.5322 C   0  0  2  0  0  0
  -24.8984  -28.8842   20.1060 C   0  0  0  0  0  0
  -22.7572  -29.4532   22.4852 C   0  0  0  0  0  0
  -18.0306  -28.1393   22.8476 C   0  0  0  0  0  0
  -24.1490  -36.7248   23.2644 C   0  0  0  0  0  0
  -26.0048  -30.7091   21.3887 C   0  0  0  0  0  0
  -26.0739  -29.3191   20.7300 C   0  0  0  0  0  0
  -27.2305  -28.4514   20.7387 C   0  0  0  0  0  0
  -26.0195  -26.7943   19.4765 C   0  0  0  0  0  0
  -24.8855  -27.6368   19.4633 C   0  0  0  0  0  0
  -23.6748  -29.7874   20.1514 C   0  0  0  0  0  0
  -25.4123  -36.3022   24.0314 C   0  0  1  0  0  0
  -20.5919  -28.3719   23.1233 C   0  0  2  0  0  0
  -20.6785  -26.9417   22.5408 C   0  0  0  0  0  0
  -19.5761  -26.6376   21.5214 C   0  0  0  0  0  0
  -18.1941  -26.7931   22.1623 C   0  0  0  0  0  0
  -19.1563  -28.8876   23.2845 C   0  0  0  0  0  0
  -18.9479  -30.1472   23.8868 C   0  0  0  0  0  0
  -17.6475  -30.6590   24.0559 C   0  0  0  0  0  0
  -25.9076  -34.9398   23.5053 C   0  0  0  0  0  0
  -16.5366  -29.9081   23.6338 C   0  0  0  0  0  0
  -16.7291  -28.6502   23.0356 C   0  0  0  0  0  0
  -26.4528  -31.6562   25.0716 C   0  0  0  0  0  0
  -25.3706  -31.3761   26.1409 C   0  0  0  0  0  0
  -27.0404  -30.2955   24.6322 C   0  0  0  0  0  0
  -27.6051  -32.4338   25.7504 C   0  0  0  0  0  0
  -27.5572  -37.1779   24.8465 C   0  0  0  0  0  0
  -21.4264  -29.3040   22.3604 N   0  0  0  0  0  0
  -26.4282  -37.3739   23.9407 N   0  0  0  0  0  0
  -24.7189  -31.0258   22.0906 N   0  0  0  0  0  0
  -23.4208  -28.8087   23.3013 O   0  0  0  0  0  0
  -28.2670  -26.1320   20.2628 O   0  0  0  0  0  0
  -26.5668  -34.8903   22.4637 O   0  0  0  0  0  0
  -23.5562  -32.1307   23.7078 O   0  0  0  0  0  0
  -28.8909  -23.4541   20.8449 C   0  0  0  0  0  0
  -29.3038  -22.0270   20.9033 C   0  0  0  0  0  0
  -29.9989  -23.1538   22.7057 C   0  0  0  0  0  0
  -30.6293  -23.4355   24.0332 C   0  0  0  0  0  0
  -28.3451  -20.7464   18.8602 C   0  0  0  0  0  0
  -30.9384  -20.8847   22.5522 C   0  0  0  0  0  0
  -28.1021  -24.5955   19.9731 C   0  0  0  0  0  0
  -29.1628  -19.0270   20.6743 C   0  0  0  0  0  0
  -30.0585  -17.6651   20.2000 C   0  0  0  0  0  0
  -29.3029  -20.6166   20.0497 C   0  0  2  0  0  0
  -29.3102  -24.0474   22.0324 N   0  0  0  0  0  0
  -30.1067  -21.9816   22.0666 N   0  0  0  0  0  0
  -29.7644  -16.1456   20.5644 N   0  0  0  0  0  0
  -31.4735  -12.7416   19.2032 H   0  0  0  0  0  0
  -30.4256  -11.6396   20.0454 H   0  0  0  0  0  0
  -29.8443  -11.7346   17.5935 H   0  0  0  0  0  0
  -29.6132  -13.4632   17.7007 H   0  0  0  0  0  0
  -27.9492  -11.2779   18.9830 H   0  0  0  0  0  0
  -27.3943  -12.4538   17.8209 H   0  0  0  0  0  0
  -27.5924  -14.2531   19.4166 H   0  0  0  0  0  0
  -28.7547  -12.3067   21.4671 H   0  0  0  0  0  0
  -28.3675  -13.9854   21.7616 H   0  0  0  0  0  0
  -25.2766   -9.5682   22.4766 H   0  0  0  0  0  0
  -24.0009   -7.4631   22.7472 H   0  0  0  0  0  0
  -21.0852   -8.8766   19.8953 H   0  0  0  0  0  0
  -22.3703  -10.9667   19.6172 H   0  0  0  0  0  0
  -21.2012   -7.6151   23.9710 H   0  0  0  0  0  0
  -21.1479   -6.0531   25.9073 H   0  0  0  0  0  0
  -22.0604   -2.7614   23.2850 H   0  0  0  0  0  0
  -22.4082  -11.9846   22.4832 H   0  0  0  0  0  0
  -21.1063  -13.1186   22.2650 H   0  0  0  0  0  0
  -24.6378  -15.8436   20.5181 H   0  0  0  0  0  0
  -26.2479  -15.6336   20.0529 H   0  0  0  0  0  0
  -26.7278  -32.5275   23.0986 H   0  0  0  0  0  0
  -25.0069  -33.9598   25.0300 H   0  0  0  0  0  0
  -22.7519  -31.2866   21.3767 H   0  0  0  0  0  0
  -23.3757  -35.9573   23.3291 H   0  0  0  0  0  0
  -24.3572  -36.8900   22.2062 H   0  0  0  0  0  0
  -23.7242  -37.6437   23.6697 H   0  0  0  0  0  0
  -26.1638  -31.4620   20.6156 H   0  0  0  0  0  0
  -26.8741  -30.7583   22.0329 H   0  0  0  0  0  0
  -28.1223  -28.7754   21.2565 H   0  0  0  0  0  0
  -25.9237  -25.8466   18.9689 H   0  0  0  0  0  0
  -23.9898  -27.3017   18.9581 H   0  0  0  0  0  0
  -23.8100  -30.5613   19.3951 H   0  0  0  0  0  0
  -22.7892  -29.2292   19.8420 H   0  0  0  0  0  0
  -25.1311  -36.1842   25.0805 H   0  0  0  0  0  0
  -21.0010  -28.3307   24.1356 H   0  0  0  0  0  0
  -20.5673  -26.2328   23.3629 H   0  0  0  0  0  0
  -21.6650  -26.7415   22.1209 H   0  0  0  0  0  0
  -19.6918  -25.6282   21.1257 H   0  0  0  0  0  0
  -19.6699  -27.3176   20.6736 H   0  0  0  0  0  0
  -17.4210  -26.6682   21.4026 H   0  0  0  0  0  0
  -18.0336  -26.0078   22.9024 H   0  0  0  0  0  0
  -19.7954  -30.7299   24.2217 H   0  0  0  0  0  0
  -17.5028  -31.6266   24.5165 H   0  0  0  0  0  0
  -15.5364  -30.2972   23.7681 H   0  0  0  0  0  0
  -15.8692  -28.0815   22.7080 H   0  0  0  0  0  0
  -24.5894  -30.7096   25.7734 H   0  0  0  0  0  0
  -24.8886  -32.2947   26.4767 H   0  0  0  0  0  0
  -25.7985  -30.8983   27.0232 H   0  0  0  0  0  0
  -26.3035  -29.6666   24.1315 H   0  0  0  0  0  0
  -27.3993  -29.7268   25.4911 H   0  0  0  0  0  0
  -27.8949  -30.4187   23.9663 H   0  0  0  0  0  0
  -27.2638  -33.3663   26.2011 H   0  0  0  0  0  0
  -28.3898  -32.6858   25.0358 H   0  0  0  0  0  0
  -28.0679  -31.8511   26.5481 H   0  0  0  0  0  0
  -28.2577  -38.0086   24.7509 H   0  0  0  0  0  0
  -28.1078  -36.2614   24.6290 H   0  0  0  0  0  0
  -27.2289  -37.1421   25.8868 H   0  0  0  0  0  0
  -20.9478  -29.8748   21.6778 H   0  0  0  0  0  0
  -26.0144  -38.2803   24.1419 H   0  0  0  0  0  0
  -30.2352  -24.3599   24.4561 H   0  0  0  0  0  0
  -31.7089  -23.5391   23.9260 H   0  0  0  0  0  0
  -30.4190  -22.6266   24.7331 H   0  0  0  0  0  0
  -28.5852  -21.6200   18.2533 H   0  0  0  0  0  0
  -27.3129  -20.8452   19.1965 H   0  0  0  0  0  0
  -28.4015  -19.8725   18.2104 H   0  0  0  0  0  0
  -31.3025  -20.2672   21.7339 H   0  0  0  0  0  0
  -30.3792  -20.2783   23.2639 H   0  0  0  0  0  0
  -31.8235  -21.2720   23.0563 H   0  0  0  0  0  0
  -27.0429  -24.3562   20.0534 H   0  0  0  0  0  0
  -28.3408  -24.4540   18.9188 H   0  0  0  0  0  0
  -29.2552  -19.0778   21.7554 H   0  0  0  0  0  0
  -28.1138  -18.7559   20.5535 H   0  0  0  0  0  0
  -31.0925  -17.8501   20.4935 H   0  0  0  0  0  0
  -30.0821  -17.6844   19.1101 H   0  0  0  0  0  0
  -30.2941  -20.5978   19.5943 H   0  0  0  0  0  0
  -28.8056  -15.9618   20.8231 H   0  0  0  0  0  0
  1 25  1  0  0  0
  1 30  2  0  0  0
  1 83  1  0  0  0
  2  3  1  0  0  0
  2 25  1  0  0  0
  2 84  1  0  0  0
  2 85  1  0  0  0
  3  4  1  0  0  0
  3 86  1  0  0  0
  3 87  1  0  0  0
  4  5  1  0  0  0
  4 88  1  0  0  0
  4 89  1  0  0  0
  5  6  1  0  0  0
  5 26  1  0  0  0
  5 90  1  0  0  0
  6 25  1  0  0  0
  6 91  1  0  0  0
  6 92  1  0  0  0
  7  8  2  0  0  0
  7 26  1  0  0  0
  7 29  1  0  0  0
  8  9  1  0  0  0
  8 22  1  0  0  0
  9 10  1  0  0  0
  9 27  2  0  0  0
 10 11  2  0  0  0
 10 15  1  0  0  0
 11 12  1  0  0  0
 11 93  1  0  0  0
 12 13  2  0  0  0
 12 94  1  0  0  0
 13 14  1  0  0  0
 13 31  1  0  0  0
 14 15  2  0  0  0
 14 95  1  0  0  0
 15 96  1  0  0  0
 16 17  2  0  0  0
 16 21  1  0  0  0
 16 31  1  0  0  0
 17 18  1  0  0  0
 17 97  1  0  0  0
 18 19  2  0  0  0
 18 98  1  0  0  0
 19 20  1  0  0  0
 19 24  1  0  0  0
 20 21  2  0  0  0
 20 99  1  0  0  0
 21 23  1  0  0  0
 22 28  1  0  0  0
 22 32  2  0  0  0
 26 27  1  0  0  0
 28100  1  0  0  0
 28101  1  0  0  0
 29102  1  0  0  0
 29103  1  0  0  0
 33 34  1  0  0  0
 33 66  1  0  0  0
 33 70  2  0  0  0
 34 36  1  0  0  0
 34 59  1  0  0  0
 34104  1  0  0  0
 35 44  2  0  0  0
 35 45  1  0  0  0
 35 68  1  0  0  0
 36 56  1  0  0  0
 36105  1  0  0  0
 37 39  1  0  0  0
 37 47  1  0  0  0
 37 66  1  0  0  0
 37106  1  0  0  0
 38 43  2  0  0  0
 38 46  1  0  0  0
 38 47  1  0  0  0
 39 64  1  0  0  0
 39 67  2  0  0  0
 40 52  1  0  0  0
 40 53  2  0  0  0
 40 58  1  0  0  0
 41107  1  0  0  0
 41108  1  0  0  0
 41109  1  0  0  0
 41 48  1  0  0  0
 42 43  1  0  0  0
 42 66  1  0  0  0
 42110  1  0  0  0
 42111  1  0  0  0
 43 44  1  0  0  0
 44112  1  0  0  0
 45 46  2  0  0  0
 45113  1  0  0  0
 46114  1  0  0  0
 47115  1  0  0  0
 47116  1  0  0  0
 48 56  1  0  0  0
 48 65  1  0  0  0
 48117  1  0  0  0
 49 50  1  0  0  0
 49 53  1  0  0  0
 49 64  1  0  0  0
 49118  1  0  0  0
 50 51  1  0  0  0
 50119  1  0  0  0
 50120  1  0  0  0
 51 52  1  0  0  0
 51121  1  0  0  0
 51122  1  0  0  0
 52123  1  0  0  0
 52124  1  0  0  0
 53 54  1  0  0  0
 54 55  2  0  0  0
 54125  1  0  0  0
 55 57  1  0  0  0
 55126  1  0  0  0
 56 69  2  0  0  0
 57 58  2  0  0  0
 57127  1  0  0  0
 58128  1  0  0  0
 59 60  1  0  0  0
 59 61  1  0  0  0
 59 62  1  0  0  0
 60129  1  0  0  0
 60130  1  0  0  0
 60131  1  0  0  0
 61132  1  0  0  0
 61133  1  0  0  0
 61134  1  0  0  0
 62135  1  0  0  0
 62136  1  0  0  0
 62137  1  0  0  0
 63 65  1  0  0  0
 63138  1  0  0  0
 63139  1  0  0  0
 63140  1  0  0  0
 64141  1  0  0  0
 65142  1  0  0  0
 68 77  1  0  0  0
 71 72  2  0  0  0
 71 77  1  0  0  0
 71 81  1  0  0  0
 72 80  1  0  0  0
 72 82  1  0  0  0
 73 74  1  0  0  0
 73 81  2  0  0  0
 73 82  1  0  0  0
 74143  1  0  0  0
 74144  1  0  0  0
 74145  1  0  0  0
 75146  1  0  0  0
 75147  1  0  0  0
 75148  1  0  0  0
 75 80  1  0  0  0
 76 82  1  0  0  0
 76149  1  0  0  0
 76150  1  0  0  0
 76151  1  0  0  0
 77152  1  0  0  0
 77153  1  0  0  0
 78 79  1  0  0  0
 78 80  1  0  0  0
 78154  1  0  0  0
 78155  1  0  0  0
 79 83  1  0  0  0
 79156  1  0  0  0
 79157  1  0  0  0
 80158  1  0  0  0
 83159  1  0  0  0
M  ISO  4   1 100  68 101  77 101  83 100
M  END
> <chiral flag>
0

> <version>
0

> <s_m_source_file>
/data/baiqing/PycharmProjects/Reinvent-master-3.2/result/LINK_invent/BTK/process_docking_weight1_custom_sum_contain_oxygen_bond_distance_aromatic_linkinvent_7_9_3/rearranged_h_0047.sdf

> <i_m_source_file_index>
38

> <r_mmod_Potential_Energy-OPLS-2005>
543.732238769531

> <r_mmod_Stretch_Energy-OPLS-2005>
304.532073974609

> <r_mmod_Bend_Energy-OPLS-2005>
290.627227783203

> <r_mmod_Torsional_Energy-OPLS-2005>
223.591522216797

> <r_mmod_Improper_Torsional_Energy-OPLS-2005>
5.50517416000366

> <r_mmod_Van_der_Waal_Energy-OPLS-2005>
116.569953918457

> <r_mmod_Electrostatic_Energy-OPLS-2005>
-363.295440673828

> <r_mmod_Solvation_Energy-OPLS-2005>
-236.78141784668

> <b_mmod_Minimization_Converged-OPLS-2005>
0

> <r_mmod_RMS_Derivative-OPLS-2005>
0.658486545085907

$$$$
38
                    3D
 Structure written by MMmdl.
159167  0  0  1  0            999 V2000
  -30.6349  -14.5282   20.5770 C   0  0  0  0  0  0
  -30.4221  -12.3440   19.4226 C   0  0  0  0  0  0
  -29.4980  -12.5307   18.2013 C   0  0  0  0  0  0
  -28.0149  -12.3827   18.6034 C   0  0  0  0  0  0
  -27.6551  -13.1991   19.8746 C   0  0  2  0  0  0
  -28.6886  -12.9310   20.9807 C   0  0  0  0  0  0
  -25.2571  -13.8163   20.5675 C   0  0  0  0  0  0
  -24.1820  -13.0433   20.9133 C   0  0  0  0  0  0
  -24.6353  -11.6877   20.8689 C   0  0  0  0  0  0
  -23.9023  -10.4288   21.0397 C   0  0  0  0  0  0
  -24.3606   -9.4218   21.9175 C   0  0  0  0  0  0
  -23.6293   -8.2252   22.0757 C   0  0  0  0  0  0
  -22.4271   -8.0276   21.3545 C   0  0  0  0  0  0
  -21.9898   -9.0241   20.4646 C   0  0  0  0  0  0
  -22.7203  -10.2123   20.3035 C   0  0  0  0  0  0
  -21.6858   -6.0718   22.5262 C   0  0  0  0  0  0
  -21.4035   -6.5638   23.8209 C   0  0  0  0  0  0
  -21.3663   -5.6780   24.9170 C   0  0  0  0  0  0
  -21.6035   -4.3044   24.7215 C   0  0  0  0  0  0
  -21.8820   -3.8129   23.4344 C   0  0  0  0  0  0
  -21.9210   -4.6944   22.3398 C   0  0  0  0  0  0
  -22.7884  -13.5241   21.1864 C   0  0  0  0  0  0
  -22.1662   -4.2138   21.0968 F   0  0  0  0  0  0
  -21.5618   -3.4528   25.7729 F   0  0  0  0  0  0
  -30.0044  -13.3200   20.4474 N   0  0  0  0  0  0
  -26.2968  -12.9297   20.3329 N   0  0  0  0  0  0
  -25.9268  -11.6453   20.5669 N   0  0  0  0  0  0
  -22.0527  -12.8233   22.0413 N   0  0  0  0  0  0
  -25.4326  -15.1912   20.4216 N   0  0  0  0  0  0
  -31.7656  -14.7029   20.0989 O   0  0  0  0  0  0
  -21.6632   -6.8861   21.4229 O   0  0  0  0  0  0
  -22.3589  -14.5562   20.6732 O   0  0  0  0  0  0
  -24.6203  -31.8638   23.2064 C   0  0  0  0  0  0
  -25.9071  -32.4803   23.8367 C   0  0  1  0  0  0
  -27.2210  -27.3776   20.1209 C   0  0  0  0  0  0
  -25.5899  -33.8611   24.2305 N   0  0  0  0  0  0
  -23.4113  -30.4864   21.5516 C   0  0  2  0  0  0
  -24.8537  -28.9481   20.1189 C   0  0  0  0  0  0
  -22.7453  -29.4640   22.5014 C   0  0  0  0  0  0
  -18.0282  -28.1383   22.8501 C   0  0  0  0  0  0
  -24.1476  -36.7301   23.2642 C   0  0  0  0  0  0
  -25.9453  -30.8173   21.3647 C   0  0  0  0  0  0
  -26.0204  -29.4471   20.7138 C   0  0  0  0  0  0
  -27.2099  -28.6723   20.7044 C   0  0  0  0  0  0
  -26.0387  -26.9141   19.5020 C   0  0  0  0  0  0
  -24.8610  -27.6830   19.5092 C   0  0  0  0  0  0
  -23.6188  -29.8218   20.1651 C   0  0  0  0  0  0
  -25.4098  -36.3105   24.0346 C   0  0  1  0  0  0
  -20.5881  -28.3668   23.1326 C   0  0  2  0  0  0
  -20.6765  -26.9398   22.5426 C   0  0  0  0  0  0
  -19.5734  -26.6388   21.5227 C   0  0  0  0  0  0
  -18.1921  -26.7932   22.1640 C   0  0  0  0  0  0
  -19.1536  -28.8854   23.2909 C   0  0  0  0  0  0
  -18.9446  -30.1460   23.8907 C   0  0  0  0  0  0
  -17.6440  -30.6589   24.0558 C   0  0  0  0  0  0
  -25.9044  -34.9477   23.5138 C   0  0  0  0  0  0
  -16.5336  -29.9077   23.6323 C   0  0  0  0  0  0
  -16.7269  -28.6499   23.0355 C   0  0  0  0  0  0
  -26.4483  -31.6588   25.0716 C   0  0  0  0  0  0
  -25.3730  -31.3687   26.1449 C   0  0  0  0  0  0
  -27.0337  -30.3032   24.6125 C   0  0  0  0  0  0
  -27.6062  -32.4309   25.7463 C   0  0  0  0  0  0
  -27.5579  -37.1808   24.8480 C   0  0  0  0  0  0
  -21.4182  -29.3020   22.3729 N   0  0  0  0  0  0
  -26.4291  -37.3778   23.9426 N   0  0  0  0  0  0
  -24.6782  -31.0706   22.0985 N   0  0  0  0  0  0
  -23.4206  -28.8201   23.3086 O   0  0  0  0  0  0
  -28.3588  -26.5807   20.1372 O   0  0  0  0  0  0
  -26.5628  -34.8936   22.4705 O   0  0  0  0  0  0
  -23.5383  -32.1403   23.7424 O   0  0  0  0  0  0
  -27.3736  -20.1115   18.5847 C   0  0  0  0  0  0
  -27.3270  -22.2339   18.8543 C   0  0  0  0  0  0
  -28.3630  -20.4161   19.4963 C   0  0  0  0  0  0
  -29.3638  -15.6348   22.3623 C   0  0  0  0  0  0
  -29.3585  -19.4608   20.1346 C   0  0  0  0  0  0
  -28.9385  -17.9518   20.2912 C   0  0  0  0  0  0
  -29.2733  -24.2144   20.0589 C   0  0  0  0  0  0
  -29.1542  -22.7050   20.5014 C   0  0  0  0  0  0
  -30.1617  -16.9857   20.4872 C   0  0  0  0  0  0
  -28.1887  -25.2051   20.5894 C   0  0  0  0  0  0
  -26.7169  -21.2676   18.1805 N   0  0  0  0  0  0
  -28.3290  -21.8264   19.6508 N   0  0  0  0  0  0
  -29.8808  -15.6030   20.9854 N   0  0  0  0  0  0
  -31.4676  -12.4542   19.1354 H   0  0  0  0  0  0
  -30.3362  -11.3294   19.8078 H   0  0  0  0  0  0
  -29.7481  -11.8096   17.4238 H   0  0  0  0  0  0
  -29.6629  -13.5164   17.7612 H   0  0  0  0  0  0
  -27.8214  -11.3223   18.7717 H   0  0  0  0  0  0
  -27.3723  -12.6785   17.7734 H   0  0  0  0  0  0
  -27.7071  -14.2553   19.6125 H   0  0  0  0  0  0
  -28.6997  -11.8685   21.2294 H   0  0  0  0  0  0
  -28.4032  -13.4090   21.9099 H   0  0  0  0  0  0
  -25.2777   -9.5695   22.4722 H   0  0  0  0  0  0
  -24.0012   -7.4644   22.7489 H   0  0  0  0  0  0
  -21.0830   -8.8719   19.8965 H   0  0  0  0  0  0
  -22.3655  -10.9644   19.6115 H   0  0  0  0  0  0
  -21.2026   -7.6155   23.9688 H   0  0  0  0  0  0
  -21.1490   -6.0532   25.9066 H   0  0  0  0  0  0
  -22.0606   -2.7597   23.2831 H   0  0  0  0  0  0
  -22.4144  -11.9879   22.4805 H   0  0  0  0  0  0
  -21.1105  -13.1209   22.2550 H   0  0  0  0  0  0
  -24.6750  -15.8527   20.5525 H   0  0  0  0  0  0
  -26.3084  -15.6397   20.1821 H   0  0  0  0  0  0
  -26.7169  -32.5499   23.1142 H   0  0  0  0  0  0
  -24.9967  -33.9741   25.0399 H   0  0  0  0  0  0
  -22.7026  -31.3051   21.4147 H   0  0  0  0  0  0
  -23.3737  -35.9635   23.3313 H   0  0  0  0  0  0
  -24.3559  -36.8892   22.2053 H   0  0  0  0  0  0
  -23.7229  -37.6513   23.6641 H   0  0  0  0  0  0
  -26.0663  -31.5826   20.5960 H   0  0  0  0  0  0
  -26.8288  -30.8689   21.9873 H   0  0  0  0  0  0
  -28.1107  -29.0489   21.1701 H   0  0  0  0  0  0
  -26.0108  -25.9525   19.0097 H   0  0  0  0  0  0
  -23.9658  -27.2936   19.0431 H   0  0  0  0  0  0
  -23.7303  -30.5987   19.4084 H   0  0  0  0  0  0
  -22.7386  -29.2483   19.8664 H   0  0  0  0  0  0
  -25.1268  -36.1968   25.0840 H   0  0  0  0  0  0
  -20.9977  -28.3234   24.1444 H   0  0  0  0  0  0
  -20.5697  -26.2268   23.3617 H   0  0  0  0  0  0
  -21.6638  -26.7447   22.1207 H   0  0  0  0  0  0
  -19.6904  -25.6309   21.1242 H   0  0  0  0  0  0
  -19.6682  -27.3211   20.6772 H   0  0  0  0  0  0
  -17.4195  -26.6687   21.4034 H   0  0  0  0  0  0
  -18.0314  -26.0070   22.9035 H   0  0  0  0  0  0
  -19.7925  -30.7278   24.2284 H   0  0  0  0  0  0
  -17.4990  -31.6266   24.5149 H   0  0  0  0  0  0
  -15.5343  -30.2969   23.7649 H   0  0  0  0  0  0
  -15.8671  -28.0805   22.7071 H   0  0  0  0  0  0
  -24.5906  -30.7048   25.7735 H   0  0  0  0  0  0
  -24.8914  -32.2848   26.4902 H   0  0  0  0  0  0
  -25.8063  -30.8821   27.0203 H   0  0  0  0  0  0
  -26.2910  -29.6782   24.1160 H   0  0  0  0  0  0
  -27.4078  -29.7281   25.4607 H   0  0  0  0  0  0
  -27.8747  -30.4339   23.9309 H   0  0  0  0  0  0
  -27.2691  -33.3592   26.2088 H   0  0  0  0  0  0
  -28.3831  -32.6900   25.0256 H   0  0  0  0  0  0
  -28.0795  -31.8410   26.5322 H   0  0  0  0  0  0
  -28.2621  -38.0078   24.7500 H   0  0  0  0  0  0
  -28.1065  -36.2630   24.6337 H   0  0  0  0  0  0
  -27.2322  -37.1473   25.8887 H   0  0  0  0  0  0
  -20.9377  -29.8679   21.6872 H   0  0  0  0  0  0
  -26.0199  -38.2875   24.1371 H   0  0  0  0  0  0
  -27.0951  -19.1523   18.1716 H   0  0  0  0  0  0
  -27.0456  -23.2696   18.7367 H   0  0  0  0  0  0
  -29.6426  -16.5514   22.8851 H   0  0  0  0  0  0
  -29.7461  -14.8110   22.9742 H   0  0  0  0  0  0
  -28.2744  -15.5894   22.3539 H   0  0  0  0  0  0
  -29.6506  -19.8435   21.1132 H   0  0  0  0  0  0
  -30.2644  -19.4925   19.5281 H   0  0  0  0  0  0
  -28.3773  -17.6172   19.4182 H   0  0  0  0  0  0
  -28.2392  -17.8784   21.1260 H   0  0  0  0  0  0
  -29.3511  -24.2701   18.9741 H   0  0  0  0  0  0
  -30.2314  -24.5820   20.4285 H   0  0  0  0  0  0
  -28.7899  -22.6345   21.5254 H   0  0  0  0  0  0
  -30.1558  -22.2751   20.5081 H   0  0  0  0  0  0
  -30.6730  -16.9310   19.5233 H   0  0  0  0  0  0
  -30.8766  -17.4556   21.1612 H   0  0  0  0  0  0
  -28.2466  -25.2167   21.6783 H   0  0  0  0  0  0
  -27.2034  -24.8011   20.3707 H   0  0  0  0  0  0
  1 25  1  0  0  0
  1 30  2  0  0  0
  1 83  1  0  0  0
  2  3  1  0  0  0
  2 25  1  0  0  0
  2 84  1  0  0  0
  2 85  1  0  0  0
  3  4  1  0  0  0
  3 86  1  0  0  0
  3 87  1  0  0  0
  4  5  1  0  0  0
  4 88  1  0  0  0
  4 89  1  0  0  0
  5  6  1  0  0  0
  5 26  1  0  0  0
  5 90  1  0  0  0
  6 25  1  0  0  0
  6 91  1  0  0  0
  6 92  1  0  0  0
  7  8  2  0  0  0
  7 26  1  0  0  0
  7 29  1  0  0  0
  8  9  1  0  0  0
  8 22  1  0  0  0
  9 10  1  0  0  0
  9 27  2  0  0  0
 10 11  2  0  0  0
 10 15  1  0  0  0
 11 12  1  0  0  0
 11 93  1  0  0  0
 12 13  2  0  0  0
 12 94  1  0  0  0
 13 14  1  0  0  0
 13 31  1  0  0  0
 14 15  2  0  0  0
 14 95  1  0  0  0
 15 96  1  0  0  0
 16 17  2  0  0  0
 16 21  1  0  0  0
 16 31  1  0  0  0
 17 18  1  0  0  0
 17 97  1  0  0  0
 18 19  2  0  0  0
 18 98  1  0  0  0
 19 20  1  0  0  0
 19 24  1  0  0  0
 20 21  2  0  0  0
 20 99  1  0  0  0
 21 23  1  0  0  0
 22 28  1  0  0  0
 22 32  2  0  0  0
 26 27  1  0  0  0
 28100  1  0  0  0
 28101  1  0  0  0
 29102  1  0  0  0
 29103  1  0  0  0
 33 34  1  0  0  0
 33 66  1  0  0  0
 33 70  2  0  0  0
 34 36  1  0  0  0
 34 59  1  0  0  0
 34104  1  0  0  0
 35 44  2  0  0  0
 35 45  1  0  0  0
 35 68  1  0  0  0
 36 56  1  0  0  0
 36105  1  0  0  0
 37 39  1  0  0  0
 37 47  1  0  0  0
 37 66  1  0  0  0
 37106  1  0  0  0
 38 43  2  0  0  0
 38 46  1  0  0  0
 38 47  1  0  0  0
 39 64  1  0  0  0
 39 67  2  0  0  0
 40 52  1  0  0  0
 40 53  2  0  0  0
 40 58  1  0  0  0
 41107  1  0  0  0
 41108  1  0  0  0
 41109  1  0  0  0
 41 48  1  0  0  0
 42 43  1  0  0  0
 42 66  1  0  0  0
 42110  1  0  0  0
 42111  1  0  0  0
 43 44  1  0  0  0
 44112  1  0  0  0
 45 46  2  0  0  0
 45113  1  0  0  0
 46114  1  0  0  0
 47115  1  0  0  0
 47116  1  0  0  0
 48 56  1  0  0  0
 48 65  1  0  0  0
 48117  1  0  0  0
 49 50  1  0  0  0
 49 53  1  0  0  0
 49 64  1  0  0  0
 49118  1  0  0  0
 50 51  1  0  0  0
 50119  1  0  0  0
 50120  1  0  0  0
 51 52  1  0  0  0
 51121  1  0  0  0
 51122  1  0  0  0
 52123  1  0  0  0
 52124  1  0  0  0
 53 54  1  0  0  0
 54 55  2  0  0  0
 54125  1  0  0  0
 55 57  1  0  0  0
 55126  1  0  0  0
 56 69  2  0  0  0
 57 58  2  0  0  0
 57127  1  0  0  0
 58128  1  0  0  0
 59 60  1  0  0  0
 59 61  1  0  0  0
 59 62  1  0  0  0
 60129  1  0  0  0
 60130  1  0  0  0
 60131  1  0  0  0
 61132  1  0  0  0
 61133  1  0  0  0
 61134  1  0  0  0
 62135  1  0  0  0
 62136  1  0  0  0
 62137  1  0  0  0
 63 65  1  0  0  0
 63138  1  0  0  0
 63139  1  0  0  0
 63140  1  0  0  0
 64141  1  0  0  0
 65142  1  0  0  0
 68 80  1  0  0  0
 71 73  2  0  0  0
 71 81  1  0  0  0
 71143  1  0  0  0
 72 81  2  0  0  0
 72 82  1  0  0  0
 72144  1  0  0  0
 73 75  1  0  0  0
 73 82  1  0  0  0
 74 83  1  0  0  0
 74145  1  0  0  0
 74146  1  0  0  0
 74147  1  0  0  0
 75 76  1  0  0  0
 75148  1  0  0  0
 75149  1  0  0  0
 76 79  1  0  0  0
 76150  1  0  0  0
 76151  1  0  0  0
 77 78  1  0  0  0
 77 80  1  0  0  0
 77152  1  0  0  0
 77153  1  0  0  0
 78 82  1  0  0  0
 78154  1  0  0  0
 78155  1  0  0  0
 79 83  1  0  0  0
 79156  1  0  0  0
 79157  1  0  0  0
 80158  1  0  0  0
 80159  1  0  0  0
M  ISO  4   1 100  68 101  80 101  83 100
M  END
> <chiral flag>
0

> <version>
0

> <s_m_source_file>
/data/baiqing/PycharmProjects/Reinvent-master-3.2/result/LINK_invent/BTK/process_docking_weight1_custom_sum_contain_oxygen_bond_distance_aromatic_linkinvent_7_9_3/rearranged_h_0047.sdf

> <i_m_source_file_index>
39

> <r_mmod_Potential_Energy-OPLS-2005>
155.337677001953

> <r_mmod_Stretch_Energy-OPLS-2005>
56.9562606811523

> <r_mmod_Bend_Energy-OPLS-2005>
125.14298248291

> <r_mmod_Torsional_Energy-OPLS-2005>
295.803680419922

> <r_mmod_Improper_Torsional_Energy-OPLS-2005>
9.57953357696533

> <r_mmod_Van_der_Waal_Energy-OPLS-2005>
134.375396728516

> <r_mmod_Electrostatic_Energy-OPLS-2005>
-274.923278808594

> <r_mmod_Solvation_Energy-OPLS-2005>
-213.973709106445

> <b_mmod_Minimization_Converged-OPLS-2005>
0

> <r_mmod_RMS_Derivative-OPLS-2005>
4.35140562057495

$$$$
39
                    3D
 Structure written by MMmdl.
171179  0  0  1  0            999 V2000
  -30.6777  -14.4187   20.6273 C   0  0  0  0  0  0
  -30.4377  -12.3089   19.3747 C   0  0  0  0  0  0
  -29.4872  -12.5135   18.1764 C   0  0  0  0  0  0
  -28.0057  -12.3659   18.5922 C   0  0  0  0  0  0
  -27.6675  -13.1642   19.8783 C   0  0  2  0  0  0
  -28.7159  -12.8128   20.9626 C   0  0  0  0  0  0
  -25.2651  -13.8050   20.5584 C   0  0  0  0  0  0
  -24.1890  -13.0393   20.9175 C   0  0  0  0  0  0
  -24.6381  -11.6847   20.8756 C   0  0  0  0  0  0
  -23.9044  -10.4259   21.0423 C   0  0  0  0  0  0
  -24.3604   -9.4172   21.9194 C   0  0  0  0  0  0
  -23.6267   -8.2217   22.0752 C   0  0  0  0  0  0
  -22.4248   -8.0267   21.3548 C   0  0  0  0  0  0
  -21.9889   -9.0240   20.4648 C   0  0  0  0  0  0
  -22.7214  -10.2121   20.3062 C   0  0  0  0  0  0
  -21.6840   -6.0734   22.5296 C   0  0  0  0  0  0
  -21.3994   -6.5631   23.8228 C   0  0  0  0  0  0
  -21.3650   -5.6780   24.9190 C   0  0  0  0  0  0
  -21.6057   -4.3047   24.7234 C   0  0  0  0  0  0
  -21.8809   -3.8140   23.4350 C   0  0  0  0  0  0
  -21.9181   -4.6964   22.3416 C   0  0  0  0  0  0
  -22.7919  -13.5246   21.1826 C   0  0  0  0  0  0
  -22.1643   -4.2151   21.0987 F   0  0  0  0  0  0
  -21.5649   -3.4536   25.7751 F   0  0  0  0  0  0
  -30.0235  -13.2353   20.4436 N   0  0  0  0  0  0
  -26.3045  -12.9139   20.3351 N   0  0  0  0  0  0
  -25.9288  -11.6349   20.5782 N   0  0  0  0  0  0
  -22.0530  -12.8276   22.0378 N   0  0  0  0  0  0
  -25.4365  -15.1742   20.3778 N   0  0  0  0  0  0
  -31.7945  -14.6288   20.1427 O   0  0  0  0  0  0
  -21.6615   -6.8871   21.4247 O   0  0  0  0  0  0
  -22.3632  -14.5537   20.6632 O   0  0  0  0  0  0
  -24.6109  -31.8674   23.2089 C   0  0  0  0  0  0
  -25.9006  -32.4822   23.8374 C   0  0  1  0  0  0
  -27.2412  -27.4541   20.1288 C   0  0  0  0  0  0
  -25.5875  -33.8615   24.2330 N   0  0  0  0  0  0
  -23.3973  -30.4865   21.5495 C   0  0  2  0  0  0
  -24.8477  -28.9495   20.1199 C   0  0  0  0  0  0
  -22.7381  -29.4634   22.5013 C   0  0  0  0  0  0
  -18.0259  -28.1355   22.8496 C   0  0  0  0  0  0
  -24.1484  -36.7320   23.2646 C   0  0  0  0  0  0
  -25.9182  -30.8503   21.3470 C   0  0  0  0  0  0
  -26.0016  -29.4804   20.7071 C   0  0  0  0  0  0
  -27.2026  -28.7427   20.7015 C   0  0  0  0  0  0
  -26.0702  -26.9233   19.5428 C   0  0  0  0  0  0
  -24.8749  -27.6708   19.5344 C   0  0  0  0  0  0
  -23.6052  -29.8094   20.1660 C   0  0  0  0  0  0
  -25.4105  -36.3121   24.0350 C   0  0  1  0  0  0
  -20.5850  -28.3621   23.1362 C   0  0  2  0  0  0
  -20.6742  -26.9356   22.5451 C   0  0  0  0  0  0
  -19.5735  -26.6362   21.5223 C   0  0  0  0  0  0
  -18.1908  -26.7915   22.1601 C   0  0  0  0  0  0
  -19.1514  -28.8802   23.2925 C   0  0  0  0  0  0
  -18.9438  -30.1418   23.8923 C   0  0  0  0  0  0
  -17.6444  -30.6573   24.0548 C   0  0  0  0  0  0
  -25.9026  -34.9482   23.5144 C   0  0  0  0  0  0
  -16.5330  -29.9083   23.6316 C   0  0  0  0  0  0
  -16.7252  -28.6484   23.0350 C   0  0  0  0  0  0
  -26.4472  -31.6589   25.0684 C   0  0  0  0  0  0
  -25.3783  -31.3673   26.1469 C   0  0  0  0  0  0
  -27.0295  -30.3050   24.5990 C   0  0  0  0  0  0
  -27.6047  -32.4310   25.7451 C   0  0  0  0  0  0
  -27.5584  -37.1806   24.8466 C   0  0  0  0  0  0
  -21.4112  -29.2996   22.3774 N   0  0  0  0  0  0
  -26.4288  -37.3800   23.9421 N   0  0  0  0  0  0
  -24.6616  -31.0820   22.0965 N   0  0  0  0  0  0
  -23.4187  -28.8177   23.3039 O   0  0  0  0  0  0
  -28.4365  -26.7753   20.1327 O   0  0  0  0  0  0
  -26.5574  -34.8937   22.4705 O   0  0  0  0  0  0
  -23.5314  -32.1373   23.7523 O   0  0  0  0  0  0
  -29.4090  -21.9850   23.1072 C   0  0  0  0  0  0
  -30.3360  -22.9795   23.5149 C   0  0  0  0  0  0
  -28.3638  -22.6753   22.5512 C   0  0  0  0  0  0
  -31.6539  -22.7976   24.2049 C   0  0  0  0  0  0
  -25.2214  -18.5136   23.8206 C   0  0  0  0  0  0
  -27.0886  -22.1877   21.9110 C   0  0  0  0  0  0
  -26.3362  -21.0108   22.5869 C   0  0  0  0  0  0
  -28.3560  -17.0854   22.0772 C   0  0  0  0  0  0
  -28.0768  -25.1936   22.0181 C   0  0  0  0  0  0
  -28.8441  -15.6345   22.0053 C   0  0  0  0  0  0
  -27.1356  -19.6956   22.7289 C   0  0  0  0  0  0
  -27.1049  -17.2089   22.9846 C   0  0  0  0  0  0
  -28.4374  -25.4010   20.5278 C   0  0  0  0  0  0
  -29.9280  -24.1901   23.1898 N   0  0  0  0  0  0
  -28.7343  -24.0167   22.5762 N   0  0  0  0  0  0
  -30.0306  -15.4797   21.1573 N   0  0  0  0  0  0
  -26.3082  -18.4566   22.8098 N   0  3  1  0  0  0
  -31.4696  -12.4638   19.0553 H   0  0  0  0  0  0
  -30.3983  -11.2745   19.7209 H   0  0  0  0  0  0
  -29.7296  -11.8013   17.3860 H   0  0  0  0  0  0
  -29.6407  -13.5063   17.7483 H   0  0  0  0  0  0
  -27.8158  -11.3040   18.7602 H   0  0  0  0  0  0
  -27.3576  -12.6701   17.7700 H   0  0  0  0  0  0
  -27.7435  -14.2203   19.6239 H   0  0  0  0  0  0
  -28.7179  -11.7304   21.1040 H   0  0  0  0  0  0
  -28.4958  -13.1624   21.9666 H   0  0  0  0  0  0
  -25.2752   -9.5663   22.4767 H   0  0  0  0  0  0
  -23.9994   -7.4610   22.7450 H   0  0  0  0  0  0
  -21.0829   -8.8735   19.8956 H   0  0  0  0  0  0
  -22.3648  -10.9666   19.6182 H   0  0  0  0  0  0
  -21.1966   -7.6131   23.9730 H   0  0  0  0  0  0
  -21.1481   -6.0519   25.9099 H   0  0  0  0  0  0
  -22.0600   -2.7600   23.2848 H   0  0  0  0  0  0
  -22.4065  -11.9926   22.4812 H   0  0  0  0  0  0
  -21.1163  -13.1385   22.2501 H   0  0  0  0  0  0
  -24.5886  -15.7206   20.2668 H   0  0  0  0  0  0
  -26.1711  -15.4798   19.7528 H   0  0  0  0  0  0
  -26.7084  -32.5556   23.1146 H   0  0  0  0  0  0
  -25.0080  -33.9785   25.0516 H   0  0  0  0  0  0
  -22.6832  -31.3009   21.4049 H   0  0  0  0  0  0
  -23.3749  -35.9644   23.3319 H   0  0  0  0  0  0
  -24.3576  -36.8922   22.2059 H   0  0  0  0  0  0
  -23.7238  -37.6532   23.6646 H   0  0  0  0  0  0
  -26.0102  -31.6117   20.5711 H   0  0  0  0  0  0
  -26.8138  -30.9217   21.9512 H   0  0  0  0  0  0
  -28.0982  -29.1515   21.1498 H   0  0  0  0  0  0
  -26.0755  -25.9419   19.0893 H   0  0  0  0  0  0
  -23.9831  -27.2533   19.0911 H   0  0  0  0  0  0
  -23.7058  -30.5759   19.3990 H   0  0  0  0  0  0
  -22.7316  -29.2227   19.8780 H   0  0  0  0  0  0
  -25.1287  -36.1974   25.0835 H   0  0  0  0  0  0
  -20.9914  -28.3154   24.1494 H   0  0  0  0  0  0
  -20.5627  -26.2203   23.3623 H   0  0  0  0  0  0
  -21.6623  -26.7399   22.1253 H   0  0  0  0  0  0
  -19.6897  -25.6286   21.1232 H   0  0  0  0  0  0
  -19.6709  -27.3186   20.6777 H   0  0  0  0  0  0
  -17.4194  -26.6684   21.3984 H   0  0  0  0  0  0
  -18.0266  -26.0054   22.8985 H   0  0  0  0  0  0
  -19.7917  -30.7212   24.2309 H   0  0  0  0  0  0
  -17.5004  -31.6261   24.5135 H   0  0  0  0  0  0
  -15.5337  -30.2980   23.7643 H   0  0  0  0  0  0
  -15.8638  -28.0803   22.7079 H   0  0  0  0  0  0
  -24.5957  -30.6996   25.7843 H   0  0  0  0  0  0
  -24.8975  -32.2822   26.4933 H   0  0  0  0  0  0
  -25.8192  -30.8857   27.0204 H   0  0  0  0  0  0
  -26.2788  -29.6783   24.1151 H   0  0  0  0  0  0
  -27.4247  -29.7296   25.4369 H   0  0  0  0  0  0
  -27.8533  -30.4424   23.8980 H   0  0  0  0  0  0
  -27.2659  -33.3601   26.2043 H   0  0  0  0  0  0
  -28.3850  -32.6878   25.0276 H   0  0  0  0  0  0
  -28.0715  -31.8425   26.5358 H   0  0  0  0  0  0
  -28.2614  -38.0093   24.7512 H   0  0  0  0  0  0
  -28.1070  -36.2630   24.6285 H   0  0  0  0  0  0
  -27.2307  -37.1460   25.8870 H   0  0  0  0  0  0
  -20.9247  -29.8714   21.7006 H   0  0  0  0  0  0
  -26.0188  -38.2875   24.1426 H   0  0  0  0  0  0
  -29.5279  -20.9183   23.2112 H   0  0  0  0  0  0
  -31.6357  -21.9282   24.8607 H   0  0  0  0  0  0
  -31.9073  -23.6638   24.8179 H   0  0  0  0  0  0
  -32.4579  -22.6466   23.4837 H   0  0  0  0  0  0
  -24.5281  -19.3346   23.6414 H   0  0  0  0  0  0
  -25.6198  -18.6052   24.8320 H   0  0  0  0  0  0
  -24.6195  -17.6042   23.7838 H   0  0  0  0  0  0
  -27.3095  -21.9203   20.8777 H   0  0  0  0  0  0
  -26.3770  -23.0105   21.8450 H   0  0  0  0  0  0
  -25.4438  -20.8234   21.9874 H   0  0  0  0  0  0
  -25.9773  -21.3216   23.5688 H   0  0  0  0  0  0
  -28.1241  -17.4188   21.0653 H   0  0  0  0  0  0
  -29.1513  -17.7288   22.4544 H   0  0  0  0  0  0
  -26.9980  -25.1283   22.1594 H   0  0  0  0  0  0
  -28.3978  -26.0584   22.6008 H   0  0  0  0  0  0
  -27.9875  -15.1072   21.6081 H   0  0  0  0  0  0
  -29.0489  -15.2402   23.0012 H   0  0  0  0  0  0
  -27.7718  -19.7409   23.6132 H   0  0  0  0  0  0
  -27.7915  -19.6199   21.8609 H   0  0  0  0  0  0
  -27.4194  -17.1143   24.0257 H   0  0  0  0  0  0
  -26.4343  -16.3667   22.8010 H   0  0  0  0  0  0
  -27.8217  -24.7789   19.8782 H   0  0  0  0  0  0
  -29.4637  -25.0646   20.3744 H   0  0  0  0  0  0
  -30.5823  -16.3208   21.0716 H   0  0  0  0  0  0
  -25.8406  -18.3661   21.9172 H   0  0  0  0  0  0
  1 25  1  0  0  0
  1 30  2  0  0  0
  1 86  1  0  0  0
  2  3  1  0  0  0
  2 25  1  0  0  0
  2 88  1  0  0  0
  2 89  1  0  0  0
  3  4  1  0  0  0
  3 90  1  0  0  0
  3 91  1  0  0  0
  4  5  1  0  0  0
  4 92  1  0  0  0
  4 93  1  0  0  0
  5  6  1  0  0  0
  5 26  1  0  0  0
  5 94  1  0  0  0
  6 25  1  0  0  0
  6 95  1  0  0  0
  6 96  1  0  0  0
  7  8  2  0  0  0
  7 26  1  0  0  0
  7 29  1  0  0  0
  8  9  1  0  0  0
  8 22  1  0  0  0
  9 10  1  0  0  0
  9 27  2  0  0  0
 10 11  2  0  0  0
 10 15  1  0  0  0
 11 12  1  0  0  0
 11 97  1  0  0  0
 12 13  2  0  0  0
 12 98  1  0  0  0
 13 14  1  0  0  0
 13 31  1  0  0  0
 14 15  2  0  0  0
 14 99  1  0  0  0
 15100  1  0  0  0
 16 17  2  0  0  0
 16 21  1  0  0  0
 16 31  1  0  0  0
 17 18  1  0  0  0
 17101  1  0  0  0
 18 19  2  0  0  0
 18102  1  0  0  0
 19 20  1  0  0  0
 19 24  1  0  0  0
 20 21  2  0  0  0
 20103  1  0  0  0
 21 23  1  0  0  0
 22 28  1  0  0  0
 22 32  2  0  0  0
 26 27  1  0  0  0
 28104  1  0  0  0
 28105  1  0  0  0
 29106  1  0  0  0
 29107  1  0  0  0
 33 34  1  0  0  0
 33 66  1  0  0  0
 33 70  2  0  0  0
 34 36  1  0  0  0
 34 59  1  0  0  0
 34108  1  0  0  0
 35 44  2  0  0  0
 35 45  1  0  0  0
 35 68  1  0  0  0
 36 56  1  0  0  0
 36109  1  0  0  0
 37 39  1  0  0  0
 37 47  1  0  0  0
 37 66  1  0  0  0
 37110  1  0  0  0
 38 43  2  0  0  0
 38 46  1  0  0  0
 38 47  1  0  0  0
 39 64  1  0  0  0
 39 67  2  0  0  0
 40 52  1  0  0  0
 40 53  2  0  0  0
 40 58  1  0  0  0
 41111  1  0  0  0
 41112  1  0  0  0
 41113  1  0  0  0
 41 48  1  0  0  0
 42 43  1  0  0  0
 42 66  1  0  0  0
 42114  1  0  0  0
 42115  1  0  0  0
 43 44  1  0  0  0
 44116  1  0  0  0
 45 46  2  0  0  0
 45117  1  0  0  0
 46118  1  0  0  0
 47119  1  0  0  0
 47120  1  0  0  0
 48 56  1  0  0  0
 48 65  1  0  0  0
 48121  1  0  0  0
 49 50  1  0  0  0
 49 53  1  0  0  0
 49 64  1  0  0  0
 49122  1  0  0  0
 50 51  1  0  0  0
 50123  1  0  0  0
 50124  1  0  0  0
 51 52  1  0  0  0
 51125  1  0  0  0
 51126  1  0  0  0
 52127  1  0  0  0
 52128  1  0  0  0
 53 54  1  0  0  0
 54 55  2  0  0  0
 54129  1  0  0  0
 55 57  1  0  0  0
 55130  1  0  0  0
 56 69  2  0  0  0
 57 58  2  0  0  0
 57131  1  0  0  0
 58132  1  0  0  0
 59 60  1  0  0  0
 59 61  1  0  0  0
 59 62  1  0  0  0
 60133  1  0  0  0
 60134  1  0  0  0
 60135  1  0  0  0
 61136  1  0  0  0
 61137  1  0  0  0
 61138  1  0  0  0
 62139  1  0  0  0
 62140  1  0  0  0
 62141  1  0  0  0
 63 65  1  0  0  0
 63142  1  0  0  0
 63143  1  0  0  0
 63144  1  0  0  0
 64145  1  0  0  0
 65146  1  0  0  0
 68 83  1  0  0  0
 71 72  1  0  0  0
 71 73  2  0  0  0
 71147  1  0  0  0
 72 74  1  0  0  0
 72 84  2  0  0  0
 73 76  1  0  0  0
 73 85  1  0  0  0
 74148  1  0  0  0
 74149  1  0  0  0
 74150  1  0  0  0
 75151  1  0  0  0
 75152  1  0  0  0
 75153  1  0  0  0
 75 87  1  0  0  0
 76 77  1  0  0  0
 76154  1  0  0  0
 76155  1  0  0  0
 77 81  1  0  0  0
 77156  1  0  0  0
 77157  1  0  0  0
 78 80  1  0  0  0
 78 82  1  0  0  0
 78158  1  0  0  0
 78159  1  0  0  0
 79 83  1  0  0  0
 79 85  1  0  0  0
 79160  1  0  0  0
 79161  1  0  0  0
 80 86  1  0  0  0
 80162  1  0  0  0
 80163  1  0  0  0
 81 87  1  0  0  0
 81164  1  0  0  0
 81165  1  0  0  0
 82 87  1  0  0  0
 82166  1  0  0  0
 82167  1  0  0  0
 83168  1  0  0  0
 83169  1  0  0  0
 84 85  1  0  0  0
 86170  1  0  0  0
 87171  1  0  0  0
M  CHG  1  87   1
M  ISO  4   1 100  68 101  83 101  86 100
M  END
> <chiral flag>
0

> <version>
0

> <s_m_source_file>
/data/baiqing/PycharmProjects/Reinvent-master-3.2/result/LINK_invent/BTK/process_docking_weight1_custom_sum_contain_oxygen_bond_distance_aromatic_linkinvent_7_9_3/rearranged_h_0047.sdf

> <i_m_source_file_index>
40

> <r_mmod_Potential_Energy-OPLS-2005>
-142.753662109375

> <r_mmod_Stretch_Energy-OPLS-2005>
35.7085189819336

> <r_mmod_Bend_Energy-OPLS-2005>
135.23127746582

> <r_mmod_Torsional_Energy-OPLS-2005>
277.628479003906

> <r_mmod_Improper_Torsional_Energy-OPLS-2005>
9.25826644897461

> <r_mmod_Van_der_Waal_Energy-OPLS-2005>
137.416519165039

> <r_mmod_Electrostatic_Energy-OPLS-2005>
-273.390472412109

> <r_mmod_Solvation_Energy-OPLS-2005>
-478.010650634766

> <b_mmod_Minimization_Converged-OPLS-2005>
0

> <r_mmod_RMS_Derivative-OPLS-2005>
3.65235662460327

$$$$
40
                    3D
 Structure written by MMmdl.
154162  0  0  1  0            999 V2000
  -30.3466  -15.3468   20.3349 C   0  0  0  0  0  0
  -30.4645  -12.8636   19.5106 C   0  0  0  0  0  0
  -29.5422  -12.6070   18.2855 C   0  0  0  0  0  0
  -28.0884  -12.3090   18.7096 C   0  0  0  0  0  0
  -27.6177  -13.2469   19.8467 C   0  0  2  0  0  0
  -28.6773  -13.3729   20.9611 C   0  0  0  0  0  0
  -25.2425  -13.8128   20.5784 C   0  0  0  0  0  0
  -24.1744  -13.0362   20.9268 C   0  0  0  0  0  0
  -24.6378  -11.6858   20.8800 C   0  0  0  0  0  0
  -23.9062  -10.4247   21.0433 C   0  0  0  0  0  0
  -24.3617   -9.4164   21.9201 C   0  0  0  0  0  0
  -23.6292   -8.2202   22.0759 C   0  0  0  0  0  0
  -22.4273   -8.0255   21.3546 C   0  0  0  0  0  0
  -21.9912   -9.0228   20.4647 C   0  0  0  0  0  0
  -22.7242  -10.2104   20.3067 C   0  0  0  0  0  0
  -21.6840   -6.0725   22.5279 C   0  0  0  0  0  0
  -21.4000   -6.5634   23.8211 C   0  0  0  0  0  0
  -21.3664   -5.6789   24.9179 C   0  0  0  0  0  0
  -21.6054   -4.3053   24.7229 C   0  0  0  0  0  0
  -21.8819   -3.8141   23.4352 C   0  0  0  0  0  0
  -21.9190   -4.6955   22.3409 C   0  0  0  0  0  0
  -22.7771  -13.5159   21.1897 C   0  0  0  0  0  0
  -22.1662   -4.2145   21.0987 F   0  0  0  0  0  0
  -21.5642   -3.4537   25.7743 F   0  0  0  0  0  0
  -29.8817  -13.9817   20.3476 N   0  0  0  0  0  0
  -26.2864  -12.9343   20.3390 N   0  0  0  0  0  0
  -25.9320  -11.6480   20.5818 N   0  0  0  0  0  0
  -22.0411  -12.8163   22.0458 N   0  0  0  0  0  0
  -25.4020  -15.1864   20.4174 N   0  0  0  0  0  0
  -31.5731  -15.3762   20.1359 O   0  0  0  0  0  0
  -21.6628   -6.8862   21.4239 O   0  0  0  0  0  0
  -22.3471  -14.5472   20.6741 O   0  0  0  0  0  0
  -24.6628  -31.8204   23.1679 C   0  0  0  0  0  0
  -25.9300  -32.4572   23.8160 C   0  0  1  0  0  0
  -27.2353  -26.9158   20.1817 C   0  0  0  0  0  0
  -25.5965  -33.8388   24.2059 N   0  0  0  0  0  0
  -23.4797  -30.4279   21.5157 C   0  0  2  0  0  0
  -24.9375  -28.8097   20.1089 C   0  0  0  0  0  0
  -22.7670  -29.4407   22.4767 C   0  0  0  0  0  0
  -18.0322  -28.1401   22.8462 C   0  0  0  0  0  0
  -24.1494  -36.7200   23.2647 C   0  0  0  0  0  0
  -26.0483  -30.6212   21.4022 C   0  0  0  0  0  0
  -26.1175  -29.2093   20.7463 C   0  0  0  0  0  0
  -27.2543  -28.2815   20.7614 C   0  0  0  0  0  0
  -26.0274  -26.6719   19.4879 C   0  0  0  0  0  0
  -24.9181  -27.5621   19.4606 C   0  0  0  0  0  0
  -23.7219  -29.7376   20.1437 C   0  0  0  0  0  0
  -25.4139  -36.2959   24.0295 C   0  0  1  0  0  0
  -20.5947  -28.3744   23.1182 C   0  0  2  0  0  0
  -20.6791  -26.9423   22.5400 C   0  0  0  0  0  0
  -19.5769  -26.6367   21.5209 C   0  0  0  0  0  0
  -18.1952  -26.7932   22.1619 C   0  0  0  0  0  0
  -19.1584  -28.8896   23.2807 C   0  0  0  0  0  0
  -18.9494  -30.1487   23.8842 C   0  0  0  0  0  0
  -17.6487  -30.6593   24.0549 C   0  0  0  0  0  0
  -25.9101  -34.9343   23.5003 C   0  0  0  0  0  0
  -16.5377  -29.9075   23.6345 C   0  0  0  0  0  0
  -16.7304  -28.6496   23.0363 C   0  0  0  0  0  0
  -26.4558  -31.6529   25.0700 C   0  0  0  0  0  0
  -25.3683  -31.3783   26.1354 C   0  0  0  0  0  0
  -27.0459  -30.2888   24.6459 C   0  0  0  0  0  0
  -27.6043  -32.4355   25.7503 C   0  0  0  0  0  0
  -27.5572  -37.1759   24.8466 C   0  0  0  0  0  0
  -21.4338  -29.3026   22.3527 N   0  0  0  0  0  0
  -26.4284  -37.3697   23.9404 N   0  0  0  0  0  0
  -24.7511  -30.9845   22.0820 N   0  0  0  0  0  0
  -23.4205  -28.7990   23.3029 O   0  0  0  0  0  0
  -28.2560  -25.8277   20.3151 O   0  0  0  0  0  0
  -26.5720  -34.8880   22.4604 O   0  0  0  0  0  0
  -23.5693  -32.1185   23.6757 O   0  0  0  0  0  0
  -30.8061  -19.4079   19.8351 C   0  0  0  0  0  0
  -29.6895  -18.6292   20.2988 C   0  0  0  0  0  0
  -30.5250  -20.7895   19.8436 C   0  0  0  0  0  0
  -31.4648  -21.8926   19.4872 C   0  0  0  0  0  0
  -28.6003  -16.7704   18.9940 C   0  0  0  0  0  0
  -28.4395  -16.7446   21.5342 C   0  0  0  0  0  0
  -28.5693  -22.6244   20.6809 C   0  0  0  0  0  0
  -28.3089  -24.2252   19.8643 C   0  0  0  0  0  0
  -29.3839  -16.8773   20.3238 C   0  0  0  0  0  0
  -28.7657  -19.7333   20.5323 N   0  0  0  0  0  0
  -29.2240  -21.1154   20.2617 N   0  0  0  0  0  0
  -31.4633  -13.1193   19.1555 H   0  0  0  0  0  0
  -30.5962  -11.9527   20.0966 H   0  0  0  0  0  0
  -29.9339  -11.7881   17.6814 H   0  0  0  0  0  0
  -29.5535  -13.4895   17.6438 H   0  0  0  0  0  0
  -28.0458  -11.2745   19.0513 H   0  0  0  0  0  0
  -27.4181  -12.3763   17.8519 H   0  0  0  0  0  0
  -27.5091  -14.2161   19.3833 H   0  0  0  0  0  0
  -28.8926  -12.3895   21.3813 H   0  0  0  0  0  0
  -28.3271  -13.9392   21.8177 H   0  0  0  0  0  0
  -25.2755   -9.5642   22.4784 H   0  0  0  0  0  0
  -23.9997   -7.4591   22.7478 H   0  0  0  0  0  0
  -21.0842   -8.8753   19.8955 H   0  0  0  0  0  0
  -22.3705  -10.9654   19.6186 H   0  0  0  0  0  0
  -21.1970   -7.6139   23.9713 H   0  0  0  0  0  0
  -21.1500   -6.0523   25.9086 H   0  0  0  0  0  0
  -22.0597   -2.7602   23.2854 H   0  0  0  0  0  0
  -22.4022  -11.9827   22.4856 H   0  0  0  0  0  0
  -21.1030  -13.1203   22.2657 H   0  0  0  0  0  0
  -24.6336  -15.8357   20.5439 H   0  0  0  0  0  0
  -26.2555  -15.6364   20.1158 H   0  0  0  0  0  0
  -26.7366  -32.5100   23.0872 H   0  0  0  0  0  0
  -25.0055  -33.9469   25.0170 H   0  0  0  0  0  0
  -22.7932  -31.2587   21.3410 H   0  0  0  0  0  0
  -23.3771  -35.9514   23.3280 H   0  0  0  0  0  0
  -24.3566  -36.8880   22.2067 H   0  0  0  0  0  0
  -23.7238  -37.6372   23.6728 H   0  0  0  0  0  0
  -26.2311  -31.3621   20.6229 H   0  0  0  0  0  0
  -26.9054  -30.6783   22.0606 H   0  0  0  0  0  0
  -28.1432  -28.5838   21.2968 H   0  0  0  0  0  0
  -25.9003  -25.7188   18.9961 H   0  0  0  0  0  0
  -24.0213  -27.2499   18.9435 H   0  0  0  0  0  0
  -23.8747  -30.5032   19.3820 H   0  0  0  0  0  0
  -22.8327  -29.1883   19.8296 H   0  0  0  0  0  0
  -25.1339  -36.1756   25.0788 H   0  0  0  0  0  0
  -21.0034  -28.3350   24.1305 H   0  0  0  0  0  0
  -20.5654  -26.2365   23.3642 H   0  0  0  0  0  0
  -21.6655  -26.7380   22.1221 H   0  0  0  0  0  0
  -19.6925  -25.6263   21.1274 H   0  0  0  0  0  0
  -19.6712  -27.3145   20.6715 H   0  0  0  0  0  0
  -17.4219  -26.6671   21.4026 H   0  0  0  0  0  0
  -18.0350  -26.0086   22.9030 H   0  0  0  0  0  0
  -19.7971  -30.7317   24.2181 H   0  0  0  0  0  0
  -17.5039  -31.6269   24.5158 H   0  0  0  0  0  0
  -15.5373  -30.2958   23.7699 H   0  0  0  0  0  0
  -15.8706  -28.0794   22.7107 H   0  0  0  0  0  0
  -24.5874  -30.7124   25.7660 H   0  0  0  0  0  0
  -24.8863  -32.2983   26.4669 H   0  0  0  0  0  0
  -25.7910  -30.9018   27.0208 H   0  0  0  0  0  0
  -26.3128  -29.6554   24.1447 H   0  0  0  0  0  0
  -27.3948  -29.7268   25.5135 H   0  0  0  0  0  0
  -27.9091  -30.4051   23.9903 H   0  0  0  0  0  0
  -27.2596  -33.3695   26.1954 H   0  0  0  0  0  0
  -28.3914  -32.6857   25.0378 H   0  0  0  0  0  0
  -28.0647  -31.8575   26.5524 H   0  0  0  0  0  0
  -28.2569  -38.0075   24.7513 H   0  0  0  0  0  0
  -28.1093  -36.2600   24.6300 H   0  0  0  0  0  0
  -27.2286  -37.1404   25.8868 H   0  0  0  0  0  0
  -20.9593  -29.8718   21.6658 H   0  0  0  0  0  0
  -26.0132  -38.2754   24.1414 H   0  0  0  0  0  0
  -31.7480  -18.9885   19.5083 H   0  0  0  0  0  0
  -32.4308  -21.4997   19.1711 H   0  0  0  0  0  0
  -31.6350  -22.5498   20.3400 H   0  0  0  0  0  0
  -31.0655  -22.4931   18.6701 H   0  0  0  0  0  0
  -27.5935  -17.1784   19.0800 H   0  0  0  0  0  0
  -28.5318  -15.7697   18.5858 H   0  0  0  0  0  0
  -29.1062  -17.3411   18.2148 H   0  0  0  0  0  0
  -27.7372  -17.5756   21.5954 H   0  0  0  0  0  0
  -28.9989  -16.7275   22.4699 H   0  0  0  0  0  0
  -27.8099  -15.8686   21.4841 H   0  0  0  0  0  0
  -27.6010  -22.3852   21.1204 H   0  0  0  0  0  0
  -29.1681  -22.9014   21.5484 H   0  0  0  0  0  0
  -27.4260  -24.0780   19.2448 H   0  0  0  0  0  0
  -29.1166  -24.2517   19.1329 H   0  0  0  0  0  0
  1 25  1  0  0  0
  1 30  2  0  0  0
  1 79  1  0  0  0
  2  3  1  0  0  0
  2 25  1  0  0  0
  2 82  1  0  0  0
  2 83  1  0  0  0
  3  4  1  0  0  0
  3 84  1  0  0  0
  3 85  1  0  0  0
  4  5  1  0  0  0
  4 86  1  0  0  0
  4 87  1  0  0  0
  5  6  1  0  0  0
  5 26  1  0  0  0
  5 88  1  0  0  0
  6 25  1  0  0  0
  6 89  1  0  0  0
  6 90  1  0  0  0
  7  8  2  0  0  0
  7 26  1  0  0  0
  7 29  1  0  0  0
  8  9  1  0  0  0
  8 22  1  0  0  0
  9 10  1  0  0  0
  9 27  2  0  0  0
 10 11  2  0  0  0
 10 15  1  0  0  0
 11 12  1  0  0  0
 11 91  1  0  0  0
 12 13  2  0  0  0
 12 92  1  0  0  0
 13 14  1  0  0  0
 13 31  1  0  0  0
 14 15  2  0  0  0
 14 93  1  0  0  0
 15 94  1  0  0  0
 16 17  2  0  0  0
 16 21  1  0  0  0
 16 31  1  0  0  0
 17 18  1  0  0  0
 17 95  1  0  0  0
 18 19  2  0  0  0
 18 96  1  0  0  0
 19 20  1  0  0  0
 19 24  1  0  0  0
 20 21  2  0  0  0
 20 97  1  0  0  0
 21 23  1  0  0  0
 22 28  1  0  0  0
 22 32  2  0  0  0
 26 27  1  0  0  0
 28 98  1  0  0  0
 28 99  1  0  0  0
 29100  1  0  0  0
 29101  1  0  0  0
 33 34  1  0  0  0
 33 66  1  0  0  0
 33 70  2  0  0  0
 34 36  1  0  0  0
 34 59  1  0  0  0
 34102  1  0  0  0
 35 44  2  0  0  0
 35 45  1  0  0  0
 35 68  1  0  0  0
 36 56  1  0  0  0
 36103  1  0  0  0
 37 39  1  0  0  0
 37 47  1  0  0  0
 37 66  1  0  0  0
 37104  1  0  0  0
 38 43  2  0  0  0
 38 46  1  0  0  0
 38 47  1  0  0  0
 39 64  1  0  0  0
 39 67  2  0  0  0
 40 52  1  0  0  0
 40 53  2  0  0  0
 40 58  1  0  0  0
 41105  1  0  0  0
 41106  1  0  0  0
 41107  1  0  0  0
 41 48  1  0  0  0
 42 43  1  0  0  0
 42 66  1  0  0  0
 42108  1  0  0  0
 42109  1  0  0  0
 43 44  1  0  0  0
 44110  1  0  0  0
 45 46  2  0  0  0
 45111  1  0  0  0
 46112  1  0  0  0
 47113  1  0  0  0
 47114  1  0  0  0
 48 56  1  0  0  0
 48 65  1  0  0  0
 48115  1  0  0  0
 49 50  1  0  0  0
 49 53  1  0  0  0
 49 64  1  0  0  0
 49116  1  0  0  0
 50 51  1  0  0  0
 50117  1  0  0  0
 50118  1  0  0  0
 51 52  1  0  0  0
 51119  1  0  0  0
 51120  1  0  0  0
 52121  1  0  0  0
 52122  1  0  0  0
 53 54  1  0  0  0
 54 55  2  0  0  0
 54123  1  0  0  0
 55 57  1  0  0  0
 55124  1  0  0  0
 56 69  2  0  0  0
 57 58  2  0  0  0
 57125  1  0  0  0
 58126  1  0  0  0
 59 60  1  0  0  0
 59 61  1  0  0  0
 59 62  1  0  0  0
 60127  1  0  0  0
 60128  1  0  0  0
 60129  1  0  0  0
 61130  1  0  0  0
 61131  1  0  0  0
 61132  1  0  0  0
 62133  1  0  0  0
 62134  1  0  0  0
 62135  1  0  0  0
 63 65  1  0  0  0
 63136  1  0  0  0
 63137  1  0  0  0
 63138  1  0  0  0
 64139  1  0  0  0
 65140  1  0  0  0
 68 78  1  0  0  0
 71 72  1  0  0  0
 71 73  2  0  0  0
 71141  1  0  0  0
 72 79  1  0  0  0
 72 80  2  0  0  0
 73 74  1  0  0  0
 73 81  1  0  0  0
 74142  1  0  0  0
 74143  1  0  0  0
 74144  1  0  0  0
 75145  1  0  0  0
 75146  1  0  0  0
 75147  1  0  0  0
 75 79  1  0  0  0
 76 79  1  0  0  0
 76148  1  0  0  0
 76149  1  0  0  0
 76150  1  0  0  0
 77 78  1  0  0  0
 77 81  1  0  0  0
 77151  1  0  0  0
 77152  1  0  0  0
 78153  1  0  0  0
 78154  1  0  0  0
 80 81  1  0  0  0
M  ISO  4   1 100  68 101  78 101  79 100
M  END
> <chiral flag>
0

> <version>
0

> <s_m_source_file>
/data/baiqing/PycharmProjects/Reinvent-master-3.2/result/LINK_invent/BTK/process_docking_weight1_custom_sum_contain_oxygen_bond_distance_aromatic_linkinvent_7_9_3/rearranged_h_0047.sdf

> <i_m_source_file_index>
41

> <r_mmod_Potential_Energy-OPLS-2005>
1538.5986328125

> <r_mmod_Stretch_Energy-OPLS-2005>
664.957092285156

> <r_mmod_Bend_Energy-OPLS-2005>
535.491516113281

> <r_mmod_Torsional_Energy-OPLS-2005>
220.693405151367

> <r_mmod_Improper_Torsional_Energy-OPLS-2005>
7.36878252029419

> <r_mmod_Van_der_Waal_Energy-OPLS-2005>
112.649490356445

> <r_mmod_Electrostatic_Energy-OPLS-2005>
-304.767242431641

> <r_mmod_Solvation_Energy-OPLS-2005>
-205.678787231445

> <b_mmod_Minimization_Converged-OPLS-2005>
0

> <r_mmod_RMS_Derivative-OPLS-2005>
0.923302531242371

$$$$
41
                    3D
 Structure written by MMmdl.
163171  0  0  1  0            999 V2000
  -30.5958  -14.7315   20.4571 C   0  0  0  0  0  0
  -30.4348  -12.4395   19.4787 C   0  0  0  0  0  0
  -29.5168  -12.5177   18.2374 C   0  0  0  0  0  0
  -28.0383  -12.3447   18.6411 C   0  0  0  0  0  0
  -27.6471  -13.2279   19.8561 C   0  0  2  0  0  0
  -28.6888  -13.1367   20.9938 C   0  0  0  0  0  0
  -25.2547  -13.8184   20.5678 C   0  0  0  0  0  0
  -24.1822  -13.0448   20.9187 C   0  0  0  0  0  0
  -24.6385  -11.6919   20.8724 C   0  0  0  0  0  0
  -23.9051  -10.4298   21.0377 C   0  0  0  0  0  0
  -24.3611   -9.4228   21.9174 C   0  0  0  0  0  0
  -23.6300   -8.2254   22.0751 C   0  0  0  0  0  0
  -22.4286   -8.0275   21.3529 C   0  0  0  0  0  0
  -21.9911   -9.0247   20.4636 C   0  0  0  0  0  0
  -22.7220  -10.2138   20.3037 C   0  0  0  0  0  0
  -21.6861   -6.0733   22.5274 C   0  0  0  0  0  0
  -21.4010   -6.5637   23.8211 C   0  0  0  0  0  0
  -21.3667   -5.6790   24.9172 C   0  0  0  0  0  0
  -21.6046   -4.3053   24.7218 C   0  0  0  0  0  0
  -21.8823   -3.8145   23.4341 C   0  0  0  0  0  0
  -21.9197   -4.6959   22.3397 C   0  0  0  0  0  0
  -22.7845  -13.5241   21.1845 C   0  0  0  0  0  0
  -22.1663   -4.2138   21.0977 F   0  0  0  0  0  0
  -21.5640   -3.4536   25.7735 F   0  0  0  0  0  0
  -29.9972  -13.4916   20.4267 N   0  0  0  0  0  0
  -26.2956  -12.9376   20.3272 N   0  0  0  0  0  0
  -25.9318  -11.6522   20.5712 N   0  0  0  0  0  0
  -22.0472  -12.8257   22.0408 N   0  0  0  0  0  0
  -25.4262  -15.1903   20.4080 N   0  0  0  0  0  0
  -31.7623  -14.8653   20.0771 O   0  0  0  0  0  0
  -21.6652   -6.8871   21.4233 O   0  0  0  0  0  0
  -22.3544  -14.5539   20.6678 O   0  0  0  0  0  0
  -24.6319  -31.8540   23.1991 C   0  0  0  0  0  0
  -25.9154  -32.4733   23.8328 C   0  0  1  0  0  0
  -27.2136  -27.2422   20.1259 C   0  0  0  0  0  0
  -25.5955  -33.8532   24.2255 N   0  0  0  0  0  0
  -23.4279  -30.4796   21.5410 C   0  0  2  0  0  0
  -24.8744  -28.9273   20.1093 C   0  0  0  0  0  0
  -22.7502  -29.4617   22.4900 C   0  0  0  0  0  0
  -18.0290  -28.1383   22.8482 C   0  0  0  0  0  0
  -24.1497  -36.7268   23.2639 C   0  0  0  0  0  0
  -25.9769  -30.7593   21.3845 C   0  0  0  0  0  0
  -26.0459  -29.3813   20.7259 C   0  0  0  0  0  0
  -27.2126  -28.5491   20.7288 C   0  0  0  0  0  0
  -26.0197  -26.8761   19.4568 C   0  0  0  0  0  0
  -24.8675  -27.6836   19.4661 C   0  0  0  0  0  0
  -23.6464  -29.8146   20.1572 C   0  0  0  0  0  0
  -25.4130  -36.3045   24.0316 C   0  0  1  0  0  0
  -20.5892  -28.3711   23.1255 C   0  0  2  0  0  0
  -20.6778  -26.9423   22.5399 C   0  0  0  0  0  0
  -19.5754  -26.6378   21.5201 C   0  0  0  0  0  0
  -18.1935  -26.7924   22.1609 C   0  0  0  0  0  0
  -19.1542  -28.8867   23.2860 C   0  0  0  0  0  0
  -18.9458  -30.1462   23.8885 C   0  0  0  0  0  0
  -17.6456  -30.6594   24.0555 C   0  0  0  0  0  0
  -25.9068  -34.9415   23.5090 C   0  0  0  0  0  0
  -16.5351  -29.9086   23.6331 C   0  0  0  0  0  0
  -16.7272  -28.6494   23.0368 C   0  0  0  0  0  0
  -26.4529  -31.6559   25.0721 C   0  0  0  0  0  0
  -25.3749  -31.3699   26.1432 C   0  0  0  0  0  0
  -27.0395  -30.2973   24.6236 C   0  0  0  0  0  0
  -27.6075  -32.4309   25.7500 C   0  0  0  0  0  0
  -27.5579  -37.1794   24.8463 C   0  0  0  0  0  0
  -21.4205  -29.3054   22.3643 N   0  0  0  0  0  0
  -26.4298  -37.3751   23.9401 N   0  0  0  0  0  0
  -24.6977  -31.0498   22.0965 N   0  0  0  0  0  0
  -23.4203  -28.8153   23.2994 O   0  0  0  0  0  0
  -28.3128  -26.3469   20.2252 O   0  0  0  0  0  0
  -26.5635  -34.8887   22.4651 O   0  0  0  0  0  0
  -23.5470  -32.1364   23.7287 O   0  0  0  0  0  0
  -30.6206  -22.9075   19.1293 C   0  0  0  0  0  0
  -31.2721  -21.7971   18.6704 C   0  0  0  0  0  0
  -29.6877  -21.1171   20.1123 C   0  0  0  0  0  0
  -32.4162  -21.6489   17.7217 C   0  0  0  0  0  0
  -28.5355  -20.5083   22.2611 C   0  0  0  0  0  0
  -27.6181  -19.6749   20.0986 C   0  0  0  0  0  0
  -29.6776  -18.5305   21.1636 C   0  0  0  0  0  0
  -28.7409  -23.6144   20.6310 C   0  0  0  0  0  0
  -29.8645  -17.2733   20.1584 C   0  0  0  0  0  0
  -28.2737  -24.9089   19.7483 C   0  0  0  0  0  0
  -28.9184  -19.9687   20.8656 C   0  0  0  0  0  0
  -29.6048  -22.5148   19.9712 N   0  0  0  0  0  0
  -30.6587  -20.7367   19.2732 N   0  3  0  0  0  0
  -29.7895  -15.8349   20.6931 N   0  0  0  0  0  0
  -31.4795  -12.5570   19.1838 H   0  0  0  0  0  0
  -30.3653  -11.4539   19.9433 H   0  0  0  0  0  0
  -29.8000  -11.7570   17.5089 H   0  0  0  0  0  0
  -29.6511  -13.4809   17.7429 H   0  0  0  0  0  0
  -27.8819  -11.2925   18.8830 H   0  0  0  0  0  0
  -27.3881  -12.5588   17.7904 H   0  0  0  0  0  0
  -27.6492  -14.2555   19.4936 H   0  0  0  0  0  0
  -28.7160  -12.1292   21.4109 H   0  0  0  0  0  0
  -28.4231  -13.8003   21.8186 H   0  0  0  0  0  0
  -25.2744   -9.5728   22.4756 H   0  0  0  0  0  0
  -24.0005   -7.4661   22.7488 H   0  0  0  0  0  0
  -21.0838   -8.8758   19.8957 H   0  0  0  0  0  0
  -22.3651  -10.9677   19.6154 H   0  0  0  0  0  0
  -21.1984   -7.6145   23.9711 H   0  0  0  0  0  0
  -21.1492   -6.0515   25.9076 H   0  0  0  0  0  0
  -22.0590   -2.7602   23.2846 H   0  0  0  0  0  0
  -22.4045  -11.9897   22.4796 H   0  0  0  0  0  0
  -21.1081  -13.1290   22.2546 H   0  0  0  0  0  0
  -24.6596  -15.8456   20.5119 H   0  0  0  0  0  0
  -26.2730  -15.6247   20.0655 H   0  0  0  0  0  0
  -26.7217  -32.5379   23.1064 H   0  0  0  0  0  0
  -25.0122  -33.9678   25.0411 H   0  0  0  0  0  0
  -22.7252  -31.3033   21.3969 H   0  0  0  0  0  0
  -23.3756  -35.9603   23.3288 H   0  0  0  0  0  0
  -24.3594  -36.8897   22.2055 H   0  0  0  0  0  0
  -23.7242  -37.6459   23.6683 H   0  0  0  0  0  0
  -26.1256  -31.5209   20.6177 H   0  0  0  0  0  0
  -26.8511  -30.8037   22.0228 H   0  0  0  0  0  0
  -28.1042  -28.8887   21.2378 H   0  0  0  0  0  0
  -25.9152  -25.9516   18.9175 H   0  0  0  0  0  0
  -23.9723  -27.3382   18.9675 H   0  0  0  0  0  0
  -23.7695  -30.5908   19.4004 H   0  0  0  0  0  0
  -22.7647  -29.2465   19.8535 H   0  0  0  0  0  0
  -25.1315  -36.1890   25.0810 H   0  0  0  0  0  0
  -20.9985  -28.3274   24.1375 H   0  0  0  0  0  0
  -20.5663  -26.2317   23.3604 H   0  0  0  0  0  0
  -21.6644  -26.7439   22.1192 H   0  0  0  0  0  0
  -19.6916  -25.6284   21.1242 H   0  0  0  0  0  0
  -19.6692  -27.3175   20.6720 H   0  0  0  0  0  0
  -17.4207  -26.6678   21.4012 H   0  0  0  0  0  0
  -18.0337  -26.0066   22.9001 H   0  0  0  0  0  0
  -19.7939  -30.7279   24.2240 H   0  0  0  0  0  0
  -17.5016  -31.6270   24.5159 H   0  0  0  0  0  0
  -15.5346  -30.2988   23.7665 H   0  0  0  0  0  0
  -15.8665  -28.0799   22.7117 H   0  0  0  0  0  0
  -24.5946  -30.7036   25.7741 H   0  0  0  0  0  0
  -24.8930  -32.2860   26.4852 H   0  0  0  0  0  0
  -25.8058  -30.8869   27.0206 H   0  0  0  0  0  0
  -26.2989  -29.6695   24.1274 H   0  0  0  0  0  0
  -27.4075  -29.7272   25.4774 H   0  0  0  0  0  0
  -27.8866  -30.4236   23.9494 H   0  0  0  0  0  0
  -27.2687  -33.3631   26.2037 H   0  0  0  0  0  0
  -28.3912  -32.6823   25.0341 H   0  0  0  0  0  0
  -28.0719  -31.8453   26.5445 H   0  0  0  0  0  0
  -28.2578  -38.0103   24.7518 H   0  0  0  0  0  0
  -28.1083  -36.2633   24.6289 H   0  0  0  0  0  0
  -27.2292  -37.1420   25.8858 H   0  0  0  0  0  0
  -20.9394  -29.8780   21.6849 H   0  0  0  0  0  0
  -26.0160  -38.2819   24.1396 H   0  0  0  0  0  0
  -30.8219  -23.9459   18.9026 H   0  0  0  0  0  0
  -32.9957  -22.5716   17.6832 H   0  0  0  0  0  0
  -32.0493  -21.4318   16.7186 H   0  0  0  0  0  0
  -33.0779  -20.8416   18.0346 H   0  0  0  0  0  0
  -27.8536  -21.3528   22.2121 H   0  0  0  0  0  0
  -29.4219  -20.8268   22.8111 H   0  0  0  0  0  0
  -28.0272  -19.7591   22.8682 H   0  0  0  0  0  0
  -26.9869  -20.5620   20.0299 H   0  0  0  0  0  0
  -27.0347  -18.8942   20.5900 H   0  0  0  0  0  0
  -27.8203  -19.3421   19.0802 H   0  0  0  0  0  0
  -30.6451  -18.7479   21.6179 H   0  0  0  0  0  0
  -29.1123  -18.0770   21.9775 H   0  0  0  0  0  0
  -27.8497  -23.1411   21.0374 H   0  0  0  0  0  0
  -29.3127  -23.9664   21.4891 H   0  0  0  0  0  0
  -30.8051  -17.3916   19.6184 H   0  0  0  0  0  0
  -29.0920  -17.3359   19.3917 H   0  0  0  0  0  0
  -27.2838  -24.6168   19.4197 H   0  0  0  0  0  0
  -28.8386  -24.9278   18.8182 H   0  0  0  0  0  0
  -30.9164  -19.7697   19.1228 H   0  0  0  0  0  0
  -28.8809  -15.5768   21.0501 H   0  0  0  0  0  0
  1 25  1  0  0  0
  1 30  2  0  0  0
  1 84  1  0  0  0
  2  3  1  0  0  0
  2 25  1  0  0  0
  2 85  1  0  0  0
  2 86  1  0  0  0
  3  4  1  0  0  0
  3 87  1  0  0  0
  3 88  1  0  0  0
  4  5  1  0  0  0
  4 89  1  0  0  0
  4 90  1  0  0  0
  5  6  1  0  0  0
  5 26  1  0  0  0
  5 91  1  0  0  0
  6 25  1  0  0  0
  6 92  1  0  0  0
  6 93  1  0  0  0
  7  8  2  0  0  0
  7 26  1  0  0  0
  7 29  1  0  0  0
  8  9  1  0  0  0
  8 22  1  0  0  0
  9 10  1  0  0  0
  9 27  2  0  0  0
 10 11  2  0  0  0
 10 15  1  0  0  0
 11 12  1  0  0  0
 11 94  1  0  0  0
 12 13  2  0  0  0
 12 95  1  0  0  0
 13 14  1  0  0  0
 13 31  1  0  0  0
 14 15  2  0  0  0
 14 96  1  0  0  0
 15 97  1  0  0  0
 16 17  2  0  0  0
 16 21  1  0  0  0
 16 31  1  0  0  0
 17 18  1  0  0  0
 17 98  1  0  0  0
 18 19  2  0  0  0
 18 99  1  0  0  0
 19 20  1  0  0  0
 19 24  1  0  0  0
 20 21  2  0  0  0
 20100  1  0  0  0
 21 23  1  0  0  0
 22 28  1  0  0  0
 22 32  2  0  0  0
 26 27  1  0  0  0
 28101  1  0  0  0
 28102  1  0  0  0
 29103  1  0  0  0
 29104  1  0  0  0
 33 34  1  0  0  0
 33 66  1  0  0  0
 33 70  2  0  0  0
 34 36  1  0  0  0
 34 59  1  0  0  0
 34105  1  0  0  0
 35 44  2  0  0  0
 35 45  1  0  0  0
 35 68  1  0  0  0
 36 56  1  0  0  0
 36106  1  0  0  0
 37 39  1  0  0  0
 37 47  1  0  0  0
 37 66  1  0  0  0
 37107  1  0  0  0
 38 43  2  0  0  0
 38 46  1  0  0  0
 38 47  1  0  0  0
 39 64  1  0  0  0
 39 67  2  0  0  0
 40 52  1  0  0  0
 40 53  2  0  0  0
 40 58  1  0  0  0
 41108  1  0  0  0
 41109  1  0  0  0
 41110  1  0  0  0
 41 48  1  0  0  0
 42 43  1  0  0  0
 42 66  1  0  0  0
 42111  1  0  0  0
 42112  1  0  0  0
 43 44  1  0  0  0
 44113  1  0  0  0
 45 46  2  0  0  0
 45114  1  0  0  0
 46115  1  0  0  0
 47116  1  0  0  0
 47117  1  0  0  0
 48 56  1  0  0  0
 48 65  1  0  0  0
 48118  1  0  0  0
 49 50  1  0  0  0
 49 53  1  0  0  0
 49 64  1  0  0  0
 49119  1  0  0  0
 50 51  1  0  0  0
 50120  1  0  0  0
 50121  1  0  0  0
 51 52  1  0  0  0
 51122  1  0  0  0
 51123  1  0  0  0
 52124  1  0  0  0
 52125  1  0  0  0
 53 54  1  0  0  0
 54 55  2  0  0  0
 54126  1  0  0  0
 55 57  1  0  0  0
 55127  1  0  0  0
 56 69  2  0  0  0
 57 58  2  0  0  0
 57128  1  0  0  0
 58129  1  0  0  0
 59 60  1  0  0  0
 59 61  1  0  0  0
 59 62  1  0  0  0
 60130  1  0  0  0
 60131  1  0  0  0
 60132  1  0  0  0
 61133  1  0  0  0
 61134  1  0  0  0
 61135  1  0  0  0
 62136  1  0  0  0
 62137  1  0  0  0
 62138  1  0  0  0
 63 65  1  0  0  0
 63139  1  0  0  0
 63140  1  0  0  0
 63141  1  0  0  0
 64142  1  0  0  0
 65143  1  0  0  0
 68 80  1  0  0  0
 71 72  2  0  0  0
 71 82  1  0  0  0
 71144  1  0  0  0
 72 74  1  0  0  0
 72 83  1  0  0  0
 73 81  1  0  0  0
 73 82  1  0  0  0
 73 83  2  0  0  0
 74145  1  0  0  0
 74146  1  0  0  0
 74147  1  0  0  0
 75148  1  0  0  0
 75149  1  0  0  0
 75150  1  0  0  0
 75 81  1  0  0  0
 76 81  1  0  0  0
 76151  1  0  0  0
 76152  1  0  0  0
 76153  1  0  0  0
 77 79  1  0  0  0
 77 81  1  0  0  0
 77154  1  0  0  0
 77155  1  0  0  0
 78 80  1  0  0  0
 78 82  1  0  0  0
 78156  1  0  0  0
 78157  1  0  0  0
 79 84  1  0  0  0
 79158  1  0  0  0
 79159  1  0  0  0
 80160  1  0  0  0
 80161  1  0  0  0
 83162  1  0  0  0
 84163  1  0  0  0
M  CHG  1  83   1
M  ISO  4   1 100  68 101  80 101  84 100
M  END
> <chiral flag>
0

> <version>
0

> <s_m_source_file>
/data/baiqing/PycharmProjects/Reinvent-master-3.2/result/LINK_invent/BTK/process_docking_weight1_custom_sum_contain_oxygen_bond_distance_aromatic_linkinvent_7_9_3/rearranged_h_0047.sdf

> <i_m_source_file_index>
42

> <r_mmod_Potential_Energy-OPLS-2005>
234.875503540039

> <r_mmod_Stretch_Energy-OPLS-2005>
146.043106079102

> <r_mmod_Bend_Energy-OPLS-2005>
232.321411132812

> <r_mmod_Torsional_Energy-OPLS-2005>
259.164611816406

> <r_mmod_Improper_Torsional_Energy-OPLS-2005>
7.0986499786377

> <r_mmod_Van_der_Waal_Energy-OPLS-2005>
119.92488861084

> <r_mmod_Electrostatic_Energy-OPLS-2005>
-203.358367919922

> <r_mmod_Solvation_Energy-OPLS-2005>
-413.451904296875

> <b_mmod_Minimization_Converged-OPLS-2005>
0

> <r_mmod_RMS_Derivative-OPLS-2005>
2.07083487510681

$$$$
42
                    3D
 Structure written by MMmdl.
151159  0  0  1  0            999 V2000
  -30.5388  -14.8959   20.4413 C   0  0  0  0  0  0
  -30.4433  -12.5544   19.4838 C   0  0  0  0  0  0
  -29.5186  -12.5191   18.2453 C   0  0  0  0  0  0
  -28.0499  -12.3120   18.6663 C   0  0  0  0  0  0
  -27.6314  -13.2377   19.8383 C   0  0  2  0  0  0
  -28.6755  -13.2321   20.9729 C   0  0  0  0  0  0
  -25.2477  -13.8189   20.5721 C   0  0  0  0  0  0
  -24.1782  -13.0430   20.9238 C   0  0  0  0  0  0
  -24.6378  -11.6912   20.8766 C   0  0  0  0  0  0
  -23.9057  -10.4288   21.0421 C   0  0  0  0  0  0
  -24.3611   -9.4202   21.9195 C   0  0  0  0  0  0
  -23.6288   -8.2233   22.0752 C   0  0  0  0  0  0
  -22.4271   -8.0270   21.3541 C   0  0  0  0  0  0
  -21.9908   -9.0244   20.4647 C   0  0  0  0  0  0
  -22.7233  -10.2127   20.3063 C   0  0  0  0  0  0
  -21.6852   -6.0735   22.5279 C   0  0  0  0  0  0
  -21.4019   -6.5639   23.8214 C   0  0  0  0  0  0
  -21.3662   -5.6788   24.9177 C   0  0  0  0  0  0
  -21.6039   -4.3049   24.7226 C   0  0  0  0  0  0
  -21.8814   -3.8144   23.4346 C   0  0  0  0  0  0
  -21.9192   -4.6964   22.3405 C   0  0  0  0  0  0
  -22.7809  -13.5216   21.1892 C   0  0  0  0  0  0
  -22.1661   -4.2147   21.0983 F   0  0  0  0  0  0
  -21.5626   -3.4536   25.7742 F   0  0  0  0  0  0
  -29.9534  -13.6389   20.3751 N   0  0  0  0  0  0
  -26.2886  -12.9397   20.3244 N   0  0  0  0  0  0
  -25.9307  -11.6536   20.5742 N   0  0  0  0  0  0
  -22.0449  -12.8211   22.0442 N   0  0  0  0  0  0
  -25.4154  -15.1922   20.4152 N   0  0  0  0  0  0
  -31.7480  -14.9881   20.2047 O   0  0  0  0  0  0
  -21.6633   -6.8872   21.4235 O   0  0  0  0  0  0
  -22.3504  -14.5519   20.6727 O   0  0  0  0  0  0
  -24.6414  -31.8458   23.1891 C   0  0  0  0  0  0
  -25.9189  -32.4701   23.8278 C   0  0  1  0  0  0
  -27.2175  -27.1624   20.1626 C   0  0  0  0  0  0
  -25.5942  -33.8508   24.2197 N   0  0  0  0  0  0
  -23.4442  -30.4644   21.5341 C   0  0  2  0  0  0
  -24.8953  -28.8923   20.1141 C   0  0  0  0  0  0
  -22.7558  -29.4552   22.4869 C   0  0  0  0  0  0
  -18.0303  -28.1392   22.8476 C   0  0  0  0  0  0
  -24.1491  -36.7268   23.2643 C   0  0  0  0  0  0
  -25.9975  -30.7290   21.3834 C   0  0  0  0  0  0
  -26.0714  -29.3406   20.7306 C   0  0  0  0  0  0
  -27.2392  -28.4928   20.7355 C   0  0  0  0  0  0
  -26.0199  -26.8057   19.5098 C   0  0  0  0  0  0
  -24.8804  -27.6369   19.4872 C   0  0  0  0  0  0
  -23.6701  -29.7914   20.1543 C   0  0  0  0  0  0
  -25.4120  -36.3042   24.0319 C   0  0  1  0  0  0
  -20.5914  -28.3719   23.1240 C   0  0  2  0  0  0
  -20.6786  -26.9421   22.5408 C   0  0  0  0  0  0
  -19.5758  -26.6380   21.5215 C   0  0  0  0  0  0
  -18.1940  -26.7930   22.1625 C   0  0  0  0  0  0
  -19.1559  -28.8874   23.2848 C   0  0  0  0  0  0
  -18.9474  -30.1470   23.8875 C   0  0  0  0  0  0
  -17.6471  -30.6591   24.0559 C   0  0  0  0  0  0
  -25.9066  -34.9415   23.5067 C   0  0  0  0  0  0
  -16.5363  -29.9084   23.6335 C   0  0  0  0  0  0
  -16.7288  -28.6501   23.0356 C   0  0  0  0  0  0
  -26.4525  -31.6563   25.0711 C   0  0  0  0  0  0
  -25.3714  -31.3744   26.1407 C   0  0  0  0  0  0
  -27.0385  -30.2960   24.6270 C   0  0  0  0  0  0
  -27.6048  -32.4333   25.7502 C   0  0  0  0  0  0
  -27.5578  -37.1793   24.8467 C   0  0  0  0  0  0
  -21.4253  -29.3049   22.3619 N   0  0  0  0  0  0
  -26.4291  -37.3748   23.9405 N   0  0  0  0  0  0
  -24.7137  -31.0340   22.0909 N   0  0  0  0  0  0
  -23.4212  -28.8102   23.3013 O   0  0  0  0  0  0
  -28.2612  -26.1787   20.1787 O   0  0  0  0  0  0
  -26.5652  -34.8911   22.4645 O   0  0  0  0  0  0
  -23.5537  -32.1322   23.7132 O   0  0  0  0  0  0
  -27.7855  -21.0426   19.9442 C   0  0  0  0  0  0
  -29.0249  -20.3964   20.2782 C   0  0  0  0  0  0
  -29.7377  -22.6559   20.7930 C   0  0  0  0  0  0
  -28.4885  -23.2984   20.4401 C   0  0  0  0  0  0
  -30.8507  -23.4749   21.4151 C   0  0  0  0  0  0
  -29.2843  -18.8037   19.9232 C   0  0  0  0  0  0
  -27.9887  -24.8188   20.8518 C   0  0  0  0  0  0
  -29.9583  -17.5808   20.8377 C   0  0  0  0  0  0
  -27.5298  -22.4066   20.0201 N   0  0  0  0  0  0
  -30.0061  -21.2812   20.6770 N   0  0  0  0  0  0
  -29.7217  -16.0431   20.5770 N   0  0  0  0  0  0
  -30.4309  -11.5949   20.0042 H   0  0  0  0  0  0
  -31.4770  -12.7184   19.1759 H   0  0  0  0  0  0
  -29.8291  -11.7271   17.5617 H   0  0  0  0  0  0
  -29.6128  -13.4561   17.6934 H   0  0  0  0  0  0
  -27.9421  -11.2707   18.9718 H   0  0  0  0  0  0
  -27.3859  -12.4486   17.8121 H   0  0  0  0  0  0
  -27.6045  -14.2452   19.4226 H   0  0  0  0  0  0
  -28.3841  -13.9203   21.7682 H   0  0  0  0  0  0
  -28.7541  -12.2441   21.4306 H   0  0  0  0  0  0
  -25.2756   -9.5683   22.4766 H   0  0  0  0  0  0
  -24.0001   -7.4628   22.7471 H   0  0  0  0  0  0
  -21.0839   -8.8766   19.8961 H   0  0  0  0  0  0
  -22.3692  -10.9663   19.6172 H   0  0  0  0  0  0
  -21.2011   -7.6146   23.9723 H   0  0  0  0  0  0
  -21.1495   -6.0521   25.9081 H   0  0  0  0  0  0
  -22.0592   -2.7606   23.2851 H   0  0  0  0  0  0
  -22.4059  -11.9877   22.4837 H   0  0  0  0  0  0
  -21.1064  -13.1244   22.2634 H   0  0  0  0  0  0
  -24.6437  -15.8412   20.5239 H   0  0  0  0  0  0
  -26.2501  -15.6324   20.0519 H   0  0  0  0  0  0
  -26.7254  -32.5329   23.1010 H   0  0  0  0  0  0
  -25.0068  -33.9618   25.0332 H   0  0  0  0  0  0
  -22.7456  -31.2892   21.3793 H   0  0  0  0  0  0
  -23.3753  -35.9600   23.3298 H   0  0  0  0  0  0
  -24.3576  -36.8904   22.2058 H   0  0  0  0  0  0
  -23.7250  -37.6465   23.6681 H   0  0  0  0  0  0
  -26.1478  -31.4819   20.6091 H   0  0  0  0  0  0
  -26.8699  -30.7823   22.0226 H   0  0  0  0  0  0
  -28.1392  -28.8333   21.2286 H   0  0  0  0  0  0
  -25.9527  -25.8392   19.0297 H   0  0  0  0  0  0
  -23.9841  -27.2891   18.9929 H   0  0  0  0  0  0
  -23.8047  -30.5641   19.3962 H   0  0  0  0  0  0
  -22.7863  -29.2297   19.8460 H   0  0  0  0  0  0
  -25.1310  -36.1875   25.0813 H   0  0  0  0  0  0
  -21.0001  -28.3303   24.1361 H   0  0  0  0  0  0
  -20.5676  -26.2328   23.3622 H   0  0  0  0  0  0
  -21.6651  -26.7423   22.1205 H   0  0  0  0  0  0
  -19.6916  -25.6285   21.1255 H   0  0  0  0  0  0
  -19.6698  -27.3180   20.6733 H   0  0  0  0  0  0
  -17.4209  -26.6673   21.4031 H   0  0  0  0  0  0
  -18.0342  -26.0081   22.9028 H   0  0  0  0  0  0
  -19.7952  -30.7290   24.2237 H   0  0  0  0  0  0
  -17.5026  -31.6269   24.5162 H   0  0  0  0  0  0
  -15.5362  -30.2978   23.7675 H   0  0  0  0  0  0
  -15.8685  -28.0813   22.7084 H   0  0  0  0  0  0
  -24.5895  -30.7087   25.7737 H   0  0  0  0  0  0
  -24.8902  -32.2922   26.4793 H   0  0  0  0  0  0
  -25.8005  -30.8948   27.0212 H   0  0  0  0  0  0
  -26.2992  -29.6686   24.1272 H   0  0  0  0  0  0
  -27.4000  -29.7258   25.4840 H   0  0  0  0  0  0
  -27.8904  -30.4206   23.9579 H   0  0  0  0  0  0
  -27.2620  -33.3637   26.2041 H   0  0  0  0  0  0
  -28.3879  -32.6884   25.0350 H   0  0  0  0  0  0
  -28.0688  -31.8482   26.5452 H   0  0  0  0  0  0
  -28.2595  -38.0090   24.7497 H   0  0  0  0  0  0
  -28.1072  -36.2617   24.6313 H   0  0  0  0  0  0
  -27.2289  -37.1464   25.8868 H   0  0  0  0  0  0
  -20.9460  -29.8765   21.6804 H   0  0  0  0  0  0
  -26.0162  -38.2822   24.1392 H   0  0  0  0  0  0
  -26.9667  -20.4485   19.5638 H   0  0  0  0  0  0
  -30.5586  -23.8162   22.4088 H   0  0  0  0  0  0
  -31.0690  -24.3509   20.8047 H   0  0  0  0  0  0
  -31.7684  -22.8948   21.5180 H   0  0  0  0  0  0
  -29.8332  -18.8188   18.9814 H   0  0  0  0  0  0
  -28.2985  -18.4370   19.6380 H   0  0  0  0  0  0
  -28.3692  -24.9559   21.8636 H   0  0  0  0  0  0
  -26.9115  -24.7372   21.0036 H   0  0  0  0  0  0
  -31.0341  -17.7484   20.8936 H   0  0  0  0  0  0
  -29.5998  -17.7339   21.8558 H   0  0  0  0  0  0
  -28.7471  -15.7895   20.6374 H   0  0  0  0  0  0
  1 25  1  0  0  0
  1 30  2  0  0  0
  1 81  1  0  0  0
  2  3  1  0  0  0
  2 25  1  0  0  0
  2 82  1  0  0  0
  2 83  1  0  0  0
  3  4  1  0  0  0
  3 84  1  0  0  0
  3 85  1  0  0  0
  4  5  1  0  0  0
  4 86  1  0  0  0
  4 87  1  0  0  0
  5  6  1  0  0  0
  5 26  1  0  0  0
  5 88  1  0  0  0
  6 25  1  0  0  0
  6 89  1  0  0  0
  6 90  1  0  0  0
  7  8  2  0  0  0
  7 26  1  0  0  0
  7 29  1  0  0  0
  8  9  1  0  0  0
  8 22  1  0  0  0
  9 10  1  0  0  0
  9 27  2  0  0  0
 10 11  2  0  0  0
 10 15  1  0  0  0
 11 12  1  0  0  0
 11 91  1  0  0  0
 12 13  2  0  0  0
 12 92  1  0  0  0
 13 14  1  0  0  0
 13 31  1  0  0  0
 14 15  2  0  0  0
 14 93  1  0  0  0
 15 94  1  0  0  0
 16 17  2  0  0  0
 16 21  1  0  0  0
 16 31  1  0  0  0
 17 18  1  0  0  0
 17 95  1  0  0  0
 18 19  2  0  0  0
 18 96  1  0  0  0
 19 20  1  0  0  0
 19 24  1  0  0  0
 20 21  2  0  0  0
 20 97  1  0  0  0
 21 23  1  0  0  0
 22 28  1  0  0  0
 22 32  2  0  0  0
 26 27  1  0  0  0
 28 98  1  0  0  0
 28 99  1  0  0  0
 29100  1  0  0  0
 29101  1  0  0  0
 33 34  1  0  0  0
 33 66  1  0  0  0
 33 70  2  0  0  0
 34 36  1  0  0  0
 34 59  1  0  0  0
 34102  1  0  0  0
 35 44  2  0  0  0
 35 45  1  0  0  0
 35 68  1  0  0  0
 36 56  1  0  0  0
 36103  1  0  0  0
 37 39  1  0  0  0
 37 47  1  0  0  0
 37 66  1  0  0  0
 37104  1  0  0  0
 38 43  2  0  0  0
 38 46  1  0  0  0
 38 47  1  0  0  0
 39 64  1  0  0  0
 39 67  2  0  0  0
 40 52  1  0  0  0
 40 53  2  0  0  0
 40 58  1  0  0  0
 41105  1  0  0  0
 41106  1  0  0  0
 41107  1  0  0  0
 41 48  1  0  0  0
 42 43  1  0  0  0
 42 66  1  0  0  0
 42108  1  0  0  0
 42109  1  0  0  0
 43 44  1  0  0  0
 44110  1  0  0  0
 45 46  2  0  0  0
 45111  1  0  0  0
 46112  1  0  0  0
 47113  1  0  0  0
 47114  1  0  0  0
 48 56  1  0  0  0
 48 65  1  0  0  0
 48115  1  0  0  0
 49 50  1  0  0  0
 49 53  1  0  0  0
 49 64  1  0  0  0
 49116  1  0  0  0
 50 51  1  0  0  0
 50117  1  0  0  0
 50118  1  0  0  0
 51 52  1  0  0  0
 51119  1  0  0  0
 51120  1  0  0  0
 52121  1  0  0  0
 52122  1  0  0  0
 53 54  1  0  0  0
 54 55  2  0  0  0
 54123  1  0  0  0
 55 57  1  0  0  0
 55124  1  0  0  0
 56 69  2  0  0  0
 57 58  2  0  0  0
 57125  1  0  0  0
 58126  1  0  0  0
 59 60  1  0  0  0
 59 61  1  0  0  0
 59 62  1  0  0  0
 60127  1  0  0  0
 60128  1  0  0  0
 60129  1  0  0  0
 61130  1  0  0  0
 61131  1  0  0  0
 61132  1  0  0  0
 62133  1  0  0  0
 62134  1  0  0  0
 62135  1  0  0  0
 63 65  1  0  0  0
 63136  1  0  0  0
 63137  1  0  0  0
 63138  1  0  0  0
 64139  1  0  0  0
 65140  1  0  0  0
 68 77  1  0  0  0
 71 72  2  0  0  0
 71 79  1  0  0  0
 71141  1  0  0  0
 72 76  1  0  0  0
 72 80  1  0  0  0
 73 74  1  0  0  0
 73 75  1  0  0  0
 73 80  2  0  0  0
 74 77  1  0  0  0
 74 79  2  0  0  0
 75142  1  0  0  0
 75143  1  0  0  0
 75144  1  0  0  0
 76 78  1  0  0  0
 76145  1  0  0  0
 76146  1  0  0  0
 77147  1  0  0  0
 77148  1  0  0  0
 78 81  1  0  0  0
 78149  1  0  0  0
 78150  1  0  0  0
 81151  1  0  0  0
M  ISO  4   1 100  68 101  77 101  81 100
M  END
> <chiral flag>
0

> <version>
0

> <s_m_source_file>
/data/baiqing/PycharmProjects/Reinvent-master-3.2/result/LINK_invent/BTK/process_docking_weight1_custom_sum_contain_oxygen_bond_distance_aromatic_linkinvent_7_9_3/rearranged_h_0047.sdf

> <i_m_source_file_index>
43

> <r_mmod_Potential_Energy-OPLS-2005>
493.975067138672

> <r_mmod_Stretch_Energy-OPLS-2005>
218.090408325195

> <r_mmod_Bend_Energy-OPLS-2005>
259.072784423828

> <r_mmod_Torsional_Energy-OPLS-2005>
236.587966918945

> <r_mmod_Improper_Torsional_Energy-OPLS-2005>
8.1905345916748

> <r_mmod_Van_der_Waal_Energy-OPLS-2005>
132.505310058594

> <r_mmod_Electrostatic_Energy-OPLS-2005>
-294.635925292969

> <r_mmod_Solvation_Energy-OPLS-2005>
-231.979736328125

> <b_mmod_Minimization_Converged-OPLS-2005>
0

> <r_mmod_RMS_Derivative-OPLS-2005>
1.54867112636566

$$$$
43
                    3D
 Structure written by MMmdl.
154162  0  0  1  0            999 V2000
  -30.5977  -14.7292   20.4594 C   0  0  0  0  0  0
  -30.4319  -12.4449   19.4669 C   0  0  0  0  0  0
  -29.5087  -12.5087   18.2305 C   0  0  0  0  0  0
  -28.0330  -12.3346   18.6415 C   0  0  0  0  0  0
  -27.6398  -13.2271   19.8491 C   0  0  2  0  0  0
  -28.6831  -13.1476   20.9839 C   0  0  0  0  0  0
  -25.2490  -13.8182   20.5659 C   0  0  0  0  0  0
  -24.1787  -13.0440   20.9204 C   0  0  0  0  0  0
  -24.6375  -11.6912   20.8748 C   0  0  0  0  0  0
  -23.9051  -10.4297   21.0408 C   0  0  0  0  0  0
  -24.3611   -9.4215   21.9190 C   0  0  0  0  0  0
  -23.6291   -8.2249   22.0759 C   0  0  0  0  0  0
  -22.4270   -8.0283   21.3551 C   0  0  0  0  0  0
  -21.9895   -9.0247   20.4647 C   0  0  0  0  0  0
  -22.7216  -10.2139   20.3057 C   0  0  0  0  0  0
  -21.6863   -6.0730   22.5281 C   0  0  0  0  0  0
  -21.4017   -6.5639   23.8216 C   0  0  0  0  0  0
  -21.3663   -5.6788   24.9175 C   0  0  0  0  0  0
  -21.6051   -4.3053   24.7224 C   0  0  0  0  0  0
  -21.8821   -3.8148   23.4347 C   0  0  0  0  0  0
  -21.9194   -4.6959   22.3397 C   0  0  0  0  0  0
  -22.7806  -13.5227   21.1856 C   0  0  0  0  0  0
  -22.1656   -4.2148   21.0974 F   0  0  0  0  0  0
  -21.5634   -3.4534   25.7734 F   0  0  0  0  0  0
  -29.9840  -13.4992   20.4029 N   0  0  0  0  0  0
  -26.2916  -12.9378   20.3252 N   0  0  0  0  0  0
  -25.9306  -11.6531   20.5741 N   0  0  0  0  0  0
  -22.0437  -12.8243   22.0419 N   0  0  0  0  0  0
  -25.4163  -15.1905   20.4045 N   0  0  0  0  0  0
  -31.7888  -14.8417   20.1594 O   0  0  0  0  0  0
  -21.6644   -6.8875   21.4248 O   0  0  0  0  0  0
  -22.3500  -14.5524   20.6680 O   0  0  0  0  0  0
  -24.6297  -31.8562   23.1959 C   0  0  0  0  0  0
  -25.9128  -32.4748   23.8317 C   0  0  1  0  0  0
  -27.2200  -27.2697   20.1381 C   0  0  0  0  0  0
  -25.5935  -33.8551   24.2248 N   0  0  0  0  0  0
  -23.4255  -30.4763   21.5395 C   0  0  2  0  0  0
  -24.8732  -28.9173   20.1131 C   0  0  0  0  0  0
  -22.7500  -29.4602   22.4914 C   0  0  0  0  0  0
  -18.0295  -28.1390   22.8484 C   0  0  0  0  0  0
  -24.1499  -36.7285   23.2638 C   0  0  0  0  0  0
  -25.9696  -30.7720   21.3727 C   0  0  0  0  0  0
  -26.0433  -29.3927   20.7191 C   0  0  0  0  0  0
  -27.2224  -28.5837   20.7139 C   0  0  0  0  0  0
  -26.0301  -26.8532   19.5066 C   0  0  0  0  0  0
  -24.8710  -27.6563   19.4932 C   0  0  0  0  0  0
  -23.6435  -29.8043   20.1575 C   0  0  0  0  0  0
  -25.4120  -36.3064   24.0323 C   0  0  1  0  0  0
  -20.5900  -28.3696   23.1280 C   0  0  2  0  0  0
  -20.6784  -26.9414   22.5412 C   0  0  0  0  0  0
  -19.5757  -26.6385   21.5218 C   0  0  0  0  0  0
  -18.1937  -26.7928   22.1627 C   0  0  0  0  0  0
  -19.1549  -28.8861   23.2877 C   0  0  0  0  0  0
  -18.9468  -30.1464   23.8892 C   0  0  0  0  0  0
  -17.6466  -30.6585   24.0566 C   0  0  0  0  0  0
  -25.9060  -34.9436   23.5087 C   0  0  0  0  0  0
  -16.5359  -29.9082   23.6330 C   0  0  0  0  0  0
  -16.7280  -28.6504   23.0342 C   0  0  0  0  0  0
  -26.4500  -31.6565   25.0702 C   0  0  0  0  0  0
  -25.3727  -31.3701   26.1424 C   0  0  0  0  0  0
  -27.0341  -30.2978   24.6179 C   0  0  0  0  0  0
  -27.6049  -32.4308   25.7480 C   0  0  0  0  0  0
  -27.5581  -37.1795   24.8463 C   0  0  0  0  0  0
  -21.4208  -29.3045   22.3669 N   0  0  0  0  0  0
  -26.4292  -37.3760   23.9406 N   0  0  0  0  0  0
  -24.6938  -31.0542   22.0920 N   0  0  0  0  0  0
  -23.4209  -28.8149   23.3009 O   0  0  0  0  0  0
  -28.3293  -26.4018   20.1443 O   0  0  0  0  0  0
  -26.5633  -34.8914   22.4657 O   0  0  0  0  0  0
  -23.5455  -32.1379   23.7273 O   0  0  0  0  0  0
  -30.3354  -20.6582   21.1699 C   0  0  0  0  0  0
  -29.3510  -20.0013   20.4670 C   0  0  0  0  0  0
  -29.1054  -22.3139   20.2425 C   0  0  0  0  0  0
  -27.4099  -20.9440   19.0793 C   0  0  0  0  0  0
  -29.0560  -18.4542   20.2999 C   0  0  0  0  0  0
  -28.7667  -23.7649   19.6898 C   0  0  0  0  0  0
  -30.1805  -17.3362   20.6422 C   0  0  0  0  0  0
  -28.1725  -24.9699   20.5815 C   0  0  0  0  0  0
  -28.5975  -21.0746   19.9274 N   0  0  0  0  0  0
  -30.1579  -22.0211   21.0197 N   0  3  0  0  0  0
  -29.8041  -15.8501   20.6481 N   0  0  0  0  0  0
  -31.4733  -12.5750   19.1682 H   0  0  0  0  0  0
  -30.3765  -11.4638   19.9407 H   0  0  0  0  0  0
  -29.7902  -11.7415   17.5080 H   0  0  0  0  0  0
  -29.6372  -13.4675   17.7259 H   0  0  0  0  0  0
  -27.8838  -11.2844   18.8953 H   0  0  0  0  0  0
  -27.3789  -12.5390   17.7925 H   0  0  0  0  0  0
  -27.6380  -14.2509   19.4774 H   0  0  0  0  0  0
  -28.7129  -12.1459   21.4132 H   0  0  0  0  0  0
  -28.4206  -13.8234   21.8003 H   0  0  0  0  0  0
  -25.2768   -9.5702   22.4752 H   0  0  0  0  0  0
  -24.0020   -7.4642   22.7475 H   0  0  0  0  0  0
  -21.0834   -8.8752   19.8941 H   0  0  0  0  0  0
  -22.3675  -10.9670   19.6161 H   0  0  0  0  0  0
  -21.2009   -7.6146   23.9713 H   0  0  0  0  0  0
  -21.1482   -6.0519   25.9076 H   0  0  0  0  0  0
  -22.0597   -2.7608   23.2840 H   0  0  0  0  0  0
  -22.4041  -11.9944   22.4891 H   0  0  0  0  0  0
  -21.1030  -13.1262   22.2535 H   0  0  0  0  0  0
  -24.6426  -15.8392   20.5068 H   0  0  0  0  0  0
  -26.2562  -15.6293   20.0513 H   0  0  0  0  0  0
  -26.7190  -32.5402   23.1055 H   0  0  0  0  0  0
  -25.0083  -33.9694   25.0396 H   0  0  0  0  0  0
  -22.7205  -31.2969   21.3904 H   0  0  0  0  0  0
  -23.3759  -35.9619   23.3290 H   0  0  0  0  0  0
  -24.3594  -36.8925   22.2057 H   0  0  0  0  0  0
  -23.7258  -37.6482   23.6677 H   0  0  0  0  0  0
  -26.1085  -31.5330   20.6040 H   0  0  0  0  0  0
  -26.8472  -30.8227   22.0052 H   0  0  0  0  0  0
  -28.1227  -28.9474   21.1880 H   0  0  0  0  0  0
  -25.9912  -25.8879   19.0220 H   0  0  0  0  0  0
  -23.9752  -27.2914   19.0085 H   0  0  0  0  0  0
  -23.7647  -30.5780   19.3985 H   0  0  0  0  0  0
  -22.7627  -29.2352   19.8546 H   0  0  0  0  0  0
  -25.1303  -36.1897   25.0812 H   0  0  0  0  0  0
  -20.9991  -28.3273   24.1404 H   0  0  0  0  0  0
  -20.5685  -26.2306   23.3618 H   0  0  0  0  0  0
  -21.6650  -26.7440   22.1203 H   0  0  0  0  0  0
  -19.6919  -25.6297   21.1247 H   0  0  0  0  0  0
  -19.6689  -27.3199   20.6753 H   0  0  0  0  0  0
  -17.4204  -26.6680   21.4032 H   0  0  0  0  0  0
  -18.0329  -26.0075   22.9027 H   0  0  0  0  0  0
  -19.7945  -30.7289   24.2252 H   0  0  0  0  0  0
  -17.5014  -31.6261   24.5175 H   0  0  0  0  0  0
  -15.5354  -30.2975   23.7657 H   0  0  0  0  0  0
  -15.8684  -28.0820   22.7047 H   0  0  0  0  0  0
  -24.5919  -30.7028   25.7749 H   0  0  0  0  0  0
  -24.8905  -32.2870   26.4827 H   0  0  0  0  0  0
  -25.8064  -30.8894   27.0207 H   0  0  0  0  0  0
  -26.2917  -29.6717   24.1212 H   0  0  0  0  0  0
  -27.4033  -29.7233   25.4688 H   0  0  0  0  0  0
  -27.8794  -30.4242   23.9407 H   0  0  0  0  0  0
  -27.2649  -33.3614   26.2032 H   0  0  0  0  0  0
  -28.3874  -32.6857   25.0319 H   0  0  0  0  0  0
  -28.0705  -31.8450   26.5418 H   0  0  0  0  0  0
  -28.2576  -38.0110   24.7514 H   0  0  0  0  0  0
  -28.1097  -36.2639   24.6277 H   0  0  0  0  0  0
  -27.2305  -37.1426   25.8867 H   0  0  0  0  0  0
  -20.9393  -29.8764   21.6874 H   0  0  0  0  0  0
  -26.0167  -38.2831   24.1394 H   0  0  0  0  0  0
  -31.1530  -20.2595   21.7547 H   0  0  0  0  0  0
  -26.9366  -19.9787   19.2538 H   0  0  0  0  0  0
  -27.7049  -21.0239   18.0327 H   0  0  0  0  0  0
  -26.6956  -21.7312   19.3241 H   0  0  0  0  0  0
  -28.7347  -18.2951   19.2701 H   0  0  0  0  0  0
  -28.1766  -18.2413   20.9087 H   0  0  0  0  0  0
  -28.1327  -23.6280   18.8150 H   0  0  0  0  0  0
  -29.7212  -24.1117   19.2945 H   0  0  0  0  0  0
  -30.5818  -17.5536   21.6332 H   0  0  0  0  0  0
  -31.0150  -17.4707   19.9524 H   0  0  0  0  0  0
  -28.6749  -24.9251   21.5479 H   0  0  0  0  0  0
  -27.1290  -24.7463   20.8073 H   0  0  0  0  0  0
  -30.7854  -22.7143   21.4111 H   0  0  0  0  0  0
  -28.8332  -15.6484   20.8346 H   0  0  0  0  0  0
  1 25  1  0  0  0
  1 30  2  0  0  0
  1 81  1  0  0  0
  2  3  1  0  0  0
  2 25  1  0  0  0
  2 82  1  0  0  0
  2 83  1  0  0  0
  3  4  1  0  0  0
  3 84  1  0  0  0
  3 85  1  0  0  0
  4  5  1  0  0  0
  4 86  1  0  0  0
  4 87  1  0  0  0
  5  6  1  0  0  0
  5 26  1  0  0  0
  5 88  1  0  0  0
  6 25  1  0  0  0
  6 89  1  0  0  0
  6 90  1  0  0  0
  7  8  2  0  0  0
  7 26  1  0  0  0
  7 29  1  0  0  0
  8  9  1  0  0  0
  8 22  1  0  0  0
  9 10  1  0  0  0
  9 27  2  0  0  0
 10 11  2  0  0  0
 10 15  1  0  0  0
 11 12  1  0  0  0
 11 91  1  0  0  0
 12 13  2  0  0  0
 12 92  1  0  0  0
 13 14  1  0  0  0
 13 31  1  0  0  0
 14 15  2  0  0  0
 14 93  1  0  0  0
 15 94  1  0  0  0
 16 17  2  0  0  0
 16 21  1  0  0  0
 16 31  1  0  0  0
 17 18  1  0  0  0
 17 95  1  0  0  0
 18 19  2  0  0  0
 18 96  1  0  0  0
 19 20  1  0  0  0
 19 24  1  0  0  0
 20 21  2  0  0  0
 20 97  1  0  0  0
 21 23  1  0  0  0
 22 28  1  0  0  0
 22 32  2  0  0  0
 26 27  1  0  0  0
 28 98  1  0  0  0
 28 99  1  0  0  0
 29100  1  0  0  0
 29101  1  0  0  0
 33 34  1  0  0  0
 33 66  1  0  0  0
 33 70  2  0  0  0
 34 36  1  0  0  0
 34 59  1  0  0  0
 34102  1  0  0  0
 35 44  2  0  0  0
 35 45  1  0  0  0
 35 68  1  0  0  0
 36 56  1  0  0  0
 36103  1  0  0  0
 37 39  1  0  0  0
 37 47  1  0  0  0
 37 66  1  0  0  0
 37104  1  0  0  0
 38 43  2  0  0  0
 38 46  1  0  0  0
 38 47  1  0  0  0
 39 64  1  0  0  0
 39 67  2  0  0  0
 40 52  1  0  0  0
 40 53  2  0  0  0
 40 58  1  0  0  0
 41105  1  0  0  0
 41106  1  0  0  0
 41107  1  0  0  0
 41 48  1  0  0  0
 42 43  1  0  0  0
 42 66  1  0  0  0
 42108  1  0  0  0
 42109  1  0  0  0
 43 44  1  0  0  0
 44110  1  0  0  0
 45 46  2  0  0  0
 45111  1  0  0  0
 46112  1  0  0  0
 47113  1  0  0  0
 47114  1  0  0  0
 48 56  1  0  0  0
 48 65  1  0  0  0
 48115  1  0  0  0
 49 50  1  0  0  0
 49 53  1  0  0  0
 49 64  1  0  0  0
 49116  1  0  0  0
 50 51  1  0  0  0
 50117  1  0  0  0
 50118  1  0  0  0
 51 52  1  0  0  0
 51119  1  0  0  0
 51120  1  0  0  0
 52121  1  0  0  0
 52122  1  0  0  0
 53 54  1  0  0  0
 54 55  2  0  0  0
 54123  1  0  0  0
 55 57  1  0  0  0
 55124  1  0  0  0
 56 69  2  0  0  0
 57 58  2  0  0  0
 57125  1  0  0  0
 58126  1  0  0  0
 59 60  1  0  0  0
 59 61  1  0  0  0
 59 62  1  0  0  0
 60127  1  0  0  0
 60128  1  0  0  0
 60129  1  0  0  0
 61130  1  0  0  0
 61131  1  0  0  0
 61132  1  0  0  0
 62133  1  0  0  0
 62134  1  0  0  0
 62135  1  0  0  0
 63 65  1  0  0  0
 63136  1  0  0  0
 63137  1  0  0  0
 63138  1  0  0  0
 64139  1  0  0  0
 65140  1  0  0  0
 68 78  1  0  0  0
 71 72  2  0  0  0
 71 80  1  0  0  0
 71141  1  0  0  0
 72 75  1  0  0  0
 72 79  1  0  0  0
 73 76  1  0  0  0
 73 79  1  0  0  0
 73 80  2  0  0  0
 74 79  1  0  0  0
 74142  1  0  0  0
 74143  1  0  0  0
 74144  1  0  0  0
 75 77  1  0  0  0
 75145  1  0  0  0
 75146  1  0  0  0
 76 78  1  0  0  0
 76147  1  0  0  0
 76148  1  0  0  0
 77 81  1  0  0  0
 77149  1  0  0  0
 77150  1  0  0  0
 78151  1  0  0  0
 78152  1  0  0  0
 80153  1  0  0  0
 81154  1  0  0  0
M  CHG  1  80   1
M  ISO  4   1 100  68 101  78 101  81 100
M  END
> <chiral flag>
0

> <version>
0

> <s_m_source_file>
/data/baiqing/PycharmProjects/Reinvent-master-3.2/result/LINK_invent/BTK/process_docking_weight1_custom_sum_contain_oxygen_bond_distance_aromatic_linkinvent_7_9_3/rearranged_h_0047.sdf

> <i_m_source_file_index>
44

> <r_mmod_Potential_Energy-OPLS-2005>
15.8746957778931

> <r_mmod_Stretch_Energy-OPLS-2005>
117.751823425293

> <r_mmod_Bend_Energy-OPLS-2005>
156.833236694336

> <r_mmod_Torsional_Energy-OPLS-2005>
227.081878662109

> <r_mmod_Improper_Torsional_Energy-OPLS-2005>
5.51800727844238

> <r_mmod_Van_der_Waal_Energy-OPLS-2005>
111.742324829102

> <r_mmod_Electrostatic_Energy-OPLS-2005>
-238.720474243164

> <r_mmod_Solvation_Energy-OPLS-2005>
-441.955474853516

> <b_mmod_Minimization_Converged-OPLS-2005>
0

> <r_mmod_RMS_Derivative-OPLS-2005>
1.52854454517365

$$$$
44
                    3D
 Structure written by MMmdl.
165173  0  0  1  0            999 V2000
  -30.7127  -14.5805   20.4894 C   0  0  0  0  0  0
  -30.4257  -12.3455   19.4579 C   0  0  0  0  0  0
  -29.5166  -12.4711   18.2192 C   0  0  0  0  0  0
  -28.0348  -12.3511   18.6272 C   0  0  0  0  0  0
  -27.6601  -13.2269   19.8538 C   0  0  2  0  0  0
  -28.7071  -13.1070   20.9868 C   0  0  0  0  0  0
  -25.2602  -13.8186   20.5654 C   0  0  0  0  0  0
  -24.1871  -13.0431   20.9197 C   0  0  0  0  0  0
  -24.6443  -11.6911   20.8707 C   0  0  0  0  0  0
  -23.9086  -10.4294   21.0370 C   0  0  0  0  0  0
  -24.3611   -9.4212   21.9165 C   0  0  0  0  0  0
  -23.6283   -8.2243   22.0744 C   0  0  0  0  0  0
  -22.4271   -8.0268   21.3523 C   0  0  0  0  0  0
  -21.9903   -9.0250   20.4619 C   0  0  0  0  0  0
  -22.7246  -10.2127   20.3027 C   0  0  0  0  0  0
  -21.6864   -6.0706   22.5270 C   0  0  0  0  0  0
  -21.4026   -6.5611   23.8196 C   0  0  0  0  0  0
  -21.3651   -5.6768   24.9165 C   0  0  0  0  0  0
  -21.6057   -4.3037   24.7223 C   0  0  0  0  0  0
  -21.8822   -3.8115   23.4362 C   0  0  0  0  0  0
  -21.9207   -4.6927   22.3396 C   0  0  0  0  0  0
  -22.7885  -13.5222   21.1856 C   0  0  0  0  0  0
  -22.1672   -4.2112   21.0986 F   0  0  0  0  0  0
  -21.5622   -3.4522   25.7746 F   0  0  0  0  0  0
  -30.0292  -13.3977   20.4165 N   0  0  0  0  0  0
  -26.3050  -12.9391   20.3251 N   0  0  0  0  0  0
  -25.9387  -11.6535   20.5723 N   0  0  0  0  0  0
  -22.0485  -12.8200   22.0380 N   0  0  0  0  0  0
  -25.4289  -15.1898   20.4034 N   0  0  0  0  0  0
  -31.8703  -14.6716   20.0815 O   0  0  0  0  0  0
  -21.6644   -6.8847   21.4220 O   0  0  0  0  0  0
  -22.3593  -14.5529   20.6723 O   0  0  0  0  0  0
  -24.6164  -31.8670   23.2063 C   0  0  0  0  0  0
  -25.9024  -32.4804   23.8395 C   0  0  1  0  0  0
  -27.2363  -27.3955   20.1237 C   0  0  0  0  0  0
  -25.5871  -33.8621   24.2304 N   0  0  0  0  0  0
  -23.4108  -30.4856   21.5461 C   0  0  2  0  0  0
  -24.8629  -28.9528   20.1068 C   0  0  0  0  0  0
  -22.7433  -29.4630   22.4961 C   0  0  0  0  0  0
  -18.0264  -28.1350   22.8461 C   0  0  0  0  0  0
  -24.1474  -36.7281   23.2656 C   0  0  0  0  0  0
  -25.9437  -30.8207   21.3693 C   0  0  0  0  0  0
  -26.0258  -29.4572   20.7049 C   0  0  0  0  0  0
  -27.2193  -28.6889   20.7040 C   0  0  0  0  0  0
  -26.0620  -26.9195   19.5054 C   0  0  0  0  0  0
  -24.8813  -27.6860   19.4947 C   0  0  0  0  0  0
  -23.6258  -29.8248   20.1592 C   0  0  0  0  0  0
  -25.4109  -36.3115   24.0350 C   0  0  1  0  0  0
  -20.5864  -28.3658   23.1269 C   0  0  2  0  0  0
  -20.6771  -26.9388   22.5403 C   0  0  0  0  0  0
  -19.5751  -26.6352   21.5204 C   0  0  0  0  0  0
  -18.1913  -26.7877   22.1600 C   0  0  0  0  0  0
  -19.1519  -28.8821   23.2842 C   0  0  0  0  0  0
  -18.9476  -30.1414   23.8865 C   0  0  0  0  0  0
  -17.6488  -30.6568   24.0541 C   0  0  0  0  0  0
  -25.9040  -34.9473   23.5127 C   0  0  0  0  0  0
  -16.5361  -29.9071   23.6332 C   0  0  0  0  0  0
  -16.7261  -28.6490   23.0343 C   0  0  0  0  0  0
  -26.4446  -31.6593   25.0747 C   0  0  0  0  0  0
  -25.3688  -31.3681   26.1458 C   0  0  0  0  0  0
  -27.0343  -30.3064   24.6159 C   0  0  0  0  0  0
  -27.6001  -32.4371   25.7484 C   0  0  0  0  0  0
  -27.5565  -37.1806   24.8479 C   0  0  0  0  0  0
  -21.4161  -29.3023   22.3687 N   0  0  0  0  0  0
  -26.4297  -37.3784   23.9391 N   0  0  0  0  0  0
  -24.6733  -31.0741   22.0961 N   0  0  0  0  0  0
  -23.4171  -28.8161   23.3023 O   0  0  0  0  0  0
  -28.3494  -26.5684   20.1761 O   0  0  0  0  0  0
  -26.5648  -34.8931   22.4718 O   0  0  0  0  0  0
  -23.5349  -32.1455   23.7429 O   0  0  0  0  0  0
  -27.4217  -23.0454   22.7184 C   0  0  0  0  0  0
  -28.3786  -22.8849   21.6719 C   0  0  0  0  0  0
  -28.8841  -21.5988   21.9068 C   0  0  0  0  0  0
  -31.6846  -17.5561   21.2564 C   0  0  0  0  0  0
  -28.5309  -19.9940   23.9235 C   0  0  0  0  0  0
  -28.3025  -20.0089   19.4815 C   0  0  0  0  0  0
  -28.6453  -24.0011   20.6279 C   0  0  0  0  0  0
  -29.9258  -20.7057   21.2179 C   0  0  0  0  0  0
  -29.2477  -18.1868   20.8791 C   0  0  0  0  0  0
  -28.2089  -25.4473   21.0988 C   0  0  0  0  0  0
  -30.3840  -17.1419   20.5401 C   0  0  2  0  0  0
  -27.3850  -22.0379   23.5605 N   0  0  0  0  0  0
  -28.2975  -21.1715   23.0981 N   0  0  0  0  0  0
  -30.0126  -15.7060   20.8222 N   0  0  0  0  0  0
  -29.4426  -19.5859   20.3225 N   0  3  1  0  0  0
  -31.4745  -12.4107   19.1640 H   0  0  0  0  0  0
  -30.3117  -11.3603   19.9124 H   0  0  0  0  0  0
  -29.7649  -11.6886   17.5003 H   0  0  0  0  0  0
  -29.7056  -13.4176   17.7115 H   0  0  0  0  0  0
  -27.8497  -11.3024   18.8585 H   0  0  0  0  0  0
  -27.3921  -12.5917   17.7785 H   0  0  0  0  0  0
  -27.6776  -14.2601   19.5079 H   0  0  0  0  0  0
  -28.6958  -12.1053   21.4180 H   0  0  0  0  0  0
  -28.4755  -13.7900   21.8049 H   0  0  0  0  0  0
  -25.2737   -9.5707   22.4768 H   0  0  0  0  0  0
  -23.9976   -7.4644   22.7481 H   0  0  0  0  0  0
  -21.0826   -8.8777   19.8938 H   0  0  0  0  0  0
  -22.3691  -10.9661   19.6137 H   0  0  0  0  0  0
  -21.2019   -7.6125   23.9698 H   0  0  0  0  0  0
  -21.1463   -6.0496   25.9066 H   0  0  0  0  0  0
  -22.0612   -2.7582   23.2880 H   0  0  0  0  0  0
  -22.4027  -11.9851   22.4807 H   0  0  0  0  0  0
  -21.1078  -13.1217   22.2457 H   0  0  0  0  0  0
  -24.6554  -15.8385   20.5021 H   0  0  0  0  0  0
  -26.2586  -15.6188   20.0153 H   0  0  0  0  0  0
  -26.7085  -32.5503   23.1161 H   0  0  0  0  0  0
  -25.0008  -33.9792   25.0441 H   0  0  0  0  0  0
  -22.7001  -31.3014   21.4039 H   0  0  0  0  0  0
  -23.3770  -35.9575   23.3360 H   0  0  0  0  0  0
  -24.3577  -36.8875   22.2064 H   0  0  0  0  0  0
  -23.7206  -37.6488   23.6656 H   0  0  0  0  0  0
  -26.0870  -31.5944   20.6137 H   0  0  0  0  0  0
  -26.8132  -30.8539   22.0115 H   0  0  0  0  0  0
  -28.1127  -29.0705   21.1779 H   0  0  0  0  0  0
  -26.0550  -25.9370   19.0520 H   0  0  0  0  0  0
  -23.9928  -27.2901   19.0226 H   0  0  0  0  0  0
  -23.7301  -30.6039   19.4023 H   0  0  0  0  0  0
  -22.7493  -29.2435   19.8682 H   0  0  0  0  0  0
  -25.1281  -36.1995   25.0851 H   0  0  0  0  0  0
  -20.9934  -28.3232   24.1389 H   0  0  0  0  0  0
  -20.5687  -26.2269   23.3607 H   0  0  0  0  0  0
  -21.6641  -26.7426   22.1183 H   0  0  0  0  0  0
  -19.6952  -25.6268   21.1227 H   0  0  0  0  0  0
  -19.6701  -27.3160   20.6728 H   0  0  0  0  0  0
  -17.4194  -26.6618   21.3977 H   0  0  0  0  0  0
  -18.0300  -26.0008   22.8979 H   0  0  0  0  0  0
  -19.7974  -30.7205   24.2222 H   0  0  0  0  0  0
  -17.5068  -31.6261   24.5132 H   0  0  0  0  0  0
  -15.5364  -30.2985   23.7689 H   0  0  0  0  0  0
  -15.8632  -28.0823   22.7077 H   0  0  0  0  0  0
  -24.5830  -30.7104   25.7735 H   0  0  0  0  0  0
  -24.8926  -32.2841   26.4980 H   0  0  0  0  0  0
  -25.7979  -30.8748   27.0196 H   0  0  0  0  0  0
  -26.2966  -29.6796   24.1151 H   0  0  0  0  0  0
  -27.4076  -29.7313   25.4653 H   0  0  0  0  0  0
  -27.8772  -30.4418   23.9383 H   0  0  0  0  0  0
  -27.2615  -33.3712   26.1986 H   0  0  0  0  0  0
  -28.3784  -32.6899   25.0266 H   0  0  0  0  0  0
  -28.0678  -31.8577   26.5457 H   0  0  0  0  0  0
  -28.2582  -38.0093   24.7523 H   0  0  0  0  0  0
  -28.1053  -36.2633   24.6305 H   0  0  0  0  0  0
  -27.2296  -37.1478   25.8887 H   0  0  0  0  0  0
  -20.9332  -29.8775   21.6918 H   0  0  0  0  0  0
  -26.0199  -38.2866   24.1394 H   0  0  0  0  0  0
  -26.7719  -23.8815   22.9276 H   0  0  0  0  0  0
  -31.9602  -18.5803   21.0062 H   0  0  0  0  0  0
  -32.5301  -16.9373   20.9578 H   0  0  0  0  0  0
  -31.5844  -17.4931   22.3388 H   0  0  0  0  0  0
  -29.4790  -19.5147   23.6909 H   0  0  0  0  0  0
  -27.7120  -19.2841   23.8043 H   0  0  0  0  0  0
  -28.5764  -20.2894   24.9742 H   0  0  0  0  0  0
  -28.4653  -21.0047   19.0666 H   0  0  0  0  0  0
  -27.3809  -20.0225   20.0651 H   0  0  0  0  0  0
  -28.1772  -19.3203   18.6468 H   0  0  0  0  0  0
  -28.0965  -23.7813   19.7129 H   0  0  0  0  0  0
  -29.7007  -24.0304   20.3555 H   0  0  0  0  0  0
  -30.6362  -20.3307   21.9541 H   0  0  0  0  0  0
  -30.5274  -21.3580   20.5850 H   0  0  0  0  0  0
  -29.0558  -18.2177   21.9481 H   0  0  0  0  0  0
  -28.3273  -17.7861   20.4540 H   0  0  0  0  0  0
  -28.7646  -25.7082   22.0016 H   0  0  0  0  0  0
  -27.1676  -25.3937   21.4161 H   0  0  0  0  0  0
  -30.5738  -17.2121   19.4652 H   0  0  0  0  0  0
  -29.0660  -15.5403   21.1316 H   0  0  0  0  0  0
  -30.2017  -19.4792   19.6656 H   0  0  0  0  0  0
  1 25  1  0  0  0
  1 30  2  0  0  0
  1 84  1  0  0  0
  2  3  1  0  0  0
  2 25  1  0  0  0
  2 86  1  0  0  0
  2 87  1  0  0  0
  3  4  1  0  0  0
  3 88  1  0  0  0
  3 89  1  0  0  0
  4  5  1  0  0  0
  4 90  1  0  0  0
  4 91  1  0  0  0
  5  6  1  0  0  0
  5 26  1  0  0  0
  5 92  1  0  0  0
  6 25  1  0  0  0
  6 93  1  0  0  0
  6 94  1  0  0  0
  7  8  2  0  0  0
  7 26  1  0  0  0
  7 29  1  0  0  0
  8  9  1  0  0  0
  8 22  1  0  0  0
  9 10  1  0  0  0
  9 27  2  0  0  0
 10 11  2  0  0  0
 10 15  1  0  0  0
 11 12  1  0  0  0
 11 95  1  0  0  0
 12 13  2  0  0  0
 12 96  1  0  0  0
 13 14  1  0  0  0
 13 31  1  0  0  0
 14 15  2  0  0  0
 14 97  1  0  0  0
 15 98  1  0  0  0
 16 17  2  0  0  0
 16 21  1  0  0  0
 16 31  1  0  0  0
 17 18  1  0  0  0
 17 99  1  0  0  0
 18 19  2  0  0  0
 18100  1  0  0  0
 19 20  1  0  0  0
 19 24  1  0  0  0
 20 21  2  0  0  0
 20101  1  0  0  0
 21 23  1  0  0  0
 22 28  1  0  0  0
 22 32  2  0  0  0
 26 27  1  0  0  0
 28102  1  0  0  0
 28103  1  0  0  0
 29104  1  0  0  0
 29105  1  0  0  0
 33 34  1  0  0  0
 33 66  1  0  0  0
 33 70  2  0  0  0
 34 36  1  0  0  0
 34 59  1  0  0  0
 34106  1  0  0  0
 35 44  2  0  0  0
 35 45  1  0  0  0
 35 68  1  0  0  0
 36 56  1  0  0  0
 36107  1  0  0  0
 37 39  1  0  0  0
 37 47  1  0  0  0
 37 66  1  0  0  0
 37108  1  0  0  0
 38 43  2  0  0  0
 38 46  1  0  0  0
 38 47  1  0  0  0
 39 64  1  0  0  0
 39 67  2  0  0  0
 40 52  1  0  0  0
 40 53  2  0  0  0
 40 58  1  0  0  0
 41109  1  0  0  0
 41110  1  0  0  0
 41111  1  0  0  0
 41 48  1  0  0  0
 42 43  1  0  0  0
 42 66  1  0  0  0
 42112  1  0  0  0
 42113  1  0  0  0
 43 44  1  0  0  0
 44114  1  0  0  0
 45 46  2  0  0  0
 45115  1  0  0  0
 46116  1  0  0  0
 47117  1  0  0  0
 47118  1  0  0  0
 48 56  1  0  0  0
 48 65  1  0  0  0
 48119  1  0  0  0
 49 50  1  0  0  0
 49 53  1  0  0  0
 49 64  1  0  0  0
 49120  1  0  0  0
 50 51  1  0  0  0
 50121  1  0  0  0
 50122  1  0  0  0
 51 52  1  0  0  0
 51123  1  0  0  0
 51124  1  0  0  0
 52125  1  0  0  0
 52126  1  0  0  0
 53 54  1  0  0  0
 54 55  2  0  0  0
 54127  1  0  0  0
 55 57  1  0  0  0
 55128  1  0  0  0
 56 69  2  0  0  0
 57 58  2  0  0  0
 57129  1  0  0  0
 58130  1  0  0  0
 59 60  1  0  0  0
 59 61  1  0  0  0
 59 62  1  0  0  0
 60131  1  0  0  0
 60132  1  0  0  0
 60133  1  0  0  0
 61134  1  0  0  0
 61135  1  0  0  0
 61136  1  0  0  0
 62137  1  0  0  0
 62138  1  0  0  0
 62139  1  0  0  0
 63 65  1  0  0  0
 63140  1  0  0  0
 63141  1  0  0  0
 63142  1  0  0  0
 64143  1  0  0  0
 65144  1  0  0  0
 68 80  1  0  0  0
 71 72  1  0  0  0
 71 82  2  0  0  0
 71145  1  0  0  0
 72 73  2  0  0  0
 72 77  1  0  0  0
 73 78  1  0  0  0
 73 83  1  0  0  0
 74146  1  0  0  0
 74147  1  0  0  0
 74148  1  0  0  0
 74 81  1  0  0  0
 75 83  1  0  0  0
 75149  1  0  0  0
 75150  1  0  0  0
 75151  1  0  0  0
 76152  1  0  0  0
 76153  1  0  0  0
 76154  1  0  0  0
 76 85  1  0  0  0
 77 80  1  0  0  0
 77155  1  0  0  0
 77156  1  0  0  0
 78 85  1  0  0  0
 78157  1  0  0  0
 78158  1  0  0  0
 79 81  1  0  0  0
 79 85  1  0  0  0
 79159  1  0  0  0
 79160  1  0  0  0
 80161  1  0  0  0
 80162  1  0  0  0
 81 84  1  0  0  0
 81163  1  0  0  0
 82 83  1  0  0  0
 84164  1  0  0  0
 85165  1  0  0  0
M  CHG  1  85   1
M  ISO  4   1 100  68 101  80 101  84 100
M  END
> <chiral flag>
0

> <version>
0

> <s_m_source_file>
/data/baiqing/PycharmProjects/Reinvent-master-3.2/result/LINK_invent/BTK/process_docking_weight1_custom_sum_contain_oxygen_bond_distance_aromatic_linkinvent_7_9_3/rearranged_h_0047.sdf

> <i_m_source_file_index>
45

> <r_mmod_Potential_Energy-OPLS-2005>
-180.031921386719

> <r_mmod_Stretch_Energy-OPLS-2005>
65.2931900024414

> <r_mmod_Bend_Energy-OPLS-2005>
131.918273925781

> <r_mmod_Torsional_Energy-OPLS-2005>
243.868438720703

> <r_mmod_Improper_Torsional_Energy-OPLS-2005>
5.52981853485107

> <r_mmod_Van_der_Waal_Energy-OPLS-2005>
122.434074401855

> <r_mmod_Electrostatic_Energy-OPLS-2005>
-285.70068359375

> <r_mmod_Solvation_Energy-OPLS-2005>
-495.748840332031

> <b_mmod_Minimization_Converged-OPLS-2005>
0

> <r_mmod_RMS_Derivative-OPLS-2005>
4.58384370803833

$$$$
45
                    3D
 Structure written by MMmdl.
165173  0  0  1  0            999 V2000
  -30.7397  -14.3882   20.7228 C   0  0  0  0  0  0
  -30.4388  -12.3207   19.3896 C   0  0  0  0  0  0
  -29.4960  -12.5416   18.1939 C   0  0  0  0  0  0
  -28.0198  -12.3903   18.6105 C   0  0  0  0  0  0
  -27.6744  -13.2011   19.8871 C   0  0  2  0  0  0
  -28.7133  -12.9334   20.9970 C   0  0  0  0  0  0
  -25.2666  -13.8154   20.5671 C   0  0  0  0  0  0
  -24.1888  -13.0441   20.9163 C   0  0  0  0  0  0
  -24.6429  -11.6907   20.8731 C   0  0  0  0  0  0
  -23.9089  -10.4288   21.0402 C   0  0  0  0  0  0
  -24.3627   -9.4207   21.9194 C   0  0  0  0  0  0
  -23.6292   -8.2253   22.0762 C   0  0  0  0  0  0
  -22.4285   -8.0290   21.3537 C   0  0  0  0  0  0
  -21.9916   -9.0275   20.4650 C   0  0  0  0  0  0
  -22.7256  -10.2153   20.3058 C   0  0  0  0  0  0
  -21.6855   -6.0745   22.5279 C   0  0  0  0  0  0
  -21.4012   -6.5645   23.8213 C   0  0  0  0  0  0
  -21.3652   -5.6792   24.9170 C   0  0  0  0  0  0
  -21.6051   -4.3055   24.7218 C   0  0  0  0  0  0
  -21.8819   -3.8156   23.4332 C   0  0  0  0  0  0
  -21.9196   -4.6976   22.3399 C   0  0  0  0  0  0
  -22.7910  -13.5259   21.1832 C   0  0  0  0  0  0
  -22.1669   -4.2156   21.0973 F   0  0  0  0  0  0
  -21.5629   -3.4545   25.7730 F   0  0  0  0  0  0
  -30.0470  -13.2499   20.4603 N   0  0  0  0  0  0
  -26.3096  -12.9307   20.3404 N   0  0  0  0  0  0
  -25.9358  -11.6472   20.5765 N   0  0  0  0  0  0
  -22.0519  -12.8254   22.0364 N   0  0  0  0  0  0
  -25.4398  -15.1857   20.4058 N   0  0  0  0  0  0
  -31.7728  -14.6771   20.1117 O   0  0  0  0  0  0
  -21.6643   -6.8893   21.4238 O   0  0  0  0  0  0
  -22.3608  -14.5568   20.6683 O   0  0  0  0  0  0
  -24.6142  -31.8675   23.2086 C   0  0  0  0  0  0
  -25.9031  -32.4807   23.8386 C   0  0  1  0  0  0
  -27.2448  -27.4396   20.0797 C   0  0  0  0  0  0
  -25.5909  -33.8613   24.2333 N   0  0  0  0  0  0
  -23.4016  -30.4923   21.5483 C   0  0  2  0  0  0
  -24.8480  -28.9592   20.1118 C   0  0  0  0  0  0
  -22.7411  -29.4633   22.4961 C   0  0  0  0  0  0
  -18.0283  -28.1360   22.8495 C   0  0  0  0  0  0
  -24.1484  -36.7309   23.2647 C   0  0  0  0  0  0
  -25.9310  -30.8311   21.3633 C   0  0  0  0  0  0
  -26.0052  -29.4669   20.7126 C   0  0  0  0  0  0
  -27.1977  -28.7106   20.6993 C   0  0  0  0  0  0
  -26.0554  -26.9376   19.4948 C   0  0  0  0  0  0
  -24.8699  -27.6945   19.5026 C   0  0  0  0  0  0
  -23.6111  -29.8264   20.1619 C   0  0  0  0  0  0
  -25.4108  -36.3111   24.0351 C   0  0  1  0  0  0
  -20.5876  -28.3602   23.1348 C   0  0  2  0  0  0
  -20.6763  -26.9341   22.5437 C   0  0  0  0  0  0
  -19.5741  -26.6354   21.5229 C   0  0  0  0  0  0
  -18.1905  -26.7908   22.1618 C   0  0  0  0  0  0
  -19.1529  -28.8798   23.2921 C   0  0  0  0  0  0
  -18.9456  -30.1415   23.8900 C   0  0  0  0  0  0
  -17.6458  -30.6566   24.0535 C   0  0  0  0  0  0
  -25.9050  -34.9476   23.5139 C   0  0  0  0  0  0
  -16.5352  -29.9052   23.6333 C   0  0  0  0  0  0
  -16.7270  -28.6484   23.0341 C   0  0  0  0  0  0
  -26.4475  -31.6588   25.0710 C   0  0  0  0  0  0
  -25.3765  -31.3702   26.1472 C   0  0  0  0  0  0
  -27.0312  -30.3056   24.6043 C   0  0  0  0  0  0
  -27.6052  -32.4302   25.7471 C   0  0  0  0  0  0
  -27.5580  -37.1799   24.8469 C   0  0  0  0  0  0
  -21.4129  -29.2995   22.3751 N   0  0  0  0  0  0
  -26.4293  -37.3799   23.9424 N   0  0  0  0  0  0
  -24.6667  -31.0787   22.0986 N   0  0  0  0  0  0
  -23.4214  -28.8156   23.2962 O   0  0  0  0  0  0
  -28.4485  -26.7599   20.1100 O   0  0  0  0  0  0
  -26.5611  -34.8919   22.4703 O   0  0  0  0  0  0
  -23.5339  -32.1385   23.7520 O   0  0  0  0  0  0
  -30.0549  -24.6472   21.2041 C   0  0  0  0  0  0
  -29.1461  -23.1259   19.5633 C   0  0  0  0  0  0
  -29.3043  -24.4481   20.0288 C   0  0  0  0  0  0
  -30.6104  -23.5283   21.8546 C   0  0  0  0  0  0
  -29.7144  -22.0613   20.2925 C   0  0  0  0  0  0
  -31.3953  -23.6848   23.1397 C   0  0  0  0  0  0
  -32.0640  -17.9699   20.3362 C   0  0  0  0  0  0
  -28.6988  -25.6240   19.2691 C   0  0  0  0  0  0
  -29.5528  -20.6177   19.8236 C   0  0  0  0  0  0
  -30.2114  -15.3478   21.8156 C   0  0  0  0  0  0
  -29.1561  -19.6081   20.9271 C   0  0  0  0  0  0
  -31.0590  -16.6090   22.1304 C   0  0  0  0  0  0
  -30.3082  -18.9868   21.7590 C   0  0  0  0  0  0
  -30.4548  -22.2649   21.4047 N   0  0  0  0  0  0
  -30.8562  -17.7302   21.1606 N   0  3  1  0  0  0
  -31.4741  -12.4650   19.0721 H   0  0  0  0  0  0
  -30.3803  -11.2920   19.7455 H   0  0  0  0  0  0
  -29.7311  -11.8387   17.3936 H   0  0  0  0  0  0
  -29.6593  -13.5401   17.7844 H   0  0  0  0  0  0
  -27.8268  -11.3295   18.7827 H   0  0  0  0  0  0
  -27.3671  -12.6908   17.7882 H   0  0  0  0  0  0
  -27.7364  -14.2578   19.6259 H   0  0  0  0  0  0
  -28.6872  -11.8869   21.3009 H   0  0  0  0  0  0
  -28.4550  -13.4953   21.8928 H   0  0  0  0  0  0
  -25.2770   -9.5691   22.4764 H   0  0  0  0  0  0
  -24.0007   -7.4648   22.7475 H   0  0  0  0  0  0
  -21.0850   -8.8803   19.8946 H   0  0  0  0  0  0
  -22.3723  -10.9698   19.6165 H   0  0  0  0  0  0
  -21.1992   -7.6151   23.9711 H   0  0  0  0  0  0
  -21.1475   -6.0523   25.9070 H   0  0  0  0  0  0
  -22.0599   -2.7615   23.2833 H   0  0  0  0  0  0
  -22.4109  -11.9921   22.4778 H   0  0  0  0  0  0
  -21.1123  -13.1291   22.2512 H   0  0  0  0  0  0
  -24.6776  -15.8449   20.5119 H   0  0  0  0  0  0
  -26.2936  -15.6173   20.0748 H   0  0  0  0  0  0
  -26.7092  -32.5520   23.1141 H   0  0  0  0  0  0
  -25.0083  -33.9775   25.0488 H   0  0  0  0  0  0
  -22.6889  -31.3078   21.4118 H   0  0  0  0  0  0
  -23.3759  -35.9631   23.3335 H   0  0  0  0  0  0
  -24.3578  -36.8888   22.2054 H   0  0  0  0  0  0
  -23.7217  -37.6521   23.6642 H   0  0  0  0  0  0
  -26.0481  -31.5941   20.5914 H   0  0  0  0  0  0
  -26.8193  -30.8839   21.9808 H   0  0  0  0  0  0
  -28.0920  -29.1041   21.1628 H   0  0  0  0  0  0
  -25.9907  -25.9601   19.0461 H   0  0  0  0  0  0
  -23.9761  -27.2964   19.0409 H   0  0  0  0  0  0
  -23.7206  -30.6020   19.4052 H   0  0  0  0  0  0
  -22.7309  -29.2533   19.8613 H   0  0  0  0  0  0
  -25.1284  -36.1986   25.0850 H   0  0  0  0  0  0
  -20.9988  -28.3145   24.1452 H   0  0  0  0  0  0
  -20.5650  -26.2186   23.3604 H   0  0  0  0  0  0
  -21.6615  -26.7364   22.1200 H   0  0  0  0  0  0
  -19.6884  -25.6280   21.1199 H   0  0  0  0  0  0
  -19.6684  -27.3204   20.6803 H   0  0  0  0  0  0
  -17.4184  -26.6691   21.4012 H   0  0  0  0  0  0
  -18.0251  -26.0045   22.9006 H   0  0  0  0  0  0
  -19.7935  -30.7232   24.2240 H   0  0  0  0  0  0
  -17.5020  -31.6235   24.5122 H   0  0  0  0  0  0
  -15.5344  -30.2931   23.7678 H   0  0  0  0  0  0
  -15.8682  -28.0809   22.7031 H   0  0  0  0  0  0
  -24.5939  -30.7034   25.7841 H   0  0  0  0  0  0
  -24.8960  -32.2848   26.4938 H   0  0  0  0  0  0
  -25.8135  -30.8876   27.0208 H   0  0  0  0  0  0
  -26.2821  -29.6798   24.1192 H   0  0  0  0  0  0
  -27.4228  -29.7317   25.4448 H   0  0  0  0  0  0
  -27.8578  -30.4442   23.9084 H   0  0  0  0  0  0
  -27.2690  -33.3602   26.2082 H   0  0  0  0  0  0
  -28.3858  -32.6861   25.0293 H   0  0  0  0  0  0
  -28.0725  -31.8401   26.5362 H   0  0  0  0  0  0
  -28.2614  -38.0086   24.7527 H   0  0  0  0  0  0
  -28.1052  -36.2616   24.6289 H   0  0  0  0  0  0
  -27.2295  -37.1458   25.8872 H   0  0  0  0  0  0
  -20.9269  -29.8760   21.7028 H   0  0  0  0  0  0
  -26.0187  -38.2878   24.1444 H   0  0  0  0  0  0
  -30.1948  -25.6450   21.5992 H   0  0  0  0  0  0
  -28.5900  -22.9380   18.6543 H   0  0  0  0  0  0
  -31.5631  -24.7349   23.3792 H   0  0  0  0  0  0
  -32.3657  -23.1933   23.0816 H   0  0  0  0  0  0
  -30.8423  -23.2315   23.9629 H   0  0  0  0  0  0
  -32.4202  -17.0452   19.8891 H   0  0  0  0  0  0
  -32.8825  -18.3757   20.9317 H   0  0  0  0  0  0
  -31.8540  -18.6526   19.5161 H   0  0  0  0  0  0
  -27.8463  -25.2599   18.7069 H   0  0  0  0  0  0
  -29.4276  -25.9352   18.5180 H   0  0  0  0  0  0
  -30.4356  -20.3093   19.2666 H   0  0  0  0  0  0
  -28.7418  -20.6185   19.0946 H   0  0  0  0  0  0
  -29.1868  -15.6394   21.5850 H   0  0  0  0  0  0
  -30.1586  -14.7582   22.7316 H   0  0  0  0  0  0
  -28.5741  -18.7953   20.4917 H   0  0  0  0  0  0
  -28.4630  -20.1083   21.6045 H   0  0  0  0  0  0
  -32.1139  -16.3441   22.2031 H   0  0  0  0  0  0
  -30.8078  -16.9287   23.1409 H   0  0  0  0  0  0
  -29.8753  -18.7712   22.7348 H   0  0  0  0  0  0
  -31.1018  -19.7056   21.9607 H   0  0  0  0  0  0
  -30.1450  -17.4072   20.5260 H   0  0  0  0  0  0
  1 25  1  0  0  0
  1 30  2  0  0  0
  1 80  1  0  0  0
  2  3  1  0  0  0
  2 25  1  0  0  0
  2 86  1  0  0  0
  2 87  1  0  0  0
  3  4  1  0  0  0
  3 88  1  0  0  0
  3 89  1  0  0  0
  4  5  1  0  0  0
  4 90  1  0  0  0
  4 91  1  0  0  0
  5  6  1  0  0  0
  5 26  1  0  0  0
  5 92  1  0  0  0
  6 25  1  0  0  0
  6 93  1  0  0  0
  6 94  1  0  0  0
  7  8  2  0  0  0
  7 26  1  0  0  0
  7 29  1  0  0  0
  8  9  1  0  0  0
  8 22  1  0  0  0
  9 10  1  0  0  0
  9 27  2  0  0  0
 10 11  2  0  0  0
 10 15  1  0  0  0
 11 12  1  0  0  0
 11 95  1  0  0  0
 12 13  2  0  0  0
 12 96  1  0  0  0
 13 14  1  0  0  0
 13 31  1  0  0  0
 14 15  2  0  0  0
 14 97  1  0  0  0
 15 98  1  0  0  0
 16 17  2  0  0  0
 16 21  1  0  0  0
 16 31  1  0  0  0
 17 18  1  0  0  0
 17 99  1  0  0  0
 18 19  2  0  0  0
 18100  1  0  0  0
 19 20  1  0  0  0
 19 24  1  0  0  0
 20 21  2  0  0  0
 20101  1  0  0  0
 21 23  1  0  0  0
 22 28  1  0  0  0
 22 32  2  0  0  0
 26 27  1  0  0  0
 28102  1  0  0  0
 28103  1  0  0  0
 29104  1  0  0  0
 29105  1  0  0  0
 33 34  1  0  0  0
 33 66  1  0  0  0
 33 70  2  0  0  0
 34 36  1  0  0  0
 34 59  1  0  0  0
 34106  1  0  0  0
 35 44  2  0  0  0
 35 45  1  0  0  0
 35 68  1  0  0  0
 36 56  1  0  0  0
 36107  1  0  0  0
 37 39  1  0  0  0
 37 47  1  0  0  0
 37 66  1  0  0  0
 37108  1  0  0  0
 38 43  2  0  0  0
 38 46  1  0  0  0
 38 47  1  0  0  0
 39 64  1  0  0  0
 39 67  2  0  0  0
 40 52  1  0  0  0
 40 53  2  0  0  0
 40 58  1  0  0  0
 41109  1  0  0  0
 41110  1  0  0  0
 41111  1  0  0  0
 41 48  1  0  0  0
 42 43  1  0  0  0
 42 66  1  0  0  0
 42112  1  0  0  0
 42113  1  0  0  0
 43 44  1  0  0  0
 44114  1  0  0  0
 45 46  2  0  0  0
 45115  1  0  0  0
 46116  1  0  0  0
 47117  1  0  0  0
 47118  1  0  0  0
 48 56  1  0  0  0
 48 65  1  0  0  0
 48119  1  0  0  0
 49 50  1  0  0  0
 49 53  1  0  0  0
 49 64  1  0  0  0
 49120  1  0  0  0
 50 51  1  0  0  0
 50121  1  0  0  0
 50122  1  0  0  0
 51 52  1  0  0  0
 51123  1  0  0  0
 51124  1  0  0  0
 52125  1  0  0  0
 52126  1  0  0  0
 53 54  1  0  0  0
 54 55  2  0  0  0
 54127  1  0  0  0
 55 57  1  0  0  0
 55128  1  0  0  0
 56 69  2  0  0  0
 57 58  2  0  0  0
 57129  1  0  0  0
 58130  1  0  0  0
 59 60  1  0  0  0
 59 61  1  0  0  0
 59 62  1  0  0  0
 60131  1  0  0  0
 60132  1  0  0  0
 60133  1  0  0  0
 61134  1  0  0  0
 61135  1  0  0  0
 61136  1  0  0  0
 62137  1  0  0  0
 62138  1  0  0  0
 62139  1  0  0  0
 63 65  1  0  0  0
 63140  1  0  0  0
 63141  1  0  0  0
 63142  1  0  0  0
 64143  1  0  0  0
 65144  1  0  0  0
 68 78  1  0  0  0
 71 73  2  0  0  0
 71 74  1  0  0  0
 71145  1  0  0  0
 72 73  1  0  0  0
 72 75  2  0  0  0
 72146  1  0  0  0
 73 78  1  0  0  0
 74 76  1  0  0  0
 74 84  2  0  0  0
 75 79  1  0  0  0
 75 84  1  0  0  0
 76147  1  0  0  0
 76148  1  0  0  0
 76149  1  0  0  0
 77150  1  0  0  0
 77151  1  0  0  0
 77152  1  0  0  0
 77 85  1  0  0  0
 78153  1  0  0  0
 78154  1  0  0  0
 79 81  1  0  0  0
 79155  1  0  0  0
 79156  1  0  0  0
 80 82  1  0  0  0
 80157  1  0  0  0
 80158  1  0  0  0
 81 83  1  0  0  0
 81159  1  0  0  0
 81160  1  0  0  0
 82 85  1  0  0  0
 82161  1  0  0  0
 82162  1  0  0  0
 83 85  1  0  0  0
 83163  1  0  0  0
 83164  1  0  0  0
 85165  1  0  0  0
M  CHG  1  85   1
M  ISO  4   1 100  68 101  78 101  80 100
M  END
> <chiral flag>
0

> <version>
0

> <s_m_source_file>
/data/baiqing/PycharmProjects/Reinvent-master-3.2/result/LINK_invent/BTK/process_docking_weight1_custom_sum_contain_oxygen_bond_distance_aromatic_linkinvent_7_9_3/rearranged_h_0047.sdf

> <i_m_source_file_index>
46

> <r_mmod_Potential_Energy-OPLS-2005>
-335.70703125

> <r_mmod_Stretch_Energy-OPLS-2005>
36.9853820800781

> <r_mmod_Bend_Energy-OPLS-2005>
111.007774353027

> <r_mmod_Torsional_Energy-OPLS-2005>
194.814361572266

> <r_mmod_Improper_Torsional_Energy-OPLS-2005>
1.63683331012726

> <r_mmod_Van_der_Waal_Energy-OPLS-2005>
161.430328369141

> <r_mmod_Electrostatic_Energy-OPLS-2005>
-439.247436523438

> <r_mmod_Solvation_Energy-OPLS-2005>
-412.257537841797

> <b_mmod_Minimization_Converged-OPLS-2005>
0

> <r_mmod_RMS_Derivative-OPLS-2005>
3.87928605079651

$$$$
46
                    3D
 Structure written by MMmdl.
154162  0  0  1  0            999 V2000
  -30.5685  -14.8703   20.4188 C   0  0  0  0  0  0
  -30.4387  -12.5330   19.4906 C   0  0  0  0  0  0
  -29.5203  -12.5252   18.2480 C   0  0  0  0  0  0
  -28.0487  -12.3293   18.6608 C   0  0  0  0  0  0
  -27.6355  -13.2456   19.8433 C   0  0  2  0  0  0
  -28.6801  -13.2333   20.9800 C   0  0  0  0  0  0
  -25.2478  -13.8203   20.5689 C   0  0  0  0  0  0
  -24.1786  -13.0430   20.9199 C   0  0  0  0  0  0
  -24.6410  -11.6910   20.8741 C   0  0  0  0  0  0
  -23.9091  -10.4282   21.0403 C   0  0  0  0  0  0
  -24.3630   -9.4199   21.9188 C   0  0  0  0  0  0
  -23.6287   -8.2255   22.0772 C   0  0  0  0  0  0
  -22.4278   -8.0293   21.3554 C   0  0  0  0  0  0
  -21.9909   -9.0275   20.4665 C   0  0  0  0  0  0
  -22.7254  -10.2141   20.3063 C   0  0  0  0  0  0
  -21.6863   -6.0724   22.5273 C   0  0  0  0  0  0
  -21.4020   -6.5629   23.8197 C   0  0  0  0  0  0
  -21.3655   -5.6787   24.9168 C   0  0  0  0  0  0
  -21.6056   -4.3049   24.7226 C   0  0  0  0  0  0
  -21.8817   -3.8135   23.4349 C   0  0  0  0  0  0
  -21.9190   -4.6952   22.3403 C   0  0  0  0  0  0
  -22.7810  -13.5216   21.1855 C   0  0  0  0  0  0
  -22.1666   -4.2139   21.0983 F   0  0  0  0  0  0
  -21.5625   -3.4534   25.7739 F   0  0  0  0  0  0
  -29.9673  -13.6201   20.3888 N   0  0  0  0  0  0
  -26.2913  -12.9437   20.3247 N   0  0  0  0  0  0
  -25.9345  -11.6563   20.5744 N   0  0  0  0  0  0
  -22.0447  -12.8236   22.0423 N   0  0  0  0  0  0
  -25.4130  -15.1931   20.4140 N   0  0  0  0  0  0
  -31.7633  -14.9504   20.1210 O   0  0  0  0  0  0
  -21.6656   -6.8884   21.4236 O   0  0  0  0  0  0
  -22.3499  -14.5524   20.6696 O   0  0  0  0  0  0
  -24.6414  -31.8479   23.1951 C   0  0  0  0  0  0
  -25.9207  -32.4725   23.8306 C   0  0  1  0  0  0
  -27.2101  -27.1696   20.1342 C   0  0  0  0  0  0
  -25.5970  -33.8519   24.2249 N   0  0  0  0  0  0
  -23.4440  -30.4725   21.5405 C   0  0  2  0  0  0
  -24.8920  -28.9127   20.1088 C   0  0  0  0  0  0
  -22.7568  -29.4575   22.4880 C   0  0  0  0  0  0
  -18.0327  -28.1367   22.8485 C   0  0  0  0  0  0
  -24.1481  -36.7270   23.2641 C   0  0  0  0  0  0
  -25.9988  -30.7303   21.3899 C   0  0  0  0  0  0
  -26.0696  -29.3437   20.7357 C   0  0  0  0  0  0
  -27.2299  -28.4840   20.7438 C   0  0  0  0  0  0
  -26.0213  -26.8666   19.4280 C   0  0  0  0  0  0
  -24.8803  -27.6862   19.4382 C   0  0  0  0  0  0
  -23.6680  -29.8098   20.1568 C   0  0  0  0  0  0
  -25.4104  -36.3056   24.0323 C   0  0  1  0  0  0
  -20.5923  -28.3716   23.1242 C   0  0  2  0  0  0
  -20.6806  -26.9435   22.5363 C   0  0  0  0  0  0
  -19.5796  -26.6427   21.5150 C   0  0  0  0  0  0
  -18.1987  -26.7933   22.1578 C   0  0  0  0  0  0
  -19.1565  -28.8844   23.2884 C   0  0  0  0  0  0
  -18.9456  -30.1432   23.8933 C   0  0  0  0  0  0
  -17.6449  -30.6554   24.0553 C   0  0  0  0  0  0
  -25.9052  -34.9419   23.5087 C   0  0  0  0  0  0
  -16.5348  -29.9048   23.6309 C   0  0  0  0  0  0
  -16.7308  -28.6455   23.0353 C   0  0  0  0  0  0
  -26.4539  -31.6557   25.0712 C   0  0  0  0  0  0
  -25.3732  -31.3714   26.1411 C   0  0  0  0  0  0
  -27.0378  -30.2959   24.6234 C   0  0  0  0  0  0
  -27.6116  -32.4265   25.7475 C   0  0  0  0  0  0
  -27.5563  -37.1800   24.8468 C   0  0  0  0  0  0
  -21.4249  -29.3087   22.3653 N   0  0  0  0  0  0
  -26.4285  -37.3754   23.9397 N   0  0  0  0  0  0
  -24.7155  -31.0359   22.0978 N   0  0  0  0  0  0
  -23.4219  -28.8062   23.2974 O   0  0  0  0  0  0
  -28.2225  -26.1462   20.2234 O   0  0  0  0  0  0
  -26.5623  -34.8903   22.4664 O   0  0  0  0  0  0
  -23.5536  -32.1338   23.7188 O   0  0  0  0  0  0
  -28.4065  -22.3355   19.2257 C   0  0  0  0  0  0
  -28.5796  -23.2609   20.3157 C   0  0  0  0  0  0
  -29.3587  -21.3072   21.5043 C   0  0  0  0  0  0
  -29.1166  -20.3743   20.4318 C   0  0  0  0  0  0
  -29.7860  -20.7968   22.8635 C   0  0  0  0  0  0
  -26.9498  -24.6482   21.7433 C   0  0  0  0  0  0
  -28.9888  -18.7436   20.6140 C   0  0  0  0  0  0
  -30.1075  -17.5528   20.3264 C   0  0  0  0  0  0
  -27.7487  -24.6785   20.4227 C   0  0  1  0  0  0
  -28.6702  -20.9664   19.2744 N   0  0  0  0  0  0
  -29.1263  -22.6821   21.4412 N   0  0  0  0  0  0
  -29.7862  -16.0338   20.5651 N   0  0  0  0  0  0
  -31.4769  -12.6700   19.1873 H   0  0  0  0  0  0
  -30.4046  -11.5692   20.0024 H   0  0  0  0  0  0
  -29.8241  -11.7410   17.5538 H   0  0  0  0  0  0
  -29.6278  -13.4670   17.7077 H   0  0  0  0  0  0
  -27.9185  -11.2825   18.9416 H   0  0  0  0  0  0
  -27.3950  -12.4994   17.8055 H   0  0  0  0  0  0
  -27.6108  -14.2591   19.4401 H   0  0  0  0  0  0
  -28.7440  -12.2471   21.4416 H   0  0  0  0  0  0
  -28.3988  -13.9266   21.7741 H   0  0  0  0  0  0
  -25.2780   -9.5676   22.4744 H   0  0  0  0  0  0
  -23.9988   -7.4657   22.7500 H   0  0  0  0  0  0
  -21.0825   -8.8811   19.8993 H   0  0  0  0  0  0
  -22.3710  -10.9684   19.6171 H   0  0  0  0  0  0
  -21.2023   -7.6137   23.9696 H   0  0  0  0  0  0
  -21.1474   -6.0525   25.9066 H   0  0  0  0  0  0
  -22.0601   -2.7599   23.2862 H   0  0  0  0  0  0
  -22.4081  -11.9914   22.4821 H   0  0  0  0  0  0
  -21.1077  -13.1293   22.2649 H   0  0  0  0  0  0
  -24.6407  -15.8413   20.5256 H   0  0  0  0  0  0
  -26.2571  -15.6367   20.0771 H   0  0  0  0  0  0
  -26.7279  -32.5336   23.1047 H   0  0  0  0  0  0
  -25.0149  -33.9618   25.0415 H   0  0  0  0  0  0
  -22.7482  -31.3001   21.3922 H   0  0  0  0  0  0
  -23.3731  -35.9612   23.3309 H   0  0  0  0  0  0
  -24.3623  -36.8888   22.2069 H   0  0  0  0  0  0
  -23.7216  -37.6469   23.6648 H   0  0  0  0  0  0
  -26.1443  -31.4832   20.6138 H   0  0  0  0  0  0
  -26.8763  -30.7911   22.0210 H   0  0  0  0  0  0
  -28.1170  -28.7991   21.2763 H   0  0  0  0  0  0
  -25.9235  -25.9598   18.8556 H   0  0  0  0  0  0
  -23.9914  -27.3661   18.9102 H   0  0  0  0  0  0
  -23.7971  -30.5856   19.4020 H   0  0  0  0  0  0
  -22.7830  -29.2503   19.8455 H   0  0  0  0  0  0
  -25.1272  -36.1929   25.0808 H   0  0  0  0  0  0
  -21.0023  -28.3271   24.1356 H   0  0  0  0  0  0
  -20.5705  -26.2303   23.3556 H   0  0  0  0  0  0
  -21.6676  -26.7488   22.1133 H   0  0  0  0  0  0
  -19.6970  -25.6367   21.1108 H   0  0  0  0  0  0
  -19.6704  -27.3293   20.6728 H   0  0  0  0  0  0
  -17.4238  -26.6730   21.3988 H   0  0  0  0  0  0
  -18.0415  -26.0040   22.8938 H   0  0  0  0  0  0
  -19.7920  -30.7241   24.2327 H   0  0  0  0  0  0
  -17.4988  -31.6245   24.5135 H   0  0  0  0  0  0
  -15.5344  -30.2933   23.7613 H   0  0  0  0  0  0
  -15.8731  -28.0767   22.7048 H   0  0  0  0  0  0
  -24.5964  -30.6999   25.7737 H   0  0  0  0  0  0
  -24.8837  -32.2864   26.4751 H   0  0  0  0  0  0
  -25.8041  -30.8969   27.0233 H   0  0  0  0  0  0
  -26.2961  -29.6711   24.1238 H   0  0  0  0  0  0
  -27.4034  -29.7237   25.4772 H   0  0  0  0  0  0
  -27.8868  -30.4235   23.9510 H   0  0  0  0  0  0
  -27.2789  -33.3605   26.2009 H   0  0  0  0  0  0
  -28.3951  -32.6737   25.0298 H   0  0  0  0  0  0
  -28.0740  -31.8374   26.5412 H   0  0  0  0  0  0
  -28.2580  -38.0094   24.7482 H   0  0  0  0  0  0
  -28.1052  -36.2617   24.6316 H   0  0  0  0  0  0
  -27.2297  -37.1491   25.8881 H   0  0  0  0  0  0
  -20.9457  -29.8871   21.6894 H   0  0  0  0  0  0
  -26.0166  -38.2827   24.1393 H   0  0  0  0  0  0
  -27.9256  -22.6706   18.3173 H   0  0  0  0  0  0
  -30.5965  -20.0744   22.7673 H   0  0  0  0  0  0
  -28.9468  -20.3024   23.3528 H   0  0  0  0  0  0
  -30.1264  -21.6097   23.5054 H   0  0  0  0  0  0
  -26.1976  -25.4343   21.8148 H   0  0  0  0  0  0
  -27.6207  -24.7600   22.5943 H   0  0  0  0  0  0
  -26.4276  -23.6974   21.8575 H   0  0  0  0  0  0
  -28.1151  -18.4784   20.0179 H   0  0  0  0  0  0
  -28.6505  -18.5961   21.6390 H   0  0  0  0  0  0
  -31.0013  -17.7846   20.9065 H   0  0  0  0  0  0
  -30.4153  -17.6439   19.2840 H   0  0  0  0  0  0
  -27.0318  -24.4884   19.6321 H   0  0  0  0  0  0
  -28.8233  -15.8410   20.7924 H   0  0  0  0  0  0
  1 25  1  0  0  0
  1 30  2  0  0  0
  1 82  1  0  0  0
  2  3  1  0  0  0
  2 25  1  0  0  0
  2 83  1  0  0  0
  2 84  1  0  0  0
  3  4  1  0  0  0
  3 85  1  0  0  0
  3 86  1  0  0  0
  4  5  1  0  0  0
  4 87  1  0  0  0
  4 88  1  0  0  0
  5  6  1  0  0  0
  5 26  1  0  0  0
  5 89  1  0  0  0
  6 25  1  0  0  0
  6 90  1  0  0  0
  6 91  1  0  0  0
  7  8  2  0  0  0
  7 26  1  0  0  0
  7 29  1  0  0  0
  8  9  1  0  0  0
  8 22  1  0  0  0
  9 10  1  0  0  0
  9 27  2  0  0  0
 10 11  2  0  0  0
 10 15  1  0  0  0
 11 12  1  0  0  0
 11 92  1  0  0  0
 12 13  2  0  0  0
 12 93  1  0  0  0
 13 14  1  0  0  0
 13 31  1  0  0  0
 14 15  2  0  0  0
 14 94  1  0  0  0
 15 95  1  0  0  0
 16 17  2  0  0  0
 16 21  1  0  0  0
 16 31  1  0  0  0
 17 18  1  0  0  0
 17 96  1  0  0  0
 18 19  2  0  0  0
 18 97  1  0  0  0
 19 20  1  0  0  0
 19 24  1  0  0  0
 20 21  2  0  0  0
 20 98  1  0  0  0
 21 23  1  0  0  0
 22 28  1  0  0  0
 22 32  2  0  0  0
 26 27  1  0  0  0
 28 99  1  0  0  0
 28100  1  0  0  0
 29101  1  0  0  0
 29102  1  0  0  0
 33 34  1  0  0  0
 33 66  1  0  0  0
 33 70  2  0  0  0
 34 36  1  0  0  0
 34 59  1  0  0  0
 34103  1  0  0  0
 35 44  2  0  0  0
 35 45  1  0  0  0
 35 68  1  0  0  0
 36 56  1  0  0  0
 36104  1  0  0  0
 37 39  1  0  0  0
 37 47  1  0  0  0
 37 66  1  0  0  0
 37105  1  0  0  0
 38 43  2  0  0  0
 38 46  1  0  0  0
 38 47  1  0  0  0
 39 64  1  0  0  0
 39 67  2  0  0  0
 40 52  1  0  0  0
 40 53  2  0  0  0
 40 58  1  0  0  0
 41106  1  0  0  0
 41107  1  0  0  0
 41108  1  0  0  0
 41 48  1  0  0  0
 42 43  1  0  0  0
 42 66  1  0  0  0
 42109  1  0  0  0
 42110  1  0  0  0
 43 44  1  0  0  0
 44111  1  0  0  0
 45 46  2  0  0  0
 45112  1  0  0  0
 46113  1  0  0  0
 47114  1  0  0  0
 47115  1  0  0  0
 48 56  1  0  0  0
 48 65  1  0  0  0
 48116  1  0  0  0
 49 50  1  0  0  0
 49 53  1  0  0  0
 49 64  1  0  0  0
 49117  1  0  0  0
 50 51  1  0  0  0
 50118  1  0  0  0
 50119  1  0  0  0
 51 52  1  0  0  0
 51120  1  0  0  0
 51121  1  0  0  0
 52122  1  0  0  0
 52123  1  0  0  0
 53 54  1  0  0  0
 54 55  2  0  0  0
 54124  1  0  0  0
 55 57  1  0  0  0
 55125  1  0  0  0
 56 69  2  0  0  0
 57 58  2  0  0  0
 57126  1  0  0  0
 58127  1  0  0  0
 59 60  1  0  0  0
 59 61  1  0  0  0
 59 62  1  0  0  0
 60128  1  0  0  0
 60129  1  0  0  0
 60130  1  0  0  0
 61131  1  0  0  0
 61132  1  0  0  0
 61133  1  0  0  0
 62134  1  0  0  0
 62135  1  0  0  0
 62136  1  0  0  0
 63 65  1  0  0  0
 63137  1  0  0  0
 63138  1  0  0  0
 63139  1  0  0  0
 64140  1  0  0  0
 65141  1  0  0  0
 68 79  1  0  0  0
 71 72  2  0  0  0
 71 80  1  0  0  0
 71142  1  0  0  0
 72 79  1  0  0  0
 72 81  1  0  0  0
 73 74  1  0  0  0
 73 75  1  0  0  0
 73 81  2  0  0  0
 74 77  1  0  0  0
 74 80  2  0  0  0
 75143  1  0  0  0
 75144  1  0  0  0
 75145  1  0  0  0
 76146  1  0  0  0
 76147  1  0  0  0
 76148  1  0  0  0
 76 79  1  0  0  0
 77 78  1  0  0  0
 77149  1  0  0  0
 77150  1  0  0  0
 78 82  1  0  0  0
 78151  1  0  0  0
 78152  1  0  0  0
 79153  1  0  0  0
 82154  1  0  0  0
M  ISO  4   1 100  68 101  79 101  82 100
M  END
> <chiral flag>
0

> <version>
0

> <s_m_source_file>
/data/baiqing/PycharmProjects/Reinvent-master-3.2/result/LINK_invent/BTK/process_docking_weight1_custom_sum_contain_oxygen_bond_distance_aromatic_linkinvent_7_9_3/rearranged_h_0047.sdf

> <i_m_source_file_index>
47

> <r_mmod_Potential_Energy-OPLS-2005>
460.772308349609

> <r_mmod_Stretch_Energy-OPLS-2005>
211.446594238281

> <r_mmod_Bend_Energy-OPLS-2005>
238.461898803711

> <r_mmod_Torsional_Energy-OPLS-2005>
231.285125732422

> <r_mmod_Improper_Torsional_Energy-OPLS-2005>
11.3294916152954

> <r_mmod_Van_der_Waal_Energy-OPLS-2005>
146.008911132812

> <r_mmod_Electrostatic_Energy-OPLS-2005>
-308.375610351562

> <r_mmod_Solvation_Energy-OPLS-2005>
-230.166732788086

> <b_mmod_Minimization_Converged-OPLS-2005>
0

> <r_mmod_RMS_Derivative-OPLS-2005>
2.96827626228333

$$$$
47
                    3D
 Structure written by MMmdl.
172180  0  0  1  0            999 V2000
  -30.7085  -14.5036   20.5852 C   0  0  0  0  0  0
  -30.4338  -12.3239   19.4537 C   0  0  0  0  0  0
  -29.5109  -12.5017   18.2281 C   0  0  0  0  0  0
  -28.0334  -12.3442   18.6349 C   0  0  0  0  0  0
  -27.6701  -13.2028   19.8769 C   0  0  2  0  0  0
  -28.7082  -13.0071   21.0109 C   0  0  0  0  0  0
  -25.2649  -13.8147   20.5661 C   0  0  0  0  0  0
  -24.1880  -13.0438   20.9147 C   0  0  0  0  0  0
  -24.6412  -11.6894   20.8700 C   0  0  0  0  0  0
  -23.9069  -10.4285   21.0379 C   0  0  0  0  0  0
  -24.3628   -9.4209   21.9167 C   0  0  0  0  0  0
  -23.6292   -8.2251   22.0760 C   0  0  0  0  0  0
  -22.4272   -8.0287   21.3549 C   0  0  0  0  0  0
  -21.9906   -9.0257   20.4650 C   0  0  0  0  0  0
  -22.7234  -10.2130   20.3037 C   0  0  0  0  0  0
  -21.6854   -6.0738   22.5280 C   0  0  0  0  0  0
  -21.4023   -6.5644   23.8216 C   0  0  0  0  0  0
  -21.3650   -5.6794   24.9173 C   0  0  0  0  0  0
  -21.6036   -4.3056   24.7217 C   0  0  0  0  0  0
  -21.8824   -3.8149   23.4341 C   0  0  0  0  0  0
  -21.9198   -4.6969   22.3400 C   0  0  0  0  0  0
  -22.7910  -13.5275   21.1792 C   0  0  0  0  0  0
  -22.1661   -4.2162   21.0972 F   0  0  0  0  0  0
  -21.5619   -3.4534   25.7726 F   0  0  0  0  0  0
  -30.0492  -13.3126   20.4788 N   0  0  0  0  0  0
  -26.3079  -12.9298   20.3348 N   0  0  0  0  0  0
  -25.9343  -11.6466   20.5744 N   0  0  0  0  0  0
  -22.0526  -12.8280   22.0349 N   0  0  0  0  0  0
  -25.4376  -15.1849   20.4089 N   0  0  0  0  0  0
  -31.7862  -14.7066   20.0283 O   0  0  0  0  0  0
  -21.6629   -6.8879   21.4247 O   0  0  0  0  0  0
  -22.3591  -14.5569   20.6617 O   0  0  0  0  0  0
  -24.6143  -31.8675   23.2129 C   0  0  0  0  0  0
  -25.9012  -32.4842   23.8392 C   0  0  1  0  0  0
  -27.2329  -27.4341   20.0752 C   0  0  0  0  0  0
  -25.5858  -33.8643   24.2328 N   0  0  0  0  0  0
  -23.4021  -30.4923   21.5538 C   0  0  2  0  0  0
  -24.8464  -28.9539   20.1230 C   0  0  0  0  0  0
  -22.7406  -29.4641   22.4981 C   0  0  0  0  0  0
  -18.0278  -28.1359   22.8493 C   0  0  0  0  0  0
  -24.1488  -36.7318   23.2638 C   0  0  0  0  0  0
  -25.9333  -30.8286   21.3650 C   0  0  0  0  0  0
  -26.0099  -29.4617   20.7147 C   0  0  0  0  0  0
  -27.2068  -28.7088   20.6809 C   0  0  0  0  0  0
  -26.0491  -26.9415   19.4792 C   0  0  0  0  0  0
  -24.8605  -27.6882   19.5086 C   0  0  0  0  0  0
  -23.6158  -29.8276   20.1700 C   0  0  0  0  0  0
  -25.4100  -36.3121   24.0353 C   0  0  1  0  0  0
  -20.5868  -28.3636   23.1351 C   0  0  2  0  0  0
  -20.6743  -26.9355   22.5439 C   0  0  0  0  0  0
  -19.5732  -26.6377   21.5230 C   0  0  0  0  0  0
  -18.1921  -26.7915   22.1639 C   0  0  0  0  0  0
  -19.1529  -28.8822   23.2913 C   0  0  0  0  0  0
  -18.9461  -30.1428   23.8894 C   0  0  0  0  0  0
  -17.6464  -30.6559   24.0566 C   0  0  0  0  0  0
  -25.9026  -34.9488   23.5143 C   0  0  0  0  0  0
  -16.5359  -29.9065   23.6324 C   0  0  0  0  0  0
  -16.7282  -28.6513   23.0321 C   0  0  0  0  0  0
  -26.4442  -31.6639   25.0720 C   0  0  0  0  0  0
  -25.3702  -31.3744   26.1476 C   0  0  0  0  0  0
  -27.0244  -30.3093   24.6043 C   0  0  0  0  0  0
  -27.6020  -32.4343   25.7471 C   0  0  0  0  0  0
  -27.5586  -37.1793   24.8466 C   0  0  0  0  0  0
  -21.4145  -29.3017   22.3763 N   0  0  0  0  0  0
  -26.4292  -37.3806   23.9432 N   0  0  0  0  0  0
  -24.6704  -31.0720   22.1060 N   0  0  0  0  0  0
  -23.4207  -28.8161   23.2987 O   0  0  0  0  0  0
  -28.4031  -26.7099   20.0270 O   0  0  0  0  0  0
  -26.5589  -34.8930   22.4704 O   0  0  0  0  0  0
  -23.5340  -32.1430   23.7525 O   0  0  0  0  0  0
  -31.3663  -23.9037   21.5567 C   0  0  0  0  0  0
  -30.1162  -23.5629   20.9991 C   0  0  0  0  0  0
  -31.2614  -22.0722   22.9510 C   0  0  0  0  0  0
  -30.0197  -21.6807   22.3713 C   0  0  0  0  0  0
  -31.9186  -21.3561   24.1138 C   0  0  0  0  0  0
  -29.6686  -19.0896   19.6959 C   0  0  0  0  0  0
  -31.7853  -17.8090   19.8382 C   0  0  0  0  0  0
  -29.5849  -18.3323   24.0448 C   0  0  0  0  0  0
  -29.4885  -24.4929   19.9610 C   0  0  0  0  0  0
  -29.1628  -20.5215   22.9281 C   0  0  0  0  0  0
  -29.5796  -16.7449   20.5941 C   0  0  0  0  0  0
  -30.7851  -18.7482   21.9230 C   0  0  0  0  0  0
  -28.3404  -25.3613   20.5214 C   0  0  0  0  0  0
  -30.4478  -18.0672   20.5563 C   0  0  0  0  0  0
  -31.9438  -23.1575   22.5220 N   0  0  0  0  0  0
  -29.4493  -22.4373   21.3888 N   0  0  0  0  0  0
  -30.0505  -15.4908   21.2324 N   0  0  0  0  0  0
  -29.5925  -19.0840   22.7618 N   0  3  1  0  0  0
  -31.4807  -12.4105   19.1588 H   0  0  0  0  0  0
  -30.3281  -11.3180   19.8611 H   0  0  0  0  0  0
  -29.7672  -11.7695   17.4610 H   0  0  0  0  0  0
  -29.6672  -13.4819   17.7772 H   0  0  0  0  0  0
  -27.8661  -11.2875   18.8534 H   0  0  0  0  0  0
  -27.3806  -12.5826   17.7939 H   0  0  0  0  0  0
  -27.7109  -14.2471   19.5649 H   0  0  0  0  0  0
  -28.6883  -11.9754   21.3671 H   0  0  0  0  0  0
  -28.4511  -13.6145   21.8796 H   0  0  0  0  0  0
  -25.2781   -9.5690   22.4730 H   0  0  0  0  0  0
  -23.9999   -7.4655   22.7488 H   0  0  0  0  0  0
  -21.0838   -8.8772   19.8964 H   0  0  0  0  0  0
  -22.3696  -10.9663   19.6138 H   0  0  0  0  0  0
  -21.2023   -7.6154   23.9729 H   0  0  0  0  0  0
  -21.1459   -6.0513   25.9079 H   0  0  0  0  0  0
  -22.0612   -2.7611   23.2828 H   0  0  0  0  0  0
  -22.4144  -11.9980   22.4798 H   0  0  0  0  0  0
  -21.1136  -13.1310   22.2493 H   0  0  0  0  0  0
  -24.6719  -15.8403   20.5216 H   0  0  0  0  0  0
  -26.2908  -15.6244   20.0902 H   0  0  0  0  0  0
  -26.7080  -32.5529   23.1154 H   0  0  0  0  0  0
  -24.9943  -33.9821   25.0426 H   0  0  0  0  0  0
  -22.6924  -31.3089   21.4142 H   0  0  0  0  0  0
  -23.3771  -35.9631   23.3301 H   0  0  0  0  0  0
  -24.3560  -36.8938   22.2042 H   0  0  0  0  0  0
  -23.7242  -37.6519   23.6672 H   0  0  0  0  0  0
  -26.0310  -31.5901   20.5883 H   0  0  0  0  0  0
  -26.8294  -30.8872   21.9708 H   0  0  0  0  0  0
  -28.1169  -29.0932   21.1136 H   0  0  0  0  0  0
  -26.0483  -25.9888   18.9687 H   0  0  0  0  0  0
  -23.9628  -27.2962   19.0459 H   0  0  0  0  0  0
  -23.7384  -30.6100   19.4209 H   0  0  0  0  0  0
  -22.7354  -29.2589   19.8651 H   0  0  0  0  0  0
  -25.1269  -36.1987   25.0852 H   0  0  0  0  0  0
  -20.9944  -28.3184   24.1478 H   0  0  0  0  0  0
  -20.5644  -26.2184   23.3592 H   0  0  0  0  0  0
  -21.6599  -26.7363   22.1205 H   0  0  0  0  0  0
  -19.6851  -25.6300   21.1227 H   0  0  0  0  0  0
  -19.6716  -27.3189   20.6772 H   0  0  0  0  0  0
  -17.4164  -26.6704   21.4056 H   0  0  0  0  0  0
  -18.0291  -26.0028   22.9012 H   0  0  0  0  0  0
  -19.7939  -30.7263   24.2236 H   0  0  0  0  0  0
  -17.5030  -31.6254   24.5161 H   0  0  0  0  0  0
  -15.5343  -30.2980   23.7672 H   0  0  0  0  0  0
  -15.8677  -28.0879   22.6965 H   0  0  0  0  0  0
  -24.5879  -30.7074   25.7851 H   0  0  0  0  0  0
  -24.8856  -32.2885   26.4927 H   0  0  0  0  0  0
  -25.8025  -30.8934   27.0248 H   0  0  0  0  0  0
  -26.2752  -29.6906   24.1101 H   0  0  0  0  0  0
  -27.4050  -29.7307   25.4466 H   0  0  0  0  0  0
  -27.8586  -30.4425   23.9146 H   0  0  0  0  0  0
  -27.2665  -33.3689   26.1990 H   0  0  0  0  0  0
  -28.3841  -32.6851   25.0284 H   0  0  0  0  0  0
  -28.0652  -31.8487   26.5417 H   0  0  0  0  0  0
  -28.2569  -38.0121   24.7507 H   0  0  0  0  0  0
  -28.1109  -36.2631   24.6290 H   0  0  0  0  0  0
  -27.2276  -37.1421   25.8862 H   0  0  0  0  0  0
  -20.9287  -29.8791   21.7037 H   0  0  0  0  0  0
  -26.0199  -38.2887   24.1479 H   0  0  0  0  0  0
  -31.8948  -24.7971   21.2575 H   0  0  0  0  0  0
  -32.6396  -20.6257   23.7454 H   0  0  0  0  0  0
  -31.1983  -20.8632   24.7626 H   0  0  0  0  0  0
  -32.4610  -22.0762   24.7277 H   0  0  0  0  0  0
  -28.6978  -19.3414   20.1232 H   0  0  0  0  0  0
  -29.4878  -18.7010   18.6942 H   0  0  0  0  0  0
  -30.2093  -20.0287   19.5733 H   0  0  0  0  0  0
  -31.6272  -17.3702   18.8527 H   0  0  0  0  0  0
  -32.4287  -17.1437   20.4125 H   0  0  0  0  0  0
  -32.3424  -18.7363   19.6911 H   0  0  0  0  0  0
  -30.2756  -18.7554   24.7776 H   0  0  0  0  0  0
  -29.8616  -17.2868   23.8974 H   0  0  0  0  0  0
  -28.5886  -18.3431   24.4875 H   0  0  0  0  0  0
  -29.1659  -23.9234   19.0889 H   0  0  0  0  0  0
  -30.2768  -25.1534   19.5971 H   0  0  0  0  0  0
  -28.1576  -20.5993   22.5077 H   0  0  0  0  0  0
  -29.0172  -20.7420   23.9850 H   0  0  0  0  0  0
  -29.3121  -16.4828   19.5672 H   0  0  0  0  0  0
  -28.6189  -16.9678   21.0623 H   0  0  0  0  0  0
  -31.4046  -19.6267   21.7324 H   0  0  0  0  0  0
  -31.4573  -18.0930   22.4800 H   0  0  0  0  0  0
  -28.4247  -25.4207   21.6087 H   0  0  0  0  0  0
  -27.3940  -24.8554   20.3244 H   0  0  0  0  0  0
  -29.3602  -15.1057   21.8608 H   0  0  0  0  0  0
  -28.8141  -18.6912   22.2556 H   0  0  0  0  0  0
  1 25  1  0  0  0
  1 30  2  0  0  0
  1 87  1  0  0  0
  2  3  1  0  0  0
  2 25  1  0  0  0
  2 89  1  0  0  0
  2 90  1  0  0  0
  3  4  1  0  0  0
  3 91  1  0  0  0
  3 92  1  0  0  0
  4  5  1  0  0  0
  4 93  1  0  0  0
  4 94  1  0  0  0
  5  6  1  0  0  0
  5 26  1  0  0  0
  5 95  1  0  0  0
  6 25  1  0  0  0
  6 96  1  0  0  0
  6 97  1  0  0  0
  7  8  2  0  0  0
  7 26  1  0  0  0
  7 29  1  0  0  0
  8  9  1  0  0  0
  8 22  1  0  0  0
  9 10  1  0  0  0
  9 27  2  0  0  0
 10 11  2  0  0  0
 10 15  1  0  0  0
 11 12  1  0  0  0
 11 98  1  0  0  0
 12 13  2  0  0  0
 12 99  1  0  0  0
 13 14  1  0  0  0
 13 31  1  0  0  0
 14 15  2  0  0  0
 14100  1  0  0  0
 15101  1  0  0  0
 16 17  2  0  0  0
 16 21  1  0  0  0
 16 31  1  0  0  0
 17 18  1  0  0  0
 17102  1  0  0  0
 18 19  2  0  0  0
 18103  1  0  0  0
 19 20  1  0  0  0
 19 24  1  0  0  0
 20 21  2  0  0  0
 20104  1  0  0  0
 21 23  1  0  0  0
 22 28  1  0  0  0
 22 32  2  0  0  0
 26 27  1  0  0  0
 28105  1  0  0  0
 28106  1  0  0  0
 29107  1  0  0  0
 29108  1  0  0  0
 33 34  1  0  0  0
 33 66  1  0  0  0
 33 70  2  0  0  0
 34 36  1  0  0  0
 34 59  1  0  0  0
 34109  1  0  0  0
 35 44  2  0  0  0
 35 45  1  0  0  0
 35 68  1  0  0  0
 36 56  1  0  0  0
 36110  1  0  0  0
 37 39  1  0  0  0
 37 47  1  0  0  0
 37 66  1  0  0  0
 37111  1  0  0  0
 38 43  2  0  0  0
 38 46  1  0  0  0
 38 47  1  0  0  0
 39 64  1  0  0  0
 39 67  2  0  0  0
 40 52  1  0  0  0
 40 53  2  0  0  0
 40 58  1  0  0  0
 41112  1  0  0  0
 41113  1  0  0  0
 41114  1  0  0  0
 41 48  1  0  0  0
 42 43  1  0  0  0
 42 66  1  0  0  0
 42115  1  0  0  0
 42116  1  0  0  0
 43 44  1  0  0  0
 44117  1  0  0  0
 45 46  2  0  0  0
 45118  1  0  0  0
 46119  1  0  0  0
 47120  1  0  0  0
 47121  1  0  0  0
 48 56  1  0  0  0
 48 65  1  0  0  0
 48122  1  0  0  0
 49 50  1  0  0  0
 49 53  1  0  0  0
 49 64  1  0  0  0
 49123  1  0  0  0
 50 51  1  0  0  0
 50124  1  0  0  0
 50125  1  0  0  0
 51 52  1  0  0  0
 51126  1  0  0  0
 51127  1  0  0  0
 52128  1  0  0  0
 52129  1  0  0  0
 53 54  1  0  0  0
 54 55  2  0  0  0
 54130  1  0  0  0
 55 57  1  0  0  0
 55131  1  0  0  0
 56 69  2  0  0  0
 57 58  2  0  0  0
 57132  1  0  0  0
 58133  1  0  0  0
 59 60  1  0  0  0
 59 61  1  0  0  0
 59 62  1  0  0  0
 60134  1  0  0  0
 60135  1  0  0  0
 60136  1  0  0  0
 61137  1  0  0  0
 61138  1  0  0  0
 61139  1  0  0  0
 62140  1  0  0  0
 62141  1  0  0  0
 62142  1  0  0  0
 63 65  1  0  0  0
 63143  1  0  0  0
 63144  1  0  0  0
 63145  1  0  0  0
 64146  1  0  0  0
 65147  1  0  0  0
 68 83  1  0  0  0
 71 72  2  0  0  0
 71 85  1  0  0  0
 71148  1  0  0  0
 72 79  1  0  0  0
 72 86  1  0  0  0
 73 74  1  0  0  0
 73 75  1  0  0  0
 73 85  2  0  0  0
 74 80  1  0  0  0
 74 86  2  0  0  0
 75149  1  0  0  0
 75150  1  0  0  0
 75151  1  0  0  0
 76152  1  0  0  0
 76153  1  0  0  0
 76154  1  0  0  0
 76 84  1  0  0  0
 77 84  1  0  0  0
 77155  1  0  0  0
 77156  1  0  0  0
 77157  1  0  0  0
 78158  1  0  0  0
 78159  1  0  0  0
 78160  1  0  0  0
 78 88  1  0  0  0
 79 83  1  0  0  0
 79161  1  0  0  0
 79162  1  0  0  0
 80 88  1  0  0  0
 80163  1  0  0  0
 80164  1  0  0  0
 81 84  1  0  0  0
 81 87  1  0  0  0
 81165  1  0  0  0
 81166  1  0  0  0
 82 84  1  0  0  0
 82 88  1  0  0  0
 82167  1  0  0  0
 82168  1  0  0  0
 83169  1  0  0  0
 83170  1  0  0  0
 87171  1  0  0  0
 88172  1  0  0  0
M  CHG  1  88   1
M  ISO  4   1 100  68 101  83 101  87 100
M  END
> <chiral flag>
0

> <version>
0

> <s_m_source_file>
/data/baiqing/PycharmProjects/Reinvent-master-3.2/result/LINK_invent/BTK/process_docking_weight1_custom_sum_contain_oxygen_bond_distance_aromatic_linkinvent_7_9_3/rearranged_h_0047.sdf

> <i_m_source_file_index>
48

> <r_mmod_Potential_Energy-OPLS-2005>
-66.8693008422852

> <r_mmod_Stretch_Energy-OPLS-2005>
49.7582206726074

> <r_mmod_Bend_Energy-OPLS-2005>
149.850296020508

> <r_mmod_Torsional_Energy-OPLS-2005>
292.606658935547

> <r_mmod_Improper_Torsional_Energy-OPLS-2005>
7.58744096755981

> <r_mmod_Van_der_Waal_Energy-OPLS-2005>
148.930938720703

> <r_mmod_Electrostatic_Energy-OPLS-2005>
-263.674377441406

> <r_mmod_Solvation_Energy-OPLS-2005>
-466.254852294922

> <b_mmod_Minimization_Converged-OPLS-2005>
0

> <r_mmod_RMS_Derivative-OPLS-2005>
5.15107679367065

$$$$
48
                    3D
 Structure written by MMmdl.
148156  0  0  1  0            999 V2000
  -30.4666  -15.2158   20.3779 C   0  0  0  0  0  0
  -30.4380  -12.7749   19.5220 C   0  0  0  0  0  0
  -29.5331  -12.5674   18.2826 C   0  0  0  0  0  0
  -28.0792  -12.3013   18.7101 C   0  0  0  0  0  0
  -27.6138  -13.2727   19.8241 C   0  0  2  0  0  0
  -28.6493  -13.4312   20.9578 C   0  0  0  0  0  0
  -25.2399  -13.8247   20.5748 C   0  0  0  0  0  0
  -24.1747  -13.0438   20.9257 C   0  0  0  0  0  0
  -24.6399  -11.6935   20.8764 C   0  0  0  0  0  0
  -23.9094  -10.4294   21.0409 C   0  0  0  0  0  0
  -24.3638   -9.4206   21.9187 C   0  0  0  0  0  0
  -23.6306   -8.2244   22.0756 C   0  0  0  0  0  0
  -22.4288   -8.0286   21.3546 C   0  0  0  0  0  0
  -21.9931   -9.0259   20.4645 C   0  0  0  0  0  0
  -22.7267  -10.2135   20.3054 C   0  0  0  0  0  0
  -21.6856   -6.0741   22.5279 C   0  0  0  0  0  0
  -21.4017   -6.5643   23.8213 C   0  0  0  0  0  0
  -21.3659   -5.6794   24.9173 C   0  0  0  0  0  0
  -21.6043   -4.3057   24.7223 C   0  0  0  0  0  0
  -21.8819   -3.8150   23.4343 C   0  0  0  0  0  0
  -21.9193   -4.6968   22.3400 C   0  0  0  0  0  0
  -22.7762  -13.5189   21.1898 C   0  0  0  0  0  0
  -22.1661   -4.2156   21.0977 F   0  0  0  0  0  0
  -21.5626   -3.4537   25.7733 F   0  0  0  0  0  0
  -29.8877  -13.9203   20.3324 N   0  0  0  0  0  0
  -26.2825  -12.9518   20.3221 N   0  0  0  0  0  0
  -25.9336  -11.6624   20.5724 N   0  0  0  0  0  0
  -22.0416  -12.8173   22.0452 N   0  0  0  0  0  0
  -25.4031  -15.1983   20.4184 N   0  0  0  0  0  0
  -31.6867  -15.2102   20.1640 O   0  0  0  0  0  0
  -21.6643   -6.8888   21.4243 O   0  0  0  0  0  0
  -22.3442  -14.5487   20.6734 O   0  0  0  0  0  0
  -24.6605  -31.8271   23.1742 C   0  0  0  0  0  0
  -25.9299  -32.4609   23.8194 C   0  0  1  0  0  0
  -27.2153  -26.9563   20.1771 C   0  0  0  0  0  0
  -25.5980  -33.8422   24.2106 N   0  0  0  0  0  0
  -23.4737  -30.4410   21.5233 C   0  0  2  0  0  0
  -24.9270  -28.8365   20.1121 C   0  0  0  0  0  0
  -22.7654  -29.4462   22.4797 C   0  0  0  0  0  0
  -18.0320  -28.1407   22.8474 C   0  0  0  0  0  0
  -24.1495  -36.7215   23.2646 C   0  0  0  0  0  0
  -26.0421  -30.6432   21.4004 C   0  0  0  0  0  0
  -26.1110  -29.2362   20.7443 C   0  0  0  0  0  0
  -27.2517  -28.3165   20.7543 C   0  0  0  0  0  0
  -26.0033  -26.7085   19.4923 C   0  0  0  0  0  0
  -24.8973  -27.5926   19.4657 C   0  0  0  0  0  0
  -23.7118  -29.7603   20.1482 C   0  0  0  0  0  0
  -25.4135  -36.2980   24.0304 C   0  0  1  0  0  0
  -20.5943  -28.3750   23.1198 C   0  0  2  0  0  0
  -20.6797  -26.9434   22.5403 C   0  0  0  0  0  0
  -19.5771  -26.6382   21.5214 C   0  0  0  0  0  0
  -18.1954  -26.7945   22.1623 C   0  0  0  0  0  0
  -19.1580  -28.8900   23.2824 C   0  0  0  0  0  0
  -18.9489  -30.1491   23.8856 C   0  0  0  0  0  0
  -17.6482  -30.6598   24.0557 C   0  0  0  0  0  0
  -25.9093  -34.9361   23.5023 C   0  0  0  0  0  0
  -16.5374  -29.9084   23.6343 C   0  0  0  0  0  0
  -16.7302  -28.6503   23.0365 C   0  0  0  0  0  0
  -26.4562  -31.6536   25.0704 C   0  0  0  0  0  0
  -25.3697  -31.3779   26.1367 C   0  0  0  0  0  0
  -27.0450  -30.2909   24.6406 C   0  0  0  0  0  0
  -27.6065  -32.4334   25.7499 C   0  0  0  0  0  0
  -27.5570  -37.1771   24.8470 C   0  0  0  0  0  0
  -21.4325  -29.3047   22.3550 N   0  0  0  0  0  0
  -26.4285  -37.3708   23.9401 N   0  0  0  0  0  0
  -24.7467  -30.9963   22.0865 N   0  0  0  0  0  0
  -23.4218  -28.8025   23.3021 O   0  0  0  0  0  0
  -28.2035  -25.8470   20.2619 O   0  0  0  0  0  0
  -26.5691  -34.8887   22.4610 O   0  0  0  0  0  0
  -23.5682  -32.1225   23.6855 O   0  0  0  0  0  0
  -29.7102  -20.7140   19.3177 C   0  0  0  0  0  0
  -29.4073  -19.6866   20.3053 C   0  0  0  0  0  0
  -28.6426  -20.4366   21.2907 C   0  0  0  0  0  0
  -28.6191  -22.7204   20.2660 C   0  0  0  0  0  0
  -28.1840  -19.7268   22.5468 C   0  0  0  0  0  0
  -30.1456  -18.0951   20.3506 C   0  0  0  0  0  0
  -27.8270  -24.2670   20.0608 C   0  0  0  0  0  0
  -29.3341  -22.0818   19.2889 N   0  0  0  0  0  0
  -28.2712  -21.8117   21.2421 N   0  0  0  0  0  0
  -29.7248  -16.4939   20.4576 N   0  0  0  0  0  0
  -31.4601  -12.9676   19.1925 H   0  0  0  0  0  0
  -30.4912  -11.8642   20.1209 H   0  0  0  0  0  0
  -29.9035  -11.7415   17.6737 H   0  0  0  0  0  0
  -29.5719  -13.4567   17.6516 H   0  0  0  0  0  0
  -28.0281  -11.2754   19.0765 H   0  0  0  0  0  0
  -27.4108  -12.3529   17.8499 H   0  0  0  0  0  0
  -27.5343  -14.2435   19.3333 H   0  0  0  0  0  0
  -28.8061  -12.4923   21.4911 H   0  0  0  0  0  0
  -28.2984  -14.1550   21.6953 H   0  0  0  0  0  0
  -25.2779   -9.5678   22.4769 H   0  0  0  0  0  0
  -24.0008   -7.4634   22.7479 H   0  0  0  0  0  0
  -21.0862   -8.8783   19.8949 H   0  0  0  0  0  0
  -22.3728  -10.9674   19.6164 H   0  0  0  0  0  0
  -21.2014   -7.6152   23.9721 H   0  0  0  0  0  0
  -21.1479   -6.0521   25.9078 H   0  0  0  0  0  0
  -22.0599   -2.7613   23.2837 H   0  0  0  0  0  0
  -22.4039  -11.9840   22.4842 H   0  0  0  0  0  0
  -21.1024  -13.1182   22.2642 H   0  0  0  0  0  0
  -24.6317  -15.8472   20.5325 H   0  0  0  0  0  0
  -26.2413  -15.6405   20.0653 H   0  0  0  0  0  0
  -26.7367  -32.5163   23.0911 H   0  0  0  0  0  0
  -25.0100  -33.9508   25.0238 H   0  0  0  0  0  0
  -22.7854  -31.2721   21.3560 H   0  0  0  0  0  0
  -23.3760  -35.9543   23.3294 H   0  0  0  0  0  0
  -24.3572  -36.8865   22.2063 H   0  0  0  0  0  0
  -23.7248  -37.6402   23.6703 H   0  0  0  0  0  0
  -26.2174  -31.3862   20.6213 H   0  0  0  0  0  0
  -26.9045  -30.7015   22.0525 H   0  0  0  0  0  0
  -28.1467  -28.6185   21.2798 H   0  0  0  0  0  0
  -25.8648  -25.7624   18.9919 H   0  0  0  0  0  0
  -23.9980  -27.2823   18.9514 H   0  0  0  0  0  0
  -23.8649  -30.5303   19.3912 H   0  0  0  0  0  0
  -22.8220  -29.2134   19.8307 H   0  0  0  0  0  0
  -25.1333  -36.1784   25.0795 H   0  0  0  0  0  0
  -21.0037  -28.3348   24.1319 H   0  0  0  0  0  0
  -20.5681  -26.2364   23.3638 H   0  0  0  0  0  0
  -21.6661  -26.7416   22.1205 H   0  0  0  0  0  0
  -19.6924  -25.6281   21.1269 H   0  0  0  0  0  0
  -19.6704  -27.3172   20.6726 H   0  0  0  0  0  0
  -17.4222  -26.6694   21.4026 H   0  0  0  0  0  0
  -18.0345  -26.0096   22.9027 H   0  0  0  0  0  0
  -19.7960  -30.7326   24.2203 H   0  0  0  0  0  0
  -17.5027  -31.6271   24.5167 H   0  0  0  0  0  0
  -15.5370  -30.2970   23.7690 H   0  0  0  0  0  0
  -15.8703  -28.0806   22.7105 H   0  0  0  0  0  0
  -24.5900  -30.7103   25.7681 H   0  0  0  0  0  0
  -24.8864  -32.2977   26.4669 H   0  0  0  0  0  0
  -25.7943  -30.9031   27.0222 H   0  0  0  0  0  0
  -26.3110  -29.6597   24.1388 H   0  0  0  0  0  0
  -27.3972  -29.7256   25.5044 H   0  0  0  0  0  0
  -27.9056  -30.4101   23.9822 H   0  0  0  0  0  0
  -27.2650  -33.3684   26.1953 H   0  0  0  0  0  0
  -28.3944  -32.6809   25.0373 H   0  0  0  0  0  0
  -28.0658  -31.8533   26.5514 H   0  0  0  0  0  0
  -28.2587  -38.0065   24.7496 H   0  0  0  0  0  0
  -28.1062  -36.2591   24.6329 H   0  0  0  0  0  0
  -27.2281  -37.1455   25.8872 H   0  0  0  0  0  0
  -20.9571  -29.8737   21.6684 H   0  0  0  0  0  0
  -26.0135  -38.2769   24.1392 H   0  0  0  0  0  0
  -30.3352  -20.4300   18.4840 H   0  0  0  0  0  0
  -28.7351  -18.8004   22.7040 H   0  0  0  0  0  0
  -27.1241  -19.4839   22.4756 H   0  0  0  0  0  0
  -28.3335  -20.3558   23.4245 H   0  0  0  0  0  0
  -30.8603  -18.1976   21.1682 H   0  0  0  0  0  0
  -30.7823  -18.1044   19.4650 H   0  0  0  0  0  0
  -26.9109  -24.1501   20.6399 H   0  0  0  0  0  0
  -27.4949  -24.2164   19.0244 H   0  0  0  0  0  0
  -28.7350  -16.3426   20.5859 H   0  0  0  0  0  0
  1 25  1  0  0  0
  1 30  2  0  0  0
  1 80  1  0  0  0
  2  3  1  0  0  0
  2 25  1  0  0  0
  2 81  1  0  0  0
  2 82  1  0  0  0
  3  4  1  0  0  0
  3 83  1  0  0  0
  3 84  1  0  0  0
  4  5  1  0  0  0
  4 85  1  0  0  0
  4 86  1  0  0  0
  5  6  1  0  0  0
  5 26  1  0  0  0
  5 87  1  0  0  0
  6 25  1  0  0  0
  6 88  1  0  0  0
  6 89  1  0  0  0
  7  8  2  0  0  0
  7 26  1  0  0  0
  7 29  1  0  0  0
  8  9  1  0  0  0
  8 22  1  0  0  0
  9 10  1  0  0  0
  9 27  2  0  0  0
 10 11  2  0  0  0
 10 15  1  0  0  0
 11 12  1  0  0  0
 11 90  1  0  0  0
 12 13  2  0  0  0
 12 91  1  0  0  0
 13 14  1  0  0  0
 13 31  1  0  0  0
 14 15  2  0  0  0
 14 92  1  0  0  0
 15 93  1  0  0  0
 16 17  2  0  0  0
 16 21  1  0  0  0
 16 31  1  0  0  0
 17 18  1  0  0  0
 17 94  1  0  0  0
 18 19  2  0  0  0
 18 95  1  0  0  0
 19 20  1  0  0  0
 19 24  1  0  0  0
 20 21  2  0  0  0
 20 96  1  0  0  0
 21 23  1  0  0  0
 22 28  1  0  0  0
 22 32  2  0  0  0
 26 27  1  0  0  0
 28 97  1  0  0  0
 28 98  1  0  0  0
 29 99  1  0  0  0
 29100  1  0  0  0
 33 34  1  0  0  0
 33 66  1  0  0  0
 33 70  2  0  0  0
 34 36  1  0  0  0
 34 59  1  0  0  0
 34101  1  0  0  0
 35 44  2  0  0  0
 35 45  1  0  0  0
 35 68  1  0  0  0
 36 56  1  0  0  0
 36102  1  0  0  0
 37 39  1  0  0  0
 37 47  1  0  0  0
 37 66  1  0  0  0
 37103  1  0  0  0
 38 43  2  0  0  0
 38 46  1  0  0  0
 38 47  1  0  0  0
 39 64  1  0  0  0
 39 67  2  0  0  0
 40 52  1  0  0  0
 40 53  2  0  0  0
 40 58  1  0  0  0
 41104  1  0  0  0
 41105  1  0  0  0
 41106  1  0  0  0
 41 48  1  0  0  0
 42 43  1  0  0  0
 42 66  1  0  0  0
 42107  1  0  0  0
 42108  1  0  0  0
 43 44  1  0  0  0
 44109  1  0  0  0
 45 46  2  0  0  0
 45110  1  0  0  0
 46111  1  0  0  0
 47112  1  0  0  0
 47113  1  0  0  0
 48 56  1  0  0  0
 48 65  1  0  0  0
 48114  1  0  0  0
 49 50  1  0  0  0
 49 53  1  0  0  0
 49 64  1  0  0  0
 49115  1  0  0  0
 50 51  1  0  0  0
 50116  1  0  0  0
 50117  1  0  0  0
 51 52  1  0  0  0
 51118  1  0  0  0
 51119  1  0  0  0
 52120  1  0  0  0
 52121  1  0  0  0
 53 54  1  0  0  0
 54 55  2  0  0  0
 54122  1  0  0  0
 55 57  1  0  0  0
 55123  1  0  0  0
 56 69  2  0  0  0
 57 58  2  0  0  0
 57124  1  0  0  0
 58125  1  0  0  0
 59 60  1  0  0  0
 59 61  1  0  0  0
 59 62  1  0  0  0
 60126  1  0  0  0
 60127  1  0  0  0
 60128  1  0  0  0
 61129  1  0  0  0
 61130  1  0  0  0
 61131  1  0  0  0
 62132  1  0  0  0
 62133  1  0  0  0
 62134  1  0  0  0
 63 65  1  0  0  0
 63135  1  0  0  0
 63136  1  0  0  0
 63137  1  0  0  0
 64138  1  0  0  0
 65139  1  0  0  0
 68 77  1  0  0  0
 71 72  2  0  0  0
 71 78  1  0  0  0
 71140  1  0  0  0
 72 73  1  0  0  0
 72 76  1  0  0  0
 73 75  1  0  0  0
 73 79  2  0  0  0
 74 77  1  0  0  0
 74 78  2  0  0  0
 74 79  1  0  0  0
 75141  1  0  0  0
 75142  1  0  0  0
 75143  1  0  0  0
 76 80  1  0  0  0
 76144  1  0  0  0
 76145  1  0  0  0
 77146  1  0  0  0
 77147  1  0  0  0
 80148  1  0  0  0
M  ISO  4   1 100  68 101  77 101  80 100
M  END
> <chiral flag>
0

> <version>
0

> <s_m_source_file>
/data/baiqing/PycharmProjects/Reinvent-master-3.2/result/LINK_invent/BTK/process_docking_weight1_custom_sum_contain_oxygen_bond_distance_aromatic_linkinvent_7_9_3/rearranged_h_0047.sdf

> <i_m_source_file_index>
49

> <r_mmod_Potential_Energy-OPLS-2005>
810.883056640625

> <r_mmod_Stretch_Energy-OPLS-2005>
484.482269287109

> <r_mmod_Bend_Energy-OPLS-2005>
443.674194335938

> <r_mmod_Torsional_Energy-OPLS-2005>
215.372756958008

> <r_mmod_Improper_Torsional_Energy-OPLS-2005>
9.86579322814941

> <r_mmod_Van_der_Waal_Energy-OPLS-2005>
136.795471191406

> <r_mmod_Electrostatic_Energy-OPLS-2005>
-648.921447753906

> <r_mmod_Solvation_Energy-OPLS-2005>
-244.835311889648

> <b_mmod_Minimization_Converged-OPLS-2005>
0

> <r_mmod_RMS_Derivative-OPLS-2005>
0.567332029342651

$$$$
49
                    3D
 Structure written by MMmdl.
157165  0  0  1  0            999 V2000
  -30.5323  -14.9714   20.3838 C   0  0  0  0  0  0
  -30.4348  -12.5884   19.5136 C   0  0  0  0  0  0
  -29.5226  -12.5315   18.2646 C   0  0  0  0  0  0
  -28.0492  -12.3305   18.6637 C   0  0  0  0  0  0
  -27.6237  -13.2572   19.8342 C   0  0  2  0  0  0
  -28.6620  -13.2880   20.9754 C   0  0  0  0  0  0
  -25.2392  -13.8239   20.5681 C   0  0  0  0  0  0
  -24.1720  -13.0452   20.9199 C   0  0  0  0  0  0
  -24.6351  -11.6920   20.8724 C   0  0  0  0  0  0
  -23.9087  -10.4272   21.0385 C   0  0  0  0  0  0
  -24.3657   -9.4173   21.9143 C   0  0  0  0  0  0
  -23.6322   -8.2204   22.0719 C   0  0  0  0  0  0
  -22.4288   -8.0265   21.3525 C   0  0  0  0  0  0
  -21.9930   -9.0233   20.4614 C   0  0  0  0  0  0
  -22.7264  -10.2102   20.3027 C   0  0  0  0  0  0
  -21.6865   -6.0718   22.5275 C   0  0  0  0  0  0
  -21.4017   -6.5630   23.8203 C   0  0  0  0  0  0
  -21.3686   -5.6782   24.9177 C   0  0  0  0  0  0
  -21.6061   -4.3037   24.7226 C   0  0  0  0  0  0
  -21.8832   -3.8129   23.4358 C   0  0  0  0  0  0
  -21.9194   -4.6937   22.3407 C   0  0  0  0  0  0
  -22.7727  -13.5125   21.1942 C   0  0  0  0  0  0
  -22.1657   -4.2106   21.0969 F   0  0  0  0  0  0
  -21.5662   -3.4529   25.7749 F   0  0  0  0  0  0
  -29.9439  -13.7013   20.3802 N   0  0  0  0  0  0
  -26.2825  -12.9485   20.3190 N   0  0  0  0  0  0
  -25.9264  -11.6605   20.5667 N   0  0  0  0  0  0
  -22.0463  -12.8030   22.0502 N   0  0  0  0  0  0
  -25.4085  -15.1976   20.4093 N   0  0  0  0  0  0
  -31.7297  -15.0294   20.0872 O   0  0  0  0  0  0
  -21.6660   -6.8860   21.4225 O   0  0  0  0  0  0
  -22.3298  -14.5391   20.6808 O   0  0  0  0  0  0
  -24.6512  -31.8368   23.1785 C   0  0  0  0  0  0
  -25.9251  -32.4675   23.8232 C   0  0  1  0  0  0
  -27.2530  -27.0902   20.1413 C   0  0  0  0  0  0
  -25.5968  -33.8484   24.2156 N   0  0  0  0  0  0
  -23.4617  -30.4456   21.5289 C   0  0  2  0  0  0
  -24.9174  -28.8542   20.1167 C   0  0  0  0  0  0
  -22.7645  -29.4463   22.4872 C   0  0  0  0  0  0
  -18.0320  -28.1393   22.8474 C   0  0  0  0  0  0
  -24.1497  -36.7233   23.2639 C   0  0  0  0  0  0
  -26.0206  -30.6902   21.3891 C   0  0  0  0  0  0
  -26.0964  -29.2949   20.7309 C   0  0  0  0  0  0
  -27.2627  -28.4321   20.7184 C   0  0  0  0  0  0
  -26.0358  -26.7486   19.5105 C   0  0  0  0  0  0
  -24.9016  -27.5952   19.4931 C   0  0  0  0  0  0
  -23.6935  -29.7606   20.1541 C   0  0  0  0  0  0
  -25.4138  -36.3037   24.0314 C   0  0  1  0  0  0
  -20.5922  -28.3730   23.1231 C   0  0  2  0  0  0
  -20.6798  -26.9425   22.5402 C   0  0  0  0  0  0
  -19.5754  -26.6367   21.5224 C   0  0  0  0  0  0
  -18.1943  -26.7936   22.1614 C   0  0  0  0  0  0
  -19.1570  -28.8893   23.2830 C   0  0  0  0  0  0
  -18.9478  -30.1482   23.8855 C   0  0  0  0  0  0
  -17.6473  -30.6585   24.0553 C   0  0  0  0  0  0
  -25.9091  -34.9416   23.5057 C   0  0  0  0  0  0
  -16.5364  -29.9068   23.6339 C   0  0  0  0  0  0
  -16.7301  -28.6486   23.0359 C   0  0  0  0  0  0
  -26.4519  -31.6573   25.0706 C   0  0  0  0  0  0
  -25.3651  -31.3801   26.1370 C   0  0  0  0  0  0
  -27.0396  -30.2963   24.6350 C   0  0  0  0  0  0
  -27.6065  -32.4344   25.7462 C   0  0  0  0  0  0
  -27.5613  -37.1760   24.8456 C   0  0  0  0  0  0
  -21.4320  -29.3024   22.3624 N   0  0  0  0  0  0
  -26.4301  -37.3759   23.9431 N   0  0  0  0  0  0
  -24.7307  -31.0145   22.0857 N   0  0  0  0  0  0
  -23.4276  -28.8049   23.3065 O   0  0  0  0  0  0
  -28.3380  -26.1184   20.1681 O   0  0  0  0  0  0
  -26.5691  -34.8918   22.4640 O   0  0  0  0  0  0
  -23.5603  -32.1292   23.6940 O   0  0  0  0  0  0
  -31.7928  -23.8534   19.6936 C   0  0  0  0  0  0
  -32.0298  -22.4802   19.5533 C   0  0  0  0  0  0
  -29.4832  -23.5122   20.0239 C   0  0  0  0  0  0
  -29.7633  -21.9949   19.9852 C   0  0  0  0  0  0
  -33.4008  -21.9500   19.1504 C   0  0  0  0  0  0
  -27.4367  -20.8703   20.1868 C   0  0  0  0  0  0
  -28.1800  -24.5411   20.0517 C   0  0  0  0  0  0
  -29.3731  -19.1029   20.6758 C   0  0  0  0  0  0
  -29.9628  -17.6669   19.9793 C   0  0  0  0  0  0
  -28.9194  -20.5837   19.9233 C   0  0  2  0  0  0
  -30.5583  -24.3426   19.9317 N   0  0  0  0  0  0
  -31.0403  -21.5840   19.7355 N   0  0  0  0  0  0
  -29.7539  -16.1637   20.4912 N   0  0  0  0  0  0
  -31.4732  -12.7277   19.2100 H   0  0  0  0  0  0
  -30.4137  -11.6420   20.0535 H   0  0  0  0  0  0
  -29.8392  -11.7372   17.5855 H   0  0  0  0  0  0
  -29.6162  -13.4701   17.7162 H   0  0  0  0  0  0
  -27.9058  -11.2842   18.9440 H   0  0  0  0  0  0
  -27.4070  -12.5076   17.7976 H   0  0  0  0  0  0
  -27.5873  -14.2602   19.4059 H   0  0  0  0  0  0
  -28.7276  -12.3081   21.4513 H   0  0  0  0  0  0
  -28.3555  -13.9884   21.7521 H   0  0  0  0  0  0
  -25.2840   -9.5604   22.4661 H   0  0  0  0  0  0
  -24.0078   -7.4545   22.7376 H   0  0  0  0  0  0
  -21.0925   -8.8709   19.8844 H   0  0  0  0  0  0
  -22.3770  -10.9624   19.6081 H   0  0  0  0  0  0
  -21.1987   -7.6120   23.9698 H   0  0  0  0  0  0
  -21.1522   -6.0513   25.9090 H   0  0  0  0  0  0
  -22.0598   -2.7592   23.2874 H   0  0  0  0  0  0
  -22.4267  -11.9789   22.4920 H   0  0  0  0  0  0
  -21.1005  -13.0799   22.2727 H   0  0  0  0  0  0
  -24.6410  -15.8541   20.5166 H   0  0  0  0  0  0
  -26.2481  -15.6348   20.0572 H   0  0  0  0  0  0
  -26.7329  -32.5263   23.0973 H   0  0  0  0  0  0
  -25.0140  -33.9581   25.0324 H   0  0  0  0  0  0
  -22.7641  -31.2699   21.3650 H   0  0  0  0  0  0
  -23.3808  -35.9511   23.3241 H   0  0  0  0  0  0
  -24.3587  -36.8924   22.2067 H   0  0  0  0  0  0
  -23.7187  -37.6377   23.6706 H   0  0  0  0  0  0
  -26.1938  -31.4386   20.6173 H   0  0  0  0  0  0
  -26.8872  -30.7376   22.0394 H   0  0  0  0  0  0
  -28.1666  -28.7740   21.2037 H   0  0  0  0  0  0
  -25.9401  -25.7830   19.0357 H   0  0  0  0  0  0
  -24.0016  -27.2498   19.0017 H   0  0  0  0  0  0
  -23.8316  -30.5307   19.3925 H   0  0  0  0  0  0
  -22.8091  -29.1979   19.8465 H   0  0  0  0  0  0
  -25.1311  -36.1865   25.0804 H   0  0  0  0  0  0
  -20.9980  -28.3319   24.1366 H   0  0  0  0  0  0
  -20.5706  -26.2338   23.3632 H   0  0  0  0  0  0
  -21.6657  -26.7427   22.1190 H   0  0  0  0  0  0
  -19.6915  -25.6272   21.1272 H   0  0  0  0  0  0
  -19.6693  -27.3158   20.6742 H   0  0  0  0  0  0
  -17.4214  -26.6704   21.4009 H   0  0  0  0  0  0
  -18.0305  -26.0084   22.9016 H   0  0  0  0  0  0
  -19.7944  -30.7310   24.2212 H   0  0  0  0  0  0
  -17.5005  -31.6256   24.5162 H   0  0  0  0  0  0
  -15.5346  -30.2946   23.7674 H   0  0  0  0  0  0
  -15.8700  -28.0777   22.7093 H   0  0  0  0  0  0
  -24.5754  -30.7272   25.7620 H   0  0  0  0  0  0
  -24.8911  -32.2992   26.4810 H   0  0  0  0  0  0
  -25.7826  -30.8877   27.0154 H   0  0  0  0  0  0
  -26.3024  -29.6670   24.1334 H   0  0  0  0  0  0
  -27.3962  -29.7299   25.4966 H   0  0  0  0  0  0
  -27.8962  -30.4203   23.9730 H   0  0  0  0  0  0
  -27.2665  -33.3616   26.2092 H   0  0  0  0  0  0
  -28.3805  -32.6962   25.0234 H   0  0  0  0  0  0
  -28.0836  -31.8451   26.5309 H   0  0  0  0  0  0
  -28.2561  -38.0129   24.7619 H   0  0  0  0  0  0
  -28.1175  -36.2661   24.6131 H   0  0  0  0  0  0
  -27.2341  -37.1246   25.8857 H   0  0  0  0  0  0
  -20.9609  -29.8735   21.6749 H   0  0  0  0  0  0
  -26.0170  -38.2814   24.1464 H   0  0  0  0  0  0
  -32.5893  -24.5724   19.5641 H   0  0  0  0  0  0
  -33.9894  -22.7368   18.6754 H   0  0  0  0  0  0
  -33.3160  -21.1239   18.4369 H   0  0  0  0  0  0
  -33.9679  -21.5986   20.0126 H   0  0  0  0  0  0
  -27.0521  -21.6194   19.4895 H   0  0  0  0  0  0
  -27.2767  -21.2325   21.2036 H   0  0  0  0  0  0
  -26.8256  -19.9780   20.0403 H   0  0  0  0  0  0
  -27.5168  -24.2124   20.8511 H   0  0  0  0  0  0
  -27.6502  -24.3344   19.1230 H   0  0  0  0  0  0
  -30.0355  -19.3565   21.5037 H   0  0  0  0  0  0
  -28.4705  -18.7653   21.1889 H   0  0  0  0  0  0
  -31.0414  -17.7983   19.8815 H   0  0  0  0  0  0
  -29.5965  -17.6652   18.9517 H   0  0  0  0  0  0
  -28.9688  -20.3318   18.8629 H   0  0  0  0  0  0
  -28.8021  -15.9604   20.7564 H   0  0  0  0  0  0
  1 25  1  0  0  0
  1 30  2  0  0  0
  1 83  1  0  0  0
  2  3  1  0  0  0
  2 25  1  0  0  0
  2 84  1  0  0  0
  2 85  1  0  0  0
  3  4  1  0  0  0
  3 86  1  0  0  0
  3 87  1  0  0  0
  4  5  1  0  0  0
  4 88  1  0  0  0
  4 89  1  0  0  0
  5  6  1  0  0  0
  5 26  1  0  0  0
  5 90  1  0  0  0
  6 25  1  0  0  0
  6 91  1  0  0  0
  6 92  1  0  0  0
  7  8  2  0  0  0
  7 26  1  0  0  0
  7 29  1  0  0  0
  8  9  1  0  0  0
  8 22  1  0  0  0
  9 10  1  0  0  0
  9 27  2  0  0  0
 10 11  2  0  0  0
 10 15  1  0  0  0
 11 12  1  0  0  0
 11 93  1  0  0  0
 12 13  2  0  0  0
 12 94  1  0  0  0
 13 14  1  0  0  0
 13 31  1  0  0  0
 14 15  2  0  0  0
 14 95  1  0  0  0
 15 96  1  0  0  0
 16 17  2  0  0  0
 16 21  1  0  0  0
 16 31  1  0  0  0
 17 18  1  0  0  0
 17 97  1  0  0  0
 18 19  2  0  0  0
 18 98  1  0  0  0
 19 20  1  0  0  0
 19 24  1  0  0  0
 20 21  2  0  0  0
 20 99  1  0  0  0
 21 23  1  0  0  0
 22 28  1  0  0  0
 22 32  2  0  0  0
 26 27  1  0  0  0
 28100  1  0  0  0
 28101  1  0  0  0
 29102  1  0  0  0
 29103  1  0  0  0
 33 34  1  0  0  0
 33 66  1  0  0  0
 33 70  2  0  0  0
 34 36  1  0  0  0
 34 59  1  0  0  0
 34104  1  0  0  0
 35 44  2  0  0  0
 35 45  1  0  0  0
 35 68  1  0  0  0
 36 56  1  0  0  0
 36105  1  0  0  0
 37 39  1  0  0  0
 37 47  1  0  0  0
 37 66  1  0  0  0
 37106  1  0  0  0
 38 43  2  0  0  0
 38 46  1  0  0  0
 38 47  1  0  0  0
 39 64  1  0  0  0
 39 67  2  0  0  0
 40 52  1  0  0  0
 40 53  2  0  0  0
 40 58  1  0  0  0
 41107  1  0  0  0
 41108  1  0  0  0
 41109  1  0  0  0
 41 48  1  0  0  0
 42 43  1  0  0  0
 42 66  1  0  0  0
 42110  1  0  0  0
 42111  1  0  0  0
 43 44  1  0  0  0
 44112  1  0  0  0
 45 46  2  0  0  0
 45113  1  0  0  0
 46114  1  0  0  0
 47115  1  0  0  0
 47116  1  0  0  0
 48 56  1  0  0  0
 48 65  1  0  0  0
 48117  1  0  0  0
 49 50  1  0  0  0
 49 53  1  0  0  0
 49 64  1  0  0  0
 49118  1  0  0  0
 50 51  1  0  0  0
 50119  1  0  0  0
 50120  1  0  0  0
 51 52  1  0  0  0
 51121  1  0  0  0
 51122  1  0  0  0
 52123  1  0  0  0
 52124  1  0  0  0
 53 54  1  0  0  0
 54 55  2  0  0  0
 54125  1  0  0  0
 55 57  1  0  0  0
 55126  1  0  0  0
 56 69  2  0  0  0
 57 58  2  0  0  0
 57127  1  0  0  0
 58128  1  0  0  0
 59 60  1  0  0  0
 59 61  1  0  0  0
 59 62  1  0  0  0
 60129  1  0  0  0
 60130  1  0  0  0
 60131  1  0  0  0
 61132  1  0  0  0
 61133  1  0  0  0
 61134  1  0  0  0
 62135  1  0  0  0
 62136  1  0  0  0
 62137  1  0  0  0
 63 65  1  0  0  0
 63138  1  0  0  0
 63139  1  0  0  0
 63140  1  0  0  0
 64141  1  0  0  0
 65142  1  0  0  0
 68 77  1  0  0  0
 71 72  2  0  0  0
 71 81  1  0  0  0
 71143  1  0  0  0
 72 75  1  0  0  0
 72 82  1  0  0  0
 73 74  1  0  0  0
 73 77  1  0  0  0
 73 81  2  0  0  0
 74 80  1  0  0  0
 74 82  2  0  0  0
 75144  1  0  0  0
 75145  1  0  0  0
 75146  1  0  0  0
 76147  1  0  0  0
 76148  1  0  0  0
 76149  1  0  0  0
 76 80  1  0  0  0
 77150  1  0  0  0
 77151  1  0  0  0
 78 79  1  0  0  0
 78 80  1  0  0  0
 78152  1  0  0  0
 78153  1  0  0  0
 79 83  1  0  0  0
 79154  1  0  0  0
 79155  1  0  0  0
 80156  1  0  0  0
 83157  1  0  0  0
M  ISO  4   1 100  68 101  77 101  83 100
M  END
> <chiral flag>
0

> <version>
0

> <s_m_source_file>
/data/baiqing/PycharmProjects/Reinvent-master-3.2/result/LINK_invent/BTK/process_docking_weight1_custom_sum_contain_oxygen_bond_distance_aromatic_linkinvent_7_9_3/rearranged_h_0047.sdf

> <i_m_source_file_index>
50

> <r_mmod_Potential_Energy-OPLS-2005>
737.900390625

> <r_mmod_Stretch_Energy-OPLS-2005>
339.388122558594

> <r_mmod_Bend_Energy-OPLS-2005>
348.003387451172

> <r_mmod_Torsional_Energy-OPLS-2005>
226.748413085938

> <r_mmod_Improper_Torsional_Energy-OPLS-2005>
6.45090770721436

> <r_mmod_Van_der_Waal_Energy-OPLS-2005>
126.24479675293

> <r_mmod_Electrostatic_Energy-OPLS-2005>
-289.312805175781

> <r_mmod_Solvation_Energy-OPLS-2005>
-235.708297729492

> <b_mmod_Minimization_Converged-OPLS-2005>
0

> <r_mmod_RMS_Derivative-OPLS-2005>
6.04896640777588

$$$$
50
                    3D
 Structure written by MMmdl.
154162  0  0  1  0            999 V2000
  -30.6542  -14.6339   20.5068 C   0  0  0  0  0  0
  -30.4243  -12.3922   19.4566 C   0  0  0  0  0  0
  -29.4989  -12.4942   18.2256 C   0  0  0  0  0  0
  -28.0245  -12.3327   18.6425 C   0  0  0  0  0  0
  -27.6456  -13.2211   19.8570 C   0  0  2  0  0  0
  -28.6893  -13.1094   20.9904 C   0  0  0  0  0  0
  -25.2523  -13.8183   20.5693 C   0  0  0  0  0  0
  -24.1798  -13.0432   20.9189 C   0  0  0  0  0  0
  -24.6374  -11.6905   20.8738 C   0  0  0  0  0  0
  -23.9047  -10.4286   21.0404 C   0  0  0  0  0  0
  -24.3602   -9.4203   21.9182 C   0  0  0  0  0  0
  -23.6281   -8.2235   22.0756 C   0  0  0  0  0  0
  -22.4270   -8.0271   21.3543 C   0  0  0  0  0  0
  -21.9898   -9.0239   20.4643 C   0  0  0  0  0  0
  -22.7219  -10.2121   20.3049 C   0  0  0  0  0  0
  -21.6858   -6.0722   22.5271 C   0  0  0  0  0  0
  -21.4013   -6.5630   23.8201 C   0  0  0  0  0  0
  -21.3659   -5.6789   24.9168 C   0  0  0  0  0  0
  -21.6051   -4.3053   24.7227 C   0  0  0  0  0  0
  -21.8813   -3.8136   23.4349 C   0  0  0  0  0  0
  -21.9191   -4.6949   22.3401 C   0  0  0  0  0  0
  -22.7822  -13.5213   21.1864 C   0  0  0  0  0  0
  -22.1659   -4.2127   21.0982 F   0  0  0  0  0  0
  -21.5633   -3.4541   25.7746 F   0  0  0  0  0  0
  -30.0003  -13.4344   20.4150 N   0  0  0  0  0  0
  -26.2947  -12.9367   20.3304 N   0  0  0  0  0  0
  -25.9303  -11.6519   20.5762 N   0  0  0  0  0  0
  -22.0488  -12.8192   22.0431 N   0  0  0  0  0  0
  -25.4227  -15.1910   20.4130 N   0  0  0  0  0  0
  -31.8293  -14.7431   20.1492 O   0  0  0  0  0  0
  -21.6638   -6.8865   21.4235 O   0  0  0  0  0  0
  -22.3496  -14.5529   20.6737 O   0  0  0  0  0  0
  -24.6256  -31.8602   23.2017 C   0  0  0  0  0  0
  -25.9111  -32.4785   23.8335 C   0  0  1  0  0  0
  -27.2276  -27.3206   20.1109 C   0  0  0  0  0  0
  -25.5938  -33.8585   24.2264 N   0  0  0  0  0  0
  -23.4186  -30.4815   21.5459 C   0  0  2  0  0  0
  -24.8639  -28.9382   20.1082 C   0  0  0  0  0  0
  -22.7485  -29.4613   22.4961 C   0  0  0  0  0  0
  -18.0284  -28.1393   22.8498 C   0  0  0  0  0  0
  -24.1486  -36.7273   23.2642 C   0  0  0  0  0  0
  -25.9582  -30.7903   21.3719 C   0  0  0  0  0  0
  -26.0305  -29.4167   20.7158 C   0  0  0  0  0  0
  -27.2097  -28.6171   20.7127 C   0  0  0  0  0  0
  -26.0278  -26.8823   19.5038 C   0  0  0  0  0  0
  -24.8653  -27.6759   19.4952 C   0  0  0  0  0  0
  -23.6297  -29.8148   20.1602 C   0  0  0  0  0  0
  -25.4111  -36.3079   24.0327 C   0  0  1  0  0  0
  -20.5885  -28.3681   23.1308 C   0  0  2  0  0  0
  -20.6780  -26.9408   22.5418 C   0  0  0  0  0  0
  -19.5744  -26.6381   21.5237 C   0  0  0  0  0  0
  -18.1921  -26.7940   22.1634 C   0  0  0  0  0  0
  -19.1538  -28.8858   23.2897 C   0  0  0  0  0  0
  -18.9465  -30.1472   23.8895 C   0  0  0  0  0  0
  -17.6466  -30.6602   24.0566 C   0  0  0  0  0  0
  -25.9057  -34.9460   23.5093 C   0  0  0  0  0  0
  -16.5352  -29.9094   23.6348 C   0  0  0  0  0  0
  -16.7268  -28.6515   23.0363 C   0  0  0  0  0  0
  -26.4492  -31.6611   25.0712 C   0  0  0  0  0  0
  -25.3719  -31.3750   26.1439 C   0  0  0  0  0  0
  -27.0360  -30.3057   24.6146 C   0  0  0  0  0  0
  -27.6043  -32.4364   25.7482 C   0  0  0  0  0  0
  -27.5572  -37.1789   24.8469 C   0  0  0  0  0  0
  -21.4206  -29.3040   22.3726 N   0  0  0  0  0  0
  -26.4287  -37.3776   23.9417 N   0  0  0  0  0  0
  -24.6863  -31.0609   22.0967 N   0  0  0  0  0  0
  -23.4227  -28.8156   23.3027 O   0  0  0  0  0  0
  -28.3648  -26.5024   20.1838 O   0  0  0  0  0  0
  -26.5618  -34.8933   22.4655 O   0  0  0  0  0  0
  -23.5424  -32.1401   23.7348 O   0  0  0  0  0  0
  -29.8937  -22.3571   21.2351 C   0  0  0  0  0  0
  -29.4967  -21.2273   20.4733 C   0  0  0  0  0  0
  -28.6044  -21.5616   19.4298 C   0  0  0  0  0  0
  -28.7129  -23.8568   19.9161 C   0  0  0  0  0  0
  -28.0609  -20.5217   18.4729 C   0  0  0  0  0  0
  -30.1971  -19.8248   20.6911 C   0  0  0  0  0  0
  -28.5332  -25.3121   19.3255 C   0  0  0  0  0  0
  -29.4628  -18.4073   20.6970 C   0  0  0  0  0  0
  -30.4481  -17.1643   20.8962 C   0  0  0  0  0  0
  -29.5224  -23.6393   20.9558 N   0  0  0  0  0  0
  -28.2296  -22.8462   19.1786 N   0  0  0  0  0  0
  -29.9227  -15.7519   20.8228 N   0  0  0  0  0  0
  -31.4667  -12.5026   19.1528 H   0  0  0  0  0  0
  -30.3496  -11.4046   19.9150 H   0  0  0  0  0  0
  -29.7632  -11.7342   17.4897 H   0  0  0  0  0  0
  -29.6388  -13.4586   17.7349 H   0  0  0  0  0  0
  -27.8708  -11.2823   18.8951 H   0  0  0  0  0  0
  -27.3648  -12.5409   17.7999 H   0  0  0  0  0  0
  -27.6558  -14.2497   19.4961 H   0  0  0  0  0  0
  -28.7009  -12.1017   21.4074 H   0  0  0  0  0  0
  -28.4387  -13.7768   21.8170 H   0  0  0  0  0  0
  -25.2748   -9.5682   22.4754 H   0  0  0  0  0  0
  -23.9988   -7.4635   22.7482 H   0  0  0  0  0  0
  -21.0823   -8.8745   19.8956 H   0  0  0  0  0  0
  -22.3669  -10.9652   19.6151 H   0  0  0  0  0  0
  -21.2002   -7.6138   23.9693 H   0  0  0  0  0  0
  -21.1493   -6.0530   25.9071 H   0  0  0  0  0  0
  -22.0594   -2.7596   23.2861 H   0  0  0  0  0  0
  -22.4120  -11.9830   22.4759 H   0  0  0  0  0  0
  -21.1117  -13.1206   22.2694 H   0  0  0  0  0  0
  -24.6570  -15.8463   20.5307 H   0  0  0  0  0  0
  -26.2719  -15.6322   20.0828 H   0  0  0  0  0  0
  -26.7164  -32.5444   23.1074 H   0  0  0  0  0  0
  -25.0162  -33.9730   25.0466 H   0  0  0  0  0  0
  -22.7120  -31.3019   21.4041 H   0  0  0  0  0  0
  -23.3771  -35.9588   23.3306 H   0  0  0  0  0  0
  -24.3580  -36.8895   22.2062 H   0  0  0  0  0  0
  -23.7217  -37.6466   23.6663 H   0  0  0  0  0  0
  -26.0874  -31.5518   20.6017 H   0  0  0  0  0  0
  -26.8404  -30.8384   21.9984 H   0  0  0  0  0  0
  -28.1038  -28.9831   21.1980 H   0  0  0  0  0  0
  -25.9365  -25.9019   19.0622 H   0  0  0  0  0  0
  -23.9661  -27.2966   19.0302 H   0  0  0  0  0  0
  -23.7388  -30.5905   19.4016 H   0  0  0  0  0  0
  -22.7510  -29.2398   19.8634 H   0  0  0  0  0  0
  -25.1290  -36.1927   25.0821 H   0  0  0  0  0  0
  -20.9964  -28.3228   24.1435 H   0  0  0  0  0  0
  -20.5737  -26.2273   23.3608 H   0  0  0  0  0  0
  -21.6637  -26.7466   22.1175 H   0  0  0  0  0  0
  -19.6912  -25.6294   21.1266 H   0  0  0  0  0  0
  -19.6693  -27.3203   20.6779 H   0  0  0  0  0  0
  -17.4205  -26.6733   21.4018 H   0  0  0  0  0  0
  -18.0276  -26.0070   22.9007 H   0  0  0  0  0  0
  -19.7946  -30.7303   24.2250 H   0  0  0  0  0  0
  -17.5017  -31.6286   24.5159 H   0  0  0  0  0  0
  -15.5360  -30.2993   23.7685 H   0  0  0  0  0  0
  -15.8664  -28.0839   22.7072 H   0  0  0  0  0  0
  -24.5896  -30.7093   25.7761 H   0  0  0  0  0  0
  -24.8907  -32.2922   26.4839 H   0  0  0  0  0  0
  -25.8035  -30.8943   27.0226 H   0  0  0  0  0  0
  -26.2936  -29.6802   24.1177 H   0  0  0  0  0  0
  -27.4120  -29.7301   25.4612 H   0  0  0  0  0  0
  -27.8756  -30.4392   23.9323 H   0  0  0  0  0  0
  -27.2649  -33.3685   26.2007 H   0  0  0  0  0  0
  -28.3871  -32.6904   25.0324 H   0  0  0  0  0  0
  -28.0685  -31.8535   26.5448 H   0  0  0  0  0  0
  -28.2582  -38.0100   24.7544 H   0  0  0  0  0  0
  -28.1085  -36.2632   24.6259 H   0  0  0  0  0  0
  -27.2298  -37.1383   25.8878 H   0  0  0  0  0  0
  -20.9396  -29.8758   21.6925 H   0  0  0  0  0  0
  -26.0169  -38.2850   24.1445 H   0  0  0  0  0  0
  -30.6002  -22.2440   22.0447 H   0  0  0  0  0  0
  -27.3087  -19.9143   18.9743 H   0  0  0  0  0  0
  -28.8573  -19.8702   18.1155 H   0  0  0  0  0  0
  -27.5997  -20.9813   17.5991 H   0  0  0  0  0  0
  -30.7393  -19.8962   21.6350 H   0  0  0  0  0  0
  -30.9790  -19.7747   19.9316 H   0  0  0  0  0  0
  -27.8138  -25.2750   18.5112 H   0  0  0  0  0  0
  -29.4682  -25.5012   18.7982 H   0  0  0  0  0  0
  -28.9219  -18.2598   19.7637 H   0  0  0  0  0  0
  -28.7125  -18.3993   21.4885 H   0  0  0  0  0  0
  -30.9314  -17.2664   21.8699 H   0  0  0  0  0  0
  -31.2529  -17.2626   20.1663 H   0  0  0  0  0  0
  -28.9478  -15.6054   21.0397 H   0  0  0  0  0  0
  1 25  1  0  0  0
  1 30  2  0  0  0
  1 82  1  0  0  0
  2  3  1  0  0  0
  2 25  1  0  0  0
  2 83  1  0  0  0
  2 84  1  0  0  0
  3  4  1  0  0  0
  3 85  1  0  0  0
  3 86  1  0  0  0
  4  5  1  0  0  0
  4 87  1  0  0  0
  4 88  1  0  0  0
  5  6  1  0  0  0
  5 26  1  0  0  0
  5 89  1  0  0  0
  6 25  1  0  0  0
  6 90  1  0  0  0
  6 91  1  0  0  0
  7  8  2  0  0  0
  7 26  1  0  0  0
  7 29  1  0  0  0
  8  9  1  0  0  0
  8 22  1  0  0  0
  9 10  1  0  0  0
  9 27  2  0  0  0
 10 11  2  0  0  0
 10 15  1  0  0  0
 11 12  1  0  0  0
 11 92  1  0  0  0
 12 13  2  0  0  0
 12 93  1  0  0  0
 13 14  1  0  0  0
 13 31  1  0  0  0
 14 15  2  0  0  0
 14 94  1  0  0  0
 15 95  1  0  0  0
 16 17  2  0  0  0
 16 21  1  0  0  0
 16 31  1  0  0  0
 17 18  1  0  0  0
 17 96  1  0  0  0
 18 19  2  0  0  0
 18 97  1  0  0  0
 19 20  1  0  0  0
 19 24  1  0  0  0
 20 21  2  0  0  0
 20 98  1  0  0  0
 21 23  1  0  0  0
 22 28  1  0  0  0
 22 32  2  0  0  0
 26 27  1  0  0  0
 28 99  1  0  0  0
 28100  1  0  0  0
 29101  1  0  0  0
 29102  1  0  0  0
 33 34  1  0  0  0
 33 66  1  0  0  0
 33 70  2  0  0  0
 34 36  1  0  0  0
 34 59  1  0  0  0
 34103  1  0  0  0
 35 44  2  0  0  0
 35 45  1  0  0  0
 35 68  1  0  0  0
 36 56  1  0  0  0
 36104  1  0  0  0
 37 39  1  0  0  0
 37 47  1  0  0  0
 37 66  1  0  0  0
 37105  1  0  0  0
 38 43  2  0  0  0
 38 46  1  0  0  0
 38 47  1  0  0  0
 39 64  1  0  0  0
 39 67  2  0  0  0
 40 52  1  0  0  0
 40 53  2  0  0  0
 40 58  1  0  0  0
 41106  1  0  0  0
 41107  1  0  0  0
 41108  1  0  0  0
 41 48  1  0  0  0
 42 43  1  0  0  0
 42 66  1  0  0  0
 42109  1  0  0  0
 42110  1  0  0  0
 43 44  1  0  0  0
 44111  1  0  0  0
 45 46  2  0  0  0
 45112  1  0  0  0
 46113  1  0  0  0
 47114  1  0  0  0
 47115  1  0  0  0
 48 56  1  0  0  0
 48 65  1  0  0  0
 48116  1  0  0  0
 49 50  1  0  0  0
 49 53  1  0  0  0
 49 64  1  0  0  0
 49117  1  0  0  0
 50 51  1  0  0  0
 50118  1  0  0  0
 50119  1  0  0  0
 51 52  1  0  0  0
 51120  1  0  0  0
 51121  1  0  0  0
 52122  1  0  0  0
 52123  1  0  0  0
 53 54  1  0  0  0
 54 55  2  0  0  0
 54124  1  0  0  0
 55 57  1  0  0  0
 55125  1  0  0  0
 56 69  2  0  0  0
 57 58  2  0  0  0
 57126  1  0  0  0
 58127  1  0  0  0
 59 60  1  0  0  0
 59 61  1  0  0  0
 59 62  1  0  0  0
 60128  1  0  0  0
 60129  1  0  0  0
 60130  1  0  0  0
 61131  1  0  0  0
 61132  1  0  0  0
 61133  1  0  0  0
 62134  1  0  0  0
 62135  1  0  0  0
 62136  1  0  0  0
 63 65  1  0  0  0
 63137  1  0  0  0
 63138  1  0  0  0
 63139  1  0  0  0
 64140  1  0  0  0
 65141  1  0  0  0
 68 77  1  0  0  0
 71 72  2  0  0  0
 71 80  1  0  0  0
 71142  1  0  0  0
 72 73  1  0  0  0
 72 76  1  0  0  0
 73 75  1  0  0  0
 73 81  2  0  0  0
 74 77  1  0  0  0
 74 80  2  0  0  0
 74 81  1  0  0  0
 75143  1  0  0  0
 75144  1  0  0  0
 75145  1  0  0  0
 76 78  1  0  0  0
 76146  1  0  0  0
 76147  1  0  0  0
 77148  1  0  0  0
 77149  1  0  0  0
 78 79  1  0  0  0
 78150  1  0  0  0
 78151  1  0  0  0
 79 82  1  0  0  0
 79152  1  0  0  0
 79153  1  0  0  0
 82154  1  0  0  0
M  ISO  4   1 100  68 101  77 101  82 100
M  END
> <chiral flag>
0

> <version>
0

> <s_m_source_file>
/data/baiqing/PycharmProjects/Reinvent-master-3.2/result/LINK_invent/BTK/process_docking_weight1_custom_sum_contain_oxygen_bond_distance_aromatic_linkinvent_7_9_3/rearranged_h_0047.sdf

> <i_m_source_file_index>
51

> <r_mmod_Potential_Energy-OPLS-2005>
-286.044464111328

> <r_mmod_Stretch_Energy-OPLS-2005>
78.9375991821289

> <r_mmod_Bend_Energy-OPLS-2005>
161.008926391602

> <r_mmod_Torsional_Energy-OPLS-2005>
205.703338623047

> <r_mmod_Improper_Torsional_Energy-OPLS-2005>
6.7417140007019

> <r_mmod_Van_der_Waal_Energy-OPLS-2005>
151.665405273438

> <r_mmod_Electrostatic_Energy-OPLS-2005>
-700.481689453125

> <r_mmod_Solvation_Energy-OPLS-2005>
-237.714019775391

> <b_mmod_Minimization_Converged-OPLS-2005>
0

> <r_mmod_RMS_Derivative-OPLS-2005>
1.9105007648468

$$$$
51
                    3D
 Structure written by MMmdl.
153161  0  0  1  0            999 V2000
  -30.6681  -14.7116   20.5176 C   0  0  0  0  0  0
  -30.4306  -12.4480   19.4729 C   0  0  0  0  0  0
  -29.5102  -12.5131   18.2324 C   0  0  0  0  0  0
  -28.0335  -12.3443   18.6390 C   0  0  0  0  0  0
  -27.6458  -13.2299   19.8516 C   0  0  2  0  0  0
  -28.6871  -13.1235   20.9824 C   0  0  0  0  0  0
  -25.2532  -13.8194   20.5692 C   0  0  0  0  0  0
  -24.1803  -13.0453   20.9183 C   0  0  0  0  0  0
  -24.6385  -11.6924   20.8721 C   0  0  0  0  0  0
  -23.9055  -10.4305   21.0391 C   0  0  0  0  0  0
  -24.3613   -9.4223   21.9168 C   0  0  0  0  0  0
  -23.6286   -8.2261   22.0750 C   0  0  0  0  0  0
  -22.4265   -8.0293   21.3551 C   0  0  0  0  0  0
  -21.9901   -9.0262   20.4654 C   0  0  0  0  0  0
  -22.7226  -10.2140   20.3053 C   0  0  0  0  0  0
  -21.6865   -6.0730   22.5280 C   0  0  0  0  0  0
  -21.4020   -6.5631   23.8212 C   0  0  0  0  0  0
  -21.3656   -5.6781   24.9170 C   0  0  0  0  0  0
  -21.6039   -4.3047   24.7223 C   0  0  0  0  0  0
  -21.8814   -3.8140   23.4347 C   0  0  0  0  0  0
  -21.9194   -4.6955   22.3402 C   0  0  0  0  0  0
  -22.7826  -13.5251   21.1851 C   0  0  0  0  0  0
  -22.1666   -4.2141   21.0981 F   0  0  0  0  0  0
  -21.5627   -3.4530   25.7735 F   0  0  0  0  0  0
  -29.9946  -13.5047   20.4212 N   0  0  0  0  0  0
  -26.2952  -12.9399   20.3273 N   0  0  0  0  0  0
  -25.9320  -11.6540   20.5722 N   0  0  0  0  0  0
  -22.0480  -12.8253   22.0421 N   0  0  0  0  0  0
  -25.4250  -15.1915   20.4142 N   0  0  0  0  0  0
  -31.8173  -14.7822   20.0708 O   0  0  0  0  0  0
  -21.6649   -6.8879   21.4243 O   0  0  0  0  0  0
  -22.3512  -14.5551   20.6691 O   0  0  0  0  0  0
  -24.6301  -31.8567   23.2014 C   0  0  0  0  0  0
  -25.9138  -32.4775   23.8347 C   0  0  1  0  0  0
  -27.2222  -27.2751   20.1239 C   0  0  0  0  0  0
  -25.5941  -33.8572   24.2273 N   0  0  0  0  0  0
  -23.4268  -30.4805   21.5442 C   0  0  2  0  0  0
  -24.8759  -28.9345   20.1080 C   0  0  0  0  0  0
  -22.7509  -29.4605   22.4928 C   0  0  0  0  0  0
  -18.0295  -28.1376   22.8488 C   0  0  0  0  0  0
  -24.1484  -36.7288   23.2636 C   0  0  0  0  0  0
  -25.9718  -30.7739   21.3814 C   0  0  0  0  0  0
  -26.0465  -29.3979   20.7222 C   0  0  0  0  0  0
  -27.2216  -28.5800   20.7228 C   0  0  0  0  0  0
  -26.0314  -26.8929   19.4596 C   0  0  0  0  0  0
  -24.8738  -27.6908   19.4634 C   0  0  0  0  0  0
  -23.6438  -29.8161   20.1601 C   0  0  0  0  0  0
  -25.4110  -36.3090   24.0328 C   0  0  1  0  0  0
  -20.5897  -28.3698   23.1272 C   0  0  2  0  0  0
  -20.6776  -26.9419   22.5411 C   0  0  0  0  0  0
  -19.5762  -26.6378   21.5212 C   0  0  0  0  0  0
  -18.1937  -26.7924   22.1622 C   0  0  0  0  0  0
  -19.1540  -28.8857   23.2872 C   0  0  0  0  0  0
  -18.9470  -30.1456   23.8901 C   0  0  0  0  0  0
  -17.6466  -30.6583   24.0557 C   0  0  0  0  0  0
  -25.9054  -34.9454   23.5098 C   0  0  0  0  0  0
  -16.5360  -29.9080   23.6323 C   0  0  0  0  0  0
  -16.7279  -28.6488   23.0362 C   0  0  0  0  0  0
  -26.4495  -31.6602   25.0733 C   0  0  0  0  0  0
  -25.3703  -31.3769   26.1453 C   0  0  0  0  0  0
  -27.0334  -30.3025   24.6201 C   0  0  0  0  0  0
  -27.6060  -32.4336   25.7496 C   0  0  0  0  0  0
  -27.5578  -37.1801   24.8463 C   0  0  0  0  0  0
  -21.4213  -29.3044   22.3667 N   0  0  0  0  0  0
  -26.4296  -37.3784   23.9409 N   0  0  0  0  0  0
  -24.6955  -31.0536   22.0992 N   0  0  0  0  0  0
  -23.4212  -28.8133   23.3015 O   0  0  0  0  0  0
  -28.3078  -26.3691   20.2061 O   0  0  0  0  0  0
  -26.5623  -34.8923   22.4671 O   0  0  0  0  0  0
  -23.5457  -32.1394   23.7315 O   0  0  0  0  0  0
  -29.3605  -19.7129   19.6667 C   0  0  0  0  0  0
  -29.4275  -20.5104   21.6590 C   0  0  0  0  0  0
  -29.7833  -18.6622   20.5012 C   0  0  0  0  0  0
  -29.4021  -16.0362   22.1615 C   0  0  0  0  0  0
  -30.3287  -17.2166   20.1272 C   0  0  0  0  0  0
  -28.9705  -23.6824   20.4381 C   0  0  0  0  0  0
  -28.5169  -22.2193   19.9228 C   0  0  0  0  0  0
  -28.0460  -24.9134   19.9432 C   0  0  0  0  0  0
  -29.8357  -19.2332   21.7797 N   0  0  0  0  0  0
  -29.1244  -20.9068   20.4092 N   0  0  0  0  0  0
  -29.9894  -15.8923   20.8279 N   0  0  0  0  0  0
  -31.4725  -12.5554   19.1688 H   0  0  0  0  0  0
  -30.3722  -11.4664   19.9450 H   0  0  0  0  0  0
  -29.7896  -11.7424   17.5120 H   0  0  0  0  0  0
  -29.6435  -13.4689   17.7222 H   0  0  0  0  0  0
  -27.8779  -11.2924   18.8833 H   0  0  0  0  0  0
  -27.3801  -12.5617   17.7935 H   0  0  0  0  0  0
  -27.6518  -14.2610   19.4959 H   0  0  0  0  0  0
  -28.7246  -12.1058   21.3707 H   0  0  0  0  0  0
  -28.3777  -13.7369   21.8215 H   0  0  0  0  0  0
  -25.2770   -9.5686   22.4727 H   0  0  0  0  0  0
  -23.9994   -7.4650   22.7475 H   0  0  0  0  0  0
  -21.0827   -8.8773   19.8973 H   0  0  0  0  0  0
  -22.3681  -10.9664   19.6149 H   0  0  0  0  0  0
  -21.2025   -7.6142   23.9709 H   0  0  0  0  0  0
  -21.1480   -6.0521   25.9071 H   0  0  0  0  0  0
  -22.0598   -2.7605   23.2853 H   0  0  0  0  0  0
  -22.4126  -11.9930   22.4817 H   0  0  0  0  0  0
  -21.1095  -13.1276   22.2635 H   0  0  0  0  0  0
  -24.6644  -15.8520   20.5373 H   0  0  0  0  0  0
  -26.2872  -15.6316   20.1175 H   0  0  0  0  0  0
  -26.7194  -32.5439   23.1081 H   0  0  0  0  0  0
  -25.0124  -33.9698   25.0447 H   0  0  0  0  0  0
  -22.7241  -31.3033   21.3978 H   0  0  0  0  0  0
  -23.3762  -35.9606   23.3309 H   0  0  0  0  0  0
  -24.3570  -36.8903   22.2045 H   0  0  0  0  0  0
  -23.7215  -37.6485   23.6644 H   0  0  0  0  0  0
  -26.1053  -31.5355   20.6122 H   0  0  0  0  0  0
  -26.8529  -30.8254   22.0098 H   0  0  0  0  0  0
  -28.1153  -28.9263   21.2241 H   0  0  0  0  0  0
  -25.9578  -25.9519   18.9363 H   0  0  0  0  0  0
  -23.9825  -27.3360   18.9636 H   0  0  0  0  0  0
  -23.7644  -30.5914   19.4033 H   0  0  0  0  0  0
  -22.7639  -29.2463   19.8560 H   0  0  0  0  0  0
  -25.1275  -36.1948   25.0822 H   0  0  0  0  0  0
  -20.9967  -28.3279   24.1402 H   0  0  0  0  0  0
  -20.5667  -26.2317   23.3620 H   0  0  0  0  0  0
  -21.6646  -26.7436   22.1211 H   0  0  0  0  0  0
  -19.6930  -25.6284   21.1260 H   0  0  0  0  0  0
  -19.6693  -27.3176   20.6730 H   0  0  0  0  0  0
  -17.4200  -26.6683   21.4022 H   0  0  0  0  0  0
  -18.0336  -26.0054   22.9009 H   0  0  0  0  0  0
  -19.7943  -30.7259   24.2286 H   0  0  0  0  0  0
  -17.5021  -31.6261   24.5157 H   0  0  0  0  0  0
  -15.5359  -30.2980   23.7637 H   0  0  0  0  0  0
  -15.8684  -28.0788   22.7099 H   0  0  0  0  0  0
  -24.5864  -30.7128   25.7788 H   0  0  0  0  0  0
  -24.8897  -32.2944   26.4857 H   0  0  0  0  0  0
  -25.8007  -30.8957   27.0243 H   0  0  0  0  0  0
  -26.2915  -29.6798   24.1185 H   0  0  0  0  0  0
  -27.3991  -29.7255   25.4704 H   0  0  0  0  0  0
  -27.8800  -30.4325   23.9461 H   0  0  0  0  0  0
  -27.2684  -33.3638   26.2081 H   0  0  0  0  0  0
  -28.3869  -32.6907   25.0323 H   0  0  0  0  0  0
  -28.0736  -31.8457   26.5405 H   0  0  0  0  0  0
  -28.2602  -38.0092   24.7508 H   0  0  0  0  0  0
  -28.1067  -36.2622   24.6289 H   0  0  0  0  0  0
  -27.2296  -37.1455   25.8869 H   0  0  0  0  0  0
  -20.9425  -29.8767   21.6858 H   0  0  0  0  0  0
  -26.0184  -38.2862   24.1424 H   0  0  0  0  0  0
  -29.2183  -19.7054   18.5933 H   0  0  0  0  0  0
  -29.3296  -21.1655   22.5141 H   0  0  0  0  0  0
  -28.3224  -16.1669   22.0907 H   0  0  0  0  0  0
  -29.8233  -16.8853   22.6943 H   0  0  0  0  0  0
  -29.6099  -15.1818   22.8078 H   0  0  0  0  0  0
  -31.4172  -17.2915   20.1400 H   0  0  0  0  0  0
  -30.0960  -17.0448   19.0749 H   0  0  0  0  0  0
  -29.9989  -23.8615   20.1242 H   0  0  0  0  0  0
  -28.9866  -23.6808   21.5286 H   0  0  0  0  0  0
  -28.5929  -22.2206   18.8350 H   0  0  0  0  0  0
  -27.4493  -22.1340   20.1240 H   0  0  0  0  0  0
  -27.0637  -24.6829   20.3570 H   0  0  0  0  0  0
  -27.9470  -24.8181   18.8612 H   0  0  0  0  0  0
  1 25  1  0  0  0
  1 30  2  0  0  0
  1 81  1  0  0  0
  2  3  1  0  0  0
  2 25  1  0  0  0
  2 82  1  0  0  0
  2 83  1  0  0  0
  3  4  1  0  0  0
  3 84  1  0  0  0
  3 85  1  0  0  0
  4  5  1  0  0  0
  4 86  1  0  0  0
  4 87  1  0  0  0
  5  6  1  0  0  0
  5 26  1  0  0  0
  5 88  1  0  0  0
  6 25  1  0  0  0
  6 89  1  0  0  0
  6 90  1  0  0  0
  7  8  2  0  0  0
  7 26  1  0  0  0
  7 29  1  0  0  0
  8  9  1  0  0  0
  8 22  1  0  0  0
  9 10  1  0  0  0
  9 27  2  0  0  0
 10 11  2  0  0  0
 10 15  1  0  0  0
 11 12  1  0  0  0
 11 91  1  0  0  0
 12 13  2  0  0  0
 12 92  1  0  0  0
 13 14  1  0  0  0
 13 31  1  0  0  0
 14 15  2  0  0  0
 14 93  1  0  0  0
 15 94  1  0  0  0
 16 17  2  0  0  0
 16 21  1  0  0  0
 16 31  1  0  0  0
 17 18  1  0  0  0
 17 95  1  0  0  0
 18 19  2  0  0  0
 18 96  1  0  0  0
 19 20  1  0  0  0
 19 24  1  0  0  0
 20 21  2  0  0  0
 20 97  1  0  0  0
 21 23  1  0  0  0
 22 28  1  0  0  0
 22 32  2  0  0  0
 26 27  1  0  0  0
 28 98  1  0  0  0
 28 99  1  0  0  0
 29100  1  0  0  0
 29101  1  0  0  0
 33 34  1  0  0  0
 33 66  1  0  0  0
 33 70  2  0  0  0
 34 36  1  0  0  0
 34 59  1  0  0  0
 34102  1  0  0  0
 35 44  2  0  0  0
 35 45  1  0  0  0
 35 68  1  0  0  0
 36 56  1  0  0  0
 36103  1  0  0  0
 37 39  1  0  0  0
 37 47  1  0  0  0
 37 66  1  0  0  0
 37104  1  0  0  0
 38 43  2  0  0  0
 38 46  1  0  0  0
 38 47  1  0  0  0
 39 64  1  0  0  0
 39 67  2  0  0  0
 40 52  1  0  0  0
 40 53  2  0  0  0
 40 58  1  0  0  0
 41105  1  0  0  0
 41106  1  0  0  0
 41107  1  0  0  0
 41 48  1  0  0  0
 42 43  1  0  0  0
 42 66  1  0  0  0
 42108  1  0  0  0
 42109  1  0  0  0
 43 44  1  0  0  0
 44110  1  0  0  0
 45 46  2  0  0  0
 45111  1  0  0  0
 46112  1  0  0  0
 47113  1  0  0  0
 47114  1  0  0  0
 48 56  1  0  0  0
 48 65  1  0  0  0
 48115  1  0  0  0
 49 50  1  0  0  0
 49 53  1  0  0  0
 49 64  1  0  0  0
 49116  1  0  0  0
 50 51  1  0  0  0
 50117  1  0  0  0
 50118  1  0  0  0
 51 52  1  0  0  0
 51119  1  0  0  0
 51120  1  0  0  0
 52121  1  0  0  0
 52122  1  0  0  0
 53 54  1  0  0  0
 54 55  2  0  0  0
 54123  1  0  0  0
 55 57  1  0  0  0
 55124  1  0  0  0
 56 69  2  0  0  0
 57 58  2  0  0  0
 57125  1  0  0  0
 58126  1  0  0  0
 59 60  1  0  0  0
 59 61  1  0  0  0
 59 62  1  0  0  0
 60127  1  0  0  0
 60128  1  0  0  0
 60129  1  0  0  0
 61130  1  0  0  0
 61131  1  0  0  0
 61132  1  0  0  0
 62133  1  0  0  0
 62134  1  0  0  0
 62135  1  0  0  0
 63 65  1  0  0  0
 63136  1  0  0  0
 63137  1  0  0  0
 63138  1  0  0  0
 64139  1  0  0  0
 65140  1  0  0  0
 68 78  1  0  0  0
 71 73  2  0  0  0
 71 80  1  0  0  0
 71141  1  0  0  0
 72 79  2  0  0  0
 72 80  1  0  0  0
 72142  1  0  0  0
 73 75  1  0  0  0
 73 79  1  0  0  0
 74 81  1  0  0  0
 74143  1  0  0  0
 74144  1  0  0  0
 74145  1  0  0  0
 75 81  1  0  0  0
 75146  1  0  0  0
 75147  1  0  0  0
 76 77  1  0  0  0
 76 78  1  0  0  0
 76148  1  0  0  0
 76149  1  0  0  0
 77 80  1  0  0  0
 77150  1  0  0  0
 77151  1  0  0  0
 78152  1  0  0  0
 78153  1  0  0  0
M  ISO  4   1 100  68 101  78 101  81 100
M  END
> <chiral flag>
0

> <version>
0

> <s_m_source_file>
/data/baiqing/PycharmProjects/Reinvent-master-3.2/result/LINK_invent/BTK/process_docking_weight1_custom_sum_contain_oxygen_bond_distance_aromatic_linkinvent_7_9_3/rearranged_h_0047.sdf

> <i_m_source_file_index>
52

> <r_mmod_Potential_Energy-OPLS-2005>
228.992233276367

> <r_mmod_Stretch_Energy-OPLS-2005>
119.737449645996

> <r_mmod_Bend_Energy-OPLS-2005>
190.797668457031

> <r_mmod_Torsional_Energy-OPLS-2005>
264.909484863281

> <r_mmod_Improper_Torsional_Energy-OPLS-2005>
10.14821434021

> <r_mmod_Van_der_Waal_Energy-OPLS-2005>
132.250015258789

> <r_mmod_Electrostatic_Energy-OPLS-2005>
-344.151611328125

> <r_mmod_Solvation_Energy-OPLS-2005>
-217.741851806641

> <b_mmod_Minimization_Converged-OPLS-2005>
0

> <r_mmod_RMS_Derivative-OPLS-2005>
2.39499092102051

$$$$
52
                    3D
 Structure written by MMmdl.
154162  0  0  1  0            999 V2000
  -30.4337  -15.3411   20.3681 C   0  0  0  0  0  0
  -30.4420  -12.8596   19.5451 C   0  0  0  0  0  0
  -29.5497  -12.6108   18.3019 C   0  0  0  0  0  0
  -28.0896  -12.3394   18.7062 C   0  0  0  0  0  0
  -27.6143  -13.2965   19.8294 C   0  0  2  0  0  0
  -28.6495  -13.4804   20.9669 C   0  0  0  0  0  0
  -25.2370  -13.8302   20.5717 C   0  0  0  0  0  0
  -24.1745  -13.0468   20.9256 C   0  0  0  0  0  0
  -24.6452  -11.6975   20.8743 C   0  0  0  0  0  0
  -23.9127  -10.4324   21.0388 C   0  0  0  0  0  0
  -24.3661   -9.4213   21.9147 C   0  0  0  0  0  0
  -23.6305   -8.2267   22.0721 C   0  0  0  0  0  0
  -22.4268   -8.0307   21.3550 C   0  0  0  0  0  0
  -21.9950   -9.0274   20.4625 C   0  0  0  0  0  0
  -22.7307  -10.2140   20.3026 C   0  0  0  0  0  0
  -21.6871   -6.0737   22.5288 C   0  0  0  0  0  0
  -21.4019   -6.5616   23.8211 C   0  0  0  0  0  0
  -21.3680   -5.6770   24.9176 C   0  0  0  0  0  0
  -21.6055   -4.3031   24.7211 C   0  0  0  0  0  0
  -21.8807   -3.8144   23.4332 C   0  0  0  0  0  0
  -21.9214   -4.6968   22.3387 C   0  0  0  0  0  0
  -22.7757  -13.5182   21.1895 C   0  0  0  0  0  0
  -22.1640   -4.2168   21.0963 F   0  0  0  0  0  0
  -21.5669   -3.4503   25.7714 F   0  0  0  0  0  0
  -29.8800  -14.0146   20.3541 N   0  0  0  0  0  0
  -26.2831  -12.9641   20.3202 N   0  0  0  0  0  0
  -25.9395  -11.6709   20.5692 N   0  0  0  0  0  0
  -22.0420  -12.8170   22.0449 N   0  0  0  0  0  0
  -25.3893  -15.2040   20.4096 N   0  0  0  0  0  0
  -31.6329  -15.3302   20.0570 O   0  0  0  0  0  0
  -21.6656   -6.8878   21.4226 O   0  0  0  0  0  0
  -22.3399  -14.5474   20.6721 O   0  0  0  0  0  0
  -24.6702  -31.8118   23.1654 C   0  0  0  0  0  0
  -25.9355  -32.4529   23.8127 C   0  0  1  0  0  0
  -27.2434  -26.8455   20.2197 C   0  0  0  0  0  0
  -25.6029  -33.8352   24.2042 N   0  0  0  0  0  0
  -23.4892  -30.4182   21.5111 C   0  0  2  0  0  0
  -24.9592  -28.7898   20.1131 C   0  0  0  0  0  0
  -22.7679  -29.4342   22.4719 C   0  0  0  0  0  0
  -18.0308  -28.1347   22.8428 C   0  0  0  0  0  0
  -24.1499  -36.7157   23.2632 C   0  0  0  0  0  0
  -26.0663  -30.5966   21.4087 C   0  0  0  0  0  0
  -26.1402  -29.1759   20.7579 C   0  0  0  0  0  0
  -27.2701  -28.2285   20.7824 C   0  0  0  0  0  0
  -26.0386  -26.6327   19.5090 C   0  0  0  0  0  0
  -24.9412  -27.5403   19.4655 C   0  0  0  0  0  0
  -23.7427  -29.7244   20.1390 C   0  0  0  0  0  0
  -25.4142  -36.2918   24.0287 C   0  0  1  0  0  0
  -20.5929  -28.3679   23.1169 C   0  0  2  0  0  0
  -20.6750  -26.9343   22.5390 C   0  0  0  0  0  0
  -19.5760  -26.6309   21.5160 C   0  0  0  0  0  0
  -18.1946  -26.7877   22.1574 C   0  0  0  0  0  0
  -19.1571  -28.8846   23.2785 C   0  0  0  0  0  0
  -18.9483  -30.1446   23.8810 C   0  0  0  0  0  0
  -17.6474  -30.6544   24.0532 C   0  0  0  0  0  0
  -25.9121  -34.9308   23.4990 C   0  0  0  0  0  0
  -16.5360  -29.9026   23.6350 C   0  0  0  0  0  0
  -16.7293  -28.6448   23.0366 C   0  0  0  0  0  0
  -26.4619  -31.6491   25.0673 C   0  0  0  0  0  0
  -25.3746  -31.3779   26.1332 C   0  0  0  0  0  0
  -27.0503  -30.2832   24.6473 C   0  0  0  0  0  0
  -27.6079  -32.4285   25.7494 C   0  0  0  0  0  0
  -27.5588  -37.1708   24.8448 C   0  0  0  0  0  0
  -21.4310  -29.2996   22.3508 N   0  0  0  0  0  0
  -26.4259  -37.3683   23.9449 N   0  0  0  0  0  0
  -24.7628  -30.9704   22.0826 N   0  0  0  0  0  0
  -23.4209  -28.7885   23.2944 O   0  0  0  0  0  0
  -28.2310  -25.7013   20.3554 O   0  0  0  0  0  0
  -26.5712  -34.8849   22.4568 O   0  0  0  0  0  0
  -23.5752  -32.1126   23.6688 O   0  0  0  0  0  0
  -29.6329  -22.5886   21.8280 C   0  0  0  0  0  0
  -30.2236  -20.2428   21.8574 C   0  0  0  0  0  0
  -29.5027  -19.9034   20.6743 C   0  0  0  0  0  0
  -28.8765  -22.5449   20.6220 C   0  0  0  0  0  0
  -29.7708  -23.8668   22.6422 C   0  0  0  0  0  0
  -31.3403  -19.4237   24.0559 C   0  0  0  0  0  0
  -31.1610  -19.2361   22.5375 C   0  0  0  0  0  0
  -29.7361  -18.2618   20.0174 C   0  0  0  0  0  0
  -28.0583  -24.0441   20.0588 C   0  0  0  0  0  0
  -30.2744  -21.5096   22.3772 N   0  0  0  0  0  0
  -28.8585  -21.1347   20.0941 N   0  0  0  0  0  0
  -29.6862  -16.6346   20.5283 N   0  0  0  0  0  0
  -31.4557  -13.0654   19.2045 H   0  0  0  0  0  0
  -30.5288  -11.9581   20.1524 H   0  0  0  0  0  0
  -29.9388  -11.7799   17.7090 H   0  0  0  0  0  0
  -29.5935  -13.4958   17.6656 H   0  0  0  0  0  0
  -28.0201  -11.3030   19.0398 H   0  0  0  0  0  0
  -27.4468  -12.4238   17.8323 H   0  0  0  0  0  0
  -27.5202  -14.2649   19.3410 H   0  0  0  0  0  0
  -28.8323  -12.5450   21.5005 H   0  0  0  0  0  0
  -28.2774  -14.1936   21.7015 H   0  0  0  0  0  0
  -25.2815   -9.5681   22.4733 H   0  0  0  0  0  0
  -24.0031   -7.4646   22.7405 H   0  0  0  0  0  0
  -21.0929   -8.8774   19.8897 H   0  0  0  0  0  0
  -22.3778  -10.9656   19.6107 H   0  0  0  0  0  0
  -21.1971   -7.6114   23.9710 H   0  0  0  0  0  0
  -21.1520   -6.0499   25.9071 H   0  0  0  0  0  0
  -22.0593   -2.7609   23.2827 H   0  0  0  0  0  0
  -22.4024  -11.9873   22.4945 H   0  0  0  0  0  0
  -21.0988  -13.1128   22.2504 H   0  0  0  0  0  0
  -24.6180  -15.8575   20.5008 H   0  0  0  0  0  0
  -26.2228  -15.6427   20.0439 H   0  0  0  0  0  0
  -26.7404  -32.5045   23.0805 H   0  0  0  0  0  0
  -25.0210  -33.9443   25.0220 H   0  0  0  0  0  0
  -22.8033  -31.2501   21.3316 H   0  0  0  0  0  0
  -23.3812  -35.9431   23.3183 H   0  0  0  0  0  0
  -24.3598  -36.8924   22.2076 H   0  0  0  0  0  0
  -23.7182  -37.6270   23.6775 H   0  0  0  0  0  0
  -26.2494  -31.3318   20.6229 H   0  0  0  0  0  0
  -26.9248  -30.6671   22.0662 H   0  0  0  0  0  0
  -28.1574  -28.5312   21.3206 H   0  0  0  0  0  0
  -25.9061  -25.6830   19.0112 H   0  0  0  0  0  0
  -24.0491  -27.2297   18.9385 H   0  0  0  0  0  0
  -23.9042  -30.4983   19.3873 H   0  0  0  0  0  0
  -22.8530  -29.1792   19.8148 H   0  0  0  0  0  0
  -25.1324  -36.1669   25.0770 H   0  0  0  0  0  0
  -21.0042  -28.3270   24.1288 H   0  0  0  0  0  0
  -20.5510  -26.2289   23.3624 H   0  0  0  0  0  0
  -21.6611  -26.7204   22.1264 H   0  0  0  0  0  0
  -19.6893  -25.6207   21.1221 H   0  0  0  0  0  0
  -19.6749  -27.3076   20.6678 H   0  0  0  0  0  0
  -17.4193  -26.6602   21.4007 H   0  0  0  0  0  0
  -18.0377  -26.0030   22.8996 H   0  0  0  0  0  0
  -19.7976  -30.7270   24.2128 H   0  0  0  0  0  0
  -17.5042  -31.6232   24.5094 H   0  0  0  0  0  0
  -15.5368  -30.2907   23.7720 H   0  0  0  0  0  0
  -15.8683  -28.0746   22.7148 H   0  0  0  0  0  0
  -24.5898  -30.7175   25.7648 H   0  0  0  0  0  0
  -24.9014  -32.3018   26.4662 H   0  0  0  0  0  0
  -25.7986  -30.8976   27.0167 H   0  0  0  0  0  0
  -26.3202  -29.6479   24.1465 H   0  0  0  0  0  0
  -27.3983  -29.7224   25.5165 H   0  0  0  0  0  0
  -27.9165  -30.3968   23.9944 H   0  0  0  0  0  0
  -27.2644  -33.3629   26.1944 H   0  0  0  0  0  0
  -28.4003  -32.6761   25.0415 H   0  0  0  0  0  0
  -28.0642  -31.8489   26.5540 H   0  0  0  0  0  0
  -28.2445  -38.0147   24.7618 H   0  0  0  0  0  0
  -28.1222  -36.2668   24.6088 H   0  0  0  0  0  0
  -27.2331  -37.1105   25.8844 H   0  0  0  0  0  0
  -20.9522  -29.8793   21.6746 H   0  0  0  0  0  0
  -26.0074  -38.2691   24.1595 H   0  0  0  0  0  0
  -29.9936  -24.7181   22.0032 H   0  0  0  0  0  0
  -30.5735  -23.7940   23.3804 H   0  0  0  0  0  0
  -28.8514  -24.0695   23.1947 H   0  0  0  0  0  0
  -31.9365  -18.6130   24.4742 H   0  0  0  0  0  0
  -30.3818  -19.4398   24.5779 H   0  0  0  0  0  0
  -31.8624  -20.3554   24.2863 H   0  0  0  0  0  0
  -32.1354  -19.2923   22.0472 H   0  0  0  0  0  0
  -30.8048  -18.2168   22.3902 H   0  0  0  0  0  0
  -30.7315  -18.3383   19.5802 H   0  0  0  0  0  0
  -29.0763  -18.2546   19.1526 H   0  0  0  0  0  0
  -27.0005  -23.8329   20.2258 H   0  0  0  0  0  0
  -28.1487  -23.9883   18.9731 H   0  0  0  0  0  0
  -28.7669  -16.4255   20.8878 H   0  0  0  0  0  0
  1 25  1  0  0  0
  1 30  2  0  0  0
  1 82  1  0  0  0
  2  3  1  0  0  0
  2 25  1  0  0  0
  2 83  1  0  0  0
  2 84  1  0  0  0
  3  4  1  0  0  0
  3 85  1  0  0  0
  3 86  1  0  0  0
  4  5  1  0  0  0
  4 87  1  0  0  0
  4 88  1  0  0  0
  5  6  1  0  0  0
  5 26  1  0  0  0
  5 89  1  0  0  0
  6 25  1  0  0  0
  6 90  1  0  0  0
  6 91  1  0  0  0
  7  8  2  0  0  0
  7 26  1  0  0  0
  7 29  1  0  0  0
  8  9  1  0  0  0
  8 22  1  0  0  0
  9 10  1  0  0  0
  9 27  2  0  0  0
 10 11  2  0  0  0
 10 15  1  0  0  0
 11 12  1  0  0  0
 11 92  1  0  0  0
 12 13  2  0  0  0
 12 93  1  0  0  0
 13 14  1  0  0  0
 13 31  1  0  0  0
 14 15  2  0  0  0
 14 94  1  0  0  0
 15 95  1  0  0  0
 16 17  2  0  0  0
 16 21  1  0  0  0
 16 31  1  0  0  0
 17 18  1  0  0  0
 17 96  1  0  0  0
 18 19  2  0  0  0
 18 97  1  0  0  0
 19 20  1  0  0  0
 19 24  1  0  0  0
 20 21  2  0  0  0
 20 98  1  0  0  0
 21 23  1  0  0  0
 22 28  1  0  0  0
 22 32  2  0  0  0
 26 27  1  0  0  0
 28 99  1  0  0  0
 28100  1  0  0  0
 29101  1  0  0  0
 29102  1  0  0  0
 33 34  1  0  0  0
 33 66  1  0  0  0
 33 70  2  0  0  0
 34 36  1  0  0  0
 34 59  1  0  0  0
 34103  1  0  0  0
 35 44  2  0  0  0
 35 45  1  0  0  0
 35 68  1  0  0  0
 36 56  1  0  0  0
 36104  1  0  0  0
 37 39  1  0  0  0
 37 47  1  0  0  0
 37 66  1  0  0  0
 37105  1  0  0  0
 38 43  2  0  0  0
 38 46  1  0  0  0
 38 47  1  0  0  0
 39 64  1  0  0  0
 39 67  2  0  0  0
 40 52  1  0  0  0
 40 53  2  0  0  0
 40 58  1  0  0  0
 41106  1  0  0  0
 41107  1  0  0  0
 41108  1  0  0  0
 41 48  1  0  0  0
 42 43  1  0  0  0
 42 66  1  0  0  0
 42109  1  0  0  0
 42110  1  0  0  0
 43 44  1  0  0  0
 44111  1  0  0  0
 45 46  2  0  0  0
 45112  1  0  0  0
 46113  1  0  0  0
 47114  1  0  0  0
 47115  1  0  0  0
 48 56  1  0  0  0
 48 65  1  0  0  0
 48116  1  0  0  0
 49 50  1  0  0  0
 49 53  1  0  0  0
 49 64  1  0  0  0
 49117  1  0  0  0
 50 51  1  0  0  0
 50118  1  0  0  0
 50119  1  0  0  0
 51 52  1  0  0  0
 51120  1  0  0  0
 51121  1  0  0  0
 52122  1  0  0  0
 52123  1  0  0  0
 53 54  1  0  0  0
 54 55  2  0  0  0
 54124  1  0  0  0
 55 57  1  0  0  0
 55125  1  0  0  0
 56 69  2  0  0  0
 57 58  2  0  0  0
 57126  1  0  0  0
 58127  1  0  0  0
 59 60  1  0  0  0
 59 61  1  0  0  0
 59 62  1  0  0  0
 60128  1  0  0  0
 60129  1  0  0  0
 60130  1  0  0  0
 61131  1  0  0  0
 61132  1  0  0  0
 61133  1  0  0  0
 62134  1  0  0  0
 62135  1  0  0  0
 62136  1  0  0  0
 63 65  1  0  0  0
 63137  1  0  0  0
 63138  1  0  0  0
 63139  1  0  0  0
 64140  1  0  0  0
 65141  1  0  0  0
 68 79  1  0  0  0
 71 74  2  0  0  0
 71 75  1  0  0  0
 71 80  1  0  0  0
 72 73  1  0  0  0
 72 77  1  0  0  0
 72 80  2  0  0  0
 73 78  1  0  0  0
 73 81  2  0  0  0
 74 79  1  0  0  0
 74 81  1  0  0  0
 75142  1  0  0  0
 75143  1  0  0  0
 75144  1  0  0  0
 76 77  1  0  0  0
 76145  1  0  0  0
 76146  1  0  0  0
 76147  1  0  0  0
 77148  1  0  0  0
 77149  1  0  0  0
 78 82  1  0  0  0
 78150  1  0  0  0
 78151  1  0  0  0
 79152  1  0  0  0
 79153  1  0  0  0
 82154  1  0  0  0
M  ISO  4   1 100  68 101  79 101  82 100
M  END
> <chiral flag>
0

> <version>
0

> <s_m_source_file>
/data/baiqing/PycharmProjects/Reinvent-master-3.2/result/LINK_invent/BTK/process_docking_weight1_custom_sum_contain_oxygen_bond_distance_aromatic_linkinvent_7_9_3/rearranged_h_0047.sdf

> <i_m_source_file_index>
53

> <r_mmod_Potential_Energy-OPLS-2005>
1553.27966308594

> <r_mmod_Stretch_Energy-OPLS-2005>
729.638916015625

> <r_mmod_Bend_Energy-OPLS-2005>
493.381774902344

> <r_mmod_Torsional_Energy-OPLS-2005>
220.311325073242

> <r_mmod_Improper_Torsional_Energy-OPLS-2005>
7.12009382247925

> <r_mmod_Van_der_Waal_Energy-OPLS-2005>
124.020278930664

> <r_mmod_Electrostatic_Energy-OPLS-2005>
-349.865997314453

> <r_mmod_Solvation_Energy-OPLS-2005>
-231.489288330078

> <b_mmod_Minimization_Converged-OPLS-2005>
0

> <r_mmod_RMS_Derivative-OPLS-2005>
6.17785215377808

$$$$
53
                    3D
 Structure written by MMmdl.
151159  0  0  1  0            999 V2000
  -30.5176  -15.0277   20.3634 C   0  0  0  0  0  0
  -30.4417  -12.6444   19.4607 C   0  0  0  0  0  0
  -29.5105  -12.5371   18.2315 C   0  0  0  0  0  0
  -28.0549  -12.2912   18.6807 C   0  0  0  0  0  0
  -27.6218  -13.2525   19.8185 C   0  0  2  0  0  0
  -28.6730  -13.3409   20.9421 C   0  0  0  0  0  0
  -25.2483  -13.8212   20.5754 C   0  0  0  0  0  0
  -24.1797  -13.0416   20.9242 C   0  0  0  0  0  0
  -24.6448  -11.6893   20.8741 C   0  0  0  0  0  0
  -23.9109  -10.4291   21.0396 C   0  0  0  0  0  0
  -24.3641   -9.4204   21.9196 C   0  0  0  0  0  0
  -23.6305   -8.2252   22.0762 C   0  0  0  0  0  0
  -22.4293   -8.0301   21.3555 C   0  0  0  0  0  0
  -21.9934   -9.0264   20.4644 C   0  0  0  0  0  0
  -22.7271  -10.2134   20.3045 C   0  0  0  0  0  0
  -21.6853   -6.0747   22.5281 C   0  0  0  0  0  0
  -21.4015   -6.5634   23.8211 C   0  0  0  0  0  0
  -21.3655   -5.6788   24.9181 C   0  0  0  0  0  0
  -21.6024   -4.3055   24.7230 C   0  0  0  0  0  0
  -21.8813   -3.8142   23.4351 C   0  0  0  0  0  0
  -21.9185   -4.6964   22.3412 C   0  0  0  0  0  0
  -22.7816  -13.5176   21.1882 C   0  0  0  0  0  0
  -22.1656   -4.2139   21.1004 F   0  0  0  0  0  0
  -21.5625   -3.4537   25.7743 F   0  0  0  0  0  0
  -29.9289  -13.7633   20.3050 N   0  0  0  0  0  0
  -26.2888  -12.9452   20.3204 N   0  0  0  0  0  0
  -25.9369  -11.6574   20.5708 N   0  0  0  0  0  0
  -22.0474  -12.8165   22.0432 N   0  0  0  0  0  0
  -25.4173  -15.1938   20.4289 N   0  0  0  0  0  0
  -31.7458  -15.0653   20.2287 O   0  0  0  0  0  0
  -21.6642   -6.8893   21.4258 O   0  0  0  0  0  0
  -22.3480  -14.5503   20.6748 O   0  0  0  0  0  0
  -24.6495  -31.8397   23.1884 C   0  0  0  0  0  0
  -25.9234  -32.4688   23.8273 C   0  0  1  0  0  0
  -27.1958  -27.1188   20.0946 C   0  0  0  0  0  0
  -25.5997  -33.8511   24.2208 N   0  0  0  0  0  0
  -23.4530  -30.4617   21.5356 C   0  0  2  0  0  0
  -24.8882  -28.8927   20.1007 C   0  0  0  0  0  0
  -22.7599  -29.4471   22.4838 C   0  0  0  0  0  0
  -18.0295  -28.1393   22.8413 C   0  0  0  0  0  0
  -24.1464  -36.7282   23.2640 C   0  0  0  0  0  0
  -26.0095  -30.7108   21.3755 C   0  0  0  0  0  0
  -26.0768  -29.3236   20.7071 C   0  0  0  0  0  0
  -27.2327  -28.4516   20.6790 C   0  0  0  0  0  0
  -25.9678  -26.7832   19.4811 C   0  0  0  0  0  0
  -24.8453  -27.6353   19.4848 C   0  0  0  0  0  0
  -23.6741  -29.8082   20.1498 C   0  0  0  0  0  0
  -25.4110  -36.3037   24.0290 C   0  0  1  0  0  0
  -20.5933  -28.3668   23.1242 C   0  0  2  0  0  0
  -20.6766  -26.9379   22.5413 C   0  0  0  0  0  0
  -19.5775  -26.6362   21.5209 C   0  0  0  0  0  0
  -18.1932  -26.7925   22.1586 C   0  0  0  0  0  0
  -19.1571  -28.8835   23.2807 C   0  0  0  0  0  0
  -18.9494  -30.1412   23.8848 C   0  0  0  0  0  0
  -17.6487  -30.6541   24.0526 C   0  0  0  0  0  0
  -25.9078  -34.9419   23.5057 C   0  0  0  0  0  0
  -16.5380  -29.9044   23.6354 C   0  0  0  0  0  0
  -16.7306  -28.6514   23.0326 C   0  0  0  0  0  0
  -26.4535  -31.6583   25.0742 C   0  0  0  0  0  0
  -25.3686  -31.3844   26.1424 C   0  0  0  0  0  0
  -27.0400  -30.2980   24.6297 C   0  0  0  0  0  0
  -27.6031  -32.4395   25.7557 C   0  0  0  0  0  0
  -27.5561  -37.1763   24.8453 C   0  0  0  0  0  0
  -21.4277  -29.3002   22.3628 N   0  0  0  0  0  0
  -26.4253  -37.3752   23.9431 N   0  0  0  0  0  0
  -24.7263  -31.0172   22.0950 N   0  0  0  0  0  0
  -23.4217  -28.7909   23.2927 O   0  0  0  0  0  0
  -28.2486  -26.1282   20.1045 O   0  0  0  0  0  0
  -26.5642  -34.8889   22.4613 O   0  0  0  0  0  0
  -23.5613  -32.1339   23.7069 O   0  0  0  0  0  0
  -29.3447  -20.5097   20.4532 C   0  0  0  0  0  0
  -28.9600  -21.7016   19.6643 C   0  0  0  0  0  0
  -29.4326  -19.1342   19.9031 C   0  0  0  0  0  0
  -28.8550  -20.1602   17.8952 C   0  0  0  0  0  0
  -28.8132  -20.0046   16.3815 C   0  0  0  0  0  0
  -29.0990  -23.3264   20.0124 C   0  0  0  0  0  0
  -30.0531  -17.7649   20.6129 C   0  0  0  0  0  0
  -27.9945  -24.6034   19.8318 C   0  0  0  0  0  0
  -28.7392  -21.4176   18.3578 N   0  0  0  0  0  0
  -29.1572  -19.0492   18.5861 N   0  0  0  0  0  0
  -29.7358  -16.2258   20.3565 N   0  0  0  0  0  0
  -31.4741  -12.8245   19.1403 H   0  0  0  0  0  0
  -30.4555  -11.7084   20.0189 H   0  0  0  0  0  0
  -29.8405  -11.7420   17.5615 H   0  0  0  0  0  0
  -29.5638  -13.4604   17.6532 H   0  0  0  0  0  0
  -27.9860  -11.2579   19.0277 H   0  0  0  0  0  0
  -27.3747  -12.3737   17.8295 H   0  0  0  0  0  0
  -27.5641  -14.2360   19.3522 H   0  0  0  0  0  0
  -28.7929  -12.3936   21.4663 H   0  0  0  0  0  0
  -28.3748  -14.0859   21.6833 H   0  0  0  0  0  0
  -25.2790   -9.5629   22.4772 H   0  0  0  0  0  0
  -23.9950   -7.4624   22.7486 H   0  0  0  0  0  0
  -21.0856   -8.8810   19.8964 H   0  0  0  0  0  0
  -22.3756  -10.9681   19.6134 H   0  0  0  0  0  0
  -21.2042   -7.6135   23.9703 H   0  0  0  0  0  0
  -21.1468   -6.0540   25.9077 H   0  0  0  0  0  0
  -22.0602   -2.7594   23.2877 H   0  0  0  0  0  0
  -22.4055  -11.9754   22.4755 H   0  0  0  0  0  0
  -21.1110  -13.1157   22.2701 H   0  0  0  0  0  0
  -24.6574  -15.8507   20.5741 H   0  0  0  0  0  0
  -26.2739  -15.6472   20.1367 H   0  0  0  0  0  0
  -26.7257  -32.5257   23.0945 H   0  0  0  0  0  0
  -25.0161  -33.9624   25.0365 H   0  0  0  0  0  0
  -22.7571  -31.2918   21.3836 H   0  0  0  0  0  0
  -23.3706  -35.9625   23.3304 H   0  0  0  0  0  0
  -24.3590  -36.8984   22.2078 H   0  0  0  0  0  0
  -23.7214  -37.6457   23.6697 H   0  0  0  0  0  0
  -26.1563  -31.4693   20.6065 H   0  0  0  0  0  0
  -26.8830  -30.7585   22.0135 H   0  0  0  0  0  0
  -28.1470  -28.7766   21.1560 H   0  0  0  0  0  0
  -25.8347  -25.8225   19.0124 H   0  0  0  0  0  0
  -23.9254  -27.2965   19.0293 H   0  0  0  0  0  0
  -23.8288  -30.5937   19.4097 H   0  0  0  0  0  0
  -22.7816  -29.2675   19.8237 H   0  0  0  0  0  0
  -25.1264  -36.1882   25.0766 H   0  0  0  0  0  0
  -20.9993  -28.3236   24.1369 H   0  0  0  0  0  0
  -20.5684  -26.2257   23.3605 H   0  0  0  0  0  0
  -21.6625  -26.7382   22.1197 H   0  0  0  0  0  0
  -19.6950  -25.6288   21.1228 H   0  0  0  0  0  0
  -19.6742  -27.3163   20.6737 H   0  0  0  0  0  0
  -17.4227  -26.6680   21.3974 H   0  0  0  0  0  0
  -18.0254  -26.0077   22.9004 H   0  0  0  0  0  0
  -19.7982  -30.7204   24.2224 H   0  0  0  0  0  0
  -17.5070  -31.6247   24.5118 H   0  0  0  0  0  0
  -15.5375  -30.2916   23.7696 H   0  0  0  0  0  0
  -15.8709  -28.0795   22.7029 H   0  0  0  0  0  0
  -24.5894  -30.7136   25.7795 H   0  0  0  0  0  0
  -24.8814  -32.3043   26.4671 H   0  0  0  0  0  0
  -25.7958  -30.9190   27.0326 H   0  0  0  0  0  0
  -26.3021  -29.6708   24.1257 H   0  0  0  0  0  0
  -27.3996  -29.7289   25.4881 H   0  0  0  0  0  0
  -27.8914  -30.4248   23.9624 H   0  0  0  0  0  0
  -27.2591  -33.3774   26.1932 H   0  0  0  0  0  0
  -28.3923  -32.6871   25.0457 H   0  0  0  0  0  0
  -28.0517  -31.8653   26.5672 H   0  0  0  0  0  0
  -28.2470  -38.0143   24.7558 H   0  0  0  0  0  0
  -28.1147  -36.2664   24.6177 H   0  0  0  0  0  0
  -27.2317  -37.1349   25.8861 H   0  0  0  0  0  0
  -20.9465  -29.8930   21.6980 H   0  0  0  0  0  0
  -26.0135  -38.2801   24.1535 H   0  0  0  0  0  0
  -29.6472  -20.6637   21.4785 H   0  0  0  0  0  0
  -28.1706  -20.7484   15.9064 H   0  0  0  0  0  0
  -28.4485  -19.0201   16.0764 H   0  0  0  0  0  0
  -29.8195  -20.1366   15.9731 H   0  0  0  0  0  0
  -29.9177  -23.6249   19.3567 H   0  0  0  0  0  0
  -29.5234  -23.4007   21.0125 H   0  0  0  0  0  0
  -29.8598  -17.9136   21.6748 H   0  0  0  0  0  0
  -31.1351  -17.8672   20.5273 H   0  0  0  0  0  0
  -27.1139  -24.3395   20.4154 H   0  0  0  0  0  0
  -27.6724  -24.5547   18.7909 H   0  0  0  0  0  0
  -28.7473  -16.0514   20.2775 H   0  0  0  0  0  0
  1 25  1  0  0  0
  1 30  2  0  0  0
  1 81  1  0  0  0
  2  3  1  0  0  0
  2 25  1  0  0  0
  2 82  1  0  0  0
  2 83  1  0  0  0
  3  4  1  0  0  0
  3 84  1  0  0  0
  3 85  1  0  0  0
  4  5  1  0  0  0
  4 86  1  0  0  0
  4 87  1  0  0  0
  5  6  1  0  0  0
  5 26  1  0  0  0
  5 88  1  0  0  0
  6 25  1  0  0  0
  6 89  1  0  0  0
  6 90  1  0  0  0
  7  8  2  0  0  0
  7 26  1  0  0  0
  7 29  1  0  0  0
  8  9  1  0  0  0
  8 22  1  0  0  0
  9 10  1  0  0  0
  9 27  2  0  0  0
 10 11  2  0  0  0
 10 15  1  0  0  0
 11 12  1  0  0  0
 11 91  1  0  0  0
 12 13  2  0  0  0
 12 92  1  0  0  0
 13 14  1  0  0  0
 13 31  1  0  0  0
 14 15  2  0  0  0
 14 93  1  0  0  0
 15 94  1  0  0  0
 16 17  2  0  0  0
 16 21  1  0  0  0
 16 31  1  0  0  0
 17 18  1  0  0  0
 17 95  1  0  0  0
 18 19  2  0  0  0
 18 96  1  0  0  0
 19 20  1  0  0  0
 19 24  1  0  0  0
 20 21  2  0  0  0
 20 97  1  0  0  0
 21 23  1  0  0  0
 22 28  1  0  0  0
 22 32  2  0  0  0
 26 27  1  0  0  0
 28 98  1  0  0  0
 28 99  1  0  0  0
 29100  1  0  0  0
 29101  1  0  0  0
 33 34  1  0  0  0
 33 66  1  0  0  0
 33 70  2  0  0  0
 34 36  1  0  0  0
 34 59  1  0  0  0
 34102  1  0  0  0
 35 44  2  0  0  0
 35 45  1  0  0  0
 35 68  1  0  0  0
 36 56  1  0  0  0
 36103  1  0  0  0
 37 39  1  0  0  0
 37 47  1  0  0  0
 37 66  1  0  0  0
 37104  1  0  0  0
 38 43  2  0  0  0
 38 46  1  0  0  0
 38 47  1  0  0  0
 39 64  1  0  0  0
 39 67  2  0  0  0
 40 52  1  0  0  0
 40 53  2  0  0  0
 40 58  1  0  0  0
 41105  1  0  0  0
 41106  1  0  0  0
 41107  1  0  0  0
 41 48  1  0  0  0
 42 43  1  0  0  0
 42 66  1  0  0  0
 42108  1  0  0  0
 42109  1  0  0  0
 43 44  1  0  0  0
 44110  1  0  0  0
 45 46  2  0  0  0
 45111  1  0  0  0
 46112  1  0  0  0
 47113  1  0  0  0
 47114  1  0  0  0
 48 56  1  0  0  0
 48 65  1  0  0  0
 48115  1  0  0  0
 49 50  1  0  0  0
 49 53  1  0  0  0
 49 64  1  0  0  0
 49116  1  0  0  0
 50 51  1  0  0  0
 50117  1  0  0  0
 50118  1  0  0  0
 51 52  1  0  0  0
 51119  1  0  0  0
 51120  1  0  0  0
 52121  1  0  0  0
 52122  1  0  0  0
 53 54  1  0  0  0
 54 55  2  0  0  0
 54123  1  0  0  0
 55 57  1  0  0  0
 55124  1  0  0  0
 56 69  2  0  0  0
 57 58  2  0  0  0
 57125  1  0  0  0
 58126  1  0  0  0
 59 60  1  0  0  0
 59 61  1  0  0  0
 59 62  1  0  0  0
 60127  1  0  0  0
 60128  1  0  0  0
 60129  1  0  0  0
 61130  1  0  0  0
 61131  1  0  0  0
 61132  1  0  0  0
 62133  1  0  0  0
 62134  1  0  0  0
 62135  1  0  0  0
 63 65  1  0  0  0
 63136  1  0  0  0
 63137  1  0  0  0
 63138  1  0  0  0
 64139  1  0  0  0
 65140  1  0  0  0
 68 78  1  0  0  0
 71 72  2  0  0  0
 71 73  1  0  0  0
 71141  1  0  0  0
 72 76  1  0  0  0
 72 79  1  0  0  0
 73 77  1  0  0  0
 73 80  2  0  0  0
 74 75  1  0  0  0
 74 79  2  0  0  0
 74 80  1  0  0  0
 75142  1  0  0  0
 75143  1  0  0  0
 75144  1  0  0  0
 76 78  1  0  0  0
 76145  1  0  0  0
 76146  1  0  0  0
 77 81  1  0  0  0
 77147  1  0  0  0
 77148  1  0  0  0
 78149  1  0  0  0
 78150  1  0  0  0
 81151  1  0  0  0
M  ISO  4   1 100  68 101  78 101  81 100
M  END
> <chiral flag>
0

> <version>
0

> <s_m_source_file>
/data/baiqing/PycharmProjects/Reinvent-master-3.2/result/LINK_invent/BTK/process_docking_weight1_custom_sum_contain_oxygen_bond_distance_aromatic_linkinvent_7_9_3/rearranged_h_0047.sdf

> <i_m_source_file_index>
54

> <r_mmod_Potential_Energy-OPLS-2005>
3.48245525360107

> <r_mmod_Stretch_Energy-OPLS-2005>
271.615417480469

> <r_mmod_Bend_Energy-OPLS-2005>
278.864044189453

> <r_mmod_Torsional_Energy-OPLS-2005>
208.117813110352

> <r_mmod_Improper_Torsional_Energy-OPLS-2005>
7.96000099182129

> <r_mmod_Van_der_Waal_Energy-OPLS-2005>
136.776306152344

> <r_mmod_Electrostatic_Energy-OPLS-2005>
-890.874877929688

> <r_mmod_Solvation_Energy-OPLS-2005>
-246.362350463867

> <b_mmod_Minimization_Converged-OPLS-2005>
0

> <r_mmod_RMS_Derivative-OPLS-2005>
7.29770994186401

$$$$
54
                    3D
 Structure written by MMmdl.
171179  0  0  1  0            999 V2000
  -30.7470  -14.4061   20.6854 C   0  0  0  0  0  0
  -30.4292  -12.3062   19.4117 C   0  0  0  0  0  0
  -29.4946  -12.5222   18.2042 C   0  0  0  0  0  0
  -28.0176  -12.3729   18.6146 C   0  0  0  0  0  0
  -27.6684  -13.1974   19.8790 C   0  0  2  0  0  0
  -28.7029  -12.9383   20.9943 C   0  0  0  0  0  0
  -25.2625  -13.8135   20.5664 C   0  0  0  0  0  0
  -24.1855  -13.0436   20.9145 C   0  0  0  0  0  0
  -24.6375  -11.6894   20.8693 C   0  0  0  0  0  0
  -23.9027  -10.4292   21.0380 C   0  0  0  0  0  0
  -24.3586   -9.4218   21.9167 C   0  0  0  0  0  0
  -23.6275   -8.2250   22.0750 C   0  0  0  0  0  0
  -22.4263   -8.0264   21.3542 C   0  0  0  0  0  0
  -21.9884   -9.0230   20.4640 C   0  0  0  0  0  0
  -22.7194  -10.2117   20.3038 C   0  0  0  0  0  0
  -21.6860   -6.0720   22.5273 C   0  0  0  0  0  0
  -21.4018   -6.5629   23.8200 C   0  0  0  0  0  0
  -21.3658   -5.6788   24.9167 C   0  0  0  0  0  0
  -21.6048   -4.3052   24.7229 C   0  0  0  0  0  0
  -21.8819   -3.8132   23.4355 C   0  0  0  0  0  0
  -21.9195   -4.6948   22.3404 C   0  0  0  0  0  0
  -22.7880  -13.5239   21.1820 C   0  0  0  0  0  0
  -22.1666   -4.2124   21.0990 F   0  0  0  0  0  0
  -21.5629   -3.4540   25.7750 F   0  0  0  0  0  0
  -30.0488  -13.2534   20.4736 N   0  0  0  0  0  0
  -26.3051  -12.9285   20.3346 N   0  0  0  0  0  0
  -25.9298  -11.6454   20.5723 N   0  0  0  0  0  0
  -22.0527  -12.8232   22.0377 N   0  0  0  0  0  0
  -25.4386  -15.1856   20.4101 N   0  0  0  0  0  0
  -31.7597  -14.6989   20.0399 O   0  0  0  0  0  0
  -21.6642   -6.8853   21.4233 O   0  0  0  0  0  0
  -22.3569  -14.5548   20.6671 O   0  0  0  0  0  0
  -24.6167  -31.8702   23.2150 C   0  0  0  0  0  0
  -25.9066  -32.4833   23.8435 C   0  0  1  0  0  0
  -27.2212  -27.4264   20.0853 C   0  0  0  0  0  0
  -25.5920  -33.8629   24.2367 N   0  0  0  0  0  0
  -23.4018  -30.4988   21.5589 C   0  0  2  0  0  0
  -24.8433  -28.9779   20.1112 C   0  0  0  0  0  0
  -22.7400  -29.4678   22.5018 C   0  0  0  0  0  0
  -18.0261  -28.1356   22.8485 C   0  0  0  0  0  0
  -24.1478  -36.7326   23.2636 C   0  0  0  0  0  0
  -25.9340  -30.8333   21.3699 C   0  0  0  0  0  0
  -26.0086  -29.4696   20.7142 C   0  0  0  0  0  0
  -27.1989  -28.7007   20.7034 C   0  0  0  0  0  0
  -26.0314  -26.9752   19.4547 C   0  0  0  0  0  0
  -24.8505  -27.7290   19.4795 C   0  0  0  0  0  0
  -23.6062  -29.8432   20.1699 C   0  0  0  0  0  0
  -25.4093  -36.3119   24.0340 C   0  0  1  0  0  0
  -20.5852  -28.3652   23.1308 C   0  0  2  0  0  0
  -20.6753  -26.9399   22.5396 C   0  0  0  0  0  0
  -19.5743  -26.6381   21.5179 C   0  0  0  0  0  0
  -18.1923  -26.7910   22.1600 C   0  0  0  0  0  0
  -19.1509  -28.8818   23.2892 C   0  0  0  0  0  0
  -18.9442  -30.1426   23.8907 C   0  0  0  0  0  0
  -17.6450  -30.6574   24.0552 C   0  0  0  0  0  0
  -25.9023  -34.9482   23.5149 C   0  0  0  0  0  0
  -16.5336  -29.9078   23.6314 C   0  0  0  0  0  0
  -16.7251  -28.6485   23.0355 C   0  0  0  0  0  0
  -26.4494  -31.6593   25.0751 C   0  0  0  0  0  0
  -25.3757  -31.3662   26.1490 C   0  0  0  0  0  0
  -27.0348  -30.3046   24.6119 C   0  0  0  0  0  0
  -27.6085  -32.4308   25.7501 C   0  0  0  0  0  0
  -27.5579  -37.1813   24.8467 C   0  0  0  0  0  0
  -21.4128  -29.3035   22.3727 N   0  0  0  0  0  0
  -26.4287  -37.3796   23.9414 N   0  0  0  0  0  0
  -24.6703  -31.0794   22.1063 N   0  0  0  0  0  0
  -23.4167  -28.8211   23.3061 O   0  0  0  0  0  0
  -28.3709  -26.6466   20.1258 O   0  0  0  0  0  0
  -26.5580  -34.8923   22.4708 O   0  0  0  0  0  0
  -23.5350  -32.1485   23.7521 O   0  0  0  0  0  0
  -30.2705  -20.9022   19.2721 C   0  0  0  0  0  0
  -29.8001  -19.9188   21.7856 C   0  0  0  0  0  0
  -30.7910  -19.6332   19.5945 C   0  0  0  0  0  0
  -30.5214  -19.1080   20.8830 C   0  0  0  0  0  0
  -29.5064  -21.6025   20.2192 C   0  0  0  0  0  0
  -33.9828  -18.6717   17.7011 C   0  0  0  0  0  0
  -33.0918  -19.1015   18.6197 C   0  0  0  0  0  0
  -35.4751  -18.9314   17.8272 C   0  0  0  0  0  0
  -33.5979  -17.9053   16.4461 C   0  0  0  0  0  0
  -30.1663  -15.0510   22.9868 C   0  0  0  0  0  0
  -31.5879  -18.8827   18.5367 C   0  0  0  0  0  0
  -30.9651  -17.7096   21.3182 C   0  0  0  0  0  0
  -28.7138  -22.8315   19.7969 C   0  0  0  0  0  0
  -29.2325  -24.2240   20.2310 C   0  0  0  0  0  0
  -29.8377  -16.6647   21.1310 C   0  0  0  0  0  0
  -28.1723  -25.2579   19.8030 C   0  0  0  0  0  0
  -29.2982  -21.1337   21.4676 N   0  0  0  0  0  0
  -30.1869  -15.2939   21.5408 N   0  0  0  0  0  0
  -33.5633  -19.7774   19.6835 F   0  0  0  0  0  0
  -31.4721  -12.4180   19.1089 H   0  0  0  0  0  0
  -30.3417  -11.2839   19.7837 H   0  0  0  0  0  0
  -29.7336  -11.8112   17.4124 H   0  0  0  0  0  0
  -29.6598  -13.5157   17.7828 H   0  0  0  0  0  0
  -27.8263  -11.3149   18.7972 H   0  0  0  0  0  0
  -27.3655  -12.6580   17.7889 H   0  0  0  0  0  0
  -27.7270  -14.2510   19.6059 H   0  0  0  0  0  0
  -28.6744  -11.8906   21.2984 H   0  0  0  0  0  0
  -28.4273  -13.4989   21.8848 H   0  0  0  0  0  0
  -25.2736   -9.5708   22.4736 H   0  0  0  0  0  0
  -23.9990   -7.4652   22.7477 H   0  0  0  0  0  0
  -21.0812   -8.8718   19.8954 H   0  0  0  0  0  0
  -22.3628  -10.9638   19.6139 H   0  0  0  0  0  0
  -21.2010   -7.6138   23.9687 H   0  0  0  0  0  0
  -21.1487   -6.0532   25.9065 H   0  0  0  0  0  0
  -22.0602   -2.7593   23.2865 H   0  0  0  0  0  0
  -22.4159  -11.9898   22.4764 H   0  0  0  0  0  0
  -21.1133  -13.1223   22.2573 H   0  0  0  0  0  0
  -24.6817  -15.8485   20.5339 H   0  0  0  0  0  0
  -26.3015  -15.6195   20.1073 H   0  0  0  0  0  0
  -26.7136  -32.5552   23.1197 H   0  0  0  0  0  0
  -25.0051  -33.9787   25.0500 H   0  0  0  0  0  0
  -22.6898  -31.3164   21.4268 H   0  0  0  0  0  0
  -23.3731  -35.9669   23.3308 H   0  0  0  0  0  0
  -24.3570  -36.8951   22.2051 H   0  0  0  0  0  0
  -23.7247  -37.6539   23.6644 H   0  0  0  0  0  0
  -26.0431  -31.5986   20.5993 H   0  0  0  0  0  0
  -26.8227  -30.8883   21.9864 H   0  0  0  0  0  0
  -28.0921  -29.0731   21.1855 H   0  0  0  0  0  0
  -25.9715  -26.0330   18.9324 H   0  0  0  0  0  0
  -23.9583  -27.3464   19.0030 H   0  0  0  0  0  0
  -23.7103  -30.6234   19.4155 H   0  0  0  0  0  0
  -22.7281  -29.2652   19.8749 H   0  0  0  0  0  0
  -25.1265  -36.1997   25.0831 H   0  0  0  0  0  0
  -20.9922  -28.3211   24.1438 H   0  0  0  0  0  0
  -20.5650  -26.2258   23.3575 H   0  0  0  0  0  0
  -21.6628  -26.7453   22.1205 H   0  0  0  0  0  0
  -19.6911  -25.6294   21.1213 H   0  0  0  0  0  0
  -19.6686  -27.3182   20.6703 H   0  0  0  0  0  0
  -17.4192  -26.6634   21.4006 H   0  0  0  0  0  0
  -18.0344  -26.0042   22.8983 H   0  0  0  0  0  0
  -19.7925  -30.7213   24.2307 H   0  0  0  0  0  0
  -17.5017  -31.6257   24.5141 H   0  0  0  0  0  0
  -15.5341  -30.2982   23.7644 H   0  0  0  0  0  0
  -15.8644  -28.0798   22.7098 H   0  0  0  0  0  0
  -24.5942  -30.7002   25.7801 H   0  0  0  0  0  0
  -24.8903  -32.2783   26.4957 H   0  0  0  0  0  0
  -25.8104  -30.8805   27.0236 H   0  0  0  0  0  0
  -26.2898  -29.6764   24.1208 H   0  0  0  0  0  0
  -27.4184  -29.7316   25.4574 H   0  0  0  0  0  0
  -27.8699  -30.4384   23.9238 H   0  0  0  0  0  0
  -27.2742  -33.3612   26.2089 H   0  0  0  0  0  0
  -28.3870  -32.6864   25.0302 H   0  0  0  0  0  0
  -28.0769  -31.8424   26.5395 H   0  0  0  0  0  0
  -28.2601  -38.0107   24.7519 H   0  0  0  0  0  0
  -28.1080  -36.2644   24.6293 H   0  0  0  0  0  0
  -27.2291  -37.1462   25.8868 H   0  0  0  0  0  0
  -20.9287  -29.8794   21.6978 H   0  0  0  0  0  0
  -26.0191  -38.2884   24.1402 H   0  0  0  0  0  0
  -30.4118  -21.3130   18.2814 H   0  0  0  0  0  0
  -29.5871  -19.5691   22.7854 H   0  0  0  0  0  0
  -35.7372  -19.4318   18.7595 H   0  0  0  0  0  0
  -35.8169  -19.5607   17.0053 H   0  0  0  0  0  0
  -36.0245  -17.9908   17.7914 H   0  0  0  0  0  0
  -32.5403  -17.6460   16.4050 H   0  0  0  0  0  0
  -34.1652  -16.9767   16.3848 H   0  0  0  0  0  0
  -33.8296  -18.5016   15.5635 H   0  0  0  0  0  0
  -29.1619  -15.2001   23.3845 H   0  0  0  0  0  0
  -30.8345  -15.7363   23.5078 H   0  0  0  0  0  0
  -30.4796  -14.0358   23.2392 H   0  0  0  0  0  0
  -31.2455  -19.2097   17.5549 H   0  0  0  0  0  0
  -31.3708  -17.8158   18.5858 H   0  0  0  0  0  0
  -31.2545  -17.7591   22.3689 H   0  0  0  0  0  0
  -31.8679  -17.4101   20.7866 H   0  0  0  0  0  0
  -27.6984  -22.6905   20.1687 H   0  0  0  0  0  0
  -28.6159  -22.8143   18.7109 H   0  0  0  0  0  0
  -30.1976  -24.4358   19.7721 H   0  0  0  0  0  0
  -29.3690  -24.2541   21.3119 H   0  0  0  0  0  0
  -29.5275  -16.6481   20.0845 H   0  0  0  0  0  0
  -28.9522  -16.9747   21.6879 H   0  0  0  0  0  0
  -27.2511  -24.9197   20.2821 H   0  0  0  0  0  0
  -28.0309  -25.1803   18.7235 H   0  0  0  0  0  0
  1 25  1  0  0  0
  1 30  2  0  0  0
  1 88  1  0  0  0
  2  3  1  0  0  0
  2 25  1  0  0  0
  2 90  1  0  0  0
  2 91  1  0  0  0
  3  4  1  0  0  0
  3 92  1  0  0  0
  3 93  1  0  0  0
  4  5  1  0  0  0
  4 94  1  0  0  0
  4 95  1  0  0  0
  5  6  1  0  0  0
  5 26  1  0  0  0
  5 96  1  0  0  0
  6 25  1  0  0  0
  6 97  1  0  0  0
  6 98  1  0  0  0
  7  8  2  0  0  0
  7 26  1  0  0  0
  7 29  1  0  0  0
  8  9  1  0  0  0
  8 22  1  0  0  0
  9 10  1  0  0  0
  9 27  2  0  0  0
 10 11  2  0  0  0
 10 15  1  0  0  0
 11 12  1  0  0  0
 11 99  1  0  0  0
 12 13  2  0  0  0
 12100  1  0  0  0
 13 14  1  0  0  0
 13 31  1  0  0  0
 14 15  2  0  0  0
 14101  1  0  0  0
 15102  1  0  0  0
 16 17  2  0  0  0
 16 21  1  0  0  0
 16 31  1  0  0  0
 17 18  1  0  0  0
 17103  1  0  0  0
 18 19  2  0  0  0
 18104  1  0  0  0
 19 20  1  0  0  0
 19 24  1  0  0  0
 20 21  2  0  0  0
 20105  1  0  0  0
 21 23  1  0  0  0
 22 28  1  0  0  0
 22 32  2  0  0  0
 26 27  1  0  0  0
 28106  1  0  0  0
 28107  1  0  0  0
 29108  1  0  0  0
 29109  1  0  0  0
 33 34  1  0  0  0
 33 66  1  0  0  0
 33 70  2  0  0  0
 34 36  1  0  0  0
 34 59  1  0  0  0
 34110  1  0  0  0
 35 44  2  0  0  0
 35 45  1  0  0  0
 35 68  1  0  0  0
 36 56  1  0  0  0
 36111  1  0  0  0
 37 39  1  0  0  0
 37 47  1  0  0  0
 37 66  1  0  0  0
 37112  1  0  0  0
 38 43  2  0  0  0
 38 46  1  0  0  0
 38 47  1  0  0  0
 39 64  1  0  0  0
 39 67  2  0  0  0
 40 52  1  0  0  0
 40 53  2  0  0  0
 40 58  1  0  0  0
 41113  1  0  0  0
 41114  1  0  0  0
 41115  1  0  0  0
 41 48  1  0  0  0
 42 43  1  0  0  0
 42 66  1  0  0  0
 42116  1  0  0  0
 42117  1  0  0  0
 43 44  1  0  0  0
 44118  1  0  0  0
 45 46  2  0  0  0
 45119  1  0  0  0
 46120  1  0  0  0
 47121  1  0  0  0
 47122  1  0  0  0
 48 56  1  0  0  0
 48 65  1  0  0  0
 48123  1  0  0  0
 49 50  1  0  0  0
 49 53  1  0  0  0
 49 64  1  0  0  0
 49124  1  0  0  0
 50 51  1  0  0  0
 50125  1  0  0  0
 50126  1  0  0  0
 51 52  1  0  0  0
 51127  1  0  0  0
 51128  1  0  0  0
 52129  1  0  0  0
 52130  1  0  0  0
 53 54  1  0  0  0
 54 55  2  0  0  0
 54131  1  0  0  0
 55 57  1  0  0  0
 55132  1  0  0  0
 56 69  2  0  0  0
 57 58  2  0  0  0
 57133  1  0  0  0
 58134  1  0  0  0
 59 60  1  0  0  0
 59 61  1  0  0  0
 59 62  1  0  0  0
 60135  1  0  0  0
 60136  1  0  0  0
 60137  1  0  0  0
 61138  1  0  0  0
 61139  1  0  0  0
 61140  1  0  0  0
 62141  1  0  0  0
 62142  1  0  0  0
 62143  1  0  0  0
 63 65  1  0  0  0
 63144  1  0  0  0
 63145  1  0  0  0
 63146  1  0  0  0
 64147  1  0  0  0
 65148  1  0  0  0
 68 86  1  0  0  0
 71 73  2  0  0  0
 71 75  1  0  0  0
 71149  1  0  0  0
 72 74  2  0  0  0
 72 87  1  0  0  0
 72150  1  0  0  0
 73 74  1  0  0  0
 73 81  1  0  0  0
 74 82  1  0  0  0
 75 83  1  0  0  0
 75 87  2  0  0  0
 76 77  2  0  0  0
 76 78  1  0  0  0
 76 79  1  0  0  0
 77 81  1  0  0  0
 77 89  1  0  0  0
 78151  1  0  0  0
 78152  1  0  0  0
 78153  1  0  0  0
 79154  1  0  0  0
 79155  1  0  0  0
 79156  1  0  0  0
 80 88  1  0  0  0
 80157  1  0  0  0
 80158  1  0  0  0
 80159  1  0  0  0
 81160  1  0  0  0
 81161  1  0  0  0
 82 85  1  0  0  0
 82162  1  0  0  0
 82163  1  0  0  0
 83 84  1  0  0  0
 83164  1  0  0  0
 83165  1  0  0  0
 84 86  1  0  0  0
 84166  1  0  0  0
 84167  1  0  0  0
 85 88  1  0  0  0
 85168  1  0  0  0
 85169  1  0  0  0
 86170  1  0  0  0
 86171  1  0  0  0
M  ISO  4   1 100  68 101  86 101  88 100
M  END
> <chiral flag>
0

> <version>
0

> <s_m_source_file>
/data/baiqing/PycharmProjects/Reinvent-master-3.2/result/LINK_invent/BTK/process_docking_weight1_custom_sum_contain_oxygen_bond_distance_aromatic_linkinvent_7_9_3/rearranged_h_0047.sdf

> <i_m_source_file_index>
55

> <r_mmod_Potential_Energy-OPLS-2005>
-51.9824295043945

> <r_mmod_Stretch_Energy-OPLS-2005>
38.9248504638672

> <r_mmod_Bend_Energy-OPLS-2005>
105.944984436035

> <r_mmod_Torsional_Energy-OPLS-2005>
268.974090576172

> <r_mmod_Improper_Torsional_Energy-OPLS-2005>
4.41517877578735

> <r_mmod_Van_der_Waal_Energy-OPLS-2005>
168.145889282227

> <r_mmod_Electrostatic_Energy-OPLS-2005>
-447.414947509766

> <r_mmod_Solvation_Energy-OPLS-2005>
-202.822204589844

> <b_mmod_Minimization_Converged-OPLS-2005>
0

> <r_mmod_RMS_Derivative-OPLS-2005>
1.8070148229599

$$$$
55
                    3D
 Structure written by MMmdl.
162170  0  0  1  0            999 V2000
  -30.7488  -14.4730   20.6136 C   0  0  0  0  0  0
  -30.4188  -12.3237   19.4318 C   0  0  0  0  0  0
  -29.4987  -12.5088   18.2111 C   0  0  0  0  0  0
  -28.0216  -12.3641   18.6213 C   0  0  0  0  0  0
  -27.6622  -13.2149   19.8691 C   0  0  2  0  0  0
  -28.7023  -13.0248   20.9965 C   0  0  0  0  0  0
  -25.2599  -13.8189   20.5688 C   0  0  0  0  0  0
  -24.1848  -13.0458   20.9176 C   0  0  0  0  0  0
  -24.6409  -11.6922   20.8724 C   0  0  0  0  0  0
  -23.9070  -10.4306   21.0398 C   0  0  0  0  0  0
  -24.3621   -9.4221   21.9174 C   0  0  0  0  0  0
  -23.6305   -8.2251   22.0742 C   0  0  0  0  0  0
  -22.4285   -8.0289   21.3539 C   0  0  0  0  0  0
  -21.9919   -9.0262   20.4635 C   0  0  0  0  0  0
  -22.7247  -10.2143   20.3045 C   0  0  0  0  0  0
  -21.6855   -6.0735   22.5286 C   0  0  0  0  0  0
  -21.4014   -6.5635   23.8220 C   0  0  0  0  0  0
  -21.3659   -5.6786   24.9182 C   0  0  0  0  0  0
  -21.6056   -4.3052   24.7227 C   0  0  0  0  0  0
  -21.8817   -3.8143   23.4346 C   0  0  0  0  0  0
  -21.9193   -4.6962   22.3407 C   0  0  0  0  0  0
  -22.7862  -13.5254   21.1840 C   0  0  0  0  0  0
  -22.1664   -4.2145   21.0982 F   0  0  0  0  0  0
  -21.5634   -3.4538   25.7738 F   0  0  0  0  0  0
  -30.0333  -13.3235   20.4445 N   0  0  0  0  0  0
  -26.3035  -12.9372   20.3335 N   0  0  0  0  0  0
  -25.9339  -11.6522   20.5725 N   0  0  0  0  0  0
  -22.0482  -12.8251   22.0383 N   0  0  0  0  0  0
  -25.4337  -15.1908   20.4121 N   0  0  0  0  0  0
  -31.8394  -14.6462   20.0664 O   0  0  0  0  0  0
  -21.6644   -6.8886   21.4251 O   0  0  0  0  0  0
  -22.3549  -14.5551   20.6675 O   0  0  0  0  0  0
  -24.6160  -31.8663   23.2099 C   0  0  0  0  0  0
  -25.9050  -32.4803   23.8382 C   0  0  1  0  0  0
  -27.2159  -27.3996   20.0903 C   0  0  0  0  0  0
  -25.5906  -33.8602   24.2307 N   0  0  0  0  0  0
  -23.4020  -30.4961   21.5500 C   0  0  2  0  0  0
  -24.8438  -28.9628   20.1102 C   0  0  0  0  0  0
  -22.7410  -29.4663   22.4953 C   0  0  0  0  0  0
  -18.0266  -28.1390   22.8479 C   0  0  0  0  0  0
  -24.1497  -36.7308   23.2633 C   0  0  0  0  0  0
  -25.9367  -30.8184   21.3711 C   0  0  0  0  0  0
  -26.0079  -29.4544   20.7138 C   0  0  0  0  0  0
  -27.1943  -28.6791   20.7029 C   0  0  0  0  0  0
  -26.0345  -26.9509   19.4525 C   0  0  0  0  0  0
  -24.8538  -27.7125   19.4775 C   0  0  0  0  0  0
  -23.6108  -29.8356   20.1626 C   0  0  0  0  0  0
  -25.4119  -36.3092   24.0324 C   0  0  1  0  0  0
  -20.5860  -28.3668   23.1292 C   0  0  2  0  0  0
  -20.6757  -26.9403   22.5397 C   0  0  0  0  0  0
  -19.5739  -26.6387   21.5198 C   0  0  0  0  0  0
  -18.1920  -26.7930   22.1616 C   0  0  0  0  0  0
  -19.1519  -28.8848   23.2885 C   0  0  0  0  0  0
  -18.9449  -30.1455   23.8902 C   0  0  0  0  0  0
  -17.6452  -30.6594   24.0573 C   0  0  0  0  0  0
  -25.9044  -34.9458   23.5105 C   0  0  0  0  0  0
  -16.5339  -29.9099   23.6345 C   0  0  0  0  0  0
  -16.7259  -28.6519   23.0357 C   0  0  0  0  0  0
  -26.4479  -31.6582   25.0710 C   0  0  0  0  0  0
  -25.3744  -31.3696   26.1458 C   0  0  0  0  0  0
  -27.0303  -30.3013   24.6106 C   0  0  0  0  0  0
  -27.6049  -32.4299   25.7478 C   0  0  0  0  0  0
  -27.5587  -37.1815   24.8465 C   0  0  0  0  0  0
  -21.4129  -29.3044   22.3701 N   0  0  0  0  0  0
  -26.4298  -37.3781   23.9404 N   0  0  0  0  0  0
  -24.6699  -31.0758   22.1009 N   0  0  0  0  0  0
  -23.4180  -28.8189   23.2976 O   0  0  0  0  0  0
  -28.3753  -26.6385   20.1305 O   0  0  0  0  0  0
  -26.5606  -34.8909   22.4669 O   0  0  0  0  0  0
  -23.5351  -32.1419   23.7499 O   0  0  0  0  0  0
  -30.1949  -19.8158   20.3413 C   0  0  0  0  0  0
  -30.1361  -20.6983   21.4480 C   0  0  0  0  0  0
  -30.1448  -20.0463   22.7025 C   0  0  0  0  0  0
  -30.4455  -17.9891   21.7151 C   0  0  0  0  0  0
  -30.0503  -20.8173   24.0061 C   0  0  0  0  0  0
  -28.4744  -24.4696   22.2642 C   0  0  0  0  0  0
  -31.5415  -22.6415   21.5737 C   0  0  0  0  0  0
  -30.9913  -16.5687   21.9250 C   0  0  0  0  0  0
  -29.3145  -22.8754   20.4428 C   0  0  0  0  0  0
  -28.3115  -25.2130   19.8595 C   0  0  0  0  0  0
  -29.1310  -24.3734   20.8751 C   0  0  1  0  0  0
  -30.3622  -18.4746   20.4768 N   0  0  0  0  0  0
  -30.2960  -18.7105   22.8209 N   0  0  0  0  0  0
  -30.2193  -15.4263   21.3988 N   0  0  0  0  0  0
  -30.1936  -22.1158   21.3509 N   0  0  0  0  0  0
  -31.4651  -12.4067   19.1325 H   0  0  0  0  0  0
  -30.3128  -11.3173   19.8410 H   0  0  0  0  0  0
  -29.7461  -11.7790   17.4390 H   0  0  0  0  0  0
  -29.6668  -13.4925   17.7703 H   0  0  0  0  0  0
  -27.8390  -11.3088   18.8269 H   0  0  0  0  0  0
  -27.3722  -12.6243   17.7847 H   0  0  0  0  0  0
  -27.7001  -14.2589   19.5564 H   0  0  0  0  0  0
  -28.6827  -11.9957   21.3597 H   0  0  0  0  0  0
  -28.4531  -13.6445   21.8578 H   0  0  0  0  0  0
  -25.2768   -9.5699   22.4745 H   0  0  0  0  0  0
  -24.0016   -7.4642   22.7464 H   0  0  0  0  0  0
  -21.0849   -8.8800   19.8935 H   0  0  0  0  0  0
  -22.3726  -10.9687   19.6145 H   0  0  0  0  0  0
  -21.2000   -7.6139   23.9727 H   0  0  0  0  0  0
  -21.1484   -6.0508   25.9084 H   0  0  0  0  0  0
  -22.0590   -2.7605   23.2847 H   0  0  0  0  0  0
  -22.4082  -11.9938   22.4830 H   0  0  0  0  0  0
  -21.1081  -13.1263   22.2528 H   0  0  0  0  0  0
  -24.6735  -15.8523   20.5292 H   0  0  0  0  0  0
  -26.2916  -15.6247   20.0930 H   0  0  0  0  0  0
  -26.7109  -32.5512   23.1130 H   0  0  0  0  0  0
  -25.0067  -33.9756   25.0458 H   0  0  0  0  0  0
  -22.6905  -31.3140   21.4159 H   0  0  0  0  0  0
  -23.3739  -35.9662   23.3306 H   0  0  0  0  0  0
  -24.3586  -36.8913   22.2045 H   0  0  0  0  0  0
  -23.7272  -37.6521   23.6647 H   0  0  0  0  0  0
  -26.0635  -31.5818   20.6023 H   0  0  0  0  0  0
  -26.8197  -30.8611   21.9966 H   0  0  0  0  0  0
  -28.0914  -29.0508   21.1782 H   0  0  0  0  0  0
  -25.9933  -26.0199   18.9096 H   0  0  0  0  0  0
  -23.9635  -27.3363   18.9936 H   0  0  0  0  0  0
  -23.7243  -30.6109   19.4038 H   0  0  0  0  0  0
  -22.7313  -29.2608   19.8662 H   0  0  0  0  0  0
  -25.1299  -36.1949   25.0815 H   0  0  0  0  0  0
  -20.9971  -28.3246   24.1402 H   0  0  0  0  0  0
  -20.5653  -26.2281   23.3584 H   0  0  0  0  0  0
  -21.6635  -26.7441   22.1210 H   0  0  0  0  0  0
  -19.6893  -25.6297   21.1232 H   0  0  0  0  0  0
  -19.6694  -27.3193   20.6726 H   0  0  0  0  0  0
  -17.4188  -26.6665   21.4021 H   0  0  0  0  0  0
  -18.0337  -26.0069   22.9014 H   0  0  0  0  0  0
  -19.7923  -30.7270   24.2272 H   0  0  0  0  0  0
  -17.5014  -31.6280   24.5165 H   0  0  0  0  0  0
  -15.5349  -30.3020   23.7664 H   0  0  0  0  0  0
  -15.8645  -28.0856   22.7075 H   0  0  0  0  0  0
  -24.5921  -30.7032   25.7806 H   0  0  0  0  0  0
  -24.8937  -32.2854   26.4904 H   0  0  0  0  0  0
  -25.8100  -30.8873   27.0216 H   0  0  0  0  0  0
  -26.2844  -29.6771   24.1170 H   0  0  0  0  0  0
  -27.4058  -29.7254   25.4575 H   0  0  0  0  0  0
  -27.8698  -30.4302   23.9268 H   0  0  0  0  0  0
  -27.2664  -33.3586   26.2082 H   0  0  0  0  0  0
  -28.3858  -32.6870   25.0307 H   0  0  0  0  0  0
  -28.0717  -31.8397   26.5374 H   0  0  0  0  0  0
  -28.2608  -38.0111   24.7502 H   0  0  0  0  0  0
  -28.1075  -36.2634   24.6305 H   0  0  0  0  0  0
  -27.2295  -37.1488   25.8865 H   0  0  0  0  0  0
  -20.9273  -29.8812   21.6978 H   0  0  0  0  0  0
  -26.0173  -38.2847   24.1412 H   0  0  0  0  0  0
  -30.1968  -20.1999   19.3321 H   0  0  0  0  0  0
  -29.2968  -21.6022   23.9362 H   0  0  0  0  0  0
  -31.0088  -21.2798   24.2372 H   0  0  0  0  0  0
  -29.7773  -20.1662   24.8353 H   0  0  0  0  0  0
  -29.0677  -23.9626   23.0249 H   0  0  0  0  0  0
  -27.4824  -24.0163   22.2564 H   0  0  0  0  0  0
  -28.3613  -25.5068   22.5788 H   0  0  0  0  0  0
  -31.8612  -23.2743   20.7426 H   0  0  0  0  0  0
  -32.2887  -21.8541   21.6893 H   0  0  0  0  0  0
  -31.5613  -23.2522   22.4777 H   0  0  0  0  0  0
  -31.1094  -16.3942   22.9955 H   0  0  0  0  0  0
  -32.0131  -16.5770   21.5421 H   0  0  0  0  0  0
  -29.7334  -22.8423   19.4348 H   0  0  0  0  0  0
  -28.3401  -22.3869   20.3840 H   0  0  0  0  0  0
  -27.3049  -24.7989   19.8868 H   0  0  0  0  0  0
  -28.6898  -25.0488   18.8497 H   0  0  0  0  0  0
  -30.1149  -24.8403   20.9333 H   0  0  0  0  0  0
  -29.3050  -15.2742   21.7928 H   0  0  0  0  0  0
  1 25  1  0  0  0
  1 30  2  0  0  0
  1 84  1  0  0  0
  2  3  1  0  0  0
  2 25  1  0  0  0
  2 86  1  0  0  0
  2 87  1  0  0  0
  3  4  1  0  0  0
  3 88  1  0  0  0
  3 89  1  0  0  0
  4  5  1  0  0  0
  4 90  1  0  0  0
  4 91  1  0  0  0
  5  6  1  0  0  0
  5 26  1  0  0  0
  5 92  1  0  0  0
  6 25  1  0  0  0
  6 93  1  0  0  0
  6 94  1  0  0  0
  7  8  2  0  0  0
  7 26  1  0  0  0
  7 29  1  0  0  0
  8  9  1  0  0  0
  8 22  1  0  0  0
  9 10  1  0  0  0
  9 27  2  0  0  0
 10 11  2  0  0  0
 10 15  1  0  0  0
 11 12  1  0  0  0
 11 95  1  0  0  0
 12 13  2  0  0  0
 12 96  1  0  0  0
 13 14  1  0  0  0
 13 31  1  0  0  0
 14 15  2  0  0  0
 14 97  1  0  0  0
 15 98  1  0  0  0
 16 17  2  0  0  0
 16 21  1  0  0  0
 16 31  1  0  0  0
 17 18  1  0  0  0
 17 99  1  0  0  0
 18 19  2  0  0  0
 18100  1  0  0  0
 19 20  1  0  0  0
 19 24  1  0  0  0
 20 21  2  0  0  0
 20101  1  0  0  0
 21 23  1  0  0  0
 22 28  1  0  0  0
 22 32  2  0  0  0
 26 27  1  0  0  0
 28102  1  0  0  0
 28103  1  0  0  0
 29104  1  0  0  0
 29105  1  0  0  0
 33 34  1  0  0  0
 33 66  1  0  0  0
 33 70  2  0  0  0
 34 36  1  0  0  0
 34 59  1  0  0  0
 34106  1  0  0  0
 35 44  2  0  0  0
 35 45  1  0  0  0
 35 68  1  0  0  0
 36 56  1  0  0  0
 36107  1  0  0  0
 37 39  1  0  0  0
 37 47  1  0  0  0
 37 66  1  0  0  0
 37108  1  0  0  0
 38 43  2  0  0  0
 38 46  1  0  0  0
 38 47  1  0  0  0
 39 64  1  0  0  0
 39 67  2  0  0  0
 40 52  1  0  0  0
 40 53  2  0  0  0
 40 58  1  0  0  0
 41109  1  0  0  0
 41110  1  0  0  0
 41111  1  0  0  0
 41 48  1  0  0  0
 42 43  1  0  0  0
 42 66  1  0  0  0
 42112  1  0  0  0
 42113  1  0  0  0
 43 44  1  0  0  0
 44114  1  0  0  0
 45 46  2  0  0  0
 45115  1  0  0  0
 46116  1  0  0  0
 47117  1  0  0  0
 47118  1  0  0  0
 48 56  1  0  0  0
 48 65  1  0  0  0
 48119  1  0  0  0
 49 50  1  0  0  0
 49 53  1  0  0  0
 49 64  1  0  0  0
 49120  1  0  0  0
 50 51  1  0  0  0
 50121  1  0  0  0
 50122  1  0  0  0
 51 52  1  0  0  0
 51123  1  0  0  0
 51124  1  0  0  0
 52125  1  0  0  0
 52126  1  0  0  0
 53 54  1  0  0  0
 54 55  2  0  0  0
 54127  1  0  0  0
 55 57  1  0  0  0
 55128  1  0  0  0
 56 69  2  0  0  0
 57 58  2  0  0  0
 57129  1  0  0  0
 58130  1  0  0  0
 59 60  1  0  0  0
 59 61  1  0  0  0
 59 62  1  0  0  0
 60131  1  0  0  0
 60132  1  0  0  0
 60133  1  0  0  0
 61134  1  0  0  0
 61135  1  0  0  0
 61136  1  0  0  0
 62137  1  0  0  0
 62138  1  0  0  0
 62139  1  0  0  0
 63 65  1  0  0  0
 63140  1  0  0  0
 63141  1  0  0  0
 63142  1  0  0  0
 64143  1  0  0  0
 65144  1  0  0  0
 68 80  1  0  0  0
 71 72  2  0  0  0
 71 82  1  0  0  0
 71145  1  0  0  0
 72 73  1  0  0  0
 72 85  1  0  0  0
 73 75  1  0  0  0
 73 83  2  0  0  0
 74 78  1  0  0  0
 74 82  2  0  0  0
 74 83  1  0  0  0
 75146  1  0  0  0
 75147  1  0  0  0
 75148  1  0  0  0
 76149  1  0  0  0
 76150  1  0  0  0
 76151  1  0  0  0
 76 81  1  0  0  0
 77 85  1  0  0  0
 77152  1  0  0  0
 77153  1  0  0  0
 77154  1  0  0  0
 78 84  1  0  0  0
 78155  1  0  0  0
 78156  1  0  0  0
 79 81  1  0  0  0
 79 85  1  0  0  0
 79157  1  0  0  0
 79158  1  0  0  0
 80 81  1  0  0  0
 80159  1  0  0  0
 80160  1  0  0  0
 81161  1  0  0  0
 84162  1  0  0  0
M  ISO  4   1 100  68 101  80 101  84 100
M  END
> <chiral flag>
0

> <version>
0

> <s_m_source_file>
/data/baiqing/PycharmProjects/Reinvent-master-3.2/result/LINK_invent/BTK/process_docking_weight1_custom_sum_contain_oxygen_bond_distance_aromatic_linkinvent_7_9_3/rearranged_h_0047.sdf

> <i_m_source_file_index>
56

> <r_mmod_Potential_Energy-OPLS-2005>
-456.985961914062

> <r_mmod_Stretch_Energy-OPLS-2005>
43.8842086791992

> <r_mmod_Bend_Energy-OPLS-2005>
120.610427856445

> <r_mmod_Torsional_Energy-OPLS-2005>
225.760894775391

> <r_mmod_Improper_Torsional_Energy-OPLS-2005>
6.06618452072144

> <r_mmod_Van_der_Waal_Energy-OPLS-2005>
166.213592529297

> <r_mmod_Electrostatic_Energy-OPLS-2005>
-804.368041992188

> <r_mmod_Solvation_Energy-OPLS-2005>
-231.912033081055

> <b_mmod_Minimization_Converged-OPLS-2005>
0

> <r_mmod_RMS_Derivative-OPLS-2005>
2.14467024803162

$$$$
56
                    3D
 Structure written by MMmdl.
169177  0  0  1  0            999 V2000
  -30.7637  -14.3760   20.6391 C   0  0  0  0  0  0
  -30.4122  -12.2729   19.4114 C   0  0  0  0  0  0
  -29.4878  -12.5173   18.2034 C   0  0  0  0  0  0
  -28.0092  -12.3847   18.6162 C   0  0  0  0  0  0
  -27.6683  -13.2079   19.8868 C   0  0  2  0  0  0
  -28.7068  -12.9575   21.0050 C   0  0  0  0  0  0
  -25.2596  -13.8180   20.5699 C   0  0  0  0  0  0
  -24.1841  -13.0444   20.9162 C   0  0  0  0  0  0
  -24.6408  -11.6911   20.8742 C   0  0  0  0  0  0
  -23.9078  -10.4291   21.0409 C   0  0  0  0  0  0
  -24.3611   -9.4203   21.9191 C   0  0  0  0  0  0
  -23.6282   -8.2244   22.0762 C   0  0  0  0  0  0
  -22.4267   -8.0281   21.3548 C   0  0  0  0  0  0
  -21.9909   -9.0270   20.4662 C   0  0  0  0  0  0
  -22.7245  -10.2143   20.3067 C   0  0  0  0  0  0
  -21.6861   -6.0736   22.5286 C   0  0  0  0  0  0
  -21.4026   -6.5637   23.8220 C   0  0  0  0  0  0
  -21.3658   -5.6791   24.9182 C   0  0  0  0  0  0
  -21.6036   -4.3053   24.7231 C   0  0  0  0  0  0
  -21.8818   -3.8146   23.4357 C   0  0  0  0  0  0
  -21.9189   -4.6961   22.3411 C   0  0  0  0  0  0
  -22.7854  -13.5240   21.1812 C   0  0  0  0  0  0
  -22.1651   -4.2144   21.0989 F   0  0  0  0  0  0
  -21.5621   -3.4537   25.7744 F   0  0  0  0  0  0
  -30.0499  -13.2358   20.4626 N   0  0  0  0  0  0
  -26.3053  -12.9358   20.3425 N   0  0  0  0  0  0
  -25.9338  -11.6512   20.5798 N   0  0  0  0  0  0
  -22.0472  -12.8267   22.0379 N   0  0  0  0  0  0
  -25.4320  -15.1896   20.4111 N   0  0  0  0  0  0
  -31.8153  -14.6189   20.0406 O   0  0  0  0  0  0
  -21.6630   -6.8880   21.4250 O   0  0  0  0  0  0
  -22.3547  -14.5550   20.6659 O   0  0  0  0  0  0
  -24.6063  -31.8715   23.2122 C   0  0  0  0  0  0
  -25.8979  -32.4843   23.8409 C   0  0  1  0  0  0
  -27.2570  -27.4894   20.1097 C   0  0  0  0  0  0
  -25.5858  -33.8641   24.2355 N   0  0  0  0  0  0
  -23.3920  -30.4909   21.5507 C   0  0  2  0  0  0
  -24.8430  -28.9619   20.1136 C   0  0  0  0  0  0
  -22.7366  -29.4663   22.5018 C   0  0  0  0  0  0
  -18.0255  -28.1373   22.8504 C   0  0  0  0  0  0
  -24.1486  -36.7330   23.2641 C   0  0  0  0  0  0
  -25.9075  -30.8628   21.3471 C   0  0  0  0  0  0
  -25.9913  -29.4970   20.7061 C   0  0  0  0  0  0
  -27.1955  -28.7735   20.7025 C   0  0  0  0  0  0
  -26.0959  -26.9647   19.5049 C   0  0  0  0  0  0
  -24.8872  -27.6921   19.5084 C   0  0  0  0  0  0
  -23.5972  -29.8159   20.1660 C   0  0  0  0  0  0
  -25.4100  -36.3131   24.0350 C   0  0  1  0  0  0
  -20.5840  -28.3647   23.1349 C   0  0  2  0  0  0
  -20.6743  -26.9389   22.5435 C   0  0  0  0  0  0
  -19.5729  -26.6386   21.5219 C   0  0  0  0  0  0
  -18.1906  -26.7928   22.1625 C   0  0  0  0  0  0
  -19.1506  -28.8830   23.2929 C   0  0  0  0  0  0
  -18.9434  -30.1436   23.8933 C   0  0  0  0  0  0
  -17.6441  -30.6587   24.0570 C   0  0  0  0  0  0
  -25.9017  -34.9487   23.5155 C   0  0  0  0  0  0
  -16.5329  -29.9094   23.6321 C   0  0  0  0  0  0
  -16.7249  -28.6508   23.0350 C   0  0  0  0  0  0
  -26.4457  -31.6598   25.0693 C   0  0  0  0  0  0
  -25.3759  -31.3657   26.1466 C   0  0  0  0  0  0
  -27.0279  -30.3068   24.5975 C   0  0  0  0  0  0
  -27.6069  -32.4291   25.7428 C   0  0  0  0  0  0
  -27.5584  -37.1806   24.8467 C   0  0  0  0  0  0
  -21.4100  -29.3018   22.3764 N   0  0  0  0  0  0
  -26.4300  -37.3805   23.9410 N   0  0  0  0  0  0
  -24.6540  -31.0885   22.0979 N   0  0  0  0  0  0
  -23.4174  -28.8212   23.3041 O   0  0  0  0  0  0
  -28.3960  -26.7138   20.1065 O   0  0  0  0  0  0
  -26.5589  -34.8930   22.4723 O   0  0  0  0  0  0
  -23.5276  -32.1424   23.7568 O   0  0  0  0  0  0
  -29.8741  -24.5900   21.5685 C   0  0  0  0  0  0
  -30.3401  -25.9123   21.3924 C   0  0  0  0  0  0
  -32.4673  -25.2450   21.9789 C   0  0  0  0  0  0
  -32.0052  -23.9121   22.1480 C   0  0  0  0  0  0
  -33.9069  -25.6469   22.2437 C   0  0  0  0  0  0
  -32.3649  -18.6184   23.8186 C   0  0  0  0  0  0
  -32.9453  -22.8079   22.6219 C   0  0  0  0  0  0
  -29.3817  -27.0460   21.0870 C   0  0  0  0  0  0
  -32.4466  -21.3577   22.4498 C   0  0  0  0  0  0
  -29.8562  -17.5406   22.4709 C   0  0  0  0  0  0
  -30.7732  -16.6265   21.6349 C   0  0  0  0  0  0
  -31.4658  -20.9124   23.5667 C   0  0  0  0  0  0
  -30.2979  -19.0264   22.4472 C   0  0  0  0  0  0
  -30.7035  -23.5887   21.9475 N   0  0  0  0  0  0
  -31.6385  -26.2441   21.5938 N   0  0  0  0  0  0
  -30.2362  -15.2750   21.4798 N   0  0  0  0  0  0
  -31.1618  -19.4548   23.5825 N   0  3  1  0  0  0
  -31.4587  -12.3506   19.1093 H   0  0  0  0  0  0
  -30.2906  -11.2563   19.7879 H   0  0  0  0  0  0
  -29.7185  -11.8107   17.4047 H   0  0  0  0  0  0
  -29.6676  -13.5154   17.7993 H   0  0  0  0  0  0
  -27.8086  -11.3283   18.7960 H   0  0  0  0  0  0
  -27.3589  -12.6815   17.7917 H   0  0  0  0  0  0
  -27.7267  -14.2621   19.6132 H   0  0  0  0  0  0
  -28.6639  -11.9192   21.3370 H   0  0  0  0  0  0
  -28.4668  -13.5487   21.8890 H   0  0  0  0  0  0
  -25.2748   -9.5668   22.4780 H   0  0  0  0  0  0
  -23.9982   -7.4638   22.7490 H   0  0  0  0  0  0
  -21.0831   -8.8812   19.8979 H   0  0  0  0  0  0
  -22.3713  -10.9689   19.6183 H   0  0  0  0  0  0
  -21.2038   -7.6149   23.9726 H   0  0  0  0  0  0
  -21.1469   -6.0520   25.9084 H   0  0  0  0  0  0
  -22.0597   -2.7608   23.2865 H   0  0  0  0  0  0
  -22.4050  -11.9925   22.4785 H   0  0  0  0  0  0
  -21.1113  -13.1364   22.2585 H   0  0  0  0  0  0
  -24.6686  -15.8494   20.5174 H   0  0  0  0  0  0
  -26.2914  -15.6262   20.1005 H   0  0  0  0  0  0
  -26.7055  -32.5606   23.1194 H   0  0  0  0  0  0
  -24.9999  -33.9823   25.0490 H   0  0  0  0  0  0
  -22.6762  -31.3032   21.4106 H   0  0  0  0  0  0
  -23.3742  -35.9671   23.3328 H   0  0  0  0  0  0
  -24.3582  -36.8917   22.2053 H   0  0  0  0  0  0
  -23.7239  -37.6542   23.6638 H   0  0  0  0  0  0
  -25.9911  -31.6213   20.5676 H   0  0  0  0  0  0
  -26.8053  -30.9405   21.9480 H   0  0  0  0  0  0
  -28.0633  -29.2239   21.1607 H   0  0  0  0  0  0
  -26.1267  -25.9857   19.0470 H   0  0  0  0  0  0
  -24.0035  -27.2707   19.0487 H   0  0  0  0  0  0
  -23.6909  -30.5861   19.3998 H   0  0  0  0  0  0
  -22.7276  -29.2212   19.8817 H   0  0  0  0  0  0
  -25.1269  -36.2017   25.0842 H   0  0  0  0  0  0
  -20.9931  -28.3212   24.1470 H   0  0  0  0  0  0
  -20.5640  -26.2250   23.3611 H   0  0  0  0  0  0
  -21.6615  -26.7435   22.1230 H   0  0  0  0  0  0
  -19.6888  -25.6307   21.1227 H   0  0  0  0  0  0
  -19.6676  -27.3214   20.6767 H   0  0  0  0  0  0
  -17.4174  -26.6691   21.4023 H   0  0  0  0  0  0
  -18.0297  -26.0057   22.9007 H   0  0  0  0  0  0
  -19.7910  -30.7245   24.2319 H   0  0  0  0  0  0
  -17.4994  -31.6267   24.5165 H   0  0  0  0  0  0
  -15.5337  -30.3007   23.7627 H   0  0  0  0  0  0
  -15.8643  -28.0837   22.7052 H   0  0  0  0  0  0
  -24.5915  -30.7033   25.7790 H   0  0  0  0  0  0
  -24.8962  -32.2792   26.4990 H   0  0  0  0  0  0
  -25.8132  -30.8760   27.0173 H   0  0  0  0  0  0
  -26.2774  -29.6809   24.1129 H   0  0  0  0  0  0
  -27.4215  -29.7312   25.4361 H   0  0  0  0  0  0
  -27.8532  -30.4438   23.8982 H   0  0  0  0  0  0
  -27.2726  -33.3575   26.2070 H   0  0  0  0  0  0
  -28.3829  -32.6876   25.0211 H   0  0  0  0  0  0
  -28.0794  -31.8372   26.5274 H   0  0  0  0  0  0
  -28.2615  -38.0091   24.7512 H   0  0  0  0  0  0
  -28.1065  -36.2623   24.6297 H   0  0  0  0  0  0
  -27.2305  -37.1466   25.8873 H   0  0  0  0  0  0
  -20.9246  -29.8747   21.6995 H   0  0  0  0  0  0
  -26.0203  -38.2894   24.1393 H   0  0  0  0  0  0
  -28.8314  -24.3426   21.4297 H   0  0  0  0  0  0
  -34.5496  -25.2925   21.4381 H   0  0  0  0  0  0
  -34.2649  -25.2222   23.1821 H   0  0  0  0  0  0
  -34.0137  -26.7293   22.3124 H   0  0  0  0  0  0
  -32.9809  -19.0359   24.6159 H   0  0  0  0  0  0
  -32.9831  -18.5338   22.9248 H   0  0  0  0  0  0
  -32.0910  -17.6126   24.1332 H   0  0  0  0  0  0
  -33.2189  -22.9924   23.6609 H   0  0  0  0  0  0
  -33.8668  -22.9102   22.0477 H   0  0  0  0  0  0
  -29.9431  -27.9185   20.7501 H   0  0  0  0  0  0
  -28.9146  -27.2992   22.0414 H   0  0  0  0  0  0
  -33.3322  -20.7251   22.4762 H   0  0  0  0  0  0
  -32.0201  -21.2226   21.4565 H   0  0  0  0  0  0
  -29.7485  -17.1734   23.4929 H   0  0  0  0  0  0
  -28.8556  -17.4914   22.0399 H   0  0  0  0  0  0
  -31.7681  -16.5594   22.0756 H   0  0  0  0  0  0
  -30.9042  -17.0622   20.6409 H   0  0  0  0  0  0
  -30.5283  -21.4638   23.4922 H   0  0  0  0  0  0
  -31.8773  -21.1802   24.5401 H   0  0  0  0  0  0
  -29.3974  -19.6425   22.4790 H   0  0  0  0  0  0
  -30.7762  -19.2580   21.4964 H   0  0  0  0  0  0
  -29.3826  -15.0266   21.9557 H   0  0  0  0  0  0
  -30.5932  -19.3336   24.4088 H   0  0  0  0  0  0
  1 25  1  0  0  0
  1 30  2  0  0  0
  1 86  1  0  0  0
  2  3  1  0  0  0
  2 25  1  0  0  0
  2 88  1  0  0  0
  2 89  1  0  0  0
  3  4  1  0  0  0
  3 90  1  0  0  0
  3 91  1  0  0  0
  4  5  1  0  0  0
  4 92  1  0  0  0
  4 93  1  0  0  0
  5  6  1  0  0  0
  5 26  1  0  0  0
  5 94  1  0  0  0
  6 25  1  0  0  0
  6 95  1  0  0  0
  6 96  1  0  0  0
  7  8  2  0  0  0
  7 26  1  0  0  0
  7 29  1  0  0  0
  8  9  1  0  0  0
  8 22  1  0  0  0
  9 10  1  0  0  0
  9 27  2  0  0  0
 10 11  2  0  0  0
 10 15  1  0  0  0
 11 12  1  0  0  0
 11 97  1  0  0  0
 12 13  2  0  0  0
 12 98  1  0  0  0
 13 14  1  0  0  0
 13 31  1  0  0  0
 14 15  2  0  0  0
 14 99  1  0  0  0
 15100  1  0  0  0
 16 17  2  0  0  0
 16 21  1  0  0  0
 16 31  1  0  0  0
 17 18  1  0  0  0
 17101  1  0  0  0
 18 19  2  0  0  0
 18102  1  0  0  0
 19 20  1  0  0  0
 19 24  1  0  0  0
 20 21  2  0  0  0
 20103  1  0  0  0
 21 23  1  0  0  0
 22 28  1  0  0  0
 22 32  2  0  0  0
 26 27  1  0  0  0
 28104  1  0  0  0
 28105  1  0  0  0
 29106  1  0  0  0
 29107  1  0  0  0
 33 34  1  0  0  0
 33 66  1  0  0  0
 33 70  2  0  0  0
 34 36  1  0  0  0
 34 59  1  0  0  0
 34108  1  0  0  0
 35 44  2  0  0  0
 35 45  1  0  0  0
 35 68  1  0  0  0
 36 56  1  0  0  0
 36109  1  0  0  0
 37 39  1  0  0  0
 37 47  1  0  0  0
 37 66  1  0  0  0
 37110  1  0  0  0
 38 43  2  0  0  0
 38 46  1  0  0  0
 38 47  1  0  0  0
 39 64  1  0  0  0
 39 67  2  0  0  0
 40 52  1  0  0  0
 40 53  2  0  0  0
 40 58  1  0  0  0
 41111  1  0  0  0
 41112  1  0  0  0
 41113  1  0  0  0
 41 48  1  0  0  0
 42 43  1  0  0  0
 42 66  1  0  0  0
 42114  1  0  0  0
 42115  1  0  0  0
 43 44  1  0  0  0
 44116  1  0  0  0
 45 46  2  0  0  0
 45117  1  0  0  0
 46118  1  0  0  0
 47119  1  0  0  0
 47120  1  0  0  0
 48 56  1  0  0  0
 48 65  1  0  0  0
 48121  1  0  0  0
 49 50  1  0  0  0
 49 53  1  0  0  0
 49 64  1  0  0  0
 49122  1  0  0  0
 50 51  1  0  0  0
 50123  1  0  0  0
 50124  1  0  0  0
 51 52  1  0  0  0
 51125  1  0  0  0
 51126  1  0  0  0
 52127  1  0  0  0
 52128  1  0  0  0
 53 54  1  0  0  0
 54 55  2  0  0  0
 54129  1  0  0  0
 55 57  1  0  0  0
 55130  1  0  0  0
 56 69  2  0  0  0
 57 58  2  0  0  0
 57131  1  0  0  0
 58132  1  0  0  0
 59 60  1  0  0  0
 59 61  1  0  0  0
 59 62  1  0  0  0
 60133  1  0  0  0
 60134  1  0  0  0
 60135  1  0  0  0
 61136  1  0  0  0
 61137  1  0  0  0
 61138  1  0  0  0
 62139  1  0  0  0
 62140  1  0  0  0
 62141  1  0  0  0
 63 65  1  0  0  0
 63142  1  0  0  0
 63143  1  0  0  0
 63144  1  0  0  0
 64145  1  0  0  0
 65146  1  0  0  0
 68 78  1  0  0  0
 71 72  2  0  0  0
 71 84  1  0  0  0
 71147  1  0  0  0
 72 78  1  0  0  0
 72 85  1  0  0  0
 73 74  1  0  0  0
 73 75  1  0  0  0
 73 85  2  0  0  0
 74 77  1  0  0  0
 74 84  2  0  0  0
 75148  1  0  0  0
 75149  1  0  0  0
 75150  1  0  0  0
 76151  1  0  0  0
 76152  1  0  0  0
 76153  1  0  0  0
 76 87  1  0  0  0
 77 79  1  0  0  0
 77154  1  0  0  0
 77155  1  0  0  0
 78156  1  0  0  0
 78157  1  0  0  0
 79 82  1  0  0  0
 79158  1  0  0  0
 79159  1  0  0  0
 80 81  1  0  0  0
 80 83  1  0  0  0
 80160  1  0  0  0
 80161  1  0  0  0
 81 86  1  0  0  0
 81162  1  0  0  0
 81163  1  0  0  0
 82 87  1  0  0  0
 82164  1  0  0  0
 82165  1  0  0  0
 83 87  1  0  0  0
 83166  1  0  0  0
 83167  1  0  0  0
 86168  1  0  0  0
 87169  1  0  0  0
M  CHG  1  87   1
M  ISO  4   1 100  68 101  78 101  86 100
M  END
> <chiral flag>
0

> <version>
0

> <s_m_source_file>
/data/baiqing/PycharmProjects/Reinvent-master-3.2/result/LINK_invent/BTK/process_docking_weight1_custom_sum_contain_oxygen_bond_distance_aromatic_linkinvent_7_9_3/rearranged_h_0047.sdf

> <i_m_source_file_index>
57

> <r_mmod_Potential_Energy-OPLS-2005>
-114.996154785156

> <r_mmod_Stretch_Energy-OPLS-2005>
35.954418182373

> <r_mmod_Bend_Energy-OPLS-2005>
100.870330810547

> <r_mmod_Torsional_Energy-OPLS-2005>
226.815490722656

> <r_mmod_Improper_Torsional_Energy-OPLS-2005>
2.42444324493408

> <r_mmod_Van_der_Waal_Energy-OPLS-2005>
174.831741333008

> <r_mmod_Electrostatic_Energy-OPLS-2005>
-208.441879272461

> <r_mmod_Solvation_Energy-OPLS-2005>
-454.057678222656

> <b_mmod_Minimization_Converged-OPLS-2005>
0

> <r_mmod_RMS_Derivative-OPLS-2005>
2.05940389633179

$$$$
57
                    3D
 Structure written by MMmdl.
152160  0  0  1  0            999 V2000
  -30.3893  -15.3841   20.3391 C   0  0  0  0  0  0
  -30.4367  -12.8924   19.5285 C   0  0  0  0  0  0
  -29.5349  -12.6003   18.2992 C   0  0  0  0  0  0
  -28.0992  -12.2855   18.7503 C   0  0  0  0  0  0
  -27.6086  -13.2887   19.8216 C   0  0  2  0  0  0
  -28.6395  -13.5076   20.9516 C   0  0  0  0  0  0
  -25.2391  -13.8231   20.5802 C   0  0  0  0  0  0
  -24.1743  -13.0420   20.9237 C   0  0  0  0  0  0
  -24.6391  -11.6897   20.8731 C   0  0  0  0  0  0
  -23.9087  -10.4290   21.0408 C   0  0  0  0  0  0
  -24.3629   -9.4212   21.9196 C   0  0  0  0  0  0
  -23.6277   -8.2249   22.0766 C   0  0  0  0  0  0
  -22.4272   -8.0296   21.3548 C   0  0  0  0  0  0
  -21.9914   -9.0270   20.4654 C   0  0  0  0  0  0
  -22.7246  -10.2126   20.3060 C   0  0  0  0  0  0
  -21.6866   -6.0741   22.5278 C   0  0  0  0  0  0
  -21.4017   -6.5642   23.8212 C   0  0  0  0  0  0
  -21.3659   -5.6802   24.9170 C   0  0  0  0  0  0
  -21.6035   -4.3052   24.7218 C   0  0  0  0  0  0
  -21.8829   -3.8153   23.4334 C   0  0  0  0  0  0
  -21.9189   -4.6969   22.3401 C   0  0  0  0  0  0
  -22.7764  -13.5184   21.1865 C   0  0  0  0  0  0
  -22.1661   -4.2146   21.0978 F   0  0  0  0  0  0
  -21.5604   -3.4542   25.7736 F   0  0  0  0  0  0
  -29.8534  -14.0531   20.3143 N   0  0  0  0  0  0
  -26.2828  -12.9538   20.3251 N   0  0  0  0  0  0
  -25.9339  -11.6605   20.5697 N   0  0  0  0  0  0
  -22.0442  -12.8190   22.0425 N   0  0  0  0  0  0
  -25.4002  -15.1955   20.4330 N   0  0  0  0  0  0
  -31.6107  -15.3768   20.1174 O   0  0  0  0  0  0
  -21.6624   -6.8874   21.4243 O   0  0  0  0  0  0
  -22.3440  -14.5487   20.6681 O   0  0  0  0  0  0
  -24.6672  -31.8128   23.1632 C   0  0  0  0  0  0
  -25.9301  -32.4545   23.8119 C   0  0  1  0  0  0
  -27.2375  -26.8691   20.1846 C   0  0  0  0  0  0
  -25.5947  -33.8371   24.2019 N   0  0  0  0  0  0
  -23.4869  -30.4217   21.5105 C   0  0  2  0  0  0
  -24.9449  -28.7943   20.1068 C   0  0  0  0  0  0
  -22.7731  -29.4385   22.4764 C   0  0  0  0  0  0
  -18.0369  -28.1455   22.8482 C   0  0  0  0  0  0
  -24.1501  -36.7194   23.2644 C   0  0  0  0  0  0
  -26.0555  -30.6003   21.4015 C   0  0  0  0  0  0
  -26.1242  -29.1811   20.7520 C   0  0  0  0  0  0
  -27.2542  -28.2380   20.7763 C   0  0  0  0  0  0
  -26.0315  -26.6542   19.4777 C   0  0  0  0  0  0
  -24.9269  -27.5511   19.4518 C   0  0  0  0  0  0
  -23.7329  -29.7274   20.1399 C   0  0  0  0  0  0
  -25.4144  -36.2939   24.0292 C   0  0  1  0  0  0
  -20.5976  -28.3798   23.1184 C   0  0  2  0  0  0
  -20.6818  -26.9450   22.5423 C   0  0  0  0  0  0
  -19.5798  -26.6410   21.5220 C   0  0  0  0  0  0
  -18.2002  -26.7980   22.1669 C   0  0  0  0  0  0
  -19.1619  -28.8958   23.2834 C   0  0  0  0  0  0
  -18.9513  -30.1551   23.8870 C   0  0  0  0  0  0
  -17.6498  -30.6657   24.0539 C   0  0  0  0  0  0
  -25.9112  -34.9325   23.4977 C   0  0  0  0  0  0
  -16.5401  -29.9113   23.6374 C   0  0  0  0  0  0
  -16.7360  -28.6534   23.0390 C   0  0  0  0  0  0
  -26.4560  -31.6533   25.0679 C   0  0  0  0  0  0
  -25.3669  -31.3788   26.1319 C   0  0  0  0  0  0
  -27.0458  -30.2886   24.6470 C   0  0  0  0  0  0
  -27.6069  -32.4332   25.7488 C   0  0  0  0  0  0
  -27.5576  -37.1751   24.8466 C   0  0  0  0  0  0
  -21.4402  -29.3058   22.3527 N   0  0  0  0  0  0
  -26.4276  -37.3686   23.9410 N   0  0  0  0  0  0
  -24.7585  -30.9748   22.0778 N   0  0  0  0  0  0
  -23.4234  -28.7989   23.3067 O   0  0  0  0  0  0
  -28.2289  -25.7396   20.3351 O   0  0  0  0  0  0
  -26.5750  -34.8854   22.4596 O   0  0  0  0  0  0
  -23.5726  -32.1138   23.6700 O   0  0  0  0  0  0
  -27.3365  -22.2492   21.2942 C   0  0  0  0  0  0
  -27.0489  -20.9491   21.7976 C   0  0  0  0  0  0
  -27.8316  -19.7761   21.4800 C   0  0  0  0  0  0
  -28.3779  -22.5212   20.4050 C   0  0  0  0  0  0
  -28.9137  -19.8555   20.5500 C   0  0  0  0  0  0
  -25.8036  -20.8859   22.6762 C   0  0  0  0  0  0
  -29.8251  -18.3582   20.1717 C   0  0  0  0  0  0
  -28.3502  -24.1730   19.7354 C   0  0  0  0  0  0
  -27.5350  -18.4102   22.1282 C   0  0  0  0  0  0
  -29.1132  -21.2614   20.0518 N   0  0  0  0  0  0
  -29.6200  -16.6764   20.4085 N   0  0  0  0  0  0
  -28.6420  -17.9589   22.7150 F   0  0  0  0  0  0
  -26.6023  -18.3955   23.0763 F   0  0  0  0  0  0
  -27.1451  -17.5500   21.1877 F   0  0  0  0  0  0
  -31.4494  -13.1188   19.1911 H   0  0  0  0  0  0
  -30.5377  -12.0005   20.1489 H   0  0  0  0  0  0
  -29.9364  -11.7690   17.7190 H   0  0  0  0  0  0
  -29.5345  -13.4679   17.6368 H   0  0  0  0  0  0
  -28.1013  -11.2781   19.1729 H   0  0  0  0  0  0
  -27.4222  -12.2485   17.8977 H   0  0  0  0  0  0
  -27.5112  -14.2451   19.2987 H   0  0  0  0  0  0
  -28.8409  -12.5875   21.5004 H   0  0  0  0  0  0
  -28.2683  -14.2226   21.6861 H   0  0  0  0  0  0
  -25.2756   -9.5662   22.4782 H   0  0  0  0  0  0
  -23.9986   -7.4642   22.7466 H   0  0  0  0  0  0
  -21.0857   -8.8772   19.8955 H   0  0  0  0  0  0
  -22.3712  -10.9668   19.6178 H   0  0  0  0  0  0
  -21.2023   -7.6157   23.9695 H   0  0  0  0  0  0
  -21.1468   -6.0536   25.9063 H   0  0  0  0  0  0
  -22.0601   -2.7616   23.2845 H   0  0  0  0  0  0
  -22.4058  -11.9842   22.4807 H   0  0  0  0  0  0
  -21.1044  -13.1203   22.2573 H   0  0  0  0  0  0
  -24.6442  -15.8424   20.6208 H   0  0  0  0  0  0
  -26.2624  -15.6588   20.1890 H   0  0  0  0  0  0
  -26.7367  -32.5077   23.0822 H   0  0  0  0  0  0
  -25.0013  -33.9450   25.0115 H   0  0  0  0  0  0
  -22.8003  -31.2541   21.3296 H   0  0  0  0  0  0
  -23.3770  -35.9520   23.3271 H   0  0  0  0  0  0
  -24.3574  -36.8882   22.2069 H   0  0  0  0  0  0
  -23.7263  -37.6366   23.6732 H   0  0  0  0  0  0
  -26.2408  -31.3358   20.6171 H   0  0  0  0  0  0
  -26.9113  -30.6625   22.0616 H   0  0  0  0  0  0
  -28.1321  -28.5356   21.3324 H   0  0  0  0  0  0
  -25.8949  -25.7014   18.9869 H   0  0  0  0  0  0
  -24.0287  -27.2417   18.9344 H   0  0  0  0  0  0
  -23.9033  -30.4852   19.3753 H   0  0  0  0  0  0
  -22.8431  -29.1841   19.8194 H   0  0  0  0  0  0
  -25.1354  -36.1712   25.0789 H   0  0  0  0  0  0
  -21.0053  -28.3451   24.1295 H   0  0  0  0  0  0
  -20.5596  -26.2416   23.3663 H   0  0  0  0  0  0
  -21.6697  -26.7353   22.1293 H   0  0  0  0  0  0
  -19.6951  -25.6298   21.1289 H   0  0  0  0  0  0
  -19.6743  -27.3169   20.6712 H   0  0  0  0  0  0
  -17.4241  -26.6694   21.4118 H   0  0  0  0  0  0
  -18.0462  -26.0144   22.9099 H   0  0  0  0  0  0
  -19.7954  -30.7408   24.2277 H   0  0  0  0  0  0
  -17.5016  -31.6365   24.5098 H   0  0  0  0  0  0
  -15.5393  -30.2991   23.7732 H   0  0  0  0  0  0
  -15.8760  -28.0829   22.7143 H   0  0  0  0  0  0
  -24.5908  -30.7069   25.7608 H   0  0  0  0  0  0
  -24.8793  -32.2996   26.4543 H   0  0  0  0  0  0
  -25.7888  -30.9087   27.0220 H   0  0  0  0  0  0
  -26.3122  -29.6536   24.1478 H   0  0  0  0  0  0
  -27.3952  -29.7282   25.5156 H   0  0  0  0  0  0
  -27.9094  -30.4036   23.9917 H   0  0  0  0  0  0
  -27.2662  -33.3698   26.1924 H   0  0  0  0  0  0
  -28.3977  -32.6778   25.0374 H   0  0  0  0  0  0
  -28.0635  -31.8531   26.5526 H   0  0  0  0  0  0
  -28.2563  -38.0069   24.7510 H   0  0  0  0  0  0
  -28.1092  -36.2594   24.6291 H   0  0  0  0  0  0
  -27.2289  -37.1401   25.8861 H   0  0  0  0  0  0
  -20.9726  -29.8755   21.6618 H   0  0  0  0  0  0
  -26.0112  -38.2739   24.1394 H   0  0  0  0  0  0
  -26.6980  -23.0838   21.5565 H   0  0  0  0  0  0
  -26.0588  -20.6414   23.7078 H   0  0  0  0  0  0
  -25.0998  -20.1467   22.2901 H   0  0  0  0  0  0
  -25.2699  -21.8408   22.6962 H   0  0  0  0  0  0
  -30.8253  -18.5425   20.5700 H   0  0  0  0  0  0
  -29.9697  -18.4491   19.0960 H   0  0  0  0  0  0
  -27.5727  -24.1281   18.9755 H   0  0  0  0  0  0
  -29.2759  -24.2079   19.1592 H   0  0  0  0  0  0
  -28.6446  -16.4912   20.5934 H   0  0  0  0  0  0
  1 25  1  0  0  0
  1 30  2  0  0  0
  1 81  1  0  0  0
  2  3  1  0  0  0
  2 25  1  0  0  0
  2 85  1  0  0  0
  2 86  1  0  0  0
  3  4  1  0  0  0
  3 87  1  0  0  0
  3 88  1  0  0  0
  4  5  1  0  0  0
  4 89  1  0  0  0
  4 90  1  0  0  0
  5  6  1  0  0  0
  5 26  1  0  0  0
  5 91  1  0  0  0
  6 25  1  0  0  0
  6 92  1  0  0  0
  6 93  1  0  0  0
  7  8  2  0  0  0
  7 26  1  0  0  0
  7 29  1  0  0  0
  8  9  1  0  0  0
  8 22  1  0  0  0
  9 10  1  0  0  0
  9 27  2  0  0  0
 10 11  2  0  0  0
 10 15  1  0  0  0
 11 12  1  0  0  0
 11 94  1  0  0  0
 12 13  2  0  0  0
 12 95  1  0  0  0
 13 14  1  0  0  0
 13 31  1  0  0  0
 14 15  2  0  0  0
 14 96  1  0  0  0
 15 97  1  0  0  0
 16 17  2  0  0  0
 16 21  1  0  0  0
 16 31  1  0  0  0
 17 18  1  0  0  0
 17 98  1  0  0  0
 18 19  2  0  0  0
 18 99  1  0  0  0
 19 20  1  0  0  0
 19 24  1  0  0  0
 20 21  2  0  0  0
 20100  1  0  0  0
 21 23  1  0  0  0
 22 28  1  0  0  0
 22 32  2  0  0  0
 26 27  1  0  0  0
 28101  1  0  0  0
 28102  1  0  0  0
 29103  1  0  0  0
 29104  1  0  0  0
 33 34  1  0  0  0
 33 66  1  0  0  0
 33 70  2  0  0  0
 34 36  1  0  0  0
 34 59  1  0  0  0
 34105  1  0  0  0
 35 44  2  0  0  0
 35 45  1  0  0  0
 35 68  1  0  0  0
 36 56  1  0  0  0
 36106  1  0  0  0
 37 39  1  0  0  0
 37 47  1  0  0  0
 37 66  1  0  0  0
 37107  1  0  0  0
 38 43  2  0  0  0
 38 46  1  0  0  0
 38 47  1  0  0  0
 39 64  1  0  0  0
 39 67  2  0  0  0
 40 52  1  0  0  0
 40 53  2  0  0  0
 40 58  1  0  0  0
 41108  1  0  0  0
 41109  1  0  0  0
 41110  1  0  0  0
 41 48  1  0  0  0
 42 43  1  0  0  0
 42 66  1  0  0  0
 42111  1  0  0  0
 42112  1  0  0  0
 43 44  1  0  0  0
 44113  1  0  0  0
 45 46  2  0  0  0
 45114  1  0  0  0
 46115  1  0  0  0
 47116  1  0  0  0
 47117  1  0  0  0
 48 56  1  0  0  0
 48 65  1  0  0  0
 48118  1  0  0  0
 49 50  1  0  0  0
 49 53  1  0  0  0
 49 64  1  0  0  0
 49119  1  0  0  0
 50 51  1  0  0  0
 50120  1  0  0  0
 50121  1  0  0  0
 51 52  1  0  0  0
 51122  1  0  0  0
 51123  1  0  0  0
 52124  1  0  0  0
 52125  1  0  0  0
 53 54  1  0  0  0
 54 55  2  0  0  0
 54126  1  0  0  0
 55 57  1  0  0  0
 55127  1  0  0  0
 56 69  2  0  0  0
 57 58  2  0  0  0
 57128  1  0  0  0
 58129  1  0  0  0
 59 60  1  0  0  0
 59 61  1  0  0  0
 59 62  1  0  0  0
 60130  1  0  0  0
 60131  1  0  0  0
 60132  1  0  0  0
 61133  1  0  0  0
 61134  1  0  0  0
 61135  1  0  0  0
 62136  1  0  0  0
 62137  1  0  0  0
 62138  1  0  0  0
 63 65  1  0  0  0
 63139  1  0  0  0
 63140  1  0  0  0
 63141  1  0  0  0
 64142  1  0  0  0
 65143  1  0  0  0
 68 78  1  0  0  0
 71 72  2  0  0  0
 71 74  1  0  0  0
 71144  1  0  0  0
 72 73  1  0  0  0
 72 76  1  0  0  0
 73 75  2  0  0  0
 73 79  1  0  0  0
 74 78  1  0  0  0
 74 80  2  0  0  0
 75 77  1  0  0  0
 75 80  1  0  0  0
 76145  1  0  0  0
 76146  1  0  0  0
 76147  1  0  0  0
 77 81  1  0  0  0
 77148  1  0  0  0
 77149  1  0  0  0
 78150  1  0  0  0
 78151  1  0  0  0
 79 82  1  0  0  0
 79 83  1  0  0  0
 79 84  1  0  0  0
 81152  1  0  0  0
M  ISO  4   1 100  68 101  78 101  81 100
M  END
> <chiral flag>
0

> <version>
0

> <s_m_source_file>
/data/baiqing/PycharmProjects/Reinvent-master-3.2/result/LINK_invent/BTK/process_docking_weight1_custom_sum_contain_oxygen_bond_distance_aromatic_linkinvent_7_9_3/rearranged_h_0047.sdf

> <i_m_source_file_index>
58

> <r_mmod_Potential_Energy-OPLS-2005>
1391.56359863281

> <r_mmod_Stretch_Energy-OPLS-2005>
710.436279296875

> <r_mmod_Bend_Energy-OPLS-2005>
503.700408935547

> <r_mmod_Torsional_Energy-OPLS-2005>
210.601974487305

> <r_mmod_Improper_Torsional_Energy-OPLS-2005>
6.00328350067139

> <r_mmod_Van_der_Waal_Energy-OPLS-2005>
139.751281738281

> <r_mmod_Electrostatic_Energy-OPLS-2005>
-536.062927246094

> <r_mmod_Solvation_Energy-OPLS-2005>
-222.693664550781

> <b_mmod_Minimization_Converged-OPLS-2005>
0

> <r_mmod_RMS_Derivative-OPLS-2005>
5.35410022735596

$$$$
58
                    3D
 Structure written by MMmdl.
171179  0  0  1  0            999 V2000
  -30.7032  -14.5235   20.5614 C   0  0  0  0  0  0
  -30.4307  -12.3331   19.4326 C   0  0  0  0  0  0
  -29.4947  -12.4724   18.2137 C   0  0  0  0  0  0
  -28.0237  -12.3163   18.6418 C   0  0  0  0  0  0
  -27.6579  -13.2013   19.8622 C   0  0  2  0  0  0
  -28.7021  -13.0345   20.9887 C   0  0  0  0  0  0
  -25.2575  -13.8137   20.5663 C   0  0  0  0  0  0
  -24.1836  -13.0435   20.9170 C   0  0  0  0  0  0
  -24.6379  -11.6900   20.8749 C   0  0  0  0  0  0
  -23.9048  -10.4280   21.0411 C   0  0  0  0  0  0
  -24.3597   -9.4194   21.9190 C   0  0  0  0  0  0
  -23.6279   -8.2242   22.0759 C   0  0  0  0  0  0
  -22.4258   -8.0269   21.3548 C   0  0  0  0  0  0
  -21.9909   -9.0240   20.4642 C   0  0  0  0  0  0
  -22.7239  -10.2115   20.3050 C   0  0  0  0  0  0
  -21.6851   -6.0725   22.5283 C   0  0  0  0  0  0
  -21.4003   -6.5623   23.8209 C   0  0  0  0  0  0
  -21.3654   -5.6782   24.9180 C   0  0  0  0  0  0
  -21.6044   -4.3057   24.7240 C   0  0  0  0  0  0
  -21.8826   -3.8134   23.4363 C   0  0  0  0  0  0
  -21.9193   -4.6948   22.3407 C   0  0  0  0  0  0
  -22.7861  -13.5231   21.1864 C   0  0  0  0  0  0
  -22.1663   -4.2130   21.0999 F   0  0  0  0  0  0
  -21.5633   -3.4539   25.7755 F   0  0  0  0  0  0
  -30.0293  -13.3431   20.4267 N   0  0  0  0  0  0
  -26.3003  -12.9303   20.3313 N   0  0  0  0  0  0
  -25.9295  -11.6469   20.5771 N   0  0  0  0  0  0
  -22.0513  -12.8207   22.0403 N   0  0  0  0  0  0
  -25.4349  -15.1864   20.4047 N   0  0  0  0  0  0
  -31.8468  -14.6863   20.1276 O   0  0  0  0  0  0
  -21.6632   -6.8865   21.4240 O   0  0  0  0  0  0
  -22.3554  -14.5570   20.6750 O   0  0  0  0  0  0
  -24.6240  -31.8638   23.2115 C   0  0  0  0  0  0
  -25.9107  -32.4795   23.8432 C   0  0  1  0  0  0
  -27.2388  -27.3815   20.1080 C   0  0  0  0  0  0
  -25.5945  -33.8582   24.2355 N   0  0  0  0  0  0
  -23.4118  -30.4864   21.5555 C   0  0  2  0  0  0
  -24.8649  -28.9456   20.1197 C   0  0  0  0  0  0
  -22.7444  -29.4662   22.5038 C   0  0  0  0  0  0
  -18.0278  -28.1411   22.8466 C   0  0  0  0  0  0
  -24.1466  -36.7273   23.2639 C   0  0  0  0  0  0
  -25.9483  -30.8078   21.3782 C   0  0  0  0  0  0
  -26.0280  -29.4339   20.7354 C   0  0  0  0  0  0
  -27.2164  -28.6543   20.7431 C   0  0  0  0  0  0
  -26.0689  -26.9493   19.4502 C   0  0  0  0  0  0
  -24.8816  -27.7016   19.4732 C   0  0  0  0  0  0
  -23.6216  -29.8088   20.1737 C   0  0  0  0  0  0
  -25.4078  -36.3052   24.0348 C   0  0  1  0  0  0
  -20.5856  -28.3698   23.1300 C   0  0  2  0  0  0
  -20.6791  -26.9440   22.5393 C   0  0  0  0  0  0
  -19.5780  -26.6386   21.5204 C   0  0  0  0  0  0
  -18.1926  -26.7970   22.1580 C   0  0  0  0  0  0
  -19.1524  -28.8879   23.2869 C   0  0  0  0  0  0
  -18.9467  -30.1482   23.8877 C   0  0  0  0  0  0
  -17.6467  -30.6623   24.0559 C   0  0  0  0  0  0
  -25.9014  -34.9439   23.5139 C   0  0  0  0  0  0
  -16.5348  -29.9099   23.6379 C   0  0  0  0  0  0
  -16.7267  -28.6520   23.0380 C   0  0  0  0  0  0
  -26.4537  -31.6579   25.0768 C   0  0  0  0  0  0
  -25.3821  -31.3650   26.1532 C   0  0  0  0  0  0
  -27.0410  -30.3031   24.6152 C   0  0  0  0  0  0
  -27.6099  -32.4323   25.7537 C   0  0  0  0  0  0
  -27.5553  -37.1770   24.8466 C   0  0  0  0  0  0
  -21.4164  -29.3056   22.3738 N   0  0  0  0  0  0
  -26.4251  -37.3749   23.9455 N   0  0  0  0  0  0
  -24.6799  -31.0665   22.1059 N   0  0  0  0  0  0
  -23.4165  -28.8191   23.3119 O   0  0  0  0  0  0
  -28.3470  -26.5455   20.0936 O   0  0  0  0  0  0
  -26.5522  -34.8897   22.4660 O   0  0  0  0  0  0
  -23.5432  -32.1411   23.7491 O   0  0  0  0  0  0
  -29.8755  -23.3528   20.9176 C   0  0  0  0  0  0
  -29.5970  -22.0468   20.3823 C   0  0  0  0  0  0
  -28.7475  -24.1278   20.7046 C   0  0  0  0  0  0
  -21.7950  -22.9164   19.4039 C   0  0  0  0  0  0
  -23.7287  -21.0648   18.2758 C   0  0  0  0  0  0
  -30.4455  -20.7677   20.2408 C   0  0  0  0  0  0
  -28.3832  -25.5577   21.1639 C   0  0  0  0  0  0
  -23.2825  -23.0818   19.7675 C   0  0  0  0  0  0
  -30.1035  -19.5361   21.1594 C   0  0  0  0  0  0
  -30.1073  -18.0990   20.5040 C   0  0  0  0  0  0
  -25.6832  -22.2376   19.3240 C   0  0  0  0  0  0
  -26.5050  -23.5238   19.5740 C   0  0  0  0  0  0
  -30.4738  -16.9133   21.4699 C   0  0  0  0  0  0
  -24.2583  -22.4258   18.7609 C   0  0  1  0  0  0
  -28.3990  -22.0437   19.8415 N   0  0  0  0  0  0
  -27.8572  -23.2693   20.0642 N   0  0  0  0  0  0
  -30.0020  -15.5545   21.0889 N   0  0  0  0  0  0
  -31.4723  -12.4422   19.1235 H   0  0  0  0  0  0
  -30.3494  -11.3329   19.8631 H   0  0  0  0  0  0
  -29.7432  -11.7151   17.4679 H   0  0  0  0  0  0
  -29.6435  -13.4390   17.7334 H   0  0  0  0  0  0
  -27.8766  -11.2670   18.9012 H   0  0  0  0  0  0
  -27.3546  -12.5137   17.8041 H   0  0  0  0  0  0
  -27.6902  -14.2362   19.5212 H   0  0  0  0  0  0
  -28.6884  -12.0089   21.3624 H   0  0  0  0  0  0
  -28.4512  -13.6618   21.8453 H   0  0  0  0  0  0
  -25.2749   -9.5659   22.4768 H   0  0  0  0  0  0
  -23.9972   -7.4626   22.7483 H   0  0  0  0  0  0
  -21.0855   -8.8763   19.8942 H   0  0  0  0  0  0
  -22.3724  -10.9647   19.6141 H   0  0  0  0  0  0
  -21.1984   -7.6139   23.9710 H   0  0  0  0  0  0
  -21.1472   -6.0523   25.9083 H   0  0  0  0  0  0
  -22.0611   -2.7599   23.2884 H   0  0  0  0  0  0
  -22.4114  -11.9803   22.4692 H   0  0  0  0  0  0
  -21.1162  -13.1247   22.2689 H   0  0  0  0  0  0
  -24.6742  -15.8489   20.5123 H   0  0  0  0  0  0
  -26.2913  -15.6174   20.0810 H   0  0  0  0  0  0
  -26.7180  -32.5510   23.1215 H   0  0  0  0  0  0
  -25.0357  -33.9761   25.0676 H   0  0  0  0  0  0
  -22.7069  -31.3074   21.4096 H   0  0  0  0  0  0
  -23.3726  -35.9597   23.3258 H   0  0  0  0  0  0
  -24.3600  -36.8927   22.2056 H   0  0  0  0  0  0
  -23.7207  -37.6462   23.6692 H   0  0  0  0  0  0
  -26.0588  -31.5528   20.5876 H   0  0  0  0  0  0
  -26.8401  -30.8781   21.9901 H   0  0  0  0  0  0
  -28.1072  -29.0154   21.2427 H   0  0  0  0  0  0
  -26.0624  -26.0279   18.8995 H   0  0  0  0  0  0
  -23.9956  -27.3302   18.9760 H   0  0  0  0  0  0
  -23.7172  -30.5736   19.4037 H   0  0  0  0  0  0
  -22.7475  -29.2162   19.8935 H   0  0  0  0  0  0
  -25.1223  -36.1904   25.0830 H   0  0  0  0  0  0
  -20.9928  -28.3282   24.1432 H   0  0  0  0  0  0
  -20.5788  -26.2288   23.3573 H   0  0  0  0  0  0
  -21.6674  -26.7559   22.1134 H   0  0  0  0  0  0
  -19.6963  -25.6285   21.1276 H   0  0  0  0  0  0
  -19.6780  -27.3164   20.6703 H   0  0  0  0  0  0
  -17.4232  -26.6750   21.3927 H   0  0  0  0  0  0
  -18.0297  -26.0115   22.8970 H   0  0  0  0  0  0
  -19.7953  -30.7285   24.2244 H   0  0  0  0  0  0
  -17.5049  -31.6315   24.5144 H   0  0  0  0  0  0
  -15.5356  -30.2983   23.7803 H   0  0  0  0  0  0
  -15.8648  -28.0837   22.7151 H   0  0  0  0  0  0
  -24.6082  -30.6862   25.7933 H   0  0  0  0  0  0
  -24.8905  -32.2756   26.4947 H   0  0  0  0  0  0
  -25.8232  -30.8935   27.0321 H   0  0  0  0  0  0
  -26.2981  -29.6737   24.1235 H   0  0  0  0  0  0
  -27.4234  -29.7310   25.4612 H   0  0  0  0  0  0
  -27.8773  -30.4370   23.9284 H   0  0  0  0  0  0
  -27.2748  -33.3687   26.2028 H   0  0  0  0  0  0
  -28.3970  -32.6777   25.0384 H   0  0  0  0  0  0
  -28.0703  -31.8495   26.5538 H   0  0  0  0  0  0
  -28.2491  -38.0124   24.7569 H   0  0  0  0  0  0
  -28.1114  -36.2667   24.6208 H   0  0  0  0  0  0
  -27.2305  -37.1296   25.8866 H   0  0  0  0  0  0
  -20.9393  -29.8766   21.6894 H   0  0  0  0  0  0
  -26.0104  -38.2789   24.1548 H   0  0  0  0  0  0
  -30.7852  -23.6753   21.4049 H   0  0  0  0  0  0
  -21.1656  -23.6120   19.9593 H   0  0  0  0  0  0
  -21.4472  -21.9055   19.6297 H   0  0  0  0  0  0
  -21.6223  -23.0962   18.3428 H   0  0  0  0  0  0
  -22.8641  -21.1920   17.6244 H   0  0  0  0  0  0
  -23.4290  -20.4371   19.1156 H   0  0  0  0  0  0
  -24.4759  -20.5188   17.6992 H   0  0  0  0  0  0
  -31.4910  -21.0219   20.4063 H   0  0  0  0  0  0
  -30.4052  -20.4458   19.1991 H   0  0  0  0  0  0
  -29.1184  -25.9000   21.8947 H   0  0  0  0  0  0
  -27.4333  -25.5349   21.7040 H   0  0  0  0  0  0
  -23.4405  -22.6783   20.7688 H   0  0  0  0  0  0
  -23.5083  -24.1470   19.8323 H   0  0  0  0  0  0
  -29.1270  -19.6919   21.6174 H   0  0  0  0  0  0
  -30.8066  -19.5537   21.9928 H   0  0  0  0  0  0
  -30.8067  -18.0779   19.6669 H   0  0  0  0  0  0
  -29.1235  -17.9242   20.0631 H   0  0  0  0  0  0
  -25.6441  -21.6373   20.2332 H   0  0  0  0  0  0
  -26.2396  -21.6477   18.5942 H   0  0  0  0  0  0
  -25.9875  -24.1770   20.2754 H   0  0  0  0  0  0
  -26.6184  -24.0541   18.6310 H   0  0  0  0  0  0
  -30.0443  -17.1143   22.4518 H   0  0  0  0  0  0
  -31.5535  -16.8964   21.6298 H   0  0  0  0  0  0
  -24.3338  -23.0781   17.8883 H   0  0  0  0  0  0
  -29.0587  -15.3247   21.3660 H   0  0  0  0  0  0
  1 25  1  0  0  0
  1 30  2  0  0  0
  1 87  1  0  0  0
  2  3  1  0  0  0
  2 25  1  0  0  0
  2 88  1  0  0  0
  2 89  1  0  0  0
  3  4  1  0  0  0
  3 90  1  0  0  0
  3 91  1  0  0  0
  4  5  1  0  0  0
  4 92  1  0  0  0
  4 93  1  0  0  0
  5  6  1  0  0  0
  5 26  1  0  0  0
  5 94  1  0  0  0
  6 25  1  0  0  0
  6 95  1  0  0  0
  6 96  1  0  0  0
  7  8  2  0  0  0
  7 26  1  0  0  0
  7 29  1  0  0  0
  8  9  1  0  0  0
  8 22  1  0  0  0
  9 10  1  0  0  0
  9 27  2  0  0  0
 10 11  2  0  0  0
 10 15  1  0  0  0
 11 12  1  0  0  0
 11 97  1  0  0  0
 12 13  2  0  0  0
 12 98  1  0  0  0
 13 14  1  0  0  0
 13 31  1  0  0  0
 14 15  2  0  0  0
 14 99  1  0  0  0
 15100  1  0  0  0
 16 17  2  0  0  0
 16 21  1  0  0  0
 16 31  1  0  0  0
 17 18  1  0  0  0
 17101  1  0  0  0
 18 19  2  0  0  0
 18102  1  0  0  0
 19 20  1  0  0  0
 19 24  1  0  0  0
 20 21  2  0  0  0
 20103  1  0  0  0
 21 23  1  0  0  0
 22 28  1  0  0  0
 22 32  2  0  0  0
 26 27  1  0  0  0
 28104  1  0  0  0
 28105  1  0  0  0
 29106  1  0  0  0
 29107  1  0  0  0
 33 34  1  0  0  0
 33 66  1  0  0  0
 33 70  2  0  0  0
 34 36  1  0  0  0
 34 59  1  0  0  0
 34108  1  0  0  0
 35 44  2  0  0  0
 35 45  1  0  0  0
 35 68  1  0  0  0
 36 56  1  0  0  0
 36109  1  0  0  0
 37 39  1  0  0  0
 37 47  1  0  0  0
 37 66  1  0  0  0
 37110  1  0  0  0
 38 43  2  0  0  0
 38 46  1  0  0  0
 38 47  1  0  0  0
 39 64  1  0  0  0
 39 67  2  0  0  0
 40 52  1  0  0  0
 40 53  2  0  0  0
 40 58  1  0  0  0
 41111  1  0  0  0
 41112  1  0  0  0
 41113  1  0  0  0
 41 48  1  0  0  0
 42 43  1  0  0  0
 42 66  1  0  0  0
 42114  1  0  0  0
 42115  1  0  0  0
 43 44  1  0  0  0
 44116  1  0  0  0
 45 46  2  0  0  0
 45117  1  0  0  0
 46118  1  0  0  0
 47119  1  0  0  0
 47120  1  0  0  0
 48 56  1  0  0  0
 48 65  1  0  0  0
 48121  1  0  0  0
 49 50  1  0  0  0
 49 53  1  0  0  0
 49 64  1  0  0  0
 49122  1  0  0  0
 50 51  1  0  0  0
 50123  1  0  0  0
 50124  1  0  0  0
 51 52  1  0  0  0
 51125  1  0  0  0
 51126  1  0  0  0
 52127  1  0  0  0
 52128  1  0  0  0
 53 54  1  0  0  0
 54 55  2  0  0  0
 54129  1  0  0  0
 55 57  1  0  0  0
 55130  1  0  0  0
 56 69  2  0  0  0
 57 58  2  0  0  0
 57131  1  0  0  0
 58132  1  0  0  0
 59 60  1  0  0  0
 59 61  1  0  0  0
 59 62  1  0  0  0
 60133  1  0  0  0
 60134  1  0  0  0
 60135  1  0  0  0
 61136  1  0  0  0
 61137  1  0  0  0
 61138  1  0  0  0
 62139  1  0  0  0
 62140  1  0  0  0
 62141  1  0  0  0
 63 65  1  0  0  0
 63142  1  0  0  0
 63143  1  0  0  0
 63144  1  0  0  0
 64145  1  0  0  0
 65146  1  0  0  0
 68 77  1  0  0  0
 71 72  1  0  0  0
 71 73  2  0  0  0
 71147  1  0  0  0
 72 76  1  0  0  0
 72 85  2  0  0  0
 73 77  1  0  0  0
 73 86  1  0  0  0
 74 78  1  0  0  0
 74148  1  0  0  0
 74149  1  0  0  0
 74150  1  0  0  0
 75151  1  0  0  0
 75152  1  0  0  0
 75153  1  0  0  0
 75 84  1  0  0  0
 76 79  1  0  0  0
 76154  1  0  0  0
 76155  1  0  0  0
 77156  1  0  0  0
 77157  1  0  0  0
 78 84  1  0  0  0
 78158  1  0  0  0
 78159  1  0  0  0
 79 80  1  0  0  0
 79160  1  0  0  0
 79161  1  0  0  0
 80 83  1  0  0  0
 80162  1  0  0  0
 80163  1  0  0  0
 81 82  1  0  0  0
 81 84  1  0  0  0
 81164  1  0  0  0
 81165  1  0  0  0
 82 86  1  0  0  0
 82166  1  0  0  0
 82167  1  0  0  0
 83 87  1  0  0  0
 83168  1  0  0  0
 83169  1  0  0  0
 84170  1  0  0  0
 85 86  1  0  0  0
 87171  1  0  0  0
M  ISO  4   1 100  68 101  77 101  87 100
M  END
> <chiral flag>
0

> <version>
0

> <s_m_source_file>
/data/baiqing/PycharmProjects/Reinvent-master-3.2/result/LINK_invent/BTK/process_docking_weight1_custom_sum_contain_oxygen_bond_distance_aromatic_linkinvent_7_9_3/rearranged_h_0047.sdf

> <i_m_source_file_index>
59

> <r_mmod_Potential_Energy-OPLS-2005>
-0.145488902926445

> <r_mmod_Stretch_Energy-OPLS-2005>
55.1084060668945

> <r_mmod_Bend_Energy-OPLS-2005>
123.559768676758

> <r_mmod_Torsional_Energy-OPLS-2005>
263.750061035156

> <r_mmod_Improper_Torsional_Energy-OPLS-2005>
3.38448119163513

> <r_mmod_Van_der_Waal_Energy-OPLS-2005>
121.945541381836

> <r_mmod_Electrostatic_Energy-OPLS-2005>
-384.876892089844

> <r_mmod_Solvation_Energy-OPLS-2005>
-208.024200439453

> <b_mmod_Minimization_Converged-OPLS-2005>
0

> <r_mmod_RMS_Derivative-OPLS-2005>
4.50811862945557

$$$$
59
                    3D
 Structure written by MMmdl.
166174  0  0  1  0            999 V2000
  -30.6297  -14.5563   20.5212 C   0  0  0  0  0  0
  -30.4350  -12.3470   19.4271 C   0  0  0  0  0  0
  -29.4997  -12.4996   18.2069 C   0  0  0  0  0  0
  -28.0198  -12.3514   18.6199 C   0  0  0  0  0  0
  -27.6548  -13.2042   19.8647 C   0  0  2  0  0  0
  -28.6987  -13.0089   20.9871 C   0  0  0  0  0  0
  -25.2573  -13.8142   20.5673 C   0  0  0  0  0  0
  -24.1825  -13.0423   20.9174 C   0  0  0  0  0  0
  -24.6374  -11.6892   20.8716 C   0  0  0  0  0  0
  -23.9041  -10.4285   21.0394 C   0  0  0  0  0  0
  -24.3600   -9.4203   21.9172 C   0  0  0  0  0  0
  -23.6283   -8.2234   22.0750 C   0  0  0  0  0  0
  -22.4264   -8.0268   21.3543 C   0  0  0  0  0  0
  -21.9892   -9.0233   20.4645 C   0  0  0  0  0  0
  -22.7212  -10.2118   20.3049 C   0  0  0  0  0  0
  -21.6850   -6.0724   22.5280 C   0  0  0  0  0  0
  -21.4009   -6.5628   23.8206 C   0  0  0  0  0  0
  -21.3656   -5.6786   24.9171 C   0  0  0  0  0  0
  -21.6047   -4.3052   24.7226 C   0  0  0  0  0  0
  -21.8820   -3.8138   23.4347 C   0  0  0  0  0  0
  -21.9193   -4.6955   22.3405 C   0  0  0  0  0  0
  -22.7854  -13.5227   21.1847 C   0  0  0  0  0  0
  -22.1661   -4.2137   21.0985 F   0  0  0  0  0  0
  -21.5632   -3.4541   25.7739 F   0  0  0  0  0  0
  -30.0183  -13.3409   20.4276 N   0  0  0  0  0  0
  -26.2985  -12.9300   20.3315 N   0  0  0  0  0  0
  -25.9295  -11.6465   20.5734 N   0  0  0  0  0  0
  -22.0504  -12.8216   22.0408 N   0  0  0  0  0  0
  -25.4303  -15.1863   20.4091 N   0  0  0  0  0  0
  -31.7862  -14.7508   20.1355 O   0  0  0  0  0  0
  -21.6637   -6.8859   21.4238 O   0  0  0  0  0  0
  -22.3541  -14.5535   20.6703 O   0  0  0  0  0  0
  -24.6159  -31.8623   23.2008 C   0  0  0  0  0  0
  -25.9030  -32.4775   23.8319 C   0  0  1  0  0  0
  -27.2372  -27.3912   20.0971 C   0  0  0  0  0  0
  -25.5841  -33.8571   24.2225 N   0  0  0  0  0  0
  -23.4070  -30.4835   21.5396 C   0  0  2  0  0  0
  -24.8535  -28.9380   20.1120 C   0  0  0  0  0  0
  -22.7416  -29.4626   22.4920 C   0  0  0  0  0  0
  -18.0276  -28.1408   22.8476 C   0  0  0  0  0  0
  -24.1485  -36.7341   23.2630 C   0  0  0  0  0  0
  -25.9396  -30.8116   21.3630 C   0  0  0  0  0  0
  -26.0135  -29.4428   20.7116 C   0  0  0  0  0  0
  -27.2031  -28.6748   20.7003 C   0  0  0  0  0  0
  -26.0526  -26.9023   19.5010 C   0  0  0  0  0  0
  -24.8702  -27.6680   19.5088 C   0  0  0  0  0  0
  -23.6178  -29.8088   20.1559 C   0  0  0  0  0  0
  -25.4101  -36.3077   24.0306 C   0  0  1  0  0  0
  -20.5865  -28.3693   23.1324 C   0  0  2  0  0  0
  -20.6769  -26.9422   22.5442 C   0  0  0  0  0  0
  -19.5756  -26.6401   21.5227 C   0  0  0  0  0  0
  -18.1918  -26.7942   22.1615 C   0  0  0  0  0  0
  -19.1524  -28.8859   23.2894 C   0  0  0  0  0  0
  -18.9465  -30.1459   23.8911 C   0  0  0  0  0  0
  -17.6471  -30.6601   24.0581 C   0  0  0  0  0  0
  -25.9040  -34.9451   23.5084 C   0  0  0  0  0  0
  -16.5359  -29.9118   23.6336 C   0  0  0  0  0  0
  -16.7267  -28.6547   23.0324 C   0  0  0  0  0  0
  -26.4430  -31.6578   25.0693 C   0  0  0  0  0  0
  -25.3671  -31.3783   26.1450 C   0  0  0  0  0  0
  -27.0210  -30.2961   24.6150 C   0  0  0  0  0  0
  -27.5992  -32.4307   25.7454 C   0  0  0  0  0  0
  -27.5584  -37.1788   24.8428 C   0  0  0  0  0  0
  -21.4133  -29.3043   22.3700 N   0  0  0  0  0  0
  -26.4274  -37.3781   23.9411 N   0  0  0  0  0  0
  -24.6718  -31.0691   22.0915 N   0  0  0  0  0  0
  -23.4168  -28.8182   23.2995 O   0  0  0  0  0  0
  -28.4275  -26.6777   20.1242 O   0  0  0  0  0  0
  -26.5658  -34.8922   22.4681 O   0  0  0  0  0  0
  -23.5346  -32.1391   23.7388 O   0  0  0  0  0  0
  -28.5629  -20.4379   19.3235 C   0  0  0  0  0  0
  -28.6669  -21.8316   19.3102 C   0  0  0  0  0  0
  -27.8433  -21.2028   17.3378 C   0  0  0  0  0  0
  -26.0326  -22.1140   15.8280 C   0  0  0  0  0  0
  -27.3407  -18.8265   17.7259 C   0  0  0  0  0  0
  -28.9925  -19.4241   20.4008 C   0  0  0  0  0  0
  -29.1252  -22.8656   20.3189 C   0  0  0  0  0  0
  -27.3518  -21.3366   15.9252 C   0  0  0  0  0  0
  -29.2087  -17.9127   19.9978 C   0  0  0  0  0  0
  -28.2361  -24.1580   20.4531 C   0  0  0  0  0  0
  -30.0747  -17.0376   20.9675 C   0  0  0  0  0  0
  -28.5714  -25.3679   19.5223 C   0  0  0  0  0  0
  -27.9105  -20.1201   18.1352 N   0  0  0  0  0  0
  -28.2876  -22.2275   18.0566 N   0  3  0  0  0  0
  -29.8131  -15.5760   20.8858 N   0  0  0  0  0  0
  -31.4764  -12.4757   19.1258 H   0  0  0  0  0  0
  -30.3654  -11.3416   19.8442 H   0  0  0  0  0  0
  -29.7501  -11.7562   17.4487 H   0  0  0  0  0  0
  -29.6549  -13.4744   17.7413 H   0  0  0  0  0  0
  -27.8408  -11.2970   18.8289 H   0  0  0  0  0  0
  -27.3686  -12.6097   17.7833 H   0  0  0  0  0  0
  -27.6863  -14.2466   19.5478 H   0  0  0  0  0  0
  -28.6956  -11.9736   21.3328 H   0  0  0  0  0  0
  -28.4560  -13.6119   21.8635 H   0  0  0  0  0  0
  -25.2747   -9.5685   22.4741 H   0  0  0  0  0  0
  -23.9995   -7.4629   22.7467 H   0  0  0  0  0  0
  -21.0823   -8.8739   19.8952 H   0  0  0  0  0  0
  -22.3660  -10.9649   19.6156 H   0  0  0  0  0  0
  -21.1996   -7.6134   23.9703 H   0  0  0  0  0  0
  -21.1479   -6.0520   25.9070 H   0  0  0  0  0  0
  -22.0603   -2.7600   23.2855 H   0  0  0  0  0  0
  -22.4125  -11.9878   22.4795 H   0  0  0  0  0  0
  -21.1115  -13.1224   22.2611 H   0  0  0  0  0  0
  -24.6627  -15.8401   20.5159 H   0  0  0  0  0  0
  -26.2805  -15.6245   20.0817 H   0  0  0  0  0  0
  -26.7103  -32.5456   23.1076 H   0  0  0  0  0  0
  -24.9818  -33.9710   25.0240 H   0  0  0  0  0  0
  -22.6999  -31.3020   21.3915 H   0  0  0  0  0  0
  -23.3721  -35.9692   23.3241 H   0  0  0  0  0  0
  -24.3590  -36.9052   22.2061 H   0  0  0  0  0  0
  -23.7275  -37.6538   23.6711 H   0  0  0  0  0  0
  -26.0651  -31.5741   20.5931 H   0  0  0  0  0  0
  -26.8228  -30.8608   21.9882 H   0  0  0  0  0  0
  -28.1004  -29.0601   21.1651 H   0  0  0  0  0  0
  -26.0189  -25.9262   19.0397 H   0  0  0  0  0  0
  -23.9746  -27.2715   19.0515 H   0  0  0  0  0  0
  -23.7286  -30.5806   19.3940 H   0  0  0  0  0  0
  -22.7404  -29.2324   19.8580 H   0  0  0  0  0  0
  -25.1266  -36.1904   25.0795 H   0  0  0  0  0  0
  -20.9972  -28.3290   24.1439 H   0  0  0  0  0  0
  -20.5701  -26.2291   23.3635 H   0  0  0  0  0  0
  -21.6637  -26.7468   22.1218 H   0  0  0  0  0  0
  -19.6943  -25.6319   21.1246 H   0  0  0  0  0  0
  -19.6718  -27.3225   20.6771 H   0  0  0  0  0  0
  -17.4193  -26.6693   21.4012 H   0  0  0  0  0  0
  -18.0317  -26.0084   22.9021 H   0  0  0  0  0  0
  -19.7939  -30.7268   24.2275 H   0  0  0  0  0  0
  -17.5029  -31.6268   24.5201 H   0  0  0  0  0  0
  -15.5366  -30.3036   23.7656 H   0  0  0  0  0  0
  -15.8656  -28.0903   22.7005 H   0  0  0  0  0  0
  -24.5850  -30.7078   25.7869 H   0  0  0  0  0  0
  -24.8833  -32.2978   26.4761 H   0  0  0  0  0  0
  -25.8007  -30.9099   27.0291 H   0  0  0  0  0  0
  -26.2764  -29.6800   24.1098 H   0  0  0  0  0  0
  -27.3781  -29.7148   25.4661 H   0  0  0  0  0  0
  -27.8698  -30.4175   23.9412 H   0  0  0  0  0  0
  -27.2564  -33.3592   26.2030 H   0  0  0  0  0  0
  -28.3799  -32.6906   25.0291 H   0  0  0  0  0  0
  -28.0637  -31.8422   26.5382 H   0  0  0  0  0  0
  -28.2536  -38.0143   24.7525 H   0  0  0  0  0  0
  -28.1142  -36.2682   24.6143 H   0  0  0  0  0  0
  -27.2329  -37.1319   25.8834 H   0  0  0  0  0  0
  -20.9282  -29.8778   21.6935 H   0  0  0  0  0  0
  -26.0155  -38.2847   24.1454 H   0  0  0  0  0  0
  -25.6787  -22.1535   14.7976 H   0  0  0  0  0  0
  -26.1526  -23.1417   16.1712 H   0  0  0  0  0  0
  -25.2533  -21.6486   16.4309 H   0  0  0  0  0  0
  -26.8138  -18.3866   18.5709 H   0  0  0  0  0  0
  -28.1287  -18.1631   17.3721 H   0  0  0  0  0  0
  -26.5972  -18.9532   16.9412 H   0  0  0  0  0  0
  -28.2730  -19.4762   21.2179 H   0  0  0  0  0  0
  -29.9286  -19.7951   20.8199 H   0  0  0  0  0  0
  -30.1618  -23.1337   20.1109 H   0  0  0  0  0  0
  -29.1435  -22.3684   21.2893 H   0  0  0  0  0  0
  -27.2728  -20.3503   15.4726 H   0  0  0  0  0  0
  -28.1366  -21.8580   15.3764 H   0  0  0  0  0  0
  -29.6821  -17.8631   19.0174 H   0  0  0  0  0  0
  -28.2344  -17.4389   19.9005 H   0  0  0  0  0  0
  -28.3842  -24.5163   21.4724 H   0  0  0  0  0  0
  -27.1765  -23.9049   20.4015 H   0  0  0  0  0  0
  -29.8592  -17.3358   21.9941 H   0  0  0  0  0  0
  -31.1344  -17.2464   20.8110 H   0  0  0  0  0  0
  -28.0535  -25.2978   18.5664 H   0  0  0  0  0  0
  -29.6287  -25.3066   19.2640 H   0  0  0  0  0  0
  -28.3327  -23.1743   17.7026 H   0  0  0  0  0  0
  -28.8852  -15.2861   21.1591 H   0  0  0  0  0  0
  1 25  1  0  0  0
  1 30  2  0  0  0
  1 85  1  0  0  0
  2  3  1  0  0  0
  2 25  1  0  0  0
  2 86  1  0  0  0
  2 87  1  0  0  0
  3  4  1  0  0  0
  3 88  1  0  0  0
  3 89  1  0  0  0
  4  5  1  0  0  0
  4 90  1  0  0  0
  4 91  1  0  0  0
  5  6  1  0  0  0
  5 26  1  0  0  0
  5 92  1  0  0  0
  6 25  1  0  0  0
  6 93  1  0  0  0
  6 94  1  0  0  0
  7  8  2  0  0  0
  7 26  1  0  0  0
  7 29  1  0  0  0
  8  9  1  0  0  0
  8 22  1  0  0  0
  9 10  1  0  0  0
  9 27  2  0  0  0
 10 11  2  0  0  0
 10 15  1  0  0  0
 11 12  1  0  0  0
 11 95  1  0  0  0
 12 13  2  0  0  0
 12 96  1  0  0  0
 13 14  1  0  0  0
 13 31  1  0  0  0
 14 15  2  0  0  0
 14 97  1  0  0  0
 15 98  1  0  0  0
 16 17  2  0  0  0
 16 21  1  0  0  0
 16 31  1  0  0  0
 17 18  1  0  0  0
 17 99  1  0  0  0
 18 19  2  0  0  0
 18100  1  0  0  0
 19 20  1  0  0  0
 19 24  1  0  0  0
 20 21  2  0  0  0
 20101  1  0  0  0
 21 23  1  0  0  0
 22 28  1  0  0  0
 22 32  2  0  0  0
 26 27  1  0  0  0
 28102  1  0  0  0
 28103  1  0  0  0
 29104  1  0  0  0
 29105  1  0  0  0
 33 34  1  0  0  0
 33 66  1  0  0  0
 33 70  2  0  0  0
 34 36  1  0  0  0
 34 59  1  0  0  0
 34106  1  0  0  0
 35 44  2  0  0  0
 35 45  1  0  0  0
 35 68  1  0  0  0
 36 56  1  0  0  0
 36107  1  0  0  0
 37 39  1  0  0  0
 37 47  1  0  0  0
 37 66  1  0  0  0
 37108  1  0  0  0
 38 43  2  0  0  0
 38 46  1  0  0  0
 38 47  1  0  0  0
 39 64  1  0  0  0
 39 67  2  0  0  0
 40 52  1  0  0  0
 40 53  2  0  0  0
 40 58  1  0  0  0
 41109  1  0  0  0
 41110  1  0  0  0
 41111  1  0  0  0
 41 48  1  0  0  0
 42 43  1  0  0  0
 42 66  1  0  0  0
 42112  1  0  0  0
 42113  1  0  0  0
 43 44  1  0  0  0
 44114  1  0  0  0
 45 46  2  0  0  0
 45115  1  0  0  0
 46116  1  0  0  0
 47117  1  0  0  0
 47118  1  0  0  0
 48 56  1  0  0  0
 48 65  1  0  0  0
 48119  1  0  0  0
 49 50  1  0  0  0
 49 53  1  0  0  0
 49 64  1  0  0  0
 49120  1  0  0  0
 50 51  1  0  0  0
 50121  1  0  0  0
 50122  1  0  0  0
 51 52  1  0  0  0
 51123  1  0  0  0
 51124  1  0  0  0
 52125  1  0  0  0
 52126  1  0  0  0
 53 54  1  0  0  0
 54 55  2  0  0  0
 54127  1  0  0  0
 55 57  1  0  0  0
 55128  1  0  0  0
 56 69  2  0  0  0
 57 58  2  0  0  0
 57129  1  0  0  0
 58130  1  0  0  0
 59 60  1  0  0  0
 59 61  1  0  0  0
 59 62  1  0  0  0
 60131  1  0  0  0
 60132  1  0  0  0
 60133  1  0  0  0
 61134  1  0  0  0
 61135  1  0  0  0
 61136  1  0  0  0
 62137  1  0  0  0
 62138  1  0  0  0
 62139  1  0  0  0
 63 65  1  0  0  0
 63140  1  0  0  0
 63141  1  0  0  0
 63142  1  0  0  0
 64143  1  0  0  0
 65144  1  0  0  0
 68 82  1  0  0  0
 71 72  2  0  0  0
 71 76  1  0  0  0
 71 83  1  0  0  0
 72 77  1  0  0  0
 72 84  1  0  0  0
 73 78  1  0  0  0
 73 83  1  0  0  0
 73 84  2  0  0  0
 74 78  1  0  0  0
 74145  1  0  0  0
 74146  1  0  0  0
 74147  1  0  0  0
 75 83  1  0  0  0
 75148  1  0  0  0
 75149  1  0  0  0
 75150  1  0  0  0
 76 79  1  0  0  0
 76151  1  0  0  0
 76152  1  0  0  0
 77 80  1  0  0  0
 77153  1  0  0  0
 77154  1  0  0  0
 78155  1  0  0  0
 78156  1  0  0  0
 79 81  1  0  0  0
 79157  1  0  0  0
 79158  1  0  0  0
 80 82  1  0  0  0
 80159  1  0  0  0
 80160  1  0  0  0
 81 85  1  0  0  0
 81161  1  0  0  0
 81162  1  0  0  0
 82163  1  0  0  0
 82164  1  0  0  0
 84165  1  0  0  0
 85166  1  0  0  0
M  CHG  1  84   1
M  ISO  4   1 100  68 101  82 101  85 100
M  END
> <chiral flag>
0

> <version>
0

> <s_m_source_file>
/data/baiqing/PycharmProjects/Reinvent-master-3.2/result/LINK_invent/BTK/process_docking_weight1_custom_sum_contain_oxygen_bond_distance_aromatic_linkinvent_7_9_3/rearranged_h_0047.sdf

> <i_m_source_file_index>
60

> <r_mmod_Potential_Energy-OPLS-2005>
-74.3298797607422

> <r_mmod_Stretch_Energy-OPLS-2005>
52.5110702514648

> <r_mmod_Bend_Energy-OPLS-2005>
129.51091003418

> <r_mmod_Torsional_Energy-OPLS-2005>
228.316864013672

> <r_mmod_Improper_Torsional_Energy-OPLS-2005>
4.36296892166138

> <r_mmod_Van_der_Waal_Energy-OPLS-2005>
122.431434631348

> <r_mmod_Electrostatic_Energy-OPLS-2005>
-221.337112426758

> <r_mmod_Solvation_Energy-OPLS-2005>
-414.577606201172

> <b_mmod_Minimization_Converged-OPLS-2005>
0

> <r_mmod_RMS_Derivative-OPLS-2005>
2.36612486839294

$$$$
60
                    3D
 Structure written by MMmdl.
161169  0  0  1  0            999 V2000
  -30.6146  -14.6941   20.4879 C   0  0  0  0  0  0
  -30.4402  -12.4298   19.4522 C   0  0  0  0  0  0
  -29.5074  -12.5001   18.2225 C   0  0  0  0  0  0
  -28.0330  -12.3284   18.6407 C   0  0  0  0  0  0
  -27.6470  -13.2192   19.8517 C   0  0  2  0  0  0
  -28.6943  -13.1164   20.9816 C   0  0  0  0  0  0
  -25.2545  -13.8168   20.5678 C   0  0  0  0  0  0
  -24.1818  -13.0429   20.9196 C   0  0  0  0  0  0
  -24.6390  -11.6898   20.8740 C   0  0  0  0  0  0
  -23.9055  -10.4286   21.0408 C   0  0  0  0  0  0
  -24.3606   -9.4201   21.9185 C   0  0  0  0  0  0
  -23.6287   -8.2236   22.0752 C   0  0  0  0  0  0
  -22.4272   -8.0271   21.3538 C   0  0  0  0  0  0
  -21.9903   -9.0245   20.4643 C   0  0  0  0  0  0
  -22.7226  -10.2128   20.3056 C   0  0  0  0  0  0
  -21.6852   -6.0725   22.5278 C   0  0  0  0  0  0
  -21.4013   -6.5633   23.8211 C   0  0  0  0  0  0
  -21.3658   -5.6785   24.9174 C   0  0  0  0  0  0
  -21.6044   -4.3049   24.7227 C   0  0  0  0  0  0
  -21.8817   -3.8138   23.4349 C   0  0  0  0  0  0
  -21.9191   -4.6955   22.3405 C   0  0  0  0  0  0
  -22.7844  -13.5227   21.1852 C   0  0  0  0  0  0
  -22.1662   -4.2141   21.0983 F   0  0  0  0  0  0
  -21.5632   -3.4533   25.7742 F   0  0  0  0  0  0
  -29.9974  -13.4704   20.4023 N   0  0  0  0  0  0
  -26.2961  -12.9348   20.3276 N   0  0  0  0  0  0
  -25.9318  -11.6501   20.5751 N   0  0  0  0  0  0
  -22.0480  -12.8227   22.0412 N   0  0  0  0  0  0
  -25.4235  -15.1887   20.4080 N   0  0  0  0  0  0
  -31.8023  -14.8278   20.1817 O   0  0  0  0  0  0
  -21.6636   -6.8868   21.4240 O   0  0  0  0  0  0
  -22.3528  -14.5526   20.6691 O   0  0  0  0  0  0
  -24.6302  -31.8576   23.2007 C   0  0  0  0  0  0
  -25.9137  -32.4762   23.8345 C   0  0  1  0  0  0
  -27.2186  -27.2856   20.1160 C   0  0  0  0  0  0
  -25.5945  -33.8565   24.2267 N   0  0  0  0  0  0
  -23.4245  -30.4841   21.5438 C   0  0  2  0  0  0
  -24.8701  -28.9384   20.1111 C   0  0  0  0  0  0
  -22.7496  -29.4620   22.4907 C   0  0  0  0  0  0
  -18.0295  -28.1389   22.8476 C   0  0  0  0  0  0
  -24.1492  -36.7286   23.2639 C   0  0  0  0  0  0
  -25.9708  -30.7797   21.3766 C   0  0  0  0  0  0
  -26.0439  -29.4054   20.7162 C   0  0  0  0  0  0
  -27.2223  -28.5931   20.7053 C   0  0  0  0  0  0
  -26.0173  -26.8847   19.4853 C   0  0  0  0  0  0
  -24.8616  -27.6851   19.4855 C   0  0  0  0  0  0
  -23.6408  -29.8228   20.1588 C   0  0  0  0  0  0
  -25.4120  -36.3071   24.0325 C   0  0  1  0  0  0
  -20.5901  -28.3701   23.1269 C   0  0  2  0  0  0
  -20.6781  -26.9415   22.5408 C   0  0  0  0  0  0
  -19.5755  -26.6386   21.5209 C   0  0  0  0  0  0
  -18.1938  -26.7929   22.1620 C   0  0  0  0  0  0
  -19.1548  -28.8859   23.2868 C   0  0  0  0  0  0
  -18.9467  -30.1459   23.8887 C   0  0  0  0  0  0
  -17.6466  -30.6586   24.0560 C   0  0  0  0  0  0
  -25.9064  -34.9443   23.5094 C   0  0  0  0  0  0
  -16.5358  -29.9083   23.6327 C   0  0  0  0  0  0
  -16.7284  -28.6504   23.0343 C   0  0  0  0  0  0
  -26.4506  -31.6581   25.0728 C   0  0  0  0  0  0
  -25.3727  -31.3729   26.1447 C   0  0  0  0  0  0
  -27.0350  -30.2999   24.6201 C   0  0  0  0  0  0
  -27.6061  -32.4322   25.7500 C   0  0  0  0  0  0
  -27.5577  -37.1798   24.8465 C   0  0  0  0  0  0
  -21.4207  -29.3050   22.3655 N   0  0  0  0  0  0
  -26.4290  -37.3770   23.9407 N   0  0  0  0  0  0
  -24.6941  -31.0573   22.0967 N   0  0  0  0  0  0
  -23.4215  -28.8148   23.2978 O   0  0  0  0  0  0
  -28.3194  -26.4006   20.1571 O   0  0  0  0  0  0
  -26.5623  -34.8915   22.4659 O   0  0  0  0  0  0
  -23.5459  -32.1387   23.7322 O   0  0  0  0  0  0
  -29.4104  -21.1157   20.2077 C   0  0  0  0  0  0
  -27.8710  -22.1028   21.7732 C   0  0  0  0  0  0
  -28.8125  -22.3213   20.7476 C   0  0  0  0  0  0
  -29.0561  -19.8005   20.7018 C   0  0  0  0  0  0
  -27.5562  -20.7963   22.1956 C   0  0  0  0  0  0
  -27.1648  -20.0091   24.5740 C   0  0  0  0  0  0
  -25.3507  -19.7001   22.8064 C   0  0  0  0  0  0
  -29.1874  -23.8172   20.3583 C   0  0  0  0  0  0
  -29.4727  -18.3997   20.0835 C   0  0  0  0  0  0
  -30.1276  -17.2519   21.0046 C   0  0  0  0  0  0
  -28.0326  -24.9289   20.2105 C   0  0  0  0  0  0
  -26.5231  -20.5670   23.2946 C   0  0  0  0  0  0
  -28.1322  -19.6883   21.6774 N   0  0  0  0  0  0
  -29.8117  -15.7842   20.7382 N   0  0  0  0  0  0
  -31.4784  -12.5673   19.1444 H   0  0  0  0  0  0
  -30.3932  -11.4446   19.9191 H   0  0  0  0  0  0
  -29.7818  -11.7319   17.4985 H   0  0  0  0  0  0
  -29.6359  -13.4574   17.7149 H   0  0  0  0  0  0
  -27.8846  -11.2780   18.8946 H   0  0  0  0  0  0
  -27.3733  -12.5298   17.7961 H   0  0  0  0  0  0
  -27.6514  -14.2456   19.4846 H   0  0  0  0  0  0
  -28.7250  -12.1057   21.3907 H   0  0  0  0  0  0
  -28.4354  -13.7718   21.8145 H   0  0  0  0  0  0
  -25.2750   -9.5681   22.4759 H   0  0  0  0  0  0
  -23.9993   -7.4627   22.7471 H   0  0  0  0  0  0
  -21.0831   -8.8759   19.8953 H   0  0  0  0  0  0
  -22.3676  -10.9666   19.6167 H   0  0  0  0  0  0
  -21.2006   -7.6140   23.9713 H   0  0  0  0  0  0
  -21.1485   -6.0519   25.9078 H   0  0  0  0  0  0
  -22.0599   -2.7601   23.2855 H   0  0  0  0  0  0
  -22.4099  -11.9901   22.4818 H   0  0  0  0  0  0
  -21.1093  -13.1250   22.2599 H   0  0  0  0  0  0
  -24.6544  -15.8394   20.5243 H   0  0  0  0  0  0
  -26.2658  -15.6320   20.0653 H   0  0  0  0  0  0
  -26.7208  -32.5416   23.1094 H   0  0  0  0  0  0
  -25.0092  -33.9699   25.0411 H   0  0  0  0  0  0
  -22.7204  -31.3065   21.4010 H   0  0  0  0  0  0
  -23.3750  -35.9623   23.3300 H   0  0  0  0  0  0
  -24.3582  -36.8909   22.2053 H   0  0  0  0  0  0
  -23.7255  -37.6492   23.6668 H   0  0  0  0  0  0
  -26.1103  -31.5441   20.6109 H   0  0  0  0  0  0
  -26.8486  -30.8250   22.0092 H   0  0  0  0  0  0
  -28.1230  -28.9465   21.1878 H   0  0  0  0  0  0
  -25.9299  -25.9356   18.9826 H   0  0  0  0  0  0
  -23.9640  -27.3223   19.0035 H   0  0  0  0  0  0
  -23.7667  -30.6024   19.4063 H   0  0  0  0  0  0
  -22.7576  -29.2595   19.8508 H   0  0  0  0  0  0
  -25.1299  -36.1914   25.0814 H   0  0  0  0  0  0
  -21.0000  -28.3280   24.1385 H   0  0  0  0  0  0
  -20.5681  -26.2303   23.3612 H   0  0  0  0  0  0
  -21.6647  -26.7436   22.1194 H   0  0  0  0  0  0
  -19.6917  -25.6297   21.1239 H   0  0  0  0  0  0
  -19.6691  -27.3189   20.6735 H   0  0  0  0  0  0
  -17.4201  -26.6675   21.4027 H   0  0  0  0  0  0
  -18.0336  -26.0078   22.9025 H   0  0  0  0  0  0
  -19.7946  -30.7277   24.2248 H   0  0  0  0  0  0
  -17.5024  -31.6260   24.5169 H   0  0  0  0  0  0
  -15.5358  -30.2981   23.7660 H   0  0  0  0  0  0
  -15.8685  -28.0828   22.7052 H   0  0  0  0  0  0
  -24.5913  -30.7064   25.7778 H   0  0  0  0  0  0
  -24.8902  -32.2891   26.4861 H   0  0  0  0  0  0
  -25.8046  -30.8923   27.0233 H   0  0  0  0  0  0
  -26.2928  -29.6753   24.1217 H   0  0  0  0  0  0
  -27.4025  -29.7257   25.4716 H   0  0  0  0  0  0
  -27.8811  -30.4275   23.9446 H   0  0  0  0  0  0
  -27.2673  -33.3627   26.2070 H   0  0  0  0  0  0
  -28.3881  -32.6877   25.0334 H   0  0  0  0  0  0
  -28.0728  -31.8457   26.5422 H   0  0  0  0  0  0
  -28.2588  -38.0100   24.7503 H   0  0  0  0  0  0
  -28.1075  -36.2626   24.6298 H   0  0  0  0  0  0
  -27.2291  -37.1454   25.8867 H   0  0  0  0  0  0
  -20.9390  -29.8795   21.6881 H   0  0  0  0  0  0
  -26.0165  -38.2841   24.1411 H   0  0  0  0  0  0
  -30.1321  -21.1963   19.4065 H   0  0  0  0  0  0
  -27.3885  -22.9395   22.2578 H   0  0  0  0  0  0
  -27.9333  -20.6859   24.9476 H   0  0  0  0  0  0
  -27.6336  -19.0417   24.3938 H   0  0  0  0  0  0
  -26.4230  -19.8801   25.3626 H   0  0  0  0  0  0
  -24.8826  -20.1417   21.9262 H   0  0  0  0  0  0
  -24.5864  -19.6007   23.5767 H   0  0  0  0  0  0
  -25.6823  -18.6970   22.5373 H   0  0  0  0  0  0
  -29.7669  -23.7949   19.4353 H   0  0  0  0  0  0
  -29.8825  -24.1607   21.1242 H   0  0  0  0  0  0
  -30.1380  -18.5903   19.2416 H   0  0  0  0  0  0
  -28.5669  -17.9933   19.6328 H   0  0  0  0  0  0
  -29.7792  -17.4279   22.0231 H   0  0  0  0  0  0
  -31.2071  -17.4000   21.0495 H   0  0  0  0  0  0
  -27.3405  -24.8029   21.0423 H   0  0  0  0  0  0
  -27.4882  -24.6355   19.3152 H   0  0  0  0  0  0
  -26.1020  -21.5401   23.5519 H   0  0  0  0  0  0
  -28.8435  -15.5391   20.8808 H   0  0  0  0  0  0
  1 25  1  0  0  0
  1 30  2  0  0  0
  1 84  1  0  0  0
  2  3  1  0  0  0
  2 25  1  0  0  0
  2 85  1  0  0  0
  2 86  1  0  0  0
  3  4  1  0  0  0
  3 87  1  0  0  0
  3 88  1  0  0  0
  4  5  1  0  0  0
  4 89  1  0  0  0
  4 90  1  0  0  0
  5  6  1  0  0  0
  5 26  1  0  0  0
  5 91  1  0  0  0
  6 25  1  0  0  0
  6 92  1  0  0  0
  6 93  1  0  0  0
  7  8  2  0  0  0
  7 26  1  0  0  0
  7 29  1  0  0  0
  8  9  1  0  0  0
  8 22  1  0  0  0
  9 10  1  0  0  0
  9 27  2  0  0  0
 10 11  2  0  0  0
 10 15  1  0  0  0
 11 12  1  0  0  0
 11 94  1  0  0  0
 12 13  2  0  0  0
 12 95  1  0  0  0
 13 14  1  0  0  0
 13 31  1  0  0  0
 14 15  2  0  0  0
 14 96  1  0  0  0
 15 97  1  0  0  0
 16 17  2  0  0  0
 16 21  1  0  0  0
 16 31  1  0  0  0
 17 18  1  0  0  0
 17 98  1  0  0  0
 18 19  2  0  0  0
 18 99  1  0  0  0
 19 20  1  0  0  0
 19 24  1  0  0  0
 20 21  2  0  0  0
 20100  1  0  0  0
 21 23  1  0  0  0
 22 28  1  0  0  0
 22 32  2  0  0  0
 26 27  1  0  0  0
 28101  1  0  0  0
 28102  1  0  0  0
 29103  1  0  0  0
 29104  1  0  0  0
 33 34  1  0  0  0
 33 66  1  0  0  0
 33 70  2  0  0  0
 34 36  1  0  0  0
 34 59  1  0  0  0
 34105  1  0  0  0
 35 44  2  0  0  0
 35 45  1  0  0  0
 35 68  1  0  0  0
 36 56  1  0  0  0
 36106  1  0  0  0
 37 39  1  0  0  0
 37 47  1  0  0  0
 37 66  1  0  0  0
 37107  1  0  0  0
 38 43  2  0  0  0
 38 46  1  0  0  0
 38 47  1  0  0  0
 39 64  1  0  0  0
 39 67  2  0  0  0
 40 52  1  0  0  0
 40 53  2  0  0  0
 40 58  1  0  0  0
 41108  1  0  0  0
 41109  1  0  0  0
 41110  1  0  0  0
 41 48  1  0  0  0
 42 43  1  0  0  0
 42 66  1  0  0  0
 42111  1  0  0  0
 42112  1  0  0  0
 43 44  1  0  0  0
 44113  1  0  0  0
 45 46  2  0  0  0
 45114  1  0  0  0
 46115  1  0  0  0
 47116  1  0  0  0
 47117  1  0  0  0
 48 56  1  0  0  0
 48 65  1  0  0  0
 48118  1  0  0  0
 49 50  1  0  0  0
 49 53  1  0  0  0
 49 64  1  0  0  0
 49119  1  0  0  0
 50 51  1  0  0  0
 50120  1  0  0  0
 50121  1  0  0  0
 51 52  1  0  0  0
 51122  1  0  0  0
 51123  1  0  0  0
 52124  1  0  0  0
 52125  1  0  0  0
 53 54  1  0  0  0
 54 55  2  0  0  0
 54126  1  0  0  0
 55 57  1  0  0  0
 55127  1  0  0  0
 56 69  2  0  0  0
 57 58  2  0  0  0
 57128  1  0  0  0
 58129  1  0  0  0
 59 60  1  0  0  0
 59 61  1  0  0  0
 59 62  1  0  0  0
 60130  1  0  0  0
 60131  1  0  0  0
 60132  1  0  0  0
 61133  1  0  0  0
 61134  1  0  0  0
 61135  1  0  0  0
 62136  1  0  0  0
 62137  1  0  0  0
 62138  1  0  0  0
 63 65  1  0  0  0
 63139  1  0  0  0
 63140  1  0  0  0
 63141  1  0  0  0
 64142  1  0  0  0
 65143  1  0  0  0
 68 81  1  0  0  0
 71 73  2  0  0  0
 71 74  1  0  0  0
 71144  1  0  0  0
 72 73  1  0  0  0
 72 75  2  0  0  0
 72145  1  0  0  0
 73 78  1  0  0  0
 74 79  1  0  0  0
 74 83  2  0  0  0
 75 82  1  0  0  0
 75 83  1  0  0  0
 76146  1  0  0  0
 76147  1  0  0  0
 76148  1  0  0  0
 76 82  1  0  0  0
 77 82  1  0  0  0
 77149  1  0  0  0
 77150  1  0  0  0
 77151  1  0  0  0
 78 81  1  0  0  0
 78152  1  0  0  0
 78153  1  0  0  0
 79 80  1  0  0  0
 79154  1  0  0  0
 79155  1  0  0  0
 80 84  1  0  0  0
 80156  1  0  0  0
 80157  1  0  0  0
 81158  1  0  0  0
 81159  1  0  0  0
 82160  1  0  0  0
 84161  1  0  0  0
M  ISO  4   1 100  68 101  81 101  84 100
M  END
> <chiral flag>
0

> <version>
0

> <s_m_source_file>
/data/baiqing/PycharmProjects/Reinvent-master-3.2/result/LINK_invent/BTK/process_docking_weight1_custom_sum_contain_oxygen_bond_distance_aromatic_linkinvent_7_9_3/rearranged_h_0047.sdf

> <i_m_source_file_index>
61

> <r_mmod_Potential_Energy-OPLS-2005>
-51.6208648681641

> <r_mmod_Stretch_Energy-OPLS-2005>
105.416435241699

> <r_mmod_Bend_Energy-OPLS-2005>
154.683197021484

> <r_mmod_Torsional_Energy-OPLS-2005>
198.60481262207

> <r_mmod_Improper_Torsional_Energy-OPLS-2005>
5.10985374450684

> <r_mmod_Van_der_Waal_Energy-OPLS-2005>
141.344131469727

> <r_mmod_Electrostatic_Energy-OPLS-2005>
-512.7802734375

> <r_mmod_Solvation_Energy-OPLS-2005>
-212.423080444336

> <b_mmod_Minimization_Converged-OPLS-2005>
0

> <r_mmod_RMS_Derivative-OPLS-2005>
0.988531410694122

$$$$
61
                    3D
 Structure written by MMmdl.
170178  0  0  1  0            999 V2000
  -30.7780  -14.3726   20.6916 C   0  0  0  0  0  0
  -30.4267  -12.3018   19.3974 C   0  0  0  0  0  0
  -29.4835  -12.5216   18.2004 C   0  0  0  0  0  0
  -28.0078  -12.3933   18.6193 C   0  0  0  0  0  0
  -27.6735  -13.2068   19.8957 C   0  0  2  0  0  0
  -28.7189  -12.9466   21.0043 C   0  0  0  0  0  0
  -25.2665  -13.8178   20.5746 C   0  0  0  0  0  0
  -24.1887  -13.0452   20.9185 C   0  0  0  0  0  0
  -24.6437  -11.6916   20.8742 C   0  0  0  0  0  0
  -23.9086  -10.4308   21.0383 C   0  0  0  0  0  0
  -24.3633   -9.4214   21.9151 C   0  0  0  0  0  0
  -23.6310   -8.2242   22.0712 C   0  0  0  0  0  0
  -22.4287   -8.0292   21.3502 C   0  0  0  0  0  0
  -21.9928   -9.0274   20.4592 C   0  0  0  0  0  0
  -22.7262  -10.2154   20.3024 C   0  0  0  0  0  0
  -21.6870   -6.0763   22.5276 C   0  0  0  0  0  0
  -21.4015   -6.5649   23.8216 C   0  0  0  0  0  0
  -21.3652   -5.6786   24.9171 C   0  0  0  0  0  0
  -21.6049   -4.3050   24.7215 C   0  0  0  0  0  0
  -21.8819   -3.8170   23.4329 C   0  0  0  0  0  0
  -21.9196   -4.6992   22.3395 C   0  0  0  0  0  0
  -22.7901  -13.5224   21.1834 C   0  0  0  0  0  0
  -22.1665   -4.2195   21.0967 F   0  0  0  0  0  0
  -21.5638   -3.4512   25.7711 F   0  0  0  0  0  0
  -30.0552  -13.2472   20.4604 N   0  0  0  0  0  0
  -26.3112  -12.9340   20.3523 N   0  0  0  0  0  0
  -25.9376  -11.6489   20.5844 N   0  0  0  0  0  0
  -22.0571  -12.8197   22.0407 N   0  0  0  0  0  0
  -25.4461  -15.1881   20.4165 N   0  0  0  0  0  0
  -31.7958  -14.6645   20.0570 O   0  0  0  0  0  0
  -21.6645   -6.8891   21.4221 O   0  0  0  0  0  0
  -22.3546  -14.5514   20.6682 O   0  0  0  0  0  0
  -24.6148  -31.8705   23.2119 C   0  0  0  0  0  0
  -25.9047  -32.4833   23.8400 C   0  0  1  0  0  0
  -27.2219  -27.4439   20.0667 C   0  0  0  0  0  0
  -25.5905  -33.8630   24.2339 N   0  0  0  0  0  0
  -23.3982  -30.4985   21.5553 C   0  0  2  0  0  0
  -24.8362  -28.9648   20.1195 C   0  0  0  0  0  0
  -22.7399  -29.4685   22.5008 C   0  0  0  0  0  0
  -18.0268  -28.1381   22.8492 C   0  0  0  0  0  0
  -24.1488  -36.7322   23.2635 C   0  0  0  0  0  0
  -25.9276  -30.8348   21.3627 C   0  0  0  0  0  0
  -25.9994  -29.4684   20.7138 C   0  0  0  0  0  0
  -27.1931  -28.7113   20.6921 C   0  0  0  0  0  0
  -26.0264  -26.9446   19.4948 C   0  0  0  0  0  0
  -24.8419  -27.6991   19.5149 C   0  0  0  0  0  0
  -23.6026  -29.8361   20.1688 C   0  0  0  0  0  0
  -25.4107  -36.3122   24.0340 C   0  0  1  0  0  0
  -20.5857  -28.3661   23.1322 C   0  0  2  0  0  0
  -20.6763  -26.9402   22.5413 C   0  0  0  0  0  0
  -19.5746  -26.6393   21.5208 C   0  0  0  0  0  0
  -18.1923  -26.7927   22.1621 C   0  0  0  0  0  0
  -19.1515  -28.8837   23.2905 C   0  0  0  0  0  0
  -18.9445  -30.1439   23.8918 C   0  0  0  0  0  0
  -17.6451  -30.6586   24.0567 C   0  0  0  0  0  0
  -25.9035  -34.9486   23.5132 C   0  0  0  0  0  0
  -16.5341  -29.9092   23.6323 C   0  0  0  0  0  0
  -16.7259  -28.6510   23.0343 C   0  0  0  0  0  0
  -26.4473  -31.6595   25.0714 C   0  0  0  0  0  0
  -25.3742  -31.3677   26.1457 C   0  0  0  0  0  0
  -27.0298  -30.3048   24.6051 C   0  0  0  0  0  0
  -27.6055  -32.4296   25.7477 C   0  0  0  0  0  0
  -27.5585  -37.1817   24.8466 C   0  0  0  0  0  0
  -21.4128  -29.3040   22.3744 N   0  0  0  0  0  0
  -26.4298  -37.3802   23.9408 N   0  0  0  0  0  0
  -24.6661  -31.0819   22.1017 N   0  0  0  0  0  0
  -23.4171  -28.8216   23.3038 O   0  0  0  0  0  0
  -28.4088  -26.7385   20.0293 O   0  0  0  0  0  0
  -26.5595  -34.8934   22.4698 O   0  0  0  0  0  0
  -23.5347  -32.1453   23.7518 O   0  0  0  0  0  0
  -30.4309  -19.1117   20.7904 C   0  0  0  0  0  0
  -27.7445  -18.8852   20.2915 C   0  0  0  0  0  0
  -29.8955  -19.8342   19.7044 C   0  0  0  0  0  0
  -28.5078  -19.7284   19.4560 C   0  0  0  0  0  0
  -29.5921  -18.2798   21.5539 C   0  0  0  0  0  0
  -30.8524  -26.3669   18.6033 C   0  0  0  0  0  0
  -32.1041  -22.6131   18.2826 C   0  0  0  0  0  0
  -30.8430  -20.5926   18.7756 C   0  0  0  0  0  0
  -30.1645  -17.4578   22.7002 C   0  0  0  0  0  0
  -30.4988  -24.2992   20.0652 C   0  0  0  0  0  0
  -31.0713  -16.2846   22.2655 C   0  0  0  0  0  0
  -30.2614  -22.7588   19.9817 C   0  0  0  0  0  0
  -28.4837  -25.6298   19.1255 C   0  0  0  0  0  0
  -29.9357  -25.1667   18.9078 C   0  0  1  0  0  0
  -28.2695  -18.1625   21.3075 N   0  0  0  0  0  0
  -30.3519  -15.1321   21.7107 N   0  0  0  0  0  0
  -30.7960  -22.0861   18.7547 N   0  3  1  0  0  0
  -27.7546  -20.5799   18.1544 Cl  0  0  0  0  0  0
  -31.4626  -12.4215   19.0732 H   0  0  0  0  0  0
  -30.3553  -11.2795   19.7688 H   0  0  0  0  0  0
  -29.7046  -11.8000   17.4136 H   0  0  0  0  0  0
  -29.6606  -13.5115   17.7722 H   0  0  0  0  0  0
  -27.7915  -11.3379   18.7862 H   0  0  0  0  0  0
  -27.3598  -12.7102   17.8026 H   0  0  0  0  0  0
  -27.7316  -14.2626   19.6286 H   0  0  0  0  0  0
  -28.6974  -11.8995   21.3129 H   0  0  0  0  0  0
  -28.4715  -13.5116   21.9039 H   0  0  0  0  0  0
  -25.2796   -9.5705   22.4702 H   0  0  0  0  0  0
  -24.0062   -7.4624   22.7397 H   0  0  0  0  0  0
  -21.0885   -8.8794   19.8858 H   0  0  0  0  0  0
  -22.3744  -10.9703   19.6116 H   0  0  0  0  0  0
  -21.2001   -7.6156   23.9744 H   0  0  0  0  0  0
  -21.1457   -6.0504   25.9084 H   0  0  0  0  0  0
  -22.0604   -2.7636   23.2814 H   0  0  0  0  0  0
  -22.4265  -11.9904   22.4815 H   0  0  0  0  0  0
  -21.1132  -13.1103   22.2518 H   0  0  0  0  0  0
  -24.7036  -15.8634   20.5662 H   0  0  0  0  0  0
  -26.3287  -15.6191   20.1710 H   0  0  0  0  0  0
  -26.7111  -32.5547   23.1157 H   0  0  0  0  0  0
  -25.0060  -33.9785   25.0487 H   0  0  0  0  0  0
  -22.6869  -31.3164   21.4219 H   0  0  0  0  0  0
  -23.3748  -35.9658   23.3307 H   0  0  0  0  0  0
  -24.3585  -36.8925   22.2048 H   0  0  0  0  0  0
  -23.7236  -37.6530   23.6639 H   0  0  0  0  0  0
  -26.0327  -31.5949   20.5870 H   0  0  0  0  0  0
  -26.8208  -30.8933   21.9729 H   0  0  0  0  0  0
  -28.0957  -29.1014   21.1410 H   0  0  0  0  0  0
  -25.9779  -25.9741   19.0244 H   0  0  0  0  0  0
  -23.9431  -27.3006   19.0637 H   0  0  0  0  0  0
  -23.7127  -30.6133   19.4117 H   0  0  0  0  0  0
  -22.7235  -29.2616   19.8719 H   0  0  0  0  0  0
  -25.1279  -36.1995   25.0832 H   0  0  0  0  0  0
  -20.9940  -28.3225   24.1445 H   0  0  0  0  0  0
  -20.5677  -26.2269   23.3594 H   0  0  0  0  0  0
  -21.6636  -26.7465   22.1201 H   0  0  0  0  0  0
  -19.6908  -25.6313   21.1228 H   0  0  0  0  0  0
  -19.6686  -27.3216   20.6751 H   0  0  0  0  0  0
  -17.4190  -26.6670   21.4025 H   0  0  0  0  0  0
  -18.0328  -26.0068   22.9016 H   0  0  0  0  0  0
  -19.7918  -30.7255   24.2298 H   0  0  0  0  0  0
  -17.5002  -31.6267   24.5170 H   0  0  0  0  0  0
  -15.5340  -30.3003   23.7639 H   0  0  0  0  0  0
  -15.8654  -28.0843   22.7041 H   0  0  0  0  0  0
  -24.5925  -30.7015   25.7783 H   0  0  0  0  0  0
  -24.8916  -32.2821   26.4918 H   0  0  0  0  0  0
  -25.8097  -30.8834   27.0204 H   0  0  0  0  0  0
  -26.2825  -29.6810   24.1126 H   0  0  0  0  0  0
  -27.4120  -29.7270   25.4478 H   0  0  0  0  0  0
  -27.8637  -30.4389   23.9153 H   0  0  0  0  0  0
  -27.2689  -33.3588   26.2082 H   0  0  0  0  0  0
  -28.3854  -32.6859   25.0294 H   0  0  0  0  0  0
  -28.0730  -31.8393   26.5366 H   0  0  0  0  0  0
  -28.2604  -38.0116   24.7523 H   0  0  0  0  0  0
  -28.1084  -36.2648   24.6283 H   0  0  0  0  0  0
  -27.2305  -37.1456   25.8870 H   0  0  0  0  0  0
  -20.9279  -29.8769   21.6979 H   0  0  0  0  0  0
  -26.0194  -38.2885   24.1404 H   0  0  0  0  0  0
  -31.4904  -19.1514   21.0089 H   0  0  0  0  0  0
  -26.6820  -18.7744   20.1290 H   0  0  0  0  0  0
  -31.8607  -26.0479   18.3374 H   0  0  0  0  0  0
  -30.9383  -27.0290   19.4650 H   0  0  0  0  0  0
  -30.4698  -26.9579   17.7708 H   0  0  0  0  0  0
  -32.4636  -22.0504   17.4214 H   0  0  0  0  0  0
  -32.8585  -22.5392   19.0667 H   0  0  0  0  0  0
  -32.0468  -23.6503   17.9614 H   0  0  0  0  0  0
  -30.6955  -20.2194   17.7619 H   0  0  0  0  0  0
  -31.8550  -20.2832   19.0422 H   0  0  0  0  0  0
  -29.3626  -17.1020   23.3483 H   0  0  0  0  0  0
  -30.7594  -18.1392   23.3104 H   0  0  0  0  0  0
  -31.5704  -24.4722   20.1616 H   0  0  0  0  0  0
  -30.0900  -24.6706   21.0064 H   0  0  0  0  0  0
  -31.6085  -15.9228   23.1419 H   0  0  0  0  0  0
  -31.8331  -16.6611   21.5804 H   0  0  0  0  0  0
  -29.1936  -22.5516   20.0722 H   0  0  0  0  0  0
  -30.7350  -22.3035   20.8528 H   0  0  0  0  0  0
  -27.8764  -24.7983   19.4901 H   0  0  0  0  0  0
  -28.0853  -25.9214   18.1513 H   0  0  0  0  0  0
  -29.9216  -24.5624   18.0013 H   0  0  0  0  0  0
  -29.5239  -14.8179   22.1946 H   0  0  0  0  0  0
  -30.1329  -22.2956   18.0240 H   0  0  0  0  0  0
  1 25  1  0  0  0
  1 30  2  0  0  0
  1 86  1  0  0  0
  2  3  1  0  0  0
  2 25  1  0  0  0
  2 89  1  0  0  0
  2 90  1  0  0  0
  3  4  1  0  0  0
  3 91  1  0  0  0
  3 92  1  0  0  0
  4  5  1  0  0  0
  4 93  1  0  0  0
  4 94  1  0  0  0
  5  6  1  0  0  0
  5 26  1  0  0  0
  5 95  1  0  0  0
  6 25  1  0  0  0
  6 96  1  0  0  0
  6 97  1  0  0  0
  7  8  2  0  0  0
  7 26  1  0  0  0
  7 29  1  0  0  0
  8  9  1  0  0  0
  8 22  1  0  0  0
  9 10  1  0  0  0
  9 27  2  0  0  0
 10 11  2  0  0  0
 10 15  1  0  0  0
 11 12  1  0  0  0
 11 98  1  0  0  0
 12 13  2  0  0  0
 12 99  1  0  0  0
 13 14  1  0  0  0
 13 31  1  0  0  0
 14 15  2  0  0  0
 14100  1  0  0  0
 15101  1  0  0  0
 16 17  2  0  0  0
 16 21  1  0  0  0
 16 31  1  0  0  0
 17 18  1  0  0  0
 17102  1  0  0  0
 18 19  2  0  0  0
 18103  1  0  0  0
 19 20  1  0  0  0
 19 24  1  0  0  0
 20 21  2  0  0  0
 20104  1  0  0  0
 21 23  1  0  0  0
 22 28  1  0  0  0
 22 32  2  0  0  0
 26 27  1  0  0  0
 28105  1  0  0  0
 28106  1  0  0  0
 29107  1  0  0  0
 29108  1  0  0  0
 33 34  1  0  0  0
 33 66  1  0  0  0
 33 70  2  0  0  0
 34 36  1  0  0  0
 34 59  1  0  0  0
 34109  1  0  0  0
 35 44  2  0  0  0
 35 45  1  0  0  0
 35 68  1  0  0  0
 36 56  1  0  0  0
 36110  1  0  0  0
 37 39  1  0  0  0
 37 47  1  0  0  0
 37 66  1  0  0  0
 37111  1  0  0  0
 38 43  2  0  0  0
 38 46  1  0  0  0
 38 47  1  0  0  0
 39 64  1  0  0  0
 39 67  2  0  0  0
 40 52  1  0  0  0
 40 53  2  0  0  0
 40 58  1  0  0  0
 41112  1  0  0  0
 41113  1  0  0  0
 41114  1  0  0  0
 41 48  1  0  0  0
 42 43  1  0  0  0
 42 66  1  0  0  0
 42115  1  0  0  0
 42116  1  0  0  0
 43 44  1  0  0  0
 44117  1  0  0  0
 45 46  2  0  0  0
 45118  1  0  0  0
 46119  1  0  0  0
 47120  1  0  0  0
 47121  1  0  0  0
 48 56  1  0  0  0
 48 65  1  0  0  0
 48122  1  0  0  0
 49 50  1  0  0  0
 49 53  1  0  0  0
 49 64  1  0  0  0
 49123  1  0  0  0
 50 51  1  0  0  0
 50124  1  0  0  0
 50125  1  0  0  0
 51 52  1  0  0  0
 51126  1  0  0  0
 51127  1  0  0  0
 52128  1  0  0  0
 52129  1  0  0  0
 53 54  1  0  0  0
 54 55  2  0  0  0
 54130  1  0  0  0
 55 57  1  0  0  0
 55131  1  0  0  0
 56 69  2  0  0  0
 57 58  2  0  0  0
 57132  1  0  0  0
 58133  1  0  0  0
 59 60  1  0  0  0
 59 61  1  0  0  0
 59 62  1  0  0  0
 60134  1  0  0  0
 60135  1  0  0  0
 60136  1  0  0  0
 61137  1  0  0  0
 61138  1  0  0  0
 61139  1  0  0  0
 62140  1  0  0  0
 62141  1  0  0  0
 62142  1  0  0  0
 63 65  1  0  0  0
 63143  1  0  0  0
 63144  1  0  0  0
 63145  1  0  0  0
 64146  1  0  0  0
 65147  1  0  0  0
 68 83  1  0  0  0
 71 73  2  0  0  0
 71 75  1  0  0  0
 71148  1  0  0  0
 72 74  2  0  0  0
 72 85  1  0  0  0
 72149  1  0  0  0
 73 74  1  0  0  0
 73 78  1  0  0  0
 74 88  1  0  0  0
 75 79  1  0  0  0
 75 85  2  0  0  0
 76150  1  0  0  0
 76151  1  0  0  0
 76152  1  0  0  0
 76 84  1  0  0  0
 77153  1  0  0  0
 77154  1  0  0  0
 77155  1  0  0  0
 77 87  1  0  0  0
 78 87  1  0  0  0
 78156  1  0  0  0
 78157  1  0  0  0
 79 81  1  0  0  0
 79158  1  0  0  0
 79159  1  0  0  0
 80 82  1  0  0  0
 80 84  1  0  0  0
 80160  1  0  0  0
 80161  1  0  0  0
 81 86  1  0  0  0
 81162  1  0  0  0
 81163  1  0  0  0
 82 87  1  0  0  0
 82164  1  0  0  0
 82165  1  0  0  0
 83 84  1  0  0  0
 83166  1  0  0  0
 83167  1  0  0  0
 84168  1  0  0  0
 86169  1  0  0  0
 87170  1  0  0  0
M  CHG  1  87   1
M  ISO  4   1 100  68 101  83 101  86 100
M  END
> <chiral flag>
0

> <version>
0

> <s_m_source_file>
/data/baiqing/PycharmProjects/Reinvent-master-3.2/result/LINK_invent/BTK/process_docking_weight1_custom_sum_contain_oxygen_bond_distance_aromatic_linkinvent_7_9_3/rearranged_h_0047.sdf

> <i_m_source_file_index>
62

> <r_mmod_Potential_Energy-OPLS-2005>
-303.555389404297

> <r_mmod_Stretch_Energy-OPLS-2005>
37.0736770629883

> <r_mmod_Bend_Energy-OPLS-2005>
110.920761108398

> <r_mmod_Torsional_Energy-OPLS-2005>
218.626403808594

> <r_mmod_Improper_Torsional_Energy-OPLS-2005>
2.24381613731384

> <r_mmod_Van_der_Waal_Energy-OPLS-2005>
159.806488037109

> <r_mmod_Electrostatic_Energy-OPLS-2005>
-387.272583007812

> <r_mmod_Solvation_Energy-OPLS-2005>
-453.284942626953

> <b_mmod_Minimization_Converged-OPLS-2005>
0

> <r_mmod_RMS_Derivative-OPLS-2005>
2.78386163711548

$$$$
62
                    3D
 Structure written by MMmdl.
160168  0  0  1  0            999 V2000
  -30.7103  -14.3984   20.6777 C   0  0  0  0  0  0
  -30.4340  -12.3019   19.3974 C   0  0  0  0  0  0
  -29.4922  -12.5462   18.1990 C   0  0  0  0  0  0
  -28.0169  -12.3824   18.6118 C   0  0  0  0  0  0
  -27.6725  -13.1904   19.8881 C   0  0  2  0  0  0
  -28.7086  -12.9019   20.9995 C   0  0  0  0  0  0
  -25.2615  -13.8115   20.5545 C   0  0  0  0  0  0
  -24.1868  -13.0443   20.9141 C   0  0  0  0  0  0
  -24.6390  -11.6911   20.8714 C   0  0  0  0  0  0
  -23.9045  -10.4319   21.0413 C   0  0  0  0  0  0
  -24.3615   -9.4228   21.9184 C   0  0  0  0  0  0
  -23.6288   -8.2262   22.0760 C   0  0  0  0  0  0
  -22.4261   -8.0305   21.3556 C   0  0  0  0  0  0
  -21.9895   -9.0279   20.4658 C   0  0  0  0  0  0
  -22.7225  -10.2158   20.3066 C   0  0  0  0  0  0
  -21.6869   -6.0747   22.5282 C   0  0  0  0  0  0
  -21.4026   -6.5646   23.8209 C   0  0  0  0  0  0
  -21.3640   -5.6794   24.9164 C   0  0  0  0  0  0
  -21.6034   -4.3054   24.7215 C   0  0  0  0  0  0
  -21.8824   -3.8160   23.4336 C   0  0  0  0  0  0
  -21.9204   -4.6984   22.3392 C   0  0  0  0  0  0
  -22.7893  -13.5287   21.1816 C   0  0  0  0  0  0
  -22.1674   -4.2170   21.0970 F   0  0  0  0  0  0
  -21.5589   -3.4531   25.7718 F   0  0  0  0  0  0
  -30.0555  -13.2235   20.4811 N   0  0  0  0  0  0
  -26.3073  -12.9258   20.3379 N   0  0  0  0  0  0
  -25.9322  -11.6439   20.5753 N   0  0  0  0  0  0
  -22.0544  -12.8292   22.0371 N   0  0  0  0  0  0
  -25.4284  -15.1786   20.3715 N   0  0  0  0  0  0
  -31.7172  -14.7379   20.0490 O   0  0  0  0  0  0
  -21.6642   -6.8896   21.4243 O   0  0  0  0  0  0
  -22.3596  -14.5617   20.6689 O   0  0  0  0  0  0
  -24.6121  -31.8707   23.2120 C   0  0  0  0  0  0
  -25.9008  -32.4841   23.8418 C   0  0  1  0  0  0
  -27.2411  -27.4516   20.0669 C   0  0  0  0  0  0
  -25.5871  -33.8639   24.2334 N   0  0  0  0  0  0
  -23.3991  -30.4945   21.5535 C   0  0  2  0  0  0
  -24.8438  -28.9597   20.1162 C   0  0  0  0  0  0
  -22.7390  -29.4696   22.5029 C   0  0  0  0  0  0
  -18.0267  -28.1373   22.8484 C   0  0  0  0  0  0
  -24.1489  -36.7333   23.2636 C   0  0  0  0  0  0
  -25.9274  -30.8321   21.3686 C   0  0  0  0  0  0
  -26.0011  -29.4688   20.7145 C   0  0  0  0  0  0
  -27.1967  -28.7156   20.6974 C   0  0  0  0  0  0
  -26.0605  -26.9574   19.4604 C   0  0  0  0  0  0
  -24.8661  -27.7007   19.4939 C   0  0  0  0  0  0
  -23.6044  -29.8246   20.1688 C   0  0  0  0  0  0
  -25.4111  -36.3134   24.0340 C   0  0  1  0  0  0
  -20.5846  -28.3670   23.1310 C   0  0  2  0  0  0
  -20.6750  -26.9418   22.5395 C   0  0  0  0  0  0
  -19.5729  -26.6400   21.5196 C   0  0  0  0  0  0
  -18.1917  -26.7927   22.1625 C   0  0  0  0  0  0
  -19.1504  -28.8838   23.2893 C   0  0  0  0  0  0
  -18.9439  -30.1455   23.8895 C   0  0  0  0  0  0
  -17.6439  -30.6582   24.0562 C   0  0  0  0  0  0
  -25.9034  -34.9494   23.5141 C   0  0  0  0  0  0
  -16.5329  -29.9080   23.6310 C   0  0  0  0  0  0
  -16.7245  -28.6504   23.0336 C   0  0  0  0  0  0
  -26.4441  -31.6613   25.0740 C   0  0  0  0  0  0
  -25.3696  -31.3734   26.1482 C   0  0  0  0  0  0
  -27.0256  -30.3043   24.6117 C   0  0  0  0  0  0
  -27.6029  -32.4337   25.7488 C   0  0  0  0  0  0
  -27.5592  -37.1820   24.8461 C   0  0  0  0  0  0
  -21.4125  -29.3047   22.3730 N   0  0  0  0  0  0
  -26.4308  -37.3807   23.9408 N   0  0  0  0  0  0
  -24.6645  -31.0821   22.1023 N   0  0  0  0  0  0
  -23.4155  -28.8248   23.3086 O   0  0  0  0  0  0
  -28.4432  -26.7684   20.0728 O   0  0  0  0  0  0
  -26.5610  -34.8936   22.4711 O   0  0  0  0  0  0
  -23.5312  -32.1476   23.7514 O   0  0  0  0  0  0
  -26.9988  -18.7837   21.6158 C   0  0  0  0  0  0
  -28.1213  -18.3768   20.9222 C   0  0  0  0  0  0
  -27.4518  -20.7225   20.4978 C   0  0  0  0  0  0
  -26.1092  -17.9938   22.5345 C   0  0  0  0  0  0
  -25.7558  -22.3918   19.7825 C   0  0  0  0  0  0
  -28.6574  -16.9765   20.8085 C   0  0  0  0  0  0
  -28.0031  -24.3335   20.1720 C   0  0  0  0  0  0
  -29.9882  -16.6533   21.5231 C   0  0  0  0  0  0
  -28.0557  -22.9887   19.4027 C   0  0  0  0  0  0
  -28.5775  -25.5255   19.3744 C   0  0  0  0  0  0
  -26.6359  -20.1044   21.3495 N   0  0  0  0  0  0
  -30.1276  -15.1957   21.5839 N   0  0  0  0  0  0
  -27.1484  -21.9771   19.9578 N   0  0  0  0  0  0
  -28.8194  -19.7158   20.0192 S   0  0  0  0  0  0
  -31.4745  -12.4294   19.0948 H   0  0  0  0  0  0
  -30.3558  -11.2700   19.7406 H   0  0  0  0  0  0
  -29.7217  -11.8602   17.3827 H   0  0  0  0  0  0
  -29.6593  -13.5516   17.8083 H   0  0  0  0  0  0
  -27.8301  -11.3205   18.7786 H   0  0  0  0  0  0
  -27.3583  -12.6773   17.7937 H   0  0  0  0  0  0
  -27.7389  -14.2466   19.6297 H   0  0  0  0  0  0
  -28.6769  -11.8473   21.2785 H   0  0  0  0  0  0
  -28.4428  -13.4380   21.9112 H   0  0  0  0  0  0
  -25.2777   -9.5717   22.4727 H   0  0  0  0  0  0
  -24.0026   -7.4652   22.7474 H   0  0  0  0  0  0
  -21.0824   -8.8815   19.8945 H   0  0  0  0  0  0
  -22.3709  -10.9703   19.6167 H   0  0  0  0  0  0
  -21.2027   -7.6158   23.9704 H   0  0  0  0  0  0
  -21.1443   -6.0533   25.9064 H   0  0  0  0  0  0
  -22.0621   -2.7633   23.2833 H   0  0  0  0  0  0
  -22.4220  -11.9959   22.4716 H   0  0  0  0  0  0
  -21.1179  -13.1329   22.2614 H   0  0  0  0  0  0
  -24.6391  -15.8155   20.4059 H   0  0  0  0  0  0
  -26.2490  -15.5854   19.9421 H   0  0  0  0  0  0
  -26.7078  -32.5544   23.1184 H   0  0  0  0  0  0
  -24.9977  -33.9817   25.0444 H   0  0  0  0  0  0
  -22.6872  -31.3114   21.4151 H   0  0  0  0  0  0
  -23.3749  -35.9669   23.3313 H   0  0  0  0  0  0
  -24.3571  -36.8933   22.2046 H   0  0  0  0  0  0
  -23.7244  -37.6544   23.6637 H   0  0  0  0  0  0
  -26.0419  -31.6003   20.6026 H   0  0  0  0  0  0
  -26.8144  -30.8839   21.9880 H   0  0  0  0  0  0
  -28.0926  -29.1055   21.1610 H   0  0  0  0  0  0
  -26.0368  -26.0064   18.9511 H   0  0  0  0  0  0
  -23.9744  -27.3069   19.0243 H   0  0  0  0  0  0
  -23.7093  -30.5988   19.4081 H   0  0  0  0  0  0
  -22.7278  -29.2431   19.8757 H   0  0  0  0  0  0
  -25.1285  -36.2018   25.0836 H   0  0  0  0  0  0
  -20.9939  -28.3211   24.1433 H   0  0  0  0  0  0
  -20.5715  -26.2251   23.3557 H   0  0  0  0  0  0
  -21.6626  -26.7511   22.1184 H   0  0  0  0  0  0
  -19.6910  -25.6328   21.1188 H   0  0  0  0  0  0
  -19.6641  -27.3238   20.6743 H   0  0  0  0  0  0
  -17.4169  -26.6660   21.4037 H   0  0  0  0  0  0
  -18.0351  -26.0051   22.9015 H   0  0  0  0  0  0
  -19.7915  -30.7252   24.2282 H   0  0  0  0  0  0
  -17.4972  -31.6268   24.5133 H   0  0  0  0  0  0
  -15.5331  -30.3001   23.7602 H   0  0  0  0  0  0
  -15.8639  -28.0842   22.7049 H   0  0  0  0  0  0
  -24.5861  -30.7089   25.7814 H   0  0  0  0  0  0
  -24.8883  -32.2890   26.4928 H   0  0  0  0  0  0
  -25.8024  -30.8897   27.0243 H   0  0  0  0  0  0
  -26.2797  -29.6851   24.1108 H   0  0  0  0  0  0
  -27.3939  -29.7246   25.4594 H   0  0  0  0  0  0
  -27.8683  -30.4363   23.9325 H   0  0  0  0  0  0
  -27.2642  -33.3627   26.2099 H   0  0  0  0  0  0
  -28.3797  -32.6917   25.0272 H   0  0  0  0  0  0
  -28.0735  -31.8437   26.5366 H   0  0  0  0  0  0
  -28.2615  -38.0112   24.7496 H   0  0  0  0  0  0
  -28.1079  -36.2636   24.6298 H   0  0  0  0  0  0
  -27.2300  -37.1492   25.8862 H   0  0  0  0  0  0
  -20.9326  -29.8697   21.6870 H   0  0  0  0  0  0
  -26.0208  -38.2901   24.1368 H   0  0  0  0  0  0
  -26.3658  -18.1714   23.5794 H   0  0  0  0  0  0
  -26.1566  -16.9198   22.3705 H   0  0  0  0  0  0
  -25.0645  -18.2801   22.4092 H   0  0  0  0  0  0
  -25.3822  -22.8890   20.6761 H   0  0  0  0  0  0
  -25.1239  -21.5206   19.6060 H   0  0  0  0  0  0
  -25.6187  -23.0596   18.9313 H   0  0  0  0  0  0
  -28.7531  -16.7278   19.7499 H   0  0  0  0  0  0
  -27.9016  -16.2891   21.1834 H   0  0  0  0  0  0
  -28.5405  -24.2283   21.1164 H   0  0  0  0  0  0
  -26.9801  -24.5767   20.4478 H   0  0  0  0  0  0
  -30.8349  -17.1317   21.0271 H   0  0  0  0  0  0
  -29.9628  -17.0302   22.5478 H   0  0  0  0  0  0
  -29.0799  -22.6133   19.3974 H   0  0  0  0  0  0
  -27.7973  -23.1532   18.3543 H   0  0  0  0  0  0
  -28.1420  -25.5932   18.3765 H   0  0  0  0  0  0
  -29.6425  -25.3571   19.2062 H   0  0  0  0  0  0
  -29.4451  -14.7285   22.1613 H   0  0  0  0  0  0
  1 25  1  0  0  0
  1 30  2  0  0  0
  1 82  1  0  0  0
  2  3  1  0  0  0
  2 25  1  0  0  0
  2 85  1  0  0  0
  2 86  1  0  0  0
  3  4  1  0  0  0
  3 87  1  0  0  0
  3 88  1  0  0  0
  4  5  1  0  0  0
  4 89  1  0  0  0
  4 90  1  0  0  0
  5  6  1  0  0  0
  5 26  1  0  0  0
  5 91  1  0  0  0
  6 25  1  0  0  0
  6 92  1  0  0  0
  6 93  1  0  0  0
  7  8  2  0  0  0
  7 26  1  0  0  0
  7 29  1  0  0  0
  8  9  1  0  0  0
  8 22  1  0  0  0
  9 10  1  0  0  0
  9 27  2  0  0  0
 10 11  2  0  0  0
 10 15  1  0  0  0
 11 12  1  0  0  0
 11 94  1  0  0  0
 12 13  2  0  0  0
 12 95  1  0  0  0
 13 14  1  0  0  0
 13 31  1  0  0  0
 14 15  2  0  0  0
 14 96  1  0  0  0
 15 97  1  0  0  0
 16 17  2  0  0  0
 16 21  1  0  0  0
 16 31  1  0  0  0
 17 18  1  0  0  0
 17 98  1  0  0  0
 18 19  2  0  0  0
 18 99  1  0  0  0
 19 20  1  0  0  0
 19 24  1  0  0  0
 20 21  2  0  0  0
 20100  1  0  0  0
 21 23  1  0  0  0
 22 28  1  0  0  0
 22 32  2  0  0  0
 26 27  1  0  0  0
 28101  1  0  0  0
 28102  1  0  0  0
 29103  1  0  0  0
 29104  1  0  0  0
 33 34  1  0  0  0
 33 66  1  0  0  0
 33 70  2  0  0  0
 34 36  1  0  0  0
 34 59  1  0  0  0
 34105  1  0  0  0
 35 44  2  0  0  0
 35 45  1  0  0  0
 35 68  1  0  0  0
 36 56  1  0  0  0
 36106  1  0  0  0
 37 39  1  0  0  0
 37 47  1  0  0  0
 37 66  1  0  0  0
 37107  1  0  0  0
 38 43  2  0  0  0
 38 46  1  0  0  0
 38 47  1  0  0  0
 39 64  1  0  0  0
 39 67  2  0  0  0
 40 52  1  0  0  0
 40 53  2  0  0  0
 40 58  1  0  0  0
 41108  1  0  0  0
 41109  1  0  0  0
 41110  1  0  0  0
 41 48  1  0  0  0
 42 43  1  0  0  0
 42 66  1  0  0  0
 42111  1  0  0  0
 42112  1  0  0  0
 43 44  1  0  0  0
 44113  1  0  0  0
 45 46  2  0  0  0
 45114  1  0  0  0
 46115  1  0  0  0
 47116  1  0  0  0
 47117  1  0  0  0
 48 56  1  0  0  0
 48 65  1  0  0  0
 48118  1  0  0  0
 49 50  1  0  0  0
 49 53  1  0  0  0
 49 64  1  0  0  0
 49119  1  0  0  0
 50 51  1  0  0  0
 50120  1  0  0  0
 50121  1  0  0  0
 51 52  1  0  0  0
 51122  1  0  0  0
 51123  1  0  0  0
 52124  1  0  0  0
 52125  1  0  0  0
 53 54  1  0  0  0
 54 55  2  0  0  0
 54126  1  0  0  0
 55 57  1  0  0  0
 55127  1  0  0  0
 56 69  2  0  0  0
 57 58  2  0  0  0
 57128  1  0  0  0
 58129  1  0  0  0
 59 60  1  0  0  0
 59 61  1  0  0  0
 59 62  1  0  0  0
 60130  1  0  0  0
 60131  1  0  0  0
 60132  1  0  0  0
 61133  1  0  0  0
 61134  1  0  0  0
 61135  1  0  0  0
 62136  1  0  0  0
 62137  1  0  0  0
 62138  1  0  0  0
 63 65  1  0  0  0
 63139  1  0  0  0
 63140  1  0  0  0
 63141  1  0  0  0
 64142  1  0  0  0
 65143  1  0  0  0
 68 80  1  0  0  0
 71 72  2  0  0  0
 71 74  1  0  0  0
 71 81  1  0  0  0
 72 76  1  0  0  0
 72 84  1  0  0  0
 73 81  2  0  0  0
 73 83  1  0  0  0
 73 84  1  0  0  0
 74144  1  0  0  0
 74145  1  0  0  0
 74146  1  0  0  0
 75 83  1  0  0  0
 75147  1  0  0  0
 75148  1  0  0  0
 75149  1  0  0  0
 76 78  1  0  0  0
 76150  1  0  0  0
 76151  1  0  0  0
 77 79  1  0  0  0
 77 80  1  0  0  0
 77152  1  0  0  0
 77153  1  0  0  0
 78 82  1  0  0  0
 78154  1  0  0  0
 78155  1  0  0  0
 79 83  1  0  0  0
 79156  1  0  0  0
 79157  1  0  0  0
 80158  1  0  0  0
 80159  1  0  0  0
 82160  1  0  0  0
M  ISO  4   1 100  68 101  80 101  82 100
M  END
> <chiral flag>
0

> <version>
0

> <s_m_source_file>
/data/baiqing/PycharmProjects/Reinvent-master-3.2/result/LINK_invent/BTK/process_docking_weight1_custom_sum_contain_oxygen_bond_distance_aromatic_linkinvent_7_9_3/rearranged_h_0047.sdf

> <i_m_source_file_index>
63

> <r_mmod_Potential_Energy-OPLS-2005>
-154.592041015625

> <r_mmod_Stretch_Energy-OPLS-2005>
34.3224792480469

> <r_mmod_Bend_Energy-OPLS-2005>
109.480598449707

> <r_mmod_Torsional_Energy-OPLS-2005>
189.227462768555

> <r_mmod_Improper_Torsional_Energy-OPLS-2005>
5.30894660949707

> <r_mmod_Van_der_Waal_Energy-OPLS-2005>
128.572113037109

> <r_mmod_Electrostatic_Energy-OPLS-2005>
-400.146331787109

> <r_mmod_Solvation_Energy-OPLS-2005>
-231.506912231445

> <b_mmod_Minimization_Converged-OPLS-2005>
0

> <r_mmod_RMS_Derivative-OPLS-2005>
3.17025327682495

$$$$
63
                    3D
 Structure written by MMmdl.
164172  0  0  1  0            999 V2000
  -30.6450  -14.5335   20.5651 C   0  0  0  0  0  0
  -30.4375  -12.3376   19.4331 C   0  0  0  0  0  0
  -29.5038  -12.5139   18.2167 C   0  0  0  0  0  0
  -28.0181  -12.3822   18.6185 C   0  0  0  0  0  0
  -27.6634  -13.2070   19.8854 C   0  0  2  0  0  0
  -28.7097  -12.9690   20.9979 C   0  0  0  0  0  0
  -25.2586  -13.8159   20.5702 C   0  0  0  0  0  0
  -24.1840  -13.0434   20.9205 C   0  0  0  0  0  0
  -24.6390  -11.6900   20.8764 C   0  0  0  0  0  0
  -23.9049  -10.4284   21.0432 C   0  0  0  0  0  0
  -24.3594   -9.4186   21.9210 C   0  0  0  0  0  0
  -23.6262   -8.2224   22.0764 C   0  0  0  0  0  0
  -22.4252   -8.0277   21.3548 C   0  0  0  0  0  0
  -21.9887   -9.0256   20.4669 C   0  0  0  0  0  0
  -22.7211  -10.2134   20.3081 C   0  0  0  0  0  0
  -21.6838   -6.0728   22.5268 C   0  0  0  0  0  0
  -21.4011   -6.5639   23.8198 C   0  0  0  0  0  0
  -21.3654   -5.6797   24.9164 C   0  0  0  0  0  0
  -21.6035   -4.3056   24.7219 C   0  0  0  0  0  0
  -21.8814   -3.8148   23.4340 C   0  0  0  0  0  0
  -21.9172   -4.6958   22.3391 C   0  0  0  0  0  0
  -22.7861  -13.5243   21.1865 C   0  0  0  0  0  0
  -22.1626   -4.2143   21.0964 F   0  0  0  0  0  0
  -21.5624   -3.4535   25.7728 F   0  0  0  0  0  0
  -30.0277  -13.3202   20.4508 N   0  0  0  0  0  0
  -26.3030  -12.9322   20.3428 N   0  0  0  0  0  0
  -25.9319  -11.6488   20.5800 N   0  0  0  0  0  0
  -22.0506  -12.8246   22.0434 N   0  0  0  0  0  0
  -25.4304  -15.1867   20.4076 N   0  0  0  0  0  0
  -31.7682  -14.7244   20.0887 O   0  0  0  0  0  0
  -21.6621   -6.8871   21.4229 O   0  0  0  0  0  0
  -22.3546  -14.5542   20.6697 O   0  0  0  0  0  0
  -24.6179  -31.8663   23.2074 C   0  0  0  0  0  0
  -25.9060  -32.4813   23.8383 C   0  0  1  0  0  0
  -27.2321  -27.4090   20.0988 C   0  0  0  0  0  0
  -25.5913  -33.8614   24.2317 N   0  0  0  0  0  0
  -23.4058  -30.4901   21.5500 C   0  0  2  0  0  0
  -24.8505  -28.9512   20.1148 C   0  0  0  0  0  0
  -22.7427  -29.4656   22.4985 C   0  0  0  0  0  0
  -18.0274  -28.1382   22.8501 C   0  0  0  0  0  0
  -24.1484  -36.7305   23.2637 C   0  0  0  0  0  0
  -25.9367  -30.8251   21.3627 C   0  0  0  0  0  0
  -26.0135  -29.4575   20.7086 C   0  0  0  0  0  0
  -27.2079  -28.6971   20.6903 C   0  0  0  0  0  0
  -26.0523  -26.9271   19.4903 C   0  0  0  0  0  0
  -24.8660  -27.6872   19.5006 C   0  0  0  0  0  0
  -23.6137  -29.8213   20.1654 C   0  0  0  0  0  0
  -25.4107  -36.3110   24.0339 C   0  0  1  0  0  0
  -20.5870  -28.3671   23.1315 C   0  0  2  0  0  0
  -20.6768  -26.9401   22.5422 C   0  0  0  0  0  0
  -19.5746  -26.6390   21.5217 C   0  0  0  0  0  0
  -18.1923  -26.7928   22.1627 C   0  0  0  0  0  0
  -19.1526  -28.8842   23.2907 C   0  0  0  0  0  0
  -18.9448  -30.1449   23.8917 C   0  0  0  0  0  0
  -17.6449  -30.6587   24.0567 C   0  0  0  0  0  0
  -25.9040  -34.9478   23.5123 C   0  0  0  0  0  0
  -16.5342  -29.9087   23.6328 C   0  0  0  0  0  0
  -16.7262  -28.6504   23.0352 C   0  0  0  0  0  0
  -26.4478  -31.6600   25.0723 C   0  0  0  0  0  0
  -25.3738  -31.3706   26.1467 C   0  0  0  0  0  0
  -27.0309  -30.3046   24.6109 C   0  0  0  0  0  0
  -27.6067  -32.4316   25.7472 C   0  0  0  0  0  0
  -27.5576  -37.1806   24.8466 C   0  0  0  0  0  0
  -21.4152  -29.3034   22.3720 N   0  0  0  0  0  0
  -26.4289  -37.3799   23.9412 N   0  0  0  0  0  0
  -24.6719  -31.0761   22.0976 N   0  0  0  0  0  0
  -23.4189  -28.8196   23.3035 O   0  0  0  0  0  0
  -28.4006  -26.6647   20.0938 O   0  0  0  0  0  0
  -26.5603  -34.8928   22.4683 O   0  0  0  0  0  0
  -23.5370  -32.1409   23.7471 O   0  0  0  0  0  0
  -29.5293  -24.9409   18.1329 C   0  0  0  0  0  0
  -28.9638  -24.3501   19.2751 C   0  0  0  0  0  0
  -29.0256  -22.9273   19.3299 C   0  0  0  0  0  0
  -30.0642  -22.8928   17.2835 C   0  0  0  0  0  0
  -30.6640  -22.0713   16.1643 C   0  0  0  0  0  0
  -27.9605  -18.0428   21.5802 C   0  0  0  0  0  0
  -28.3128  -25.2393   20.3471 C   0  0  0  0  0  0
  -28.4156  -22.0551   20.4342 C   0  0  0  0  0  0
  -29.9107  -15.7562   21.2049 C   0  0  0  0  0  0
  -29.3002  -20.8814   20.9778 C   0  0  0  0  0  0
  -29.8963  -17.0740   20.3423 C   0  0  0  0  0  0
  -29.3089  -19.5385   20.1633 C   0  0  0  0  0  0
  -30.0770  -24.2111   17.1426 N   0  0  0  0  0  0
  -29.5618  -22.2243   18.3127 N   0  0  0  0  0  0
  -29.3114  -18.2942   21.0132 N   0  3  1  0  0  0
  -31.4789  -12.4567   19.1301 H   0  0  0  0  0  0
  -30.3604  -11.3261   19.8357 H   0  0  0  0  0  0
  -29.7474  -11.7803   17.4475 H   0  0  0  0  0  0
  -29.6742  -13.4945   17.7704 H   0  0  0  0  0  0
  -27.8115  -11.3267   18.7954 H   0  0  0  0  0  0
  -27.3776  -12.6794   17.7881 H   0  0  0  0  0  0
  -27.7094  -14.2578   19.6026 H   0  0  0  0  0  0
  -28.7047  -11.9184   21.2915 H   0  0  0  0  0  0
  -28.4736  -13.5087   21.9140 H   0  0  0  0  0  0
  -25.2736   -9.5630   22.4791 H   0  0  0  0  0  0
  -23.9961   -7.4585   22.7459 H   0  0  0  0  0  0
  -21.0817   -8.8757   19.8979 H   0  0  0  0  0  0
  -22.3660  -10.9659   19.6187 H   0  0  0  0  0  0
  -21.2021   -7.6154   23.9678 H   0  0  0  0  0  0
  -21.1486   -6.0559   25.9058 H   0  0  0  0  0  0
  -22.0613   -2.7618   23.2843 H   0  0  0  0  0  0
  -22.4141  -11.9927   22.4844 H   0  0  0  0  0  0
  -21.1103  -13.1239   22.2594 H   0  0  0  0  0  0
  -24.6474  -15.8273   20.4728 H   0  0  0  0  0  0
  -26.2511  -15.6005   19.9882 H   0  0  0  0  0  0
  -26.7136  -32.5516   23.1153 H   0  0  0  0  0  0
  -25.0091  -33.9763   25.0483 H   0  0  0  0  0  0
  -22.6955  -31.3082   21.4112 H   0  0  0  0  0  0
  -23.3749  -35.9633   23.3310 H   0  0  0  0  0  0
  -24.3574  -36.8908   22.2048 H   0  0  0  0  0  0
  -23.7227  -37.6512   23.6638 H   0  0  0  0  0  0
  -26.0515  -31.5900   20.5933 H   0  0  0  0  0  0
  -26.8232  -30.8780   21.9830 H   0  0  0  0  0  0
  -28.1075  -29.0901   21.1432 H   0  0  0  0  0  0
  -26.0434  -25.9671   18.9950 H   0  0  0  0  0  0
  -23.9723  -27.2952   19.0339 H   0  0  0  0  0  0
  -23.7232  -30.5950   19.4049 H   0  0  0  0  0  0
  -22.7367  -29.2439   19.8697 H   0  0  0  0  0  0
  -25.1283  -36.1971   25.0834 H   0  0  0  0  0  0
  -20.9966  -28.3234   24.1433 H   0  0  0  0  0  0
  -20.5678  -26.2273   23.3609 H   0  0  0  0  0  0
  -21.6635  -26.7447   22.1205 H   0  0  0  0  0  0
  -19.6895  -25.6304   21.1233 H   0  0  0  0  0  0
  -19.6679  -27.3217   20.6758 H   0  0  0  0  0  0
  -17.4194  -26.6696   21.4023 H   0  0  0  0  0  0
  -18.0307  -26.0059   22.9013 H   0  0  0  0  0  0
  -19.7923  -30.7265   24.2297 H   0  0  0  0  0  0
  -17.4999  -31.6268   24.5165 H   0  0  0  0  0  0
  -15.5341  -30.2994   23.7637 H   0  0  0  0  0  0
  -15.8667  -28.0828   22.7056 H   0  0  0  0  0  0
  -24.5911  -30.7059   25.7789 H   0  0  0  0  0  0
  -24.8930  -32.2865   26.4921 H   0  0  0  0  0  0
  -25.8084  -30.8862   27.0223 H   0  0  0  0  0  0
  -26.2857  -29.6809   24.1160 H   0  0  0  0  0  0
  -27.4080  -29.7281   25.4566 H   0  0  0  0  0  0
  -27.8693  -30.4372   23.9264 H   0  0  0  0  0  0
  -27.2703  -33.3611   26.2082 H   0  0  0  0  0  0
  -28.3851  -32.6886   25.0272 H   0  0  0  0  0  0
  -28.0769  -31.8423   26.5355 H   0  0  0  0  0  0
  -28.2614  -38.0086   24.7518 H   0  0  0  0  0  0
  -28.1056  -36.2625   24.6292 H   0  0  0  0  0  0
  -27.2298  -37.1463   25.8871 H   0  0  0  0  0  0
  -20.9311  -29.8747   21.6936 H   0  0  0  0  0  0
  -26.0180  -38.2880   24.1413 H   0  0  0  0  0  0
  -29.5380  -26.0109   17.9868 H   0  0  0  0  0  0
  -31.3184  -22.6736   15.5334 H   0  0  0  0  0  0
  -29.8731  -21.6590   15.5389 H   0  0  0  0  0  0
  -31.2496  -21.2439   16.5648 H   0  0  0  0  0  0
  -27.9875  -17.3141   22.3898 H   0  0  0  0  0  0
  -27.2809  -17.6728   20.8118 H   0  0  0  0  0  0
  -27.5153  -18.9453   21.9963 H   0  0  0  0  0  0
  -28.8462  -25.0595   21.2814 H   0  0  0  0  0  0
  -27.2926  -24.8987   20.5247 H   0  0  0  0  0  0
  -27.4533  -21.6785   20.0881 H   0  0  0  0  0  0
  -28.1787  -22.7018   21.2781 H   0  0  0  0  0  0
  -28.8807  -15.5022   21.4317 H   0  0  0  0  0  0
  -30.3944  -15.9509   22.1622 H   0  0  0  0  0  0
  -28.9340  -20.6739   21.9819 H   0  0  0  0  0  0
  -30.3220  -21.2316   21.1279 H   0  0  0  0  0  0
  -29.3405  -16.8843   19.4222 H   0  0  0  0  0  0
  -30.9157  -17.3123   20.0364 H   0  0  0  0  0  0
  -30.1888  -19.5428   19.5185 H   0  0  0  0  0  0
  -28.4556  -19.5013   19.4839 H   0  0  0  0  0  0
  -29.9219  -18.4973   21.7910 H   0  0  0  0  0  0
  1 25  1  0  0  0
  1 30  2  0  0  0
  1 79  1  0  0  0
  2  3  1  0  0  0
  2 25  1  0  0  0
  2 86  1  0  0  0
  2 87  1  0  0  0
  3  4  1  0  0  0
  3 88  1  0  0  0
  3 89  1  0  0  0
  4  5  1  0  0  0
  4 90  1  0  0  0
  4 91  1  0  0  0
  5  6  1  0  0  0
  5 26  1  0  0  0
  5 92  1  0  0  0
  6 25  1  0  0  0
  6 93  1  0  0  0
  6 94  1  0  0  0
  7  8  2  0  0  0
  7 26  1  0  0  0
  7 29  1  0  0  0
  8  9  1  0  0  0
  8 22  1  0  0  0
  9 10  1  0  0  0
  9 27  2  0  0  0
 10 11  2  0  0  0
 10 15  1  0  0  0
 11 12  1  0  0  0
 11 95  1  0  0  0
 12 13  2  0  0  0
 12 96  1  0  0  0
 13 14  1  0  0  0
 13 31  1  0  0  0
 14 15  2  0  0  0
 14 97  1  0  0  0
 15 98  1  0  0  0
 16 17  2  0  0  0
 16 21  1  0  0  0
 16 31  1  0  0  0
 17 18  1  0  0  0
 17 99  1  0  0  0
 18 19  2  0  0  0
 18100  1  0  0  0
 19 20  1  0  0  0
 19 24  1  0  0  0
 20 21  2  0  0  0
 20101  1  0  0  0
 21 23  1  0  0  0
 22 28  1  0  0  0
 22 32  2  0  0  0
 26 27  1  0  0  0
 28102  1  0  0  0
 28103  1  0  0  0
 29104  1  0  0  0
 29105  1  0  0  0
 33 34  1  0  0  0
 33 66  1  0  0  0
 33 70  2  0  0  0
 34 36  1  0  0  0
 34 59  1  0  0  0
 34106  1  0  0  0
 35 44  2  0  0  0
 35 45  1  0  0  0
 35 68  1  0  0  0
 36 56  1  0  0  0
 36107  1  0  0  0
 37 39  1  0  0  0
 37 47  1  0  0  0
 37 66  1  0  0  0
 37108  1  0  0  0
 38 43  2  0  0  0
 38 46  1  0  0  0
 38 47  1  0  0  0
 39 64  1  0  0  0
 39 67  2  0  0  0
 40 52  1  0  0  0
 40 53  2  0  0  0
 40 58  1  0  0  0
 41109  1  0  0  0
 41110  1  0  0  0
 41111  1  0  0  0
 41 48  1  0  0  0
 42 43  1  0  0  0
 42 66  1  0  0  0
 42112  1  0  0  0
 42113  1  0  0  0
 43 44  1  0  0  0
 44114  1  0  0  0
 45 46  2  0  0  0
 45115  1  0  0  0
 46116  1  0  0  0
 47117  1  0  0  0
 47118  1  0  0  0
 48 56  1  0  0  0
 48 65  1  0  0  0
 48119  1  0  0  0
 49 50  1  0  0  0
 49 53  1  0  0  0
 49 64  1  0  0  0
 49120  1  0  0  0
 50 51  1  0  0  0
 50121  1  0  0  0
 50122  1  0  0  0
 51 52  1  0  0  0
 51123  1  0  0  0
 51124  1  0  0  0
 52125  1  0  0  0
 52126  1  0  0  0
 53 54  1  0  0  0
 54 55  2  0  0  0
 54127  1  0  0  0
 55 57  1  0  0  0
 55128  1  0  0  0
 56 69  2  0  0  0
 57 58  2  0  0  0
 57129  1  0  0  0
 58130  1  0  0  0
 59 60  1  0  0  0
 59 61  1  0  0  0
 59 62  1  0  0  0
 60131  1  0  0  0
 60132  1  0  0  0
 60133  1  0  0  0
 61134  1  0  0  0
 61135  1  0  0  0
 61136  1  0  0  0
 62137  1  0  0  0
 62138  1  0  0  0
 62139  1  0  0  0
 63 65  1  0  0  0
 63140  1  0  0  0
 63141  1  0  0  0
 63142  1  0  0  0
 64143  1  0  0  0
 65144  1  0  0  0
 68 77  1  0  0  0
 71 72  2  0  0  0
 71 83  1  0  0  0
 71145  1  0  0  0
 72 73  1  0  0  0
 72 77  1  0  0  0
 73 78  1  0  0  0
 73 84  2  0  0  0
 74 75  1  0  0  0
 74 83  2  0  0  0
 74 84  1  0  0  0
 75146  1  0  0  0
 75147  1  0  0  0
 75148  1  0  0  0
 76149  1  0  0  0
 76150  1  0  0  0
 76151  1  0  0  0
 76 85  1  0  0  0
 77152  1  0  0  0
 77153  1  0  0  0
 78 80  1  0  0  0
 78154  1  0  0  0
 78155  1  0  0  0
 79 81  1  0  0  0
 79156  1  0  0  0
 79157  1  0  0  0
 80 82  1  0  0  0
 80158  1  0  0  0
 80159  1  0  0  0
 81 85  1  0  0  0
 81160  1  0  0  0
 81161  1  0  0  0
 82 85  1  0  0  0
 82162  1  0  0  0
 82163  1  0  0  0
 85164  1  0  0  0
M  CHG  1  85   1
M  ISO  4   1 100  68 101  77 101  79 100
M  END
> <chiral flag>
0

> <version>
0

> <s_m_source_file>
/data/baiqing/PycharmProjects/Reinvent-master-3.2/result/LINK_invent/BTK/process_docking_weight1_custom_sum_contain_oxygen_bond_distance_aromatic_linkinvent_7_9_3/rearranged_h_0047.sdf

> <i_m_source_file_index>
64

> <r_mmod_Potential_Energy-OPLS-2005>
-561.61669921875

> <r_mmod_Stretch_Energy-OPLS-2005>
49.7570419311523

> <r_mmod_Bend_Energy-OPLS-2005>
112.382659912109

> <r_mmod_Torsional_Energy-OPLS-2005>
209.525726318359

> <r_mmod_Improper_Torsional_Energy-OPLS-2005>
3.40483045578003

> <r_mmod_Van_der_Waal_Energy-OPLS-2005>
158.049423217773

> <r_mmod_Electrostatic_Energy-OPLS-2005>
-654.355224609375

> <r_mmod_Solvation_Energy-OPLS-2005>
-458.265686035156

> <b_mmod_Minimization_Converged-OPLS-2005>
0

> <r_mmod_RMS_Derivative-OPLS-2005>
1.89743208885193

$$$$
64
                    3D
 Structure written by MMmdl.
161168  0  0  1  0            999 V2000
  -30.6294  -14.7191   20.4033 C   0  0  0  0  0  0
  -30.4271  -12.4472   19.4415 C   0  0  0  0  0  0
  -29.4996  -12.5077   18.2138 C   0  0  0  0  0  0
  -28.0245  -12.3487   18.6334 C   0  0  0  0  0  0
  -27.6444  -13.2340   19.8520 C   0  0  2  0  0  0
  -28.6994  -13.1551   20.9777 C   0  0  0  0  0  0
  -25.2516  -13.8246   20.5717 C   0  0  0  0  0  0
  -24.1796  -13.0458   20.9253 C   0  0  0  0  0  0
  -24.6353  -11.6938   20.8729 C   0  0  0  0  0  0
  -23.9022  -10.4306   21.0365 C   0  0  0  0  0  0
  -24.3541   -9.4271   21.9182 C   0  0  0  0  0  0
  -23.6251   -8.2286   22.0737 C   0  0  0  0  0  0
  -22.4241   -8.0296   21.3562 C   0  0  0  0  0  0
  -21.9842   -9.0261   20.4638 C   0  0  0  0  0  0
  -22.7153  -10.2160   20.3088 C   0  0  0  0  0  0
  -21.6895   -6.0702   22.5280 C   0  0  0  0  0  0
  -21.3997   -6.5580   23.8210 C   0  0  0  0  0  0
  -21.3685   -5.6735   24.9160 C   0  0  0  0  0  0
  -21.6097   -4.3032   24.7228 C   0  0  0  0  0  0
  -21.8836   -3.8118   23.4350 C   0  0  0  0  0  0
  -21.9195   -4.6898   22.3400 C   0  0  0  0  0  0
  -22.7845  -13.5226   21.1933 C   0  0  0  0  0  0
  -22.1673   -4.2115   21.0991 F   0  0  0  0  0  0
  -21.5668   -3.4489   25.7726 F   0  0  0  0  0  0
  -29.9922  -13.5025   20.3785 N   0  0  0  0  0  0
  -26.2941  -12.9432   20.3352 N   0  0  0  0  0  0
  -25.9301  -11.6576   20.5776 N   0  0  0  0  0  0
  -22.0445  -12.8177   22.0451 N   0  0  0  0  0  0
  -25.4228  -15.1925   20.4129 N   0  0  0  0  0  0
  -31.8234  -14.8062   20.1168 O   0  0  0  0  0  0
  -21.6673   -6.8814   21.4246 O   0  0  0  0  0  0
  -22.3500  -14.5517   20.6788 O   0  0  0  0  0  0
  -24.6254  -31.8572   23.2010 C   0  0  0  0  0  0
  -25.9094  -32.4754   23.8283 C   0  0  1  0  0  0
  -27.1564  -27.2837   20.0872 C   0  0  0  0  0  0
  -25.5894  -33.8561   24.2226 N   0  0  0  0  0  0
  -23.4122  -30.4885   21.5462 C   0  0  2  0  0  0
  -24.8449  -28.9553   20.0966 C   0  0  0  0  0  0
  -22.7471  -29.4574   22.4923 C   0  0  0  0  0  0
  -18.0231  -28.1367   22.8495 C   0  0  0  0  0  0
  -24.1473  -36.7250   23.2627 C   0  0  0  0  0  0
  -25.9629  -30.7763   21.3744 C   0  0  0  0  0  0
  -26.0197  -29.4099   20.7081 C   0  0  0  0  0  0
  -27.1814  -28.5821   20.6913 C   0  0  0  0  0  0
  -25.9690  -26.9031   19.4347 C   0  0  0  0  0  0
  -24.8282  -27.7218   19.4404 C   0  0  0  0  0  0
  -23.6167  -29.8326   20.1583 C   0  0  0  0  0  0
  -25.4109  -36.3044   24.0317 C   0  0  1  0  0  0
  -20.5853  -28.3620   23.1338 C   0  0  2  0  0  0
  -20.6727  -26.9339   22.5441 C   0  0  0  0  0  0
  -19.5719  -26.6354   21.5229 C   0  0  0  0  0  0
  -18.1889  -26.7888   22.1639 C   0  0  0  0  0  0
  -19.1503  -28.8806   23.2887 C   0  0  0  0  0  0
  -18.9432  -30.1419   23.8904 C   0  0  0  0  0  0
  -17.6442  -30.6578   24.0556 C   0  0  0  0  0  0
  -25.9073  -34.9452   23.5079 C   0  0  0  0  0  0
  -16.5322  -29.9095   23.6337 C   0  0  0  0  0  0
  -16.7221  -28.6499   23.0368 C   0  0  0  0  0  0
  -26.4476  -31.6614   25.0697 C   0  0  0  0  0  0
  -25.3711  -31.3798   26.1422 C   0  0  0  0  0  0
  -27.0298  -30.3024   24.6204 C   0  0  0  0  0  0
  -27.5999  -32.4350   25.7464 C   0  0  0  0  0  0
  -27.5605  -37.1726   24.8437 C   0  0  0  0  0  0
  -21.4157  -29.2987   22.3730 N   0  0  0  0  0  0
  -26.4246  -37.3796   23.9464 N   0  0  0  0  0  0
  -24.6836  -31.0612   22.0925 N   0  0  0  0  0  0
  -23.4265  -28.8017   23.2843 O   0  0  0  0  0  0
  -28.2210  -26.3851   20.1882 O   0  0  0  0  0  0
  -26.5682  -34.8927   22.4669 O   0  0  0  0  0  0
  -23.5397  -32.1307   23.7405 O   0  0  0  0  0  0
  -27.2502  -23.6942   21.3350 C   0  0  0  0  0  0
  -26.3816  -23.3087   19.0091 C   0  0  0  0  0  0
  -27.8771  -20.5579   18.1026 C   0  0  0  0  0  0
  -29.1185  -18.3925   19.9934 C   0  0  0  0  0  0
  -30.2736  -17.3030   20.2612 C   0  0  0  0  0  0
  -29.4809  -19.9575   19.8771 C   0  0  0  0  0  0
  -28.7529  -22.4399   19.5394 C   0  0  0  0  0  0
  -28.2874  -25.0855   19.4593 C   0  0  0  0  0  0
  -27.6615  -23.6307   19.8419 C   0  0  0  0  0  0
  -29.8566  -15.8607   20.4847 N   0  0  0  0  0  0
  -28.3762  -20.9435   19.4646 N   0  3  1  0  0  0
  -31.4547  -12.5820   19.1146 H   0  0  0  0  0  0
  -30.3911  -11.4703   19.9246 H   0  0  0  0  0  0
  -29.7680  -11.7315   17.4916 H   0  0  0  0  0  0
  -29.6483  -13.4672   17.7201 H   0  0  0  0  0  0
  -27.8612  -11.2952   18.8660 H   0  0  0  0  0  0
  -27.3701  -12.5865   17.7906 H   0  0  0  0  0  0
  -27.6390  -14.2601   19.4884 H   0  0  0  0  0  0
  -28.7425  -12.1494   21.4062 H   0  0  0  0  0  0
  -28.4480  -13.8377   21.7883 H   0  0  0  0  0  0
  -25.2709   -9.5783   22.4734 H   0  0  0  0  0  0
  -24.0012   -7.4633   22.7367 H   0  0  0  0  0  0
  -21.0838   -8.8740   19.8846 H   0  0  0  0  0  0
  -22.3602  -10.9670   19.6178 H   0  0  0  0  0  0
  -21.1970   -7.6077   23.9674 H   0  0  0  0  0  0
  -21.1506   -6.0488   25.9042 H   0  0  0  0  0  0
  -22.0589   -2.7566   23.2910 H   0  0  0  0  0  0
  -22.4008  -11.9802   22.4855 H   0  0  0  0  0  0
  -21.1081  -13.1277   22.2611 H   0  0  0  0  0  0
  -24.6742  -15.8740   20.5319 H   0  0  0  0  0  0
  -26.2794  -15.6103   20.0782 H   0  0  0  0  0  0
  -26.7109  -32.5406   23.0961 H   0  0  0  0  0  0
  -24.9970  -33.9650   25.0303 H   0  0  0  0  0  0
  -22.6981  -31.3030   21.4111 H   0  0  0  0  0  0
  -23.3796  -35.9508   23.3176 H   0  0  0  0  0  0
  -24.3584  -36.8995   22.2062 H   0  0  0  0  0  0
  -23.7130  -37.6373   23.6730 H   0  0  0  0  0  0
  -26.1132  -31.5275   20.5981 H   0  0  0  0  0  0
  -26.8398  -30.8215   22.0078 H   0  0  0  0  0  0
  -28.0879  -28.9197   21.1719 H   0  0  0  0  0  0
  -25.8833  -25.9560   18.9334 H   0  0  0  0  0  0
  -23.9244  -27.4076   18.9344 H   0  0  0  0  0  0
  -23.7091  -30.5957   19.3849 H   0  0  0  0  0  0
  -22.7401  -29.2430   19.8857 H   0  0  0  0  0  0
  -25.1268  -36.1841   25.0800 H   0  0  0  0  0  0
  -20.9925  -28.3154   24.1469 H   0  0  0  0  0  0
  -20.5608  -26.2193   23.3599 H   0  0  0  0  0  0
  -21.6587  -26.7350   22.1241 H   0  0  0  0  0  0
  -19.6877  -25.6270   21.1219 H   0  0  0  0  0  0
  -19.6688  -27.3201   20.6789 H   0  0  0  0  0  0
  -17.4145  -26.6592   21.4048 H   0  0  0  0  0  0
  -18.0307  -26.0026   22.9044 H   0  0  0  0  0  0
  -19.7914  -30.7209   24.2311 H   0  0  0  0  0  0
  -17.5011  -31.6288   24.5106 H   0  0  0  0  0  0
  -15.5341  -30.3032   23.7664 H   0  0  0  0  0  0
  -15.8580  -28.0837   22.7149 H   0  0  0  0  0  0
  -24.5833  -30.7191   25.7782 H   0  0  0  0  0  0
  -24.8965  -32.3010   26.4835 H   0  0  0  0  0  0
  -25.8033  -30.8972   27.0204 H   0  0  0  0  0  0
  -26.2903  -29.6784   24.1190 H   0  0  0  0  0  0
  -27.3909  -29.7279   25.4744 H   0  0  0  0  0  0
  -27.8793  -30.4251   23.9484 H   0  0  0  0  0  0
  -27.2581  -33.3637   26.2029 H   0  0  0  0  0  0
  -28.3837  -32.6946   25.0346 H   0  0  0  0  0  0
  -28.0632  -31.8498   26.5404 H   0  0  0  0  0  0
  -28.2473  -38.0173   24.7750 H   0  0  0  0  0  0
  -28.1246  -36.2744   24.5917 H   0  0  0  0  0  0
  -27.2370  -37.0945   25.8830 H   0  0  0  0  0  0
  -20.9293  -29.8770   21.7026 H   0  0  0  0  0  0
  -26.0109  -38.2798   24.1695 H   0  0  0  0  0  0
  -26.6428  -22.8423   21.6424 H   0  0  0  0  0  0
  -26.6559  -24.5930   21.5395 H   0  0  0  0  0  0
  -28.1197  -23.7433   21.9881 H   0  0  0  0  0  0
  -26.0458  -22.2901   19.1963 H   0  0  0  0  0  0
  -26.5680  -23.3558   17.9356 H   0  0  0  0  0  0
  -25.5006  -23.9147   19.2216 H   0  0  0  0  0  0
  -28.6550  -20.0783   17.5036 H   0  0  0  0  0  0
  -27.5291  -21.3925   17.4939 H   0  0  0  0  0  0
  -27.0618  -19.8374   18.1762 H   0  0  0  0  0  0
  -28.3737  -18.3060   20.7818 H   0  0  0  0  0  0
  -28.6288  -18.0865   19.0684 H   0  0  0  0  0  0
  -30.8705  -17.6172   21.1192 H   0  0  0  0  0  0
  -30.9625  -17.3216   19.4135 H   0  0  0  0  0  0
  -30.3003  -20.0643   19.1629 H   0  0  0  0  0  0
  -29.8934  -20.2761   20.8337 H   0  0  0  0  0  0
  -29.5604  -22.5355   20.2666 H   0  0  0  0  0  0
  -29.2272  -22.6694   18.5785 H   0  0  0  0  0  0
  -28.1373  -25.2999   18.4010 H   0  0  0  0  0  0
  -29.3576  -24.9163   19.5636 H   0  0  0  0  0  0
  -28.8742  -15.7234   20.6631 H   0  0  0  0  0  0
  -27.6097  -20.8026   20.1095 H   0  0  0  0  0  0
  1 25  1  0  0  0
  1 30  2  0  0  0
  1 80  1  0  0  0
  2  3  1  0  0  0
  2 25  1  0  0  0
  2 82  1  0  0  0
  2 83  1  0  0  0
  3  4  1  0  0  0
  3 84  1  0  0  0
  3 85  1  0  0  0
  4  5  1  0  0  0
  4 86  1  0  0  0
  4 87  1  0  0  0
  5  6  1  0  0  0
  5 26  1  0  0  0
  5 88  1  0  0  0
  6 25  1  0  0  0
  6 89  1  0  0  0
  6 90  1  0  0  0
  7  8  2  0  0  0
  7 26  1  0  0  0
  7 29  1  0  0  0
  8  9  1  0  0  0
  8 22  1  0  0  0
  9 10  1  0  0  0
  9 27  2  0  0  0
 10 11  2  0  0  0
 10 15  1  0  0  0
 11 12  1  0  0  0
 11 91  1  0  0  0
 12 13  2  0  0  0
 12 92  1  0  0  0
 13 14  1  0  0  0
 13 31  1  0  0  0
 14 15  2  0  0  0
 14 93  1  0  0  0
 15 94  1  0  0  0
 16 17  2  0  0  0
 16 21  1  0  0  0
 16 31  1  0  0  0
 17 18  1  0  0  0
 17 95  1  0  0  0
 18 19  2  0  0  0
 18 96  1  0  0  0
 19 20  1  0  0  0
 19 24  1  0  0  0
 20 21  2  0  0  0
 20 97  1  0  0  0
 21 23  1  0  0  0
 22 28  1  0  0  0
 22 32  2  0  0  0
 26 27  1  0  0  0
 28 98  1  0  0  0
 28 99  1  0  0  0
 29100  1  0  0  0
 29101  1  0  0  0
 33 34  1  0  0  0
 33 66  1  0  0  0
 33 70  2  0  0  0
 34 36  1  0  0  0
 34 59  1  0  0  0
 34102  1  0  0  0
 35 44  2  0  0  0
 35 45  1  0  0  0
 35 68  1  0  0  0
 36 56  1  0  0  0
 36103  1  0  0  0
 37 39  1  0  0  0
 37 47  1  0  0  0
 37 66  1  0  0  0
 37104  1  0  0  0
 38 43  2  0  0  0
 38 46  1  0  0  0
 38 47  1  0  0  0
 39 64  1  0  0  0
 39 67  2  0  0  0
 40 52  1  0  0  0
 40 53  2  0  0  0
 40 58  1  0  0  0
 41105  1  0  0  0
 41106  1  0  0  0
 41107  1  0  0  0
 41 48  1  0  0  0
 42 43  1  0  0  0
 42 66  1  0  0  0
 42108  1  0  0  0
 42109  1  0  0  0
 43 44  1  0  0  0
 44110  1  0  0  0
 45 46  2  0  0  0
 45111  1  0  0  0
 46112  1  0  0  0
 47113  1  0  0  0
 47114  1  0  0  0
 48 56  1  0  0  0
 48 65  1  0  0  0
 48115  1  0  0  0
 49 50  1  0  0  0
 49 53  1  0  0  0
 49 64  1  0  0  0
 49116  1  0  0  0
 50 51  1  0  0  0
 50117  1  0  0  0
 50118  1  0  0  0
 51 52  1  0  0  0
 51119  1  0  0  0
 51120  1  0  0  0
 52121  1  0  0  0
 52122  1  0  0  0
 53 54  1  0  0  0
 54 55  2  0  0  0
 54123  1  0  0  0
 55 57  1  0  0  0
 55124  1  0  0  0
 56 69  2  0  0  0
 57 58  2  0  0  0
 57125  1  0  0  0
 58126  1  0  0  0
 59 60  1  0  0  0
 59 61  1  0  0  0
 59 62  1  0  0  0
 60127  1  0  0  0
 60128  1  0  0  0
 60129  1  0  0  0
 61130  1  0  0  0
 61131  1  0  0  0
 61132  1  0  0  0
 62133  1  0  0  0
 62134  1  0  0  0
 62135  1  0  0  0
 63 65  1  0  0  0
 63136  1  0  0  0
 63137  1  0  0  0
 63138  1  0  0  0
 64139  1  0  0  0
 65140  1  0  0  0
 68 78  1  0  0  0
 71141  1  0  0  0
 71142  1  0  0  0
 71143  1  0  0  0
 71 79  1  0  0  0
 72 79  1  0  0  0
 72144  1  0  0  0
 72145  1  0  0  0
 72146  1  0  0  0
 73147  1  0  0  0
 73148  1  0  0  0
 73149  1  0  0  0
 73 81  1  0  0  0
 74 75  1  0  0  0
 74 76  1  0  0  0
 74150  1  0  0  0
 74151  1  0  0  0
 75 80  1  0  0  0
 75152  1  0  0  0
 75153  1  0  0  0
 76 81  1  0  0  0
 76154  1  0  0  0
 76155  1  0  0  0
 77 79  1  0  0  0
 77 81  1  0  0  0
 77156  1  0  0  0
 77157  1  0  0  0
 78 79  1  0  0  0
 78158  1  0  0  0
 78159  1  0  0  0
 80160  1  0  0  0
 81161  1  0  0  0
M  CHG  1  81   1
M  ISO  4   1 100  68 101  78 101  80 100
M  END
> <chiral flag>
0

> <version>
0

> <s_m_source_file>
/data/baiqing/PycharmProjects/Reinvent-master-3.2/result/LINK_invent/BTK/process_docking_weight1_custom_sum_contain_oxygen_bond_distance_aromatic_linkinvent_7_9_3/rearranged_h_0047.sdf

> <i_m_source_file_index>
65

> <r_mmod_Potential_Energy-OPLS-2005>
86.7357482910156

> <r_mmod_Stretch_Energy-OPLS-2005>
116.224990844727

> <r_mmod_Bend_Energy-OPLS-2005>
195.487640380859

> <r_mmod_Torsional_Energy-OPLS-2005>
243.881301879883

> <r_mmod_Improper_Torsional_Energy-OPLS-2005>
6.38410377502441

> <r_mmod_Van_der_Waal_Energy-OPLS-2005>
125.53931427002

> <r_mmod_Electrostatic_Energy-OPLS-2005>
-225.404052734375

> <r_mmod_Solvation_Energy-OPLS-2005>
-458.756042480469

> <b_mmod_Minimization_Converged-OPLS-2005>
0

> <r_mmod_RMS_Derivative-OPLS-2005>
10.3633728027344

$$$$
65
                    3D
 Structure written by MMmdl.
158166  0  0  1  0            999 V2000
  -30.3998  -15.3479   20.3536 C   0  0  0  0  0  0
  -30.4263  -12.8640   19.5356 C   0  0  0  0  0  0
  -29.5330  -12.5962   18.2970 C   0  0  0  0  0  0
  -28.0842  -12.3027   18.7222 C   0  0  0  0  0  0
  -27.6007  -13.2817   19.8194 C   0  0  2  0  0  0
  -28.6304  -13.4922   20.9500 C   0  0  0  0  0  0
  -25.2319  -13.8271   20.5760 C   0  0  0  0  0  0
  -24.1681  -13.0458   20.9275 C   0  0  0  0  0  0
  -24.6359  -11.6948   20.8794 C   0  0  0  0  0  0
  -23.9066  -10.4299   21.0428 C   0  0  0  0  0  0
  -24.3601   -9.4194   21.9197 C   0  0  0  0  0  0
  -23.6267   -8.2246   22.0770 C   0  0  0  0  0  0
  -22.4255   -8.0281   21.3555 C   0  0  0  0  0  0
  -21.9889   -9.0260   20.4665 C   0  0  0  0  0  0
  -22.7230  -10.2140   20.3066 C   0  0  0  0  0  0
  -21.6867   -6.0712   22.5273 C   0  0  0  0  0  0
  -21.4020   -6.5623   23.8204 C   0  0  0  0  0  0
  -21.3656   -5.6776   24.9172 C   0  0  0  0  0  0
  -21.6057   -4.3037   24.7229 C   0  0  0  0  0  0
  -21.8810   -3.8125   23.4355 C   0  0  0  0  0  0
  -21.9187   -4.6933   22.3404 C   0  0  0  0  0  0
  -22.7696  -13.5200   21.1926 C   0  0  0  0  0  0
  -22.1663   -4.2117   21.0984 F   0  0  0  0  0  0
  -21.5630   -3.4527   25.7747 F   0  0  0  0  0  0
  -29.8467  -14.0269   20.3153 N   0  0  0  0  0  0
  -26.2747  -12.9550   20.3222 N   0  0  0  0  0  0
  -25.9289  -11.6654   20.5747 N   0  0  0  0  0  0
  -22.0337  -12.8210   22.0497 N   0  0  0  0  0  0
  -25.3990  -15.2012   20.4195 N   0  0  0  0  0  0
  -31.6275  -15.3180   20.1745 O   0  0  0  0  0  0
  -21.6630   -6.8866   21.4244 O   0  0  0  0  0  0
  -22.3379  -14.5492   20.6741 O   0  0  0  0  0  0
  -24.6675  -31.8197   23.1673 C   0  0  0  0  0  0
  -25.9351  -32.4550   23.8150 C   0  0  1  0  0  0
  -27.2066  -26.8694   20.2154 C   0  0  0  0  0  0
  -25.6033  -33.8369   24.2060 N   0  0  0  0  0  0
  -23.4834  -30.4306   21.5156 C   0  0  2  0  0  0
  -24.9348  -28.7994   20.1265 C   0  0  0  0  0  0
  -22.7685  -29.4426   22.4754 C   0  0  0  0  0  0
  -18.0335  -28.1412   22.8472 C   0  0  0  0  0  0
  -24.1500  -36.7149   23.2637 C   0  0  0  0  0  0
  -26.0542  -30.6093   21.4048 C   0  0  0  0  0  0
  -26.1202  -29.1885   20.7635 C   0  0  0  0  0  0
  -27.2545  -28.2478   20.7766 C   0  0  0  0  0  0
  -25.9893  -26.6450   19.5344 C   0  0  0  0  0  0
  -24.8955  -27.5475   19.4928 C   0  0  0  0  0  0
  -23.7299  -29.7396   20.1453 C   0  0  0  0  0  0
  -25.4147  -36.2933   24.0293 C   0  0  1  0  0  0
  -20.5960  -28.3766   23.1174 C   0  0  2  0  0  0
  -20.6801  -26.9448   22.5396 C   0  0  0  0  0  0
  -19.5772  -26.6383   21.5209 C   0  0  0  0  0  0
  -18.1957  -26.7941   22.1628 C   0  0  0  0  0  0
  -19.1595  -28.8911   23.2809 C   0  0  0  0  0  0
  -18.9507  -30.1499   23.8846 C   0  0  0  0  0  0
  -17.6499  -30.6595   24.0566 C   0  0  0  0  0  0
  -25.9135  -34.9318   23.4993 C   0  0  0  0  0  0
  -16.5391  -29.9094   23.6336 C   0  0  0  0  0  0
  -16.7318  -28.6514   23.0358 C   0  0  0  0  0  0
  -26.4601  -31.6505   25.0683 C   0  0  0  0  0  0
  -25.3731  -31.3769   26.1341 C   0  0  0  0  0  0
  -27.0511  -30.2876   24.6424 C   0  0  0  0  0  0
  -27.6087  -32.4301   25.7501 C   0  0  0  0  0  0
  -27.5569  -37.1727   24.8472 C   0  0  0  0  0  0
  -21.4358  -29.3050   22.3507 N   0  0  0  0  0  0
  -26.4284  -37.3674   23.9411 N   0  0  0  0  0  0
  -24.7560  -30.9827   22.0821 N   0  0  0  0  0  0
  -23.4202  -28.7994   23.3027 O   0  0  0  0  0  0
  -28.2221  -25.7621   20.1386 O   0  0  0  0  0  0
  -26.5711  -34.8855   22.4573 O   0  0  0  0  0  0
  -23.5741  -32.1203   23.6744 O   0  0  0  0  0  0
  -27.6437  -19.6829   19.7424 C   0  0  0  0  0  0
  -29.2208  -21.2976   20.5017 C   0  0  0  0  0  0
  -28.9574  -19.7890   20.2400 C   0  0  0  0  0  0
  -26.7861  -20.8072   19.5581 C   0  0  0  0  0  0
  -28.3023  -22.5244   20.2564 C   0  0  0  0  0  0
  -23.0658  -19.6369   19.9907 C   0  0  0  0  0  0
  -30.9604  -18.5212   19.2007 C   0  0  0  0  0  0
  -25.3369  -20.5418   19.1663 C   0  0  0  0  0  0
  -28.2823  -24.2230   20.7915 C   0  0  0  0  0  0
  -24.5239  -19.9673   20.3419 C   0  0  0  0  0  0
  -29.9465  -18.3229   20.3370 C   0  0  2  0  0  0
  -27.0936  -22.1236   19.7860 N   0  0  0  0  0  0
  -29.6454  -16.6511   20.3942 N   0  0  0  0  0  0
  -31.4465  -13.0682   19.2080 H   0  0  0  0  0  0
  -30.5018  -11.9711   20.1588 H   0  0  0  0  0  0
  -29.9319  -11.7721   17.7031 H   0  0  0  0  0  0
  -29.5483  -13.4746   17.6511 H   0  0  0  0  0  0
  -28.0504  -11.2807   19.1019 H   0  0  0  0  0  0
  -27.4185  -12.3307   17.8582 H   0  0  0  0  0  0
  -27.5034  -14.2377   19.3035 H   0  0  0  0  0  0
  -28.8193  -12.5678   21.4981 H   0  0  0  0  0  0
  -28.2526  -14.2112   21.6794 H   0  0  0  0  0  0
  -25.2752   -9.5659   22.4766 H   0  0  0  0  0  0
  -23.9967   -7.4631   22.7489 H   0  0  0  0  0  0
  -21.0825   -8.8782   19.8980 H   0  0  0  0  0  0
  -22.3694  -10.9671   19.6163 H   0  0  0  0  0  0
  -21.2029   -7.6124   23.9699 H   0  0  0  0  0  0
  -21.1491   -6.0516   25.9076 H   0  0  0  0  0  0
  -22.0591   -2.7586   23.2875 H   0  0  0  0  0  0
  -22.3927  -11.9875   22.4905 H   0  0  0  0  0  0
  -21.0958  -13.1278   22.2673 H   0  0  0  0  0  0
  -24.6382  -15.8600   20.5462 H   0  0  0  0  0  0
  -26.2418  -15.6416   20.0781 H   0  0  0  0  0  0
  -26.7422  -32.5080   23.0865 H   0  0  0  0  0  0
  -25.0222  -33.9471   25.0240 H   0  0  0  0  0  0
  -22.7964  -31.2596   21.3351 H   0  0  0  0  0  0
  -23.3791  -35.9453   23.3278 H   0  0  0  0  0  0
  -24.3577  -36.8813   22.2054 H   0  0  0  0  0  0
  -23.7222  -37.6310   23.6714 H   0  0  0  0  0  0
  -26.2317  -31.3401   20.6157 H   0  0  0  0  0  0
  -26.9162  -30.6808   22.0554 H   0  0  0  0  0  0
  -28.1631  -28.5538   21.2766 H   0  0  0  0  0  0
  -25.8599  -25.6952   19.0344 H   0  0  0  0  0  0
  -23.9975  -27.2450   18.9708 H   0  0  0  0  0  0
  -23.9011  -30.5002   19.3814 H   0  0  0  0  0  0
  -22.8379  -29.2012   19.8205 H   0  0  0  0  0  0
  -25.1343  -36.1709   25.0782 H   0  0  0  0  0  0
  -21.0069  -28.3383   24.1292 H   0  0  0  0  0  0
  -20.5664  -26.2409   23.3647 H   0  0  0  0  0  0
  -21.6661  -26.7399   22.1215 H   0  0  0  0  0  0
  -19.6935  -25.6281   21.1271 H   0  0  0  0  0  0
  -19.6690  -27.3167   20.6713 H   0  0  0  0  0  0
  -17.4224  -26.6702   21.4032 H   0  0  0  0  0  0
  -18.0358  -26.0081   22.9026 H   0  0  0  0  0  0
  -19.7980  -30.7336   24.2177 H   0  0  0  0  0  0
  -17.5049  -31.6259   24.5192 H   0  0  0  0  0  0
  -15.5388  -30.2988   23.7663 H   0  0  0  0  0  0
  -15.8724  -28.0813   22.7095 H   0  0  0  0  0  0
  -24.5918  -30.7116   25.7645 H   0  0  0  0  0  0
  -24.8933  -32.2993   26.4621 H   0  0  0  0  0  0
  -25.7987  -30.9014   27.0196 H   0  0  0  0  0  0
  -26.3211  -29.6526   24.1401 H   0  0  0  0  0  0
  -27.4024  -29.7234   25.5070 H   0  0  0  0  0  0
  -27.9145  -30.4040   23.9874 H   0  0  0  0  0  0
  -27.2662  -33.3634   26.1972 H   0  0  0  0  0  0
  -28.3988  -32.6801   25.0410 H   0  0  0  0  0  0
  -28.0676  -31.8496   26.5506 H   0  0  0  0  0  0
  -28.2561  -38.0044   24.7534 H   0  0  0  0  0  0
  -28.1102  -36.2571   24.6311 H   0  0  0  0  0  0
  -27.2296  -37.1366   25.8879 H   0  0  0  0  0  0
  -20.9622  -29.8743   21.6626 H   0  0  0  0  0  0
  -26.0117  -38.2725   24.1442 H   0  0  0  0  0  0
  -27.2655  -18.6983   19.5024 H   0  0  0  0  0  0
  -30.1851  -21.5232   20.9354 H   0  0  0  0  0  0
  -22.5440  -19.2294   20.8571 H   0  0  0  0  0  0
  -23.0050  -18.8943   19.1936 H   0  0  0  0  0  0
  -22.5164  -20.5221   19.6687 H   0  0  0  0  0  0
  -31.4685  -19.4816   19.3017 H   0  0  0  0  0  0
  -30.4588  -18.5188   18.2336 H   0  0  0  0  0  0
  -31.7299  -17.7539   19.1725 H   0  0  0  0  0  0
  -24.8690  -21.4619   18.8127 H   0  0  0  0  0  0
  -25.3212  -19.8509   18.3207 H   0  0  0  0  0  0
  -29.1793  -24.2706   21.4084 H   0  0  0  0  0  0
  -27.4745  -24.2415   21.5251 H   0  0  0  0  0  0
  -25.0131  -19.0635   20.7054 H   0  0  0  0  0  0
  -24.5433  -20.6780   21.1692 H   0  0  0  0  0  0
  -30.4947  -18.4819   21.2667 H   0  0  0  0  0  0
  -28.6573  -16.4789   20.5007 H   0  0  0  0  0  0
  1 25  1  0  0  0
  1 30  2  0  0  0
  1 83  1  0  0  0
  2  3  1  0  0  0
  2 25  1  0  0  0
  2 84  1  0  0  0
  2 85  1  0  0  0
  3  4  1  0  0  0
  3 86  1  0  0  0
  3 87  1  0  0  0
  4  5  1  0  0  0
  4 88  1  0  0  0
  4 89  1  0  0  0
  5  6  1  0  0  0
  5 26  1  0  0  0
  5 90  1  0  0  0
  6 25  1  0  0  0
  6 91  1  0  0  0
  6 92  1  0  0  0
  7  8  2  0  0  0
  7 26  1  0  0  0
  7 29  1  0  0  0
  8  9  1  0  0  0
  8 22  1  0  0  0
  9 10  1  0  0  0
  9 27  2  0  0  0
 10 11  2  0  0  0
 10 15  1  0  0  0
 11 12  1  0  0  0
 11 93  1  0  0  0
 12 13  2  0  0  0
 12 94  1  0  0  0
 13 14  1  0  0  0
 13 31  1  0  0  0
 14 15  2  0  0  0
 14 95  1  0  0  0
 15 96  1  0  0  0
 16 17  2  0  0  0
 16 21  1  0  0  0
 16 31  1  0  0  0
 17 18  1  0  0  0
 17 97  1  0  0  0
 18 19  2  0  0  0
 18 98  1  0  0  0
 19 20  1  0  0  0
 19 24  1  0  0  0
 20 21  2  0  0  0
 20 99  1  0  0  0
 21 23  1  0  0  0
 22 28  1  0  0  0
 22 32  2  0  0  0
 26 27  1  0  0  0
 28100  1  0  0  0
 28101  1  0  0  0
 29102  1  0  0  0
 29103  1  0  0  0
 33 34  1  0  0  0
 33 66  1  0  0  0
 33 70  2  0  0  0
 34 36  1  0  0  0
 34 59  1  0  0  0
 34104  1  0  0  0
 35 44  2  0  0  0
 35 45  1  0  0  0
 35 68  1  0  0  0
 36 56  1  0  0  0
 36105  1  0  0  0
 37 39  1  0  0  0
 37 47  1  0  0  0
 37 66  1  0  0  0
 37106  1  0  0  0
 38 43  2  0  0  0
 38 46  1  0  0  0
 38 47  1  0  0  0
 39 64  1  0  0  0
 39 67  2  0  0  0
 40 52  1  0  0  0
 40 53  2  0  0  0
 40 58  1  0  0  0
 41107  1  0  0  0
 41108  1  0  0  0
 41109  1  0  0  0
 41 48  1  0  0  0
 42 43  1  0  0  0
 42 66  1  0  0  0
 42110  1  0  0  0
 42111  1  0  0  0
 43 44  1  0  0  0
 44112  1  0  0  0
 45 46  2  0  0  0
 45113  1  0  0  0
 46114  1  0  0  0
 47115  1  0  0  0
 47116  1  0  0  0
 48 56  1  0  0  0
 48 65  1  0  0  0
 48117  1  0  0  0
 49 50  1  0  0  0
 49 53  1  0  0  0
 49 64  1  0  0  0
 49118  1  0  0  0
 50 51  1  0  0  0
 50119  1  0  0  0
 50120  1  0  0  0
 51 52  1  0  0  0
 51121  1  0  0  0
 51122  1  0  0  0
 52123  1  0  0  0
 52124  1  0  0  0
 53 54  1  0  0  0
 54 55  2  0  0  0
 54125  1  0  0  0
 55 57  1  0  0  0
 55126  1  0  0  0
 56 69  2  0  0  0
 57 58  2  0  0  0
 57127  1  0  0  0
 58128  1  0  0  0
 59 60  1  0  0  0
 59 61  1  0  0  0
 59 62  1  0  0  0
 60129  1  0  0  0
 60130  1  0  0  0
 60131  1  0  0  0
 61132  1  0  0  0
 61133  1  0  0  0
 61134  1  0  0  0
 62135  1  0  0  0
 62136  1  0  0  0
 62137  1  0  0  0
 63 65  1  0  0  0
 63138  1  0  0  0
 63139  1  0  0  0
 63140  1  0  0  0
 64141  1  0  0  0
 65142  1  0  0  0
 68 79  1  0  0  0
 71 73  2  0  0  0
 71 74  1  0  0  0
 71143  1  0  0  0
 72 73  1  0  0  0
 72 75  2  0  0  0
 72144  1  0  0  0
 73 81  1  0  0  0
 74 78  1  0  0  0
 74 82  2  0  0  0
 75 79  1  0  0  0
 75 82  1  0  0  0
 76 80  1  0  0  0
 76145  1  0  0  0
 76146  1  0  0  0
 76147  1  0  0  0
 77148  1  0  0  0
 77149  1  0  0  0
 77150  1  0  0  0
 77 81  1  0  0  0
 78 80  1  0  0  0
 78151  1  0  0  0
 78152  1  0  0  0
 79153  1  0  0  0
 79154  1  0  0  0
 80155  1  0  0  0
 80156  1  0  0  0
 81 83  1  0  0  0
 81157  1  0  0  0
 83158  1  0  0  0
M  ISO  4   1 100  68 101  79 101  83 100
M  END
> <chiral flag>
0

> <version>
0

> <s_m_source_file>
/data/baiqing/PycharmProjects/Reinvent-master-3.2/result/LINK_invent/BTK/process_docking_weight1_custom_sum_contain_oxygen_bond_distance_aromatic_linkinvent_7_9_3/rearranged_h_0047.sdf

> <i_m_source_file_index>
66

> <r_mmod_Potential_Energy-OPLS-2005>
1263.06457519531

> <r_mmod_Stretch_Energy-OPLS-2005>
652.348999023438

> <r_mmod_Bend_Energy-OPLS-2005>
491.213012695312

> <r_mmod_Torsional_Energy-OPLS-2005>
233.564804077148

> <r_mmod_Improper_Torsional_Energy-OPLS-2005>
6.48486566543579

> <r_mmod_Van_der_Waal_Energy-OPLS-2005>
120.597015380859

> <r_mmod_Electrostatic_Energy-OPLS-2005>
-556.532287597656

> <r_mmod_Solvation_Energy-OPLS-2005>
-222.684127807617

> <b_mmod_Minimization_Converged-OPLS-2005>
0

> <r_mmod_RMS_Derivative-OPLS-2005>
3.53917980194092

$$$$
66
                    3D
 Structure written by MMmdl.
160168  0  0  1  0            999 V2000
  -30.6648  -14.5616   20.5040 C   0  0  0  0  0  0
  -30.4222  -12.3522   19.4477 C   0  0  0  0  0  0
  -29.4962  -12.4944   18.2203 C   0  0  0  0  0  0
  -28.0176  -12.3536   18.6285 C   0  0  0  0  0  0
  -27.6465  -13.2187   19.8660 C   0  0  2  0  0  0
  -28.6878  -13.0732   20.9967 C   0  0  0  0  0  0
  -25.2519  -13.8197   20.5733 C   0  0  0  0  0  0
  -24.1779  -13.0443   20.9208 C   0  0  0  0  0  0
  -24.6351  -11.6933   20.8738 C   0  0  0  0  0  0
  -23.9008  -10.4311   21.0394 C   0  0  0  0  0  0
  -24.3568   -9.4241   21.9189 C   0  0  0  0  0  0
  -23.6267   -8.2251   22.0733 C   0  0  0  0  0  0
  -22.4251   -8.0274   21.3533 C   0  0  0  0  0  0
  -21.9880   -9.0235   20.4638 C   0  0  0  0  0  0
  -22.7170  -10.2145   20.3059 C   0  0  0  0  0  0
  -21.6865   -6.0728   22.5262 C   0  0  0  0  0  0
  -21.4026   -6.5629   23.8198 C   0  0  0  0  0  0
  -21.3661   -5.6779   24.9169 C   0  0  0  0  0  0
  -21.6051   -4.3044   24.7222 C   0  0  0  0  0  0
  -21.8832   -3.8132   23.4346 C   0  0  0  0  0  0
  -21.9203   -4.6950   22.3398 C   0  0  0  0  0  0
  -22.7824  -13.5252   21.1899 C   0  0  0  0  0  0
  -22.1678   -4.2127   21.0979 F   0  0  0  0  0  0
  -21.5620   -3.4537   25.7744 F   0  0  0  0  0  0
  -30.0046  -13.3743   20.4223 N   0  0  0  0  0  0
  -26.2921  -12.9355   20.3340 N   0  0  0  0  0  0
  -25.9263  -11.6504   20.5725 N   0  0  0  0  0  0
  -22.0462  -12.8206   22.0452 N   0  0  0  0  0  0
  -25.4293  -15.1908   20.4213 N   0  0  0  0  0  0
  -31.8581  -14.6604   20.2146 O   0  0  0  0  0  0
  -21.6641   -6.8869   21.4223 O   0  0  0  0  0  0
  -22.3501  -14.5564   20.6810 O   0  0  0  0  0  0
  -24.6205  -31.8641   23.2020 C   0  0  0  0  0  0
  -25.9077  -32.4801   23.8375 C   0  0  1  0  0  0
  -27.2083  -27.3527   20.1584 C   0  0  0  0  0  0
  -25.5884  -33.8593   24.2297 N   0  0  0  0  0  0
  -23.4143  -30.4826   21.5475 C   0  0  2  0  0  0
  -24.8545  -28.9280   20.1283 C   0  0  0  0  0  0
  -22.7455  -29.4641   22.5003 C   0  0  0  0  0  0
  -18.0270  -28.1318   22.8640 C   0  0  0  0  0  0
  -24.1491  -36.7312   23.2660 C   0  0  0  0  0  0
  -25.9458  -30.8088   21.3625 C   0  0  0  0  0  0
  -26.0179  -29.4309   20.7240 C   0  0  0  0  0  0
  -27.2004  -28.6484   20.7357 C   0  0  0  0  0  0
  -26.0323  -26.8790   19.5431 C   0  0  0  0  0  0
  -24.8586  -27.6566   19.5300 C   0  0  0  0  0  0
  -23.6239  -29.8033   20.1652 C   0  0  0  0  0  0
  -25.4114  -36.3102   24.0353 C   0  0  1  0  0  0
  -20.5865  -28.3691   23.1372 C   0  0  2  0  0  0
  -20.6713  -26.9430   22.5468 C   0  0  0  0  0  0
  -19.5768  -26.6588   21.5179 C   0  0  0  0  0  0
  -18.1971  -26.7926   22.1669 C   0  0  0  0  0  0
  -19.1525  -28.8855   23.2947 C   0  0  0  0  0  0
  -18.9420  -30.1518   23.8833 C   0  0  0  0  0  0
  -17.6435  -30.6660   24.0379 C   0  0  0  0  0  0
  -25.9018  -34.9467   23.5137 C   0  0  0  0  0  0
  -16.5329  -29.9103   23.6218 C   0  0  0  0  0  0
  -16.7257  -28.6399   23.0480 C   0  0  0  0  0  0
  -26.4436  -31.6594   25.0736 C   0  0  0  0  0  0
  -25.3681  -31.3711   26.1490 C   0  0  0  0  0  0
  -27.0286  -30.3057   24.6102 C   0  0  0  0  0  0
  -27.6012  -32.4337   25.7486 C   0  0  0  0  0  0
  -27.5579  -37.1796   24.8469 C   0  0  0  0  0  0
  -21.4162  -29.3085   22.3811 N   0  0  0  0  0  0
  -26.4285  -37.3793   23.9416 N   0  0  0  0  0  0
  -24.6800  -31.0663   22.0974 N   0  0  0  0  0  0
  -23.4226  -28.8145   23.3019 O   0  0  0  0  0  0
  -28.3432  -26.5619   20.1616 O   0  0  0  0  0  0
  -26.5603  -34.8926   22.4704 O   0  0  0  0  0  0
  -23.5374  -32.1432   23.7343 O   0  0  0  0  0  0
  -28.5944  -19.1747   21.1995 C   0  0  0  0  0  0
  -28.8814  -17.9369   20.6386 C   0  0  0  0  0  0
  -28.3188  -19.3824   19.0111 C   0  0  0  0  0  0
  -28.0348  -19.9015   17.6410 C   0  0  0  0  0  0
  -28.6853  -22.4861   22.3170 C   0  0  0  0  0  0
  -29.2713  -16.5781   21.2382 C   0  0  0  0  0  0
  -27.7931  -24.0203   20.3736 C   0  0  0  0  0  0
  -27.6066  -21.4189   20.2697 C   0  0  0  0  0  0
  -28.3222  -25.3664   21.0008 C   0  0  0  0  0  0
  -28.4483  -22.6349   20.7988 C   0  0  2  0  0  0
  -28.2119  -20.0404   20.1840 N   0  0  0  0  0  0
  -28.6852  -18.1224   19.2911 N   0  3  0  0  0  0
  -29.9107  -15.6598   20.2722 N   0  0  0  0  0  0
  -31.4631  -12.4737   19.1407 H   0  0  0  0  0  0
  -30.3447  -11.3566   19.8870 H   0  0  0  0  0  0
  -29.7462  -11.7464   17.4683 H   0  0  0  0  0  0
  -29.6586  -13.4632   17.7415 H   0  0  0  0  0  0
  -27.8363  -11.3014   18.8409 H   0  0  0  0  0  0
  -27.3694  -12.6042   17.7903 H   0  0  0  0  0  0
  -27.6641  -14.2587   19.5377 H   0  0  0  0  0  0
  -28.6696  -12.0592   21.3959 H   0  0  0  0  0  0
  -28.4471  -13.7296   21.8348 H   0  0  0  0  0  0
  -25.2726   -9.5725   22.4768 H   0  0  0  0  0  0
  -23.9999   -7.4636   22.7432 H   0  0  0  0  0  0
  -21.0823   -8.8735   19.8926 H   0  0  0  0  0  0
  -22.3610  -10.9678   19.6161 H   0  0  0  0  0  0
  -21.2032   -7.6142   23.9696 H   0  0  0  0  0  0
  -21.1461   -6.0525   25.9075 H   0  0  0  0  0  0
  -22.0608   -2.7588   23.2861 H   0  0  0  0  0  0
  -22.4059  -11.9846   22.4811 H   0  0  0  0  0  0
  -21.1081  -13.1222   22.2694 H   0  0  0  0  0  0
  -24.6795  -15.8574   20.5712 H   0  0  0  0  0  0
  -26.2839  -15.6170   20.0862 H   0  0  0  0  0  0
  -26.7162  -32.5476   23.1158 H   0  0  0  0  0  0
  -24.9994  -33.9767   25.0415 H   0  0  0  0  0  0
  -22.7076  -31.2987   21.3953 H   0  0  0  0  0  0
  -23.3734  -35.9644   23.3307 H   0  0  0  0  0  0
  -24.3579  -36.8934   22.2060 H   0  0  0  0  0  0
  -23.7209  -37.6522   23.6653 H   0  0  0  0  0  0
  -26.0581  -31.5593   20.5789 H   0  0  0  0  0  0
  -26.8367  -30.8815   21.9746 H   0  0  0  0  0  0
  -28.0938  -29.0197   21.2210 H   0  0  0  0  0  0
  -26.0090  -25.8994   19.0838 H   0  0  0  0  0  0
  -23.9602  -27.2640   19.0735 H   0  0  0  0  0  0
  -23.7461  -30.5676   19.3989 H   0  0  0  0  0  0
  -22.7480  -29.2211   19.8707 H   0  0  0  0  0  0
  -25.1260  -36.2002   25.0830 H   0  0  0  0  0  0
  -20.9939  -28.3178   24.1490 H   0  0  0  0  0  0
  -20.5468  -26.2299   23.3653 H   0  0  0  0  0  0
  -21.6623  -26.7418   22.1396 H   0  0  0  0  0  0
  -19.6994  -25.6650   21.0905 H   0  0  0  0  0  0
  -19.6621  -27.3696   20.6985 H   0  0  0  0  0  0
  -17.4158  -26.6622   21.4147 H   0  0  0  0  0  0
  -18.0553  -25.9932   22.8982 H   0  0  0  0  0  0
  -19.7873  -30.7411   24.2170 H   0  0  0  0  0  0
  -17.5001  -31.6395   24.4882 H   0  0  0  0  0  0
  -15.5349  -30.3062   23.7456 H   0  0  0  0  0  0
  -15.8700  -28.0597   22.7355 H   0  0  0  0  0  0
  -24.5845  -30.7087   25.7814 H   0  0  0  0  0  0
  -24.8885  -32.2871   26.4941 H   0  0  0  0  0  0
  -25.8034  -30.8865   27.0246 H   0  0  0  0  0  0
  -26.2861  -29.6837   24.1121 H   0  0  0  0  0  0
  -27.4050  -29.7271   25.4540 H   0  0  0  0  0  0
  -27.8651  -30.4426   23.9260 H   0  0  0  0  0  0
  -27.2631  -33.3638   26.2077 H   0  0  0  0  0  0
  -28.3782  -32.6900   25.0274 H   0  0  0  0  0  0
  -28.0727  -31.8463   26.5375 H   0  0  0  0  0  0
  -28.2592  -38.0106   24.7499 H   0  0  0  0  0  0
  -28.1089  -36.2619   24.6299 H   0  0  0  0  0  0
  -27.2302  -37.1444   25.8886 H   0  0  0  0  0  0
  -20.9321  -29.8948   21.7157 H   0  0  0  0  0  0
  -26.0193  -38.2885   24.1408 H   0  0  0  0  0  0
  -28.5969  -19.4785   22.2383 H   0  0  0  0  0  0
  -26.9558  -20.0425   17.5329 H   0  0  0  0  0  0
  -28.3990  -19.1835   16.9055 H   0  0  0  0  0  0
  -28.5643  -20.8470   17.5171 H   0  0  0  0  0  0
  -29.4222  -21.7071   22.5194 H   0  0  0  0  0  0
  -27.7695  -22.2139   22.8412 H   0  0  0  0  0  0
  -29.0669  -23.3947   22.7853 H   0  0  0  0  0  0
  -28.3743  -16.1082   21.6465 H   0  0  0  0  0  0
  -29.9400  -16.7452   22.0865 H   0  0  0  0  0  0
  -26.7232  -23.9644   20.5797 H   0  0  0  0  0  0
  -27.8757  -24.1166   19.2880 H   0  0  0  0  0  0
  -27.2138  -21.6730   19.2867 H   0  0  0  0  0  0
  -26.7117  -21.3176   20.8883 H   0  0  0  0  0  0
  -29.3495  -25.2188   21.3235 H   0  0  0  0  0  0
  -27.7736  -25.5757   21.9259 H   0  0  0  0  0  0
  -29.4283  -22.5858   20.3207 H   0  0  0  0  0  0
  -28.7543  -17.3900   18.5935 H   0  0  0  0  0  0
  -30.4364  -16.2278   19.6271 H   0  0  0  0  0  0
  1 25  1  0  0  0
  1 30  2  0  0  0
  1 83  1  0  0  0
  2  3  1  0  0  0
  2 25  1  0  0  0
  2 84  1  0  0  0
  2 85  1  0  0  0
  3  4  1  0  0  0
  3 86  1  0  0  0
  3 87  1  0  0  0
  4  5  1  0  0  0
  4 88  1  0  0  0
  4 89  1  0  0  0
  5  6  1  0  0  0
  5 26  1  0  0  0
  5 90  1  0  0  0
  6 25  1  0  0  0
  6 91  1  0  0  0
  6 92  1  0  0  0
  7  8  2  0  0  0
  7 26  1  0  0  0
  7 29  1  0  0  0
  8  9  1  0  0  0
  8 22  1  0  0  0
  9 10  1  0  0  0
  9 27  2  0  0  0
 10 11  2  0  0  0
 10 15  1  0  0  0
 11 12  1  0  0  0
 11 93  1  0  0  0
 12 13  2  0  0  0
 12 94  1  0  0  0
 13 14  1  0  0  0
 13 31  1  0  0  0
 14 15  2  0  0  0
 14 95  1  0  0  0
 15 96  1  0  0  0
 16 17  2  0  0  0
 16 21  1  0  0  0
 16 31  1  0  0  0
 17 18  1  0  0  0
 17 97  1  0  0  0
 18 19  2  0  0  0
 18 98  1  0  0  0
 19 20  1  0  0  0
 19 24  1  0  0  0
 20 21  2  0  0  0
 20 99  1  0  0  0
 21 23  1  0  0  0
 22 28  1  0  0  0
 22 32  2  0  0  0
 26 27  1  0  0  0
 28100  1  0  0  0
 28101  1  0  0  0
 29102  1  0  0  0
 29103  1  0  0  0
 33 34  1  0  0  0
 33 66  1  0  0  0
 33 70  2  0  0  0
 34 36  1  0  0  0
 34 59  1  0  0  0
 34104  1  0  0  0
 35 44  2  0  0  0
 35 45  1  0  0  0
 35 68  1  0  0  0
 36 56  1  0  0  0
 36105  1  0  0  0
 37 39  1  0  0  0
 37 47  1  0  0  0
 37 66  1  0  0  0
 37106  1  0  0  0
 38 43  2  0  0  0
 38 46  1  0  0  0
 38 47  1  0  0  0
 39 64  1  0  0  0
 39 67  2  0  0  0
 40 52  1  0  0  0
 40 53  2  0  0  0
 40 58  1  0  0  0
 41107  1  0  0  0
 41108  1  0  0  0
 41109  1  0  0  0
 41 48  1  0  0  0
 42 43  1  0  0  0
 42 66  1  0  0  0
 42110  1  0  0  0
 42111  1  0  0  0
 43 44  1  0  0  0
 44112  1  0  0  0
 45 46  2  0  0  0
 45113  1  0  0  0
 46114  1  0  0  0
 47115  1  0  0  0
 47116  1  0  0  0
 48 56  1  0  0  0
 48 65  1  0  0  0
 48117  1  0  0  0
 49 50  1  0  0  0
 49 53  1  0  0  0
 49 64  1  0  0  0
 49118  1  0  0  0
 50 51  1  0  0  0
 50119  1  0  0  0
 50120  1  0  0  0
 51 52  1  0  0  0
 51121  1  0  0  0
 51122  1  0  0  0
 52123  1  0  0  0
 52124  1  0  0  0
 53 54  1  0  0  0
 54 55  2  0  0  0
 54125  1  0  0  0
 55 57  1  0  0  0
 55126  1  0  0  0
 56 69  2  0  0  0
 57 58  2  0  0  0
 57127  1  0  0  0
 58128  1  0  0  0
 59 60  1  0  0  0
 59 61  1  0  0  0
 59 62  1  0  0  0
 60129  1  0  0  0
 60130  1  0  0  0
 60131  1  0  0  0
 61132  1  0  0  0
 61133  1  0  0  0
 61134  1  0  0  0
 62135  1  0  0  0
 62136  1  0  0  0
 62137  1  0  0  0
 63 65  1  0  0  0
 63138  1  0  0  0
 63139  1  0  0  0
 63140  1  0  0  0
 64141  1  0  0  0
 65142  1  0  0  0
 68 79  1  0  0  0
 71 72  2  0  0  0
 71 81  1  0  0  0
 71143  1  0  0  0
 72 76  1  0  0  0
 72 82  1  0  0  0
 73 74  1  0  0  0
 73 81  1  0  0  0
 73 82  2  0  0  0
 74144  1  0  0  0
 74145  1  0  0  0
 74146  1  0  0  0
 75147  1  0  0  0
 75148  1  0  0  0
 75149  1  0  0  0
 75 80  1  0  0  0
 76 83  1  0  0  0
 76150  1  0  0  0
 76151  1  0  0  0
 77 79  1  0  0  0
 77 80  1  0  0  0
 77152  1  0  0  0
 77153  1  0  0  0
 78 80  1  0  0  0
 78 81  1  0  0  0
 78154  1  0  0  0
 78155  1  0  0  0
 79156  1  0  0  0
 79157  1  0  0  0
 80158  1  0  0  0
 82159  1  0  0  0
 83160  1  0  0  0
M  CHG  1  82   1
M  ISO  4   1 100  68 101  79 101  83 100
M  END
> <chiral flag>
0

> <version>
0

> <s_m_source_file>
/data/baiqing/PycharmProjects/Reinvent-master-3.2/result/LINK_invent/BTK/process_docking_weight1_custom_sum_contain_oxygen_bond_distance_aromatic_linkinvent_7_9_3/rearranged_h_0047.sdf

> <i_m_source_file_index>
67

> <r_mmod_Potential_Energy-OPLS-2005>
-39.3812141418457

> <r_mmod_Stretch_Energy-OPLS-2005>
53.2488288879395

> <r_mmod_Bend_Energy-OPLS-2005>
134.685913085938

> <r_mmod_Torsional_Energy-OPLS-2005>
309.831420898438

> <r_mmod_Improper_Torsional_Energy-OPLS-2005>
28.3618297576904

> <r_mmod_Van_der_Waal_Energy-OPLS-2005>
112.228515625

> <r_mmod_Electrostatic_Energy-OPLS-2005>
-280.993347167969

> <r_mmod_Solvation_Energy-OPLS-2005>
-432.191070556641

> <b_mmod_Minimization_Converged-OPLS-2005>
0

> <r_mmod_RMS_Derivative-OPLS-2005>
7.75182867050171

$$$$
67
                    3D
 Structure written by MMmdl.
157165  0  0  1  0            999 V2000
  -31.2053  -15.3052   20.2966 C   0  0  0  0  0  0
  -31.0778  -12.8676   19.4342 C   0  0  0  0  0  0
  -30.0514  -12.5003   18.3383 C   0  0  0  0  0  0
  -28.8723  -13.4497   18.3661 C   0  0  0  0  0  0
  -28.5492  -14.7509   19.6657 C   0  0  2  0  0  0
  -29.4895  -13.8325   20.7379 C   0  0  0  0  0  0
  -24.2406  -14.8829   20.9118 C   0  0  0  0  0  0
  -23.7469  -13.5760   21.2124 C   0  0  0  0  0  0
  -24.4185  -12.3748   20.9937 C   0  0  0  0  0  0
  -23.8398  -10.8283   20.9084 C   0  0  0  0  0  0
  -24.0625   -9.9079   21.9587 C   0  0  0  0  0  0
  -23.4372   -8.6359   22.1743 C   0  0  0  0  0  0
  -22.4917   -8.1083   21.2747 C   0  0  0  0  0  0
  -22.2996   -8.9249   20.1370 C   0  0  0  0  0  0
  -22.8954  -10.2285   19.9649 C   0  0  0  0  0  0
  -21.7920   -6.0706   22.4838 C   0  0  0  0  0  0
  -21.4982   -6.5596   23.7785 C   0  0  0  0  0  0
  -21.4077   -5.6843   24.8843 C   0  0  0  0  0  0
  -21.6036   -4.3037   24.7105 C   0  0  0  0  0  0
  -21.8854   -3.7901   23.4342 C   0  0  0  0  0  0
  -21.9525   -4.6682   22.3244 C   0  0  0  0  0  0
  -22.3347  -13.6461   21.4264 C   0  0  0  0  0  0
  -22.1634   -4.1515   21.0910 F   0  0  0  0  0  0
  -21.5659   -3.4662   25.7759 F   0  0  0  0  0  0
  -30.7349  -13.9969   20.3494 N   0  0  0  0  0  0
  -25.3570  -14.5959   20.3450 N   0  0  0  0  0  0
  -24.7729  -13.1615   19.8796 N   0  0  0  0  0  0
  -21.6294  -12.6862   21.9894 N   0  0  0  0  0  0
  -24.6305  -16.0762   20.5384 N   0  0  0  0  0  0
  -32.2099  -15.5517   19.7099 O   0  0  0  0  0  0
  -21.8120   -6.8923   21.3683 O   0  0  0  0  0  0
  -21.7104  -14.6625   21.1554 O   0  0  0  0  0  0
  -24.7985  -31.6036   23.0398 C   0  0  0  0  0  0
  -25.9789  -32.3469   23.7501 C   0  0  1  0  0  0
  -26.6782  -25.0256   20.2676 C   0  0  0  0  0  0
  -25.5979  -33.7393   24.0978 N   0  0  0  0  0  0
  -23.6453  -30.2149   21.3923 C   0  0  2  0  0  0
  -24.9610  -28.2081   20.0982 C   0  0  0  0  0  0
  -22.7961  -29.3599   22.3842 C   0  0  0  0  0  0
  -18.0474  -28.1178   22.8678 C   0  0  0  0  0  0
  -24.1243  -36.6047   23.2775 C   0  0  0  0  0  0
  -26.1953  -29.7453   21.5807 C   0  0  0  0  0  0
  -26.1247  -28.1543   20.8667 C   0  0  0  0  0  0
  -26.8780  -26.6437   20.8998 C   0  0  0  0  0  0
  -25.5674  -25.6653   19.4948 C   0  0  0  0  0  0
  -24.7971  -26.9583   19.4356 C   0  0  0  0  0  0
  -23.9432  -29.4338   20.0589 C   0  0  0  0  0  0
  -25.4024  -36.1938   24.0222 C   0  0  1  0  0  0
  -20.6189  -28.3635   23.0654 C   0  0  2  0  0  0
  -20.6659  -26.9116   22.5260 C   0  0  0  0  0  0
  -19.5516  -26.6121   21.5136 C   0  0  0  0  0  0
  -18.1866  -26.7688   22.1823 C   0  0  0  0  0  0
  -19.1839  -28.8744   23.2673 C   0  0  0  0  0  0
  -18.9880  -30.1332   23.8715 C   0  0  0  0  0  0
  -17.6912  -30.6538   24.0458 C   0  0  0  0  0  0
  -25.9283  -34.8626   23.4432 C   0  0  0  0  0  0
  -16.5717  -29.9043   23.6384 C   0  0  0  0  0  0
  -16.7503  -28.6287   23.0739 C   0  0  0  0  0  0
  -26.4669  -31.6620   25.0868 C   0  0  0  0  0  0
  -25.3871  -31.4524   26.1755 C   0  0  0  0  0  0
  -27.1323  -30.3161   24.7881 C   0  0  0  0  0  0
  -27.5291  -32.5236   25.8050 C   0  0  0  0  0  0
  -27.5186  -37.1100   24.8553 C   0  0  0  0  0  0
  -21.4550  -29.2682   22.2524 N   0  0  0  0  0  0
  -26.3684  -37.3131   23.9809 N   0  0  0  0  0  0
  -24.9355  -30.6197   22.0263 N   0  0  0  0  0  0
  -23.3796  -28.7603   23.2889 O   0  0  0  0  0  0
  -27.2238  -23.0933   20.2430 O   0  0  0  0  0  0
  -26.6055  -34.8628   22.4129 O   0  0  0  0  0  0
  -23.6806  -31.9727   23.4548 O   0  0  0  0  0  0
  -27.0773  -13.2884   20.0941 C   0  0  0  0  0  0
  -27.2805  -14.6838   21.5254 C   0  0  0  0  0  0
  -27.0388  -16.6124   18.9301 C   0  0  0  0  0  0
  -27.0332  -17.8294   20.1933 C   0  0  0  0  0  0
  -27.0591  -11.6425   20.1454 C   0  0  0  0  0  0
  -27.5645  -14.1712   23.0146 C   0  0  0  0  0  0
  -28.1446  -17.5456   18.0260 C   0  0  0  0  0  0
  -26.8712  -20.5031   20.2257 C   0  0  0  0  0  0
  -29.5483  -18.0243   18.6457 C   0  0  0  0  0  0
  -30.1873  -17.8828   20.0954 C   0  0  0  0  0  0
  -26.7359  -14.8092   18.6063 N   0  0  0  0  0  0
  -27.2136  -16.4327   21.2509 N   0  0  0  0  0  0
  -30.4963  -16.4559   20.6638 N   0  0  0  0  0  0
  -31.9379  -13.0490   18.7940 H   0  0  0  0  0  0
  -31.3878  -12.0032   19.9684 H   0  0  0  0  0  0
  -29.8485  -11.4225   18.2688 H   0  0  0  0  0  0
  -30.4640  -12.5846   17.3381 H   0  0  0  0  0  0
  -28.1929  -12.6577   18.2342 H   0  0  0  0  0  0
  -28.5681  -13.7049   17.3735 H   0  0  0  0  0  0
  -29.1269  -15.3829   19.0871 H   0  0  0  0  0  0
  -29.2526  -12.7706   20.8303 H   0  0  0  0  0  0
  -29.6414  -14.1250   21.8066 H   0  0  0  0  0  0
  -24.7551  -10.2821   22.6745 H   0  0  0  0  0  0
  -23.6404   -8.1588   23.1134 H   0  0  0  0  0  0
  -21.8612   -8.4695   19.2634 H   0  0  0  0  0  0
  -22.8421  -10.6287   18.9622 H   0  0  0  0  0  0
  -21.3602   -7.6173   23.9191 H   0  0  0  0  0  0
  -21.2083   -6.0660   25.8735 H   0  0  0  0  0  0
  -22.0411   -2.7235   23.3269 H   0  0  0  0  0  0
  -22.2109  -11.8721   22.0185 H   0  0  0  0  0  0
  -20.5882  -12.6841   21.7582 H   0  0  0  0  0  0
  -25.6098  -16.0184   20.7374 H   0  0  0  0  0  0
  -25.1240  -15.6862   19.7826 H   0  0  0  0  0  0
  -26.7804  -32.3594   23.0197 H   0  0  0  0  0  0
  -25.0228  -33.8237   24.9210 H   0  0  0  0  0  0
  -23.0832  -31.1076   21.1136 H   0  0  0  0  0  0
  -23.3940  -35.7922   23.2928 H   0  0  0  0  0  0
  -24.3270  -36.8303   22.2305 H   0  0  0  0  0  0
  -23.6494  -37.4700   23.7367 H   0  0  0  0  0  0
  -26.8202  -30.4304   21.0064 H   0  0  0  0  0  0
  -26.8051  -29.5721   22.4457 H   0  0  0  0  0  0
  -27.5936  -26.5998   21.6952 H   0  0  0  0  0  0
  -25.0423  -24.9279   18.9075 H   0  0  0  0  0  0
  -23.8700  -26.8807   18.8833 H   0  0  0  0  0  0
  -24.2979  -30.1578   19.3177 H   0  0  0  0  0  0
  -23.0010  -29.1095   19.6149 H   0  0  0  0  0  0
  -25.1290  -36.0031   25.0643 H   0  0  0  0  0  0
  -21.0605  -28.3346   24.0648 H   0  0  0  0  0  0
  -20.5143  -26.2358   23.3716 H   0  0  0  0  0  0
  -21.6484  -26.6533   22.1278 H   0  0  0  0  0  0
  -19.6451  -25.6040   21.1077 H   0  0  0  0  0  0
  -19.6131  -27.2988   20.6688 H   0  0  0  0  0  0
  -17.3922  -26.6605   21.4425 H   0  0  0  0  0  0
  -18.0263  -25.9783   22.9184 H   0  0  0  0  0  0
  -19.8523  -30.7045   24.1862 H   0  0  0  0  0  0
  -17.5681  -31.6302   24.4919 H   0  0  0  0  0  0
  -15.5770  -30.3038   23.7613 H   0  0  0  0  0  0
  -15.8892  -28.0406   22.7816 H   0  0  0  0  0  0
  -24.4773  -30.9519   25.8501 H   0  0  0  0  0  0
  -25.0948  -32.4045   26.6256 H   0  0  0  0  0  0
  -25.8130  -30.8738   26.9978 H   0  0  0  0  0  0
  -26.4203  -29.5613   24.4628 H   0  0  0  0  0  0
  -27.5928  -29.9120   25.6897 H   0  0  0  0  0  0
  -27.9401  -30.4310   24.0654 H   0  0  0  0  0  0
  -27.0728  -33.4163   26.2424 H   0  0  0  0  0  0
  -28.3405  -32.8563   25.1589 H   0  0  0  0  0  0
  -27.9495  -31.9802   26.6533 H   0  0  0  0  0  0
  -28.1667  -37.9838   24.8150 H   0  0  0  0  0  0
  -28.1096  -36.2399   24.5662 H   0  0  0  0  0  0
  -27.2011  -36.9744   25.8909 H   0  0  0  0  0  0
  -20.9804  -29.7875   21.5240 H   0  0  0  0  0  0
  -25.9061  -38.1607   24.2957 H   0  0  0  0  0  0
  -27.2562  -11.2356   21.1332 H   0  0  0  0  0  0
  -27.5691  -10.9801   19.4385 H   0  0  0  0  0  0
  -26.2854  -10.9336   19.9083 H   0  0  0  0  0  0
  -28.4789  -13.7495   23.4265 H   0  0  0  0  0  0
  -26.9389  -13.3888   23.4563 H   0  0  0  0  0  0
  -27.4180  -14.8579   23.8163 H   0  0  0  0  0  0
  -27.6371  -18.4650   17.7666 H   0  0  0  0  0  0
  -28.1163  -17.4994   16.9409 H   0  0  0  0  0  0
  -26.3774  -20.4260   21.1526 H   0  0  0  0  0  0
  -26.0713  -20.5346   19.5330 H   0  0  0  0  0  0
  -30.3012  -17.6028   17.9774 H   0  0  0  0  0  0
  -29.3232  -17.1501   19.0802 H   0  0  0  0  0  0
  -29.6423  -18.3939   20.8566 H   0  0  0  0  0  0
  -30.8417  -18.6536   20.4342 H   0  0  0  0  0  0
  -29.9272  -16.2530   21.4149 H   0  0  0  0  0  0
  1 25  1  0  0  0
  1 30  2  0  0  0
  1 83  1  0  0  0
  2  3  1  0  0  0
  2 25  1  0  0  0
  2 84  1  0  0  0
  2 85  1  0  0  0
  3  4  1  0  0  0
  3 86  1  0  0  0
  3 87  1  0  0  0
  4  5  1  0  0  0
  4 88  1  0  0  0
  4 89  1  0  0  0
  5  6  1  0  0  0
  5 26  1  0  0  0
  5 90  1  0  0  0
  6 25  1  0  0  0
  6 91  1  0  0  0
  6 92  1  0  0  0
  7  8  2  0  0  0
  7 26  1  0  0  0
  7 29  1  0  0  0
  8  9  1  0  0  0
  8 22  1  0  0  0
  9 10  1  0  0  0
  9 27  2  0  0  0
 10 11  2  0  0  0
 10 15  1  0  0  0
 11 12  1  0  0  0
 11 93  1  0  0  0
 12 13  2  0  0  0
 12 94  1  0  0  0
 13 14  1  0  0  0
 13 31  1  0  0  0
 14 15  2  0  0  0
 14 95  1  0  0  0
 15 96  1  0  0  0
 16 17  2  0  0  0
 16 21  1  0  0  0
 16 31  1  0  0  0
 17 18  1  0  0  0
 17 97  1  0  0  0
 18 19  2  0  0  0
 18 98  1  0  0  0
 19 20  1  0  0  0
 19 24  1  0  0  0
 20 21  2  0  0  0
 20 99  1  0  0  0
 21 23  1  0  0  0
 22 28  1  0  0  0
 22 32  2  0  0  0
 26 27  1  0  0  0
 28100  1  0  0  0
 28101  1  0  0  0
 29102  1  0  0  0
 29103  1  0  0  0
 33 34  1  0  0  0
 33 66  1  0  0  0
 33 70  2  0  0  0
 34 36  1  0  0  0
 34 59  1  0  0  0
 34104  1  0  0  0
 35 44  2  0  0  0
 35 45  1  0  0  0
 35 68  1  0  0  0
 36 56  1  0  0  0
 36105  1  0  0  0
 37 39  1  0  0  0
 37 47  1  0  0  0
 37 66  1  0  0  0
 37106  1  0  0  0
 38 43  2  0  0  0
 38 46  1  0  0  0
 38 47  1  0  0  0
 39 64  1  0  0  0
 39 67  2  0  0  0
 40 52  1  0  0  0
 40 53  2  0  0  0
 40 58  1  0  0  0
 41107  1  0  0  0
 41108  1  0  0  0
 41109  1  0  0  0
 41 48  1  0  0  0
 42 43  1  0  0  0
 42 66  1  0  0  0
 42110  1  0  0  0
 42111  1  0  0  0
 43 44  1  0  0  0
 44112  1  0  0  0
 45 46  2  0  0  0
 45113  1  0  0  0
 46114  1  0  0  0
 47115  1  0  0  0
 47116  1  0  0  0
 48 56  1  0  0  0
 48 65  1  0  0  0
 48117  1  0  0  0
 49 50  1  0  0  0
 49 53  1  0  0  0
 49 64  1  0  0  0
 49118  1  0  0  0
 50 51  1  0  0  0
 50119  1  0  0  0
 50120  1  0  0  0
 51 52  1  0  0  0
 51121  1  0  0  0
 51122  1  0  0  0
 52123  1  0  0  0
 52124  1  0  0  0
 53 54  1  0  0  0
 54 55  2  0  0  0
 54125  1  0  0  0
 55 57  1  0  0  0
 55126  1  0  0  0
 56 69  2  0  0  0
 57 58  2  0  0  0
 57127  1  0  0  0
 58128  1  0  0  0
 59 60  1  0  0  0
 59 61  1  0  0  0
 59 62  1  0  0  0
 60129  1  0  0  0
 60130  1  0  0  0
 60131  1  0  0  0
 61132  1  0  0  0
 61133  1  0  0  0
 61134  1  0  0  0
 62135  1  0  0  0
 62136  1  0  0  0
 62137  1  0  0  0
 63 65  1  0  0  0
 63138  1  0  0  0
 63139  1  0  0  0
 63140  1  0  0  0
 64141  1  0  0  0
 65142  1  0  0  0
 68 78  1  0  0  0
 71 72  2  0  0  0
 71 75  1  0  0  0
 71 81  1  0  0  0
 72 76  1  0  0  0
 72 82  1  0  0  0
 73 74  1  0  0  0
 73 77  1  0  0  0
 73 81  2  0  0  0
 74 78  1  0  0  0
 74 82  2  0  0  0
 75143  1  0  0  0
 75144  1  0  0  0
 75145  1  0  0  0
 76146  1  0  0  0
 76147  1  0  0  0
 76148  1  0  0  0
 77 79  1  0  0  0
 77149  1  0  0  0
 77150  1  0  0  0
 78151  1  0  0  0
 78152  1  0  0  0
 79 80  1  0  0  0
 79153  1  0  0  0
 79154  1  0  0  0
 80 83  1  0  0  0
 80155  1  0  0  0
 80156  1  0  0  0
 83157  1  0  0  0
M  ISO  4   1 100  68 101  78 101  83 100
M  END
> <chiral flag>
0

> <version>
0

> <s_m_source_file>
/data/baiqing/PycharmProjects/Reinvent-master-3.2/result/LINK_invent/BTK/process_docking_weight1_custom_sum_contain_oxygen_bond_distance_aromatic_linkinvent_7_9_3/rearranged_h_0047.sdf

> <i_m_source_file_index>
68

> <r_mmod_Potential_Energy-OPLS-2005>
25838.66015625

> <r_mmod_Stretch_Energy-OPLS-2005>
13800.458984375

> <r_mmod_Bend_Energy-OPLS-2005>
3188.54028320312

> <r_mmod_Torsional_Energy-OPLS-2005>
589.42822265625

> <r_mmod_Improper_Torsional_Energy-OPLS-2005>
71.124397277832

> <r_mmod_Van_der_Waal_Energy-OPLS-2005>
2877.21215820312

> <r_mmod_Electrostatic_Energy-OPLS-2005>
-391.961120605469

> <r_mmod_Solvation_Energy-OPLS-2005>
-260.336212158203

> <b_mmod_Minimization_Converged-OPLS-2005>
0

> <r_mmod_RMS_Derivative-OPLS-2005>
99.9990005493164

$$$$
68
                    3D
 Structure written by MMmdl.
150158  0  0  1  0            999 V2000
  -30.5395  -14.9608   20.4083 C   0  0  0  0  0  0
  -30.4336  -12.5934   19.5060 C   0  0  0  0  0  0
  -29.5190  -12.5386   18.2603 C   0  0  0  0  0  0
  -28.0505  -12.3303   18.6737 C   0  0  0  0  0  0
  -27.6280  -13.2575   19.8429 C   0  0  2  0  0  0
  -28.6690  -13.2885   20.9829 C   0  0  0  0  0  0
  -25.2434  -13.8238   20.5716 C   0  0  0  0  0  0
  -24.1769  -13.0440   20.9242 C   0  0  0  0  0  0
  -24.6404  -11.6936   20.8757 C   0  0  0  0  0  0
  -23.9095  -10.4300   21.0413 C   0  0  0  0  0  0
  -24.3645   -9.4201   21.9182 C   0  0  0  0  0  0
  -23.6311   -8.2238   22.0748 C   0  0  0  0  0  0
  -22.4291   -8.0280   21.3549 C   0  0  0  0  0  0
  -21.9939   -9.0250   20.4646 C   0  0  0  0  0  0
  -22.7272  -10.2131   20.3061 C   0  0  0  0  0  0
  -21.6850   -6.0736   22.5273 C   0  0  0  0  0  0
  -21.4015   -6.5646   23.8203 C   0  0  0  0  0  0
  -21.3667   -5.6800   24.9169 C   0  0  0  0  0  0
  -21.6042   -4.3060   24.7222 C   0  0  0  0  0  0
  -21.8823   -3.8151   23.4343 C   0  0  0  0  0  0
  -21.9197   -4.6966   22.3401 C   0  0  0  0  0  0
  -22.7790  -13.5183   21.1910 C   0  0  0  0  0  0
  -22.1663   -4.2156   21.0976 F   0  0  0  0  0  0
  -21.5640   -3.4541   25.7737 F   0  0  0  0  0  0
  -29.9454  -13.6982   20.3844 N   0  0  0  0  0  0
  -26.2875  -12.9493   20.3267 N   0  0  0  0  0  0
  -25.9341  -11.6607   20.5744 N   0  0  0  0  0  0
  -22.0479  -12.8124   22.0464 N   0  0  0  0  0  0
  -25.4055  -15.1962   20.4113 N   0  0  0  0  0  0
  -31.7347  -15.0179   20.1030 O   0  0  0  0  0  0
  -21.6649   -6.8879   21.4241 O   0  0  0  0  0  0
  -22.3443  -14.5478   20.6766 O   0  0  0  0  0  0
  -24.6448  -31.8429   23.1869 C   0  0  0  0  0  0
  -25.9213  -32.4690   23.8265 C   0  0  1  0  0  0
  -27.2109  -27.1141   20.1501 C   0  0  0  0  0  0
  -25.5951  -33.8499   24.2174 N   0  0  0  0  0  0
  -23.4492  -30.4620   21.5335 C   0  0  2  0  0  0
  -24.8986  -28.8878   20.1085 C   0  0  0  0  0  0
  -22.7573  -29.4538   22.4851 C   0  0  0  0  0  0
  -18.0303  -28.1405   22.8470 C   0  0  0  0  0  0
  -24.1494  -36.7248   23.2642 C   0  0  0  0  0  0
  -26.0066  -30.7079   21.3919 C   0  0  0  0  0  0
  -26.0762  -29.3181   20.7319 C   0  0  0  0  0  0
  -27.2313  -28.4452   20.7398 C   0  0  0  0  0  0
  -26.0112  -26.8003   19.4723 C   0  0  0  0  0  0
  -24.8795  -27.6428   19.4639 C   0  0  0  0  0  0
  -23.6769  -29.7931   20.1520 C   0  0  0  0  0  0
  -25.4129  -36.3027   24.0310 C   0  0  1  0  0  0
  -20.5914  -28.3730   23.1233 C   0  0  2  0  0  0
  -20.6785  -26.9434   22.5410 C   0  0  0  0  0  0
  -19.5763  -26.6386   21.5215 C   0  0  0  0  0  0
  -18.1940  -26.7939   22.1624 C   0  0  0  0  0  0
  -19.1558  -28.8884   23.2836 C   0  0  0  0  0  0
  -18.9479  -30.1481   23.8868 C   0  0  0  0  0  0
  -17.6476  -30.6599   24.0558 C   0  0  0  0  0  0
  -25.9082  -34.9405   23.5055 C   0  0  0  0  0  0
  -16.5363  -29.9095   23.6340 C   0  0  0  0  0  0
  -16.7286  -28.6517   23.0351 C   0  0  0  0  0  0
  -26.4518  -31.6566   25.0721 C   0  0  0  0  0  0
  -25.3693  -31.3767   26.1409 C   0  0  0  0  0  0
  -27.0385  -30.2953   24.6333 C   0  0  0  0  0  0
  -27.6043  -32.4327   25.7514 C   0  0  0  0  0  0
  -27.5574  -37.1784   24.8462 C   0  0  0  0  0  0
  -21.4265  -29.3051   22.3606 N   0  0  0  0  0  0
  -26.4286  -37.3746   23.9403 N   0  0  0  0  0  0
  -24.7199  -31.0258   22.0926 N   0  0  0  0  0  0
  -23.4207  -28.8092   23.3015 O   0  0  0  0  0  0
  -28.2441  -26.1018   20.2462 O   0  0  0  0  0  0
  -26.5676  -34.8907   22.4636 O   0  0  0  0  0  0
  -23.5561  -32.1325   23.7070 O   0  0  0  0  0  0
  -27.6783  -21.8628   18.5250 C   0  0  0  0  0  0
  -28.6556  -20.2377   19.7065 C   0  0  0  0  0  0
  -27.9027  -19.7488   18.6478 C   0  0  0  0  0  0
  -29.3459  -19.1064   20.6683 C   0  0  0  0  0  0
  -28.7915  -23.1363   20.3245 C   0  0  0  0  0  0
  -30.0849  -17.6597   20.1364 C   0  0  0  0  0  0
  -27.9830  -24.5935   19.9059 C   0  0  0  0  0  0
  -27.3268  -20.7567   17.9051 N   0  0  0  0  0  0
  -28.4364  -21.7490   19.6317 N   0  0  0  0  0  0
  -29.7738  -16.1572   20.5507 N   0  0  0  0  0  0
  -27.5866  -18.1306   18.2315 Cl  0  0  0  0  0  0
  -31.4692  -12.7406   19.1976 H   0  0  0  0  0  0
  -30.4177  -11.6431   20.0420 H   0  0  0  0  0  0
  -29.8341  -11.7376   17.5910 H   0  0  0  0  0  0
  -29.6133  -13.4657   17.6942 H   0  0  0  0  0  0
  -27.9360  -11.2879   18.9688 H   0  0  0  0  0  0
  -27.3911  -12.4774   17.8180 H   0  0  0  0  0  0
  -27.5903  -14.2608   19.4173 H   0  0  0  0  0  0
  -28.7554  -12.3163   21.4698 H   0  0  0  0  0  0
  -28.3688  -13.9973   21.7567 H   0  0  0  0  0  0
  -25.2795   -9.5663   22.4749 H   0  0  0  0  0  0
  -24.0023   -7.4624   22.7460 H   0  0  0  0  0  0
  -21.0880   -8.8768   19.8938 H   0  0  0  0  0  0
  -22.3736  -10.9667   19.6164 H   0  0  0  0  0  0
  -21.1999   -7.6152   23.9706 H   0  0  0  0  0  0
  -21.1491   -6.0532   25.9071 H   0  0  0  0  0  0
  -22.0597   -2.7615   23.2837 H   0  0  0  0  0  0
  -22.4157  -11.9797   22.4820 H   0  0  0  0  0  0
  -21.1086  -13.1074   22.2719 H   0  0  0  0  0  0
  -24.6255  -15.8380   20.5081 H   0  0  0  0  0  0
  -26.2297  -15.6349   20.0226 H   0  0  0  0  0  0
  -26.7282  -32.5285   23.0991 H   0  0  0  0  0  0
  -25.0041  -33.9609   25.0285 H   0  0  0  0  0  0
  -22.7526  -31.2883   21.3783 H   0  0  0  0  0  0
  -23.3766  -35.9570   23.3291 H   0  0  0  0  0  0
  -24.3569  -36.8900   22.2056 H   0  0  0  0  0  0
  -23.7245  -37.6438   23.6693 H   0  0  0  0  0  0
  -26.1655  -31.4624   20.6199 H   0  0  0  0  0  0
  -26.8757  -30.7569   22.0363 H   0  0  0  0  0  0
  -28.1238  -28.7642   21.2595 H   0  0  0  0  0  0
  -25.9040  -25.8565   18.9606 H   0  0  0  0  0  0
  -23.9811  -27.3104   18.9618 H   0  0  0  0  0  0
  -23.8174  -30.5700   19.3992 H   0  0  0  0  0  0
  -22.7906  -29.2386   19.8372 H   0  0  0  0  0  0
  -25.1319  -36.1847   25.0803 H   0  0  0  0  0  0
  -20.9989  -28.3327   24.1358 H   0  0  0  0  0  0
  -20.5679  -26.2347   23.3631 H   0  0  0  0  0  0
  -21.6653  -26.7437   22.1211 H   0  0  0  0  0  0
  -19.6926  -25.6290   21.1260 H   0  0  0  0  0  0
  -19.6697  -27.3183   20.6734 H   0  0  0  0  0  0
  -17.4205  -26.6670   21.4031 H   0  0  0  0  0  0
  -18.0343  -26.0094   22.9037 H   0  0  0  0  0  0
  -19.7955  -30.7299   24.2226 H   0  0  0  0  0  0
  -17.5033  -31.6277   24.5170 H   0  0  0  0  0  0
  -15.5365  -30.2987   23.7692 H   0  0  0  0  0  0
  -15.8684  -28.0834   22.7074 H   0  0  0  0  0  0
  -24.5888  -30.7091   25.7734 H   0  0  0  0  0  0
  -24.8862  -32.2956   26.4747 H   0  0  0  0  0  0
  -25.7972  -30.9006   27.0245 H   0  0  0  0  0  0
  -26.3019  -29.6669   24.1315 H   0  0  0  0  0  0
  -27.3950  -29.7255   25.4926 H   0  0  0  0  0  0
  -27.8947  -30.4164   23.9692 H   0  0  0  0  0  0
  -27.2638  -33.3654   26.2024 H   0  0  0  0  0  0
  -28.3904  -32.6842   25.0380 H   0  0  0  0  0  0
  -28.0659  -31.8495   26.5493 H   0  0  0  0  0  0
  -28.2581  -38.0091   24.7514 H   0  0  0  0  0  0
  -28.1082  -36.2618   24.6288 H   0  0  0  0  0  0
  -27.2286  -37.1431   25.8865 H   0  0  0  0  0  0
  -20.9482  -29.8768   21.6784 H   0  0  0  0  0  0
  -26.0147  -38.2811   24.1417 H   0  0  0  0  0  0
  -27.3276  -22.8009   18.1288 H   0  0  0  0  0  0
  -28.5739  -18.7964   21.3735 H   0  0  0  0  0  0
  -30.0755  -19.6220   21.2930 H   0  0  0  0  0  0
  -28.7028  -22.9909   21.4012 H   0  0  0  0  0  0
  -29.8539  -23.2936   20.1401 H   0  0  0  0  0  0
  -31.1410  -17.7836   20.3815 H   0  0  0  0  0  0
  -30.1043  -17.6712   19.0474 H   0  0  0  0  0  0
  -26.9512  -24.4003   20.1983 H   0  0  0  0  0  0
  -27.9823  -24.6366   18.8181 H   0  0  0  0  0  0
  -28.8143  -15.9917   20.8169 H   0  0  0  0  0  0
  1 25  1  0  0  0
  1 30  2  0  0  0
  1 80  1  0  0  0
  2  3  1  0  0  0
  2 25  1  0  0  0
  2 82  1  0  0  0
  2 83  1  0  0  0
  3  4  1  0  0  0
  3 84  1  0  0  0
  3 85  1  0  0  0
  4  5  1  0  0  0
  4 86  1  0  0  0
  4 87  1  0  0  0
  5  6  1  0  0  0
  5 26  1  0  0  0
  5 88  1  0  0  0
  6 25  1  0  0  0
  6 89  1  0  0  0
  6 90  1  0  0  0
  7  8  2  0  0  0
  7 26  1  0  0  0
  7 29  1  0  0  0
  8  9  1  0  0  0
  8 22  1  0  0  0
  9 10  1  0  0  0
  9 27  2  0  0  0
 10 11  2  0  0  0
 10 15  1  0  0  0
 11 12  1  0  0  0
 11 91  1  0  0  0
 12 13  2  0  0  0
 12 92  1  0  0  0
 13 14  1  0  0  0
 13 31  1  0  0  0
 14 15  2  0  0  0
 14 93  1  0  0  0
 15 94  1  0  0  0
 16 17  2  0  0  0
 16 21  1  0  0  0
 16 31  1  0  0  0
 17 18  1  0  0  0
 17 95  1  0  0  0
 18 19  2  0  0  0
 18 96  1  0  0  0
 19 20  1  0  0  0
 19 24  1  0  0  0
 20 21  2  0  0  0
 20 97  1  0  0  0
 21 23  1  0  0  0
 22 28  1  0  0  0
 22 32  2  0  0  0
 26 27  1  0  0  0
 28 98  1  0  0  0
 28 99  1  0  0  0
 29100  1  0  0  0
 29101  1  0  0  0
 33 34  1  0  0  0
 33 66  1  0  0  0
 33 70  2  0  0  0
 34 36  1  0  0  0
 34 59  1  0  0  0
 34102  1  0  0  0
 35 44  2  0  0  0
 35 45  1  0  0  0
 35 68  1  0  0  0
 36 56  1  0  0  0
 36103  1  0  0  0
 37 39  1  0  0  0
 37 47  1  0  0  0
 37 66  1  0  0  0
 37104  1  0  0  0
 38 43  2  0  0  0
 38 46  1  0  0  0
 38 47  1  0  0  0
 39 64  1  0  0  0
 39 67  2  0  0  0
 40 52  1  0  0  0
 40 53  2  0  0  0
 40 58  1  0  0  0
 41105  1  0  0  0
 41106  1  0  0  0
 41107  1  0  0  0
 41 48  1  0  0  0
 42 43  1  0  0  0
 42 66  1  0  0  0
 42108  1  0  0  0
 42109  1  0  0  0
 43 44  1  0  0  0
 44110  1  0  0  0
 45 46  2  0  0  0
 45111  1  0  0  0
 46112  1  0  0  0
 47113  1  0  0  0
 47114  1  0  0  0
 48 56  1  0  0  0
 48 65  1  0  0  0
 48115  1  0  0  0
 49 50  1  0  0  0
 49 53  1  0  0  0
 49 64  1  0  0  0
 49116  1  0  0  0
 50 51  1  0  0  0
 50117  1  0  0  0
 50118  1  0  0  0
 51 52  1  0  0  0
 51119  1  0  0  0
 51120  1  0  0  0
 52121  1  0  0  0
 52122  1  0  0  0
 53 54  1  0  0  0
 54 55  2  0  0  0
 54123  1  0  0  0
 55 57  1  0  0  0
 55124  1  0  0  0
 56 69  2  0  0  0
 57 58  2  0  0  0
 57125  1  0  0  0
 58126  1  0  0  0
 59 60  1  0  0  0
 59 61  1  0  0  0
 59 62  1  0  0  0
 60127  1  0  0  0
 60128  1  0  0  0
 60129  1  0  0  0
 61130  1  0  0  0
 61131  1  0  0  0
 61132  1  0  0  0
 62133  1  0  0  0
 62134  1  0  0  0
 62135  1  0  0  0
 63 65  1  0  0  0
 63136  1  0  0  0
 63137  1  0  0  0
 63138  1  0  0  0
 64139  1  0  0  0
 65140  1  0  0  0
 68 77  1  0  0  0
 71 78  2  0  0  0
 71 79  1  0  0  0
 71141  1  0  0  0
 72 73  2  0  0  0
 72 74  1  0  0  0
 72 79  1  0  0  0
 73 78  1  0  0  0
 73 81  1  0  0  0
 74 76  1  0  0  0
 74142  1  0  0  0
 74143  1  0  0  0
 75 77  1  0  0  0
 75 79  1  0  0  0
 75144  1  0  0  0
 75145  1  0  0  0
 76 80  1  0  0  0
 76146  1  0  0  0
 76147  1  0  0  0
 77148  1  0  0  0
 77149  1  0  0  0
 80150  1  0  0  0
M  ISO  4   1 100  68 101  77 101  80 100
M  END
> <chiral flag>
0

> <version>
0

> <s_m_source_file>
/data/baiqing/PycharmProjects/Reinvent-master-3.2/result/LINK_invent/BTK/process_docking_weight1_custom_sum_contain_oxygen_bond_distance_aromatic_linkinvent_7_9_3/rearranged_h_0047.sdf

> <i_m_source_file_index>
69

> <r_mmod_Potential_Energy-OPLS-2005>
602.748840332031

> <r_mmod_Stretch_Energy-OPLS-2005>
318.182098388672

> <r_mmod_Bend_Energy-OPLS-2005>
330.634490966797

> <r_mmod_Torsional_Energy-OPLS-2005>
236.388153076172

> <r_mmod_Improper_Torsional_Energy-OPLS-2005>
6.0346508026123

> <r_mmod_Van_der_Waal_Energy-OPLS-2005>
118.92896270752

> <r_mmod_Electrostatic_Energy-OPLS-2005>
-390.949005126953

> <r_mmod_Solvation_Energy-OPLS-2005>
-225.646133422852

> <b_mmod_Minimization_Converged-OPLS-2005>
0

> <r_mmod_RMS_Derivative-OPLS-2005>
1.59194445610046

$$$$
69
                    3D
 Structure written by MMmdl.
152160  0  0  1  0            999 V2000
  -30.5131  -15.0656   20.4227 C   0  0  0  0  0  0
  -30.4499  -12.6857   19.4754 C   0  0  0  0  0  0
  -29.5143  -12.5508   18.2489 C   0  0  0  0  0  0
  -28.0543  -12.3074   18.6809 C   0  0  0  0  0  0
  -27.6274  -13.2341   19.8464 C   0  0  2  0  0  0
  -28.6917  -13.2452   20.9662 C   0  0  0  0  0  0
  -25.2414  -13.8131   20.5729 C   0  0  0  0  0  0
  -24.1740  -13.0369   20.9246 C   0  0  0  0  0  0
  -24.6368  -11.6867   20.8788 C   0  0  0  0  0  0
  -23.9058  -10.4254   21.0430 C   0  0  0  0  0  0
  -24.3608   -9.4173   21.9204 C   0  0  0  0  0  0
  -23.6281   -8.2211   22.0760 C   0  0  0  0  0  0
  -22.4266   -8.0261   21.3547 C   0  0  0  0  0  0
  -21.9905   -9.0234   20.4649 C   0  0  0  0  0  0
  -22.7234  -10.2109   20.3068 C   0  0  0  0  0  0
  -21.6844   -6.0730   22.5281 C   0  0  0  0  0  0
  -21.4007   -6.5636   23.8214 C   0  0  0  0  0  0
  -21.3661   -5.6789   24.9175 C   0  0  0  0  0  0
  -21.6048   -4.3051   24.7225 C   0  0  0  0  0  0
  -21.8820   -3.8144   23.4346 C   0  0  0  0  0  0
  -21.9187   -4.6961   22.3403 C   0  0  0  0  0  0
  -22.7763  -13.5160   21.1886 C   0  0  0  0  0  0
  -22.1658   -4.2150   21.0979 F   0  0  0  0  0  0
  -21.5634   -3.4535   25.7739 F   0  0  0  0  0  0
  -29.9195  -13.7838   20.3503 N   0  0  0  0  0  0
  -26.2874  -12.9363   20.3344 N   0  0  0  0  0  0
  -25.9309  -11.6503   20.5818 N   0  0  0  0  0  0
  -22.0409  -12.8165   22.0452 N   0  0  0  0  0  0
  -25.3943  -15.1850   20.4103 N   0  0  0  0  0  0
  -31.7289  -15.0710   20.1851 O   0  0  0  0  0  0
  -21.6622   -6.8868   21.4242 O   0  0  0  0  0  0
  -22.3460  -14.5471   20.6729 O   0  0  0  0  0  0
  -24.6478  -31.8385   23.1818 C   0  0  0  0  0  0
  -25.9227  -32.4665   23.8232 C   0  0  1  0  0  0
  -27.2296  -27.0926   20.1576 C   0  0  0  0  0  0
  -25.5956  -33.8471   24.2154 N   0  0  0  0  0  0
  -23.4547  -30.4542   21.5284 C   0  0  2  0  0  0
  -24.9072  -28.8685   20.1111 C   0  0  0  0  0  0
  -22.7591  -29.4519   22.4838 C   0  0  0  0  0  0
  -18.0312  -28.1398   22.8478 C   0  0  0  0  0  0
  -24.1496  -36.7247   23.2645 C   0  0  0  0  0  0
  -26.0129  -30.6986   21.3864 C   0  0  0  0  0  0
  -26.0855  -29.3047   20.7290 C   0  0  0  0  0  0
  -27.2456  -28.4347   20.7308 C   0  0  0  0  0  0
  -26.0218  -26.7639   19.5044 C   0  0  0  0  0  0
  -24.8907  -27.6131   19.4822 C   0  0  0  0  0  0
  -23.6848  -29.7758   20.1507 C   0  0  0  0  0  0
  -25.4129  -36.3015   24.0312 C   0  0  1  0  0  0
  -20.5927  -28.3732   23.1223 C   0  0  2  0  0  0
  -20.6795  -26.9430   22.5402 C   0  0  0  0  0  0
  -19.5766  -26.6381   21.5213 C   0  0  0  0  0  0
  -18.1948  -26.7934   22.1628 C   0  0  0  0  0  0
  -19.1570  -28.8884   23.2841 C   0  0  0  0  0  0
  -18.9483  -30.1478   23.8867 C   0  0  0  0  0  0
  -17.6479  -30.6591   24.0558 C   0  0  0  0  0  0
  -25.9080  -34.9390   23.5046 C   0  0  0  0  0  0
  -16.5370  -29.9082   23.6338 C   0  0  0  0  0  0
  -16.7296  -28.6503   23.0356 C   0  0  0  0  0  0
  -26.4532  -31.6550   25.0694 C   0  0  0  0  0  0
  -25.3709  -31.3750   26.1387 C   0  0  0  0  0  0
  -27.0404  -30.2938   24.6309 C   0  0  0  0  0  0
  -27.6049  -32.4332   25.7484 C   0  0  0  0  0  0
  -27.5575  -37.1783   24.8469 C   0  0  0  0  0  0
  -21.4277  -29.3046   22.3586 N   0  0  0  0  0  0
  -26.4290  -37.3732   23.9402 N   0  0  0  0  0  0
  -24.7251  -31.0198   22.0872 N   0  0  0  0  0  0
  -23.4212  -28.8080   23.3018 O   0  0  0  0  0  0
  -28.2870  -26.0968   20.2253 O   0  0  0  0  0  0
  -26.5675  -34.8899   22.4631 O   0  0  0  0  0  0
  -23.5587  -32.1280   23.7013 O   0  0  0  0  0  0
  -29.6183  -19.3406   20.3048 C   0  0  0  0  0  0
  -30.0864  -20.6518   20.6119 C   0  0  0  0  0  0
  -31.4176  -21.0258   21.1775 C   0  0  0  0  0  0
  -28.3753  -16.4475   20.8169 C   0  0  0  0  0  0
  -30.3666  -17.8284   20.3414 C   0  0  0  0  0  0
  -29.2105  -23.3021   20.3971 C   0  0  0  0  0  0
  -28.0688  -24.5354   20.0837 C   0  0  0  0  0  0
  -28.3467  -19.6635   19.7727 N   0  0  0  0  0  0
  -28.0739  -20.9786   19.7772 N   0  0  0  0  0  0
  -29.1242  -21.6930   20.2868 N   0  0  0  0  0  0
  -29.7988  -16.3396   20.5086 N   0  0  0  0  0  0
  -31.4640  -12.8914   19.1298 H   0  0  0  0  0  0
  -30.5200  -11.7419   20.0189 H   0  0  0  0  0  0
  -29.8522  -11.7424   17.5997 H   0  0  0  0  0  0
  -29.5680  -13.4625   17.6518 H   0  0  0  0  0  0
  -27.9714  -11.2657   18.9937 H   0  0  0  0  0  0
  -27.3804  -12.4258   17.8318 H   0  0  0  0  0  0
  -27.5816  -14.2272   19.4069 H   0  0  0  0  0  0
  -28.8448  -12.2314   21.3394 H   0  0  0  0  0  0
  -28.3897  -13.7946   21.8518 H   0  0  0  0  0  0
  -25.2749   -9.5647   22.4788 H   0  0  0  0  0  0
  -23.9990   -7.4600   22.7471 H   0  0  0  0  0  0
  -21.0843   -8.8750   19.8953 H   0  0  0  0  0  0
  -22.3697  -10.9653   19.6183 H   0  0  0  0  0  0
  -21.1997   -7.6143   23.9718 H   0  0  0  0  0  0
  -21.1486   -6.0518   25.9079 H   0  0  0  0  0  0
  -22.0601   -2.7607   23.2840 H   0  0  0  0  0  0
  -22.4013  -11.9830   22.4856 H   0  0  0  0  0  0
  -21.1037  -13.1218   22.2664 H   0  0  0  0  0  0
  -24.6206  -15.8300   20.5283 H   0  0  0  0  0  0
  -26.2447  -15.6385   20.1054 H   0  0  0  0  0  0
  -26.7293  -32.5256   23.0959 H   0  0  0  0  0  0
  -25.0068  -33.9570   25.0278 H   0  0  0  0  0  0
  -22.7604  -31.2813   21.3671 H   0  0  0  0  0  0
  -23.3756  -35.9581   23.3298 H   0  0  0  0  0  0
  -24.3580  -36.8890   22.2061 H   0  0  0  0  0  0
  -23.7256  -37.6442   23.6691 H   0  0  0  0  0  0
  -26.1737  -31.4508   20.6130 H   0  0  0  0  0  0
  -26.8810  -30.7509   22.0322 H   0  0  0  0  0  0
  -28.1435  -28.7673   21.2326 H   0  0  0  0  0  0
  -25.9234  -25.8018   19.0240 H   0  0  0  0  0  0
  -23.9913  -27.2728   18.9875 H   0  0  0  0  0  0
  -23.8244  -30.5464   19.3915 H   0  0  0  0  0  0
  -22.7990  -29.2185   19.8405 H   0  0  0  0  0  0
  -25.1323  -36.1834   25.0804 H   0  0  0  0  0  0
  -21.0020  -28.3324   24.1344 H   0  0  0  0  0  0
  -20.5691  -26.2345   23.3626 H   0  0  0  0  0  0
  -21.6658  -26.7430   22.1194 H   0  0  0  0  0  0
  -19.6924  -25.6284   21.1260 H   0  0  0  0  0  0
  -19.6693  -27.3177   20.6729 H   0  0  0  0  0  0
  -17.4215  -26.6678   21.4033 H   0  0  0  0  0  0
  -18.0348  -26.0082   22.9031 H   0  0  0  0  0  0
  -19.7957  -30.7304   24.2218 H   0  0  0  0  0  0
  -17.5030  -31.6267   24.5166 H   0  0  0  0  0  0
  -15.5368  -30.2973   23.7674 H   0  0  0  0  0  0
  -15.8700  -28.0810   22.7085 H   0  0  0  0  0  0
  -24.5872  -30.7125   25.7695 H   0  0  0  0  0  0
  -24.8925  -32.2939   26.4783 H   0  0  0  0  0  0
  -25.7983  -30.8921   27.0186 H   0  0  0  0  0  0
  -26.3027  -29.6644   24.1320 H   0  0  0  0  0  0
  -27.4001  -29.7258   25.4899 H   0  0  0  0  0  0
  -27.8942  -30.4156   23.9641 H   0  0  0  0  0  0
  -27.2625  -33.3649   26.2000 H   0  0  0  0  0  0
  -28.3889  -32.6871   25.0335 H   0  0  0  0  0  0
  -28.0690  -31.8505   26.5453 H   0  0  0  0  0  0
  -28.2592  -38.0079   24.7500 H   0  0  0  0  0  0
  -28.1071  -36.2606   24.6318 H   0  0  0  0  0  0
  -27.2290  -37.1456   25.8872 H   0  0  0  0  0  0
  -20.9503  -29.8745   21.6743 H   0  0  0  0  0  0
  -26.0153  -38.2801   24.1389 H   0  0  0  0  0  0
  -32.1058  -20.1808   21.1668 H   0  0  0  0  0  0
  -31.3194  -21.3643   22.2095 H   0  0  0  0  0  0
  -31.8751  -21.8313   20.6030 H   0  0  0  0  0  0
  -28.0213  -15.7423   21.5547 H   0  0  0  0  0  0
  -27.7990  -16.3619   19.8978 H   0  0  0  0  0  0
  -28.1250  -17.4106   21.2578 H   0  0  0  0  0  0
  -31.1218  -17.8867   21.1250 H   0  0  0  0  0  0
  -30.9620  -17.7684   19.4298 H   0  0  0  0  0  0
  -29.5430  -23.4839   21.4185 H   0  0  0  0  0  0
  -30.0770  -23.5652   19.7916 H   0  0  0  0  0  0
  -27.1980  -24.3053   20.6987 H   0  0  0  0  0  0
  -27.7377  -24.3794   19.0572 H   0  0  0  0  0  0
  1 25  1  0  0  0
  1 30  2  0  0  0
  1 81  1  0  0  0
  2  3  1  0  0  0
  2 25  1  0  0  0
  2 82  1  0  0  0
  2 83  1  0  0  0
  3  4  1  0  0  0
  3 84  1  0  0  0
  3 85  1  0  0  0
  4  5  1  0  0  0
  4 86  1  0  0  0
  4 87  1  0  0  0
  5  6  1  0  0  0
  5 26  1  0  0  0
  5 88  1  0  0  0
  6 25  1  0  0  0
  6 89  1  0  0  0
  6 90  1  0  0  0
  7  8  2  0  0  0
  7 26  1  0  0  0
  7 29  1  0  0  0
  8  9  1  0  0  0
  8 22  1  0  0  0
  9 10  1  0  0  0
  9 27  2  0  0  0
 10 11  2  0  0  0
 10 15  1  0  0  0
 11 12  1  0  0  0
 11 91  1  0  0  0
 12 13  2  0  0  0
 12 92  1  0  0  0
 13 14  1  0  0  0
 13 31  1  0  0  0
 14 15  2  0  0  0
 14 93  1  0  0  0
 15 94  1  0  0  0
 16 17  2  0  0  0
 16 21  1  0  0  0
 16 31  1  0  0  0
 17 18  1  0  0  0
 17 95  1  0  0  0
 18 19  2  0  0  0
 18 96  1  0  0  0
 19 20  1  0  0  0
 19 24  1  0  0  0
 20 21  2  0  0  0
 20 97  1  0  0  0
 21 23  1  0  0  0
 22 28  1  0  0  0
 22 32  2  0  0  0
 26 27  1  0  0  0
 28 98  1  0  0  0
 28 99  1  0  0  0
 29100  1  0  0  0
 29101  1  0  0  0
 33 34  1  0  0  0
 33 66  1  0  0  0
 33 70  2  0  0  0
 34 36  1  0  0  0
 34 59  1  0  0  0
 34102  1  0  0  0
 35 44  2  0  0  0
 35 45  1  0  0  0
 35 68  1  0  0  0
 36 56  1  0  0  0
 36103  1  0  0  0
 37 39  1  0  0  0
 37 47  1  0  0  0
 37 66  1  0  0  0
 37104  1  0  0  0
 38 43  2  0  0  0
 38 46  1  0  0  0
 38 47  1  0  0  0
 39 64  1  0  0  0
 39 67  2  0  0  0
 40 52  1  0  0  0
 40 53  2  0  0  0
 40 58  1  0  0  0
 41105  1  0  0  0
 41106  1  0  0  0
 41107  1  0  0  0
 41 48  1  0  0  0
 42 43  1  0  0  0
 42 66  1  0  0  0
 42108  1  0  0  0
 42109  1  0  0  0
 43 44  1  0  0  0
 44110  1  0  0  0
 45 46  2  0  0  0
 45111  1  0  0  0
 46112  1  0  0  0
 47113  1  0  0  0
 47114  1  0  0  0
 48 56  1  0  0  0
 48 65  1  0  0  0
 48115  1  0  0  0
 49 50  1  0  0  0
 49 53  1  0  0  0
 49 64  1  0  0  0
 49116  1  0  0  0
 50 51  1  0  0  0
 50117  1  0  0  0
 50118  1  0  0  0
 51 52  1  0  0  0
 51119  1  0  0  0
 51120  1  0  0  0
 52121  1  0  0  0
 52122  1  0  0  0
 53 54  1  0  0  0
 54 55  2  0  0  0
 54123  1  0  0  0
 55 57  1  0  0  0
 55124  1  0  0  0
 56 69  2  0  0  0
 57 58  2  0  0  0
 57125  1  0  0  0
 58126  1  0  0  0
 59 60  1  0  0  0
 59 61  1  0  0  0
 59 62  1  0  0  0
 60127  1  0  0  0
 60128  1  0  0  0
 60129  1  0  0  0
 61130  1  0  0  0
 61131  1  0  0  0
 61132  1  0  0  0
 62133  1  0  0  0
 62134  1  0  0  0
 62135  1  0  0  0
 63 65  1  0  0  0
 63136  1  0  0  0
 63137  1  0  0  0
 63138  1  0  0  0
 64139  1  0  0  0
 65140  1  0  0  0
 68 77  1  0  0  0
 71 72  2  0  0  0
 71 75  1  0  0  0
 71 78  1  0  0  0
 72 73  1  0  0  0
 72 80  1  0  0  0
 73141  1  0  0  0
 73142  1  0  0  0
 73143  1  0  0  0
 74 81  1  0  0  0
 74144  1  0  0  0
 74145  1  0  0  0
 74146  1  0  0  0
 75 81  1  0  0  0
 75147  1  0  0  0
 75148  1  0  0  0
 76 77  1  0  0  0
 76 80  1  0  0  0
 76149  1  0  0  0
 76150  1  0  0  0
 77151  1  0  0  0
 77152  1  0  0  0
 78 79  2  0  0  0
 79 80  1  0  0  0
M  ISO  4   1 100  68 101  77 101  81 100
M  END
> <chiral flag>
0

> <version>
0

> <s_m_source_file>
/data/baiqing/PycharmProjects/Reinvent-master-3.2/result/LINK_invent/BTK/process_docking_weight1_custom_sum_contain_oxygen_bond_distance_aromatic_linkinvent_7_9_3/rearranged_h_0047.sdf

> <i_m_source_file_index>
70

> <r_mmod_Potential_Energy-OPLS-2005>
716.290466308594

> <r_mmod_Stretch_Energy-OPLS-2005>
328.186798095703

> <r_mmod_Bend_Energy-OPLS-2005>
328.909423828125

> <r_mmod_Torsional_Energy-OPLS-2005>
248.601806640625

> <r_mmod_Improper_Torsional_Energy-OPLS-2005>
5.65773296356201

> <r_mmod_Van_der_Waal_Energy-OPLS-2005>
118.540840148926

> <r_mmod_Electrostatic_Energy-OPLS-2005>
-345.141082763672

> <r_mmod_Solvation_Energy-OPLS-2005>
-216.470581054688

> <b_mmod_Minimization_Converged-OPLS-2005>
0

> <r_mmod_RMS_Derivative-OPLS-2005>
0.800414860248566

$$$$
70
                    3D
 Structure written by MMmdl.
165173  0  0  1  0            999 V2000
  -30.7510  -14.4211   20.4870 C   0  0  0  0  0  0
  -30.4193  -12.2513   19.4052 C   0  0  0  0  0  0
  -29.4887  -12.4569   18.1967 C   0  0  0  0  0  0
  -28.0092  -12.3494   18.6152 C   0  0  0  0  0  0
  -27.6684  -13.2005   19.8677 C   0  0  2  0  0  0
  -28.7224  -13.0090   20.9836 C   0  0  0  0  0  0
  -25.2644  -13.8126   20.5680 C   0  0  0  0  0  0
  -24.1876  -13.0400   20.9156 C   0  0  0  0  0  0
  -24.6403  -11.6883   20.8703 C   0  0  0  0  0  0
  -23.9054  -10.4254   21.0375 C   0  0  0  0  0  0
  -24.3632   -9.4170   21.9137 C   0  0  0  0  0  0
  -23.6291   -8.2224   22.0756 C   0  0  0  0  0  0
  -22.4265   -8.0258   21.3548 C   0  0  0  0  0  0
  -21.9887   -9.0219   20.4637 C   0  0  0  0  0  0
  -22.7223  -10.2093   20.3020 C   0  0  0  0  0  0
  -21.6841   -6.0700   22.5241 C   0  0  0  0  0  0
  -21.4006   -6.5620   23.8168 C   0  0  0  0  0  0
  -21.3673   -5.6794   24.9143 C   0  0  0  0  0  0
  -21.6063   -4.3055   24.7196 C   0  0  0  0  0  0
  -21.8837   -3.8128   23.4322 C   0  0  0  0  0  0
  -21.9197   -4.6929   22.3373 C   0  0  0  0  0  0
  -22.7899  -13.5211   21.1799 C   0  0  0  0  0  0
  -22.1684   -4.2135   21.0943 F   0  0  0  0  0  0
  -21.5653   -3.4532   25.7704 F   0  0  0  0  0  0
  -30.0562  -13.2594   20.4096 N   0  0  0  0  0  0
  -26.3093  -12.9296   20.3392 N   0  0  0  0  0  0
  -25.9361  -11.6472   20.5805 N   0  0  0  0  0  0
  -22.0576  -12.8192   22.0386 N   0  0  0  0  0  0
  -25.4333  -15.1815   20.3926 N   0  0  0  0  0  0
  -31.9171  -14.5526   20.1111 O   0  0  0  0  0  0
  -21.6643   -6.8842   21.4207 O   0  0  0  0  0  0
  -22.3573  -14.5464   20.6607 O   0  0  0  0  0  0
  -24.6055  -31.8724   23.2177 C   0  0  0  0  0  0
  -25.8983  -32.4844   23.8446 C   0  0  1  0  0  0
  -27.2240  -27.4688   20.1161 C   0  0  0  0  0  0
  -25.5868  -33.8644   24.2351 N   0  0  0  0  0  0
  -23.3922  -30.4947   21.5533 C   0  0  2  0  0  0
  -24.8433  -28.9711   20.1064 C   0  0  0  0  0  0
  -22.7351  -29.4649   22.5004 C   0  0  0  0  0  0
  -18.0264  -28.1378   22.8492 C   0  0  0  0  0  0
  -24.1482  -36.7325   23.2634 C   0  0  0  0  0  0
  -25.9153  -30.8476   21.3705 C   0  0  0  0  0  0
  -25.9940  -29.4873   20.7151 C   0  0  0  0  0  0
  -27.1853  -28.7379   20.7328 C   0  0  0  0  0  0
  -26.0715  -26.9649   19.4835 C   0  0  0  0  0  0
  -24.8757  -27.7111   19.4829 C   0  0  0  0  0  0
  -23.5998  -29.8295   20.1638 C   0  0  0  0  0  0
  -25.4109  -36.3122   24.0338 C   0  0  1  0  0  0
  -20.5844  -28.3649   23.1354 C   0  0  2  0  0  0
  -20.6761  -26.9397   22.5436 C   0  0  0  0  0  0
  -19.5750  -26.6394   21.5219 C   0  0  0  0  0  0
  -18.1917  -26.7925   22.1612 C   0  0  0  0  0  0
  -19.1508  -28.8831   23.2923 C   0  0  0  0  0  0
  -18.9434  -30.1444   23.8924 C   0  0  0  0  0  0
  -17.6439  -30.6585   24.0568 C   0  0  0  0  0  0
  -25.9029  -34.9482   23.5141 C   0  0  0  0  0  0
  -16.5328  -29.9086   23.6331 C   0  0  0  0  0  0
  -16.7249  -28.6509   23.0338 C   0  0  0  0  0  0
  -26.4435  -31.6619   25.0752 C   0  0  0  0  0  0
  -25.3718  -31.3739   26.1524 C   0  0  0  0  0  0
  -27.0261  -30.3055   24.6121 C   0  0  0  0  0  0
  -27.6013  -32.4359   25.7477 C   0  0  0  0  0  0
  -27.5588  -37.1818   24.8448 C   0  0  0  0  0  0
  -21.4096  -29.3007   22.3743 N   0  0  0  0  0  0
  -26.4297  -37.3808   23.9395 N   0  0  0  0  0  0
  -24.6540  -31.0848   22.1050 N   0  0  0  0  0  0
  -23.4170  -28.8199   23.3018 O   0  0  0  0  0  0
  -28.3395  -26.6785   20.1894 O   0  0  0  0  0  0
  -26.5581  -34.8910   22.4688 O   0  0  0  0  0  0
  -23.5254  -32.1465   23.7580 O   0  0  0  0  0  0
  -30.0955  -24.0586   18.7992 C   0  0  0  0  0  0
  -29.3811  -23.3549   19.8131 C   0  0  0  0  0  0
  -28.8379  -22.2799   19.1503 C   0  0  0  0  0  0
  -28.9172  -21.5524   16.6788 C   0  0  0  0  0  0
  -29.2436  -23.7210   21.2736 C   0  0  0  0  0  0
  -27.8881  -21.2095   19.6325 C   0  0  0  0  0  0
  -29.6614  -25.1655   21.6242 C   0  0  0  0  0  0
  -29.3096  -17.8763   20.6811 C   0  0  0  0  0  0
  -30.4136  -16.8607   20.3385 C   0  0  0  0  0  0
  -29.4661  -19.2774   20.0386 C   0  0  0  0  0  0
  -28.5343  -26.2054   21.5239 C   0  0  0  0  0  0
  -30.0192  -23.4657   17.6206 N   0  0  0  0  0  0
  -29.2439  -22.3821   17.8252 N   0  0  0  0  0  0
  -30.0054  -15.5063   20.7251 N   0  0  0  0  0  0
  -28.4489  -20.2126   20.5766 N   0  3  0  0  0  0
  -31.4604  -12.3239   19.0886 H   0  0  0  0  0  0
  -30.3003  -11.2478   19.8154 H   0  0  0  0  0  0
  -29.7036  -11.7160   17.4271 H   0  0  0  0  0  0
  -29.6770  -13.4295   17.7422 H   0  0  0  0  0  0
  -27.8015  -11.2949   18.8100 H   0  0  0  0  0  0
  -27.3671  -12.6482   17.7846 H   0  0  0  0  0  0
  -27.7085  -14.2420   19.5536 H   0  0  0  0  0  0
  -28.6900  -11.9930   21.3843 H   0  0  0  0  0  0
  -28.5209  -13.6682   21.8290 H   0  0  0  0  0  0
  -25.2772   -9.5683   22.4708 H   0  0  0  0  0  0
  -24.0013   -7.4615   22.7459 H   0  0  0  0  0  0
  -21.0856   -8.8684   19.8921 H   0  0  0  0  0  0
  -22.3636  -10.9631   19.6151 H   0  0  0  0  0  0
  -21.1995   -7.6121   23.9656 H   0  0  0  0  0  0
  -21.1506   -6.0524   25.9046 H   0  0  0  0  0  0
  -22.0621   -2.7587   23.2808 H   0  0  0  0  0  0
  -22.4267  -11.9889   22.4772 H   0  0  0  0  0  0
  -21.1168  -13.1163   22.2514 H   0  0  0  0  0  0
  -24.6599  -15.8312   20.4754 H   0  0  0  0  0  0
  -26.2620  -15.6041   19.9960 H   0  0  0  0  0  0
  -26.7032  -32.5567   23.1206 H   0  0  0  0  0  0
  -25.0062  -33.9843   25.0519 H   0  0  0  0  0  0
  -22.6773  -31.3094   21.4184 H   0  0  0  0  0  0
  -23.3758  -35.9655   23.3298 H   0  0  0  0  0  0
  -24.3583  -36.8948   22.2063 H   0  0  0  0  0  0
  -23.7229  -37.6514   23.6665 H   0  0  0  0  0  0
  -26.0266  -31.6193   20.6076 H   0  0  0  0  0  0
  -26.8034  -30.8970   21.9895 H   0  0  0  0  0  0
  -28.0567  -29.1170   21.2476 H   0  0  0  0  0  0
  -26.0911  -25.9853   19.0262 H   0  0  0  0  0  0
  -23.9891  -27.3107   19.0130 H   0  0  0  0  0  0
  -23.6894  -30.6066   19.4019 H   0  0  0  0  0  0
  -22.7305  -29.2364   19.8761 H   0  0  0  0  0  0
  -25.1294  -36.2002   25.0829 H   0  0  0  0  0  0
  -20.9933  -28.3201   24.1482 H   0  0  0  0  0  0
  -20.5678  -26.2245   23.3605 H   0  0  0  0  0  0
  -21.6633  -26.7460   22.1231 H   0  0  0  0  0  0
  -19.6915  -25.6310   21.1229 H   0  0  0  0  0  0
  -19.6706  -27.3225   20.6772 H   0  0  0  0  0  0
  -17.4206  -26.6700   21.3986 H   0  0  0  0  0  0
  -18.0294  -26.0062   22.8990 H   0  0  0  0  0  0
  -19.7912  -30.7259   24.2297 H   0  0  0  0  0  0
  -17.4990  -31.6263   24.5170 H   0  0  0  0  0  0
  -15.5333  -30.2988   23.7647 H   0  0  0  0  0  0
  -15.8652  -28.0844   22.7013 H   0  0  0  0  0  0
  -24.5898  -30.7065   25.7891 H   0  0  0  0  0  0
  -24.8911  -32.2904   26.4948 H   0  0  0  0  0  0
  -25.8105  -30.8946   27.0289 H   0  0  0  0  0  0
  -26.2814  -29.6846   24.1135 H   0  0  0  0  0  0
  -27.3967  -29.7261   25.4586 H   0  0  0  0  0  0
  -27.8671  -30.4363   23.9315 H   0  0  0  0  0  0
  -27.2622  -33.3642   26.2092 H   0  0  0  0  0  0
  -28.3781  -32.6975   25.0277 H   0  0  0  0  0  0
  -28.0739  -31.8491   26.5362 H   0  0  0  0  0  0
  -28.2607  -38.0117   24.7515 H   0  0  0  0  0  0
  -28.1082  -36.2647   24.6246 H   0  0  0  0  0  0
  -27.2306  -37.1442   25.8851 H   0  0  0  0  0  0
  -20.9243  -29.8714   21.6970 H   0  0  0  0  0  0
  -26.0180  -38.2882   24.1427 H   0  0  0  0  0  0
  -30.6579  -24.9797   18.8785 H   0  0  0  0  0  0
  -27.9107  -21.7921   16.3354 H   0  0  0  0  0  0
  -28.9756  -20.4959   16.9382 H   0  0  0  0  0  0
  -29.6093  -21.7376   15.8551 H   0  0  0  0  0  0
  -29.8619  -23.0524   21.8759 H   0  0  0  0  0  0
  -28.2239  -23.5485   21.6241 H   0  0  0  0  0  0
  -27.4392  -20.6765   18.7962 H   0  0  0  0  0  0
  -27.0515  -21.7038   20.1278 H   0  0  0  0  0  0
  -30.5561  -25.4935   21.0968 H   0  0  0  0  0  0
  -29.9534  -25.1453   22.6734 H   0  0  0  0  0  0
  -29.2654  -17.9681   21.7663 H   0  0  0  0  0  0
  -28.3476  -17.4627   20.3679 H   0  0  0  0  0  0
  -31.3484  -17.1223   20.8382 H   0  0  0  0  0  0
  -30.6284  -16.8740   19.2656 H   0  0  0  0  0  0
  -29.3459  -19.1816   18.9569 H   0  0  0  0  0  0
  -30.4604  -19.6982   20.1998 H   0  0  0  0  0  0
  -28.7652  -27.0476   22.1765 H   0  0  0  0  0  0
  -27.6083  -25.7751   21.9144 H   0  0  0  0  0  0
  -29.0376  -15.3430   20.9538 H   0  0  0  0  0  0
  -27.6577  -19.6560   20.8652 H   0  0  0  0  0  0
  -28.7948  -20.6632   21.4082 H   0  0  0  0  0  0
  1 25  1  0  0  0
  1 30  2  0  0  0
  1 84  1  0  0  0
  2  3  1  0  0  0
  2 25  1  0  0  0
  2 86  1  0  0  0
  2 87  1  0  0  0
  3  4  1  0  0  0
  3 88  1  0  0  0
  3 89  1  0  0  0
  4  5  1  0  0  0
  4 90  1  0  0  0
  4 91  1  0  0  0
  5  6  1  0  0  0
  5 26  1  0  0  0
  5 92  1  0  0  0
  6 25  1  0  0  0
  6 93  1  0  0  0
  6 94  1  0  0  0
  7  8  2  0  0  0
  7 26  1  0  0  0
  7 29  1  0  0  0
  8  9  1  0  0  0
  8 22  1  0  0  0
  9 10  1  0  0  0
  9 27  2  0  0  0
 10 11  2  0  0  0
 10 15  1  0  0  0
 11 12  1  0  0  0
 11 95  1  0  0  0
 12 13  2  0  0  0
 12 96  1  0  0  0
 13 14  1  0  0  0
 13 31  1  0  0  0
 14 15  2  0  0  0
 14 97  1  0  0  0
 15 98  1  0  0  0
 16 17  2  0  0  0
 16 21  1  0  0  0
 16 31  1  0  0  0
 17 18  1  0  0  0
 17 99  1  0  0  0
 18 19  2  0  0  0
 18100  1  0  0  0
 19 20  1  0  0  0
 19 24  1  0  0  0
 20 21  2  0  0  0
 20101  1  0  0  0
 21 23  1  0  0  0
 22 28  1  0  0  0
 22 32  2  0  0  0
 26 27  1  0  0  0
 28102  1  0  0  0
 28103  1  0  0  0
 29104  1  0  0  0
 29105  1  0  0  0
 33 34  1  0  0  0
 33 66  1  0  0  0
 33 70  2  0  0  0
 34 36  1  0  0  0
 34 59  1  0  0  0
 34106  1  0  0  0
 35 44  2  0  0  0
 35 45  1  0  0  0
 35 68  1  0  0  0
 36 56  1  0  0  0
 36107  1  0  0  0
 37 39  1  0  0  0
 37 47  1  0  0  0
 37 66  1  0  0  0
 37108  1  0  0  0
 38 43  2  0  0  0
 38 46  1  0  0  0
 38 47  1  0  0  0
 39 64  1  0  0  0
 39 67  2  0  0  0
 40 52  1  0  0  0
 40 53  2  0  0  0
 40 58  1  0  0  0
 41109  1  0  0  0
 41110  1  0  0  0
 41111  1  0  0  0
 41 48  1  0  0  0
 42 43  1  0  0  0
 42 66  1  0  0  0
 42112  1  0  0  0
 42113  1  0  0  0
 43 44  1  0  0  0
 44114  1  0  0  0
 45 46  2  0  0  0
 45115  1  0  0  0
 46116  1  0  0  0
 47117  1  0  0  0
 47118  1  0  0  0
 48 56  1  0  0  0
 48 65  1  0  0  0
 48119  1  0  0  0
 49 50  1  0  0  0
 49 53  1  0  0  0
 49 64  1  0  0  0
 49120  1  0  0  0
 50 51  1  0  0  0
 50121  1  0  0  0
 50122  1  0  0  0
 51 52  1  0  0  0
 51123  1  0  0  0
 51124  1  0  0  0
 52125  1  0  0  0
 52126  1  0  0  0
 53 54  1  0  0  0
 54 55  2  0  0  0
 54127  1  0  0  0
 55 57  1  0  0  0
 55128  1  0  0  0
 56 69  2  0  0  0
 57 58  2  0  0  0
 57129  1  0  0  0
 58130  1  0  0  0
 59 60  1  0  0  0
 59 61  1  0  0  0
 59 62  1  0  0  0
 60131  1  0  0  0
 60132  1  0  0  0
 60133  1  0  0  0
 61134  1  0  0  0
 61135  1  0  0  0
 61136  1  0  0  0
 62137  1  0  0  0
 62138  1  0  0  0
 62139  1  0  0  0
 63 65  1  0  0  0
 63140  1  0  0  0
 63141  1  0  0  0
 63142  1  0  0  0
 64143  1  0  0  0
 65144  1  0  0  0
 68 81  1  0  0  0
 71 72  1  0  0  0
 71 82  2  0  0  0
 71145  1  0  0  0
 72 73  2  0  0  0
 72 75  1  0  0  0
 73 76  1  0  0  0
 73 83  1  0  0  0
 74 83  1  0  0  0
 74146  1  0  0  0
 74147  1  0  0  0
 74148  1  0  0  0
 75 77  1  0  0  0
 75149  1  0  0  0
 75150  1  0  0  0
 76 85  1  0  0  0
 76151  1  0  0  0
 76152  1  0  0  0
 77 81  1  0  0  0
 77153  1  0  0  0
 77154  1  0  0  0
 78 79  1  0  0  0
 78 80  1  0  0  0
 78155  1  0  0  0
 78156  1  0  0  0
 79 84  1  0  0  0
 79157  1  0  0  0
 79158  1  0  0  0
 80 85  1  0  0  0
 80159  1  0  0  0
 80160  1  0  0  0
 81161  1  0  0  0
 81162  1  0  0  0
 82 83  1  0  0  0
 84163  1  0  0  0
 85164  1  0  0  0
 85165  1  0  0  0
M  CHG  1  85   1
M  ISO  4   1 100  68 101  81 101  84 100
M  END
> <chiral flag>
0

> <version>
0

> <s_m_source_file>
/data/baiqing/PycharmProjects/Reinvent-master-3.2/result/LINK_invent/BTK/process_docking_weight1_custom_sum_contain_oxygen_bond_distance_aromatic_linkinvent_7_9_3/rearranged_h_0047.sdf

> <i_m_source_file_index>
71

> <r_mmod_Potential_Energy-OPLS-2005>
-296.002349853516

> <r_mmod_Stretch_Energy-OPLS-2005>
31.3871631622314

> <r_mmod_Bend_Energy-OPLS-2005>
93.1860122680664

> <r_mmod_Torsional_Energy-OPLS-2005>
240.411819458008

> <r_mmod_Improper_Torsional_Energy-OPLS-2005>
8.22811317443848

> <r_mmod_Van_der_Waal_Energy-OPLS-2005>
120.990158081055

> <r_mmod_Electrostatic_Energy-OPLS-2005>
-280.4970703125

> <r_mmod_Solvation_Energy-OPLS-2005>
-528.405944824219

> <b_mmod_Minimization_Converged-OPLS-2005>
0

> <r_mmod_RMS_Derivative-OPLS-2005>
6.17003393173218

$$$$
71
                    3D
 Structure written by MMmdl.
162170  0  0  1  0            999 V2000
  -30.6162  -14.7391   20.4805 C   0  0  0  0  0  0
  -30.4358  -12.4567   19.4649 C   0  0  0  0  0  0
  -29.5095  -12.5202   18.2311 C   0  0  0  0  0  0
  -28.0339  -12.3452   18.6407 C   0  0  0  0  0  0
  -27.6425  -13.2335   19.8531 C   0  0  2  0  0  0
  -28.6903  -13.1504   20.9843 C   0  0  0  0  0  0
  -25.2495  -13.8198   20.5714 C   0  0  0  0  0  0
  -24.1792  -13.0435   20.9226 C   0  0  0  0  0  0
  -24.6383  -11.6917   20.8748 C   0  0  0  0  0  0
  -23.9067  -10.4292   21.0398 C   0  0  0  0  0  0
  -24.3637   -9.4216   21.9171 C   0  0  0  0  0  0
  -23.6324   -8.2247   22.0730 C   0  0  0  0  0  0
  -22.4297   -8.0282   21.3529 C   0  0  0  0  0  0
  -21.9932   -9.0245   20.4624 C   0  0  0  0  0  0
  -22.7247  -10.2134   20.3034 C   0  0  0  0  0  0
  -21.6865   -6.0752   22.5292 C   0  0  0  0  0  0
  -21.4009   -6.5647   23.8230 C   0  0  0  0  0  0
  -21.3666   -5.6795   24.9193 C   0  0  0  0  0  0
  -21.6059   -4.3057   24.7236 C   0  0  0  0  0  0
  -21.8818   -3.8154   23.4350 C   0  0  0  0  0  0
  -21.9202   -4.6980   22.3412 C   0  0  0  0  0  0
  -22.7816  -13.5205   21.1912 C   0  0  0  0  0  0
  -22.1662   -4.2170   21.0986 F   0  0  0  0  0  0
  -21.5636   -3.4529   25.7739 F   0  0  0  0  0  0
  -29.9917  -13.5130   20.4039 N   0  0  0  0  0  0
  -26.2937  -12.9417   20.3295 N   0  0  0  0  0  0
  -25.9313  -11.6552   20.5736 N   0  0  0  0  0  0
  -22.0499  -12.8155   22.0466 N   0  0  0  0  0  0
  -25.4153  -15.1931   20.4124 N   0  0  0  0  0  0
  -31.8061  -14.8463   20.1723 O   0  0  0  0  0  0
  -21.6648   -6.8891   21.4252 O   0  0  0  0  0  0
  -22.3494  -14.5528   20.6800 O   0  0  0  0  0  0
  -24.6317  -31.8555   23.1956 C   0  0  0  0  0  0
  -25.9143  -32.4743   23.8300 C   0  0  1  0  0  0
  -27.2208  -27.2542   20.1496 C   0  0  0  0  0  0
  -25.5945  -33.8552   24.2226 N   0  0  0  0  0  0
  -23.4276  -30.4765   21.5389 C   0  0  2  0  0  0
  -24.8759  -28.9187   20.1108 C   0  0  0  0  0  0
  -22.7492  -29.4608   22.4898 C   0  0  0  0  0  0
  -18.0311  -28.1406   22.8485 C   0  0  0  0  0  0
  -24.1505  -36.7276   23.2636 C   0  0  0  0  0  0
  -25.9718  -30.7674   21.3761 C   0  0  0  0  0  0
  -26.0445  -29.3859   20.7253 C   0  0  0  0  0  0
  -27.2196  -28.5656   20.7345 C   0  0  0  0  0  0
  -26.0401  -26.8605   19.4880 C   0  0  0  0  0  0
  -24.8797  -27.6633   19.4798 C   0  0  0  0  0  0
  -23.6433  -29.8053   20.1561 C   0  0  0  0  0  0
  -25.4131  -36.3047   24.0310 C   0  0  1  0  0  0
  -20.5910  -28.3703   23.1280 C   0  0  2  0  0  0
  -20.6800  -26.9420   22.5419 C   0  0  0  0  0  0
  -19.5771  -26.6393   21.5231 C   0  0  0  0  0  0
  -18.1949  -26.7958   22.1629 C   0  0  0  0  0  0
  -19.1558  -28.8875   23.2883 C   0  0  0  0  0  0
  -18.9472  -30.1485   23.8879 C   0  0  0  0  0  0
  -17.6458  -30.6593   24.0571 C   0  0  0  0  0  0
  -25.9067  -34.9427   23.5061 C   0  0  0  0  0  0
  -16.5356  -29.9083   23.6341 C   0  0  0  0  0  0
  -16.7291  -28.6521   23.0333 C   0  0  0  0  0  0
  -26.4508  -31.6571   25.0689 C   0  0  0  0  0  0
  -25.3707  -31.3722   26.1380 C   0  0  0  0  0  0
  -27.0367  -30.2995   24.6176 C   0  0  0  0  0  0
  -27.6063  -32.4322   25.7447 C   0  0  0  0  0  0
  -27.5580  -37.1783   24.8457 C   0  0  0  0  0  0
  -21.4211  -29.3033   22.3631 N   0  0  0  0  0  0
  -26.4297  -37.3749   23.9399 N   0  0  0  0  0  0
  -24.6953  -31.0514   22.0927 N   0  0  0  0  0  0
  -23.4199  -28.8180   23.3025 O   0  0  0  0  0  0
  -28.3220  -26.3628   20.1516 O   0  0  0  0  0  0
  -26.5647  -34.8908   22.4634 O   0  0  0  0  0  0
  -23.5467  -32.1381   23.7255 O   0  0  0  0  0  0
  -30.9865  -23.2559   20.1426 C   0  0  0  0  0  0
  -31.4263  -21.2307   20.6614 C   0  0  0  0  0  0
  -30.0493  -21.2962   20.5470 C   0  0  0  0  0  0
  -32.2918  -20.0720   21.0433 C   0  0  0  0  0  0
  -29.4431  -25.2978   21.9269 C   0  0  0  0  0  0
  -27.0348  -24.8773   21.7370 C   0  0  0  0  0  0
  -29.1270  -20.0447   20.7632 C   0  0  0  0  0  0
  -29.4471  -18.5388   20.1788 C   0  0  0  0  0  0
  -28.5437  -23.6074   20.0983 C   0  0  0  0  0  0
  -30.2180  -17.3372   20.9615 C   0  0  0  0  0  0
  -28.3260  -25.0391   20.8964 C   0  0  0  0  0  0
  -32.0117  -22.4507   20.3664 N   0  0  0  0  0  0
  -29.7675  -22.7225   20.3130 N   0  0  0  0  0  0
  -29.8409  -15.8639   20.7282 N   0  0  0  0  0  0
  -31.4740  -12.5886   19.1574 H   0  0  0  0  0  0
  -30.3826  -11.4759   19.9415 H   0  0  0  0  0  0
  -29.7911  -11.7554   17.5062 H   0  0  0  0  0  0
  -29.6370  -13.4824   17.7314 H   0  0  0  0  0  0
  -27.8824  -11.2934   18.8844 H   0  0  0  0  0  0
  -27.3824  -12.5568   17.7914 H   0  0  0  0  0  0
  -27.6377  -14.2592   19.4850 H   0  0  0  0  0  0
  -28.7238  -12.1418   21.3996 H   0  0  0  0  0  0
  -28.4257  -13.8158   21.8089 H   0  0  0  0  0  0
  -25.2788   -9.5724   22.4727 H   0  0  0  0  0  0
  -24.0077   -7.4639   22.7417 H   0  0  0  0  0  0
  -21.0885   -8.8740   19.8905 H   0  0  0  0  0  0
  -22.3698  -10.9669   19.6139 H   0  0  0  0  0  0
  -21.1967   -7.6147   23.9746 H   0  0  0  0  0  0
  -21.1495   -6.0511   25.9100 H   0  0  0  0  0  0
  -22.0587   -2.7617   23.2842 H   0  0  0  0  0  0
  -22.4148  -11.9816   22.4835 H   0  0  0  0  0  0
  -21.1084  -13.1090   22.2649 H   0  0  0  0  0  0
  -24.6410  -15.8399   20.5156 H   0  0  0  0  0  0
  -26.2539  -15.6393   20.0646 H   0  0  0  0  0  0
  -26.7194  -32.5375   23.1023 H   0  0  0  0  0  0
  -25.0081  -33.9700   25.0362 H   0  0  0  0  0  0
  -22.7220  -31.2971   21.3908 H   0  0  0  0  0  0
  -23.3768  -35.9610   23.3302 H   0  0  0  0  0  0
  -24.3578  -36.8913   22.2048 H   0  0  0  0  0  0
  -23.7282  -37.6482   23.6677 H   0  0  0  0  0  0
  -26.1117  -31.5291   20.6080 H   0  0  0  0  0  0
  -26.8488  -30.8134   22.0109 H   0  0  0  0  0  0
  -28.1132  -28.9221   21.2247 H   0  0  0  0  0  0
  -26.0085  -25.9007   18.9925 H   0  0  0  0  0  0
  -23.9884  -27.3037   18.9868 H   0  0  0  0  0  0
  -23.7561  -30.5799   19.3965 H   0  0  0  0  0  0
  -22.7619  -29.2345   19.8575 H   0  0  0  0  0  0
  -25.1325  -36.1856   25.0803 H   0  0  0  0  0  0
  -21.0014  -28.3287   24.1403 H   0  0  0  0  0  0
  -20.5748  -26.2301   23.3616 H   0  0  0  0  0  0
  -21.6660  -26.7470   22.1174 H   0  0  0  0  0  0
  -19.6938  -25.6306   21.1261 H   0  0  0  0  0  0
  -19.6728  -27.3200   20.6756 H   0  0  0  0  0  0
  -17.4229  -26.6729   21.4015 H   0  0  0  0  0  0
  -18.0324  -26.0108   22.9022 H   0  0  0  0  0  0
  -19.7935  -30.7335   24.2217 H   0  0  0  0  0  0
  -17.4994  -31.6262   24.5185 H   0  0  0  0  0  0
  -15.5349  -30.2957   23.7684 H   0  0  0  0  0  0
  -15.8704  -28.0833   22.7021 H   0  0  0  0  0  0
  -24.5888  -30.7081   25.7663 H   0  0  0  0  0  0
  -24.8888  -32.2895   26.4771 H   0  0  0  0  0  0
  -25.7981  -30.8886   27.0169 H   0  0  0  0  0  0
  -26.2949  -29.6715   24.1226 H   0  0  0  0  0  0
  -27.4094  -29.7272   25.4679 H   0  0  0  0  0  0
  -27.8796  -30.4294   23.9389 H   0  0  0  0  0  0
  -27.2685  -33.3642   26.1996 H   0  0  0  0  0  0
  -28.3868  -32.6863   25.0257 H   0  0  0  0  0  0
  -28.0740  -31.8467   26.5376 H   0  0  0  0  0  0
  -28.2581  -38.0090   24.7495 H   0  0  0  0  0  0
  -28.1096  -36.2619   24.6295 H   0  0  0  0  0  0
  -27.2289  -37.1425   25.8856 H   0  0  0  0  0  0
  -20.9393  -29.8684   21.6771 H   0  0  0  0  0  0
  -26.0167  -38.2822   24.1403 H   0  0  0  0  0  0
  -31.1374  -24.2832   19.8448 H   0  0  0  0  0  0
  -32.4433  -19.3966   20.2009 H   0  0  0  0  0  0
  -31.8496  -19.5117   21.8685 H   0  0  0  0  0  0
  -33.2778  -20.3966   21.3760 H   0  0  0  0  0  0
  -29.6160  -24.4345   22.5707 H   0  0  0  0  0  0
  -29.1874  -26.1316   22.5820 H   0  0  0  0  0  0
  -30.3868  -25.5630   21.4522 H   0  0  0  0  0  0
  -26.8329  -25.7560   22.3502 H   0  0  0  0  0  0
  -27.1190  -24.0332   22.4229 H   0  0  0  0  0  0
  -26.1559  -24.6937   21.1191 H   0  0  0  0  0  0
  -28.1557  -20.3283   20.3581 H   0  0  0  0  0  0
  -28.9466  -19.9456   21.8348 H   0  0  0  0  0  0
  -29.8605  -18.6318   19.1738 H   0  0  0  0  0  0
  -28.4531  -18.1240   20.0162 H   0  0  0  0  0  0
  -28.5188  -23.8297   19.0305 H   0  0  0  0  0  0
  -27.6794  -22.9627   20.2536 H   0  0  0  0  0  0
  -30.0859  -17.5058   22.0309 H   0  0  0  0  0  0
  -31.2898  -17.4376   20.7857 H   0  0  0  0  0  0
  -28.8717  -15.6484   20.9038 H   0  0  0  0  0  0
  1 25  1  0  0  0
  1 30  2  0  0  0
  1 84  1  0  0  0
  2  3  1  0  0  0
  2 25  1  0  0  0
  2 85  1  0  0  0
  2 86  1  0  0  0
  3  4  1  0  0  0
  3 87  1  0  0  0
  3 88  1  0  0  0
  4  5  1  0  0  0
  4 89  1  0  0  0
  4 90  1  0  0  0
  5  6  1  0  0  0
  5 26  1  0  0  0
  5 91  1  0  0  0
  6 25  1  0  0  0
  6 92  1  0  0  0
  6 93  1  0  0  0
  7  8  2  0  0  0
  7 26  1  0  0  0
  7 29  1  0  0  0
  8  9  1  0  0  0
  8 22  1  0  0  0
  9 10  1  0  0  0
  9 27  2  0  0  0
 10 11  2  0  0  0
 10 15  1  0  0  0
 11 12  1  0  0  0
 11 94  1  0  0  0
 12 13  2  0  0  0
 12 95  1  0  0  0
 13 14  1  0  0  0
 13 31  1  0  0  0
 14 15  2  0  0  0
 14 96  1  0  0  0
 15 97  1  0  0  0
 16 17  2  0  0  0
 16 21  1  0  0  0
 16 31  1  0  0  0
 17 18  1  0  0  0
 17 98  1  0  0  0
 18 19  2  0  0  0
 18 99  1  0  0  0
 19 20  1  0  0  0
 19 24  1  0  0  0
 20 21  2  0  0  0
 20100  1  0  0  0
 21 23  1  0  0  0
 22 28  1  0  0  0
 22 32  2  0  0  0
 26 27  1  0  0  0
 28101  1  0  0  0
 28102  1  0  0  0
 29103  1  0  0  0
 29104  1  0  0  0
 33 34  1  0  0  0
 33 66  1  0  0  0
 33 70  2  0  0  0
 34 36  1  0  0  0
 34 59  1  0  0  0
 34105  1  0  0  0
 35 44  2  0  0  0
 35 45  1  0  0  0
 35 68  1  0  0  0
 36 56  1  0  0  0
 36106  1  0  0  0
 37 39  1  0  0  0
 37 47  1  0  0  0
 37 66  1  0  0  0
 37107  1  0  0  0
 38 43  2  0  0  0
 38 46  1  0  0  0
 38 47  1  0  0  0
 39 64  1  0  0  0
 39 67  2  0  0  0
 40 52  1  0  0  0
 40 53  2  0  0  0
 40 58  1  0  0  0
 41108  1  0  0  0
 41109  1  0  0  0
 41110  1  0  0  0
 41 48  1  0  0  0
 42 43  1  0  0  0
 42 66  1  0  0  0
 42111  1  0  0  0
 42112  1  0  0  0
 43 44  1  0  0  0
 44113  1  0  0  0
 45 46  2  0  0  0
 45114  1  0  0  0
 46115  1  0  0  0
 47116  1  0  0  0
 47117  1  0  0  0
 48 56  1  0  0  0
 48 65  1  0  0  0
 48118  1  0  0  0
 49 50  1  0  0  0
 49 53  1  0  0  0
 49 64  1  0  0  0
 49119  1  0  0  0
 50 51  1  0  0  0
 50120  1  0  0  0
 50121  1  0  0  0
 51 52  1  0  0  0
 51122  1  0  0  0
 51123  1  0  0  0
 52124  1  0  0  0
 52125  1  0  0  0
 53 54  1  0  0  0
 54 55  2  0  0  0
 54126  1  0  0  0
 55 57  1  0  0  0
 55127  1  0  0  0
 56 69  2  0  0  0
 57 58  2  0  0  0
 57128  1  0  0  0
 58129  1  0  0  0
 59 60  1  0  0  0
 59 61  1  0  0  0
 59 62  1  0  0  0
 60130  1  0  0  0
 60131  1  0  0  0
 60132  1  0  0  0
 61133  1  0  0  0
 61134  1  0  0  0
 61135  1  0  0  0
 62136  1  0  0  0
 62137  1  0  0  0
 62138  1  0  0  0
 63 65  1  0  0  0
 63139  1  0  0  0
 63140  1  0  0  0
 63141  1  0  0  0
 64142  1  0  0  0
 65143  1  0  0  0
 68 81  1  0  0  0
 71 82  2  0  0  0
 71 83  1  0  0  0
 71144  1  0  0  0
 72 73  2  0  0  0
 72 74  1  0  0  0
 72 82  1  0  0  0
 73 77  1  0  0  0
 73 83  1  0  0  0
 74145  1  0  0  0
 74146  1  0  0  0
 74147  1  0  0  0
 75148  1  0  0  0
 75149  1  0  0  0
 75150  1  0  0  0
 75 81  1  0  0  0
 76 81  1  0  0  0
 76151  1  0  0  0
 76152  1  0  0  0
 76153  1  0  0  0
 77 78  1  0  0  0
 77154  1  0  0  0
 77155  1  0  0  0
 78 80  1  0  0  0
 78156  1  0  0  0
 78157  1  0  0  0
 79 81  1  0  0  0
 79 83  1  0  0  0
 79158  1  0  0  0
 79159  1  0  0  0
 80 84  1  0  0  0
 80160  1  0  0  0
 80161  1  0  0  0
 84162  1  0  0  0
M  ISO  4   1 100  68 101  81 101  84 100
M  END
> <chiral flag>
0

> <version>
0

> <s_m_source_file>
/data/baiqing/PycharmProjects/Reinvent-master-3.2/result/LINK_invent/BTK/process_docking_weight1_custom_sum_contain_oxygen_bond_distance_aromatic_linkinvent_7_9_3/rearranged_h_0047.sdf

> <i_m_source_file_index>
72

> <r_mmod_Potential_Energy-OPLS-2005>
219.166870117188

> <r_mmod_Stretch_Energy-OPLS-2005>
153.880432128906

> <r_mmod_Bend_Energy-OPLS-2005>
232.233963012695

> <r_mmod_Torsional_Energy-OPLS-2005>
254.299118041992

> <r_mmod_Improper_Torsional_Energy-OPLS-2005>
5.04165935516357

> <r_mmod_Van_der_Waal_Energy-OPLS-2005>
115.686149597168

> <r_mmod_Electrostatic_Energy-OPLS-2005>
-399.686737060547

> <r_mmod_Solvation_Energy-OPLS-2005>
-225.622421264648

> <b_mmod_Minimization_Converged-OPLS-2005>
0

> <r_mmod_RMS_Derivative-OPLS-2005>
2.66332483291626

$$$$
72
                    3D
 Structure written by MMmdl.
151159  0  0  1  0            999 V2000
  -30.5388  -14.8959   20.4413 C   0  0  0  0  0  0
  -30.4433  -12.5544   19.4838 C   0  0  0  0  0  0
  -29.5186  -12.5191   18.2453 C   0  0  0  0  0  0
  -28.0499  -12.3120   18.6663 C   0  0  0  0  0  0
  -27.6314  -13.2377   19.8383 C   0  0  2  0  0  0
  -28.6755  -13.2321   20.9729 C   0  0  0  0  0  0
  -25.2477  -13.8189   20.5721 C   0  0  0  0  0  0
  -24.1782  -13.0430   20.9238 C   0  0  0  0  0  0
  -24.6378  -11.6912   20.8766 C   0  0  0  0  0  0
  -23.9057  -10.4288   21.0421 C   0  0  0  0  0  0
  -24.3611   -9.4202   21.9195 C   0  0  0  0  0  0
  -23.6288   -8.2233   22.0752 C   0  0  0  0  0  0
  -22.4271   -8.0270   21.3541 C   0  0  0  0  0  0
  -21.9908   -9.0244   20.4647 C   0  0  0  0  0  0
  -22.7233  -10.2127   20.3063 C   0  0  0  0  0  0
  -21.6852   -6.0735   22.5279 C   0  0  0  0  0  0
  -21.4019   -6.5639   23.8214 C   0  0  0  0  0  0
  -21.3662   -5.6788   24.9177 C   0  0  0  0  0  0
  -21.6039   -4.3049   24.7226 C   0  0  0  0  0  0
  -21.8814   -3.8144   23.4346 C   0  0  0  0  0  0
  -21.9192   -4.6964   22.3405 C   0  0  0  0  0  0
  -22.7809  -13.5216   21.1892 C   0  0  0  0  0  0
  -22.1661   -4.2147   21.0983 F   0  0  0  0  0  0
  -21.5626   -3.4536   25.7742 F   0  0  0  0  0  0
  -29.9534  -13.6389   20.3751 N   0  0  0  0  0  0
  -26.2886  -12.9397   20.3244 N   0  0  0  0  0  0
  -25.9307  -11.6536   20.5742 N   0  0  0  0  0  0
  -22.0449  -12.8211   22.0442 N   0  0  0  0  0  0
  -25.4154  -15.1922   20.4152 N   0  0  0  0  0  0
  -31.7480  -14.9881   20.2047 O   0  0  0  0  0  0
  -21.6633   -6.8872   21.4235 O   0  0  0  0  0  0
  -22.3504  -14.5519   20.6727 O   0  0  0  0  0  0
  -24.6414  -31.8458   23.1891 C   0  0  0  0  0  0
  -25.9189  -32.4701   23.8278 C   0  0  1  0  0  0
  -27.2175  -27.1624   20.1626 C   0  0  0  0  0  0
  -25.5942  -33.8508   24.2197 N   0  0  0  0  0  0
  -23.4442  -30.4644   21.5341 C   0  0  2  0  0  0
  -24.8953  -28.8923   20.1141 C   0  0  0  0  0  0
  -22.7558  -29.4552   22.4869 C   0  0  0  0  0  0
  -18.0303  -28.1392   22.8476 C   0  0  0  0  0  0
  -24.1491  -36.7268   23.2643 C   0  0  0  0  0  0
  -25.9975  -30.7290   21.3834 C   0  0  0  0  0  0
  -26.0714  -29.3406   20.7306 C   0  0  0  0  0  0
  -27.2392  -28.4928   20.7355 C   0  0  0  0  0  0
  -26.0199  -26.8057   19.5098 C   0  0  0  0  0  0
  -24.8804  -27.6369   19.4872 C   0  0  0  0  0  0
  -23.6701  -29.7914   20.1543 C   0  0  0  0  0  0
  -25.4120  -36.3042   24.0319 C   0  0  1  0  0  0
  -20.5914  -28.3719   23.1240 C   0  0  2  0  0  0
  -20.6786  -26.9421   22.5408 C   0  0  0  0  0  0
  -19.5758  -26.6380   21.5215 C   0  0  0  0  0  0
  -18.1940  -26.7930   22.1625 C   0  0  0  0  0  0
  -19.1559  -28.8874   23.2848 C   0  0  0  0  0  0
  -18.9474  -30.1470   23.8875 C   0  0  0  0  0  0
  -17.6471  -30.6591   24.0559 C   0  0  0  0  0  0
  -25.9066  -34.9415   23.5067 C   0  0  0  0  0  0
  -16.5363  -29.9084   23.6335 C   0  0  0  0  0  0
  -16.7288  -28.6501   23.0356 C   0  0  0  0  0  0
  -26.4525  -31.6563   25.0711 C   0  0  0  0  0  0
  -25.3714  -31.3744   26.1407 C   0  0  0  0  0  0
  -27.0385  -30.2960   24.6270 C   0  0  0  0  0  0
  -27.6048  -32.4333   25.7502 C   0  0  0  0  0  0
  -27.5578  -37.1793   24.8467 C   0  0  0  0  0  0
  -21.4253  -29.3049   22.3619 N   0  0  0  0  0  0
  -26.4291  -37.3748   23.9405 N   0  0  0  0  0  0
  -24.7137  -31.0340   22.0909 N   0  0  0  0  0  0
  -23.4212  -28.8102   23.3013 O   0  0  0  0  0  0
  -28.2612  -26.1787   20.1787 O   0  0  0  0  0  0
  -26.5652  -34.8911   22.4645 O   0  0  0  0  0  0
  -23.5537  -32.1322   23.7132 O   0  0  0  0  0  0
  -27.7855  -21.0426   19.9442 C   0  0  0  0  0  0
  -29.0249  -20.3964   20.2782 C   0  0  0  0  0  0
  -29.7377  -22.6559   20.7930 C   0  0  0  0  0  0
  -28.4885  -23.2984   20.4401 C   0  0  0  0  0  0
  -30.8507  -23.4749   21.4151 C   0  0  0  0  0  0
  -29.2843  -18.8037   19.9232 C   0  0  0  0  0  0
  -27.9887  -24.8188   20.8518 C   0  0  0  0  0  0
  -29.9583  -17.5808   20.8377 C   0  0  0  0  0  0
  -27.5298  -22.4066   20.0201 N   0  0  0  0  0  0
  -30.0061  -21.2812   20.6770 N   0  0  0  0  0  0
  -29.7217  -16.0431   20.5770 N   0  0  0  0  0  0
  -30.4309  -11.5949   20.0042 H   0  0  0  0  0  0
  -31.4770  -12.7184   19.1759 H   0  0  0  0  0  0
  -29.8291  -11.7271   17.5617 H   0  0  0  0  0  0
  -29.6128  -13.4561   17.6934 H   0  0  0  0  0  0
  -27.9421  -11.2707   18.9718 H   0  0  0  0  0  0
  -27.3859  -12.4486   17.8121 H   0  0  0  0  0  0
  -27.6045  -14.2452   19.4226 H   0  0  0  0  0  0
  -28.3841  -13.9203   21.7682 H   0  0  0  0  0  0
  -28.7541  -12.2441   21.4306 H   0  0  0  0  0  0
  -25.2756   -9.5683   22.4766 H   0  0  0  0  0  0
  -24.0001   -7.4628   22.7471 H   0  0  0  0  0  0
  -21.0839   -8.8766   19.8961 H   0  0  0  0  0  0
  -22.3692  -10.9663   19.6172 H   0  0  0  0  0  0
  -21.2011   -7.6146   23.9723 H   0  0  0  0  0  0
  -21.1495   -6.0521   25.9081 H   0  0  0  0  0  0
  -22.0592   -2.7606   23.2851 H   0  0  0  0  0  0
  -22.4059  -11.9877   22.4837 H   0  0  0  0  0  0
  -21.1064  -13.1244   22.2634 H   0  0  0  0  0  0
  -24.6437  -15.8412   20.5239 H   0  0  0  0  0  0
  -26.2501  -15.6324   20.0519 H   0  0  0  0  0  0
  -26.7254  -32.5329   23.1010 H   0  0  0  0  0  0
  -25.0068  -33.9618   25.0332 H   0  0  0  0  0  0
  -22.7456  -31.2892   21.3793 H   0  0  0  0  0  0
  -23.3753  -35.9600   23.3298 H   0  0  0  0  0  0
  -24.3576  -36.8904   22.2058 H   0  0  0  0  0  0
  -23.7250  -37.6465   23.6681 H   0  0  0  0  0  0
  -26.1478  -31.4819   20.6091 H   0  0  0  0  0  0
  -26.8699  -30.7823   22.0226 H   0  0  0  0  0  0
  -28.1392  -28.8333   21.2286 H   0  0  0  0  0  0
  -25.9527  -25.8392   19.0297 H   0  0  0  0  0  0
  -23.9841  -27.2891   18.9929 H   0  0  0  0  0  0
  -23.8047  -30.5641   19.3962 H   0  0  0  0  0  0
  -22.7863  -29.2297   19.8460 H   0  0  0  0  0  0
  -25.1310  -36.1875   25.0813 H   0  0  0  0  0  0
  -21.0001  -28.3303   24.1361 H   0  0  0  0  0  0
  -20.5676  -26.2328   23.3622 H   0  0  0  0  0  0
  -21.6651  -26.7423   22.1205 H   0  0  0  0  0  0
  -19.6916  -25.6285   21.1255 H   0  0  0  0  0  0
  -19.6698  -27.3180   20.6733 H   0  0  0  0  0  0
  -17.4209  -26.6673   21.4031 H   0  0  0  0  0  0
  -18.0342  -26.0081   22.9028 H   0  0  0  0  0  0
  -19.7952  -30.7290   24.2237 H   0  0  0  0  0  0
  -17.5026  -31.6269   24.5162 H   0  0  0  0  0  0
  -15.5362  -30.2978   23.7675 H   0  0  0  0  0  0
  -15.8685  -28.0813   22.7084 H   0  0  0  0  0  0
  -24.5895  -30.7087   25.7737 H   0  0  0  0  0  0
  -24.8902  -32.2922   26.4793 H   0  0  0  0  0  0
  -25.8005  -30.8948   27.0212 H   0  0  0  0  0  0
  -26.2992  -29.6686   24.1272 H   0  0  0  0  0  0
  -27.4000  -29.7258   25.4840 H   0  0  0  0  0  0
  -27.8904  -30.4206   23.9579 H   0  0  0  0  0  0
  -27.2620  -33.3637   26.2041 H   0  0  0  0  0  0
  -28.3879  -32.6884   25.0350 H   0  0  0  0  0  0
  -28.0688  -31.8482   26.5452 H   0  0  0  0  0  0
  -28.2595  -38.0090   24.7497 H   0  0  0  0  0  0
  -28.1072  -36.2617   24.6313 H   0  0  0  0  0  0
  -27.2289  -37.1464   25.8868 H   0  0  0  0  0  0
  -20.9460  -29.8765   21.6804 H   0  0  0  0  0  0
  -26.0162  -38.2822   24.1392 H   0  0  0  0  0  0
  -26.9667  -20.4485   19.5638 H   0  0  0  0  0  0
  -30.5586  -23.8162   22.4088 H   0  0  0  0  0  0
  -31.0690  -24.3509   20.8047 H   0  0  0  0  0  0
  -31.7684  -22.8948   21.5180 H   0  0  0  0  0  0
  -29.8332  -18.8188   18.9814 H   0  0  0  0  0  0
  -28.2985  -18.4370   19.6380 H   0  0  0  0  0  0
  -28.3692  -24.9559   21.8636 H   0  0  0  0  0  0
  -26.9115  -24.7372   21.0036 H   0  0  0  0  0  0
  -31.0341  -17.7484   20.8936 H   0  0  0  0  0  0
  -29.5998  -17.7339   21.8558 H   0  0  0  0  0  0
  -28.7471  -15.7895   20.6374 H   0  0  0  0  0  0
  1 25  1  0  0  0
  1 30  2  0  0  0
  1 81  1  0  0  0
  2  3  1  0  0  0
  2 25  1  0  0  0
  2 82  1  0  0  0
  2 83  1  0  0  0
  3  4  1  0  0  0
  3 84  1  0  0  0
  3 85  1  0  0  0
  4  5  1  0  0  0
  4 86  1  0  0  0
  4 87  1  0  0  0
  5  6  1  0  0  0
  5 26  1  0  0  0
  5 88  1  0  0  0
  6 25  1  0  0  0
  6 89  1  0  0  0
  6 90  1  0  0  0
  7  8  2  0  0  0
  7 26  1  0  0  0
  7 29  1  0  0  0
  8  9  1  0  0  0
  8 22  1  0  0  0
  9 10  1  0  0  0
  9 27  2  0  0  0
 10 11  2  0  0  0
 10 15  1  0  0  0
 11 12  1  0  0  0
 11 91  1  0  0  0
 12 13  2  0  0  0
 12 92  1  0  0  0
 13 14  1  0  0  0
 13 31  1  0  0  0
 14 15  2  0  0  0
 14 93  1  0  0  0
 15 94  1  0  0  0
 16 17  2  0  0  0
 16 21  1  0  0  0
 16 31  1  0  0  0
 17 18  1  0  0  0
 17 95  1  0  0  0
 18 19  2  0  0  0
 18 96  1  0  0  0
 19 20  1  0  0  0
 19 24  1  0  0  0
 20 21  2  0  0  0
 20 97  1  0  0  0
 21 23  1  0  0  0
 22 28  1  0  0  0
 22 32  2  0  0  0
 26 27  1  0  0  0
 28 98  1  0  0  0
 28 99  1  0  0  0
 29100  1  0  0  0
 29101  1  0  0  0
 33 34  1  0  0  0
 33 66  1  0  0  0
 33 70  2  0  0  0
 34 36  1  0  0  0
 34 59  1  0  0  0
 34102  1  0  0  0
 35 44  2  0  0  0
 35 45  1  0  0  0
 35 68  1  0  0  0
 36 56  1  0  0  0
 36103  1  0  0  0
 37 39  1  0  0  0
 37 47  1  0  0  0
 37 66  1  0  0  0
 37104  1  0  0  0
 38 43  2  0  0  0
 38 46  1  0  0  0
 38 47  1  0  0  0
 39 64  1  0  0  0
 39 67  2  0  0  0
 40 52  1  0  0  0
 40 53  2  0  0  0
 40 58  1  0  0  0
 41105  1  0  0  0
 41106  1  0  0  0
 41107  1  0  0  0
 41 48  1  0  0  0
 42 43  1  0  0  0
 42 66  1  0  0  0
 42108  1  0  0  0
 42109  1  0  0  0
 43 44  1  0  0  0
 44110  1  0  0  0
 45 46  2  0  0  0
 45111  1  0  0  0
 46112  1  0  0  0
 47113  1  0  0  0
 47114  1  0  0  0
 48 56  1  0  0  0
 48 65  1  0  0  0
 48115  1  0  0  0
 49 50  1  0  0  0
 49 53  1  0  0  0
 49 64  1  0  0  0
 49116  1  0  0  0
 50 51  1  0  0  0
 50117  1  0  0  0
 50118  1  0  0  0
 51 52  1  0  0  0
 51119  1  0  0  0
 51120  1  0  0  0
 52121  1  0  0  0
 52122  1  0  0  0
 53 54  1  0  0  0
 54 55  2  0  0  0
 54123  1  0  0  0
 55 57  1  0  0  0
 55124  1  0  0  0
 56 69  2  0  0  0
 57 58  2  0  0  0
 57125  1  0  0  0
 58126  1  0  0  0
 59 60  1  0  0  0
 59 61  1  0  0  0
 59 62  1  0  0  0
 60127  1  0  0  0
 60128  1  0  0  0
 60129  1  0  0  0
 61130  1  0  0  0
 61131  1  0  0  0
 61132  1  0  0  0
 62133  1  0  0  0
 62134  1  0  0  0
 62135  1  0  0  0
 63 65  1  0  0  0
 63136  1  0  0  0
 63137  1  0  0  0
 63138  1  0  0  0
 64139  1  0  0  0
 65140  1  0  0  0
 68 77  1  0  0  0
 71 72  2  0  0  0
 71 79  1  0  0  0
 71141  1  0  0  0
 72 76  1  0  0  0
 72 80  1  0  0  0
 73 74  1  0  0  0
 73 75  1  0  0  0
 73 80  2  0  0  0
 74 77  1  0  0  0
 74 79  2  0  0  0
 75142  1  0  0  0
 75143  1  0  0  0
 75144  1  0  0  0
 76 78  1  0  0  0
 76145  1  0  0  0
 76146  1  0  0  0
 77147  1  0  0  0
 77148  1  0  0  0
 78 81  1  0  0  0
 78149  1  0  0  0
 78150  1  0  0  0
 81151  1  0  0  0
M  ISO  4   1 100  68 101  77 101  81 100
M  END
> <chiral flag>
0

> <version>
0

> <s_m_source_file>
/data/baiqing/PycharmProjects/Reinvent-master-3.2/result/LINK_invent/BTK/process_docking_weight1_custom_sum_contain_oxygen_bond_distance_aromatic_linkinvent_7_9_3/rearranged_h_0047.sdf

> <i_m_source_file_index>
73

> <r_mmod_Potential_Energy-OPLS-2005>
493.975067138672

> <r_mmod_Stretch_Energy-OPLS-2005>
218.090408325195

> <r_mmod_Bend_Energy-OPLS-2005>
259.072784423828

> <r_mmod_Torsional_Energy-OPLS-2005>
236.587966918945

> <r_mmod_Improper_Torsional_Energy-OPLS-2005>
8.1905345916748

> <r_mmod_Van_der_Waal_Energy-OPLS-2005>
132.505310058594

> <r_mmod_Electrostatic_Energy-OPLS-2005>
-294.635925292969

> <r_mmod_Solvation_Energy-OPLS-2005>
-231.979736328125

> <b_mmod_Minimization_Converged-OPLS-2005>
0

> <r_mmod_RMS_Derivative-OPLS-2005>
1.54867112636566

$$$$
73
                    3D
 Structure written by MMmdl.
155163  0  0  1  0            999 V2000
  -30.2387  -15.7032   20.3100 C   0  0  0  0  0  0
  -30.4319  -13.1159   19.5605 C   0  0  0  0  0  0
  -29.5657  -12.6749   18.3404 C   0  0  0  0  0  0
  -28.1371  -12.3060   18.7710 C   0  0  0  0  0  0
  -27.5952  -13.3151   19.8063 C   0  0  2  0  0  0
  -28.6011  -13.6624   20.9274 C   0  0  0  0  0  0
  -25.2328  -13.8297   20.5777 C   0  0  0  0  0  0
  -24.1722  -13.0437   20.9272 C   0  0  0  0  0  0
  -24.6428  -11.6948   20.8739 C   0  0  0  0  0  0
  -23.9130  -10.4295   21.0384 C   0  0  0  0  0  0
  -24.3660   -9.4208   21.9168 C   0  0  0  0  0  0
  -23.6319   -8.2253   22.0751 C   0  0  0  0  0  0
  -22.4297   -8.0291   21.3544 C   0  0  0  0  0  0
  -21.9942   -9.0266   20.4643 C   0  0  0  0  0  0
  -22.7290  -10.2136   20.3042 C   0  0  0  0  0  0
  -21.6860   -6.0741   22.5278 C   0  0  0  0  0  0
  -21.4022   -6.5645   23.8213 C   0  0  0  0  0  0
  -21.3662   -5.6795   24.9172 C   0  0  0  0  0  0
  -21.6043   -4.3059   24.7223 C   0  0  0  0  0  0
  -21.8818   -3.8148   23.4342 C   0  0  0  0  0  0
  -21.9195   -4.6968   22.3402 C   0  0  0  0  0  0
  -22.7733  -13.5164   21.1923 C   0  0  0  0  0  0
  -22.1660   -4.2151   21.0976 F   0  0  0  0  0  0
  -21.5626   -3.4540   25.7736 F   0  0  0  0  0  0
  -29.7837  -14.2995   20.2977 N   0  0  0  0  0  0
  -26.2772  -12.9637   20.3175 N   0  0  0  0  0  0
  -25.9375  -11.6701   20.5647 N   0  0  0  0  0  0
  -22.0403  -12.8135   22.0475 N   0  0  0  0  0  0
  -25.3930  -15.2043   20.4262 N   0  0  0  0  0  0
  -31.4786  -15.6410   20.1568 O   0  0  0  0  0  0
  -21.6653   -6.8892   21.4244 O   0  0  0  0  0  0
  -22.3396  -14.5460   20.6763 O   0  0  0  0  0  0
  -24.6885  -31.7938   23.1460 C   0  0  0  0  0  0
  -25.9440  -32.4436   23.8023 C   0  0  1  0  0  0
  -27.2283  -26.6484   20.2220 C   0  0  0  0  0  0
  -25.6001  -33.8266   24.1910 N   0  0  0  0  0  0
  -23.5177  -30.3935   21.5000 C   0  0  2  0  0  0
  -24.9760  -28.7225   20.1169 C   0  0  0  0  0  0
  -22.7795  -29.4281   22.4671 C   0  0  0  0  0  0
  -18.0351  -28.1430   22.8461 C   0  0  0  0  0  0
  -24.1490  -36.7141   23.2655 C   0  0  0  0  0  0
  -26.1002  -30.5085   21.4182 C   0  0  0  0  0  0
  -26.1650  -29.0672   20.7702 C   0  0  0  0  0  0
  -27.2723  -28.0591   20.7898 C   0  0  0  0  0  0
  -26.0072  -26.5269   19.5073 C   0  0  0  0  0  0
  -24.9396  -27.4782   19.4614 C   0  0  0  0  0  0
  -23.7753  -29.6854   20.1373 C   0  0  0  0  0  0
  -25.4143  -36.2878   24.0278 C   0  0  1  0  0  0
  -20.5990  -28.3795   23.1129 C   0  0  2  0  0  0
  -20.6813  -26.9448   22.5406 C   0  0  0  0  0  0
  -19.5785  -26.6370   21.5224 C   0  0  0  0  0  0
  -18.1966  -26.7960   22.1621 C   0  0  0  0  0  0
  -19.1619  -28.8934   23.2779 C   0  0  0  0  0  0
  -18.9523  -30.1514   23.8827 C   0  0  0  0  0  0
  -17.6515  -30.6611   24.0557 C   0  0  0  0  0  0
  -25.9127  -34.9272   23.4931 C   0  0  0  0  0  0
  -16.5402  -29.9099   23.6354 C   0  0  0  0  0  0
  -16.7329  -28.6520   23.0373 C   0  0  0  0  0  0
  -26.4598  -31.6493   25.0670 C   0  0  0  0  0  0
  -25.3641  -31.3852   26.1273 C   0  0  0  0  0  0
  -27.0537  -30.2823   24.6608 C   0  0  0  0  0  0
  -27.6036  -32.4365   25.7492 C   0  0  0  0  0  0
  -27.5556  -37.1729   24.8468 C   0  0  0  0  0  0
  -21.4434  -29.3032   22.3438 N   0  0  0  0  0  0
  -26.4261  -37.3648   23.9413 N   0  0  0  0  0  0
  -24.7934  -30.9331   22.0740 N   0  0  0  0  0  0
  -23.4217  -28.7881   23.3036 O   0  0  0  0  0  0
  -28.1778  -25.4021   20.3179 O   0  0  0  0  0  0
  -26.5774  -34.8865   22.4552 O   0  0  0  0  0  0
  -23.5893  -32.1034   23.6378 O   0  0  0  0  0  0
  -30.0191  -22.0663   21.2533 C   0  0  0  0  0  0
  -30.7567  -20.9089   21.6400 C   0  0  0  0  0  0
  -28.8798  -22.0112   20.4320 C   0  0  0  0  0  0
  -29.4940  -19.2560   20.4843 C   0  0  0  0  0  0
  -30.6281  -20.2020   24.6937 C   0  0  0  0  0  0
  -32.6206  -21.7275   24.9891 C   0  0  0  0  0  0
  -31.9007  -21.0847   22.6310 C   0  0  0  0  0  0
  -27.9693  -23.6389   20.1074 C   0  0  0  0  0  0
  -29.3227  -17.3807   20.2775 C   0  0  0  0  0  0
  -31.4336  -21.3625   24.0818 C   0  0  0  0  0  0
  -30.5130  -19.6112   21.2694 N   0  0  0  0  0  0
  -28.6900  -20.5027   20.1047 N   0  0  0  0  0  0
  -31.4241  -13.3862   19.1980 H   0  0  0  0  0  0
  -30.5990  -12.2760   20.2369 H   0  0  0  0  0  0
  -30.0320  -11.8349   17.8238 H   0  0  0  0  0  0
  -29.5256  -13.4939   17.6207 H   0  0  0  0  0  0
  -28.1676  -11.3105   19.2149 H   0  0  0  0  0  0
  -27.4763  -12.2401   17.9061 H   0  0  0  0  0  0
  -27.4542  -14.2323   19.2327 H   0  0  0  0  0  0
  -28.8618  -12.7851   21.5215 H   0  0  0  0  0  0
  -28.1527  -14.3753   21.6207 H   0  0  0  0  0  0
  -25.2806   -9.5679   22.4748 H   0  0  0  0  0  0
  -24.0018   -7.4645   22.7478 H   0  0  0  0  0  0
  -21.0869   -8.8795   19.8953 H   0  0  0  0  0  0
  -22.3748  -10.9674   19.6151 H   0  0  0  0  0  0
  -21.2019   -7.6153   23.9716 H   0  0  0  0  0  0
  -21.1483   -6.0525   25.9076 H   0  0  0  0  0  0
  -22.0592   -2.7612   23.2844 H   0  0  0  0  0  0
  -22.4055  -11.9812   22.4872 H   0  0  0  0  0  0
  -21.1010  -13.1119   22.2685 H   0  0  0  0  0  0
  -24.6209  -15.8516   20.5445 H   0  0  0  0  0  0
  -26.2367  -15.6515   20.0931 H   0  0  0  0  0  0
  -26.7526  -32.4887   23.0737 H   0  0  0  0  0  0
  -25.0069  -33.9296   25.0011 H   0  0  0  0  0  0
  -22.8469  -31.2328   21.3042 H   0  0  0  0  0  0
  -23.3762  -35.9456   23.3265 H   0  0  0  0  0  0
  -24.3559  -36.8859   22.2079 H   0  0  0  0  0  0
  -23.7233  -37.6299   23.6767 H   0  0  0  0  0  0
  -26.3080  -31.2292   20.6264 H   0  0  0  0  0  0
  -26.9503  -30.5793   22.0845 H   0  0  0  0  0  0
  -28.1621  -28.3293   21.3403 H   0  0  0  0  0  0
  -25.8319  -25.5881   19.0017 H   0  0  0  0  0  0
  -24.0436  -27.2040   18.9216 H   0  0  0  0  0  0
  -23.9579  -30.4441   19.3757 H   0  0  0  0  0  0
  -22.8795  -29.1566   19.8077 H   0  0  0  0  0  0
  -25.1353  -36.1627   25.0767 H   0  0  0  0  0  0
  -21.0080  -28.3423   24.1253 H   0  0  0  0  0  0
  -20.5669  -26.2424   23.3678 H   0  0  0  0  0  0
  -21.6673  -26.7380   22.1224 H   0  0  0  0  0  0
  -19.6947  -25.6260   21.1302 H   0  0  0  0  0  0
  -19.6731  -27.3142   20.6723 H   0  0  0  0  0  0
  -17.4243  -26.6713   21.4017 H   0  0  0  0  0  0
  -18.0343  -26.0123   22.9030 H   0  0  0  0  0  0
  -19.8000  -30.7349   24.2158 H   0  0  0  0  0  0
  -17.5070  -31.6287   24.5173 H   0  0  0  0  0  0
  -15.5400  -30.2983   23.7720 H   0  0  0  0  0  0
  -15.8728  -28.0818   22.7125 H   0  0  0  0  0  0
  -24.5845  -30.7189   25.7565 H   0  0  0  0  0  0
  -24.8811  -32.3093   26.4455 H   0  0  0  0  0  0
  -25.7784  -30.9168   27.0206 H   0  0  0  0  0  0
  -26.3271  -29.6411   24.1609 H   0  0  0  0  0  0
  -27.3958  -29.7305   25.5370 H   0  0  0  0  0  0
  -27.9247  -30.3935   24.0149 H   0  0  0  0  0  0
  -27.2569  -33.3743   26.1842 H   0  0  0  0  0  0
  -28.3956  -32.6797   25.0399 H   0  0  0  0  0  0
  -28.0577  -31.8645   26.5593 H   0  0  0  0  0  0
  -28.2542  -38.0054   24.7507 H   0  0  0  0  0  0
  -28.1077  -36.2571   24.6291 H   0  0  0  0  0  0
  -27.2280  -37.1369   25.8876 H   0  0  0  0  0  0
  -20.9739  -29.8698   21.6511 H   0  0  0  0  0  0
  -26.0075  -38.2689   24.1431 H   0  0  0  0  0  0
  -30.3182  -23.0337   21.6354 H   0  0  0  0  0  0
  -30.2976  -20.4417   25.7049 H   0  0  0  0  0  0
  -31.2215  -19.2885   24.7457 H   0  0  0  0  0  0
  -29.7333  -19.9842   24.1098 H   0  0  0  0  0  0
  -32.2885  -21.9600   26.0019 H   0  0  0  0  0  0
  -33.1521  -22.6032   24.6148 H   0  0  0  0  0  0
  -33.3369  -20.9075   25.0559 H   0  0  0  0  0  0
  -32.5225  -21.9085   22.2791 H   0  0  0  0  0  0
  -32.5425  -20.2028   22.6143 H   0  0  0  0  0  0
  -27.0189  -23.4630   20.6119 H   0  0  0  0  0  0
  -27.7155  -23.5576   19.0509 H   0  0  0  0  0  0
  -28.8579  -17.3313   19.2940 H   0  0  0  0  0  0
  -28.4973  -17.1731   20.9571 H   0  0  0  0  0  0
  -30.7770  -22.2333   24.0527 H   0  0  0  0  0  0
  1 25  1  0  0  0
  1 30  2  0  0  0
  1 79  1  0  0  0
  2  3  1  0  0  0
  2 25  1  0  0  0
  2 83  1  0  0  0
  2 84  1  0  0  0
  3  4  1  0  0  0
  3 85  1  0  0  0
  3 86  1  0  0  0
  4  5  1  0  0  0
  4 87  1  0  0  0
  4 88  1  0  0  0
  5  6  1  0  0  0
  5 26  1  0  0  0
  5 89  1  0  0  0
  6 25  1  0  0  0
  6 90  1  0  0  0
  6 91  1  0  0  0
  7  8  2  0  0  0
  7 26  1  0  0  0
  7 29  1  0  0  0
  8  9  1  0  0  0
  8 22  1  0  0  0
  9 10  1  0  0  0
  9 27  2  0  0  0
 10 11  2  0  0  0
 10 15  1  0  0  0
 11 12  1  0  0  0
 11 92  1  0  0  0
 12 13  2  0  0  0
 12 93  1  0  0  0
 13 14  1  0  0  0
 13 31  1  0  0  0
 14 15  2  0  0  0
 14 94  1  0  0  0
 15 95  1  0  0  0
 16 17  2  0  0  0
 16 21  1  0  0  0
 16 31  1  0  0  0
 17 18  1  0  0  0
 17 96  1  0  0  0
 18 19  2  0  0  0
 18 97  1  0  0  0
 19 20  1  0  0  0
 19 24  1  0  0  0
 20 21  2  0  0  0
 20 98  1  0  0  0
 21 23  1  0  0  0
 22 28  1  0  0  0
 22 32  2  0  0  0
 26 27  1  0  0  0
 28 99  1  0  0  0
 28100  1  0  0  0
 29101  1  0  0  0
 29102  1  0  0  0
 33 34  1  0  0  0
 33 66  1  0  0  0
 33 70  2  0  0  0
 34 36  1  0  0  0
 34 59  1  0  0  0
 34103  1  0  0  0
 35 44  2  0  0  0
 35 45  1  0  0  0
 35 68  1  0  0  0
 36 56  1  0  0  0
 36104  1  0  0  0
 37 39  1  0  0  0
 37 47  1  0  0  0
 37 66  1  0  0  0
 37105  1  0  0  0
 38 43  2  0  0  0
 38 46  1  0  0  0
 38 47  1  0  0  0
 39 64  1  0  0  0
 39 67  2  0  0  0
 40 52  1  0  0  0
 40 53  2  0  0  0
 40 58  1  0  0  0
 41106  1  0  0  0
 41107  1  0  0  0
 41108  1  0  0  0
 41 48  1  0  0  0
 42 43  1  0  0  0
 42 66  1  0  0  0
 42109  1  0  0  0
 42110  1  0  0  0
 43 44  1  0  0  0
 44111  1  0  0  0
 45 46  2  0  0  0
 45112  1  0  0  0
 46113  1  0  0  0
 47114  1  0  0  0
 47115  1  0  0  0
 48 56  1  0  0  0
 48 65  1  0  0  0
 48116  1  0  0  0
 49 50  1  0  0  0
 49 53  1  0  0  0
 49 64  1  0  0  0
 49117  1  0  0  0
 50 51  1  0  0  0
 50118  1  0  0  0
 50119  1  0  0  0
 51 52  1  0  0  0
 51120  1  0  0  0
 51121  1  0  0  0
 52122  1  0  0  0
 52123  1  0  0  0
 53 54  1  0  0  0
 54 55  2  0  0  0
 54124  1  0  0  0
 55 57  1  0  0  0
 55125  1  0  0  0
 56 69  2  0  0  0
 57 58  2  0  0  0
 57126  1  0  0  0
 58127  1  0  0  0
 59 60  1  0  0  0
 59 61  1  0  0  0
 59 62  1  0  0  0
 60128  1  0  0  0
 60129  1  0  0  0
 60130  1  0  0  0
 61131  1  0  0  0
 61132  1  0  0  0
 61133  1  0  0  0
 62134  1  0  0  0
 62135  1  0  0  0
 62136  1  0  0  0
 63 65  1  0  0  0
 63137  1  0  0  0
 63138  1  0  0  0
 63139  1  0  0  0
 64140  1  0  0  0
 65141  1  0  0  0
 68 78  1  0  0  0
 71 72  2  0  0  0
 71 73  1  0  0  0
 71142  1  0  0  0
 72 77  1  0  0  0
 72 81  1  0  0  0
 73 78  1  0  0  0
 73 82  2  0  0  0
 74 79  1  0  0  0
 74 81  2  0  0  0
 74 82  1  0  0  0
 75143  1  0  0  0
 75144  1  0  0  0
 75145  1  0  0  0
 75 80  1  0  0  0
 76 80  1  0  0  0
 76146  1  0  0  0
 76147  1  0  0  0
 76148  1  0  0  0
 77 80  1  0  0  0
 77149  1  0  0  0
 77150  1  0  0  0
 78151  1  0  0  0
 78152  1  0  0  0
 79153  1  0  0  0
 79154  1  0  0  0
 80155  1  0  0  0
M  ISO  4   1 100  68 101  78 101  79 100
M  END
> <chiral flag>
0

> <version>
0

> <s_m_source_file>
/data/baiqing/PycharmProjects/Reinvent-master-3.2/result/LINK_invent/BTK/process_docking_weight1_custom_sum_contain_oxygen_bond_distance_aromatic_linkinvent_7_9_3/rearranged_h_0047.sdf

> <i_m_source_file_index>
74

> <r_mmod_Potential_Energy-OPLS-2005>
2392.17724609375

> <r_mmod_Stretch_Energy-OPLS-2005>
1201.27563476562

> <r_mmod_Bend_Energy-OPLS-2005>
678.78515625

> <r_mmod_Torsional_Energy-OPLS-2005>
193.993606567383

> <r_mmod_Improper_Torsional_Energy-OPLS-2005>
5.22892093658447

> <r_mmod_Van_der_Waal_Energy-OPLS-2005>
126.239593505859

> <r_mmod_Electrostatic_Energy-OPLS-2005>
-577.715515136719

> <r_mmod_Solvation_Energy-OPLS-2005>
-247.712112426758

> <b_mmod_Minimization_Converged-OPLS-2005>
0

> <r_mmod_RMS_Derivative-OPLS-2005>
1.04388034343719

$$$$
74
                    3D
 Structure written by MMmdl.
147155  0  0  1  0            999 V2000
  -30.4917  -15.1625   20.3922 C   0  0  0  0  0  0
  -30.4242  -12.7159   19.5585 C   0  0  0  0  0  0
  -29.5393  -12.5656   18.2955 C   0  0  0  0  0  0
  -28.0718  -12.3316   18.6900 C   0  0  0  0  0  0
  -27.6167  -13.2774   19.8318 C   0  0  2  0  0  0
  -28.6434  -13.3971   20.9769 C   0  0  0  0  0  0
  -25.2428  -13.8248   20.5757 C   0  0  0  0  0  0
  -24.1771  -13.0466   20.9226 C   0  0  0  0  0  0
  -24.6388  -11.6947   20.8721 C   0  0  0  0  0  0
  -23.9074  -10.4327   21.0397 C   0  0  0  0  0  0
  -24.3651   -9.4233   21.9146 C   0  0  0  0  0  0
  -23.6335   -8.2260   22.0731 C   0  0  0  0  0  0
  -22.4308   -8.0265   21.3536 C   0  0  0  0  0  0
  -21.9939   -9.0231   20.4633 C   0  0  0  0  0  0
  -22.7251  -10.2128   20.3045 C   0  0  0  0  0  0
  -21.6859   -6.0743   22.5275 C   0  0  0  0  0  0
  -21.4019   -6.5653   23.8204 C   0  0  0  0  0  0
  -21.3692   -5.6794   24.9165 C   0  0  0  0  0  0
  -21.6054   -4.3046   24.7217 C   0  0  0  0  0  0
  -21.8820   -3.8149   23.4332 C   0  0  0  0  0  0
  -21.9207   -4.6974   22.3397 C   0  0  0  0  0  0
  -22.7772  -13.5184   21.1930 C   0  0  0  0  0  0
  -22.1663   -4.2160   21.0971 F   0  0  0  0  0  0
  -21.5662   -3.4537   25.7731 F   0  0  0  0  0  0
  -29.9032  -13.8664   20.3870 N   0  0  0  0  0  0
  -26.2842  -12.9532   20.3203 N   0  0  0  0  0  0
  -25.9307  -11.6635   20.5658 N   0  0  0  0  0  0
  -22.0469  -12.8127   22.0490 N   0  0  0  0  0  0
  -25.4121  -15.1990   20.4265 N   0  0  0  0  0  0
  -31.6923  -15.1303   20.0812 O   0  0  0  0  0  0
  -21.6652   -6.8872   21.4237 O   0  0  0  0  0  0
  -22.3399  -14.5480   20.6774 O   0  0  0  0  0  0
  -24.6569  -31.8307   23.1727 C   0  0  0  0  0  0
  -25.9264  -32.4641   23.8219 C   0  0  1  0  0  0
  -27.2128  -26.9679   20.1808 C   0  0  0  0  0  0
  -25.5938  -33.8442   24.2119 N   0  0  0  0  0  0
  -23.4740  -30.4399   21.5217 C   0  0  2  0  0  0
  -24.9263  -28.8376   20.1111 C   0  0  0  0  0  0
  -22.7686  -29.4451   22.4795 C   0  0  0  0  0  0
  -18.0335  -28.1426   22.8494 C   0  0  0  0  0  0
  -24.1489  -36.7215   23.2645 C   0  0  0  0  0  0
  -26.0423  -30.6467   21.4008 C   0  0  0  0  0  0
  -26.1084  -29.2419   20.7435 C   0  0  0  0  0  0
  -27.2478  -28.3262   20.7539 C   0  0  0  0  0  0
  -26.0068  -26.7065   19.4943 C   0  0  0  0  0  0
  -24.9000  -27.5904   19.4651 C   0  0  0  0  0  0
  -23.7118  -29.7600   20.1462 C   0  0  0  0  0  0
  -25.4131  -36.2998   24.0304 C   0  0  1  0  0  0
  -20.5976  -28.3764   23.1213 C   0  0  2  0  0  0
  -20.6825  -26.9445   22.5429 C   0  0  0  0  0  0
  -19.5774  -26.6386   21.5258 C   0  0  0  0  0  0
  -18.1953  -26.7962   22.1654 C   0  0  0  0  0  0
  -19.1604  -28.8917   23.2840 C   0  0  0  0  0  0
  -18.9495  -30.1508   23.8873 C   0  0  0  0  0  0
  -17.6482  -30.6606   24.0567 C   0  0  0  0  0  0
  -25.9081  -34.9379   23.5031 C   0  0  0  0  0  0
  -16.5376  -29.9095   23.6344 C   0  0  0  0  0  0
  -16.7313  -28.6520   23.0367 C   0  0  0  0  0  0
  -26.4510  -31.6571   25.0726 C   0  0  0  0  0  0
  -25.3636  -31.3818   26.1387 C   0  0  0  0  0  0
  -27.0375  -30.2941   24.6437 C   0  0  0  0  0  0
  -27.6039  -32.4384   25.7483 C   0  0  0  0  0  0
  -27.5583  -37.1754   24.8458 C   0  0  0  0  0  0
  -21.4365  -29.3036   22.3553 N   0  0  0  0  0  0
  -26.4290  -37.3731   23.9398 N   0  0  0  0  0  0
  -24.7453  -31.0012   22.0842 N   0  0  0  0  0  0
  -23.4272  -28.8038   23.3017 O   0  0  0  0  0  0
  -28.2170  -25.8831   20.2796 O   0  0  0  0  0  0
  -26.5725  -34.8895   22.4642 O   0  0  0  0  0  0
  -23.5634  -32.1269   23.6806 O   0  0  0  0  0  0
  -29.0548  -18.8040   21.7493 C   0  0  0  0  0  0
  -29.1264  -19.5349   20.5433 C   0  0  0  0  0  0
  -29.8005  -16.7200   20.6190 C   0  0  0  0  0  0
  -28.6105  -19.3577   23.0815 C   0  0  0  0  0  0
  -28.5387  -21.0979   20.0863 C   0  0  0  0  0  0
  -28.8417  -22.7977   20.4994 C   0  0  0  0  0  0
  -27.9827  -24.2891   20.0239 C   0  0  0  0  0  0
  -29.4110  -17.3769   21.7575 N   0  0  0  0  0  0
  -29.7685  -18.1782   19.4176 S   0  0  0  0  0  0
  -31.4656  -12.8509   19.2648 H   0  0  0  0  0  0
  -30.4115  -11.7859   20.1312 H   0  0  0  0  0  0
  -29.8966  -11.7434   17.6736 H   0  0  0  0  0  0
  -29.6214  -13.4675   17.6896 H   0  0  0  0  0  0
  -27.9720  -11.2936   19.0019 H   0  0  0  0  0  0
  -27.4249  -12.4504   17.8211 H   0  0  0  0  0  0
  -27.5515  -14.2639   19.3724 H   0  0  0  0  0  0
  -28.7674  -12.4400   21.4896 H   0  0  0  0  0  0
  -28.3000  -14.1036   21.7321 H   0  0  0  0  0  0
  -25.2816   -9.5703   22.4693 H   0  0  0  0  0  0
  -24.0085   -7.4636   22.7410 H   0  0  0  0  0  0
  -21.0905   -8.8713   19.8901 H   0  0  0  0  0  0
  -22.3692  -10.9657   19.6151 H   0  0  0  0  0  0
  -21.1970   -7.6147   23.9707 H   0  0  0  0  0  0
  -21.1534   -6.0528   25.9081 H   0  0  0  0  0  0
  -22.0575   -2.7613   23.2816 H   0  0  0  0  0  0
  -22.4169  -11.9827   22.4904 H   0  0  0  0  0  0
  -21.1042  -13.1016   22.2689 H   0  0  0  0  0  0
  -24.6606  -15.8640   20.5662 H   0  0  0  0  0  0
  -26.2772  -15.6374   20.1377 H   0  0  0  0  0  0
  -26.7339  -32.5178   23.0940 H   0  0  0  0  0  0
  -24.9984  -33.9563   25.0204 H   0  0  0  0  0  0
  -22.7790  -31.2650   21.3521 H   0  0  0  0  0  0
  -23.3773  -35.9524   23.3296 H   0  0  0  0  0  0
  -24.3553  -36.8881   22.2061 H   0  0  0  0  0  0
  -23.7230  -37.6383   23.6717 H   0  0  0  0  0  0
  -26.2263  -31.3861   20.6202 H   0  0  0  0  0  0
  -26.9018  -30.7000   22.0600 H   0  0  0  0  0  0
  -28.1433  -28.6295   21.2774 H   0  0  0  0  0  0
  -25.8814  -25.7510   19.0047 H   0  0  0  0  0  0
  -24.0017  -27.2732   18.9533 H   0  0  0  0  0  0
  -23.8661  -30.5291   19.3880 H   0  0  0  0  0  0
  -22.8233  -29.2111   19.8298 H   0  0  0  0  0  0
  -25.1332  -36.1813   25.0803 H   0  0  0  0  0  0
  -21.0064  -28.3371   24.1336 H   0  0  0  0  0  0
  -20.5768  -26.2366   23.3681 H   0  0  0  0  0  0
  -21.6669  -26.7449   22.1181 H   0  0  0  0  0  0
  -19.6918  -25.6289   21.1304 H   0  0  0  0  0  0
  -19.6705  -27.3185   20.6791 H   0  0  0  0  0  0
  -17.4246  -26.6759   21.4030 H   0  0  0  0  0  0
  -18.0278  -26.0121   22.9059 H   0  0  0  0  0  0
  -19.7954  -30.7342   24.2239 H   0  0  0  0  0  0
  -17.5017  -31.6276   24.5171 H   0  0  0  0  0  0
  -15.5370  -30.2981   23.7660 H   0  0  0  0  0  0
  -15.8732  -28.0810   22.7105 H   0  0  0  0  0  0
  -24.5738  -30.7296   25.7636 H   0  0  0  0  0  0
  -24.8896  -32.3012   26.4815 H   0  0  0  0  0  0
  -25.7805  -30.8901   27.0179 H   0  0  0  0  0  0
  -26.3005  -29.6639   24.1434 H   0  0  0  0  0  0
  -27.3890  -29.7299   25.5076 H   0  0  0  0  0  0
  -27.8977  -30.4122   23.9856 H   0  0  0  0  0  0
  -27.2635  -33.3715   26.1990 H   0  0  0  0  0  0
  -28.3833  -32.6917   25.0286 H   0  0  0  0  0  0
  -28.0739  -31.8578   26.5428 H   0  0  0  0  0  0
  -28.2580  -38.0082   24.7530 H   0  0  0  0  0  0
  -28.1124  -36.2590   24.6271 H   0  0  0  0  0  0
  -27.2300  -37.1388   25.8874 H   0  0  0  0  0  0
  -20.9644  -29.8690   21.6645 H   0  0  0  0  0  0
  -26.0146  -38.2789   24.1434 H   0  0  0  0  0  0
  -28.6710  -20.4457   23.1352 H   0  0  0  0  0  0
  -29.2272  -18.9745   23.8956 H   0  0  0  0  0  0
  -27.5812  -19.0772   23.3141 H   0  0  0  0  0  0
  -27.4649  -21.0086   20.2485 H   0  0  0  0  0  0
  -28.6078  -21.0965   18.9960 H   0  0  0  0  0  0
  -29.8818  -22.9683   20.2239 H   0  0  0  0  0  0
  -28.8493  -22.8246   21.5880 H   0  0  0  0  0  0
  -26.9533  -24.1139   20.3435 H   0  0  0  0  0  0
  -27.9237  -24.2366   18.9337 H   0  0  0  0  0  0
  1 25  1  0  0  0
  1 30  2  0  0  0
  1 73  1  0  0  0
  2  3  1  0  0  0
  2 25  1  0  0  0
  2 80  1  0  0  0
  2 81  1  0  0  0
  3  4  1  0  0  0
  3 82  1  0  0  0
  3 83  1  0  0  0
  4  5  1  0  0  0
  4 84  1  0  0  0
  4 85  1  0  0  0
  5  6  1  0  0  0
  5 26  1  0  0  0
  5 86  1  0  0  0
  6 25  1  0  0  0
  6 87  1  0  0  0
  6 88  1  0  0  0
  7  8  2  0  0  0
  7 26  1  0  0  0
  7 29  1  0  0  0
  8  9  1  0  0  0
  8 22  1  0  0  0
  9 10  1  0  0  0
  9 27  2  0  0  0
 10 11  2  0  0  0
 10 15  1  0  0  0
 11 12  1  0  0  0
 11 89  1  0  0  0
 12 13  2  0  0  0
 12 90  1  0  0  0
 13 14  1  0  0  0
 13 31  1  0  0  0
 14 15  2  0  0  0
 14 91  1  0  0  0
 15 92  1  0  0  0
 16 17  2  0  0  0
 16 21  1  0  0  0
 16 31  1  0  0  0
 17 18  1  0  0  0
 17 93  1  0  0  0
 18 19  2  0  0  0
 18 94  1  0  0  0
 19 20  1  0  0  0
 19 24  1  0  0  0
 20 21  2  0  0  0
 20 95  1  0  0  0
 21 23  1  0  0  0
 22 28  1  0  0  0
 22 32  2  0  0  0
 26 27  1  0  0  0
 28 96  1  0  0  0
 28 97  1  0  0  0
 29 98  1  0  0  0
 29 99  1  0  0  0
 33 34  1  0  0  0
 33 66  1  0  0  0
 33 70  2  0  0  0
 34 36  1  0  0  0
 34 59  1  0  0  0
 34100  1  0  0  0
 35 44  2  0  0  0
 35 45  1  0  0  0
 35 68  1  0  0  0
 36 56  1  0  0  0
 36101  1  0  0  0
 37 39  1  0  0  0
 37 47  1  0  0  0
 37 66  1  0  0  0
 37102  1  0  0  0
 38 43  2  0  0  0
 38 46  1  0  0  0
 38 47  1  0  0  0
 39 64  1  0  0  0
 39 67  2  0  0  0
 40 52  1  0  0  0
 40 53  2  0  0  0
 40 58  1  0  0  0
 41103  1  0  0  0
 41104  1  0  0  0
 41105  1  0  0  0
 41 48  1  0  0  0
 42 43  1  0  0  0
 42 66  1  0  0  0
 42106  1  0  0  0
 42107  1  0  0  0
 43 44  1  0  0  0
 44108  1  0  0  0
 45 46  2  0  0  0
 45109  1  0  0  0
 46110  1  0  0  0
 47111  1  0  0  0
 47112  1  0  0  0
 48 56  1  0  0  0
 48 65  1  0  0  0
 48113  1  0  0  0
 49 50  1  0  0  0
 49 53  1  0  0  0
 49 64  1  0  0  0
 49114  1  0  0  0
 50 51  1  0  0  0
 50115  1  0  0  0
 50116  1  0  0  0
 51 52  1  0  0  0
 51117  1  0  0  0
 51118  1  0  0  0
 52119  1  0  0  0
 52120  1  0  0  0
 53 54  1  0  0  0
 54 55  2  0  0  0
 54121  1  0  0  0
 55 57  1  0  0  0
 55122  1  0  0  0
 56 69  2  0  0  0
 57 58  2  0  0  0
 57123  1  0  0  0
 58124  1  0  0  0
 59 60  1  0  0  0
 59 61  1  0  0  0
 59 62  1  0  0  0
 60125  1  0  0  0
 60126  1  0  0  0
 60127  1  0  0  0
 61128  1  0  0  0
 61129  1  0  0  0
 61130  1  0  0  0
 62131  1  0  0  0
 62132  1  0  0  0
 62133  1  0  0  0
 63 65  1  0  0  0
 63134  1  0  0  0
 63135  1  0  0  0
 63136  1  0  0  0
 64137  1  0  0  0
 65138  1  0  0  0
 68 77  1  0  0  0
 71 72  2  0  0  0
 71 74  1  0  0  0
 71 78  1  0  0  0
 72 75  1  0  0  0
 72 79  1  0  0  0
 73 78  2  0  0  0
 73 79  1  0  0  0
 74139  1  0  0  0
 74140  1  0  0  0
 74141  1  0  0  0
 75 76  1  0  0  0
 75142  1  0  0  0
 75143  1  0  0  0
 76 77  1  0  0  0
 76144  1  0  0  0
 76145  1  0  0  0
 77146  1  0  0  0
 77147  1  0  0  0
M  ISO  4   1 100  68 101  73 100  77 101
M  END
> <chiral flag>
0

> <version>
0

> <s_m_source_file>
/data/baiqing/PycharmProjects/Reinvent-master-3.2/result/LINK_invent/BTK/process_docking_weight1_custom_sum_contain_oxygen_bond_distance_aromatic_linkinvent_7_9_3/rearranged_h_0047.sdf

> <i_m_source_file_index>
75

> <r_mmod_Potential_Energy-OPLS-2005>
1173.23706054688

> <r_mmod_Stretch_Energy-OPLS-2005>
507.767028808594

> <r_mmod_Bend_Energy-OPLS-2005>
419.16552734375

> <r_mmod_Torsional_Energy-OPLS-2005>
210.710037231445

> <r_mmod_Improper_Torsional_Energy-OPLS-2005>
5.14940166473389

> <r_mmod_Van_der_Waal_Energy-OPLS-2005>
105.543533325195

> <r_mmod_Electrostatic_Energy-OPLS-2005>
-245.759094238281

> <r_mmod_Solvation_Energy-OPLS-2005>
-197.737701416016

> <b_mmod_Minimization_Converged-OPLS-2005>
0

> <r_mmod_RMS_Derivative-OPLS-2005>
4.90741348266602

$$$$
75
                    3D
 Structure written by MMmdl.
152160  0  0  1  0            999 V2000
  -30.6000  -14.7759   20.4466 C   0  0  0  0  0  0
  -30.4311  -12.4733   19.4801 C   0  0  0  0  0  0
  -29.5112  -12.5092   18.2398 C   0  0  0  0  0  0
  -28.0383  -12.3283   18.6532 C   0  0  0  0  0  0
  -27.6389  -13.2341   19.8485 C   0  0  2  0  0  0
  -28.6823  -13.1859   20.9855 C   0  0  0  0  0  0
  -25.2495  -13.8196   20.5696 C   0  0  0  0  0  0
  -24.1794  -13.0438   20.9208 C   0  0  0  0  0  0
  -24.6390  -11.6918   20.8750 C   0  0  0  0  0  0
  -23.9066  -10.4294   21.0408 C   0  0  0  0  0  0
  -24.3618   -9.4210   21.9182 C   0  0  0  0  0  0
  -23.6295   -8.2243   22.0753 C   0  0  0  0  0  0
  -22.4276   -8.0278   21.3544 C   0  0  0  0  0  0
  -21.9912   -9.0250   20.4645 C   0  0  0  0  0  0
  -22.7237  -10.2132   20.3056 C   0  0  0  0  0  0
  -21.6854   -6.0733   22.5277 C   0  0  0  0  0  0
  -21.4015   -6.5637   23.8211 C   0  0  0  0  0  0
  -21.3664   -5.6791   24.9174 C   0  0  0  0  0  0
  -21.6047   -4.3053   24.7224 C   0  0  0  0  0  0
  -21.8820   -3.8145   23.4344 C   0  0  0  0  0  0
  -21.9194   -4.6961   22.3401 C   0  0  0  0  0  0
  -22.7816  -13.5216   21.1867 C   0  0  0  0  0  0
  -22.1662   -4.2148   21.0979 F   0  0  0  0  0  0
  -21.5634   -3.4537   25.7736 F   0  0  0  0  0  0
  -29.9788  -13.5453   20.3998 N   0  0  0  0  0  0
  -26.2920  -12.9409   20.3272 N   0  0  0  0  0  0
  -25.9321  -11.6548   20.5752 N   0  0  0  0  0  0
  -22.0464  -12.8210   22.0426 N   0  0  0  0  0  0
  -25.4167  -15.1922   20.4109 N   0  0  0  0  0  0
  -31.7922  -14.8622   20.1385 O   0  0  0  0  0  0
  -21.6642   -6.8874   21.4239 O   0  0  0  0  0  0
  -22.3503  -14.5519   20.6712 O   0  0  0  0  0  0
  -24.6340  -31.8523   23.1955 C   0  0  0  0  0  0
  -25.9151  -32.4738   23.8315 C   0  0  1  0  0  0
  -27.2234  -27.2370   20.1188 C   0  0  0  0  0  0
  -25.5936  -33.8541   24.2236 N   0  0  0  0  0  0
  -23.4320  -30.4744   21.5389 C   0  0  2  0  0  0
  -24.8789  -28.9179   20.1060 C   0  0  0  0  0  0
  -22.7517  -29.4585   22.4890 C   0  0  0  0  0  0
  -18.0294  -28.1390   22.8483 C   0  0  0  0  0  0
  -24.1492  -36.7279   23.2641 C   0  0  0  0  0  0
  -25.9797  -30.7562   21.3792 C   0  0  0  0  0  0
  -26.0507  -29.3772   20.7188 C   0  0  0  0  0  0
  -27.2200  -28.5468   20.7186 C   0  0  0  0  0  0
  -26.0196  -26.8457   19.4899 C   0  0  0  0  0  0
  -24.8701  -27.6609   19.4834 C   0  0  0  0  0  0
  -23.6513  -29.8081   20.1550 C   0  0  0  0  0  0
  -25.4120  -36.3061   24.0324 C   0  0  1  0  0  0
  -20.5902  -28.3701   23.1262 C   0  0  2  0  0  0
  -20.6781  -26.9415   22.5407 C   0  0  0  0  0  0
  -19.5754  -26.6382   21.5213 C   0  0  0  0  0  0
  -18.1935  -26.7931   22.1626 C   0  0  0  0  0  0
  -19.1550  -28.8863   23.2867 C   0  0  0  0  0  0
  -18.9470  -30.1462   23.8888 C   0  0  0  0  0  0
  -17.6469  -30.6590   24.0561 C   0  0  0  0  0  0
  -25.9062  -34.9431   23.5086 C   0  0  0  0  0  0
  -16.5359  -29.9085   23.6332 C   0  0  0  0  0  0
  -16.7281  -28.6503   23.0354 C   0  0  0  0  0  0
  -26.4507  -31.6577   25.0719 C   0  0  0  0  0  0
  -25.3721  -31.3734   26.1434 C   0  0  0  0  0  0
  -27.0360  -30.2990   24.6225 C   0  0  0  0  0  0
  -27.6053  -32.4325   25.7497 C   0  0  0  0  0  0
  -27.5578  -37.1798   24.8465 C   0  0  0  0  0  0
  -21.4220  -29.3042   22.3643 N   0  0  0  0  0  0
  -26.4292  -37.3765   23.9406 N   0  0  0  0  0  0
  -24.7011  -31.0466   22.0939 N   0  0  0  0  0  0
  -23.4205  -28.8126   23.3000 O   0  0  0  0  0  0
  -28.3202  -26.3396   20.2187 O   0  0  0  0  0  0
  -26.5640  -34.8914   22.4657 O   0  0  0  0  0  0
  -23.5483  -32.1356   23.7235 O   0  0  0  0  0  0
  -28.5594  -23.6585   20.1202 C   0  0  0  0  0  0
  -28.1078  -21.9321   21.2838 C   0  0  0  0  0  0
  -27.5320  -21.0348   22.3264 C   0  0  0  0  0  0
  -28.4611  -25.0781   19.3992 C   0  0  0  0  0  0
  -29.2505  -18.6734   20.5429 C   0  0  0  0  0  0
  -29.8244  -20.1805   20.2518 C   0  0  0  0  0  0
  -30.2695  -17.3962   20.4047 C   0  0  0  0  0  0
  -27.7656  -23.2344   21.1564 N   0  0  0  0  0  0
  -29.3352  -22.6380   19.6477 N   0  0  0  0  0  0
  -29.0267  -21.4976   20.3970 N   0  0  0  0  0  0
  -29.8364  -15.9317   20.6158 N   0  0  0  0  0  0
  -31.4722  -12.5984   19.1773 H   0  0  0  0  0  0
  -30.3794  -11.5013   19.9735 H   0  0  0  0  0  0
  -29.8009  -11.7323   17.5309 H   0  0  0  0  0  0
  -29.6317  -13.4602   17.7185 H   0  0  0  0  0  0
  -27.9009  -11.2808   18.9237 H   0  0  0  0  0  0
  -27.3805  -12.5115   17.8030 H   0  0  0  0  0  0
  -27.6281  -14.2521   19.4587 H   0  0  0  0  0  0
  -28.7254  -12.1931   21.4357 H   0  0  0  0  0  0
  -28.4126  -13.8750   21.7874 H   0  0  0  0  0  0
  -25.2763   -9.5689   22.4757 H   0  0  0  0  0  0
  -24.0010   -7.4637   22.7470 H   0  0  0  0  0  0
  -21.0845   -8.8760   19.8951 H   0  0  0  0  0  0
  -22.3687  -10.9669   19.6167 H   0  0  0  0  0  0
  -21.2003   -7.6144   23.9712 H   0  0  0  0  0  0
  -21.1490   -6.0522   25.9077 H   0  0  0  0  0  0
  -22.0596   -2.7606   23.2841 H   0  0  0  0  0  0
  -22.4088  -11.9882   22.4829 H   0  0  0  0  0  0
  -21.1077  -13.1228   22.2620 H   0  0  0  0  0  0
  -24.6443  -15.8410   20.5164 H   0  0  0  0  0  0
  -26.2568  -15.6328   20.0598 H   0  0  0  0  0  0
  -26.7213  -32.5375   23.1049 H   0  0  0  0  0  0
  -25.0073  -33.9672   25.0376 H   0  0  0  0  0  0
  -22.7297  -31.2975   21.3919 H   0  0  0  0  0  0
  -23.3756  -35.9609   23.3299 H   0  0  0  0  0  0
  -24.3582  -36.8910   22.2057 H   0  0  0  0  0  0
  -23.7246  -37.6476   23.6672 H   0  0  0  0  0  0
  -26.1232  -31.5161   20.6099 H   0  0  0  0  0  0
  -26.8553  -30.8041   22.0151 H   0  0  0  0  0  0
  -28.1140  -28.8919   21.2191 H   0  0  0  0  0  0
  -25.9102  -25.8732   19.0380 H   0  0  0  0  0  0
  -23.9681  -27.2973   19.0106 H   0  0  0  0  0  0
  -23.7786  -30.5848   19.4002 H   0  0  0  0  0  0
  -22.7683  -29.2445   19.8484 H   0  0  0  0  0  0
  -25.1305  -36.1903   25.0817 H   0  0  0  0  0  0
  -20.9997  -28.3285   24.1382 H   0  0  0  0  0  0
  -20.5679  -26.2313   23.3616 H   0  0  0  0  0  0
  -21.6648  -26.7433   22.1204 H   0  0  0  0  0  0
  -19.6914  -25.6291   21.1247 H   0  0  0  0  0  0
  -19.6693  -27.3188   20.6740 H   0  0  0  0  0  0
  -17.4205  -26.6679   21.4028 H   0  0  0  0  0  0
  -18.0332  -26.0076   22.9025 H   0  0  0  0  0  0
  -19.7945  -30.7280   24.2256 H   0  0  0  0  0  0
  -17.5022  -31.6270   24.5160 H   0  0  0  0  0  0
  -15.5359  -30.2984   23.7662 H   0  0  0  0  0  0
  -15.8681  -28.0820   22.7073 H   0  0  0  0  0  0
  -24.5901  -30.7078   25.7762 H   0  0  0  0  0  0
  -24.8905  -32.2902   26.4842 H   0  0  0  0  0  0
  -25.8032  -30.8924   27.0222 H   0  0  0  0  0  0
  -26.2950  -29.6728   24.1241 H   0  0  0  0  0  0
  -27.4024  -29.7267   25.4758 H   0  0  0  0  0  0
  -27.8836  -30.4262   23.9488 H   0  0  0  0  0  0
  -27.2656  -33.3634   26.2051 H   0  0  0  0  0  0
  -28.3875  -32.6872   25.0333 H   0  0  0  0  0  0
  -28.0705  -31.8464   26.5432 H   0  0  0  0  0  0
  -28.2595  -38.0096   24.7510 H   0  0  0  0  0  0
  -28.1077  -36.2626   24.6296 H   0  0  0  0  0  0
  -27.2295  -37.1450   25.8868 H   0  0  0  0  0  0
  -20.9409  -29.8766   21.6849 H   0  0  0  0  0  0
  -26.0168  -38.2838   24.1404 H   0  0  0  0  0  0
  -28.3260  -20.6097   22.9392 H   0  0  0  0  0  0
  -26.9732  -20.2264   21.8557 H   0  0  0  0  0  0
  -26.8535  -21.5873   22.9761 H   0  0  0  0  0  0
  -29.4001  -25.2099   18.8613 H   0  0  0  0  0  0
  -27.7271  -25.0075   18.6009 H   0  0  0  0  0  0
  -28.4014  -18.5070   19.8797 H   0  0  0  0  0  0
  -28.8400  -18.6513   21.5513 H   0  0  0  0  0  0
  -30.2148  -20.1733   19.2337 H   0  0  0  0  0  0
  -30.7059  -20.3063   20.8806 H   0  0  0  0  0  0
  -30.7105  -17.4422   19.4080 H   0  0  0  0  0  0
  -31.1044  -17.5687   21.0854 H   0  0  0  0  0  0
  -28.8627  -15.7799   20.8325 H   0  0  0  0  0  0
  1 25  1  0  0  0
  1 30  2  0  0  0
  1 81  1  0  0  0
  2  3  1  0  0  0
  2 25  1  0  0  0
  2 82  1  0  0  0
  2 83  1  0  0  0
  3  4  1  0  0  0
  3 84  1  0  0  0
  3 85  1  0  0  0
  4  5  1  0  0  0
  4 86  1  0  0  0
  4 87  1  0  0  0
  5  6  1  0  0  0
  5 26  1  0  0  0
  5 88  1  0  0  0
  6 25  1  0  0  0
  6 89  1  0  0  0
  6 90  1  0  0  0
  7  8  2  0  0  0
  7 26  1  0  0  0
  7 29  1  0  0  0
  8  9  1  0  0  0
  8 22  1  0  0  0
  9 10  1  0  0  0
  9 27  2  0  0  0
 10 11  2  0  0  0
 10 15  1  0  0  0
 11 12  1  0  0  0
 11 91  1  0  0  0
 12 13  2  0  0  0
 12 92  1  0  0  0
 13 14  1  0  0  0
 13 31  1  0  0  0
 14 15  2  0  0  0
 14 93  1  0  0  0
 15 94  1  0  0  0
 16 17  2  0  0  0
 16 21  1  0  0  0
 16 31  1  0  0  0
 17 18  1  0  0  0
 17 95  1  0  0  0
 18 19  2  0  0  0
 18 96  1  0  0  0
 19 20  1  0  0  0
 19 24  1  0  0  0
 20 21  2  0  0  0
 20 97  1  0  0  0
 21 23  1  0  0  0
 22 28  1  0  0  0
 22 32  2  0  0  0
 26 27  1  0  0  0
 28 98  1  0  0  0
 28 99  1  0  0  0
 29100  1  0  0  0
 29101  1  0  0  0
 33 34  1  0  0  0
 33 66  1  0  0  0
 33 70  2  0  0  0
 34 36  1  0  0  0
 34 59  1  0  0  0
 34102  1  0  0  0
 35 44  2  0  0  0
 35 45  1  0  0  0
 35 68  1  0  0  0
 36 56  1  0  0  0
 36103  1  0  0  0
 37 39  1  0  0  0
 37 47  1  0  0  0
 37 66  1  0  0  0
 37104  1  0  0  0
 38 43  2  0  0  0
 38 46  1  0  0  0
 38 47  1  0  0  0
 39 64  1  0  0  0
 39 67  2  0  0  0
 40 52  1  0  0  0
 40 53  2  0  0  0
 40 58  1  0  0  0
 41105  1  0  0  0
 41106  1  0  0  0
 41107  1  0  0  0
 41 48  1  0  0  0
 42 43  1  0  0  0
 42 66  1  0  0  0
 42108  1  0  0  0
 42109  1  0  0  0
 43 44  1  0  0  0
 44110  1  0  0  0
 45 46  2  0  0  0
 45111  1  0  0  0
 46112  1  0  0  0
 47113  1  0  0  0
 47114  1  0  0  0
 48 56  1  0  0  0
 48 65  1  0  0  0
 48115  1  0  0  0
 49 50  1  0  0  0
 49 53  1  0  0  0
 49 64  1  0  0  0
 49116  1  0  0  0
 50 51  1  0  0  0
 50117  1  0  0  0
 50118  1  0  0  0
 51 52  1  0  0  0
 51119  1  0  0  0
 51120  1  0  0  0
 52121  1  0  0  0
 52122  1  0  0  0
 53 54  1  0  0  0
 54 55  2  0  0  0
 54123  1  0  0  0
 55 57  1  0  0  0
 55124  1  0  0  0
 56 69  2  0  0  0
 57 58  2  0  0  0
 57125  1  0  0  0
 58126  1  0  0  0
 59 60  1  0  0  0
 59 61  1  0  0  0
 59 62  1  0  0  0
 60127  1  0  0  0
 60128  1  0  0  0
 60129  1  0  0  0
 61130  1  0  0  0
 61131  1  0  0  0
 61132  1  0  0  0
 62133  1  0  0  0
 62134  1  0  0  0
 62135  1  0  0  0
 63 65  1  0  0  0
 63136  1  0  0  0
 63137  1  0  0  0
 63138  1  0  0  0
 64139  1  0  0  0
 65140  1  0  0  0
 68 74  1  0  0  0
 71 74  1  0  0  0
 71 78  1  0  0  0
 71 79  2  0  0  0
 72 73  1  0  0  0
 72 78  2  0  0  0
 72 80  1  0  0  0
 73141  1  0  0  0
 73142  1  0  0  0
 73143  1  0  0  0
 74144  1  0  0  0
 74145  1  0  0  0
 75 76  1  0  0  0
 75 77  1  0  0  0
 75146  1  0  0  0
 75147  1  0  0  0
 76 80  1  0  0  0
 76148  1  0  0  0
 76149  1  0  0  0
 77 81  1  0  0  0
 77150  1  0  0  0
 77151  1  0  0  0
 79 80  1  0  0  0
 81152  1  0  0  0
M  ISO  4   1 100  68 101  74 101  81 100
M  END
> <chiral flag>
0

> <version>
0

> <s_m_source_file>
/data/baiqing/PycharmProjects/Reinvent-master-3.2/result/LINK_invent/BTK/process_docking_weight1_custom_sum_contain_oxygen_bond_distance_aromatic_linkinvent_7_9_3/rearranged_h_0047.sdf

> <i_m_source_file_index>
76

> <r_mmod_Potential_Energy-OPLS-2005>
199.407485961914

> <r_mmod_Stretch_Energy-OPLS-2005>
144.745254516602

> <r_mmod_Bend_Energy-OPLS-2005>
203.462966918945

> <r_mmod_Torsional_Energy-OPLS-2005>
214.226699829102

> <r_mmod_Improper_Torsional_Energy-OPLS-2005>
6.64616680145264

> <r_mmod_Van_der_Waal_Energy-OPLS-2005>
113.872787475586

> <r_mmod_Electrostatic_Energy-OPLS-2005>
-344.770751953125

> <r_mmod_Solvation_Energy-OPLS-2005>
-239.416351318359

> <b_mmod_Minimization_Converged-OPLS-2005>
0

> <r_mmod_RMS_Derivative-OPLS-2005>
0.637714803218842

$$$$
76
                    3D
 Structure written by MMmdl.
155163  0  0  1  0            999 V2000
  -30.6553  -14.5954   20.5122 C   0  0  0  0  0  0
  -30.4272  -12.3637   19.4529 C   0  0  0  0  0  0
  -29.5038  -12.5009   18.2234 C   0  0  0  0  0  0
  -28.0255  -12.3470   18.6328 C   0  0  0  0  0  0
  -27.6525  -13.2185   19.8621 C   0  0  2  0  0  0
  -28.6961  -13.0729   20.9916 C   0  0  0  0  0  0
  -25.2559  -13.8180   20.5691 C   0  0  0  0  0  0
  -24.1825  -13.0441   20.9189 C   0  0  0  0  0  0
  -24.6396  -11.6914   20.8739 C   0  0  0  0  0  0
  -23.9066  -10.4296   21.0405 C   0  0  0  0  0  0
  -24.3616   -9.4210   21.9182 C   0  0  0  0  0  0
  -23.6290   -8.2245   22.0752 C   0  0  0  0  0  0
  -22.4273   -8.0282   21.3541 C   0  0  0  0  0  0
  -21.9909   -9.0257   20.4645 C   0  0  0  0  0  0
  -22.7239  -10.2137   20.3054 C   0  0  0  0  0  0
  -21.6854   -6.0734   22.5278 C   0  0  0  0  0  0
  -21.4016   -6.5639   23.8211 C   0  0  0  0  0  0
  -21.3660   -5.6791   24.9173 C   0  0  0  0  0  0
  -21.6044   -4.3054   24.7224 C   0  0  0  0  0  0
  -21.8820   -3.8146   23.4346 C   0  0  0  0  0  0
  -21.9194   -4.6962   22.3401 C   0  0  0  0  0  0
  -22.7848  -13.5233   21.1854 C   0  0  0  0  0  0
  -22.1661   -4.2148   21.0979 F   0  0  0  0  0  0
  -21.5628   -3.4538   25.7736 F   0  0  0  0  0  0
  -30.0147  -13.3890   20.4303 N   0  0  0  0  0  0
  -26.2988  -12.9367   20.3322 N   0  0  0  0  0  0
  -25.9325  -11.6517   20.5755 N   0  0  0  0  0  0
  -22.0492  -12.8223   22.0411 N   0  0  0  0  0  0
  -25.4280  -15.1898   20.4114 N   0  0  0  0  0  0
  -31.8167  -14.7077   20.1094 O   0  0  0  0  0  0
  -21.6640   -6.8879   21.4239 O   0  0  0  0  0  0
  -22.3530  -14.5540   20.6707 O   0  0  0  0  0  0
  -24.6213  -31.8624   23.2049 C   0  0  0  0  0  0
  -25.9081  -32.4792   23.8365 C   0  0  1  0  0  0
  -27.2254  -27.3635   20.1168 C   0  0  0  0  0  0
  -25.5910  -33.8592   24.2290 N   0  0  0  0  0  0
  -23.4135  -30.4852   21.5465 C   0  0  2  0  0  0
  -24.8617  -28.9435   20.1118 C   0  0  0  0  0  0
  -22.7448  -29.4630   22.4954 C   0  0  0  0  0  0
  -18.0283  -28.1371   22.8492 C   0  0  0  0  0  0
  -24.1490  -36.7306   23.2639 C   0  0  0  0  0  0
  -25.9493  -30.8081   21.3684 C   0  0  0  0  0  0
  -26.0271  -29.4379   20.7128 C   0  0  0  0  0  0
  -27.2169  -28.6590   20.7046 C   0  0  0  0  0  0
  -26.0446  -26.9057   19.4968 C   0  0  0  0  0  0
  -24.8692  -27.6809   19.4950 C   0  0  0  0  0  0
  -23.6263  -29.8176   20.1618 C   0  0  0  0  0  0
  -25.4112  -36.3092   24.0330 C   0  0  1  0  0  0
  -20.5876  -28.3673   23.1295 C   0  0  2  0  0  0
  -20.6771  -26.9401   22.5412 C   0  0  0  0  0  0
  -19.5747  -26.6380   21.5209 C   0  0  0  0  0  0
  -18.1927  -26.7920   22.1623 C   0  0  0  0  0  0
  -19.1532  -28.8838   23.2890 C   0  0  0  0  0  0
  -18.9461  -30.1444   23.8902 C   0  0  0  0  0  0
  -17.6462  -30.6581   24.0559 C   0  0  0  0  0  0
  -25.9045  -34.9459   23.5110 C   0  0  0  0  0  0
  -16.5353  -29.9078   23.6326 C   0  0  0  0  0  0
  -16.7271  -28.6491   23.0351 C   0  0  0  0  0  0
  -26.4485  -31.6591   25.0719 C   0  0  0  0  0  0
  -25.3734  -31.3712   26.1456 C   0  0  0  0  0  0
  -27.0327  -30.3024   24.6140 C   0  0  0  0  0  0
  -27.6050  -32.4321   25.7488 C   0  0  0  0  0  0
  -27.5580  -37.1804   24.8463 C   0  0  0  0  0  0
  -21.4168  -29.3034   22.3696 N   0  0  0  0  0  0
  -26.4294  -37.3780   23.9404 N   0  0  0  0  0  0
  -24.6799  -31.0671   22.0978 N   0  0  0  0  0  0
  -23.4191  -28.8175   23.3025 O   0  0  0  0  0  0
  -28.3401  -26.5313   20.1330 O   0  0  0  0  0  0
  -26.5613  -34.8924   22.4677 O   0  0  0  0  0  0
  -23.5389  -32.1403   23.7405 O   0  0  0  0  0  0
  -28.4295  -19.1133   20.0147 C   0  0  0  0  0  0
  -30.5882  -19.5680   20.8527 C   0  0  0  0  0  0
  -29.7019  -18.6007   20.3369 C   0  0  0  0  0  0
  -28.9983  -21.2467   20.7231 C   0  0  0  0  0  0
  -30.3254  -16.2983   22.3926 C   0  0  0  0  0  0
  -30.1595  -17.1479   19.9718 C   0  0  0  0  0  0
  -28.5334  -22.6711   21.1543 C   0  0  0  0  0  0
  -28.7259  -23.9231   20.2125 C   0  0  0  0  0  0
  -28.1666  -25.2602   20.8418 C   0  0  0  0  0  0
  -29.9195  -15.9268   20.9572 C   0  0  1  0  0  0
  -28.0904  -20.4157   20.2071 N   0  0  0  0  0  0
  -30.2360  -20.8667   21.0417 N   0  0  0  0  0  0
  -31.4715  -12.4639   19.1531 H   0  0  0  0  0  0
  -30.3391  -11.3688   19.8917 H   0  0  0  0  0  0
  -29.7631  -11.7535   17.4723 H   0  0  0  0  0  0
  -29.6568  -13.4739   17.7538 H   0  0  0  0  0  0
  -27.8559  -11.2943   18.8617 H   0  0  0  0  0  0
  -27.3737  -12.5830   17.7908 H   0  0  0  0  0  0
  -27.6728  -14.2535   19.5212 H   0  0  0  0  0  0
  -28.6940  -12.0554   21.3848 H   0  0  0  0  0  0
  -28.4541  -13.7171   21.8377 H   0  0  0  0  0  0
  -25.2761   -9.5687   22.4755 H   0  0  0  0  0  0
  -23.9999   -7.4639   22.7475 H   0  0  0  0  0  0
  -21.0838   -8.8781   19.8952 H   0  0  0  0  0  0
  -22.3698  -10.9676   19.6163 H   0  0  0  0  0  0
  -21.2010   -7.6147   23.9714 H   0  0  0  0  0  0
  -21.1480   -6.0521   25.9076 H   0  0  0  0  0  0
  -22.0599   -2.7607   23.2847 H   0  0  0  0  0  0
  -22.4100  -11.9876   22.4790 H   0  0  0  0  0  0
  -21.1112  -13.1254   22.2623 H   0  0  0  0  0  0
  -24.6639  -15.8473   20.5242 H   0  0  0  0  0  0
  -26.2848  -15.6276   20.0986 H   0  0  0  0  0  0
  -26.7150  -32.5481   23.1122 H   0  0  0  0  0  0
  -25.0049  -33.9742   25.0426 H   0  0  0  0  0  0
  -22.7056  -31.3044   21.4046 H   0  0  0  0  0  0
  -23.3744  -35.9648   23.3307 H   0  0  0  0  0  0
  -24.3577  -36.8923   22.2052 H   0  0  0  0  0  0
  -23.7254  -37.6515   23.6659 H   0  0  0  0  0  0
  -26.0717  -31.5736   20.6011 H   0  0  0  0  0  0
  -26.8326  -30.8588   21.9934 H   0  0  0  0  0  0
  -28.1153  -29.0330   21.1756 H   0  0  0  0  0  0
  -26.0292  -25.9337   19.0245 H   0  0  0  0  0  0
  -23.9755  -27.2967   19.0225 H   0  0  0  0  0  0
  -23.7403  -30.5931   19.4033 H   0  0  0  0  0  0
  -22.7481  -29.2422   19.8633 H   0  0  0  0  0  0
  -25.1290  -36.1951   25.0823 H   0  0  0  0  0  0
  -20.9972  -28.3249   24.1411 H   0  0  0  0  0  0
  -20.5671  -26.2280   23.3607 H   0  0  0  0  0  0
  -21.6640  -26.7435   22.1202 H   0  0  0  0  0  0
  -19.6910  -25.6292   21.1233 H   0  0  0  0  0  0
  -19.6686  -27.3197   20.6744 H   0  0  0  0  0  0
  -17.4196  -26.6672   21.4026 H   0  0  0  0  0  0
  -18.0327  -26.0057   22.9013 H   0  0  0  0  0  0
  -19.7940  -30.7251   24.2277 H   0  0  0  0  0  0
  -17.5020  -31.6264   24.5156 H   0  0  0  0  0  0
  -15.5352  -30.2978   23.7649 H   0  0  0  0  0  0
  -15.8673  -28.0812   22.7061 H   0  0  0  0  0  0
  -24.5906  -30.7063   25.7783 H   0  0  0  0  0  0
  -24.8927  -32.2875   26.4894 H   0  0  0  0  0  0
  -25.8073  -30.8880   27.0219 H   0  0  0  0  0  0
  -26.2892  -29.6767   24.1188 H   0  0  0  0  0  0
  -27.4067  -29.7278   25.4623 H   0  0  0  0  0  0
  -27.8739  -30.4317   23.9327 H   0  0  0  0  0  0
  -27.2659  -33.3612   26.2078 H   0  0  0  0  0  0
  -28.3854  -32.6892   25.0313 H   0  0  0  0  0  0
  -28.0724  -31.8437   26.5393 H   0  0  0  0  0  0
  -28.2594  -38.0103   24.7501 H   0  0  0  0  0  0
  -28.1079  -36.2632   24.6298 H   0  0  0  0  0  0
  -27.2295  -37.1462   25.8865 H   0  0  0  0  0  0
  -20.9338  -29.8764   21.6919 H   0  0  0  0  0  0
  -26.0181  -38.2858   24.1404 H   0  0  0  0  0  0
  -27.6761  -18.4801   19.5692 H   0  0  0  0  0  0
  -31.6085  -19.3081   21.0942 H   0  0  0  0  0  0
  -29.7186  -17.1194   22.7742 H   0  0  0  0  0  0
  -31.3709  -16.6043   22.4407 H   0  0  0  0  0  0
  -30.1942  -15.4549   23.0716 H   0  0  0  0  0  0
  -31.2277  -17.2142   19.7595 H   0  0  0  0  0  0
  -29.7067  -16.8982   19.0108 H   0  0  0  0  0  0
  -29.0214  -22.8884   22.1050 H   0  0  0  0  0  0
  -27.4741  -22.5978   21.4019 H   0  0  0  0  0  0
  -28.2277  -23.7349   19.2617 H   0  0  0  0  0  0
  -29.7860  -24.0410   19.9886 H   0  0  0  0  0  0
  -28.6529  -25.3983   21.8080 H   0  0  0  0  0  0
  -27.1163  -25.0947   21.0886 H   0  0  0  0  0  0
  -28.8464  -15.7455   20.9660 H   0  0  0  0  0  0
  1 25  1  0  0  0
  1 30  2  0  0  0
  1 80  1  0  0  0
  2  3  1  0  0  0
  2 25  1  0  0  0
  2 83  1  0  0  0
  2 84  1  0  0  0
  3  4  1  0  0  0
  3 85  1  0  0  0
  3 86  1  0  0  0
  4  5  1  0  0  0
  4 87  1  0  0  0
  4 88  1  0  0  0
  5  6  1  0  0  0
  5 26  1  0  0  0
  5 89  1  0  0  0
  6 25  1  0  0  0
  6 90  1  0  0  0
  6 91  1  0  0  0
  7  8  2  0  0  0
  7 26  1  0  0  0
  7 29  1  0  0  0
  8  9  1  0  0  0
  8 22  1  0  0  0
  9 10  1  0  0  0
  9 27  2  0  0  0
 10 11  2  0  0  0
 10 15  1  0  0  0
 11 12  1  0  0  0
 11 92  1  0  0  0
 12 13  2  0  0  0
 12 93  1  0  0  0
 13 14  1  0  0  0
 13 31  1  0  0  0
 14 15  2  0  0  0
 14 94  1  0  0  0
 15 95  1  0  0  0
 16 17  2  0  0  0
 16 21  1  0  0  0
 16 31  1  0  0  0
 17 18  1  0  0  0
 17 96  1  0  0  0
 18 19  2  0  0  0
 18 97  1  0  0  0
 19 20  1  0  0  0
 19 24  1  0  0  0
 20 21  2  0  0  0
 20 98  1  0  0  0
 21 23  1  0  0  0
 22 28  1  0  0  0
 22 32  2  0  0  0
 26 27  1  0  0  0
 28 99  1  0  0  0
 28100  1  0  0  0
 29101  1  0  0  0
 29102  1  0  0  0
 33 34  1  0  0  0
 33 66  1  0  0  0
 33 70  2  0  0  0
 34 36  1  0  0  0
 34 59  1  0  0  0
 34103  1  0  0  0
 35 44  2  0  0  0
 35 45  1  0  0  0
 35 68  1  0  0  0
 36 56  1  0  0  0
 36104  1  0  0  0
 37 39  1  0  0  0
 37 47  1  0  0  0
 37 66  1  0  0  0
 37105  1  0  0  0
 38 43  2  0  0  0
 38 46  1  0  0  0
 38 47  1  0  0  0
 39 64  1  0  0  0
 39 67  2  0  0  0
 40 52  1  0  0  0
 40 53  2  0  0  0
 40 58  1  0  0  0
 41106  1  0  0  0
 41107  1  0  0  0
 41108  1  0  0  0
 41 48  1  0  0  0
 42 43  1  0  0  0
 42 66  1  0  0  0
 42109  1  0  0  0
 42110  1  0  0  0
 43 44  1  0  0  0
 44111  1  0  0  0
 45 46  2  0  0  0
 45112  1  0  0  0
 46113  1  0  0  0
 47114  1  0  0  0
 47115  1  0  0  0
 48 56  1  0  0  0
 48 65  1  0  0  0
 48116  1  0  0  0
 49 50  1  0  0  0
 49 53  1  0  0  0
 49 64  1  0  0  0
 49117  1  0  0  0
 50 51  1  0  0  0
 50118  1  0  0  0
 50119  1  0  0  0
 51 52  1  0  0  0
 51120  1  0  0  0
 51121  1  0  0  0
 52122  1  0  0  0
 52123  1  0  0  0
 53 54  1  0  0  0
 54 55  2  0  0  0
 54124  1  0  0  0
 55 57  1  0  0  0
 55125  1  0  0  0
 56 69  2  0  0  0
 57 58  2  0  0  0
 57126  1  0  0  0
 58127  1  0  0  0
 59 60  1  0  0  0
 59 61  1  0  0  0
 59 62  1  0  0  0
 60128  1  0  0  0
 60129  1  0  0  0
 60130  1  0  0  0
 61131  1  0  0  0
 61132  1  0  0  0
 61133  1  0  0  0
 62134  1  0  0  0
 62135  1  0  0  0
 62136  1  0  0  0
 63 65  1  0  0  0
 63137  1  0  0  0
 63138  1  0  0  0
 63139  1  0  0  0
 64140  1  0  0  0
 65141  1  0  0  0
 68 79  1  0  0  0
 71 73  2  0  0  0
 71 81  1  0  0  0
 71142  1  0  0  0
 72 73  1  0  0  0
 72 82  2  0  0  0
 72143  1  0  0  0
 73 76  1  0  0  0
 74 77  1  0  0  0
 74 81  2  0  0  0
 74 82  1  0  0  0
 75144  1  0  0  0
 75145  1  0  0  0
 75146  1  0  0  0
 75 80  1  0  0  0
 76 80  1  0  0  0
 76147  1  0  0  0
 76148  1  0  0  0
 77 78  1  0  0  0
 77149  1  0  0  0
 77150  1  0  0  0
 78 79  1  0  0  0
 78151  1  0  0  0
 78152  1  0  0  0
 79153  1  0  0  0
 79154  1  0  0  0
 80155  1  0  0  0
M  ISO  4   1 100  68 101  79 101  80 100
M  END
> <chiral flag>
0

> <version>
0

> <s_m_source_file>
/data/baiqing/PycharmProjects/Reinvent-master-3.2/result/LINK_invent/BTK/process_docking_weight1_custom_sum_contain_oxygen_bond_distance_aromatic_linkinvent_7_9_3/rearranged_h_0047.sdf

> <i_m_source_file_index>
77

> <r_mmod_Potential_Energy-OPLS-2005>
-375.428375244141

> <r_mmod_Stretch_Energy-OPLS-2005>
62.0554046630859

> <r_mmod_Bend_Energy-OPLS-2005>
124.209823608398

> <r_mmod_Torsional_Energy-OPLS-2005>
191.237380981445

> <r_mmod_Improper_Torsional_Energy-OPLS-2005>
4.71831512451172

> <r_mmod_Van_der_Waal_Energy-OPLS-2005>
144.686004638672

> <r_mmod_Electrostatic_Energy-OPLS-2005>
-723.1064453125

> <r_mmod_Solvation_Energy-OPLS-2005>
-213.252548217773

> <b_mmod_Minimization_Converged-OPLS-2005>
0

> <r_mmod_RMS_Derivative-OPLS-2005>
0.549170136451721

$$$$
77
                    3D
 Structure written by MMmdl.
160168  0  0  1  0            999 V2000
  -30.6243  -14.6799   20.5135 C   0  0  0  0  0  0
  -30.4373  -12.4303   19.4426 C   0  0  0  0  0  0
  -29.5057  -12.5165   18.2145 C   0  0  0  0  0  0
  -28.0308  -12.3418   18.6313 C   0  0  0  0  0  0
  -27.6463  -13.2224   19.8508 C   0  0  2  0  0  0
  -28.6953  -13.1091   20.9791 C   0  0  0  0  0  0
  -25.2542  -13.8183   20.5685 C   0  0  0  0  0  0
  -24.1831  -13.0427   20.9200 C   0  0  0  0  0  0
  -24.6413  -11.6912   20.8742 C   0  0  0  0  0  0
  -23.9077  -10.4282   21.0406 C   0  0  0  0  0  0
  -24.3621   -9.4208   21.9191 C   0  0  0  0  0  0
  -23.6300   -8.2244   22.0762 C   0  0  0  0  0  0
  -22.4279   -8.0277   21.3544 C   0  0  0  0  0  0
  -21.9922   -9.0257   20.4639 C   0  0  0  0  0  0
  -22.7260  -10.2128   20.3049 C   0  0  0  0  0  0
  -21.6846   -6.0745   22.5289 C   0  0  0  0  0  0
  -21.4002   -6.5649   23.8228 C   0  0  0  0  0  0
  -21.3648   -5.6797   24.9187 C   0  0  0  0  0  0
  -21.6030   -4.3060   24.7235 C   0  0  0  0  0  0
  -21.8822   -3.8157   23.4360 C   0  0  0  0  0  0
  -21.9197   -4.6970   22.3414 C   0  0  0  0  0  0
  -22.7854  -13.5216   21.1870 C   0  0  0  0  0  0
  -22.1662   -4.2152   21.0988 F   0  0  0  0  0  0
  -21.5623   -3.4542   25.7752 F   0  0  0  0  0  0
  -29.9966  -13.4646   20.4001 N   0  0  0  0  0  0
  -26.2963  -12.9376   20.3279 N   0  0  0  0  0  0
  -25.9328  -11.6512   20.5737 N   0  0  0  0  0  0
  -22.0484  -12.8188   22.0401 N   0  0  0  0  0  0
  -25.4235  -15.1909   20.4085 N   0  0  0  0  0  0
  -31.8089  -14.8109   20.1953 O   0  0  0  0  0  0
  -21.6643   -6.8881   21.4246 O   0  0  0  0  0  0
  -22.3543  -14.5540   20.6740 O   0  0  0  0  0  0
  -24.6275  -31.8604   23.2026 C   0  0  0  0  0  0
  -25.9143  -32.4774   23.8351 C   0  0  1  0  0  0
  -27.2105  -27.3133   20.1237 C   0  0  0  0  0  0
  -25.5997  -33.8568   24.2315 N   0  0  0  0  0  0
  -23.4189  -30.4857   21.5437 C   0  0  2  0  0  0
  -24.8636  -28.9374   20.1105 C   0  0  0  0  0  0
  -22.7484  -29.4642   22.4935 C   0  0  0  0  0  0
  -18.0291  -28.1392   22.8492 C   0  0  0  0  0  0
  -24.1474  -36.7215   23.2649 C   0  0  0  0  0  0
  -25.9584  -30.7940   21.3655 C   0  0  0  0  0  0
  -26.0349  -29.4176   20.7144 C   0  0  0  0  0  0
  -27.2143  -28.6129   20.7175 C   0  0  0  0  0  0
  -26.0226  -26.8815   19.5031 C   0  0  0  0  0  0
  -24.8590  -27.6725   19.5014 C   0  0  0  0  0  0
  -23.6334  -29.8214   20.1580 C   0  0  0  0  0  0
  -25.4100  -36.3050   24.0345 C   0  0  1  0  0  0
  -20.5902  -28.3679   23.1286 C   0  0  2  0  0  0
  -20.6811  -26.9422   22.5381 C   0  0  0  0  0  0
  -19.5769  -26.6402   21.5218 C   0  0  0  0  0  0
  -18.1934  -26.7947   22.1612 C   0  0  0  0  0  0
  -19.1550  -28.8850   23.2886 C   0  0  0  0  0  0
  -18.9490  -30.1468   23.8882 C   0  0  0  0  0  0
  -17.6482  -30.6599   24.0561 C   0  0  0  0  0  0
  -25.9047  -34.9432   23.5099 C   0  0  0  0  0  0
  -16.5366  -29.9082   23.6364 C   0  0  0  0  0  0
  -16.7273  -28.6503   23.0374 C   0  0  0  0  0  0
  -26.4554  -31.6558   25.0681 C   0  0  0  0  0  0
  -25.3799  -31.3587   26.1382 C   0  0  0  0  0  0
  -27.0477  -30.3042   24.6056 C   0  0  0  0  0  0
  -27.6105  -32.4268   25.7486 C   0  0  0  0  0  0
  -27.5537  -37.1758   24.8504 C   0  0  0  0  0  0
  -21.4191  -29.3042   22.3674 N   0  0  0  0  0  0
  -26.4255  -37.3771   23.9448 N   0  0  0  0  0  0
  -24.6878  -31.0641   22.0959 N   0  0  0  0  0  0
  -23.4219  -28.8175   23.2992 O   0  0  0  0  0  0
  -28.2751  -26.4064   20.1594 O   0  0  0  0  0  0
  -26.5579  -34.8920   22.4647 O   0  0  0  0  0  0
  -23.5440  -32.1392   23.7369 O   0  0  0  0  0  0
  -29.1265  -21.9222   19.7103 C   0  0  0  0  0  0
  -28.8066  -21.0010   20.7626 C   0  0  0  0  0  0
  -28.1178  -22.8744   22.0182 C   0  0  0  0  0  0
  -28.4138  -23.8009   20.9655 C   0  0  0  0  0  0
  -29.6636  -21.4188   18.3857 C   0  0  0  0  0  0
  -25.9411  -23.1568   23.2950 C   0  0  0  0  0  0
  -27.4714  -23.2986   23.3324 C   0  0  0  0  0  0
  -28.7582  -19.4148   20.6736 C   0  0  0  0  0  0
  -28.1198  -25.3498   21.1815 C   0  0  0  0  0  0
  -30.0544  -18.5026   20.4881 C   0  0  0  0  0  0
  -30.2604  -17.1423   21.3249 C   0  0  0  0  0  0
  -28.9445  -23.2913   19.8093 N   0  0  0  0  0  0
  -28.3178  -21.5252   21.9155 N   0  0  0  0  0  0
  -29.8466  -15.7703   20.8344 N   0  0  0  0  0  0
  -31.4764  -12.5666   19.1393 H   0  0  0  0  0  0
  -30.3837  -11.4407   19.8989 H   0  0  0  0  0  0
  -29.7795  -11.7620   17.4761 H   0  0  0  0  0  0
  -29.6351  -13.4829   17.7243 H   0  0  0  0  0  0
  -27.8795  -11.2893   18.8735 H   0  0  0  0  0  0
  -27.3716  -12.5578   17.7893 H   0  0  0  0  0  0
  -27.6513  -14.2526   19.4930 H   0  0  0  0  0  0
  -28.7288  -12.0935   21.3770 H   0  0  0  0  0  0
  -28.4405  -13.7554   21.8199 H   0  0  0  0  0  0
  -25.2762   -9.5702   22.4766 H   0  0  0  0  0  0
  -24.0015   -7.4636   22.7481 H   0  0  0  0  0  0
  -21.0860   -8.8758   19.8939 H   0  0  0  0  0  0
  -22.3721  -10.9655   19.6142 H   0  0  0  0  0  0
  -21.1978   -7.6153   23.9728 H   0  0  0  0  0  0
  -21.1453   -6.0529   25.9086 H   0  0  0  0  0  0
  -22.0608   -2.7612   23.2862 H   0  0  0  0  0  0
  -22.4092  -11.9812   22.4735 H   0  0  0  0  0  0
  -21.1088  -13.1189   22.2587 H   0  0  0  0  0  0
  -24.6493  -15.8387   20.5062 H   0  0  0  0  0  0
  -26.2658  -15.6308   20.0620 H   0  0  0  0  0  0
  -26.7177  -32.5455   23.1072 H   0  0  0  0  0  0
  -25.0331  -33.9749   25.0579 H   0  0  0  0  0  0
  -22.7110  -31.3047   21.4030 H   0  0  0  0  0  0
  -23.3773  -35.9509   23.3323 H   0  0  0  0  0  0
  -24.3562  -36.8817   22.2063 H   0  0  0  0  0  0
  -23.7173  -37.6396   23.6653 H   0  0  0  0  0  0
  -26.0772  -31.5538   20.5903 H   0  0  0  0  0  0
  -26.8463  -30.8557   21.9830 H   0  0  0  0  0  0
  -28.1072  -28.9713   21.2086 H   0  0  0  0  0  0
  -25.9851  -25.9012   19.0496 H   0  0  0  0  0  0
  -23.9546  -27.2922   19.0453 H   0  0  0  0  0  0
  -23.7509  -30.6038   19.4071 H   0  0  0  0  0  0
  -22.7524  -29.2557   19.8480 H   0  0  0  0  0  0
  -25.1268  -36.1883   25.0829 H   0  0  0  0  0  0
  -20.9982  -28.3221   24.1414 H   0  0  0  0  0  0
  -20.5821  -26.2267   23.3551 H   0  0  0  0  0  0
  -21.6659  -26.7506   22.1106 H   0  0  0  0  0  0
  -19.6951  -25.6335   21.1212 H   0  0  0  0  0  0
  -19.6722  -27.3239   20.6773 H   0  0  0  0  0  0
  -17.4230  -26.6728   21.3989 H   0  0  0  0  0  0
  -18.0296  -26.0085   22.8993 H   0  0  0  0  0  0
  -19.7973  -30.7295   24.2225 H   0  0  0  0  0  0
  -17.5045  -31.6288   24.5159 H   0  0  0  0  0  0
  -15.5376  -30.2976   23.7753 H   0  0  0  0  0  0
  -15.8665  -28.0819   22.7112 H   0  0  0  0  0  0
  -24.6005  -30.6938   25.7632 H   0  0  0  0  0  0
  -24.8970  -32.2719   26.4862 H   0  0  0  0  0  0
  -25.8139  -30.8682   27.0105 H   0  0  0  0  0  0
  -26.3029  -29.6671   24.1264 H   0  0  0  0  0  0
  -27.4511  -29.7366   25.4460 H   0  0  0  0  0  0
  -27.8733  -30.4442   23.9063 H   0  0  0  0  0  0
  -27.2734  -33.3596   26.2003 H   0  0  0  0  0  0
  -28.3987  -32.6760   25.0366 H   0  0  0  0  0  0
  -28.0687  -31.8400   26.5461 H   0  0  0  0  0  0
  -28.2558  -38.0055   24.7562 H   0  0  0  0  0  0
  -28.1020  -36.2580   24.6314 H   0  0  0  0  0  0
  -27.2247  -37.1358   25.8909 H   0  0  0  0  0  0
  -20.9367  -29.8674   21.6819 H   0  0  0  0  0  0
  -26.0113  -38.2821   24.1524 H   0  0  0  0  0  0
  -30.5129  -20.7558   18.5537 H   0  0  0  0  0  0
  -29.9994  -22.2391   17.7513 H   0  0  0  0  0  0
  -28.8958  -20.8641   17.8455 H   0  0  0  0  0  0
  -25.4979  -23.4223   24.2558 H   0  0  0  0  0  0
  -25.6412  -22.1329   23.0667 H   0  0  0  0  0  0
  -25.5035  -23.8044   22.5341 H   0  0  0  0  0  0
  -27.7505  -24.3166   23.6033 H   0  0  0  0  0  0
  -27.8655  -22.6740   24.1338 H   0  0  0  0  0  0
  -28.0539  -19.1681   19.8784 H   0  0  0  0  0  0
  -28.2602  -19.0742   21.5833 H   0  0  0  0  0  0
  -28.7696  -25.6585   22.0006 H   0  0  0  0  0  0
  -27.1084  -25.4050   21.5888 H   0  0  0  0  0  0
  -30.8818  -19.1454   20.7946 H   0  0  0  0  0  0
  -30.2380  -18.3246   19.4284 H   0  0  0  0  0  0
  -29.7976  -17.2785   22.3024 H   0  0  0  0  0  0
  -31.3255  -17.0709   21.5530 H   0  0  0  0  0  0
  -28.8729  -15.5461   20.9799 H   0  0  0  0  0  0
  1 25  1  0  0  0
  1 30  2  0  0  0
  1 84  1  0  0  0
  2  3  1  0  0  0
  2 25  1  0  0  0
  2 85  1  0  0  0
  2 86  1  0  0  0
  3  4  1  0  0  0
  3 87  1  0  0  0
  3 88  1  0  0  0
  4  5  1  0  0  0
  4 89  1  0  0  0
  4 90  1  0  0  0
  5  6  1  0  0  0
  5 26  1  0  0  0
  5 91  1  0  0  0
  6 25  1  0  0  0
  6 92  1  0  0  0
  6 93  1  0  0  0
  7  8  2  0  0  0
  7 26  1  0  0  0
  7 29  1  0  0  0
  8  9  1  0  0  0
  8 22  1  0  0  0
  9 10  1  0  0  0
  9 27  2  0  0  0
 10 11  2  0  0  0
 10 15  1  0  0  0
 11 12  1  0  0  0
 11 94  1  0  0  0
 12 13  2  0  0  0
 12 95  1  0  0  0
 13 14  1  0  0  0
 13 31  1  0  0  0
 14 15  2  0  0  0
 14 96  1  0  0  0
 15 97  1  0  0  0
 16 17  2  0  0  0
 16 21  1  0  0  0
 16 31  1  0  0  0
 17 18  1  0  0  0
 17 98  1  0  0  0
 18 19  2  0  0  0
 18 99  1  0  0  0
 19 20  1  0  0  0
 19 24  1  0  0  0
 20 21  2  0  0  0
 20100  1  0  0  0
 21 23  1  0  0  0
 22 28  1  0  0  0
 22 32  2  0  0  0
 26 27  1  0  0  0
 28101  1  0  0  0
 28102  1  0  0  0
 29103  1  0  0  0
 29104  1  0  0  0
 33 34  1  0  0  0
 33 66  1  0  0  0
 33 70  2  0  0  0
 34 36  1  0  0  0
 34 59  1  0  0  0
 34105  1  0  0  0
 35 44  2  0  0  0
 35 45  1  0  0  0
 35 68  1  0  0  0
 36 56  1  0  0  0
 36106  1  0  0  0
 37 39  1  0  0  0
 37 47  1  0  0  0
 37 66  1  0  0  0
 37107  1  0  0  0
 38 43  2  0  0  0
 38 46  1  0  0  0
 38 47  1  0  0  0
 39 64  1  0  0  0
 39 67  2  0  0  0
 40 52  1  0  0  0
 40 53  2  0  0  0
 40 58  1  0  0  0
 41108  1  0  0  0
 41109  1  0  0  0
 41110  1  0  0  0
 41 48  1  0  0  0
 42 43  1  0  0  0
 42 66  1  0  0  0
 42111  1  0  0  0
 42112  1  0  0  0
 43 44  1  0  0  0
 44113  1  0  0  0
 45 46  2  0  0  0
 45114  1  0  0  0
 46115  1  0  0  0
 47116  1  0  0  0
 47117  1  0  0  0
 48 56  1  0  0  0
 48 65  1  0  0  0
 48118  1  0  0  0
 49 50  1  0  0  0
 49 53  1  0  0  0
 49 64  1  0  0  0
 49119  1  0  0  0
 50 51  1  0  0  0
 50120  1  0  0  0
 50121  1  0  0  0
 51 52  1  0  0  0
 51122  1  0  0  0
 51123  1  0  0  0
 52124  1  0  0  0
 52125  1  0  0  0
 53 54  1  0  0  0
 54 55  2  0  0  0
 54126  1  0  0  0
 55 57  1  0  0  0
 55127  1  0  0  0
 56 69  2  0  0  0
 57 58  2  0  0  0
 57128  1  0  0  0
 58129  1  0  0  0
 59 60  1  0  0  0
 59 61  1  0  0  0
 59 62  1  0  0  0
 60130  1  0  0  0
 60131  1  0  0  0
 60132  1  0  0  0
 61133  1  0  0  0
 61134  1  0  0  0
 61135  1  0  0  0
 62136  1  0  0  0
 62137  1  0  0  0
 62138  1  0  0  0
 63 65  1  0  0  0
 63139  1  0  0  0
 63140  1  0  0  0
 63141  1  0  0  0
 64142  1  0  0  0
 65143  1  0  0  0
 68 79  1  0  0  0
 71 72  2  0  0  0
 71 75  1  0  0  0
 71 82  1  0  0  0
 72 78  1  0  0  0
 72 83  1  0  0  0
 73 74  1  0  0  0
 73 77  1  0  0  0
 73 83  2  0  0  0
 74 79  1  0  0  0
 74 82  2  0  0  0
 75144  1  0  0  0
 75145  1  0  0  0
 75146  1  0  0  0
 76 77  1  0  0  0
 76147  1  0  0  0
 76148  1  0  0  0
 76149  1  0  0  0
 77150  1  0  0  0
 77151  1  0  0  0
 78 80  1  0  0  0
 78152  1  0  0  0
 78153  1  0  0  0
 79154  1  0  0  0
 79155  1  0  0  0
 80 81  1  0  0  0
 80156  1  0  0  0
 80157  1  0  0  0
 81 84  1  0  0  0
 81158  1  0  0  0
 81159  1  0  0  0
 84160  1  0  0  0
M  ISO  4   1 100  68 101  79 101  84 100
M  END
> <chiral flag>
0

> <version>
0

> <s_m_source_file>
/data/baiqing/PycharmProjects/Reinvent-master-3.2/result/LINK_invent/BTK/process_docking_weight1_custom_sum_contain_oxygen_bond_distance_aromatic_linkinvent_7_9_3/rearranged_h_0047.sdf

> <i_m_source_file_index>
78

> <r_mmod_Potential_Energy-OPLS-2005>
175.939987182617

> <r_mmod_Stretch_Energy-OPLS-2005>
95.968620300293

> <r_mmod_Bend_Energy-OPLS-2005>
178.715698242188

> <r_mmod_Torsional_Energy-OPLS-2005>
243.853729248047

> <r_mmod_Improper_Torsional_Energy-OPLS-2005>
4.99176406860352

> <r_mmod_Van_der_Waal_Energy-OPLS-2005>
138.6533203125

> <r_mmod_Electrostatic_Energy-OPLS-2005>
-323.703491210938

> <r_mmod_Solvation_Energy-OPLS-2005>
-225.279495239258

> <b_mmod_Minimization_Converged-OPLS-2005>
0

> <r_mmod_RMS_Derivative-OPLS-2005>
3.2753381729126

$$$$
78
                    3D
 Structure written by MMmdl.
154162  0  0  1  0            999 V2000
  -30.5465  -14.9685   20.4115 C   0  0  0  0  0  0
  -30.4392  -12.6048   19.4856 C   0  0  0  0  0  0
  -29.5169  -12.5268   18.2476 C   0  0  0  0  0  0
  -28.0512  -12.3127   18.6715 C   0  0  0  0  0  0
  -27.6261  -13.2511   19.8311 C   0  0  2  0  0  0
  -28.6728  -13.2969   20.9631 C   0  0  0  0  0  0
  -25.2457  -13.8219   20.5727 C   0  0  0  0  0  0
  -24.1776  -13.0438   20.9238 C   0  0  0  0  0  0
  -24.6393  -11.6924   20.8755 C   0  0  0  0  0  0
  -23.9078  -10.4292   21.0401 C   0  0  0  0  0  0
  -24.3626   -9.4207   21.9180 C   0  0  0  0  0  0
  -23.6300   -8.2243   22.0751 C   0  0  0  0  0  0
  -22.4283   -8.0279   21.3539 C   0  0  0  0  0  0
  -21.9920   -9.0254   20.4644 C   0  0  0  0  0  0
  -22.7247  -10.2133   20.3055 C   0  0  0  0  0  0
  -21.6856   -6.0736   22.5275 C   0  0  0  0  0  0
  -21.4012   -6.5641   23.8209 C   0  0  0  0  0  0
  -21.3659   -5.6794   24.9172 C   0  0  0  0  0  0
  -21.6045   -4.3058   24.7224 C   0  0  0  0  0  0
  -21.8819   -3.8148   23.4346 C   0  0  0  0  0  0
  -21.9194   -4.6963   22.3400 C   0  0  0  0  0  0
  -22.7794  -13.5207   21.1893 C   0  0  0  0  0  0
  -22.1665   -4.2150   21.0977 F   0  0  0  0  0  0
  -21.5630   -3.4543   25.7735 F   0  0  0  0  0  0
  -29.9406  -13.7129   20.3497 N   0  0  0  0  0  0
  -26.2879  -12.9460   20.3238 N   0  0  0  0  0  0
  -25.9328  -11.6586   20.5736 N   0  0  0  0  0  0
  -22.0450  -12.8186   22.0444 N   0  0  0  0  0  0
  -25.4107  -15.1950   20.4157 N   0  0  0  0  0  0
  -31.7636  -15.0116   20.2054 O   0  0  0  0  0  0
  -21.6643   -6.8878   21.4236 O   0  0  0  0  0  0
  -22.3475  -14.5509   20.6733 O   0  0  0  0  0  0
  -24.6468  -31.8414   23.1876 C   0  0  0  0  0  0
  -25.9226  -32.4683   23.8266 C   0  0  1  0  0  0
  -27.2134  -27.1086   20.1610 C   0  0  0  0  0  0
  -25.5954  -33.8491   24.2171 N   0  0  0  0  0  0
  -23.4518  -30.4611   21.5339 C   0  0  2  0  0  0
  -24.9017  -28.8844   20.1136 C   0  0  0  0  0  0
  -22.7582  -29.4531   22.4855 C   0  0  0  0  0  0
  -18.0302  -28.1383   22.8482 C   0  0  0  0  0  0
  -24.1484  -36.7247   23.2646 C   0  0  0  0  0  0
  -26.0106  -30.7059   21.3931 C   0  0  0  0  0  0
  -26.0806  -29.3148   20.7359 C   0  0  0  0  0  0
  -27.2391  -28.4450   20.7400 C   0  0  0  0  0  0
  -26.0119  -26.7927   19.4901 C   0  0  0  0  0  0
  -24.8818  -27.6377   19.4734 C   0  0  0  0  0  0
  -23.6810  -29.7913   20.1537 C   0  0  0  0  0  0
  -25.4120  -36.3021   24.0312 C   0  0  1  0  0  0
  -20.5917  -28.3716   23.1226 C   0  0  2  0  0  0
  -20.6786  -26.9415   22.5404 C   0  0  0  0  0  0
  -19.5754  -26.6369   21.5220 C   0  0  0  0  0  0
  -18.1933  -26.7920   22.1628 C   0  0  0  0  0  0
  -19.1560  -28.8868   23.2842 C   0  0  0  0  0  0
  -18.9483  -30.1464   23.8866 C   0  0  0  0  0  0
  -17.6479  -30.6585   24.0558 C   0  0  0  0  0  0
  -25.9077  -34.9399   23.5050 C   0  0  0  0  0  0
  -16.5368  -29.9081   23.6339 C   0  0  0  0  0  0
  -16.7287  -28.6497   23.0364 C   0  0  0  0  0  0
  -26.4532  -31.6570   25.0726 C   0  0  0  0  0  0
  -25.3699  -31.3777   26.1411 C   0  0  0  0  0  0
  -27.0416  -30.2957   24.6351 C   0  0  0  0  0  0
  -27.6043  -32.4366   25.7511 C   0  0  0  0  0  0
  -27.5566  -37.1783   24.8464 C   0  0  0  0  0  0
  -21.4270  -29.3041   22.3597 N   0  0  0  0  0  0
  -26.4275  -37.3743   23.9409 N   0  0  0  0  0  0
  -24.7231  -31.0243   22.0929 N   0  0  0  0  0  0
  -23.4211  -28.8089   23.3026 O   0  0  0  0  0  0
  -28.2556  -26.1021   20.1958 O   0  0  0  0  0  0
  -26.5674  -34.8911   22.4637 O   0  0  0  0  0  0
  -23.5579  -32.1303   23.7072 O   0  0  0  0  0  0
  -26.5495  -21.2012   22.4418 C   0  0  0  0  0  0
  -26.8056  -19.8304   22.3502 C   0  0  0  0  0  0
  -28.2751  -21.7002   20.9123 C   0  0  0  0  0  0
  -28.5845  -20.1940   20.8648 C   0  0  0  0  0  0
  -25.9676  -18.8186   23.1011 C   0  0  0  0  0  0
  -28.8143  -23.1257   20.2683 C   0  0  0  0  0  0
  -29.5469  -19.1403   20.0686 C   0  0  0  0  0  0
  -30.1729  -17.6962   20.7424 C   0  0  0  0  0  0
  -27.9343  -24.5888   20.4808 C   0  0  0  0  0  0
  -27.2729  -22.0943   21.7428 N   0  0  0  0  0  0
  -27.7965  -19.3522   21.5810 N   0  0  0  0  0  0
  -29.7818  -16.1723   20.5009 N   0  0  0  0  0  0
  -31.4696  -12.7683   19.1675 H   0  0  0  0  0  0
  -30.4412  -11.6596   20.0309 H   0  0  0  0  0  0
  -29.8362  -11.7208   17.5858 H   0  0  0  0  0  0
  -29.6010  -13.4490   17.6706 H   0  0  0  0  0  0
  -27.9499  -11.2731   18.9850 H   0  0  0  0  0  0
  -27.3859  -12.4381   17.8163 H   0  0  0  0  0  0
  -27.5824  -14.2494   19.3944 H   0  0  0  0  0  0
  -28.7692  -12.3274   21.4537 H   0  0  0  0  0  0
  -28.3732  -14.0093   21.7337 H   0  0  0  0  0  0
  -25.2767   -9.5686   22.4763 H   0  0  0  0  0  0
  -24.0007   -7.4635   22.7473 H   0  0  0  0  0  0
  -21.0850   -8.8770   19.8953 H   0  0  0  0  0  0
  -22.3695  -10.9673   19.6173 H   0  0  0  0  0  0
  -21.2000   -7.6149   23.9709 H   0  0  0  0  0  0
  -21.1483   -6.0526   25.9073 H   0  0  0  0  0  0
  -22.0599   -2.7611   23.2844 H   0  0  0  0  0  0
  -22.4080  -11.9853   22.4828 H   0  0  0  0  0  0
  -21.1063  -13.1191   22.2655 H   0  0  0  0  0  0
  -24.6396  -15.8436   20.5285 H   0  0  0  0  0  0
  -26.2524  -15.6395   20.0739 H   0  0  0  0  0  0
  -26.7297  -32.5285   23.0998 H   0  0  0  0  0  0
  -25.0068  -33.9603   25.0293 H   0  0  0  0  0  0
  -22.7558  -31.2879   21.3785 H   0  0  0  0  0  0
  -23.3754  -35.9568   23.3296 H   0  0  0  0  0  0
  -24.3555  -36.8899   22.2062 H   0  0  0  0  0  0
  -23.7248  -37.6441   23.6695 H   0  0  0  0  0  0
  -26.1710  -31.4595   20.6209 H   0  0  0  0  0  0
  -26.8790  -30.7547   22.0389 H   0  0  0  0  0  0
  -28.1380  -28.7711   21.2437 H   0  0  0  0  0  0
  -25.9175  -25.8521   18.9694 H   0  0  0  0  0  0
  -23.9871  -27.3072   18.9640 H   0  0  0  0  0  0
  -23.8212  -30.5653   19.3981 H   0  0  0  0  0  0
  -22.7947  -29.2366   19.8412 H   0  0  0  0  0  0
  -25.1315  -36.1837   25.0805 H   0  0  0  0  0  0
  -21.0003  -28.3310   24.1351 H   0  0  0  0  0  0
  -20.5676  -26.2335   23.3630 H   0  0  0  0  0  0
  -21.6653  -26.7414   22.1209 H   0  0  0  0  0  0
  -19.6912  -25.6276   21.1262 H   0  0  0  0  0  0
  -19.6683  -27.3167   20.6738 H   0  0  0  0  0  0
  -17.4210  -26.6669   21.4026 H   0  0  0  0  0  0
  -18.0325  -26.0054   22.9016 H   0  0  0  0  0  0
  -19.7960  -30.7284   24.2220 H   0  0  0  0  0  0
  -17.5039  -31.6265   24.5158 H   0  0  0  0  0  0
  -15.5367  -30.2983   23.7673 H   0  0  0  0  0  0
  -15.8684  -28.0811   22.7099 H   0  0  0  0  0  0
  -24.5869  -30.7133   25.7737 H   0  0  0  0  0  0
  -24.8899  -32.2970   26.4775 H   0  0  0  0  0  0
  -25.7965  -30.8989   27.0234 H   0  0  0  0  0  0
  -26.3058  -29.6659   24.1339 H   0  0  0  0  0  0
  -27.3992  -29.7279   25.4953 H   0  0  0  0  0  0
  -27.8971  -30.4186   23.9707 H   0  0  0  0  0  0
  -27.2610  -33.3692   26.2001 H   0  0  0  0  0  0
  -28.3887  -32.6898   25.0368 H   0  0  0  0  0  0
  -28.0665  -31.8561   26.5505 H   0  0  0  0  0  0
  -28.2587  -38.0079   24.7515 H   0  0  0  0  0  0
  -28.1060  -36.2612   24.6285 H   0  0  0  0  0  0
  -27.2277  -37.1435   25.8866 H   0  0  0  0  0  0
  -20.9484  -29.8761   21.6780 H   0  0  0  0  0  0
  -26.0130  -38.2801   24.1428 H   0  0  0  0  0  0
  -25.7550  -21.5848   23.0655 H   0  0  0  0  0  0
  -24.9296  -18.8780   22.7737 H   0  0  0  0  0  0
  -26.0013  -19.0192   24.1716 H   0  0  0  0  0  0
  -26.3196  -17.7998   22.9339 H   0  0  0  0  0  0
  -28.9554  -22.9617   19.2005 H   0  0  0  0  0  0
  -29.8143  -23.2794   20.6727 H   0  0  0  0  0  0
  -30.4075  -19.7408   19.7719 H   0  0  0  0  0  0
  -29.0534  -18.8956   19.1280 H   0  0  0  0  0  0
  -30.1976  -17.8385   21.8231 H   0  0  0  0  0  0
  -31.2278  -17.7142   20.4657 H   0  0  0  0  0  0
  -27.7300  -24.6323   21.5512 H   0  0  0  0  0  0
  -26.9642  -24.3741   20.0399 H   0  0  0  0  0  0
  -28.7876  -16.0044   20.5391 H   0  0  0  0  0  0
  1 25  1  0  0  0
  1 30  2  0  0  0
  1 82  1  0  0  0
  2  3  1  0  0  0
  2 25  1  0  0  0
  2 83  1  0  0  0
  2 84  1  0  0  0
  3  4  1  0  0  0
  3 85  1  0  0  0
  3 86  1  0  0  0
  4  5  1  0  0  0
  4 87  1  0  0  0
  4 88  1  0  0  0
  5  6  1  0  0  0
  5 26  1  0  0  0
  5 89  1  0  0  0
  6 25  1  0  0  0
  6 90  1  0  0  0
  6 91  1  0  0  0
  7  8  2  0  0  0
  7 26  1  0  0  0
  7 29  1  0  0  0
  8  9  1  0  0  0
  8 22  1  0  0  0
  9 10  1  0  0  0
  9 27  2  0  0  0
 10 11  2  0  0  0
 10 15  1  0  0  0
 11 12  1  0  0  0
 11 92  1  0  0  0
 12 13  2  0  0  0
 12 93  1  0  0  0
 13 14  1  0  0  0
 13 31  1  0  0  0
 14 15  2  0  0  0
 14 94  1  0  0  0
 15 95  1  0  0  0
 16 17  2  0  0  0
 16 21  1  0  0  0
 16 31  1  0  0  0
 17 18  1  0  0  0
 17 96  1  0  0  0
 18 19  2  0  0  0
 18 97  1  0  0  0
 19 20  1  0  0  0
 19 24  1  0  0  0
 20 21  2  0  0  0
 20 98  1  0  0  0
 21 23  1  0  0  0
 22 28  1  0  0  0
 22 32  2  0  0  0
 26 27  1  0  0  0
 28 99  1  0  0  0
 28100  1  0  0  0
 29101  1  0  0  0
 29102  1  0  0  0
 33 34  1  0  0  0
 33 66  1  0  0  0
 33 70  2  0  0  0
 34 36  1  0  0  0
 34 59  1  0  0  0
 34103  1  0  0  0
 35 44  2  0  0  0
 35 45  1  0  0  0
 35 68  1  0  0  0
 36 56  1  0  0  0
 36104  1  0  0  0
 37 39  1  0  0  0
 37 47  1  0  0  0
 37 66  1  0  0  0
 37105  1  0  0  0
 38 43  2  0  0  0
 38 46  1  0  0  0
 38 47  1  0  0  0
 39 64  1  0  0  0
 39 67  2  0  0  0
 40 52  1  0  0  0
 40 53  2  0  0  0
 40 58  1  0  0  0
 41106  1  0  0  0
 41107  1  0  0  0
 41108  1  0  0  0
 41 48  1  0  0  0
 42 43  1  0  0  0
 42 66  1  0  0  0
 42109  1  0  0  0
 42110  1  0  0  0
 43 44  1  0  0  0
 44111  1  0  0  0
 45 46  2  0  0  0
 45112  1  0  0  0
 46113  1  0  0  0
 47114  1  0  0  0
 47115  1  0  0  0
 48 56  1  0  0  0
 48 65  1  0  0  0
 48116  1  0  0  0
 49 50  1  0  0  0
 49 53  1  0  0  0
 49 64  1  0  0  0
 49117  1  0  0  0
 50 51  1  0  0  0
 50118  1  0  0  0
 50119  1  0  0  0
 51 52  1  0  0  0
 51120  1  0  0  0
 51121  1  0  0  0
 52122  1  0  0  0
 52123  1  0  0  0
 53 54  1  0  0  0
 54 55  2  0  0  0
 54124  1  0  0  0
 55 57  1  0  0  0
 55125  1  0  0  0
 56 69  2  0  0  0
 57 58  2  0  0  0
 57126  1  0  0  0
 58127  1  0  0  0
 59 60  1  0  0  0
 59 61  1  0  0  0
 59 62  1  0  0  0
 60128  1  0  0  0
 60129  1  0  0  0
 60130  1  0  0  0
 61131  1  0  0  0
 61132  1  0  0  0
 61133  1  0  0  0
 62134  1  0  0  0
 62135  1  0  0  0
 62136  1  0  0  0
 63 65  1  0  0  0
 63137  1  0  0  0
 63138  1  0  0  0
 63139  1  0  0  0
 64140  1  0  0  0
 65141  1  0  0  0
 68 79  1  0  0  0
 71 72  2  0  0  0
 71 80  1  0  0  0
 71142  1  0  0  0
 72 75  1  0  0  0
 72 81  1  0  0  0
 73 74  1  0  0  0
 73 76  1  0  0  0
 73 80  2  0  0  0
 74 77  1  0  0  0
 74 81  2  0  0  0
 75143  1  0  0  0
 75144  1  0  0  0
 75145  1  0  0  0
 76 79  1  0  0  0
 76146  1  0  0  0
 76147  1  0  0  0
 77 78  1  0  0  0
 77148  1  0  0  0
 77149  1  0  0  0
 78 82  1  0  0  0
 78150  1  0  0  0
 78151  1  0  0  0
 79152  1  0  0  0
 79153  1  0  0  0
 82154  1  0  0  0
M  ISO  4   1 100  68 101  79 101  82 100
M  END
> <chiral flag>
0

> <version>
0

> <s_m_source_file>
/data/baiqing/PycharmProjects/Reinvent-master-3.2/result/LINK_invent/BTK/process_docking_weight1_custom_sum_contain_oxygen_bond_distance_aromatic_linkinvent_7_9_3/rearranged_h_0047.sdf

> <i_m_source_file_index>
79

> <r_mmod_Potential_Energy-OPLS-2005>
714.479553222656

> <r_mmod_Stretch_Energy-OPLS-2005>
313.849822998047

> <r_mmod_Bend_Energy-OPLS-2005>
364.504943847656

> <r_mmod_Torsional_Energy-OPLS-2005>
240.260620117188

> <r_mmod_Improper_Torsional_Energy-OPLS-2005>
4.50526142120361

> <r_mmod_Van_der_Waal_Energy-OPLS-2005>
135.845062255859

> <r_mmod_Electrostatic_Energy-OPLS-2005>
-334.90966796875

> <r_mmod_Solvation_Energy-OPLS-2005>
-222.779861450195

> <b_mmod_Minimization_Converged-OPLS-2005>
0

> <r_mmod_RMS_Derivative-OPLS-2005>
0.959522187709808

$$$$
79
                    3D
 Structure written by MMmdl.
149157  0  0  1  0            999 V2000
  -30.5318  -14.9720   20.4181 C   0  0  0  0  0  0
  -30.4490  -12.5990   19.5287 C   0  0  0  0  0  0
  -29.5381  -12.5104   18.2836 C   0  0  0  0  0  0
  -28.0654  -12.3124   18.6896 C   0  0  0  0  0  0
  -27.6344  -13.2481   19.8486 C   0  0  2  0  0  0
  -28.6708  -13.2835   20.9885 C   0  0  0  0  0  0
  -25.2485  -13.8201   20.5714 C   0  0  0  0  0  0
  -24.1796  -13.0450   20.9248 C   0  0  0  0  0  0
  -24.6407  -11.6924   20.8769 C   0  0  0  0  0  0
  -23.9065  -10.4325   21.0417 C   0  0  0  0  0  0
  -24.3608   -9.4226   21.9196 C   0  0  0  0  0  0
  -23.6306   -8.2242   22.0729 C   0  0  0  0  0  0
  -22.4303   -8.0291   21.3504 C   0  0  0  0  0  0
  -21.9921   -9.0263   20.4605 C   0  0  0  0  0  0
  -22.7231  -10.2168   20.3056 C   0  0  0  0  0  0
  -21.6852   -6.0750   22.5269 C   0  0  0  0  0  0
  -21.4025   -6.5651   23.8210 C   0  0  0  0  0  0
  -21.3662   -5.6789   24.9161 C   0  0  0  0  0  0
  -21.6065   -4.3044   24.7203 C   0  0  0  0  0  0
  -21.8802   -3.8149   23.4313 C   0  0  0  0  0  0
  -21.9203   -4.6984   22.3384 C   0  0  0  0  0  0
  -22.7816  -13.5220   21.1909 C   0  0  0  0  0  0
  -22.1669   -4.2183   21.0950 F   0  0  0  0  0  0
  -21.5652   -3.4494   25.7691 F   0  0  0  0  0  0
  -29.9432  -13.7074   20.3868 N   0  0  0  0  0  0
  -26.2899  -12.9414   20.3275 N   0  0  0  0  0  0
  -25.9339  -11.6543   20.5789 N   0  0  0  0  0  0
  -22.0458  -12.8231   22.0456 N   0  0  0  0  0  0
  -25.4186  -15.1922   20.4164 N   0  0  0  0  0  0
  -31.7396  -15.0287   20.1586 O   0  0  0  0  0  0
  -21.6656   -6.8889   21.4222 O   0  0  0  0  0  0
  -22.3508  -14.5547   20.6755 O   0  0  0  0  0  0
  -24.6415  -31.8421   23.1895 C   0  0  0  0  0  0
  -25.9168  -32.4709   23.8296 C   0  0  1  0  0  0
  -27.2259  -27.1194   20.1561 C   0  0  0  0  0  0
  -25.5919  -33.8525   24.2209 N   0  0  0  0  0  0
  -23.4520  -30.4571   21.5372 C   0  0  2  0  0  0
  -24.9077  -28.8901   20.1090 C   0  0  0  0  0  0
  -22.7584  -29.4487   22.4879 C   0  0  0  0  0  0
  -18.0308  -28.1401   22.8503 C   0  0  0  0  0  0
  -24.1499  -36.7280   23.2659 C   0  0  0  0  0  0
  -26.0076  -30.7140   21.3910 C   0  0  0  0  0  0
  -26.0824  -29.3222   20.7360 C   0  0  0  0  0  0
  -27.2404  -28.4528   20.7493 C   0  0  0  0  0  0
  -26.0284  -26.8094   19.4721 C   0  0  0  0  0  0
  -24.8974  -27.6499   19.4555 C   0  0  0  0  0  0
  -23.6829  -29.7902   20.1541 C   0  0  0  0  0  0
  -25.4131  -36.3073   24.0333 C   0  0  1  0  0  0
  -20.5931  -28.3692   23.1292 C   0  0  2  0  0  0
  -20.6807  -26.9401   22.5444 C   0  0  0  0  0  0
  -19.5770  -26.6369   21.5262 C   0  0  0  0  0  0
  -18.1946  -26.7926   22.1662 C   0  0  0  0  0  0
  -19.1573  -28.8875   23.2876 C   0  0  0  0  0  0
  -18.9456  -30.1496   23.8860 C   0  0  0  0  0  0
  -17.6444  -30.6598   24.0561 C   0  0  0  0  0  0
  -25.9054  -34.9439   23.5085 C   0  0  0  0  0  0
  -16.5343  -29.9081   23.6362 C   0  0  0  0  0  0
  -16.7281  -28.6528   23.0327 C   0  0  0  0  0  0
  -26.4502  -31.6597   25.0742 C   0  0  0  0  0  0
  -25.3685  -31.3723   26.1426 C   0  0  0  0  0  0
  -27.0392  -30.3034   24.6285 C   0  0  0  0  0  0
  -27.6030  -32.4365   25.7500 C   0  0  0  0  0  0
  -27.5589  -37.1815   24.8453 C   0  0  0  0  0  0
  -21.4267  -29.3013   22.3677 N   0  0  0  0  0  0
  -26.4296  -37.3781   23.9406 N   0  0  0  0  0  0
  -24.7219  -31.0242   22.0954 N   0  0  0  0  0  0
  -23.4229  -28.8027   23.3020 O   0  0  0  0  0  0
  -28.2524  -26.0981   20.2491 O   0  0  0  0  0  0
  -26.5650  -34.8921   22.4670 O   0  0  0  0  0  0
  -23.5527  -32.1287   23.7121 O   0  0  0  0  0  0
  -30.6340  -22.3084   21.3914 C   0  0  0  0  0  0
  -28.4160  -21.8082   20.0626 C   0  0  0  0  0  0
  -29.2656  -20.6609   20.4830 C   0  0  0  0  0  0
  -28.7824  -23.2211   20.3492 C   0  0  0  0  0  0
  -28.9767  -19.0183   20.3801 C   0  0  0  0  0  0
  -27.9199  -24.5896   19.9663 C   0  0  0  0  0  0
  -30.0966  -17.7296   20.4716 C   0  0  0  0  0  0
  -30.3646  -21.0116   21.1816 N   0  0  0  0  0  0
  -29.9362  -23.3918   21.0264 N   0  0  0  0  0  0
  -29.7550  -16.1646   20.5341 N   0  0  0  0  0  0
  -27.2303  -21.5739   19.4135 O   0  0  0  0  0  0
  -31.4841  -12.7575   19.2215 H   0  0  0  0  0  0
  -30.4494  -11.6588   20.0822 H   0  0  0  0  0  0
  -29.8646  -11.6957   17.6373 H   0  0  0  0  0  0
  -29.6319  -13.4300   17.7085 H   0  0  0  0  0  0
  -27.9427  -11.2696   18.9909 H   0  0  0  0  0  0
  -27.4107  -12.4588   17.8282 H   0  0  0  0  0  0
  -27.6003  -14.2462   19.4106 H   0  0  0  0  0  0
  -28.7639  -12.3082   21.4664 H   0  0  0  0  0  0
  -28.3602  -13.9813   21.7672 H   0  0  0  0  0  0
  -25.2736   -9.5722   22.4778 H   0  0  0  0  0  0
  -24.0004   -7.4630   22.7446 H   0  0  0  0  0  0
  -21.0856   -8.8789   19.8914 H   0  0  0  0  0  0
  -22.3659  -10.9718   19.6182 H   0  0  0  0  0  0
  -21.1997   -7.6147   23.9695 H   0  0  0  0  0  0
  -21.1519   -6.0531   25.9070 H   0  0  0  0  0  0
  -22.0591   -2.7619   23.2795 H   0  0  0  0  0  0
  -22.4067  -11.9865   22.4804 H   0  0  0  0  0  0
  -21.1067  -13.1243   22.2646 H   0  0  0  0  0  0
  -24.6556  -15.8493   20.5436 H   0  0  0  0  0  0
  -26.2617  -15.6252   20.0639 H   0  0  0  0  0  0
  -26.7222  -32.5333   23.1010 H   0  0  0  0  0  0
  -25.0018  -33.9623   25.0332 H   0  0  0  0  0  0
  -22.7545  -31.2839   21.3829 H   0  0  0  0  0  0
  -23.3770  -35.9596   23.3315 H   0  0  0  0  0  0
  -24.3586  -36.8916   22.2072 H   0  0  0  0  0  0
  -23.7224  -37.6478   23.6674 H   0  0  0  0  0  0
  -26.1513  -31.4676   20.6177 H   0  0  0  0  0  0
  -26.8817  -30.7794   22.0273 H   0  0  0  0  0  0
  -28.1293  -28.7738   21.2779 H   0  0  0  0  0  0
  -25.9264  -25.8690   18.9548 H   0  0  0  0  0  0
  -24.0105  -27.3228   18.9336 H   0  0  0  0  0  0
  -23.8180  -30.5685   19.4011 H   0  0  0  0  0  0
  -22.7997  -29.2297   19.8392 H   0  0  0  0  0  0
  -25.1320  -36.1933   25.0822 H   0  0  0  0  0  0
  -20.9997  -28.3259   24.1420 H   0  0  0  0  0  0
  -20.5774  -26.2255   23.3633 H   0  0  0  0  0  0
  -21.6646  -26.7442   22.1184 H   0  0  0  0  0  0
  -19.6904  -25.6275   21.1300 H   0  0  0  0  0  0
  -19.6723  -27.3181   20.6799 H   0  0  0  0  0  0
  -17.4216  -26.6685   21.4068 H   0  0  0  0  0  0
  -18.0322  -26.0099   22.9086 H   0  0  0  0  0  0
  -19.7916  -30.7367   24.2171 H   0  0  0  0  0  0
  -17.4968  -31.6257   24.5169 H   0  0  0  0  0  0
  -15.5339  -30.2925   23.7713 H   0  0  0  0  0  0
  -15.8688  -28.0840   22.6977 H   0  0  0  0  0  0
  -24.5826  -30.7129   25.7701 H   0  0  0  0  0  0
  -24.8891  -32.2879   26.4915 H   0  0  0  0  0  0
  -25.7967  -30.8807   27.0172 H   0  0  0  0  0  0
  -26.3011  -29.6750   24.1276 H   0  0  0  0  0  0
  -27.4060  -29.7333   25.4833 H   0  0  0  0  0  0
  -27.8890  -30.4364   23.9580 H   0  0  0  0  0  0
  -27.2597  -33.3593   26.2184 H   0  0  0  0  0  0
  -28.3754  -32.7070   25.0285 H   0  0  0  0  0  0
  -28.0809  -31.8451   26.5319 H   0  0  0  0  0  0
  -28.2595  -38.0129   24.7529 H   0  0  0  0  0  0
  -28.1110  -36.2667   24.6249 H   0  0  0  0  0  0
  -27.2311  -37.1417   25.8857 H   0  0  0  0  0  0
  -20.9474  -29.8741   21.6876 H   0  0  0  0  0  0
  -26.0189  -38.2863   24.1396 H   0  0  0  0  0  0
  -31.5316  -22.5047   21.9639 H   0  0  0  0  0  0
  -28.4620  -18.8875   19.4284 H   0  0  0  0  0  0
  -28.2110  -18.8272   21.1305 H   0  0  0  0  0  0
  -26.9409  -24.3947   20.4058 H   0  0  0  0  0  0
  -27.7719  -24.5221   18.8877 H   0  0  0  0  0  0
  -30.7071  -17.9150   21.3560 H   0  0  0  0  0  0
  -30.7880  -17.8565   19.6371 H   0  0  0  0  0  0
  -28.7753  -15.9679   20.6738 H   0  0  0  0  0  0
  -26.8922  -20.6822   19.4219 H   0  0  0  0  0  0
  1 25  1  0  0  0
  1 30  2  0  0  0
  1 80  1  0  0  0
  2  3  1  0  0  0
  2 25  1  0  0  0
  2 82  1  0  0  0
  2 83  1  0  0  0
  3  4  1  0  0  0
  3 84  1  0  0  0
  3 85  1  0  0  0
  4  5  1  0  0  0
  4 86  1  0  0  0
  4 87  1  0  0  0
  5  6  1  0  0  0
  5 26  1  0  0  0
  5 88  1  0  0  0
  6 25  1  0  0  0
  6 89  1  0  0  0
  6 90  1  0  0  0
  7  8  2  0  0  0
  7 26  1  0  0  0
  7 29  1  0  0  0
  8  9  1  0  0  0
  8 22  1  0  0  0
  9 10  1  0  0  0
  9 27  2  0  0  0
 10 11  2  0  0  0
 10 15  1  0  0  0
 11 12  1  0  0  0
 11 91  1  0  0  0
 12 13  2  0  0  0
 12 92  1  0  0  0
 13 14  1  0  0  0
 13 31  1  0  0  0
 14 15  2  0  0  0
 14 93  1  0  0  0
 15 94  1  0  0  0
 16 17  2  0  0  0
 16 21  1  0  0  0
 16 31  1  0  0  0
 17 18  1  0  0  0
 17 95  1  0  0  0
 18 19  2  0  0  0
 18 96  1  0  0  0
 19 20  1  0  0  0
 19 24  1  0  0  0
 20 21  2  0  0  0
 20 97  1  0  0  0
 21 23  1  0  0  0
 22 28  1  0  0  0
 22 32  2  0  0  0
 26 27  1  0  0  0
 28 98  1  0  0  0
 28 99  1  0  0  0
 29100  1  0  0  0
 29101  1  0  0  0
 33 34  1  0  0  0
 33 66  1  0  0  0
 33 70  2  0  0  0
 34 36  1  0  0  0
 34 59  1  0  0  0
 34102  1  0  0  0
 35 44  2  0  0  0
 35 45  1  0  0  0
 35 68  1  0  0  0
 36 56  1  0  0  0
 36103  1  0  0  0
 37 39  1  0  0  0
 37 47  1  0  0  0
 37 66  1  0  0  0
 37104  1  0  0  0
 38 43  2  0  0  0
 38 46  1  0  0  0
 38 47  1  0  0  0
 39 64  1  0  0  0
 39 67  2  0  0  0
 40 52  1  0  0  0
 40 53  2  0  0  0
 40 58  1  0  0  0
 41105  1  0  0  0
 41106  1  0  0  0
 41107  1  0  0  0
 41 48  1  0  0  0
 42 43  1  0  0  0
 42 66  1  0  0  0
 42108  1  0  0  0
 42109  1  0  0  0
 43 44  1  0  0  0
 44110  1  0  0  0
 45 46  2  0  0  0
 45111  1  0  0  0
 46112  1  0  0  0
 47113  1  0  0  0
 47114  1  0  0  0
 48 56  1  0  0  0
 48 65  1  0  0  0
 48115  1  0  0  0
 49 50  1  0  0  0
 49 53  1  0  0  0
 49 64  1  0  0  0
 49116  1  0  0  0
 50 51  1  0  0  0
 50117  1  0  0  0
 50118  1  0  0  0
 51 52  1  0  0  0
 51119  1  0  0  0
 51120  1  0  0  0
 52121  1  0  0  0
 52122  1  0  0  0
 53 54  1  0  0  0
 54 55  2  0  0  0
 54123  1  0  0  0
 55 57  1  0  0  0
 55124  1  0  0  0
 56 69  2  0  0  0
 57 58  2  0  0  0
 57125  1  0  0  0
 58126  1  0  0  0
 59 60  1  0  0  0
 59 61  1  0  0  0
 59 62  1  0  0  0
 60127  1  0  0  0
 60128  1  0  0  0
 60129  1  0  0  0
 61130  1  0  0  0
 61131  1  0  0  0
 61132  1  0  0  0
 62133  1  0  0  0
 62134  1  0  0  0
 62135  1  0  0  0
 63 65  1  0  0  0
 63136  1  0  0  0
 63137  1  0  0  0
 63138  1  0  0  0
 64139  1  0  0  0
 65140  1  0  0  0
 68 76  1  0  0  0
 71 78  2  0  0  0
 71 79  1  0  0  0
 71141  1  0  0  0
 72 73  2  0  0  0
 72 74  1  0  0  0
 72 81  1  0  0  0
 73 75  1  0  0  0
 73 78  1  0  0  0
 74 76  1  0  0  0
 74 79  2  0  0  0
 75 77  1  0  0  0
 75142  1  0  0  0
 75143  1  0  0  0
 76144  1  0  0  0
 76145  1  0  0  0
 77 80  1  0  0  0
 77146  1  0  0  0
 77147  1  0  0  0
 80148  1  0  0  0
 81149  1  0  0  0
M  ISO  4   1 100  68 101  76 101  80 100
M  END
> <chiral flag>
0

> <version>
0

> <s_m_source_file>
/data/baiqing/PycharmProjects/Reinvent-master-3.2/result/LINK_invent/BTK/process_docking_weight1_custom_sum_contain_oxygen_bond_distance_aromatic_linkinvent_7_9_3/rearranged_h_0047.sdf

> <i_m_source_file_index>
80

> <r_mmod_Potential_Energy-OPLS-2005>
209.913269042969

> <r_mmod_Stretch_Energy-OPLS-2005>
286.038421630859

> <r_mmod_Bend_Energy-OPLS-2005>
257.525909423828

> <r_mmod_Torsional_Energy-OPLS-2005>
205.643966674805

> <r_mmod_Improper_Torsional_Energy-OPLS-2005>
4.76499938964844

> <r_mmod_Van_der_Waal_Energy-OPLS-2005>
138.050888061523

> <r_mmod_Electrostatic_Energy-OPLS-2005>
-624.340148925781

> <r_mmod_Solvation_Energy-OPLS-2005>
-271.096649169922

> <b_mmod_Minimization_Converged-OPLS-2005>
0

> <r_mmod_RMS_Derivative-OPLS-2005>
6.13244152069092

$$$$
80
                    3D
 Structure written by MMmdl.
174182  0  0  1  0            999 V2000
  -30.9389  -14.4517   20.1873 C   0  0  0  0  0  0
  -30.3749  -12.2647   19.3180 C   0  0  0  0  0  0
  -29.3878  -12.3327   18.1425 C   0  0  0  0  0  0
  -27.9494  -12.2513   18.6475 C   0  0  0  0  0  0
  -27.6475  -13.2177   19.8224 C   0  0  2  0  0  0
  -28.7846  -13.2123   20.8831 C   0  0  0  0  0  0
  -25.2618  -13.8229   20.5850 C   0  0  0  0  0  0
  -24.1867  -13.0486   20.9306 C   0  0  0  0  0  0
  -24.6449  -11.6964   20.8927 C   0  0  0  0  0  0
  -23.9104  -10.4320   21.0490 C   0  0  0  0  0  0
  -24.3618   -9.4196   21.9249 C   0  0  0  0  0  0
  -23.6287   -8.2224   22.0762 C   0  0  0  0  0  0
  -22.4289   -8.0279   21.3533 C   0  0  0  0  0  0
  -21.9938   -9.0280   20.4655 C   0  0  0  0  0  0
  -22.7272  -10.2171   20.3113 C   0  0  0  0  0  0
  -21.6828   -6.0754   22.5286 C   0  0  0  0  0  0
  -21.3983   -6.5662   23.8215 C   0  0  0  0  0  0
  -21.3641   -5.6815   24.9189 C   0  0  0  0  0  0
  -21.6037   -4.3067   24.7232 C   0  0  0  0  0  0
  -21.8815   -3.8176   23.4343 C   0  0  0  0  0  0
  -21.9171   -4.6996   22.3410 C   0  0  0  0  0  0
  -22.7837  -13.5234   21.1833 C   0  0  0  0  0  0
  -22.1652   -4.2187   21.0980 F   0  0  0  0  0  0
  -21.5622   -3.4541   25.7729 F   0  0  0  0  0  0
  -30.0679  -13.4021   20.1692 N   0  0  0  0  0  0
  -26.3110  -12.9436   20.3602 N   0  0  0  0  0  0
  -25.9418  -11.6607   20.6131 N   0  0  0  0  0  0
  -22.0442  -12.8260   22.0389 N   0  0  0  0  0  0
  -25.4311  -15.1926   20.4127 N   0  0  0  0  0  0
  -31.9198  -14.3974   20.8921 O   0  0  0  0  0  0
  -21.6617   -6.8901   21.4239 O   0  0  0  0  0  0
  -22.3515  -14.5517   20.6630 O   0  0  0  0  0  0
  -24.6062  -31.8675   23.2120 C   0  0  0  0  0  0
  -25.8982  -32.4842   23.8373 C   0  0  1  0  0  0
  -27.2294  -27.4708   20.0829 C   0  0  0  0  0  0
  -25.5852  -33.8661   24.2316 N   0  0  0  0  0  0
  -23.3913  -30.4948   21.5507 C   0  0  2  0  0  0
  -24.8306  -28.9640   20.1132 C   0  0  0  0  0  0
  -22.7369  -29.4677   22.5023 C   0  0  0  0  0  0
  -18.0259  -28.1374   22.8560 C   0  0  0  0  0  0
  -24.1449  -36.7310   23.2653 C   0  0  0  0  0  0
  -25.9161  -30.8472   21.3527 C   0  0  0  0  0  0
  -25.9879  -29.4852   20.7027 C   0  0  0  0  0  0
  -27.1853  -28.7454   20.6822 C   0  0  0  0  0  0
  -26.0490  -26.9484   19.4973 C   0  0  0  0  0  0
  -24.8527  -27.6935   19.5112 C   0  0  0  0  0  0
  -23.5944  -29.8300   20.1642 C   0  0  0  0  0  0
  -25.4074  -36.3112   24.0341 C   0  0  1  0  0  0
  -20.5836  -28.3647   23.1379 C   0  0  2  0  0  0
  -20.6745  -26.9397   22.5460 C   0  0  0  0  0  0
  -19.5718  -26.6387   21.5274 C   0  0  0  0  0  0
  -18.1885  -26.7944   22.1656 C   0  0  0  0  0  0
  -19.1497  -28.8823   23.2966 C   0  0  0  0  0  0
  -18.9448  -30.1443   23.8965 C   0  0  0  0  0  0
  -17.6452  -30.6611   24.0595 C   0  0  0  0  0  0
  -25.9007  -34.9495   23.5120 C   0  0  0  0  0  0
  -16.5340  -29.9137   23.6331 C   0  0  0  0  0  0
  -16.7236  -28.6522   23.0408 C   0  0  0  0  0  0
  -26.4419  -31.6645   25.0728 C   0  0  0  0  0  0
  -25.3782  -31.3802   26.1577 C   0  0  0  0  0  0
  -27.0175  -30.3068   24.6056 C   0  0  0  0  0  0
  -27.5922  -32.4445   25.7503 C   0  0  0  0  0  0
  -27.5545  -37.1791   24.8491 C   0  0  0  0  0  0
  -21.4089  -29.3022   22.3792 N   0  0  0  0  0  0
  -26.4248  -37.3807   23.9448 N   0  0  0  0  0  0
  -24.6586  -31.0846   22.0964 N   0  0  0  0  0  0
  -23.4178  -28.8239   23.3045 O   0  0  0  0  0  0
  -28.4392  -26.8147   20.0990 O   0  0  0  0  0  0
  -26.5606  -34.8964   22.4710 O   0  0  0  0  0  0
  -23.5283  -32.1364   23.7572 O   0  0  0  0  0  0
  -28.2316  -24.3859   20.3651 C   0  0  0  0  0  0
  -28.1778  -22.4453   18.7243 C   0  0  0  0  0  0
  -28.7695  -21.9827   21.1210 C   0  0  0  0  0  0
  -28.9278  -21.1918   18.2628 C   0  0  0  0  0  0
  -29.5381  -20.7093   20.7284 C   0  0  0  0  0  0
  -28.8344  -23.0270   19.9897 C   0  0  2  0  0  0
  -29.0637  -20.1109   19.3755 C   0  0  2  0  0  0
  -29.5698  -16.7225   17.2579 C   0  0  0  0  0  0
  -32.4013  -16.3614   19.3120 C   0  0  0  0  0  0
  -31.6622  -14.7658   17.7071 C   0  0  0  0  0  0
  -31.3543  -19.3777   18.7116 C   0  0  0  0  0  0
  -28.5779  -25.5602   19.4360 C   0  0  0  0  0  0
  -29.7444  -17.6930   19.6531 C   0  0  0  0  0  0
  -29.8757  -16.4155   18.7488 C   0  0  2  0  0  0
  -31.1372  -15.4874   18.9937 C   0  0  0  0  0  0
  -29.9301  -18.9860   18.9141 N   0  3  1  0  0  0
  -27.5144  -24.5230   21.3636 O   0  0  0  0  0  0
  -31.4111  -12.2586   18.9759 H   0  0  0  0  0  0
  -30.2606  -11.3334   19.8749 H   0  0  0  0  0  0
  -29.5877  -11.5260   17.4341 H   0  0  0  0  0  0
  -29.4306  -13.2508   17.5799 H   0  0  0  0  0  0
  -27.7935  -11.2208   18.9630 H   0  0  0  0  0  0
  -27.2495  -12.4286   17.8284 H   0  0  0  0  0  0
  -27.6117  -14.2124   19.3820 H   0  0  0  0  0  0
  -28.8015  -12.2680   21.4268 H   0  0  0  0  0  0
  -28.6348  -14.0037   21.6181 H   0  0  0  0  0  0
  -25.2736   -9.5654   22.4865 H   0  0  0  0  0  0
  -23.9986   -7.4596   22.7466 H   0  0  0  0  0  0
  -21.0871   -8.8810   19.8943 H   0  0  0  0  0  0
  -22.3723  -10.9730   19.6252 H   0  0  0  0  0  0
  -21.1972   -7.6172   23.9727 H   0  0  0  0  0  0
  -21.1446   -6.0549   25.9088 H   0  0  0  0  0  0
  -22.0600   -2.7633   23.2837 H   0  0  0  0  0  0
  -22.3981  -11.9955   22.4894 H   0  0  0  0  0  0
  -21.1034  -13.1305   22.2491 H   0  0  0  0  0  0
  -24.6631  -15.8480   20.5035 H   0  0  0  0  0  0
  -26.2962  -15.6306   20.1262 H   0  0  0  0  0  0
  -26.7081  -32.5527   23.1158 H   0  0  0  0  0  0
  -25.0057  -33.9864   25.0478 H   0  0  0  0  0  0
  -22.6757  -31.3080   21.4170 H   0  0  0  0  0  0
  -23.3715  -35.9640   23.3349 H   0  0  0  0  0  0
  -24.3552  -36.8878   22.2063 H   0  0  0  0  0  0
  -23.7183  -37.6512   23.6666 H   0  0  0  0  0  0
  -26.0303  -31.6134   20.5840 H   0  0  0  0  0  0
  -26.8079  -30.8929   21.9661 H   0  0  0  0  0  0
  -28.0831  -29.1561   21.1220 H   0  0  0  0  0  0
  -26.0178  -25.9731   19.0349 H   0  0  0  0  0  0
  -23.9591  -27.2843   19.0580 H   0  0  0  0  0  0
  -23.7027  -30.6069   19.4075 H   0  0  0  0  0  0
  -22.7192  -29.2508   19.8655 H   0  0  0  0  0  0
  -25.1222  -36.1952   25.0821 H   0  0  0  0  0  0
  -20.9911  -28.3189   24.1499 H   0  0  0  0  0  0
  -20.5696  -26.2244   23.3634 H   0  0  0  0  0  0
  -21.6606  -26.7471   22.1205 H   0  0  0  0  0  0
  -19.6894  -25.6305   21.1286 H   0  0  0  0  0  0
  -19.6684  -27.3226   20.6840 H   0  0  0  0  0  0
  -17.4174  -26.6774   21.4035 H   0  0  0  0  0  0
  -18.0223  -26.0051   22.8998 H   0  0  0  0  0  0
  -19.7924  -30.7245   24.2337 H   0  0  0  0  0  0
  -17.5036  -31.6303   24.5181 H   0  0  0  0  0  0
  -15.5357  -30.3108   23.7600 H   0  0  0  0  0  0
  -15.8620  -28.0872   22.7136 H   0  0  0  0  0  0
  -24.5865  -30.7187   25.8064 H   0  0  0  0  0  0
  -24.9129  -32.3018   26.5084 H   0  0  0  0  0  0
  -25.8248  -30.8995   27.0292 H   0  0  0  0  0  0
  -26.2633  -29.6969   24.1079 H   0  0  0  0  0  0
  -27.3884  -29.7175   25.4439 H   0  0  0  0  0  0
  -27.8528  -30.4382   23.9187 H   0  0  0  0  0  0
  -27.2363  -33.3704   26.2041 H   0  0  0  0  0  0
  -28.3719  -32.7091   25.0364 H   0  0  0  0  0  0
  -28.0610  -31.8681   26.5480 H   0  0  0  0  0  0
  -28.2559  -38.0074   24.7455 H   0  0  0  0  0  0
  -28.0982  -36.2594   24.6320 H   0  0  0  0  0  0
  -27.2312  -37.1444   25.8907 H   0  0  0  0  0  0
  -20.9216  -29.8760   21.7050 H   0  0  0  0  0  0
  -26.0115  -38.2867   24.1481 H   0  0  0  0  0  0
  -27.1326  -22.2023   18.9216 H   0  0  0  0  0  0
  -28.1836  -23.1744   17.9109 H   0  0  0  0  0  0
  -29.1984  -22.3887   22.0389 H   0  0  0  0  0  0
  -27.7278  -21.7439   21.3401 H   0  0  0  0  0  0
  -29.8894  -21.5415   17.8962 H   0  0  0  0  0  0
  -28.4263  -20.7681   17.3901 H   0  0  0  0  0  0
  -29.4275  -19.9682   21.5212 H   0  0  0  0  0  0
  -30.5994  -20.9556   20.6968 H   0  0  0  0  0  0
  -29.8856  -23.2197   19.7732 H   0  0  0  0  0  0
  -28.0518  -19.7257   19.5241 H   0  0  0  0  0  0
  -28.7351  -17.4152   17.1383 H   0  0  0  0  0  0
  -29.2756  -15.8222   16.7205 H   0  0  0  0  0  0
  -30.4362  -17.1395   16.7408 H   0  0  0  0  0  0
  -32.6184  -17.0768   18.5275 H   0  0  0  0  0  0
  -33.3103  -15.7560   19.3695 H   0  0  0  0  0  0
  -32.3539  -16.8913   20.2628 H   0  0  0  0  0  0
  -32.2729  -15.4223   17.0846 H   0  0  0  0  0  0
  -30.9102  -14.4158   17.0173 H   0  0  0  0  0  0
  -32.3104  -13.9255   17.9496 H   0  0  0  0  0  0
  -31.4985  -20.4339   18.5045 H   0  0  0  0  0  0
  -31.7656  -18.8680   17.8455 H   0  0  0  0  0  0
  -31.9631  -19.1669   19.5893 H   0  0  0  0  0  0
  -28.0016  -25.5186   18.5133 H   0  0  0  0  0  0
  -29.6227  -25.4647   19.1429 H   0  0  0  0  0  0
  -30.3818  -17.6512   20.5344 H   0  0  0  0  0  0
  -28.7394  -17.6857   20.0749 H   0  0  0  0  0  0
  -29.0263  -15.8137   19.0675 H   0  0  0  0  0  0
  -29.5697  -18.7722   17.9964 H   0  0  0  0  0  0
  1 25  1  0  0  0
  1 30  2  0  0  0
  1 85  1  0  0  0
  2  3  1  0  0  0
  2 25  1  0  0  0
  2 88  1  0  0  0
  2 89  1  0  0  0
  3  4  1  0  0  0
  3 90  1  0  0  0
  3 91  1  0  0  0
  4  5  1  0  0  0
  4 92  1  0  0  0
  4 93  1  0  0  0
  5  6  1  0  0  0
  5 26  1  0  0  0
  5 94  1  0  0  0
  6 25  1  0  0  0
  6 95  1  0  0  0
  6 96  1  0  0  0
  7  8  2  0  0  0
  7 26  1  0  0  0
  7 29  1  0  0  0
  8  9  1  0  0  0
  8 22  1  0  0  0
  9 10  1  0  0  0
  9 27  2  0  0  0
 10 11  2  0  0  0
 10 15  1  0  0  0
 11 12  1  0  0  0
 11 97  1  0  0  0
 12 13  2  0  0  0
 12 98  1  0  0  0
 13 14  1  0  0  0
 13 31  1  0  0  0
 14 15  2  0  0  0
 14 99  1  0  0  0
 15100  1  0  0  0
 16 17  2  0  0  0
 16 21  1  0  0  0
 16 31  1  0  0  0
 17 18  1  0  0  0
 17101  1  0  0  0
 18 19  2  0  0  0
 18102  1  0  0  0
 19 20  1  0  0  0
 19 24  1  0  0  0
 20 21  2  0  0  0
 20103  1  0  0  0
 21 23  1  0  0  0
 22 28  1  0  0  0
 22 32  2  0  0  0
 26 27  1  0  0  0
 28104  1  0  0  0
 28105  1  0  0  0
 29106  1  0  0  0
 29107  1  0  0  0
 33 34  1  0  0  0
 33 66  1  0  0  0
 33 70  2  0  0  0
 34 36  1  0  0  0
 34 59  1  0  0  0
 34108  1  0  0  0
 35 44  2  0  0  0
 35 45  1  0  0  0
 35 68  1  0  0  0
 36 56  1  0  0  0
 36109  1  0  0  0
 37 39  1  0  0  0
 37 47  1  0  0  0
 37 66  1  0  0  0
 37110  1  0  0  0
 38 43  2  0  0  0
 38 46  1  0  0  0
 38 47  1  0  0  0
 39 64  1  0  0  0
 39 67  2  0  0  0
 40 52  1  0  0  0
 40 53  2  0  0  0
 40 58  1  0  0  0
 41111  1  0  0  0
 41112  1  0  0  0
 41113  1  0  0  0
 41 48  1  0  0  0
 42 43  1  0  0  0
 42 66  1  0  0  0
 42114  1  0  0  0
 42115  1  0  0  0
 43 44  1  0  0  0
 44116  1  0  0  0
 45 46  2  0  0  0
 45117  1  0  0  0
 46118  1  0  0  0
 47119  1  0  0  0
 47120  1  0  0  0
 48 56  1  0  0  0
 48 65  1  0  0  0
 48121  1  0  0  0
 49 50  1  0  0  0
 49 53  1  0  0  0
 49 64  1  0  0  0
 49122  1  0  0  0
 50 51  1  0  0  0
 50123  1  0  0  0
 50124  1  0  0  0
 51 52  1  0  0  0
 51125  1  0  0  0
 51126  1  0  0  0
 52127  1  0  0  0
 52128  1  0  0  0
 53 54  1  0  0  0
 54 55  2  0  0  0
 54129  1  0  0  0
 55 57  1  0  0  0
 55130  1  0  0  0
 56 69  2  0  0  0
 57 58  2  0  0  0
 57131  1  0  0  0
 58132  1  0  0  0
 59 60  1  0  0  0
 59 61  1  0  0  0
 59 62  1  0  0  0
 60133  1  0  0  0
 60134  1  0  0  0
 60135  1  0  0  0
 61136  1  0  0  0
 61137  1  0  0  0
 61138  1  0  0  0
 62139  1  0  0  0
 62140  1  0  0  0
 62141  1  0  0  0
 63 65  1  0  0  0
 63142  1  0  0  0
 63143  1  0  0  0
 63144  1  0  0  0
 64145  1  0  0  0
 65146  1  0  0  0
 68 82  1  0  0  0
 71 82  1  0  0  0
 71 87  2  0  0  0
 71 76  1  0  0  0
 72 74  1  0  0  0
 72 76  1  0  0  0
 72147  1  0  0  0
 72148  1  0  0  0
 73 75  1  0  0  0
 73 76  1  0  0  0
 73149  1  0  0  0
 73150  1  0  0  0
 74151  1  0  0  0
 74152  1  0  0  0
 74 77  1  0  0  0
 75 77  1  0  0  0
 75153  1  0  0  0
 75154  1  0  0  0
 76155  1  0  0  0
 77 86  1  0  0  0
 77156  1  0  0  0
 78157  1  0  0  0
 78158  1  0  0  0
 78159  1  0  0  0
 78 84  1  0  0  0
 79160  1  0  0  0
 79161  1  0  0  0
 79162  1  0  0  0
 79 85  1  0  0  0
 80 85  1  0  0  0
 80163  1  0  0  0
 80164  1  0  0  0
 80165  1  0  0  0
 81166  1  0  0  0
 81167  1  0  0  0
 81168  1  0  0  0
 81 86  1  0  0  0
 82169  1  0  0  0
 82170  1  0  0  0
 83 84  1  0  0  0
 83 86  1  0  0  0
 83171  1  0  0  0
 83172  1  0  0  0
 84 85  1  0  0  0
 84173  1  0  0  0
 86174  1  0  0  0
M  CHG  1  86   1
M  ISO  4   1 100  68 101  82 101  85 100
M  END
> <chiral flag>
0

> <version>
0

> <s_m_source_file>
/data/baiqing/PycharmProjects/Reinvent-master-3.2/result/LINK_invent/BTK/process_docking_weight1_custom_sum_contain_oxygen_bond_distance_aromatic_linkinvent_7_9_3/rearranged_h_0047.sdf

> <i_m_source_file_index>
81

> <r_mmod_Potential_Energy-OPLS-2005>
329.634765625

> <r_mmod_Stretch_Energy-OPLS-2005>
53.4502830505371

> <r_mmod_Bend_Energy-OPLS-2005>
161.152877807617

> <r_mmod_Torsional_Energy-OPLS-2005>
334.196685791016

> <r_mmod_Improper_Torsional_Energy-OPLS-2005>
15.8402347564697

> <r_mmod_Van_der_Waal_Energy-OPLS-2005>
177.621810913086

> <r_mmod_Electrostatic_Energy-OPLS-2005>
-113.526245117188

> <r_mmod_Solvation_Energy-OPLS-2005>
-444.605163574219

> <b_mmod_Minimization_Converged-OPLS-2005>
0

> <r_mmod_RMS_Derivative-OPLS-2005>
5.01494169235229

$$$$
81
                    3D
 Structure written by MMmdl.
156164  0  0  1  0            999 V2000
  -30.6756  -14.5322   20.5328 C   0  0  0  0  0  0
  -30.4201  -12.3326   19.4425 C   0  0  0  0  0  0
  -29.4993  -12.5066   18.2170 C   0  0  0  0  0  0
  -28.0201  -12.3599   18.6252 C   0  0  0  0  0  0
  -27.6549  -13.2147   19.8694 C   0  0  2  0  0  0
  -28.6955  -13.0353   20.9983 C   0  0  0  0  0  0
  -25.2558  -13.8168   20.5675 C   0  0  0  0  0  0
  -24.1826  -13.0430   20.9185 C   0  0  0  0  0  0
  -24.6396  -11.6902   20.8742 C   0  0  0  0  0  0
  -23.9070  -10.4287   21.0409 C   0  0  0  0  0  0
  -24.3618   -9.4200   21.9187 C   0  0  0  0  0  0
  -23.6286   -8.2239   22.0752 C   0  0  0  0  0  0
  -22.4265   -8.0286   21.3548 C   0  0  0  0  0  0
  -21.9909   -9.0262   20.4651 C   0  0  0  0  0  0
  -22.7244  -10.2136   20.3059 C   0  0  0  0  0  0
  -21.6851   -6.0732   22.5282 C   0  0  0  0  0  0
  -21.4015   -6.5634   23.8218 C   0  0  0  0  0  0
  -21.3660   -5.6789   24.9181 C   0  0  0  0  0  0
  -21.6049   -4.3051   24.7233 C   0  0  0  0  0  0
  -21.8817   -3.8142   23.4352 C   0  0  0  0  0  0
  -21.9188   -4.6958   22.3407 C   0  0  0  0  0  0
  -22.7850  -13.5225   21.1850 C   0  0  0  0  0  0
  -22.1656   -4.2142   21.0983 F   0  0  0  0  0  0
  -21.5630   -3.4535   25.7745 F   0  0  0  0  0  0
  -30.0198  -13.3413   20.4389 N   0  0  0  0  0  0
  -26.2992  -12.9351   20.3338 N   0  0  0  0  0  0
  -25.9325  -11.6504   20.5766 N   0  0  0  0  0  0
  -22.0487  -12.8229   22.0415 N   0  0  0  0  0  0
  -25.4268  -15.1888   20.4066 N   0  0  0  0  0  0
  -31.8302  -14.6806   20.1226 O   0  0  0  0  0  0
  -21.6634   -6.8878   21.4245 O   0  0  0  0  0  0
  -22.3541  -14.5532   20.6695 O   0  0  0  0  0  0
  -24.6194  -31.8647   23.2066 C   0  0  0  0  0  0
  -25.9072  -32.4799   23.8370 C   0  0  1  0  0  0
  -27.2310  -27.3817   20.1060 C   0  0  0  0  0  0
  -25.5922  -33.8607   24.2299 N   0  0  0  0  0  0
  -23.4082  -30.4872   21.5493 C   0  0  2  0  0  0
  -24.8520  -28.9448   20.1164 C   0  0  0  0  0  0
  -22.7431  -29.4638   22.4983 C   0  0  0  0  0  0
  -18.0274  -28.1379   22.8485 C   0  0  0  0  0  0
  -24.1487  -36.7305   23.2638 C   0  0  0  0  0  0
  -25.9418  -30.8148   21.3655 C   0  0  0  0  0  0
  -26.0156  -29.4453   20.7109 C   0  0  0  0  0  0
  -27.2048  -28.6738   20.6963 C   0  0  0  0  0  0
  -26.0394  -26.9027   19.5140 C   0  0  0  0  0  0
  -24.8617  -27.6751   19.5151 C   0  0  0  0  0  0
  -23.6179  -29.8194   20.1641 C   0  0  0  0  0  0
  -25.4110  -36.3098   24.0331 C   0  0  1  0  0  0
  -20.5868  -28.3665   23.1315 C   0  0  2  0  0  0
  -20.6767  -26.9399   22.5416 C   0  0  0  0  0  0
  -19.5745  -26.6382   21.5217 C   0  0  0  0  0  0
  -18.1923  -26.7921   22.1626 C   0  0  0  0  0  0
  -19.1526  -28.8840   23.2891 C   0  0  0  0  0  0
  -18.9453  -30.1450   23.8892 C   0  0  0  0  0  0
  -17.6455  -30.6582   24.0565 C   0  0  0  0  0  0
  -25.9047  -34.9466   23.5109 C   0  0  0  0  0  0
  -16.5345  -29.9083   23.6332 C   0  0  0  0  0  0
  -16.7264  -28.6506   23.0341 C   0  0  0  0  0  0
  -26.4478  -31.6598   25.0725 C   0  0  0  0  0  0
  -25.3731  -31.3723   26.1469 C   0  0  0  0  0  0
  -27.0312  -30.3029   24.6139 C   0  0  0  0  0  0
  -27.6044  -32.4326   25.7492 C   0  0  0  0  0  0
  -27.5574  -37.1810   24.8466 C   0  0  0  0  0  0
  -21.4157  -29.3024   22.3720 N   0  0  0  0  0  0
  -26.4290  -37.3789   23.9405 N   0  0  0  0  0  0
  -24.6750  -31.0708   22.0983 N   0  0  0  0  0  0
  -23.4186  -28.8186   23.3044 O   0  0  0  0  0  0
  -28.4117  -26.6479   20.1312 O   0  0  0  0  0  0
  -26.5610  -34.8925   22.4673 O   0  0  0  0  0  0
  -23.5377  -32.1421   23.7438 O   0  0  0  0  0  0
  -27.1053  -22.0249   19.7645 C   0  0  0  0  0  0
  -28.1205  -22.7373   20.4576 C   0  0  0  0  0  0
  -27.5605  -20.7376   19.6551 C   0  0  0  0  0  0
  -26.9124  -19.5864   18.9591 C   0  0  0  0  0  0
  -28.0964  -24.2209   20.8605 C   0  0  0  0  0  0
  -29.2481  -18.1061   20.7651 C   0  0  0  0  0  0
  -29.7646  -19.5474   20.3976 C   0  0  0  0  0  0
  -30.3787  -17.0211   20.7814 C   0  0  0  0  0  0
  -28.4601  -25.2459   19.7392 C   0  0  0  0  0  0
  -29.1296  -21.9102   20.7651 N   0  0  0  0  0  0
  -28.7857  -20.6638   20.3064 N   0  0  0  0  0  0
  -29.9369  -15.6064   20.9073 N   0  0  0  0  0  0
  -31.4666  -12.4268   19.1475 H   0  0  0  0  0  0
  -30.3186  -11.3297   19.8601 H   0  0  0  0  0  0
  -29.7503  -11.7737   17.4494 H   0  0  0  0  0  0
  -29.6626  -13.4886   17.7698 H   0  0  0  0  0  0
  -27.8400  -11.3047   18.8352 H   0  0  0  0  0  0
  -27.3696  -12.6173   17.7881 H   0  0  0  0  0  0
  -27.6858  -14.2568   19.5501 H   0  0  0  0  0  0
  -28.6812  -12.0100   21.3721 H   0  0  0  0  0  0
  -28.4580  -13.6681   21.8546 H   0  0  0  0  0  0
  -25.2760   -9.5662   22.4768 H   0  0  0  0  0  0
  -23.9987   -7.4621   22.7466 H   0  0  0  0  0  0
  -21.0840   -8.8791   19.8958 H   0  0  0  0  0  0
  -22.3711  -10.9677   19.6170 H   0  0  0  0  0  0
  -21.2015   -7.6144   23.9722 H   0  0  0  0  0  0
  -21.1486   -6.0519   25.9085 H   0  0  0  0  0  0
  -22.0597   -2.7603   23.2858 H   0  0  0  0  0  0
  -22.4083  -11.9880   22.4804 H   0  0  0  0  0  0
  -21.1118  -13.1283   22.2640 H   0  0  0  0  0  0
  -24.6566  -15.8409   20.5063 H   0  0  0  0  0  0
  -26.2777  -15.6279   20.0794 H   0  0  0  0  0  0
  -26.7143  -32.5475   23.1126 H   0  0  0  0  0  0
  -25.0079  -33.9767   25.0448 H   0  0  0  0  0  0
  -22.6982  -31.3052   21.4087 H   0  0  0  0  0  0
  -23.3742  -35.9647   23.3315 H   0  0  0  0  0  0
  -24.3570  -36.8907   22.2047 H   0  0  0  0  0  0
  -23.7251  -37.6518   23.6648 H   0  0  0  0  0  0
  -26.0642  -31.5799   20.5977 H   0  0  0  0  0  0
  -26.8268  -30.8643   21.9882 H   0  0  0  0  0  0
  -28.1044  -29.0620   21.1534 H   0  0  0  0  0  0
  -25.9857  -25.9295   19.0518 H   0  0  0  0  0  0
  -23.9641  -27.2794   19.0603 H   0  0  0  0  0  0
  -23.7339  -30.5955   19.4070 H   0  0  0  0  0  0
  -22.7382  -29.2473   19.8635 H   0  0  0  0  0  0
  -25.1287  -36.1956   25.0824 H   0  0  0  0  0  0
  -20.9953  -28.3233   24.1441 H   0  0  0  0  0  0
  -20.5685  -26.2270   23.3604 H   0  0  0  0  0  0
  -21.6635  -26.7450   22.1199 H   0  0  0  0  0  0
  -19.6910  -25.6299   21.1234 H   0  0  0  0  0  0
  -19.6685  -27.3203   20.6755 H   0  0  0  0  0  0
  -17.4193  -26.6668   21.4025 H   0  0  0  0  0  0
  -18.0320  -26.0067   22.9022 H   0  0  0  0  0  0
  -19.7933  -30.7271   24.2247 H   0  0  0  0  0  0
  -17.5013  -31.6262   24.5168 H   0  0  0  0  0  0
  -15.5348  -30.2984   23.7664 H   0  0  0  0  0  0
  -15.8662  -28.0837   22.7042 H   0  0  0  0  0  0
  -24.5907  -30.7064   25.7808 H   0  0  0  0  0  0
  -24.8922  -32.2885   26.4905 H   0  0  0  0  0  0
  -25.8081  -30.8902   27.0232 H   0  0  0  0  0  0
  -26.2873  -29.6799   24.1160 H   0  0  0  0  0  0
  -27.4019  -29.7263   25.4619 H   0  0  0  0  0  0
  -27.8733  -30.4317   23.9339 H   0  0  0  0  0  0
  -27.2656  -33.3614   26.2086 H   0  0  0  0  0  0
  -28.3852  -32.6903   25.0326 H   0  0  0  0  0  0
  -28.0719  -31.8444   26.5397 H   0  0  0  0  0  0
  -28.2606  -38.0093   24.7499 H   0  0  0  0  0  0
  -28.1055  -36.2626   24.6308 H   0  0  0  0  0  0
  -27.2291  -37.1479   25.8870 H   0  0  0  0  0  0
  -20.9330  -29.8737   21.6925 H   0  0  0  0  0  0
  -26.0173  -38.2865   24.1404 H   0  0  0  0  0  0
  -26.1703  -22.4135   19.3841 H   0  0  0  0  0  0
  -26.4933  -18.8824   19.6776 H   0  0  0  0  0  0
  -27.6218  -19.0570   18.3233 H   0  0  0  0  0  0
  -26.0972  -19.9284   18.3219 H   0  0  0  0  0  0
  -28.7631  -24.3802   21.7082 H   0  0  0  0  0  0
  -27.1016  -24.4635   21.2343 H   0  0  0  0  0  0
  -28.5001  -17.7823   20.0465 H   0  0  0  0  0  0
  -28.7494  -18.1335   21.7347 H   0  0  0  0  0  0
  -30.2688  -19.4967   19.4320 H   0  0  0  0  0  0
  -30.5343  -19.8311   21.1170 H   0  0  0  0  0  0
  -30.9509  -17.1190   19.8568 H   0  0  0  0  0  0
  -31.0786  -17.2357   21.5906 H   0  0  0  0  0  0
  -27.8825  -25.0576   18.8358 H   0  0  0  0  0  0
  -29.4898  -25.0503   19.4403 H   0  0  0  0  0  0
  -28.9936  -15.4290   21.2192 H   0  0  0  0  0  0
  1 25  1  0  0  0
  1 30  2  0  0  0
  1 82  1  0  0  0
  2  3  1  0  0  0
  2 25  1  0  0  0
  2 83  1  0  0  0
  2 84  1  0  0  0
  3  4  1  0  0  0
  3 85  1  0  0  0
  3 86  1  0  0  0
  4  5  1  0  0  0
  4 87  1  0  0  0
  4 88  1  0  0  0
  5  6  1  0  0  0
  5 26  1  0  0  0
  5 89  1  0  0  0
  6 25  1  0  0  0
  6 90  1  0  0  0
  6 91  1  0  0  0
  7  8  2  0  0  0
  7 26  1  0  0  0
  7 29  1  0  0  0
  8  9  1  0  0  0
  8 22  1  0  0  0
  9 10  1  0  0  0
  9 27  2  0  0  0
 10 11  2  0  0  0
 10 15  1  0  0  0
 11 12  1  0  0  0
 11 92  1  0  0  0
 12 13  2  0  0  0
 12 93  1  0  0  0
 13 14  1  0  0  0
 13 31  1  0  0  0
 14 15  2  0  0  0
 14 94  1  0  0  0
 15 95  1  0  0  0
 16 17  2  0  0  0
 16 21  1  0  0  0
 16 31  1  0  0  0
 17 18  1  0  0  0
 17 96  1  0  0  0
 18 19  2  0  0  0
 18 97  1  0  0  0
 19 20  1  0  0  0
 19 24  1  0  0  0
 20 21  2  0  0  0
 20 98  1  0  0  0
 21 23  1  0  0  0
 22 28  1  0  0  0
 22 32  2  0  0  0
 26 27  1  0  0  0
 28 99  1  0  0  0
 28100  1  0  0  0
 29101  1  0  0  0
 29102  1  0  0  0
 33 34  1  0  0  0
 33 66  1  0  0  0
 33 70  2  0  0  0
 34 36  1  0  0  0
 34 59  1  0  0  0
 34103  1  0  0  0
 35 44  2  0  0  0
 35 45  1  0  0  0
 35 68  1  0  0  0
 36 56  1  0  0  0
 36104  1  0  0  0
 37 39  1  0  0  0
 37 47  1  0  0  0
 37 66  1  0  0  0
 37105  1  0  0  0
 38 43  2  0  0  0
 38 46  1  0  0  0
 38 47  1  0  0  0
 39 64  1  0  0  0
 39 67  2  0  0  0
 40 52  1  0  0  0
 40 53  2  0  0  0
 40 58  1  0  0  0
 41106  1  0  0  0
 41107  1  0  0  0
 41108  1  0  0  0
 41 48  1  0  0  0
 42 43  1  0  0  0
 42 66  1  0  0  0
 42109  1  0  0  0
 42110  1  0  0  0
 43 44  1  0  0  0
 44111  1  0  0  0
 45 46  2  0  0  0
 45112  1  0  0  0
 46113  1  0  0  0
 47114  1  0  0  0
 47115  1  0  0  0
 48 56  1  0  0  0
 48 65  1  0  0  0
 48116  1  0  0  0
 49 50  1  0  0  0
 49 53  1  0  0  0
 49 64  1  0  0  0
 49117  1  0  0  0
 50 51  1  0  0  0
 50118  1  0  0  0
 50119  1  0  0  0
 51 52  1  0  0  0
 51120  1  0  0  0
 51121  1  0  0  0
 52122  1  0  0  0
 52123  1  0  0  0
 53 54  1  0  0  0
 54 55  2  0  0  0
 54124  1  0  0  0
 55 57  1  0  0  0
 55125  1  0  0  0
 56 69  2  0  0  0
 57 58  2  0  0  0
 57126  1  0  0  0
 58127  1  0  0  0
 59 60  1  0  0  0
 59 61  1  0  0  0
 59 62  1  0  0  0
 60128  1  0  0  0
 60129  1  0  0  0
 60130  1  0  0  0
 61131  1  0  0  0
 61132  1  0  0  0
 61133  1  0  0  0
 62134  1  0  0  0
 62135  1  0  0  0
 62136  1  0  0  0
 63 65  1  0  0  0
 63137  1  0  0  0
 63138  1  0  0  0
 63139  1  0  0  0
 64140  1  0  0  0
 65141  1  0  0  0
 68 79  1  0  0  0
 71 72  1  0  0  0
 71 73  2  0  0  0
 71142  1  0  0  0
 72 75  1  0  0  0
 72 80  2  0  0  0
 73 74  1  0  0  0
 73 81  1  0  0  0
 74143  1  0  0  0
 74144  1  0  0  0
 74145  1  0  0  0
 75 79  1  0  0  0
 75146  1  0  0  0
 75147  1  0  0  0
 76 77  1  0  0  0
 76 78  1  0  0  0
 76148  1  0  0  0
 76149  1  0  0  0
 77 81  1  0  0  0
 77150  1  0  0  0
 77151  1  0  0  0
 78 82  1  0  0  0
 78152  1  0  0  0
 78153  1  0  0  0
 79154  1  0  0  0
 79155  1  0  0  0
 80 81  1  0  0  0
 82156  1  0  0  0
M  ISO  4   1 100  68 101  79 101  82 100
M  END
> <chiral flag>
0

> <version>
0

> <s_m_source_file>
/data/baiqing/PycharmProjects/Reinvent-master-3.2/result/LINK_invent/BTK/process_docking_weight1_custom_sum_contain_oxygen_bond_distance_aromatic_linkinvent_7_9_3/rearranged_h_0047.sdf

> <i_m_source_file_index>
82

> <r_mmod_Potential_Energy-OPLS-2005>
-106.817260742188

> <r_mmod_Stretch_Energy-OPLS-2005>
49.4783935546875

> <r_mmod_Bend_Energy-OPLS-2005>
116.258293151855

> <r_mmod_Torsional_Energy-OPLS-2005>
195.124618530273

> <r_mmod_Improper_Torsional_Energy-OPLS-2005>
5.17926788330078

> <r_mmod_Van_der_Waal_Energy-OPLS-2005>
122.278900146484

> <r_mmod_Electrostatic_Energy-OPLS-2005>
-392.471801757812

> <r_mmod_Solvation_Energy-OPLS-2005>
-224.892593383789

> <b_mmod_Minimization_Converged-OPLS-2005>
0

> <r_mmod_RMS_Derivative-OPLS-2005>
1.01428878307343

$$$$
82
                    3D
 Structure written by MMmdl.
149157  0  0  1  0            999 V2000
  -30.5754  -14.8646   20.4309 C   0  0  0  0  0  0
  -30.4375  -12.5295   19.4903 C   0  0  0  0  0  0
  -29.5188  -12.5174   18.2473 C   0  0  0  0  0  0
  -28.0467  -12.3234   18.6601 C   0  0  0  0  0  0
  -27.6349  -13.2421   19.8417 C   0  0  2  0  0  0
  -28.6789  -13.2333   20.9792 C   0  0  0  0  0  0
  -25.2482  -13.8212   20.5697 C   0  0  0  0  0  0
  -24.1793  -13.0445   20.9223 C   0  0  0  0  0  0
  -24.6398  -11.6925   20.8748 C   0  0  0  0  0  0
  -23.9080  -10.4299   21.0400 C   0  0  0  0  0  0
  -24.3628   -9.4214   21.9180 C   0  0  0  0  0  0
  -23.6302   -8.2250   22.0753 C   0  0  0  0  0  0
  -22.4283   -8.0285   21.3544 C   0  0  0  0  0  0
  -21.9916   -9.0260   20.4647 C   0  0  0  0  0  0
  -22.7247  -10.2138   20.3055 C   0  0  0  0  0  0
  -21.6860   -6.0737   22.5280 C   0  0  0  0  0  0
  -21.4018   -6.5637   23.8212 C   0  0  0  0  0  0
  -21.3663   -5.6789   24.9175 C   0  0  0  0  0  0
  -21.6048   -4.3054   24.7222 C   0  0  0  0  0  0
  -21.8817   -3.8146   23.4342 C   0  0  0  0  0  0
  -21.9194   -4.6966   22.3400 C   0  0  0  0  0  0
  -22.7813  -13.5216   21.1877 C   0  0  0  0  0  0
  -22.1662   -4.2148   21.0978 F   0  0  0  0  0  0
  -21.5630   -3.4537   25.7735 F   0  0  0  0  0  0
  -29.9666  -13.6183   20.3871 N   0  0  0  0  0  0
  -26.2910  -12.9435   20.3245 N   0  0  0  0  0  0
  -25.9328  -11.6567   20.5730 N   0  0  0  0  0  0
  -22.0463  -12.8214   22.0438 N   0  0  0  0  0  0
  -25.4144  -15.1943   20.4101 N   0  0  0  0  0  0
  -31.7731  -14.9417   20.1425 O   0  0  0  0  0  0
  -21.6648   -6.8881   21.4242 O   0  0  0  0  0  0
  -22.3488  -14.5511   20.6706 O   0  0  0  0  0  0
  -24.6412  -31.8478   23.1935 C   0  0  0  0  0  0
  -25.9196  -32.4715   23.8309 C   0  0  1  0  0  0
  -27.2117  -27.1711   20.1445 C   0  0  0  0  0  0
  -25.5955  -33.8519   24.2218 N   0  0  0  0  0  0
  -23.4427  -30.4710   21.5381 C   0  0  2  0  0  0
  -24.8923  -28.9086   20.1105 C   0  0  0  0  0  0
  -22.7556  -29.4572   22.4870 C   0  0  0  0  0  0
  -18.0301  -28.1393   22.8481 C   0  0  0  0  0  0
  -24.1487  -36.7260   23.2644 C   0  0  0  0  0  0
  -25.9981  -30.7303   21.3921 C   0  0  0  0  0  0
  -26.0690  -29.3464   20.7326 C   0  0  0  0  0  0
  -27.2327  -28.4926   20.7375 C   0  0  0  0  0  0
  -26.0197  -26.8445   19.4594 C   0  0  0  0  0  0
  -24.8788  -27.6691   19.4582 C   0  0  0  0  0  0
  -23.6683  -29.8069   20.1552 C   0  0  0  0  0  0
  -25.4119  -36.3043   24.0320 C   0  0  1  0  0  0
  -20.5912  -28.3719   23.1235 C   0  0  2  0  0  0
  -20.6785  -26.9424   22.5400 C   0  0  0  0  0  0
  -19.5759  -26.6382   21.5209 C   0  0  0  0  0  0
  -18.1941  -26.7932   22.1626 C   0  0  0  0  0  0
  -19.1557  -28.8875   23.2851 C   0  0  0  0  0  0
  -18.9479  -30.1471   23.8877 C   0  0  0  0  0  0
  -17.6476  -30.6591   24.0560 C   0  0  0  0  0  0
  -25.9069  -34.9416   23.5073 C   0  0  0  0  0  0
  -16.5366  -29.9084   23.6337 C   0  0  0  0  0  0
  -16.7287  -28.6502   23.0361 C   0  0  0  0  0  0
  -26.4528  -31.6576   25.0739 C   0  0  0  0  0  0
  -25.3721  -31.3759   26.1440 C   0  0  0  0  0  0
  -27.0398  -30.2975   24.6317 C   0  0  0  0  0  0
  -27.6059  -32.4346   25.7521 C   0  0  0  0  0  0
  -27.5571  -37.1793   24.8470 C   0  0  0  0  0  0
  -21.4251  -29.3050   22.3614 N   0  0  0  0  0  0
  -26.4286  -37.3752   23.9410 N   0  0  0  0  0  0
  -24.7133  -31.0365   22.0960 N   0  0  0  0  0  0
  -23.4215  -28.8104   23.2999 O   0  0  0  0  0  0
  -28.2429  -26.1726   20.1945 O   0  0  0  0  0  0
  -26.5646  -34.8906   22.4645 O   0  0  0  0  0  0
  -23.5539  -32.1342   23.7168 O   0  0  0  0  0  0
  -29.4403  -21.1895   21.5327 C   0  0  0  0  0  0
  -29.1978  -22.6150   21.5299 C   0  0  0  0  0  0
  -28.5738  -21.1309   19.3512 C   0  0  0  0  0  0
  -29.0943  -20.3464   20.4327 C   0  0  0  0  0  0
  -28.5967  -23.3064   20.4312 C   0  0  0  0  0  0
  -28.9743  -18.7115   20.5031 C   0  0  0  0  0  0
  -27.8177  -24.7428   20.5908 C   0  0  0  0  0  0
  -30.1557  -17.5516   20.4579 C   0  0  0  0  0  0
  -28.3316  -22.4999   19.3505 N   0  0  0  0  0  0
  -29.8014  -16.0309   20.5864 N   0  0  0  0  0  0
  -31.4755  -12.6692   19.1833 H   0  0  0  0  0  0
  -30.4067  -11.5677   20.0048 H   0  0  0  0  0  0
  -29.8217  -11.7267   17.5593 H   0  0  0  0  0  0
  -29.6273  -13.4566   17.7023 H   0  0  0  0  0  0
  -27.9221  -11.2787   18.9460 H   0  0  0  0  0  0
  -27.3888  -12.4851   17.8048 H   0  0  0  0  0  0
  -27.6103  -14.2531   19.4338 H   0  0  0  0  0  0
  -28.7445  -12.2488   21.4452 H   0  0  0  0  0  0
  -28.3926  -13.9305   21.7688 H   0  0  0  0  0  0
  -25.2771   -9.5693   22.4753 H   0  0  0  0  0  0
  -24.0016   -7.4642   22.7471 H   0  0  0  0  0  0
  -21.0850   -8.8775   19.8950 H   0  0  0  0  0  0
  -22.3703  -10.9676   19.6164 H   0  0  0  0  0  0
  -21.2011   -7.6146   23.9715 H   0  0  0  0  0  0
  -21.1489   -6.0520   25.9078 H   0  0  0  0  0  0
  -22.0593   -2.7608   23.2841 H   0  0  0  0  0  0
  -22.4082  -11.9885   22.4843 H   0  0  0  0  0  0
  -21.1072  -13.1222   22.2622 H   0  0  0  0  0  0
  -24.6410  -15.8420   20.5152 H   0  0  0  0  0  0
  -26.2501  -15.6349   20.0481 H   0  0  0  0  0  0
  -26.7260  -32.5334   23.1041 H   0  0  0  0  0  0
  -25.0102  -33.9642   25.0367 H   0  0  0  0  0  0
  -22.7444  -31.2969   21.3884 H   0  0  0  0  0  0
  -23.3751  -35.9593   23.3311 H   0  0  0  0  0  0
  -24.3571  -36.8885   22.2058 H   0  0  0  0  0  0
  -23.7245  -37.6462   23.6671 H   0  0  0  0  0  0
  -26.1545  -31.4882   20.6226 H   0  0  0  0  0  0
  -26.8684  -30.7763   22.0351 H   0  0  0  0  0  0
  -28.1269  -28.8206   21.2493 H   0  0  0  0  0  0
  -25.9404  -25.9155   18.9149 H   0  0  0  0  0  0
  -23.9875  -27.3371   18.9433 H   0  0  0  0  0  0
  -23.8044  -30.5849   19.4033 H   0  0  0  0  0  0
  -22.7838  -29.2492   19.8422 H   0  0  0  0  0  0
  -25.1307  -36.1877   25.0813 H   0  0  0  0  0  0
  -21.0007  -28.3305   24.1355 H   0  0  0  0  0  0
  -20.5677  -26.2335   23.3619 H   0  0  0  0  0  0
  -21.6652  -26.7430   22.1200 H   0  0  0  0  0  0
  -19.6918  -25.6285   21.1258 H   0  0  0  0  0  0
  -19.6691  -27.3176   20.6723 H   0  0  0  0  0  0
  -17.4207  -26.6676   21.4031 H   0  0  0  0  0  0
  -18.0344  -26.0076   22.9025 H   0  0  0  0  0  0
  -19.7955  -30.7289   24.2243 H   0  0  0  0  0  0
  -17.5029  -31.6270   24.5160 H   0  0  0  0  0  0
  -15.5365  -30.2980   23.7670 H   0  0  0  0  0  0
  -15.8689  -28.0808   22.7095 H   0  0  0  0  0  0
  -24.5897  -30.7105   25.7767 H   0  0  0  0  0  0
  -24.8912  -32.2938   26.4829 H   0  0  0  0  0  0
  -25.8013  -30.8961   27.0244 H   0  0  0  0  0  0
  -26.3017  -29.6699   24.1305 H   0  0  0  0  0  0
  -27.3993  -29.7274   25.4894 H   0  0  0  0  0  0
  -27.8933  -30.4221   23.9650 H   0  0  0  0  0  0
  -27.2647  -33.3661   26.2053 H   0  0  0  0  0  0
  -28.3892  -32.6888   25.0365 H   0  0  0  0  0  0
  -28.0701  -31.8505   26.5480 H   0  0  0  0  0  0
  -28.2598  -38.0080   24.7494 H   0  0  0  0  0  0
  -28.1056  -36.2609   24.6322 H   0  0  0  0  0  0
  -27.2284  -37.1471   25.8872 H   0  0  0  0  0  0
  -20.9454  -29.8780   21.6812 H   0  0  0  0  0  0
  -26.0154  -38.2825   24.1401 H   0  0  0  0  0  0
  -29.8072  -20.7325   22.4406 H   0  0  0  0  0  0
  -29.3748  -23.1645   22.4448 H   0  0  0  0  0  0
  -28.2326  -20.6221   18.4611 H   0  0  0  0  0  0
  -28.2757  -18.4510   19.7071 H   0  0  0  0  0  0
  -28.4082  -18.5242   21.4166 H   0  0  0  0  0  0
  -27.6111  -24.8220   21.6581 H   0  0  0  0  0  0
  -26.8414  -24.5244   20.1675 H   0  0  0  0  0  0
  -30.8773  -17.7701   21.2462 H   0  0  0  0  0  0
  -30.7073  -17.6702   19.5243 H   0  0  0  0  0  0
  -28.8283  -15.8436   20.7771 H   0  0  0  0  0  0
  1 25  1  0  0  0
  1 30  2  0  0  0
  1 80  1  0  0  0
  2  3  1  0  0  0
  2 25  1  0  0  0
  2 81  1  0  0  0
  2 82  1  0  0  0
  3  4  1  0  0  0
  3 83  1  0  0  0
  3 84  1  0  0  0
  4  5  1  0  0  0
  4 85  1  0  0  0
  4 86  1  0  0  0
  5  6  1  0  0  0
  5 26  1  0  0  0
  5 87  1  0  0  0
  6 25  1  0  0  0
  6 88  1  0  0  0
  6 89  1  0  0  0
  7  8  2  0  0  0
  7 26  1  0  0  0
  7 29  1  0  0  0
  8  9  1  0  0  0
  8 22  1  0  0  0
  9 10  1  0  0  0
  9 27  2  0  0  0
 10 11  2  0  0  0
 10 15  1  0  0  0
 11 12  1  0  0  0
 11 90  1  0  0  0
 12 13  2  0  0  0
 12 91  1  0  0  0
 13 14  1  0  0  0
 13 31  1  0  0  0
 14 15  2  0  0  0
 14 92  1  0  0  0
 15 93  1  0  0  0
 16 17  2  0  0  0
 16 21  1  0  0  0
 16 31  1  0  0  0
 17 18  1  0  0  0
 17 94  1  0  0  0
 18 19  2  0  0  0
 18 95  1  0  0  0
 19 20  1  0  0  0
 19 24  1  0  0  0
 20 21  2  0  0  0
 20 96  1  0  0  0
 21 23  1  0  0  0
 22 28  1  0  0  0
 22 32  2  0  0  0
 26 27  1  0  0  0
 28 97  1  0  0  0
 28 98  1  0  0  0
 29 99  1  0  0  0
 29100  1  0  0  0
 33 34  1  0  0  0
 33 66  1  0  0  0
 33 70  2  0  0  0
 34 36  1  0  0  0
 34 59  1  0  0  0
 34101  1  0  0  0
 35 44  2  0  0  0
 35 45  1  0  0  0
 35 68  1  0  0  0
 36 56  1  0  0  0
 36102  1  0  0  0
 37 39  1  0  0  0
 37 47  1  0  0  0
 37 66  1  0  0  0
 37103  1  0  0  0
 38 43  2  0  0  0
 38 46  1  0  0  0
 38 47  1  0  0  0
 39 64  1  0  0  0
 39 67  2  0  0  0
 40 52  1  0  0  0
 40 53  2  0  0  0
 40 58  1  0  0  0
 41104  1  0  0  0
 41105  1  0  0  0
 41106  1  0  0  0
 41 48  1  0  0  0
 42 43  1  0  0  0
 42 66  1  0  0  0
 42107  1  0  0  0
 42108  1  0  0  0
 43 44  1  0  0  0
 44109  1  0  0  0
 45 46  2  0  0  0
 45110  1  0  0  0
 46111  1  0  0  0
 47112  1  0  0  0
 47113  1  0  0  0
 48 56  1  0  0  0
 48 65  1  0  0  0
 48114  1  0  0  0
 49 50  1  0  0  0
 49 53  1  0  0  0
 49 64  1  0  0  0
 49115  1  0  0  0
 50 51  1  0  0  0
 50116  1  0  0  0
 50117  1  0  0  0
 51 52  1  0  0  0
 51118  1  0  0  0
 51119  1  0  0  0
 52120  1  0  0  0
 52121  1  0  0  0
 53 54  1  0  0  0
 54 55  2  0  0  0
 54122  1  0  0  0
 55 57  1  0  0  0
 55123  1  0  0  0
 56 69  2  0  0  0
 57 58  2  0  0  0
 57124  1  0  0  0
 58125  1  0  0  0
 59 60  1  0  0  0
 59 61  1  0  0  0
 59 62  1  0  0  0
 60126  1  0  0  0
 60127  1  0  0  0
 60128  1  0  0  0
 61129  1  0  0  0
 61130  1  0  0  0
 61131  1  0  0  0
 62132  1  0  0  0
 62133  1  0  0  0
 62134  1  0  0  0
 63 65  1  0  0  0
 63135  1  0  0  0
 63136  1  0  0  0
 63137  1  0  0  0
 64138  1  0  0  0
 65139  1  0  0  0
 68 77  1  0  0  0
 71 72  2  0  0  0
 71 74  1  0  0  0
 71140  1  0  0  0
 72 75  1  0  0  0
 72141  1  0  0  0
 73 74  2  0  0  0
 73 79  1  0  0  0
 73142  1  0  0  0
 74 76  1  0  0  0
 75 77  1  0  0  0
 75 79  2  0  0  0
 76 78  1  0  0  0
 76143  1  0  0  0
 76144  1  0  0  0
 77145  1  0  0  0
 77146  1  0  0  0
 78 80  1  0  0  0
 78147  1  0  0  0
 78148  1  0  0  0
 80149  1  0  0  0
M  ISO  4   1 100  68 101  77 101  80 100
M  END
> <chiral flag>
0

> <version>
0

> <s_m_source_file>
/data/baiqing/PycharmProjects/Reinvent-master-3.2/result/LINK_invent/BTK/process_docking_weight1_custom_sum_contain_oxygen_bond_distance_aromatic_linkinvent_7_9_3/rearranged_h_0047.sdf

> <i_m_source_file_index>
83

> <r_mmod_Potential_Energy-OPLS-2005>
226.619781494141

> <r_mmod_Stretch_Energy-OPLS-2005>
191.254257202148

> <r_mmod_Bend_Energy-OPLS-2005>
232.053588867188

> <r_mmod_Torsional_Energy-OPLS-2005>
239.936279296875

> <r_mmod_Improper_Torsional_Energy-OPLS-2005>
10.9201145172119

> <r_mmod_Van_der_Waal_Energy-OPLS-2005>
138.386154174805

> <r_mmod_Electrostatic_Energy-OPLS-2005>
-508.441741943359

> <r_mmod_Solvation_Energy-OPLS-2005>
-230.952331542969

> <b_mmod_Minimization_Converged-OPLS-2005>
0

> <r_mmod_RMS_Derivative-OPLS-2005>
0.941222131252289

$$$$
83
                    3D
 Structure written by MMmdl.
165173  0  0  1  0            999 V2000
  -30.8157  -14.4757   20.4674 C   0  0  0  0  0  0
  -30.3799  -12.2924   19.4361 C   0  0  0  0  0  0
  -29.4719  -12.4668   18.2062 C   0  0  0  0  0  0
  -28.0009  -12.3172   18.6360 C   0  0  0  0  0  0
  -27.6421  -13.2153   19.8477 C   0  0  2  0  0  0
  -28.7015  -13.1285   20.9736 C   0  0  0  0  0  0
  -25.2469  -13.8171   20.5571 C   0  0  0  0  0  0
  -24.1787  -13.0460   20.9191 C   0  0  0  0  0  0
  -24.6373  -11.6920   20.8783 C   0  0  0  0  0  0
  -23.9059  -10.4318   21.0430 C   0  0  0  0  0  0
  -24.3608   -9.4222   21.9191 C   0  0  0  0  0  0
  -23.6269   -8.2260   22.0733 C   0  0  0  0  0  0
  -22.4256   -8.0289   21.3506 C   0  0  0  0  0  0
  -21.9931   -9.0271   20.4610 C   0  0  0  0  0  0
  -22.7257  -10.2157   20.3044 C   0  0  0  0  0  0
  -21.6880   -6.0727   22.5271 C   0  0  0  0  0  0
  -21.4040   -6.5632   23.8201 C   0  0  0  0  0  0
  -21.3662   -5.6765   24.9167 C   0  0  0  0  0  0
  -21.6056   -4.3018   24.7217 C   0  0  0  0  0  0
  -21.8829   -3.8143   23.4322 C   0  0  0  0  0  0
  -21.9188   -4.6964   22.3389 C   0  0  0  0  0  0
  -22.7802  -13.5234   21.1810 C   0  0  0  0  0  0
  -22.1615   -4.2156   21.0947 F   0  0  0  0  0  0
  -21.5648   -3.4509   25.7736 F   0  0  0  0  0  0
  -30.0320  -13.3586   20.3880 N   0  0  0  0  0  0
  -26.2928  -12.9375   20.3313 N   0  0  0  0  0  0
  -25.9330  -11.6530   20.5907 N   0  0  0  0  0  0
  -22.0460  -12.8196   22.0349 N   0  0  0  0  0  0
  -25.4101  -15.1878   20.3679 N   0  0  0  0  0  0
  -31.9681  -14.4687   20.0370 O   0  0  0  0  0  0
  -21.6598   -6.8886   21.4230 O   0  0  0  0  0  0
  -22.3478  -14.5522   20.6646 O   0  0  0  0  0  0
  -24.6122  -31.8687   23.2157 C   0  0  0  0  0  0
  -25.9039  -32.4826   23.8438 C   0  0  1  0  0  0
  -27.2337  -27.4364   20.0697 C   0  0  0  0  0  0
  -25.5904  -33.8633   24.2357 N   0  0  0  0  0  0
  -23.4016  -30.4963   21.5538 C   0  0  2  0  0  0
  -24.8437  -28.9618   20.1206 C   0  0  0  0  0  0
  -22.7431  -29.4673   22.4978 C   0  0  0  0  0  0
  -18.0283  -28.1391   22.8475 C   0  0  0  0  0  0
  -24.1485  -36.7299   23.2628 C   0  0  0  0  0  0
  -25.9325  -30.8289   21.3727 C   0  0  0  0  0  0
  -26.0053  -29.4651   20.7156 C   0  0  0  0  0  0
  -27.1984  -28.7078   20.6931 C   0  0  0  0  0  0
  -26.0445  -26.9447   19.4809 C   0  0  0  0  0  0
  -24.8571  -27.6999   19.5069 C   0  0  0  0  0  0
  -23.6095  -29.8338   20.1675 C   0  0  0  0  0  0
  -25.4102  -36.3116   24.0356 C   0  0  1  0  0  0
  -20.5879  -28.3647   23.1330 C   0  0  2  0  0  0
  -20.6764  -26.9386   22.5421 C   0  0  0  0  0  0
  -19.5743  -26.6384   21.5209 C   0  0  0  0  0  0
  -18.1904  -26.7946   22.1615 C   0  0  0  0  0  0
  -19.1541  -28.8834   23.2888 C   0  0  0  0  0  0
  -18.9455  -30.1435   23.8904 C   0  0  0  0  0  0
  -17.6463  -30.6587   24.0574 C   0  0  0  0  0  0
  -25.9044  -34.9486   23.5155 C   0  0  0  0  0  0
  -16.5343  -29.9091   23.6357 C   0  0  0  0  0  0
  -16.7279  -28.6524   23.0362 C   0  0  0  0  0  0
  -26.4486  -31.6592   25.0758 C   0  0  0  0  0  0
  -25.3746  -31.3629   26.1481 C   0  0  0  0  0  0
  -27.0310  -30.3050   24.6112 C   0  0  0  0  0  0
  -27.6101  -32.4270   25.7488 C   0  0  0  0  0  0
  -27.5589  -37.1787   24.8479 C   0  0  0  0  0  0
  -21.4162  -29.3023   22.3747 N   0  0  0  0  0  0
  -26.4289  -37.3779   23.9429 N   0  0  0  0  0  0
  -24.6677  -31.0805   22.1048 N   0  0  0  0  0  0
  -23.4194  -28.8197   23.3025 O   0  0  0  0  0  0
  -28.4360  -26.7587   20.0422 O   0  0  0  0  0  0
  -26.5583  -34.8929   22.4700 O   0  0  0  0  0  0
  -23.5339  -32.1431   23.7574 O   0  0  0  0  0  0
  -27.3647  -20.8723   20.3969 C   0  0  0  0  0  0
  -28.0259  -21.9392   18.6239 C   0  0  0  0  0  0
  -27.8940  -19.9688   19.4990 C   0  0  0  0  0  0
  -33.3553  -17.7442   22.3229 C   0  0  0  0  0  0
  -27.9562  -18.4588   19.5951 C   0  0  0  0  0  0
  -32.3418  -17.1976   21.3050 C   0  0  0  0  0  0
  -29.3001  -17.8625   20.0880 C   0  0  0  0  0  0
  -28.1602  -24.4058   20.7013 C   0  0  0  0  0  0
  -27.0184  -23.4057   20.4042 C   0  0  0  0  0  0
  -31.1795  -16.3792   21.9484 C   0  0  0  0  0  0
  -29.1903  -16.3247   20.3441 C   0  0  0  0  0  0
  -28.5004  -25.4064   19.5708 C   0  0  0  0  0  0
  -28.3202  -20.6650   18.3654 N   0  0  0  0  0  0
  -27.4687  -22.1399   19.8282 N   0  0  0  0  0  0
  -30.3251  -15.6232   21.0011 N   0  0  0  0  0  0
  -31.4273  -12.2966   19.1331 H   0  0  0  0  0  0
  -30.2199  -11.3194   19.9041 H   0  0  0  0  0  0
  -29.7162  -11.7281   17.4419 H   0  0  0  0  0  0
  -29.6255  -13.4483   17.7502 H   0  0  0  0  0  0
  -27.8270  -11.2679   18.8802 H   0  0  0  0  0  0
  -27.3397  -12.5418   17.7997 H   0  0  0  0  0  0
  -27.6338  -14.2309   19.4618 H   0  0  0  0  0  0
  -28.6800  -12.1473   21.4420 H   0  0  0  0  0  0
  -28.4842  -13.8522   21.7601 H   0  0  0  0  0  0
  -25.2773   -9.5695   22.4732 H   0  0  0  0  0  0
  -23.9993   -7.4657   22.7447 H   0  0  0  0  0  0
  -21.0884   -8.8779   19.8874 H   0  0  0  0  0  0
  -22.3725  -10.9664   19.6112 H   0  0  0  0  0  0
  -21.2016   -7.6136   23.9726 H   0  0  0  0  0  0
  -21.1458   -6.0463   25.9055 H   0  0  0  0  0  0
  -22.0602   -2.7612   23.2798 H   0  0  0  0  0  0
  -22.4167  -11.9934   22.4760 H   0  0  0  0  0  0
  -21.1062  -13.1148   22.2602 H   0  0  0  0  0  0
  -24.6228  -15.8269   20.3741 H   0  0  0  0  0  0
  -26.2244  -15.5649   19.9028 H   0  0  0  0  0  0
  -26.7088  -32.5542   23.1190 H   0  0  0  0  0  0
  -25.0155  -33.9811   25.0569 H   0  0  0  0  0  0
  -22.6873  -31.3121   21.4095 H   0  0  0  0  0  0
  -23.3797  -35.9592   23.3283 H   0  0  0  0  0  0
  -24.3550  -36.8911   22.2031 H   0  0  0  0  0  0
  -23.7213  -37.6497   23.6659 H   0  0  0  0  0  0
  -26.0515  -31.5974   20.6095 H   0  0  0  0  0  0
  -26.8209  -30.8730   21.9911 H   0  0  0  0  0  0
  -28.1049  -29.0966   21.1338 H   0  0  0  0  0  0
  -26.0051  -25.9946   18.9766 H   0  0  0  0  0  0
  -23.9643  -27.3119   19.0441 H   0  0  0  0  0  0
  -23.7202  -30.6100   19.4083 H   0  0  0  0  0  0
  -22.7303  -29.2618   19.8695 H   0  0  0  0  0  0
  -25.1237  -36.1972   25.0852 H   0  0  0  0  0  0
  -20.9950  -28.3207   24.1462 H   0  0  0  0  0  0
  -20.5693  -26.2220   23.3597 H   0  0  0  0  0  0
  -21.6601  -26.7410   22.1169 H   0  0  0  0  0  0
  -19.6917  -25.6304   21.1236 H   0  0  0  0  0  0
  -19.6760  -27.3193   20.6741 H   0  0  0  0  0  0
  -17.4186  -26.6718   21.4016 H   0  0  0  0  0  0
  -18.0288  -26.0092   22.9002 H   0  0  0  0  0  0
  -19.7911  -30.7248   24.2301 H   0  0  0  0  0  0
  -17.5004  -31.6299   24.5103 H   0  0  0  0  0  0
  -15.5347  -30.2971   23.7720 H   0  0  0  0  0  0
  -15.8658  -28.0857   22.7062 H   0  0  0  0  0  0
  -24.6170  -30.6628   25.7899 H   0  0  0  0  0  0
  -24.8593  -32.2668   26.4761 H   0  0  0  0  0  0
  -25.8146  -30.9091   27.0361 H   0  0  0  0  0  0
  -26.2842  -29.6799   24.1191 H   0  0  0  0  0  0
  -27.4095  -29.7288   25.4555 H   0  0  0  0  0  0
  -27.8675  -30.4372   23.9242 H   0  0  0  0  0  0
  -27.2877  -33.3679   26.1961 H   0  0  0  0  0  0
  -28.4003  -32.6605   25.0333 H   0  0  0  0  0  0
  -28.0660  -31.8401   26.5473 H   0  0  0  0  0  0
  -28.2580  -38.0115   24.7546 H   0  0  0  0  0  0
  -28.1123  -36.2635   24.6279 H   0  0  0  0  0  0
  -27.2294  -37.1350   25.8881 H   0  0  0  0  0  0
  -20.9333  -29.8746   21.6960 H   0  0  0  0  0  0
  -26.0214  -38.2875   24.1461 H   0  0  0  0  0  0
  -26.9172  -20.7202   21.3675 H   0  0  0  0  0  0
  -28.2261  -22.7503   17.9376 H   0  0  0  0  0  0
  -34.1574  -18.2997   21.8299 H   0  0  0  0  0  0
  -33.8358  -16.9397   22.8838 H   0  0  0  0  0  0
  -32.8746  -18.4142   23.0338 H   0  0  0  0  0  0
  -27.7157  -18.0212   18.6251 H   0  0  0  0  0  0
  -27.1618  -18.1172   20.2590 H   0  0  0  0  0  0
  -32.9019  -16.6089   20.5782 H   0  0  0  0  0  0
  -31.9425  -18.0366   20.7391 H   0  0  0  0  0  0
  -29.5827  -18.3892   20.9974 H   0  0  0  0  0  0
  -30.0696  -18.0672   19.3406 H   0  0  0  0  0  0
  -29.0615  -23.8606   20.9846 H   0  0  0  0  0  0
  -27.8860  -24.9783   21.5905 H   0  0  0  0  0  0
  -26.2558  -23.8430   19.7593 H   0  0  0  0  0  0
  -26.5163  -23.1883   21.3472 H   0  0  0  0  0  0
  -30.5584  -17.0071   22.5866 H   0  0  0  0  0  0
  -31.6221  -15.6534   22.6341 H   0  0  0  0  0  0
  -29.0234  -15.8773   19.3624 H   0  0  0  0  0  0
  -28.3020  -16.1198   20.9375 H   0  0  0  0  0  0
  -27.9259  -25.2512   18.6586 H   0  0  0  0  0  0
  -29.5350  -25.2409   19.2634 H   0  0  0  0  0  0
  1 25  1  0  0  0
  1 30  2  0  0  0
  1 85  1  0  0  0
  2  3  1  0  0  0
  2 25  1  0  0  0
  2 86  1  0  0  0
  2 87  1  0  0  0
  3  4  1  0  0  0
  3 88  1  0  0  0
  3 89  1  0  0  0
  4  5  1  0  0  0
  4 90  1  0  0  0
  4 91  1  0  0  0
  5  6  1  0  0  0
  5 26  1  0  0  0
  5 92  1  0  0  0
  6 25  1  0  0  0
  6 93  1  0  0  0
  6 94  1  0  0  0
  7  8  2  0  0  0
  7 26  1  0  0  0
  7 29  1  0  0  0
  8  9  1  0  0  0
  8 22  1  0  0  0
  9 10  1  0  0  0
  9 27  2  0  0  0
 10 11  2  0  0  0
 10 15  1  0  0  0
 11 12  1  0  0  0
 11 95  1  0  0  0
 12 13  2  0  0  0
 12 96  1  0  0  0
 13 14  1  0  0  0
 13 31  1  0  0  0
 14 15  2  0  0  0
 14 97  1  0  0  0
 15 98  1  0  0  0
 16 17  2  0  0  0
 16 21  1  0  0  0
 16 31  1  0  0  0
 17 18  1  0  0  0
 17 99  1  0  0  0
 18 19  2  0  0  0
 18100  1  0  0  0
 19 20  1  0  0  0
 19 24  1  0  0  0
 20 21  2  0  0  0
 20101  1  0  0  0
 21 23  1  0  0  0
 22 28  1  0  0  0
 22 32  2  0  0  0
 26 27  1  0  0  0
 28102  1  0  0  0
 28103  1  0  0  0
 29104  1  0  0  0
 29105  1  0  0  0
 33 34  1  0  0  0
 33 66  1  0  0  0
 33 70  2  0  0  0
 34 36  1  0  0  0
 34 59  1  0  0  0
 34106  1  0  0  0
 35 44  2  0  0  0
 35 45  1  0  0  0
 35 68  1  0  0  0
 36 56  1  0  0  0
 36107  1  0  0  0
 37 39  1  0  0  0
 37 47  1  0  0  0
 37 66  1  0  0  0
 37108  1  0  0  0
 38 43  2  0  0  0
 38 46  1  0  0  0
 38 47  1  0  0  0
 39 64  1  0  0  0
 39 67  2  0  0  0
 40 52  1  0  0  0
 40 53  2  0  0  0
 40 58  1  0  0  0
 41109  1  0  0  0
 41110  1  0  0  0
 41111  1  0  0  0
 41 48  1  0  0  0
 42 43  1  0  0  0
 42 66  1  0  0  0
 42112  1  0  0  0
 42113  1  0  0  0
 43 44  1  0  0  0
 44114  1  0  0  0
 45 46  2  0  0  0
 45115  1  0  0  0
 46116  1  0  0  0
 47117  1  0  0  0
 47118  1  0  0  0
 48 56  1  0  0  0
 48 65  1  0  0  0
 48119  1  0  0  0
 49 50  1  0  0  0
 49 53  1  0  0  0
 49 64  1  0  0  0
 49120  1  0  0  0
 50 51  1  0  0  0
 50121  1  0  0  0
 50122  1  0  0  0
 51 52  1  0  0  0
 51123  1  0  0  0
 51124  1  0  0  0
 52125  1  0  0  0
 52126  1  0  0  0
 53 54  1  0  0  0
 54 55  2  0  0  0
 54127  1  0  0  0
 55 57  1  0  0  0
 55128  1  0  0  0
 56 69  2  0  0  0
 57 58  2  0  0  0
 57129  1  0  0  0
 58130  1  0  0  0
 59 60  1  0  0  0
 59 61  1  0  0  0
 59 62  1  0  0  0
 60131  1  0  0  0
 60132  1  0  0  0
 60133  1  0  0  0
 61134  1  0  0  0
 61135  1  0  0  0
 61136  1  0  0  0
 62137  1  0  0  0
 62138  1  0  0  0
 62139  1  0  0  0
 63 65  1  0  0  0
 63140  1  0  0  0
 63141  1  0  0  0
 63142  1  0  0  0
 64143  1  0  0  0
 65144  1  0  0  0
 68 82  1  0  0  0
 71 73  2  0  0  0
 71 84  1  0  0  0
 71145  1  0  0  0
 72 83  2  0  0  0
 72 84  1  0  0  0
 72146  1  0  0  0
 73 75  1  0  0  0
 73 83  1  0  0  0
 74 76  1  0  0  0
 74147  1  0  0  0
 74148  1  0  0  0
 74149  1  0  0  0
 75 77  1  0  0  0
 75150  1  0  0  0
 75151  1  0  0  0
 76 80  1  0  0  0
 76152  1  0  0  0
 76153  1  0  0  0
 77 81  1  0  0  0
 77154  1  0  0  0
 77155  1  0  0  0
 78 79  1  0  0  0
 78 82  1  0  0  0
 78156  1  0  0  0
 78157  1  0  0  0
 79 84  1  0  0  0
 79158  1  0  0  0
 79159  1  0  0  0
 80 85  1  0  0  0
 80160  1  0  0  0
 80161  1  0  0  0
 81 85  1  0  0  0
 81162  1  0  0  0
 81163  1  0  0  0
 82164  1  0  0  0
 82165  1  0  0  0
M  ISO  4   1 100  68 101  82 101  85 100
M  END
> <chiral flag>
0

> <version>
0

> <s_m_source_file>
/data/baiqing/PycharmProjects/Reinvent-master-3.2/result/LINK_invent/BTK/process_docking_weight1_custom_sum_contain_oxygen_bond_distance_aromatic_linkinvent_7_9_3/rearranged_h_0047.sdf

> <i_m_source_file_index>
84

> <r_mmod_Potential_Energy-OPLS-2005>
151.954086303711

> <r_mmod_Stretch_Energy-OPLS-2005>
41.1084594726562

> <r_mmod_Bend_Energy-OPLS-2005>
129.577850341797

> <r_mmod_Torsional_Energy-OPLS-2005>
308.609741210938

> <r_mmod_Improper_Torsional_Energy-OPLS-2005>
3.92138838768005

> <r_mmod_Van_der_Waal_Energy-OPLS-2005>
130.783187866211

> <r_mmod_Electrostatic_Energy-OPLS-2005>
-278.176483154297

> <r_mmod_Solvation_Energy-OPLS-2005>
-212.99267578125

> <b_mmod_Minimization_Converged-OPLS-2005>
0

> <r_mmod_RMS_Derivative-OPLS-2005>
6.33462524414062

$$$$
84
                    3D
 Structure written by MMmdl.
152160  0  0  1  0            999 V2000
  -30.7152  -14.5026   20.5370 C   0  0  0  0  0  0
  -30.4131  -12.3184   19.4334 C   0  0  0  0  0  0
  -29.4961  -12.5119   18.2086 C   0  0  0  0  0  0
  -28.0172  -12.3768   18.6201 C   0  0  0  0  0  0
  -27.6579  -13.2235   19.8715 C   0  0  2  0  0  0
  -28.7030  -13.0437   20.9963 C   0  0  0  0  0  0
  -25.2564  -13.8196   20.5672 C   0  0  0  0  0  0
  -24.1843  -13.0436   20.9165 C   0  0  0  0  0  0
  -24.6437  -11.6915   20.8716 C   0  0  0  0  0  0
  -23.9116  -10.4286   21.0394 C   0  0  0  0  0  0
  -24.3657   -9.4194   21.9164 C   0  0  0  0  0  0
  -23.6302   -8.2246   22.0743 C   0  0  0  0  0  0
  -22.4277   -8.0291   21.3544 C   0  0  0  0  0  0
  -21.9927   -9.0271   20.4643 C   0  0  0  0  0  0
  -22.7287  -10.2132   20.3055 C   0  0  0  0  0  0
  -21.6860   -6.0736   22.5272 C   0  0  0  0  0  0
  -21.4018   -6.5633   23.8209 C   0  0  0  0  0  0
  -21.3656   -5.6780   24.9163 C   0  0  0  0  0  0
  -21.6052   -4.3049   24.7217 C   0  0  0  0  0  0
  -21.8824   -3.8148   23.4335 C   0  0  0  0  0  0
  -21.9188   -4.6962   22.3388 C   0  0  0  0  0  0
  -22.7858  -13.5195   21.1858 C   0  0  0  0  0  0
  -22.1662   -4.2158   21.0965 F   0  0  0  0  0  0
  -21.5635   -3.4531   25.7731 F   0  0  0  0  0  0
  -30.0264  -13.3330   20.4285 N   0  0  0  0  0  0
  -26.3022  -12.9404   20.3370 N   0  0  0  0  0  0
  -25.9368  -11.6544   20.5757 N   0  0  0  0  0  0
  -22.0556  -12.8149   22.0439 N   0  0  0  0  0  0
  -25.4243  -15.1908   20.4068 N   0  0  0  0  0  0
  -31.8663  -14.6252   20.1153 O   0  0  0  0  0  0
  -21.6635   -6.8893   21.4241 O   0  0  0  0  0  0
  -22.3516  -14.5504   20.6741 O   0  0  0  0  0  0
  -24.6193  -31.8641   23.2100 C   0  0  0  0  0  0
  -25.9084  -32.4786   23.8393 C   0  0  1  0  0  0
  -27.2247  -27.3949   20.0974 C   0  0  0  0  0  0
  -25.5934  -33.8592   24.2313 N   0  0  0  0  0  0
  -23.4079  -30.4915   21.5494 C   0  0  2  0  0  0
  -24.8525  -28.9603   20.1085 C   0  0  0  0  0  0
  -22.7427  -29.4644   22.4954 C   0  0  0  0  0  0
  -18.0270  -28.1389   22.8457 C   0  0  0  0  0  0
  -24.1485  -36.7315   23.2637 C   0  0  0  0  0  0
  -25.9421  -30.8197   21.3695 C   0  0  0  0  0  0
  -26.0174  -29.4553   20.7085 C   0  0  0  0  0  0
  -27.2074  -28.6836   20.6928 C   0  0  0  0  0  0
  -26.0375  -26.9328   19.4791 C   0  0  0  0  0  0
  -24.8610  -27.7021   19.4871 C   0  0  0  0  0  0
  -23.6193  -29.8341   20.1603 C   0  0  0  0  0  0
  -25.4100  -36.3087   24.0327 C   0  0  1  0  0  0
  -20.5860  -28.3687   23.1281 C   0  0  2  0  0  0
  -20.6764  -26.9415   22.5407 C   0  0  0  0  0  0
  -19.5754  -26.6388   21.5194 C   0  0  0  0  0  0
  -18.1930  -26.7928   22.1601 C   0  0  0  0  0  0
  -19.1518  -28.8850   23.2864 C   0  0  0  0  0  0
  -18.9455  -30.1450   23.8883 C   0  0  0  0  0  0
  -17.6463  -30.6586   24.0560 C   0  0  0  0  0  0
  -25.9041  -34.9453   23.5111 C   0  0  0  0  0  0
  -16.5347  -29.9094   23.6324 C   0  0  0  0  0  0
  -16.7262  -28.6518   23.0318 C   0  0  0  0  0  0
  -26.4510  -31.6573   25.0733 C   0  0  0  0  0  0
  -25.3787  -31.3680   26.1489 C   0  0  0  0  0  0
  -27.0357  -30.3004   24.6155 C   0  0  0  0  0  0
  -27.6077  -32.4294   25.7514 C   0  0  0  0  0  0
  -27.5565  -37.1807   24.8453 C   0  0  0  0  0  0
  -21.4150  -29.3047   22.3690 N   0  0  0  0  0  0
  -26.4273  -37.3779   23.9408 N   0  0  0  0  0  0
  -24.6747  -31.0722   22.1013 N   0  0  0  0  0  0
  -23.4172  -28.8168   23.3001 O   0  0  0  0  0  0
  -28.3699  -26.6082   20.1413 O   0  0  0  0  0  0
  -26.5601  -34.8915   22.4674 O   0  0  0  0  0  0
  -23.5376  -32.1420   23.7469 O   0  0  0  0  0  0
  -28.2678  -22.3345   21.7231 C   0  0  0  0  0  0
  -29.5101  -20.8075   21.0519 C   0  0  0  0  0  0
  -30.3279  -19.5251   21.0493 C   0  0  0  0  0  0
  -29.5928  -18.1460   20.9773 C   0  0  0  0  0  0
  -29.3969  -24.3383   20.6048 C   0  0  0  0  0  0
  -30.6057  -16.9569   21.0053 C   0  0  0  0  0  0
  -28.1800  -25.1656   20.0945 C   0  0  0  0  0  0
  -28.4446  -21.0190   21.8830 N   0  0  0  0  0  0
  -29.9515  -21.9111   20.4224 N   0  0  0  0  0  0
  -29.1345  -22.9084   20.8833 N   0  0  0  0  0  0
  -30.0323  -15.5890   20.9693 N   0  0  0  0  0  0
  -31.4635  -12.3872   19.1437 H   0  0  0  0  0  0
  -30.2894  -11.3179   19.8531 H   0  0  0  0  0  0
  -29.7354  -11.7863   17.4299 H   0  0  0  0  0  0
  -29.6662  -13.4973   17.7697 H   0  0  0  0  0  0
  -27.8196  -11.3223   18.8128 H   0  0  0  0  0  0
  -27.3720  -12.6559   17.7872 H   0  0  0  0  0  0
  -27.6866  -14.2667   19.5538 H   0  0  0  0  0  0
  -28.6841  -12.0234   21.3824 H   0  0  0  0  0  0
  -28.4759  -13.6832   21.8504 H   0  0  0  0  0  0
  -25.2823   -9.5622   22.4715 H   0  0  0  0  0  0
  -24.0005   -7.4618   22.7448 H   0  0  0  0  0  0
  -21.0863   -8.8797   19.8930 H   0  0  0  0  0  0
  -22.3776  -10.9661   19.6143 H   0  0  0  0  0  0
  -21.2030   -7.6143   23.9713 H   0  0  0  0  0  0
  -21.1475   -6.0508   25.9060 H   0  0  0  0  0  0
  -22.0620   -2.7621   23.2819 H   0  0  0  0  0  0
  -22.4216  -11.9755   22.4684 H   0  0  0  0  0  0
  -21.1203  -13.1150   22.2795 H   0  0  0  0  0  0
  -24.6549  -15.8456   20.5025 H   0  0  0  0  0  0
  -26.2782  -15.6292   20.0859 H   0  0  0  0  0  0
  -26.7154  -32.5470   23.1148 H   0  0  0  0  0  0
  -25.0078  -33.9758   25.0453 H   0  0  0  0  0  0
  -22.6991  -31.3113   21.4120 H   0  0  0  0  0  0
  -23.3721  -35.9672   23.3293 H   0  0  0  0  0  0
  -24.3570  -36.8951   22.2050 H   0  0  0  0  0  0
  -23.7278  -37.6531   23.6670 H   0  0  0  0  0  0
  -26.0658  -31.5894   20.6057 H   0  0  0  0  0  0
  -26.8254  -30.8638   21.9951 H   0  0  0  0  0  0
  -28.1053  -29.0622   21.1616 H   0  0  0  0  0  0
  -25.9986  -25.9732   18.9848 H   0  0  0  0  0  0
  -23.9683  -27.3207   19.0097 H   0  0  0  0  0  0
  -23.7406  -30.6164   19.4107 H   0  0  0  0  0  0
  -22.7391  -29.2681   19.8499 H   0  0  0  0  0  0
  -25.1279  -36.1935   25.0818 H   0  0  0  0  0  0
  -20.9932  -28.3269   24.1405 H   0  0  0  0  0  0
  -20.5642  -26.2306   23.3604 H   0  0  0  0  0  0
  -21.6643  -26.7452   22.1217 H   0  0  0  0  0  0
  -19.6927  -25.6295   21.1232 H   0  0  0  0  0  0
  -19.6699  -27.3187   20.6709 H   0  0  0  0  0  0
  -17.4194  -26.6632   21.4012 H   0  0  0  0  0  0
  -18.0355  -26.0084   22.9013 H   0  0  0  0  0  0
  -19.7933  -30.7261   24.2247 H   0  0  0  0  0  0
  -17.5021  -31.6256   24.5183 H   0  0  0  0  0  0
  -15.5348  -30.2997   23.7671 H   0  0  0  0  0  0
  -15.8652  -28.0859   22.7015 H   0  0  0  0  0  0
  -24.5951  -30.7036   25.7834 H   0  0  0  0  0  0
  -24.8998  -32.2831   26.4973 H   0  0  0  0  0  0
  -25.8161  -30.8823   27.0224 H   0  0  0  0  0  0
  -26.2917  -29.6732   24.1227 H   0  0  0  0  0  0
  -27.4121  -29.7279   25.4646 H   0  0  0  0  0  0
  -27.8759  -30.4289   23.9326 H   0  0  0  0  0  0
  -27.2684  -33.3567   26.2143 H   0  0  0  0  0  0
  -28.3882  -32.6893   25.0351 H   0  0  0  0  0  0
  -28.0760  -31.8386   26.5397 H   0  0  0  0  0  0
  -28.2574  -38.0111   24.7491 H   0  0  0  0  0  0
  -28.1071  -36.2640   24.6275 H   0  0  0  0  0  0
  -27.2284  -37.1456   25.8858 H   0  0  0  0  0  0
  -20.9321  -29.8794   21.6930 H   0  0  0  0  0  0
  -26.0143  -38.2848   24.1425 H   0  0  0  0  0  0
  -27.5332  -22.9003   22.2790 H   0  0  0  0  0  0
  -30.9479  -19.5401   21.9458 H   0  0  0  0  0  0
  -31.0281  -19.5769   20.2149 H   0  0  0  0  0  0
  -28.9890  -18.0948   20.0713 H   0  0  0  0  0  0
  -28.9045  -18.0580   21.8179 H   0  0  0  0  0  0
  -29.7491  -24.7818   21.5356 H   0  0  0  0  0  0
  -30.2240  -24.4186   19.8980 H   0  0  0  0  0  0
  -31.2361  -17.0282   21.8939 H   0  0  0  0  0  0
  -31.2800  -17.0854   20.1552 H   0  0  0  0  0  0
  -27.3109  -24.9030   20.6994 H   0  0  0  0  0  0
  -27.9606  -24.8616   19.0705 H   0  0  0  0  0  0
  -29.0787  -15.4557   21.2709 H   0  0  0  0  0  0
  1 25  1  0  0  0
  1 30  2  0  0  0
  1 81  1  0  0  0
  2  3  1  0  0  0
  2 25  1  0  0  0
  2 82  1  0  0  0
  2 83  1  0  0  0
  3  4  1  0  0  0
  3 84  1  0  0  0
  3 85  1  0  0  0
  4  5  1  0  0  0
  4 86  1  0  0  0
  4 87  1  0  0  0
  5  6  1  0  0  0
  5 26  1  0  0  0
  5 88  1  0  0  0
  6 25  1  0  0  0
  6 89  1  0  0  0
  6 90  1  0  0  0
  7  8  2  0  0  0
  7 26  1  0  0  0
  7 29  1  0  0  0
  8  9  1  0  0  0
  8 22  1  0  0  0
  9 10  1  0  0  0
  9 27  2  0  0  0
 10 11  2  0  0  0
 10 15  1  0  0  0
 11 12  1  0  0  0
 11 91  1  0  0  0
 12 13  2  0  0  0
 12 92  1  0  0  0
 13 14  1  0  0  0
 13 31  1  0  0  0
 14 15  2  0  0  0
 14 93  1  0  0  0
 15 94  1  0  0  0
 16 17  2  0  0  0
 16 21  1  0  0  0
 16 31  1  0  0  0
 17 18  1  0  0  0
 17 95  1  0  0  0
 18 19  2  0  0  0
 18 96  1  0  0  0
 19 20  1  0  0  0
 19 24  1  0  0  0
 20 21  2  0  0  0
 20 97  1  0  0  0
 21 23  1  0  0  0
 22 28  1  0  0  0
 22 32  2  0  0  0
 26 27  1  0  0  0
 28 98  1  0  0  0
 28 99  1  0  0  0
 29100  1  0  0  0
 29101  1  0  0  0
 33 34  1  0  0  0
 33 66  1  0  0  0
 33 70  2  0  0  0
 34 36  1  0  0  0
 34 59  1  0  0  0
 34102  1  0  0  0
 35 44  2  0  0  0
 35 45  1  0  0  0
 35 68  1  0  0  0
 36 56  1  0  0  0
 36103  1  0  0  0
 37 39  1  0  0  0
 37 47  1  0  0  0
 37 66  1  0  0  0
 37104  1  0  0  0
 38 43  2  0  0  0
 38 46  1  0  0  0
 38 47  1  0  0  0
 39 64  1  0  0  0
 39 67  2  0  0  0
 40 52  1  0  0  0
 40 53  2  0  0  0
 40 58  1  0  0  0
 41105  1  0  0  0
 41106  1  0  0  0
 41107  1  0  0  0
 41 48  1  0  0  0
 42 43  1  0  0  0
 42 66  1  0  0  0
 42108  1  0  0  0
 42109  1  0  0  0
 43 44  1  0  0  0
 44110  1  0  0  0
 45 46  2  0  0  0
 45111  1  0  0  0
 46112  1  0  0  0
 47113  1  0  0  0
 47114  1  0  0  0
 48 56  1  0  0  0
 48 65  1  0  0  0
 48115  1  0  0  0
 49 50  1  0  0  0
 49 53  1  0  0  0
 49 64  1  0  0  0
 49116  1  0  0  0
 50 51  1  0  0  0
 50117  1  0  0  0
 50118  1  0  0  0
 51 52  1  0  0  0
 51119  1  0  0  0
 51120  1  0  0  0
 52121  1  0  0  0
 52122  1  0  0  0
 53 54  1  0  0  0
 54 55  2  0  0  0
 54123  1  0  0  0
 55 57  1  0  0  0
 55124  1  0  0  0
 56 69  2  0  0  0
 57 58  2  0  0  0
 57125  1  0  0  0
 58126  1  0  0  0
 59 60  1  0  0  0
 59 61  1  0  0  0
 59 62  1  0  0  0
 60127  1  0  0  0
 60128  1  0  0  0
 60129  1  0  0  0
 61130  1  0  0  0
 61131  1  0  0  0
 61132  1  0  0  0
 62133  1  0  0  0
 62134  1  0  0  0
 62135  1  0  0  0
 63 65  1  0  0  0
 63136  1  0  0  0
 63137  1  0  0  0
 63138  1  0  0  0
 64139  1  0  0  0
 65140  1  0  0  0
 68 77  1  0  0  0
 71 78  2  0  0  0
 71 80  1  0  0  0
 71141  1  0  0  0
 72 73  1  0  0  0
 72 78  1  0  0  0
 72 79  2  0  0  0
 73 74  1  0  0  0
 73142  1  0  0  0
 73143  1  0  0  0
 74 76  1  0  0  0
 74144  1  0  0  0
 74145  1  0  0  0
 75 77  1  0  0  0
 75 80  1  0  0  0
 75146  1  0  0  0
 75147  1  0  0  0
 76 81  1  0  0  0
 76148  1  0  0  0
 76149  1  0  0  0
 77150  1  0  0  0
 77151  1  0  0  0
 79 80  1  0  0  0
 81152  1  0  0  0
M  ISO  4   1 100  68 101  77 101  81 100
M  END
> <chiral flag>
0

> <version>
0

> <s_m_source_file>
/data/baiqing/PycharmProjects/Reinvent-master-3.2/result/LINK_invent/BTK/process_docking_weight1_custom_sum_contain_oxygen_bond_distance_aromatic_linkinvent_7_9_3/rearranged_h_0047.sdf

> <i_m_source_file_index>
85

> <r_mmod_Potential_Energy-OPLS-2005>
-107.570571899414

> <r_mmod_Stretch_Energy-OPLS-2005>
45.5478973388672

> <r_mmod_Bend_Energy-OPLS-2005>
107.564056396484

> <r_mmod_Torsional_Energy-OPLS-2005>
208.054168701172

> <r_mmod_Improper_Torsional_Energy-OPLS-2005>
5.96441411972046

> <r_mmod_Van_der_Waal_Energy-OPLS-2005>
130.421829223633

> <r_mmod_Electrostatic_Energy-OPLS-2005>
-392.996673583984

> <r_mmod_Solvation_Energy-OPLS-2005>
-233.379486083984

> <b_mmod_Minimization_Converged-OPLS-2005>
0

> <r_mmod_RMS_Derivative-OPLS-2005>
2.32404446601868

$$$$
85
                    3D
 Structure written by MMmdl.
150158  0  0  1  0            999 V2000
  -30.4009  -15.4207   20.3317 C   0  0  0  0  0  0
  -30.4612  -12.9433   19.5171 C   0  0  0  0  0  0
  -29.5414  -12.5650   18.3249 C   0  0  0  0  0  0
  -28.1209  -12.2245   18.7949 C   0  0  0  0  0  0
  -27.6124  -13.2470   19.8391 C   0  0  2  0  0  0
  -28.6509  -13.5170   20.9590 C   0  0  0  0  0  0
  -25.2334  -13.8048   20.5740 C   0  0  0  0  0  0
  -24.1742  -13.0267   20.9322 C   0  0  0  0  0  0
  -24.6393  -11.6766   20.8847 C   0  0  0  0  0  0
  -23.9066  -10.4169   21.0412 C   0  0  0  0  0  0
  -24.3588   -9.4072   21.9200 C   0  0  0  0  0  0
  -23.6247   -8.2114   22.0717 C   0  0  0  0  0  0
  -22.4234   -8.0213   21.3478 C   0  0  0  0  0  0
  -21.9895   -9.0192   20.4583 C   0  0  0  0  0  0
  -22.7239  -10.2062   20.3047 C   0  0  0  0  0  0
  -21.6807   -6.0741   22.5256 C   0  0  0  0  0  0
  -21.4020   -6.5636   23.8195 C   0  0  0  0  0  0
  -21.3667   -5.6772   24.9141 C   0  0  0  0  0  0
  -21.6043   -4.3034   24.7185 C   0  0  0  0  0  0
  -21.8817   -3.8150   23.4281 C   0  0  0  0  0  0
  -21.9153   -4.6976   22.3358 C   0  0  0  0  0  0
  -22.7766  -13.5016   21.2020 C   0  0  0  0  0  0
  -22.1630   -4.2163   21.0940 F   0  0  0  0  0  0
  -21.5609   -3.4523   25.7698 F   0  0  0  0  0  0
  -29.8408  -14.0946   20.2817 N   0  0  0  0  0  0
  -26.2822  -12.9331   20.3379 N   0  0  0  0  0  0
  -25.9350  -11.6453   20.5898 N   0  0  0  0  0  0
  -22.0375  -12.8057   22.0566 N   0  0  0  0  0  0
  -25.3796  -15.1779   20.4005 N   0  0  0  0  0  0
  -31.6395  -15.3691   20.2200 O   0  0  0  0  0  0
  -21.6538   -6.8872   21.4226 O   0  0  0  0  0  0
  -22.3455  -14.5367   20.6901 O   0  0  0  0  0  0
  -24.6631  -31.8172   23.1651 C   0  0  0  0  0  0
  -25.9282  -32.4567   23.8159 C   0  0  1  0  0  0
  -27.2437  -26.8862   20.1989 C   0  0  0  0  0  0
  -25.5953  -33.8405   24.2070 N   0  0  0  0  0  0
  -23.4824  -30.4219   21.5161 C   0  0  2  0  0  0
  -24.9458  -28.7957   20.1226 C   0  0  0  0  0  0
  -22.7693  -29.4322   22.4775 C   0  0  0  0  0  0
  -18.0317  -28.1428   22.8411 C   0  0  0  0  0  0
  -24.1470  -36.7194   23.2660 C   0  0  0  0  0  0
  -26.0562  -30.6105   21.4027 C   0  0  0  0  0  0
  -26.1319  -29.1941   20.7528 C   0  0  0  0  0  0
  -27.2762  -28.2643   20.7608 C   0  0  0  0  0  0
  -26.0227  -26.6512   19.5248 C   0  0  0  0  0  0
  -24.9196  -27.5461   19.4885 C   0  0  0  0  0  0
  -23.7307  -29.7287   20.1467 C   0  0  0  0  0  0
  -25.4107  -36.2979   24.0318 C   0  0  1  0  0  0
  -20.5935  -28.3719   23.1203 C   0  0  2  0  0  0
  -20.6812  -26.9409   22.5416 C   0  0  0  0  0  0
  -19.5794  -26.6351   21.5243 C   0  0  0  0  0  0
  -18.1943  -26.7928   22.1604 C   0  0  0  0  0  0
  -19.1577  -28.8900   23.2769 C   0  0  0  0  0  0
  -18.9520  -30.1520   23.8741 C   0  0  0  0  0  0
  -17.6511  -30.6586   24.0566 C   0  0  0  0  0  0
  -25.9091  -34.9357   23.5012 C   0  0  0  0  0  0
  -16.5390  -29.9066   23.6414 C   0  0  0  0  0  0
  -16.7310  -28.6550   23.0295 C   0  0  0  0  0  0
  -26.4555  -31.6531   25.0708 C   0  0  0  0  0  0
  -25.3689  -31.3790   26.1376 C   0  0  0  0  0  0
  -27.0512  -30.2912   24.6496 C   0  0  0  0  0  0
  -27.6055  -32.4353   25.7487 C   0  0  0  0  0  0
  -27.5544  -37.1735   24.8484 C   0  0  0  0  0  0
  -21.4358  -29.2993   22.3562 N   0  0  0  0  0  0
  -26.4237  -37.3732   23.9448 N   0  0  0  0  0  0
  -24.7545  -30.9759   22.0819 N   0  0  0  0  0  0
  -23.4217  -28.7878   23.3021 O   0  0  0  0  0  0
  -28.2564  -25.7667   20.1931 O   0  0  0  0  0  0
  -26.5703  -34.8898   22.4620 O   0  0  0  0  0  0
  -23.5678  -32.1177   23.6708 O   0  0  0  0  0  0
  -29.2539  -21.3014   20.9212 C   0  0  0  0  0  0
  -28.7003  -22.5416   20.1872 C   0  0  0  0  0  0
  -29.3695  -20.0226   20.1978 C   0  0  0  0  0  0
  -28.7634  -19.8643   17.7406 C   0  0  0  0  0  0
  -28.2268  -16.7217   20.0863 C   0  0  0  0  0  0
  -28.0017  -24.1560   20.5655 C   0  0  0  0  0  0
  -30.1002  -18.3941   20.3874 C   0  0  0  0  0  0
  -28.5178  -21.9463   18.9901 N   0  0  0  0  0  0
  -28.8944  -20.5821   18.9930 N   0  0  0  0  0  0
  -29.6670  -16.7547   20.3048 N   0  0  0  0  0  0
  -31.4334  -13.2247   19.1029 H   0  0  0  0  0  0
  -30.6757  -12.1090   20.1877 H   0  0  0  0  0  0
  -29.9721  -11.7257   17.7775 H   0  0  0  0  0  0
  -29.4802  -13.3983   17.6252 H   0  0  0  0  0  0
  -28.1592  -11.2303   19.2426 H   0  0  0  0  0  0
  -27.4374  -12.1437   17.9496 H   0  0  0  0  0  0
  -27.4957  -14.1681   19.2710 H   0  0  0  0  0  0
  -28.8936  -12.6146   21.5221 H   0  0  0  0  0  0
  -28.2620  -14.2022   21.7161 H   0  0  0  0  0  0
  -25.2681   -9.5516   22.4858 H   0  0  0  0  0  0
  -23.9894   -7.4483   22.7446 H   0  0  0  0  0  0
  -21.0808   -8.8739   19.8894 H   0  0  0  0  0  0
  -22.3677  -10.9654   19.6211 H   0  0  0  0  0  0
  -21.2079   -7.6151   23.9724 H   0  0  0  0  0  0
  -21.1506   -6.0484   25.9043 H   0  0  0  0  0  0
  -22.0633   -2.7631   23.2725 H   0  0  0  0  0  0
  -22.3875  -11.9690   22.5056 H   0  0  0  0  0  0
  -21.1026  -13.1193   22.2715 H   0  0  0  0  0  0
  -24.6159  -15.8268   20.5564 H   0  0  0  0  0  0
  -26.2173  -15.6371   20.0696 H   0  0  0  0  0  0
  -26.7297  -32.5081   23.0819 H   0  0  0  0  0  0
  -25.0181  -33.9527   25.0273 H   0  0  0  0  0  0
  -22.7969  -31.2521   21.3346 H   0  0  0  0  0  0
  -23.3769  -35.9493   23.3294 H   0  0  0  0  0  0
  -24.3530  -36.8893   22.2084 H   0  0  0  0  0  0
  -23.7182  -37.6349   23.6750 H   0  0  0  0  0  0
  -26.2351  -31.3417   20.6148 H   0  0  0  0  0  0
  -26.9138  -30.6706   22.0576 H   0  0  0  0  0  0
  -28.1768  -28.5875   21.2669 H   0  0  0  0  0  0
  -25.8949  -25.7016   19.0286 H   0  0  0  0  0  0
  -24.0245  -27.2336   18.9714 H   0  0  0  0  0  0
  -23.8989  -30.4993   19.3944 H   0  0  0  0  0  0
  -22.8430  -29.1904   19.8130 H   0  0  0  0  0  0
  -25.1282  -36.1796   25.0807 H   0  0  0  0  0  0
  -20.9991  -28.3319   24.1347 H   0  0  0  0  0  0
  -20.5790  -26.2303   23.3637 H   0  0  0  0  0  0
  -21.6655  -26.7447   22.1164 H   0  0  0  0  0  0
  -19.6991  -25.6269   21.1264 H   0  0  0  0  0  0
  -19.6759  -27.3187   20.6779 H   0  0  0  0  0  0
  -17.4251  -26.6686   21.3989 H   0  0  0  0  0  0
  -18.0307  -26.0117   22.9039 H   0  0  0  0  0  0
  -19.8018  -30.7409   24.1930 H   0  0  0  0  0  0
  -17.5078  -31.6240   24.5220 H   0  0  0  0  0  0
  -15.5391  -30.2912   23.7844 H   0  0  0  0  0  0
  -15.8707  -28.0898   22.6925 H   0  0  0  0  0  0
  -24.5885  -30.7131   25.7672 H   0  0  0  0  0  0
  -24.8862  -32.2985   26.4724 H   0  0  0  0  0  0
  -25.7886  -30.9018   27.0237 H   0  0  0  0  0  0
  -26.3264  -29.6488   24.1482 H   0  0  0  0  0  0
  -27.4050  -29.7376   25.5201 H   0  0  0  0  0  0
  -27.9156  -30.4125   23.9956 H   0  0  0  0  0  0
  -27.2708  -33.3798   26.1785 H   0  0  0  0  0  0
  -28.3965  -32.6640   25.0332 H   0  0  0  0  0  0
  -28.0566  -31.8636   26.5619 H   0  0  0  0  0  0
  -28.2533  -38.0055   24.7528 H   0  0  0  0  0  0
  -28.1042  -36.2574   24.6274 H   0  0  0  0  0  0
  -27.2260  -37.1328   25.8887 H   0  0  0  0  0  0
  -20.9627  -29.8701   21.6704 H   0  0  0  0  0  0
  -26.0086  -38.2785   24.1521 H   0  0  0  0  0  0
  -29.5579  -21.3569   21.9578 H   0  0  0  0  0  0
  -29.0091  -18.8146   17.9048 H   0  0  0  0  0  0
  -29.4507  -20.2644   16.9930 H   0  0  0  0  0  0
  -27.7386  -19.9452   17.3720 H   0  0  0  0  0  0
  -27.7523  -17.6829   20.2935 H   0  0  0  0  0  0
  -27.7690  -16.0385   20.7862 H   0  0  0  0  0  0
  -27.9958  -16.4252   19.0581 H   0  0  0  0  0  0
  -27.9992  -24.1980   21.6577 H   0  0  0  0  0  0
  -26.9425  -24.0450   20.3315 H   0  0  0  0  0  0
  -30.5721  -18.4275   21.3683 H   0  0  0  0  0  0
  -30.9291  -18.4110   19.6774 H   0  0  0  0  0  0
  1 25  1  0  0  0
  1 30  2  0  0  0
  1 80  1  0  0  0
  2  3  1  0  0  0
  2 25  1  0  0  0
  2 81  1  0  0  0
  2 82  1  0  0  0
  3  4  1  0  0  0
  3 83  1  0  0  0
  3 84  1  0  0  0
  4  5  1  0  0  0
  4 85  1  0  0  0
  4 86  1  0  0  0
  5  6  1  0  0  0
  5 26  1  0  0  0
  5 87  1  0  0  0
  6 25  1  0  0  0
  6 88  1  0  0  0
  6 89  1  0  0  0
  7  8  2  0  0  0
  7 26  1  0  0  0
  7 29  1  0  0  0
  8  9  1  0  0  0
  8 22  1  0  0  0
  9 10  1  0  0  0
  9 27  2  0  0  0
 10 11  2  0  0  0
 10 15  1  0  0  0
 11 12  1  0  0  0
 11 90  1  0  0  0
 12 13  2  0  0  0
 12 91  1  0  0  0
 13 14  1  0  0  0
 13 31  1  0  0  0
 14 15  2  0  0  0
 14 92  1  0  0  0
 15 93  1  0  0  0
 16 17  2  0  0  0
 16 21  1  0  0  0
 16 31  1  0  0  0
 17 18  1  0  0  0
 17 94  1  0  0  0
 18 19  2  0  0  0
 18 95  1  0  0  0
 19 20  1  0  0  0
 19 24  1  0  0  0
 20 21  2  0  0  0
 20 96  1  0  0  0
 21 23  1  0  0  0
 22 28  1  0  0  0
 22 32  2  0  0  0
 26 27  1  0  0  0
 28 97  1  0  0  0
 28 98  1  0  0  0
 29 99  1  0  0  0
 29100  1  0  0  0
 33 34  1  0  0  0
 33 66  1  0  0  0
 33 70  2  0  0  0
 34 36  1  0  0  0
 34 59  1  0  0  0
 34101  1  0  0  0
 35 44  2  0  0  0
 35 45  1  0  0  0
 35 68  1  0  0  0
 36 56  1  0  0  0
 36102  1  0  0  0
 37 39  1  0  0  0
 37 47  1  0  0  0
 37 66  1  0  0  0
 37103  1  0  0  0
 38 43  2  0  0  0
 38 46  1  0  0  0
 38 47  1  0  0  0
 39 64  1  0  0  0
 39 67  2  0  0  0
 40 52  1  0  0  0
 40 53  2  0  0  0
 40 58  1  0  0  0
 41104  1  0  0  0
 41105  1  0  0  0
 41106  1  0  0  0
 41 48  1  0  0  0
 42 43  1  0  0  0
 42 66  1  0  0  0
 42107  1  0  0  0
 42108  1  0  0  0
 43 44  1  0  0  0
 44109  1  0  0  0
 45 46  2  0  0  0
 45110  1  0  0  0
 46111  1  0  0  0
 47112  1  0  0  0
 47113  1  0  0  0
 48 56  1  0  0  0
 48 65  1  0  0  0
 48114  1  0  0  0
 49 50  1  0  0  0
 49 53  1  0  0  0
 49 64  1  0  0  0
 49115  1  0  0  0
 50 51  1  0  0  0
 50116  1  0  0  0
 50117  1  0  0  0
 51 52  1  0  0  0
 51118  1  0  0  0
 51119  1  0  0  0
 52120  1  0  0  0
 52121  1  0  0  0
 53 54  1  0  0  0
 54 55  2  0  0  0
 54122  1  0  0  0
 55 57  1  0  0  0
 55123  1  0  0  0
 56 69  2  0  0  0
 57 58  2  0  0  0
 57124  1  0  0  0
 58125  1  0  0  0
 59 60  1  0  0  0
 59 61  1  0  0  0
 59 62  1  0  0  0
 60126  1  0  0  0
 60127  1  0  0  0
 60128  1  0  0  0
 61129  1  0  0  0
 61130  1  0  0  0
 61131  1  0  0  0
 62132  1  0  0  0
 62133  1  0  0  0
 62134  1  0  0  0
 63 65  1  0  0  0
 63135  1  0  0  0
 63136  1  0  0  0
 63137  1  0  0  0
 64138  1  0  0  0
 65139  1  0  0  0
 68 76  1  0  0  0
 71 72  1  0  0  0
 71 73  2  0  0  0
 71140  1  0  0  0
 72 76  1  0  0  0
 72 78  2  0  0  0
 73 77  1  0  0  0
 73 79  1  0  0  0
 74 79  1  0  0  0
 74141  1  0  0  0
 74142  1  0  0  0
 74143  1  0  0  0
 75 80  1  0  0  0
 75144  1  0  0  0
 75145  1  0  0  0
 75146  1  0  0  0
 76147  1  0  0  0
 76148  1  0  0  0
 77 80  1  0  0  0
 77149  1  0  0  0
 77150  1  0  0  0
 78 79  1  0  0  0
M  ISO  4   1 100  68 101  76 101  80 100
M  END
> <chiral flag>
0

> <version>
0

> <s_m_source_file>
/data/baiqing/PycharmProjects/Reinvent-master-3.2/result/LINK_invent/BTK/process_docking_weight1_custom_sum_contain_oxygen_bond_distance_aromatic_linkinvent_7_9_3/rearranged_h_0047.sdf

> <i_m_source_file_index>
86

> <r_mmod_Potential_Energy-OPLS-2005>
1628.93322753906

> <r_mmod_Stretch_Energy-OPLS-2005>
681.663635253906

> <r_mmod_Bend_Energy-OPLS-2005>
507.079467773438

> <r_mmod_Torsional_Energy-OPLS-2005>
277.459747314453

> <r_mmod_Improper_Torsional_Energy-OPLS-2005>
6.59567928314209

> <r_mmod_Van_der_Waal_Energy-OPLS-2005>
109.998954772949

> <r_mmod_Electrostatic_Energy-OPLS-2005>
-313.298614501953

> <r_mmod_Solvation_Energy-OPLS-2005>
-228.314453125

> <b_mmod_Minimization_Converged-OPLS-2005>
0

> <r_mmod_RMS_Derivative-OPLS-2005>
8.0987548828125

$$$$
86
                    3D
 Structure written by MMmdl.
168176  0  0  1  0            999 V2000
  -30.6102  -14.7435   20.4897 C   0  0  0  0  0  0
  -30.4334  -12.4628   19.4764 C   0  0  0  0  0  0
  -29.5068  -12.5117   18.2408 C   0  0  0  0  0  0
  -28.0363  -12.3284   18.6585 C   0  0  0  0  0  0
  -27.6436  -13.2298   19.8590 C   0  0  2  0  0  0
  -28.6865  -13.1566   20.9955 C   0  0  0  0  0  0
  -25.2523  -13.8185   20.5705 C   0  0  0  0  0  0
  -24.1809  -13.0445   20.9190 C   0  0  0  0  0  0
  -24.6389  -11.6906   20.8744 C   0  0  0  0  0  0
  -23.9059  -10.4284   21.0396 C   0  0  0  0  0  0
  -24.3610   -9.4200   21.9174 C   0  0  0  0  0  0
  -23.6280   -8.2244   22.0754 C   0  0  0  0  0  0
  -22.4263   -8.0282   21.3543 C   0  0  0  0  0  0
  -21.9896   -9.0253   20.4649 C   0  0  0  0  0  0
  -22.7223  -10.2132   20.3047 C   0  0  0  0  0  0
  -21.6857   -6.0722   22.5269 C   0  0  0  0  0  0
  -21.4013   -6.5632   23.8196 C   0  0  0  0  0  0
  -21.3659   -5.6789   24.9164 C   0  0  0  0  0  0
  -21.6043   -4.3049   24.7219 C   0  0  0  0  0  0
  -21.8826   -3.8133   23.4344 C   0  0  0  0  0  0
  -21.9190   -4.6946   22.3392 C   0  0  0  0  0  0
  -22.7830  -13.5231   21.1845 C   0  0  0  0  0  0
  -22.1664   -4.2130   21.0969 F   0  0  0  0  0  0
  -21.5631   -3.4534   25.7736 F   0  0  0  0  0  0
  -29.9856  -13.5179   20.4164 N   0  0  0  0  0  0
  -26.2948  -12.9397   20.3324 N   0  0  0  0  0  0
  -25.9326  -11.6538   20.5781 N   0  0  0  0  0  0
  -22.0484  -12.8228   22.0408 N   0  0  0  0  0  0
  -25.4236  -15.1914   20.4146 N   0  0  0  0  0  0
  -31.7919  -14.8468   20.1455 O   0  0  0  0  0  0
  -21.6638   -6.8870   21.4231 O   0  0  0  0  0  0
  -22.3512  -14.5536   20.6680 O   0  0  0  0  0  0
  -24.6314  -31.8538   23.2009 C   0  0  0  0  0  0
  -25.9125  -32.4767   23.8353 C   0  0  1  0  0  0
  -27.2253  -27.2575   20.1088 C   0  0  0  0  0  0
  -25.5883  -33.8574   24.2241 N   0  0  0  0  0  0
  -23.4301  -30.4717   21.5469 C   0  0  2  0  0  0
  -24.8768  -28.9275   20.1020 C   0  0  0  0  0  0
  -22.7533  -29.4536   22.4955 C   0  0  0  0  0  0
  -18.0273  -28.1370   22.8442 C   0  0  0  0  0  0
  -24.1474  -36.7321   23.2653 C   0  0  0  0  0  0
  -25.9744  -30.7560   21.3872 C   0  0  0  0  0  0
  -26.0456  -29.3801   20.7280 C   0  0  0  0  0  0
  -27.2139  -28.5524   20.7329 C   0  0  0  0  0  0
  -26.0336  -26.8818   19.4459 C   0  0  0  0  0  0
  -24.8785  -27.6873   19.4481 C   0  0  0  0  0  0
  -23.6453  -29.8099   20.1605 C   0  0  0  0  0  0
  -25.4105  -36.3106   24.0318 C   0  0  1  0  0  0
  -20.5875  -28.3682   23.1248 C   0  0  2  0  0  0
  -20.6784  -26.9388   22.5403 C   0  0  0  0  0  0
  -19.5775  -26.6342   21.5194 C   0  0  0  0  0  0
  -18.1935  -26.7902   22.1582 C   0  0  0  0  0  0
  -19.1528  -28.8848   23.2827 C   0  0  0  0  0  0
  -18.9464  -30.1441   23.8844 C   0  0  0  0  0  0
  -17.6474  -30.6581   24.0529 C   0  0  0  0  0  0
  -25.9046  -34.9468   23.5106 C   0  0  0  0  0  0
  -16.5358  -29.9064   23.6332 C   0  0  0  0  0  0
  -16.7261  -28.6498   23.0313 C   0  0  0  0  0  0
  -26.4464  -31.6629   25.0779 C   0  0  0  0  0  0
  -25.3642  -31.3781   26.1474 C   0  0  0  0  0  0
  -27.0331  -30.3044   24.6317 C   0  0  0  0  0  0
  -27.6009  -32.4402   25.7523 C   0  0  0  0  0  0
  -27.5578  -37.1816   24.8453 C   0  0  0  0  0  0
  -21.4239  -29.3024   22.3678 N   0  0  0  0  0  0
  -26.4297  -37.3789   23.9398 N   0  0  0  0  0  0
  -24.6981  -31.0459   22.1013 N   0  0  0  0  0  0
  -23.4225  -28.8061   23.3057 O   0  0  0  0  0  0
  -28.3258  -26.3695   20.2161 O   0  0  0  0  0  0
  -26.5652  -34.8928   22.4696 O   0  0  0  0  0  0
  -23.5451  -32.1351   23.7270 O   0  0  0  0  0  0
  -29.5098  -22.6369   19.7599 C   0  0  0  0  0  0
  -29.2101  -21.4831   20.5912 C   0  0  0  0  0  0
  -28.6692  -23.7032   20.0944 C   0  0  0  0  0  0
  -27.0014  -23.7882   23.3301 C   0  0  0  0  0  0
  -25.2789  -22.9952   19.8499 C   0  0  0  0  0  0
  -24.2494  -24.2022   21.7695 C   0  0  0  0  0  0
  -25.0437  -21.8324   22.0319 C   0  0  0  0  0  0
  -29.9759  -20.0947   20.7678 C   0  0  0  0  0  0
  -28.4768  -25.1200   19.3975 C   0  0  0  0  0  0
  -29.3265  -18.6116   20.6119 C   0  0  0  0  0  0
  -30.3261  -17.3383   20.8061 C   0  0  0  0  0  0
  -26.7546  -23.7698   21.8071 C   0  0  2  0  0  0
  -25.3554  -23.1984   21.3787 C   0  0  0  0  0  0
  -28.2523  -21.8609   21.4303 N   0  0  0  0  0  0
  -27.8872  -23.1534   21.1092 N   0  0  0  0  0  0
  -29.8571  -15.8780   20.7640 N   0  0  0  0  0  0
  -31.4724  -12.5947   19.1673 H   0  0  0  0  0  0
  -30.3935  -11.4835   19.9552 H   0  0  0  0  0  0
  -29.7936  -11.7409   17.5245 H   0  0  0  0  0  0
  -29.6267  -13.4658   17.7270 H   0  0  0  0  0  0
  -27.9056  -11.2802   18.9287 H   0  0  0  0  0  0
  -27.3733  -12.5095   17.8128 H   0  0  0  0  0  0
  -27.6409  -14.2522   19.4808 H   0  0  0  0  0  0
  -28.7255  -12.1535   21.4234 H   0  0  0  0  0  0
  -28.4174  -13.8270   21.8142 H   0  0  0  0  0  0
  -25.2756   -9.5680   22.4751 H   0  0  0  0  0  0
  -23.9981   -7.4640   22.7486 H   0  0  0  0  0  0
  -21.0823   -8.8772   19.8966 H   0  0  0  0  0  0
  -22.3670  -10.9674   19.6163 H   0  0  0  0  0  0
  -21.2012   -7.6140   23.9692 H   0  0  0  0  0  0
  -21.1479   -6.0521   25.9067 H   0  0  0  0  0  0
  -22.0607   -2.7596   23.2842 H   0  0  0  0  0  0
  -22.4124  -11.9887   22.4783 H   0  0  0  0  0  0
  -21.1114  -13.1268   22.2645 H   0  0  0  0  0  0
  -24.6560  -15.8460   20.5215 H   0  0  0  0  0  0
  -26.2737  -15.6314   20.0863 H   0  0  0  0  0  0
  -26.7194  -32.5390   23.1099 H   0  0  0  0  0  0
  -24.9930  -33.9669   25.0314 H   0  0  0  0  0  0
  -22.7259  -31.2924   21.4078 H   0  0  0  0  0  0
  -23.3727  -35.9661   23.3321 H   0  0  0  0  0  0
  -24.3565  -36.8952   22.2071 H   0  0  0  0  0  0
  -23.7210  -37.6513   23.6684 H   0  0  0  0  0  0
  -26.1058  -31.5115   20.6124 H   0  0  0  0  0  0
  -26.8550  -30.8130   22.0178 H   0  0  0  0  0  0
  -28.1046  -28.8832   21.2480 H   0  0  0  0  0  0
  -25.9381  -25.9384   18.9413 H   0  0  0  0  0  0
  -23.9850  -27.3393   18.9453 H   0  0  0  0  0  0
  -23.7585  -30.5879   19.4051 H   0  0  0  0  0  0
  -22.7650  -29.2367   19.8647 H   0  0  0  0  0  0
  -25.1273  -36.2004   25.0805 H   0  0  0  0  0  0
  -20.9904  -28.3264   24.1396 H   0  0  0  0  0  0
  -20.5684  -26.2274   23.3607 H   0  0  0  0  0  0
  -21.6655  -26.7406   22.1207 H   0  0  0  0  0  0
  -19.6945  -25.6245   21.1251 H   0  0  0  0  0  0
  -19.6739  -27.3134   20.6714 H   0  0  0  0  0  0
  -17.4207  -26.6606   21.3992 H   0  0  0  0  0  0
  -18.0350  -26.0049   22.8991 H   0  0  0  0  0  0
  -19.7953  -30.7251   24.2190 H   0  0  0  0  0  0
  -17.5042  -31.6247   24.5168 H   0  0  0  0  0  0
  -15.5358  -30.2963   23.7722 H   0  0  0  0  0  0
  -15.8642  -28.0843   22.7024 H   0  0  0  0  0  0
  -24.5826  -30.7124   25.7785 H   0  0  0  0  0  0
  -24.8790  -32.2946   26.4872 H   0  0  0  0  0  0
  -25.7910  -30.8973   27.0290 H   0  0  0  0  0  0
  -26.2954  -29.6788   24.1286 H   0  0  0  0  0  0
  -27.3919  -29.7343   25.4898 H   0  0  0  0  0  0
  -27.8861  -30.4301   23.9632 H   0  0  0  0  0  0
  -27.2617  -33.3715   26.2078 H   0  0  0  0  0  0
  -28.3806  -32.6970   25.0334 H   0  0  0  0  0  0
  -28.0699  -31.8559   26.5454 H   0  0  0  0  0  0
  -28.2599  -38.0115   24.7505 H   0  0  0  0  0  0
  -28.1068  -36.2647   24.6275 H   0  0  0  0  0  0
  -27.2294  -37.1446   25.8855 H   0  0  0  0  0  0
  -20.9470  -29.8756   21.6862 H   0  0  0  0  0  0
  -26.0195  -38.2870   24.1421 H   0  0  0  0  0  0
  -30.2720  -22.6740   18.9944 H   0  0  0  0  0  0
  -26.2051  -24.3031   23.8651 H   0  0  0  0  0  0
  -27.9310  -24.3080   23.5596 H   0  0  0  0  0  0
  -27.0774  -22.7838   23.7454 H   0  0  0  0  0  0
  -24.2576  -22.7973   19.5205 H   0  0  0  0  0  0
  -25.8903  -22.1551   19.5184 H   0  0  0  0  0  0
  -25.6235  -23.8727   19.3120 H   0  0  0  0  0  0
  -23.2659  -23.8670   21.4408 H   0  0  0  0  0  0
  -24.4213  -25.1818   21.3214 H   0  0  0  0  0  0
  -24.1890  -24.3455   22.8473 H   0  0  0  0  0  0
  -24.0871  -21.4397   21.6864 H   0  0  0  0  0  0
  -24.9863  -21.8994   23.1169 H   0  0  0  0  0  0
  -25.7971  -21.0824   21.7883 H   0  0  0  0  0  0
  -30.4247  -20.1198   21.7600 H   0  0  0  0  0  0
  -30.8327  -20.1213   20.0950 H   0  0  0  0  0  0
  -27.7314  -25.0259   18.6146 H   0  0  0  0  0  0
  -29.3839  -25.3048   18.8234 H   0  0  0  0  0  0
  -28.8695  -18.5478   19.6245 H   0  0  0  0  0  0
  -28.5027  -18.5179   21.3226 H   0  0  0  0  0  0
  -30.8198  -17.4618   21.7710 H   0  0  0  0  0  0
  -31.1220  -17.4377   20.0676 H   0  0  0  0  0  0
  -26.7569  -24.8175   21.5116 H   0  0  0  0  0  0
  -28.8958  -15.7056   21.0232 H   0  0  0  0  0  0
  1 25  1  0  0  0
  1 30  2  0  0  0
  1 86  1  0  0  0
  2  3  1  0  0  0
  2 25  1  0  0  0
  2 87  1  0  0  0
  2 88  1  0  0  0
  3  4  1  0  0  0
  3 89  1  0  0  0
  3 90  1  0  0  0
  4  5  1  0  0  0
  4 91  1  0  0  0
  4 92  1  0  0  0
  5  6  1  0  0  0
  5 26  1  0  0  0
  5 93  1  0  0  0
  6 25  1  0  0  0
  6 94  1  0  0  0
  6 95  1  0  0  0
  7  8  2  0  0  0
  7 26  1  0  0  0
  7 29  1  0  0  0
  8  9  1  0  0  0
  8 22  1  0  0  0
  9 10  1  0  0  0
  9 27  2  0  0  0
 10 11  2  0  0  0
 10 15  1  0  0  0
 11 12  1  0  0  0
 11 96  1  0  0  0
 12 13  2  0  0  0
 12 97  1  0  0  0
 13 14  1  0  0  0
 13 31  1  0  0  0
 14 15  2  0  0  0
 14 98  1  0  0  0
 15 99  1  0  0  0
 16 17  2  0  0  0
 16 21  1  0  0  0
 16 31  1  0  0  0
 17 18  1  0  0  0
 17100  1  0  0  0
 18 19  2  0  0  0
 18101  1  0  0  0
 19 20  1  0  0  0
 19 24  1  0  0  0
 20 21  2  0  0  0
 20102  1  0  0  0
 21 23  1  0  0  0
 22 28  1  0  0  0
 22 32  2  0  0  0
 26 27  1  0  0  0
 28103  1  0  0  0
 28104  1  0  0  0
 29105  1  0  0  0
 29106  1  0  0  0
 33 34  1  0  0  0
 33 66  1  0  0  0
 33 70  2  0  0  0
 34 36  1  0  0  0
 34 59  1  0  0  0
 34107  1  0  0  0
 35 44  2  0  0  0
 35 45  1  0  0  0
 35 68  1  0  0  0
 36 56  1  0  0  0
 36108  1  0  0  0
 37 39  1  0  0  0
 37 47  1  0  0  0
 37 66  1  0  0  0
 37109  1  0  0  0
 38 43  2  0  0  0
 38 46  1  0  0  0
 38 47  1  0  0  0
 39 64  1  0  0  0
 39 67  2  0  0  0
 40 52  1  0  0  0
 40 53  2  0  0  0
 40 58  1  0  0  0
 41110  1  0  0  0
 41111  1  0  0  0
 41112  1  0  0  0
 41 48  1  0  0  0
 42 43  1  0  0  0
 42 66  1  0  0  0
 42113  1  0  0  0
 42114  1  0  0  0
 43 44  1  0  0  0
 44115  1  0  0  0
 45 46  2  0  0  0
 45116  1  0  0  0
 46117  1  0  0  0
 47118  1  0  0  0
 47119  1  0  0  0
 48 56  1  0  0  0
 48 65  1  0  0  0
 48120  1  0  0  0
 49 50  1  0  0  0
 49 53  1  0  0  0
 49 64  1  0  0  0
 49121  1  0  0  0
 50 51  1  0  0  0
 50122  1  0  0  0
 50123  1  0  0  0
 51 52  1  0  0  0
 51124  1  0  0  0
 51125  1  0  0  0
 52126  1  0  0  0
 52127  1  0  0  0
 53 54  1  0  0  0
 54 55  2  0  0  0
 54128  1  0  0  0
 55 57  1  0  0  0
 55129  1  0  0  0
 56 69  2  0  0  0
 57 58  2  0  0  0
 57130  1  0  0  0
 58131  1  0  0  0
 59 60  1  0  0  0
 59 61  1  0  0  0
 59 62  1  0  0  0
 60132  1  0  0  0
 60133  1  0  0  0
 60134  1  0  0  0
 61135  1  0  0  0
 61136  1  0  0  0
 61137  1  0  0  0
 62138  1  0  0  0
 62139  1  0  0  0
 62140  1  0  0  0
 63 65  1  0  0  0
 63141  1  0  0  0
 63142  1  0  0  0
 63143  1  0  0  0
 64144  1  0  0  0
 65145  1  0  0  0
 68 79  1  0  0  0
 71 72  1  0  0  0
 71 73  2  0  0  0
 71146  1  0  0  0
 72 78  1  0  0  0
 72 84  2  0  0  0
 73 79  1  0  0  0
 73 85  1  0  0  0
 74147  1  0  0  0
 74148  1  0  0  0
 74149  1  0  0  0
 74 82  1  0  0  0
 75150  1  0  0  0
 75151  1  0  0  0
 75152  1  0  0  0
 75 83  1  0  0  0
 76 83  1  0  0  0
 76153  1  0  0  0
 76154  1  0  0  0
 76155  1  0  0  0
 77 83  1  0  0  0
 77156  1  0  0  0
 77157  1  0  0  0
 77158  1  0  0  0
 78 80  1  0  0  0
 78159  1  0  0  0
 78160  1  0  0  0
 79161  1  0  0  0
 79162  1  0  0  0
 80 81  1  0  0  0
 80163  1  0  0  0
 80164  1  0  0  0
 81 86  1  0  0  0
 81165  1  0  0  0
 81166  1  0  0  0
 82 83  1  0  0  0
 82 85  1  0  0  0
 82167  1  0  0  0
 84 85  1  0  0  0
 86168  1  0  0  0
M  ISO  4   1 100  68 101  79 101  86 100
M  END
> <chiral flag>
0

> <version>
0

> <s_m_source_file>
/data/baiqing/PycharmProjects/Reinvent-master-3.2/result/LINK_invent/BTK/process_docking_weight1_custom_sum_contain_oxygen_bond_distance_aromatic_linkinvent_7_9_3/rearranged_h_0047.sdf

> <i_m_source_file_index>
87

> <r_mmod_Potential_Energy-OPLS-2005>
167.936828613281

> <r_mmod_Stretch_Energy-OPLS-2005>
127.819984436035

> <r_mmod_Bend_Energy-OPLS-2005>
205.562103271484

> <r_mmod_Torsional_Energy-OPLS-2005>
226.349365234375

> <r_mmod_Improper_Torsional_Energy-OPLS-2005>
5.76717185974121

> <r_mmod_Van_der_Waal_Energy-OPLS-2005>
110.047927856445

> <r_mmod_Electrostatic_Energy-OPLS-2005>
-388.021636962891

> <r_mmod_Solvation_Energy-OPLS-2005>
-206.711669921875

> <b_mmod_Minimization_Converged-OPLS-2005>
0

> <r_mmod_RMS_Derivative-OPLS-2005>
3.42245936393738

$$$$
87
                    3D
 Structure written by MMmdl.
159167  0  0  1  0            999 V2000
  -30.6936  -14.4579   20.6385 C   0  0  0  0  0  0
  -30.4352  -12.3239   19.3974 C   0  0  0  0  0  0
  -29.4916  -12.5225   18.1935 C   0  0  0  0  0  0
  -28.0146  -12.3739   18.6120 C   0  0  0  0  0  0
  -27.6672  -13.2004   19.8789 C   0  0  2  0  0  0
  -28.7134  -12.9515   20.9883 C   0  0  0  0  0  0
  -25.2622  -13.8146   20.5691 C   0  0  0  0  0  0
  -24.1858  -13.0430   20.9180 C   0  0  0  0  0  0
  -24.6405  -11.6896   20.8737 C   0  0  0  0  0  0
  -23.9066  -10.4287   21.0402 C   0  0  0  0  0  0
  -24.3615   -9.4207   21.9186 C   0  0  0  0  0  0
  -23.6292   -8.2242   22.0757 C   0  0  0  0  0  0
  -22.4274   -8.0279   21.3544 C   0  0  0  0  0  0
  -21.9913   -9.0250   20.4641 C   0  0  0  0  0  0
  -22.7240  -10.2130   20.3052 C   0  0  0  0  0  0
  -21.6850   -6.0743   22.5281 C   0  0  0  0  0  0
  -21.4007   -6.5641   23.8214 C   0  0  0  0  0  0
  -21.3657   -5.6795   24.9174 C   0  0  0  0  0  0
  -21.6045   -4.3058   24.7223 C   0  0  0  0  0  0
  -21.8823   -3.8152   23.4345 C   0  0  0  0  0  0
  -21.9192   -4.6971   22.3404 C   0  0  0  0  0  0
  -22.7879  -13.5234   21.1836 C   0  0  0  0  0  0
  -22.1663   -4.2158   21.0978 F   0  0  0  0  0  0
  -21.5628   -3.4540   25.7737 F   0  0  0  0  0  0
  -30.0407  -13.2796   20.4424 N   0  0  0  0  0  0
  -26.3064  -12.9303   20.3400 N   0  0  0  0  0  0
  -25.9334  -11.6469   20.5779 N   0  0  0  0  0  0
  -22.0506  -12.8221   22.0380 N   0  0  0  0  0  0
  -25.4347  -15.1866   20.4096 N   0  0  0  0  0  0
  -31.7704  -14.7132   20.0900 O   0  0  0  0  0  0
  -21.6634   -6.8881   21.4241 O   0  0  0  0  0  0
  -22.3568  -14.5550   20.6696 O   0  0  0  0  0  0
  -24.6137  -31.8688   23.2111 C   0  0  0  0  0  0
  -25.9035  -32.4824   23.8411 C   0  0  1  0  0  0
  -27.2373  -27.4460   20.0917 C   0  0  0  0  0  0
  -25.5898  -33.8624   24.2342 N   0  0  0  0  0  0
  -23.4027  -30.4902   21.5520 C   0  0  2  0  0  0
  -24.8517  -28.9547   20.1180 C   0  0  0  0  0  0
  -22.7409  -29.4654   22.5010 C   0  0  0  0  0  0
  -18.0270  -28.1374   22.8492 C   0  0  0  0  0  0
  -24.1479  -36.7306   23.2643 C   0  0  0  0  0  0
  -25.9310  -30.8333   21.3667 C   0  0  0  0  0  0
  -26.0104  -29.4670   20.7177 C   0  0  0  0  0  0
  -27.2096  -28.7180   20.7063 C   0  0  0  0  0  0
  -26.0673  -26.9425   19.4916 C   0  0  0  0  0  0
  -24.8735  -27.6891   19.5047 C   0  0  0  0  0  0
  -23.6118  -29.8197   20.1676 C   0  0  0  0  0  0
  -25.4102  -36.3112   24.0342 C   0  0  1  0  0  0
  -20.5857  -28.3659   23.1328 C   0  0  2  0  0  0
  -20.6755  -26.9396   22.5420 C   0  0  0  0  0  0
  -19.5735  -26.6381   21.5210 C   0  0  0  0  0  0
  -18.1909  -26.7927   22.1615 C   0  0  0  0  0  0
  -19.1517  -28.8834   23.2903 C   0  0  0  0  0  0
  -18.9444  -30.1443   23.8910 C   0  0  0  0  0  0
  -17.6447  -30.6584   24.0564 C   0  0  0  0  0  0
  -25.9032  -34.9477   23.5138 C   0  0  0  0  0  0
  -16.5342  -29.9081   23.6331 C   0  0  0  0  0  0
  -16.7262  -28.6496   23.0357 C   0  0  0  0  0  0
  -26.4464  -31.6593   25.0735 C   0  0  0  0  0  0
  -25.3724  -31.3674   26.1471 C   0  0  0  0  0  0
  -27.0315  -30.3048   24.6106 C   0  0  0  0  0  0
  -27.6032  -32.4313   25.7513 C   0  0  0  0  0  0
  -27.5576  -37.1817   24.8467 C   0  0  0  0  0  0
  -21.4139  -29.3026   22.3741 N   0  0  0  0  0  0
  -26.4289  -37.3796   23.9411 N   0  0  0  0  0  0
  -24.6671  -31.0784   22.1017 N   0  0  0  0  0  0
  -23.4179  -28.8202   23.3058 O   0  0  0  0  0  0
  -28.3811  -26.6868   20.0373 O   0  0  0  0  0  0
  -26.5589  -34.8925   22.4697 O   0  0  0  0  0  0
  -23.5329  -32.1445   23.7503 O   0  0  0  0  0  0
  -30.3398  -22.4052   21.3629 C   0  0  0  0  0  0
  -28.8617  -22.5740   19.4739 C   0  0  0  0  0  0
  -29.7571  -21.7928   20.2348 C   0  0  0  0  0  0
  -29.9855  -23.7317   21.6966 C   0  0  0  0  0  0
  -29.0748  -24.4345   20.8681 C   0  0  0  0  0  0
  -30.5859  -24.3704   22.9394 C   0  0  0  0  0  0
  -30.1052  -20.3587   19.7840 C   0  0  0  0  0  0
  -28.6005  -25.8648   21.1906 C   0  0  0  0  0  0
  -30.0369  -15.5293   21.5430 C   0  0  0  0  0  0
  -30.6612  -16.9556   21.5827 C   0  0  0  0  0  0
  -30.2359  -17.9305   20.4488 C   0  0  0  0  0  0
  -28.5290  -23.8505   19.7760 N   0  0  0  0  0  0
  -30.2902  -19.3597   20.8724 N   0  3  0  0  0  0
  -31.4742  -12.4511   19.0878 H   0  0  0  0  0  0
  -30.3615  -11.3046   19.7794 H   0  0  0  0  0  0
  -29.7302  -11.8062   17.4061 H   0  0  0  0  0  0
  -29.6514  -13.5130   17.7646 H   0  0  0  0  0  0
  -27.8249  -11.3159   18.7977 H   0  0  0  0  0  0
  -27.3599  -12.6589   17.7876 H   0  0  0  0  0  0
  -27.7196  -14.2523   19.5997 H   0  0  0  0  0  0
  -28.6962  -11.9043   21.2930 H   0  0  0  0  0  0
  -28.4680  -13.5120   21.8903 H   0  0  0  0  0  0
  -25.2756   -9.5683   22.4764 H   0  0  0  0  0  0
  -24.0002   -7.4633   22.7478 H   0  0  0  0  0  0
  -21.0849   -8.8765   19.8938 H   0  0  0  0  0  0
  -22.3702  -10.9668   19.6161 H   0  0  0  0  0  0
  -21.1995   -7.6146   23.9719 H   0  0  0  0  0  0
  -21.1473   -6.0521   25.9078 H   0  0  0  0  0  0
  -22.0605   -2.7619   23.2841 H   0  0  0  0  0  0
  -22.4107  -11.9874   22.4763 H   0  0  0  0  0  0
  -21.1125  -13.1255   22.2581 H   0  0  0  0  0  0
  -24.6684  -15.8430   20.5145 H   0  0  0  0  0  0
  -26.2919  -15.6245   20.0963 H   0  0  0  0  0  0
  -26.7117  -32.5546   23.1189 H   0  0  0  0  0  0
  -25.0068  -33.9789   25.0500 H   0  0  0  0  0  0
  -22.6906  -31.3062   21.4120 H   0  0  0  0  0  0
  -23.3753  -35.9626   23.3300 H   0  0  0  0  0  0
  -24.3576  -36.8928   22.2060 H   0  0  0  0  0  0
  -23.7212  -37.6499   23.6665 H   0  0  0  0  0  0
  -26.0425  -31.5972   20.5956 H   0  0  0  0  0  0
  -26.8191  -30.8888   21.9843 H   0  0  0  0  0  0
  -28.1077  -29.1128   21.1609 H   0  0  0  0  0  0
  -26.0840  -25.9713   19.0157 H   0  0  0  0  0  0
  -23.9833  -27.2890   19.0388 H   0  0  0  0  0  0
  -23.7166  -30.5928   19.4057 H   0  0  0  0  0  0
  -22.7370  -29.2357   19.8751 H   0  0  0  0  0  0
  -25.1270  -36.1989   25.0835 H   0  0  0  0  0  0
  -20.9939  -28.3216   24.1454 H   0  0  0  0  0  0
  -20.5670  -26.2259   23.3597 H   0  0  0  0  0  0
  -21.6628  -26.7447   22.1213 H   0  0  0  0  0  0
  -19.6895  -25.6295   21.1230 H   0  0  0  0  0  0
  -19.6678  -27.3198   20.6746 H   0  0  0  0  0  0
  -17.4191  -26.6709   21.4000 H   0  0  0  0  0  0
  -18.0284  -26.0053   22.8989 H   0  0  0  0  0  0
  -19.7920  -30.7255   24.2287 H   0  0  0  0  0  0
  -17.5004  -31.6267   24.5158 H   0  0  0  0  0  0
  -15.5344  -30.2990   23.7645 H   0  0  0  0  0  0
  -15.8658  -28.0819   22.7071 H   0  0  0  0  0  0
  -24.5905  -30.7020   25.7786 H   0  0  0  0  0  0
  -24.8900  -32.2816   26.4941 H   0  0  0  0  0  0
  -25.8069  -30.8821   27.0219 H   0  0  0  0  0  0
  -26.2877  -29.6814   24.1129 H   0  0  0  0  0  0
  -27.4064  -29.7271   25.4566 H   0  0  0  0  0  0
  -27.8711  -30.4389   23.9282 H   0  0  0  0  0  0
  -27.2646  -33.3594   26.2127 H   0  0  0  0  0  0
  -28.3828  -32.6899   25.0336 H   0  0  0  0  0  0
  -28.0715  -31.8414   26.5401 H   0  0  0  0  0  0
  -28.2593  -38.0118   24.7522 H   0  0  0  0  0  0
  -28.1072  -36.2648   24.6283 H   0  0  0  0  0  0
  -27.2297  -37.1459   25.8872 H   0  0  0  0  0  0
  -20.9305  -29.8751   21.6962 H   0  0  0  0  0  0
  -26.0177  -38.2876   24.1404 H   0  0  0  0  0  0
  -31.0451  -21.8634   21.9763 H   0  0  0  0  0  0
  -28.4010  -22.1701   18.5841 H   0  0  0  0  0  0
  -31.2124  -23.6688   23.4904 H   0  0  0  0  0  0
  -29.8004  -24.7110   23.6151 H   0  0  0  0  0  0
  -31.2067  -25.2261   22.6721 H   0  0  0  0  0  0
  -31.0058  -20.3903   19.1697 H   0  0  0  0  0  0
  -29.3040  -20.0101   19.1302 H   0  0  0  0  0  0
  -29.3359  -26.3819   21.8048 H   0  0  0  0  0  0
  -27.6988  -25.7819   21.8012 H   0  0  0  0  0  0
  -28.9820  -15.6261   21.2868 H   0  0  0  0  0  0
  -30.0655  -15.1248   22.5555 H   0  0  0  0  0  0
  -31.7495  -16.8952   21.6320 H   0  0  0  0  0  0
  -30.3596  -17.3904   22.5361 H   0  0  0  0  0  0
  -29.2145  -17.7154   20.1327 H   0  0  0  0  0  0
  -30.8702  -17.7720   19.5748 H   0  0  0  0  0  0
  -29.5720  -19.5021   21.5637 H   0  0  0  0  0  0
  -31.1829  -19.5261   21.3079 H   0  0  0  0  0  0
  1 25  1  0  0  0
  1 30  2  0  0  0
  1 79  1  0  0  0
  2  3  1  0  0  0
  2 25  1  0  0  0
  2 84  1  0  0  0
  2 85  1  0  0  0
  3  4  1  0  0  0
  3 86  1  0  0  0
  3 87  1  0  0  0
  4  5  1  0  0  0
  4 88  1  0  0  0
  4 89  1  0  0  0
  5  6  1  0  0  0
  5 26  1  0  0  0
  5 90  1  0  0  0
  6 25  1  0  0  0
  6 91  1  0  0  0
  6 92  1  0  0  0
  7  8  2  0  0  0
  7 26  1  0  0  0
  7 29  1  0  0  0
  8  9  1  0  0  0
  8 22  1  0  0  0
  9 10  1  0  0  0
  9 27  2  0  0  0
 10 11  2  0  0  0
 10 15  1  0  0  0
 11 12  1  0  0  0
 11 93  1  0  0  0
 12 13  2  0  0  0
 12 94  1  0  0  0
 13 14  1  0  0  0
 13 31  1  0  0  0
 14 15  2  0  0  0
 14 95  1  0  0  0
 15 96  1  0  0  0
 16 17  2  0  0  0
 16 21  1  0  0  0
 16 31  1  0  0  0
 17 18  1  0  0  0
 17 97  1  0  0  0
 18 19  2  0  0  0
 18 98  1  0  0  0
 19 20  1  0  0  0
 19 24  1  0  0  0
 20 21  2  0  0  0
 20 99  1  0  0  0
 21 23  1  0  0  0
 22 28  1  0  0  0
 22 32  2  0  0  0
 26 27  1  0  0  0
 28100  1  0  0  0
 28101  1  0  0  0
 29102  1  0  0  0
 29103  1  0  0  0
 33 34  1  0  0  0
 33 66  1  0  0  0
 33 70  2  0  0  0
 34 36  1  0  0  0
 34 59  1  0  0  0
 34104  1  0  0  0
 35 44  2  0  0  0
 35 45  1  0  0  0
 35 68  1  0  0  0
 36 56  1  0  0  0
 36105  1  0  0  0
 37 39  1  0  0  0
 37 47  1  0  0  0
 37 66  1  0  0  0
 37106  1  0  0  0
 38 43  2  0  0  0
 38 46  1  0  0  0
 38 47  1  0  0  0
 39 64  1  0  0  0
 39 67  2  0  0  0
 40 52  1  0  0  0
 40 53  2  0  0  0
 40 58  1  0  0  0
 41107  1  0  0  0
 41108  1  0  0  0
 41109  1  0  0  0
 41 48  1  0  0  0
 42 43  1  0  0  0
 42 66  1  0  0  0
 42110  1  0  0  0
 42111  1  0  0  0
 43 44  1  0  0  0
 44112  1  0  0  0
 45 46  2  0  0  0
 45113  1  0  0  0
 46114  1  0  0  0
 47115  1  0  0  0
 47116  1  0  0  0
 48 56  1  0  0  0
 48 65  1  0  0  0
 48117  1  0  0  0
 49 50  1  0  0  0
 49 53  1  0  0  0
 49 64  1  0  0  0
 49118  1  0  0  0
 50 51  1  0  0  0
 50119  1  0  0  0
 50120  1  0  0  0
 51 52  1  0  0  0
 51121  1  0  0  0
 51122  1  0  0  0
 52123  1  0  0  0
 52124  1  0  0  0
 53 54  1  0  0  0
 54 55  2  0  0  0
 54125  1  0  0  0
 55 57  1  0  0  0
 55126  1  0  0  0
 56 69  2  0  0  0
 57 58  2  0  0  0
 57127  1  0  0  0
 58128  1  0  0  0
 59 60  1  0  0  0
 59 61  1  0  0  0
 59 62  1  0  0  0
 60129  1  0  0  0
 60130  1  0  0  0
 60131  1  0  0  0
 61132  1  0  0  0
 61133  1  0  0  0
 61134  1  0  0  0
 62135  1  0  0  0
 62136  1  0  0  0
 62137  1  0  0  0
 63 65  1  0  0  0
 63138  1  0  0  0
 63139  1  0  0  0
 63140  1  0  0  0
 64141  1  0  0  0
 65142  1  0  0  0
 68 78  1  0  0  0
 71 73  2  0  0  0
 71 74  1  0  0  0
 71143  1  0  0  0
 72 73  1  0  0  0
 72 82  2  0  0  0
 72144  1  0  0  0
 73 77  1  0  0  0
 74 75  2  0  0  0
 74 76  1  0  0  0
 75 78  1  0  0  0
 75 82  1  0  0  0
 76145  1  0  0  0
 76146  1  0  0  0
 76147  1  0  0  0
 77 83  1  0  0  0
 77148  1  0  0  0
 77149  1  0  0  0
 78150  1  0  0  0
 78151  1  0  0  0
 79 80  1  0  0  0
 79152  1  0  0  0
 79153  1  0  0  0
 80 81  1  0  0  0
 80154  1  0  0  0
 80155  1  0  0  0
 81 83  1  0  0  0
 81156  1  0  0  0
 81157  1  0  0  0
 83158  1  0  0  0
 83159  1  0  0  0
M  CHG  1  83   1
M  ISO  4   1 100  68 101  78 101  79 100
M  END
> <chiral flag>
0

> <version>
0

> <s_m_source_file>
/data/baiqing/PycharmProjects/Reinvent-master-3.2/result/LINK_invent/BTK/process_docking_weight1_custom_sum_contain_oxygen_bond_distance_aromatic_linkinvent_7_9_3/rearranged_h_0047.sdf

> <i_m_source_file_index>
88

> <r_mmod_Potential_Energy-OPLS-2005>
-321.766815185547

> <r_mmod_Stretch_Energy-OPLS-2005>
38.6244506835938

> <r_mmod_Bend_Energy-OPLS-2005>
94.5655136108398

> <r_mmod_Torsional_Energy-OPLS-2005>
196.224838256836

> <r_mmod_Improper_Torsional_Energy-OPLS-2005>
2.04550123214722

> <r_mmod_Van_der_Waal_Energy-OPLS-2005>
147.772445678711

> <r_mmod_Electrostatic_Energy-OPLS-2005>
-340.151123046875

> <r_mmod_Solvation_Energy-OPLS-2005>
-470.831451416016

> <b_mmod_Minimization_Converged-OPLS-2005>
0

> <r_mmod_RMS_Derivative-OPLS-2005>
1.06370639801025

$$$$
88
                    3D
 Structure written by MMmdl.
168176  0  0  1  0            999 V2000
  -30.5911  -14.7584   20.4605 C   0  0  0  0  0  0
  -30.4392  -12.4662   19.4620 C   0  0  0  0  0  0
  -29.5092  -12.5064   18.2291 C   0  0  0  0  0  0
  -28.0364  -12.3249   18.6482 C   0  0  0  0  0  0
  -27.6410  -13.2283   19.8464 C   0  0  2  0  0  0
  -28.6879  -13.1603   20.9782 C   0  0  0  0  0  0
  -25.2516  -13.8190   20.5691 C   0  0  0  0  0  0
  -24.1808  -13.0438   20.9214 C   0  0  0  0  0  0
  -24.6397  -11.6915   20.8755 C   0  0  0  0  0  0
  -23.9075  -10.4291   21.0412 C   0  0  0  0  0  0
  -24.3625   -9.4206   21.9188 C   0  0  0  0  0  0
  -23.6297   -8.2242   22.0756 C   0  0  0  0  0  0
  -22.4279   -8.0282   21.3546 C   0  0  0  0  0  0
  -21.9918   -9.0257   20.4649 C   0  0  0  0  0  0
  -22.7249  -10.2135   20.3058 C   0  0  0  0  0  0
  -21.6853   -6.0739   22.5281 C   0  0  0  0  0  0
  -21.4012   -6.5641   23.8214 C   0  0  0  0  0  0
  -21.3658   -5.6793   24.9175 C   0  0  0  0  0  0
  -21.6043   -4.3057   24.7225 C   0  0  0  0  0  0
  -21.8818   -3.8149   23.4346 C   0  0  0  0  0  0
  -21.9192   -4.6966   22.3403 C   0  0  0  0  0  0
  -22.7828  -13.5221   21.1871 C   0  0  0  0  0  0
  -22.1661   -4.2153   21.0981 F   0  0  0  0  0  0
  -21.5629   -3.4538   25.7737 F   0  0  0  0  0  0
  -29.9833  -13.5244   20.3907 N   0  0  0  0  0  0
  -26.2936  -12.9389   20.3266 N   0  0  0  0  0  0
  -25.9323  -11.6537   20.5750 N   0  0  0  0  0  0
  -22.0473  -12.8209   22.0424 N   0  0  0  0  0  0
  -25.4193  -15.1913   20.4097 N   0  0  0  0  0  0
  -31.7878  -14.8725   20.1820 O   0  0  0  0  0  0
  -21.6640   -6.8882   21.4243 O   0  0  0  0  0  0
  -22.3512  -14.5528   20.6718 O   0  0  0  0  0  0
  -24.6319  -31.8539   23.1954 C   0  0  0  0  0  0
  -25.9140  -32.4751   23.8307 C   0  0  1  0  0  0
  -27.2222  -27.2550   20.1374 C   0  0  0  0  0  0
  -25.5931  -33.8551   24.2235 N   0  0  0  0  0  0
  -23.4297  -30.4740   21.5391 C   0  0  2  0  0  0
  -24.8779  -28.9123   20.1148 C   0  0  0  0  0  0
  -22.7504  -29.4599   22.4908 C   0  0  0  0  0  0
  -18.0292  -28.1398   22.8485 C   0  0  0  0  0  0
  -24.1488  -36.7275   23.2643 C   0  0  0  0  0  0
  -25.9753  -30.7649   21.3747 C   0  0  0  0  0  0
  -26.0501  -29.3845   20.7209 C   0  0  0  0  0  0
  -27.2285  -28.5698   20.7153 C   0  0  0  0  0  0
  -26.0285  -26.8433   19.5120 C   0  0  0  0  0  0
  -24.8716  -27.6494   19.4997 C   0  0  0  0  0  0
  -23.6495  -29.8025   20.1577 C   0  0  0  0  0  0
  -25.4117  -36.3067   24.0328 C   0  0  1  0  0  0
  -20.5897  -28.3711   23.1267 C   0  0  2  0  0  0
  -20.6785  -26.9429   22.5405 C   0  0  0  0  0  0
  -19.5761  -26.6391   21.5212 C   0  0  0  0  0  0
  -18.1939  -26.7942   22.1622 C   0  0  0  0  0  0
  -19.1547  -28.8871   23.2872 C   0  0  0  0  0  0
  -18.9473  -30.1470   23.8894 C   0  0  0  0  0  0
  -17.6474  -30.6598   24.0569 C   0  0  0  0  0  0
  -25.9059  -34.9441   23.5083 C   0  0  0  0  0  0
  -16.5364  -29.9099   23.6340 C   0  0  0  0  0  0
  -16.7279  -28.6519   23.0357 C   0  0  0  0  0  0
  -26.4503  -31.6584   25.0703 C   0  0  0  0  0  0
  -25.3718  -31.3739   26.1418 C   0  0  0  0  0  0
  -27.0364  -30.3008   24.6193 C   0  0  0  0  0  0
  -27.6055  -32.4331   25.7479 C   0  0  0  0  0  0
  -27.5578  -37.1790   24.8468 C   0  0  0  0  0  0
  -21.4211  -29.3053   22.3651 N   0  0  0  0  0  0
  -26.4289  -37.3769   23.9413 N   0  0  0  0  0  0
  -24.6983  -31.0494   22.0931 N   0  0  0  0  0  0
  -23.4198  -28.8148   23.3020 O   0  0  0  0  0  0
  -28.3162  -26.3614   20.1370 O   0  0  0  0  0  0
  -26.5638  -34.8926   22.4658 O   0  0  0  0  0  0
  -23.5466  -32.1361   23.7243 O   0  0  0  0  0  0
  -31.4041  -21.4113   20.4020 C   0  0  0  0  0  0
  -30.0215  -21.3653   20.3649 C   0  0  0  0  0  0
  -30.7938  -23.3824   19.7888 C   0  0  0  0  0  0
  -30.8993  -24.7871   19.2836 C   0  0  0  0  0  0
  -32.8530  -20.6666   22.3139 C   0  0  0  0  0  0
  -27.9587  -18.0691   19.7547 C   0  0  0  0  0  0
  -30.1079  -18.6881   18.7020 C   0  0  0  0  0  0
  -32.4042  -20.3968   20.8733 C   0  0  0  0  0  0
  -29.2085  -20.0643   20.7505 C   0  0  0  0  0  0
  -28.3205  -23.5334   20.0367 C   0  0  0  0  0  0
  -30.1108  -17.3539   20.9032 C   0  0  0  0  0  0
  -28.1517  -24.9965   20.7558 C   0  0  0  0  0  0
  -29.3899  -18.5640   20.0609 C   0  0  0  0  0  0
  -31.8699  -22.6437   19.9857 N   0  0  0  0  0  0
  -29.6320  -22.7640   20.1033 N   0  0  0  0  0  0
  -29.7857  -15.8719   20.6588 N   0  0  0  0  0  0
  -31.4767  -12.6091   19.1547 H   0  0  0  0  0  0
  -30.4006  -11.4896   19.9470 H   0  0  0  0  0  0
  -29.7930  -11.7314   17.5158 H   0  0  0  0  0  0
  -29.6278  -13.4587   17.7099 H   0  0  0  0  0  0
  -27.8999  -11.2771   18.9179 H   0  0  0  0  0  0
  -27.3751  -12.5081   17.8007 H   0  0  0  0  0  0
  -27.6339  -14.2486   19.4626 H   0  0  0  0  0  0
  -28.7306  -12.1596   21.4108 H   0  0  0  0  0  0
  -28.4222  -13.8347   21.7940 H   0  0  0  0  0  0
  -25.2769   -9.5679   22.4765 H   0  0  0  0  0  0
  -24.0004   -7.4632   22.7474 H   0  0  0  0  0  0
  -21.0851   -8.8780   19.8951 H   0  0  0  0  0  0
  -22.3713  -10.9677   19.6167 H   0  0  0  0  0  0
  -21.2004   -7.6149   23.9720 H   0  0  0  0  0  0
  -21.1480   -6.0523   25.9080 H   0  0  0  0  0  0
  -22.0599   -2.7612   23.2845 H   0  0  0  0  0  0
  -22.4086  -11.9864   22.4803 H   0  0  0  0  0  0
  -21.1092  -13.1234   22.2631 H   0  0  0  0  0  0
  -24.6462  -15.8391   20.5167 H   0  0  0  0  0  0
  -26.2549  -15.6330   20.0508 H   0  0  0  0  0  0
  -26.7204  -32.5400   23.1047 H   0  0  0  0  0  0
  -25.0071  -33.9683   25.0377 H   0  0  0  0  0  0
  -22.7272  -31.2966   21.3889 H   0  0  0  0  0  0
  -23.3761  -35.9597   23.3301 H   0  0  0  0  0  0
  -24.3574  -36.8898   22.2057 H   0  0  0  0  0  0
  -23.7226  -37.6467   23.6671 H   0  0  0  0  0  0
  -26.1115  -31.5230   20.6019 H   0  0  0  0  0  0
  -26.8537  -30.8175   22.0066 H   0  0  0  0  0  0
  -28.1303  -28.9279   21.1917 H   0  0  0  0  0  0
  -25.9861  -25.8719   19.0401 H   0  0  0  0  0  0
  -23.9737  -27.2804   19.0230 H   0  0  0  0  0  0
  -23.7767  -30.5757   19.3993 H   0  0  0  0  0  0
  -22.7679  -29.2362   19.8527 H   0  0  0  0  0  0
  -25.1299  -36.1909   25.0821 H   0  0  0  0  0  0
  -20.9987  -28.3294   24.1389 H   0  0  0  0  0  0
  -20.5693  -26.2323   23.3610 H   0  0  0  0  0  0
  -21.6653  -26.7460   22.1195 H   0  0  0  0  0  0
  -19.6926  -25.6299   21.1251 H   0  0  0  0  0  0
  -19.6702  -27.3200   20.6743 H   0  0  0  0  0  0
  -17.4207  -26.6689   21.4025 H   0  0  0  0  0  0
  -18.0340  -26.0084   22.9020 H   0  0  0  0  0  0
  -19.7951  -30.7284   24.2261 H   0  0  0  0  0  0
  -17.5034  -31.6281   24.5169 H   0  0  0  0  0  0
  -15.5368  -30.3007   23.7670 H   0  0  0  0  0  0
  -15.8676  -28.0841   22.7078 H   0  0  0  0  0  0
  -24.5899  -30.7087   25.7732 H   0  0  0  0  0  0
  -24.8908  -32.2913   26.4821 H   0  0  0  0  0  0
  -25.8021  -30.8920   27.0207 H   0  0  0  0  0  0
  -26.2954  -29.6736   24.1222 H   0  0  0  0  0  0
  -27.4064  -29.7284   25.4710 H   0  0  0  0  0  0
  -27.8818  -30.4292   23.9430 H   0  0  0  0  0  0
  -27.2665  -33.3644   26.2030 H   0  0  0  0  0  0
  -28.3877  -32.6869   25.0312 H   0  0  0  0  0  0
  -28.0713  -31.8473   26.5411 H   0  0  0  0  0  0
  -28.2591  -38.0092   24.7523 H   0  0  0  0  0  0
  -28.1076  -36.2622   24.6286 H   0  0  0  0  0  0
  -27.2296  -37.1424   25.8871 H   0  0  0  0  0  0
  -20.9402  -29.8756   21.6836 H   0  0  0  0  0  0
  -26.0165  -38.2841   24.1426 H   0  0  0  0  0  0
  -31.8502  -24.9344   18.7711 H   0  0  0  0  0  0
  -30.8524  -25.4923   20.1129 H   0  0  0  0  0  0
  -30.1045  -25.0097   18.5720 H   0  0  0  0  0  0
  -33.5800  -19.9229   22.6406 H   0  0  0  0  0  0
  -32.0050  -20.6295   22.9986 H   0  0  0  0  0  0
  -33.3150  -21.6500   22.4057 H   0  0  0  0  0  0
  -27.4085  -18.7848   19.1420 H   0  0  0  0  0  0
  -27.3883  -17.9182   20.6721 H   0  0  0  0  0  0
  -27.9554  -17.1282   19.2043 H   0  0  0  0  0  0
  -29.6198  -19.4227   18.0606 H   0  0  0  0  0  0
  -30.1109  -17.7374   18.1669 H   0  0  0  0  0  0
  -31.1474  -18.9916   18.8043 H   0  0  0  0  0  0
  -33.2746  -20.3908   20.2160 H   0  0  0  0  0  0
  -31.9974  -19.3965   20.8280 H   0  0  0  0  0  0
  -28.1593  -20.3475   20.6618 H   0  0  0  0  0  0
  -29.3271  -19.9227   21.8252 H   0  0  0  0  0  0
  -28.0327  -23.6177   18.9888 H   0  0  0  0  0  0
  -27.5748  -22.8734   20.4798 H   0  0  0  0  0  0
  -29.8866  -17.5189   21.9575 H   0  0  0  0  0  0
  -31.1928  -17.4463   20.8333 H   0  0  0  0  0  0
  -28.8054  -24.9923   21.6283 H   0  0  0  0  0  0
  -27.1547  -24.9841   21.1983 H   0  0  0  0  0  0
  -28.8121  -15.6406   20.7817 H   0  0  0  0  0  0
  1 25  1  0  0  0
  1 30  2  0  0  0
  1 86  1  0  0  0
  2  3  1  0  0  0
  2 25  1  0  0  0
  2 87  1  0  0  0
  2 88  1  0  0  0
  3  4  1  0  0  0
  3 89  1  0  0  0
  3 90  1  0  0  0
  4  5  1  0  0  0
  4 91  1  0  0  0
  4 92  1  0  0  0
  5  6  1  0  0  0
  5 26  1  0  0  0
  5 93  1  0  0  0
  6 25  1  0  0  0
  6 94  1  0  0  0
  6 95  1  0  0  0
  7  8  2  0  0  0
  7 26  1  0  0  0
  7 29  1  0  0  0
  8  9  1  0  0  0
  8 22  1  0  0  0
  9 10  1  0  0  0
  9 27  2  0  0  0
 10 11  2  0  0  0
 10 15  1  0  0  0
 11 12  1  0  0  0
 11 96  1  0  0  0
 12 13  2  0  0  0
 12 97  1  0  0  0
 13 14  1  0  0  0
 13 31  1  0  0  0
 14 15  2  0  0  0
 14 98  1  0  0  0
 15 99  1  0  0  0
 16 17  2  0  0  0
 16 21  1  0  0  0
 16 31  1  0  0  0
 17 18  1  0  0  0
 17100  1  0  0  0
 18 19  2  0  0  0
 18101  1  0  0  0
 19 20  1  0  0  0
 19 24  1  0  0  0
 20 21  2  0  0  0
 20102  1  0  0  0
 21 23  1  0  0  0
 22 28  1  0  0  0
 22 32  2  0  0  0
 26 27  1  0  0  0
 28103  1  0  0  0
 28104  1  0  0  0
 29105  1  0  0  0
 29106  1  0  0  0
 33 34  1  0  0  0
 33 66  1  0  0  0
 33 70  2  0  0  0
 34 36  1  0  0  0
 34 59  1  0  0  0
 34107  1  0  0  0
 35 44  2  0  0  0
 35 45  1  0  0  0
 35 68  1  0  0  0
 36 56  1  0  0  0
 36108  1  0  0  0
 37 39  1  0  0  0
 37 47  1  0  0  0
 37 66  1  0  0  0
 37109  1  0  0  0
 38 43  2  0  0  0
 38 46  1  0  0  0
 38 47  1  0  0  0
 39 64  1  0  0  0
 39 67  2  0  0  0
 40 52  1  0  0  0
 40 53  2  0  0  0
 40 58  1  0  0  0
 41110  1  0  0  0
 41111  1  0  0  0
 41112  1  0  0  0
 41 48  1  0  0  0
 42 43  1  0  0  0
 42 66  1  0  0  0
 42113  1  0  0  0
 42114  1  0  0  0
 43 44  1  0  0  0
 44115  1  0  0  0
 45 46  2  0  0  0
 45116  1  0  0  0
 46117  1  0  0  0
 47118  1  0  0  0
 47119  1  0  0  0
 48 56  1  0  0  0
 48 65  1  0  0  0
 48120  1  0  0  0
 49 50  1  0  0  0
 49 53  1  0  0  0
 49 64  1  0  0  0
 49121  1  0  0  0
 50 51  1  0  0  0
 50122  1  0  0  0
 50123  1  0  0  0
 51 52  1  0  0  0
 51124  1  0  0  0
 51125  1  0  0  0
 52126  1  0  0  0
 52127  1  0  0  0
 53 54  1  0  0  0
 54 55  2  0  0  0
 54128  1  0  0  0
 55 57  1  0  0  0
 55129  1  0  0  0
 56 69  2  0  0  0
 57 58  2  0  0  0
 57130  1  0  0  0
 58131  1  0  0  0
 59 60  1  0  0  0
 59 61  1  0  0  0
 59 62  1  0  0  0
 60132  1  0  0  0
 60133  1  0  0  0
 60134  1  0  0  0
 61135  1  0  0  0
 61136  1  0  0  0
 61137  1  0  0  0
 62138  1  0  0  0
 62139  1  0  0  0
 62140  1  0  0  0
 63 65  1  0  0  0
 63141  1  0  0  0
 63142  1  0  0  0
 63143  1  0  0  0
 64144  1  0  0  0
 65145  1  0  0  0
 68 82  1  0  0  0
 71 72  2  0  0  0
 71 78  1  0  0  0
 71 84  1  0  0  0
 72 79  1  0  0  0
 72 85  1  0  0  0
 73 74  1  0  0  0
 73 84  2  0  0  0
 73 85  1  0  0  0
 74146  1  0  0  0
 74147  1  0  0  0
 74148  1  0  0  0
 75 78  1  0  0  0
 75149  1  0  0  0
 75150  1  0  0  0
 75151  1  0  0  0
 76152  1  0  0  0
 76153  1  0  0  0
 76154  1  0  0  0
 76 83  1  0  0  0
 77 83  1  0  0  0
 77155  1  0  0  0
 77156  1  0  0  0
 77157  1  0  0  0
 78158  1  0  0  0
 78159  1  0  0  0
 79 83  1  0  0  0
 79160  1  0  0  0
 79161  1  0  0  0
 80 82  1  0  0  0
 80 85  1  0  0  0
 80162  1  0  0  0
 80163  1  0  0  0
 81 83  1  0  0  0
 81 86  1  0  0  0
 81164  1  0  0  0
 81165  1  0  0  0
 82166  1  0  0  0
 82167  1  0  0  0
 86168  1  0  0  0
M  ISO  4   1 100  68 101  82 101  86 100
M  END
> <chiral flag>
0

> <version>
0

> <s_m_source_file>
/data/baiqing/PycharmProjects/Reinvent-master-3.2/result/LINK_invent/BTK/process_docking_weight1_custom_sum_contain_oxygen_bond_distance_aromatic_linkinvent_7_9_3/rearranged_h_0047.sdf

> <i_m_source_file_index>
89

> <r_mmod_Potential_Energy-OPLS-2005>
158.868103027344

> <r_mmod_Stretch_Energy-OPLS-2005>
156.071533203125

> <r_mmod_Bend_Energy-OPLS-2005>
227.073593139648

> <r_mmod_Torsional_Energy-OPLS-2005>
253.650253295898

> <r_mmod_Improper_Torsional_Energy-OPLS-2005>
5.42514848709106

> <r_mmod_Van_der_Waal_Energy-OPLS-2005>
111.117111206055

> <r_mmod_Electrostatic_Energy-OPLS-2005>
-467.389831542969

> <r_mmod_Solvation_Energy-OPLS-2005>
-217.265441894531

> <b_mmod_Minimization_Converged-OPLS-2005>
0

> <r_mmod_RMS_Derivative-OPLS-2005>
0.634453356266022

$$$$
89
                    3D
 Structure written by MMmdl.
169177  0  0  1  0            999 V2000
  -30.7203  -14.4002   20.6630 C   0  0  0  0  0  0
  -30.4285  -12.2969   19.3913 C   0  0  0  0  0  0
  -29.4902  -12.5240   18.1898 C   0  0  0  0  0  0
  -28.0116  -12.3802   18.6039 C   0  0  0  0  0  0
  -27.6686  -13.1971   19.8782 C   0  0  2  0  0  0
  -28.7101  -12.9292   20.9877 C   0  0  0  0  0  0
  -25.2632  -13.8144   20.5669 C   0  0  0  0  0  0
  -24.1865  -13.0434   20.9160 C   0  0  0  0  0  0
  -24.6403  -11.6896   20.8722 C   0  0  0  0  0  0
  -23.9063  -10.4289   21.0400 C   0  0  0  0  0  0
  -24.3618   -9.4207   21.9179 C   0  0  0  0  0  0
  -23.6291   -8.2244   22.0755 C   0  0  0  0  0  0
  -22.4273   -8.0284   21.3546 C   0  0  0  0  0  0
  -21.9910   -9.0254   20.4645 C   0  0  0  0  0  0
  -22.7239  -10.2131   20.3049 C   0  0  0  0  0  0
  -21.6853   -6.0738   22.5283 C   0  0  0  0  0  0
  -21.4009   -6.5642   23.8215 C   0  0  0  0  0  0
  -21.3656   -5.6795   24.9178 C   0  0  0  0  0  0
  -21.6045   -4.3059   24.7228 C   0  0  0  0  0  0
  -21.8818   -3.8152   23.4350 C   0  0  0  0  0  0
  -21.9190   -4.6967   22.3408 C   0  0  0  0  0  0
  -22.7888  -13.5242   21.1821 C   0  0  0  0  0  0
  -22.1661   -4.2154   21.0984 F   0  0  0  0  0  0
  -21.5629   -3.4544   25.7740 F   0  0  0  0  0  0
  -30.0434  -13.2419   20.4472 N   0  0  0  0  0  0
  -26.3063  -12.9292   20.3368 N   0  0  0  0  0  0
  -25.9327  -11.6460   20.5745 N   0  0  0  0  0  0
  -22.0518  -12.8239   22.0372 N   0  0  0  0  0  0
  -25.4384  -15.1861   20.4087 N   0  0  0  0  0  0
  -31.7826  -14.6617   20.0888 O   0  0  0  0  0  0
  -21.6637   -6.8882   21.4244 O   0  0  0  0  0  0
  -22.3580  -14.5549   20.6669 O   0  0  0  0  0  0
  -24.6120  -31.8696   23.2104 C   0  0  0  0  0  0
  -25.9025  -32.4829   23.8394 C   0  0  1  0  0  0
  -27.2388  -27.4588   20.0966 C   0  0  0  0  0  0
  -25.5894  -33.8627   24.2324 N   0  0  0  0  0  0
  -23.3998  -30.4905   21.5506 C   0  0  2  0  0  0
  -24.8469  -28.9508   20.1227 C   0  0  0  0  0  0
  -22.7389  -29.4669   22.5009 C   0  0  0  0  0  0
  -18.0265  -28.1382   22.8489 C   0  0  0  0  0  0
  -24.1490  -36.7316   23.2642 C   0  0  0  0  0  0
  -25.9241  -30.8404   21.3598 C   0  0  0  0  0  0
  -26.0038  -29.4727   20.7162 C   0  0  0  0  0  0
  -27.2045  -28.7315   20.7025 C   0  0  0  0  0  0
  -26.0700  -26.9366   19.5083 C   0  0  0  0  0  0
  -24.8723  -27.6792   19.5206 C   0  0  0  0  0  0
  -23.6071  -29.8167   20.1675 C   0  0  0  0  0  0
  -25.4109  -36.3112   24.0339 C   0  0  1  0  0  0
  -20.5857  -28.3661   23.1332 C   0  0  2  0  0  0
  -20.6763  -26.9404   22.5427 C   0  0  0  0  0  0
  -19.5745  -26.6394   21.5221 C   0  0  0  0  0  0
  -18.1915  -26.7929   22.1623 C   0  0  0  0  0  0
  -19.1519  -28.8835   23.2904 C   0  0  0  0  0  0
  -18.9453  -30.1440   23.8911 C   0  0  0  0  0  0
  -17.6460  -30.6589   24.0566 C   0  0  0  0  0  0
  -25.9036  -34.9477   23.5129 C   0  0  0  0  0  0
  -16.5344  -29.9094   23.6333 C   0  0  0  0  0  0
  -16.7255  -28.6514   23.0343 C   0  0  0  0  0  0
  -26.4460  -31.6603   25.0717 C   0  0  0  0  0  0
  -25.3735  -31.3708   26.1473 C   0  0  0  0  0  0
  -27.0287  -30.3049   24.6074 C   0  0  0  0  0  0
  -27.6050  -32.4314   25.7467 C   0  0  0  0  0  0
  -27.5571  -37.1807   24.8459 C   0  0  0  0  0  0
  -21.4124  -29.3024   22.3733 N   0  0  0  0  0  0
  -26.4289  -37.3800   23.9406 N   0  0  0  0  0  0
  -24.6635  -31.0810   22.0998 N   0  0  0  0  0  0
  -23.4159  -28.8217   23.3059 O   0  0  0  0  0  0
  -28.4167  -26.7642   20.0084 O   0  0  0  0  0  0
  -26.5610  -34.8922   22.4693 O   0  0  0  0  0  0
  -23.5323  -32.1444   23.7516 O   0  0  0  0  0  0
  -30.4881  -22.4463   22.6588 C   0  0  0  0  0  0
  -30.3081  -21.3922   21.7213 C   0  0  0  0  0  0
  -29.5660  -21.9703   20.7226 C   0  0  0  0  0  0
  -29.0403  -21.3891   19.4503 C   0  0  0  0  0  0
  -32.2114  -16.4900   25.9874 C   0  0  0  0  0  0
  -30.8581  -19.9887   21.8552 C   0  0  0  0  0  0
  -30.1148  -15.4369   21.6285 C   0  0  0  0  0  0
  -31.4105  -16.3691   24.6849 C   0  0  0  0  0  0
  -28.6889  -24.3488   20.2964 C   0  0  0  0  0  0
  -29.8007  -18.9896   22.3812 C   0  0  0  0  0  0
  -30.8362  -16.8056   21.6633 C   0  0  0  0  0  0
  -31.2461  -17.7201   23.9619 C   0  0  0  0  0  0
  -28.6166  -25.7378   20.9779 C   0  0  0  0  0  0
  -29.9190  -23.5740   22.2724 N   0  0  0  0  0  0
  -29.3595  -23.2985   21.0716 N   0  0  0  0  0  0
  -30.3359  -17.6553   22.7840 N   0  3  1  0  0  0
  -31.4702  -12.4128   19.0864 H   0  0  0  0  0  0
  -30.3414  -11.2731   19.7588 H   0  0  0  0  0  0
  -29.7261  -11.8217   17.3895 H   0  0  0  0  0  0
  -29.6597  -13.5212   17.7804 H   0  0  0  0  0  0
  -27.8129  -11.3218   18.7758 H   0  0  0  0  0  0
  -27.3619  -12.6797   17.7809 H   0  0  0  0  0  0
  -27.7277  -14.2517   19.6091 H   0  0  0  0  0  0
  -28.6799  -11.8788   21.2816 H   0  0  0  0  0  0
  -28.4639  -13.4820   21.8936 H   0  0  0  0  0  0
  -25.2769   -9.5679   22.4745 H   0  0  0  0  0  0
  -24.0003   -7.4637   22.7475 H   0  0  0  0  0  0
  -21.0843   -8.8771   19.8951 H   0  0  0  0  0  0
  -22.3707  -10.9664   19.6149 H   0  0  0  0  0  0
  -21.1998   -7.6150   23.9719 H   0  0  0  0  0  0
  -21.1478   -6.0528   25.9080 H   0  0  0  0  0  0
  -22.0598   -2.7613   23.2851 H   0  0  0  0  0  0
  -22.4127  -11.9902   22.4765 H   0  0  0  0  0  0
  -21.1124  -13.1254   22.2543 H   0  0  0  0  0  0
  -24.6742  -15.8444   20.5166 H   0  0  0  0  0  0
  -26.2916  -15.6209   20.0801 H   0  0  0  0  0  0
  -26.7095  -32.5552   23.1163 H   0  0  0  0  0  0
  -25.0025  -33.9790   25.0453 H   0  0  0  0  0  0
  -22.6888  -31.3062   21.4079 H   0  0  0  0  0  0
  -23.3744  -35.9658   23.3327 H   0  0  0  0  0  0
  -24.3575  -36.8918   22.2050 H   0  0  0  0  0  0
  -23.7253  -37.6532   23.6645 H   0  0  0  0  0  0
  -26.0287  -31.6024   20.5864 H   0  0  0  0  0  0
  -26.8157  -30.9012   21.9727 H   0  0  0  0  0  0
  -28.1042  -29.1365   21.1449 H   0  0  0  0  0  0
  -26.0929  -25.9688   19.0283 H   0  0  0  0  0  0
  -23.9826  -27.2719   19.0593 H   0  0  0  0  0  0
  -23.7129  -30.5874   19.4032 H   0  0  0  0  0  0
  -22.7326  -29.2324   19.8760 H   0  0  0  0  0  0
  -25.1282  -36.1979   25.0834 H   0  0  0  0  0  0
  -20.9940  -28.3233   24.1457 H   0  0  0  0  0  0
  -20.5695  -26.2263   23.3609 H   0  0  0  0  0  0
  -21.6630  -26.7470   22.1200 H   0  0  0  0  0  0
  -19.6924  -25.6318   21.1226 H   0  0  0  0  0  0
  -19.6695  -27.3226   20.6771 H   0  0  0  0  0  0
  -17.4195  -26.6690   21.4008 H   0  0  0  0  0  0
  -18.0292  -26.0063   22.9012 H   0  0  0  0  0  0
  -19.7934  -30.7243   24.2287 H   0  0  0  0  0  0
  -17.5024  -31.6270   24.5166 H   0  0  0  0  0  0
  -15.5348  -30.3002   23.7656 H   0  0  0  0  0  0
  -15.8655  -28.0843   22.7047 H   0  0  0  0  0  0
  -24.5905  -30.7057   25.7813 H   0  0  0  0  0  0
  -24.8922  -32.2865   26.4921 H   0  0  0  0  0  0
  -25.8088  -30.8876   27.0229 H   0  0  0  0  0  0
  -26.2821  -29.6809   24.1149 H   0  0  0  0  0  0
  -27.4097  -29.7280   25.4512 H   0  0  0  0  0  0
  -27.8633  -30.4376   23.9184 H   0  0  0  0  0  0
  -27.2687  -33.3608   26.2068 H   0  0  0  0  0  0
  -28.3837  -32.6888   25.0276 H   0  0  0  0  0  0
  -28.0743  -31.8426   26.5361 H   0  0  0  0  0  0
  -28.2601  -38.0091   24.7499 H   0  0  0  0  0  0
  -28.1053  -36.2624   24.6293 H   0  0  0  0  0  0
  -27.2284  -37.1470   25.8861 H   0  0  0  0  0  0
  -20.9289  -29.8724   21.6929 H   0  0  0  0  0  0
  -26.0179  -38.2878   24.1420 H   0  0  0  0  0  0
  -31.0234  -22.4255   23.5986 H   0  0  0  0  0  0
  -29.4150  -20.3784   19.2929 H   0  0  0  0  0  0
  -29.3365  -21.9901   18.5910 H   0  0  0  0  0  0
  -27.9516  -21.3406   19.4700 H   0  0  0  0  0  0
  -32.3306  -15.5145   26.4601 H   0  0  0  0  0  0
  -31.7088  -17.1431   26.7019 H   0  0  0  0  0  0
  -33.2083  -16.8942   25.8069 H   0  0  0  0  0  0
  -31.7157  -20.0095   22.5264 H   0  0  0  0  0  0
  -31.2536  -19.6389   20.9012 H   0  0  0  0  0  0
  -29.0740  -15.6086   21.3538 H   0  0  0  0  0  0
  -30.1149  -14.9829   22.6185 H   0  0  0  0  0  0
  -30.4318  -15.9469   24.9161 H   0  0  0  0  0  0
  -31.9158  -15.6537   24.0356 H   0  0  0  0  0  0
  -29.2298  -24.4420   19.3541 H   0  0  0  0  0  0
  -27.6841  -24.0086   20.0440 H   0  0  0  0  0  0
  -29.0189  -18.8530   21.6328 H   0  0  0  0  0  0
  -29.2993  -19.4226   23.2484 H   0  0  0  0  0  0
  -30.6813  -17.3036   20.7054 H   0  0  0  0  0  0
  -31.9161  -16.6758   21.7539 H   0  0  0  0  0  0
  -32.2241  -18.0985   23.6628 H   0  0  0  0  0  0
  -30.8451  -18.4421   24.6749 H   0  0  0  0  0  0
  -29.5653  -25.9789   21.4570 H   0  0  0  0  0  0
  -27.8590  -25.7446   21.7640 H   0  0  0  0  0  0
  -29.5111  -17.1840   23.1243 H   0  0  0  0  0  0
  1 25  1  0  0  0
  1 30  2  0  0  0
  1 77  1  0  0  0
  2  3  1  0  0  0
  2 25  1  0  0  0
  2 87  1  0  0  0
  2 88  1  0  0  0
  3  4  1  0  0  0
  3 89  1  0  0  0
  3 90  1  0  0  0
  4  5  1  0  0  0
  4 91  1  0  0  0
  4 92  1  0  0  0
  5  6  1  0  0  0
  5 26  1  0  0  0
  5 93  1  0  0  0
  6 25  1  0  0  0
  6 94  1  0  0  0
  6 95  1  0  0  0
  7  8  2  0  0  0
  7 26  1  0  0  0
  7 29  1  0  0  0
  8  9  1  0  0  0
  8 22  1  0  0  0
  9 10  1  0  0  0
  9 27  2  0  0  0
 10 11  2  0  0  0
 10 15  1  0  0  0
 11 12  1  0  0  0
 11 96  1  0  0  0
 12 13  2  0  0  0
 12 97  1  0  0  0
 13 14  1  0  0  0
 13 31  1  0  0  0
 14 15  2  0  0  0
 14 98  1  0  0  0
 15 99  1  0  0  0
 16 17  2  0  0  0
 16 21  1  0  0  0
 16 31  1  0  0  0
 17 18  1  0  0  0
 17100  1  0  0  0
 18 19  2  0  0  0
 18101  1  0  0  0
 19 20  1  0  0  0
 19 24  1  0  0  0
 20 21  2  0  0  0
 20102  1  0  0  0
 21 23  1  0  0  0
 22 28  1  0  0  0
 22 32  2  0  0  0
 26 27  1  0  0  0
 28103  1  0  0  0
 28104  1  0  0  0
 29105  1  0  0  0
 29106  1  0  0  0
 33 34  1  0  0  0
 33 66  1  0  0  0
 33 70  2  0  0  0
 34 36  1  0  0  0
 34 59  1  0  0  0
 34107  1  0  0  0
 35 44  2  0  0  0
 35 45  1  0  0  0
 35 68  1  0  0  0
 36 56  1  0  0  0
 36108  1  0  0  0
 37 39  1  0  0  0
 37 47  1  0  0  0
 37 66  1  0  0  0
 37109  1  0  0  0
 38 43  2  0  0  0
 38 46  1  0  0  0
 38 47  1  0  0  0
 39 64  1  0  0  0
 39 67  2  0  0  0
 40 52  1  0  0  0
 40 53  2  0  0  0
 40 58  1  0  0  0
 41110  1  0  0  0
 41111  1  0  0  0
 41112  1  0  0  0
 41 48  1  0  0  0
 42 43  1  0  0  0
 42 66  1  0  0  0
 42113  1  0  0  0
 42114  1  0  0  0
 43 44  1  0  0  0
 44115  1  0  0  0
 45 46  2  0  0  0
 45116  1  0  0  0
 46117  1  0  0  0
 47118  1  0  0  0
 47119  1  0  0  0
 48 56  1  0  0  0
 48 65  1  0  0  0
 48120  1  0  0  0
 49 50  1  0  0  0
 49 53  1  0  0  0
 49 64  1  0  0  0
 49121  1  0  0  0
 50 51  1  0  0  0
 50122  1  0  0  0
 50123  1  0  0  0
 51 52  1  0  0  0
 51124  1  0  0  0
 51125  1  0  0  0
 52126  1  0  0  0
 52127  1  0  0  0
 53 54  1  0  0  0
 54 55  2  0  0  0
 54128  1  0  0  0
 55 57  1  0  0  0
 55129  1  0  0  0
 56 69  2  0  0  0
 57 58  2  0  0  0
 57130  1  0  0  0
 58131  1  0  0  0
 59 60  1  0  0  0
 59 61  1  0  0  0
 59 62  1  0  0  0
 60132  1  0  0  0
 60133  1  0  0  0
 60134  1  0  0  0
 61135  1  0  0  0
 61136  1  0  0  0
 61137  1  0  0  0
 62138  1  0  0  0
 62139  1  0  0  0
 62140  1  0  0  0
 63 65  1  0  0  0
 63141  1  0  0  0
 63142  1  0  0  0
 63143  1  0  0  0
 64144  1  0  0  0
 65145  1  0  0  0
 68 83  1  0  0  0
 71 72  1  0  0  0
 71 84  2  0  0  0
 71146  1  0  0  0
 72 73  2  0  0  0
 72 76  1  0  0  0
 73 74  1  0  0  0
 73 85  1  0  0  0
 74147  1  0  0  0
 74148  1  0  0  0
 74149  1  0  0  0
 75 78  1  0  0  0
 75150  1  0  0  0
 75151  1  0  0  0
 75152  1  0  0  0
 76 80  1  0  0  0
 76153  1  0  0  0
 76154  1  0  0  0
 77 81  1  0  0  0
 77155  1  0  0  0
 77156  1  0  0  0
 78 82  1  0  0  0
 78157  1  0  0  0
 78158  1  0  0  0
 79 83  1  0  0  0
 79 85  1  0  0  0
 79159  1  0  0  0
 79160  1  0  0  0
 80161  1  0  0  0
 80162  1  0  0  0
 80 86  1  0  0  0
 81 86  1  0  0  0
 81163  1  0  0  0
 81164  1  0  0  0
 82 86  1  0  0  0
 82165  1  0  0  0
 82166  1  0  0  0
 83167  1  0  0  0
 83168  1  0  0  0
 84 85  1  0  0  0
 86169  1  0  0  0
M  CHG  1  86   1
M  ISO  4   1 100  68 101  77 100  83 101
M  END
> <chiral flag>
0

> <version>
0

> <s_m_source_file>
/data/baiqing/PycharmProjects/Reinvent-master-3.2/result/LINK_invent/BTK/process_docking_weight1_custom_sum_contain_oxygen_bond_distance_aromatic_linkinvent_7_9_3/rearranged_h_0047.sdf

> <i_m_source_file_index>
90

> <r_mmod_Potential_Energy-OPLS-2005>
-182.218002319336

> <r_mmod_Stretch_Energy-OPLS-2005>
33.6732788085938

> <r_mmod_Bend_Energy-OPLS-2005>
94.7470397949219

> <r_mmod_Torsional_Energy-OPLS-2005>
223.026596069336

> <r_mmod_Improper_Torsional_Energy-OPLS-2005>
2.05898785591125

> <r_mmod_Van_der_Waal_Energy-OPLS-2005>
125.025726318359

> <r_mmod_Electrostatic_Energy-OPLS-2005>
-217.925018310547

> <r_mmod_Solvation_Energy-OPLS-2005>
-450.002593994141

> <b_mmod_Minimization_Converged-OPLS-2005>
0

> <r_mmod_RMS_Derivative-OPLS-2005>
1.1543562412262

$$$$
90
                    3D
 Structure written by MMmdl.
156164  0  0  1  0            999 V2000
  -30.4676  -15.1252   20.4115 C   0  0  0  0  0  0
  -30.4488  -12.7032   19.5265 C   0  0  0  0  0  0
  -29.5387  -12.5631   18.2795 C   0  0  0  0  0  0
  -28.0758  -12.3125   18.6905 C   0  0  0  0  0  0
  -27.6230  -13.2627   19.8267 C   0  0  2  0  0  0
  -28.6563  -13.3529   20.9661 C   0  0  0  0  0  0
  -25.2445  -13.8234   20.5713 C   0  0  0  0  0  0
  -24.1773  -13.0440   20.9218 C   0  0  0  0  0  0
  -24.6408  -11.6930   20.8732 C   0  0  0  0  0  0
  -23.9094  -10.4295   21.0395 C   0  0  0  0  0  0
  -24.3637   -9.4211   21.9178 C   0  0  0  0  0  0
  -23.6304   -8.2249   22.0753 C   0  0  0  0  0  0
  -22.4285   -8.0287   21.3545 C   0  0  0  0  0  0
  -21.9925   -9.0261   20.4645 C   0  0  0  0  0  0
  -22.7261  -10.2135   20.3050 C   0  0  0  0  0  0
  -21.6857   -6.0739   22.5279 C   0  0  0  0  0  0
  -21.4017   -6.5642   23.8213 C   0  0  0  0  0  0
  -21.3660   -5.6794   24.9174 C   0  0  0  0  0  0
  -21.6044   -4.3056   24.7224 C   0  0  0  0  0  0
  -21.8819   -3.8149   23.4345 C   0  0  0  0  0  0
  -21.9194   -4.6966   22.3402 C   0  0  0  0  0  0
  -22.7793  -13.5202   21.1885 C   0  0  0  0  0  0
  -22.1661   -4.2152   21.0979 F   0  0  0  0  0  0
  -21.5628   -3.4539   25.7736 F   0  0  0  0  0  0
  -29.9219  -13.8211   20.3802 N   0  0  0  0  0  0
  -26.2863  -12.9485   20.3182 N   0  0  0  0  0  0
  -25.9341  -11.6602   20.5686 N   0  0  0  0  0  0
  -22.0453  -12.8183   22.0443 N   0  0  0  0  0  0
  -25.4118  -15.1967   20.4194 N   0  0  0  0  0  0
  -31.6683  -15.1613   20.1108 O   0  0  0  0  0  0
  -21.6645   -6.8885   21.4242 O   0  0  0  0  0  0
  -22.3466  -14.5504   20.6734 O   0  0  0  0  0  0
  -24.6560  -31.8330   23.1795 C   0  0  0  0  0  0
  -25.9277  -32.4638   23.8225 C   0  0  1  0  0  0
  -27.2136  -27.0100   20.1659 C   0  0  0  0  0  0
  -25.5976  -33.8449   24.2132 N   0  0  0  0  0  0
  -23.4660  -30.4503   21.5280 C   0  0  2  0  0  0
  -24.9175  -28.8590   20.1125 C   0  0  0  0  0  0
  -22.7633  -29.4494   22.4815 C   0  0  0  0  0  0
  -18.0317  -28.1403   22.8472 C   0  0  0  0  0  0
  -24.1493  -36.7227   23.2645 C   0  0  0  0  0  0
  -26.0325  -30.6660   21.3992 C   0  0  0  0  0  0
  -26.1016  -29.2657   20.7404 C   0  0  0  0  0  0
  -27.2482  -28.3614   20.7461 C   0  0  0  0  0  0
  -25.9993  -26.7449   19.4896 C   0  0  0  0  0  0
  -24.8874  -27.6160   19.4684 C   0  0  0  0  0  0
  -23.7008  -29.7766   20.1505 C   0  0  0  0  0  0
  -25.4130  -36.2997   24.0307 C   0  0  1  0  0  0
  -20.5939  -28.3743   23.1203 C   0  0  2  0  0  0
  -20.6798  -26.9433   22.5400 C   0  0  0  0  0  0
  -19.5770  -26.6379   21.5213 C   0  0  0  0  0  0
  -18.1953  -26.7939   22.1624 C   0  0  0  0  0  0
  -19.1577  -28.8893   23.2827 C   0  0  0  0  0  0
  -18.9489  -30.1484   23.8858 C   0  0  0  0  0  0
  -17.6483  -30.6596   24.0556 C   0  0  0  0  0  0
  -25.9091  -34.9377   23.5034 C   0  0  0  0  0  0
  -16.5374  -29.9084   23.6341 C   0  0  0  0  0  0
  -16.7300  -28.6504   23.0362 C   0  0  0  0  0  0
  -26.4550  -31.6550   25.0719 C   0  0  0  0  0  0
  -25.3696  -31.3778   26.1387 C   0  0  0  0  0  0
  -27.0436  -30.2928   24.6398 C   0  0  0  0  0  0
  -27.6054  -32.4344   25.7516 C   0  0  0  0  0  0
  -27.5572  -37.1773   24.8466 C   0  0  0  0  0  0
  -21.4310  -29.3051   22.3563 N   0  0  0  0  0  0
  -26.4283  -37.3724   23.9408 N   0  0  0  0  0  0
  -24.7390  -31.0072   22.0895 N   0  0  0  0  0  0
  -23.4219  -28.8047   23.3014 O   0  0  0  0  0  0
  -28.2140  -25.9263   20.2343 O   0  0  0  0  0  0
  -26.5687  -34.8894   22.4620 O   0  0  0  0  0  0
  -23.5647  -32.1262   23.6937 O   0  0  0  0  0  0
  -29.8239  -20.8266   21.2204 C   0  0  0  0  0  0
  -29.4221  -22.2475   21.1983 C   0  0  0  0  0  0
  -29.4115  -19.8020   20.2753 C   0  0  0  0  0  0
  -28.5753  -22.8466   20.1946 C   0  0  0  0  0  0
  -28.5498  -20.4847   19.3260 C   0  0  0  0  0  0
  -26.5949  -19.0502   18.6013 C   0  0  0  0  0  0
  -29.4323  -16.7687   22.2049 C   0  0  0  0  0  0
  -30.0748  -18.2175   20.1251 C   0  0  0  0  0  0
  -27.9284  -19.6865   18.1913 C   0  0  0  0  0  0
  -27.7891  -24.3758   20.1348 C   0  0  0  0  0  0
  -29.6497  -16.6207   20.6898 C   0  0  1  0  0  0
  -28.1702  -21.8470   19.3140 N   0  0  0  0  0  0
  -31.4766  -12.8841   19.2097 H   0  0  0  0  0  0
  -30.4777  -11.7694   20.0902 H   0  0  0  0  0  0
  -29.8931  -11.7541   17.6395 H   0  0  0  0  0  0
  -29.5991  -13.4751   17.6837 H   0  0  0  0  0  0
  -28.0002  -11.2775   19.0259 H   0  0  0  0  0  0
  -27.4147  -12.4035   17.8279 H   0  0  0  0  0  0
  -27.5659  -14.2513   19.3701 H   0  0  0  0  0  0
  -28.7795  -12.3904   21.4648 H   0  0  0  0  0  0
  -28.3061  -14.0480   21.7273 H   0  0  0  0  0  0
  -25.2782   -9.5686   22.4753 H   0  0  0  0  0  0
  -24.0010   -7.4642   22.7476 H   0  0  0  0  0  0
  -21.0854   -8.8782   19.8953 H   0  0  0  0  0  0
  -22.3718  -10.9673   19.6158 H   0  0  0  0  0  0
  -21.2011   -7.6151   23.9717 H   0  0  0  0  0  0
  -21.1482   -6.0524   25.9078 H   0  0  0  0  0  0
  -22.0596   -2.7611   23.2844 H   0  0  0  0  0  0
  -22.4086  -11.9850   22.4828 H   0  0  0  0  0  0
  -21.1068  -13.1193   22.2654 H   0  0  0  0  0  0
  -24.6473  -15.8509   20.5454 H   0  0  0  0  0  0
  -26.2681  -15.6414   20.1162 H   0  0  0  0  0  0
  -26.7345  -32.5202   23.0945 H   0  0  0  0  0  0
  -25.0087  -33.9545   25.0257 H   0  0  0  0  0  0
  -22.7750  -31.2802   21.3661 H   0  0  0  0  0  0
  -23.3765  -35.9547   23.3284 H   0  0  0  0  0  0
  -24.3574  -36.8889   22.2064 H   0  0  0  0  0  0
  -23.7238  -37.6409   23.6706 H   0  0  0  0  0  0
  -26.2052  -31.4136   20.6239 H   0  0  0  0  0  0
  -26.8958  -30.7180   22.0506 H   0  0  0  0  0  0
  -28.1445  -28.6696   21.2659 H   0  0  0  0  0  0
  -25.8559  -25.8054   18.9812 H   0  0  0  0  0  0
  -23.9878  -27.2999   18.9580 H   0  0  0  0  0  0
  -23.8504  -30.5497   19.3959 H   0  0  0  0  0  0
  -22.8119  -29.2284   19.8331 H   0  0  0  0  0  0
  -25.1325  -36.1807   25.0798 H   0  0  0  0  0  0
  -21.0028  -28.3341   24.1326 H   0  0  0  0  0  0
  -20.5687  -26.2359   23.3632 H   0  0  0  0  0  0
  -21.6662  -26.7421   22.1200 H   0  0  0  0  0  0
  -19.6929  -25.6280   21.1267 H   0  0  0  0  0  0
  -19.6705  -27.3168   20.6726 H   0  0  0  0  0  0
  -17.4220  -26.6680   21.4029 H   0  0  0  0  0  0
  -18.0351  -26.0091   22.9030 H   0  0  0  0  0  0
  -19.7964  -30.7312   24.2210 H   0  0  0  0  0  0
  -17.5035  -31.6272   24.5164 H   0  0  0  0  0  0
  -15.5372  -30.2972   23.7689 H   0  0  0  0  0  0
  -15.8701  -28.0807   22.7101 H   0  0  0  0  0  0
  -24.5890  -30.7111   25.7701 H   0  0  0  0  0  0
  -24.8869  -32.2971   26.4711 H   0  0  0  0  0  0
  -25.7947  -30.9014   27.0231 H   0  0  0  0  0  0
  -26.3089  -29.6623   24.1379 H   0  0  0  0  0  0
  -27.3969  -29.7266   25.5026 H   0  0  0  0  0  0
  -27.9030  -30.4129   23.9800 H   0  0  0  0  0  0
  -27.2630  -33.3680   26.1993 H   0  0  0  0  0  0
  -28.3919  -32.6849   25.0385 H   0  0  0  0  0  0
  -28.0662  -31.8537   26.5517 H   0  0  0  0  0  0
  -28.2576  -38.0082   24.7516 H   0  0  0  0  0  0
  -28.1082  -36.2610   24.6291 H   0  0  0  0  0  0
  -27.2289  -37.1414   25.8868 H   0  0  0  0  0  0
  -20.9546  -29.8756   21.6718 H   0  0  0  0  0  0
  -26.0137  -38.2785   24.1416 H   0  0  0  0  0  0
  -30.5050  -20.5245   22.0031 H   0  0  0  0  0  0
  -29.7746  -22.8862   21.9968 H   0  0  0  0  0  0
  -26.1603  -18.4881   17.7750 H   0  0  0  0  0  0
  -25.8761  -19.8116   18.9048 H   0  0  0  0  0  0
  -26.7307  -18.3653   19.4386 H   0  0  0  0  0  0
  -28.6062  -17.4492   22.4128 H   0  0  0  0  0  0
  -30.3226  -17.1762   22.6844 H   0  0  0  0  0  0
  -29.2077  -15.8231   22.6955 H   0  0  0  0  0  0
  -31.0860  -18.3576   20.5083 H   0  0  0  0  0  0
  -30.2520  -18.0905   19.0582 H   0  0  0  0  0  0
  -28.6154  -18.9191   17.8397 H   0  0  0  0  0  0
  -27.7678  -20.3428   17.3347 H   0  0  0  0  0  0
  -26.9735  -24.2736   20.8511 H   0  0  0  0  0  0
  -27.3115  -24.3109   19.1591 H   0  0  0  0  0  0
  -28.6684  -16.4273   20.2566 H   0  0  0  0  0  0
  1 25  1  0  0  0
  1 30  2  0  0  0
  1 81  1  0  0  0
  2  3  1  0  0  0
  2 25  1  0  0  0
  2 83  1  0  0  0
  2 84  1  0  0  0
  3  4  1  0  0  0
  3 85  1  0  0  0
  3 86  1  0  0  0
  4  5  1  0  0  0
  4 87  1  0  0  0
  4 88  1  0  0  0
  5  6  1  0  0  0
  5 26  1  0  0  0
  5 89  1  0  0  0
  6 25  1  0  0  0
  6 90  1  0  0  0
  6 91  1  0  0  0
  7  8  2  0  0  0
  7 26  1  0  0  0
  7 29  1  0  0  0
  8  9  1  0  0  0
  8 22  1  0  0  0
  9 10  1  0  0  0
  9 27  2  0  0  0
 10 11  2  0  0  0
 10 15  1  0  0  0
 11 12  1  0  0  0
 11 92  1  0  0  0
 12 13  2  0  0  0
 12 93  1  0  0  0
 13 14  1  0  0  0
 13 31  1  0  0  0
 14 15  2  0  0  0
 14 94  1  0  0  0
 15 95  1  0  0  0
 16 17  2  0  0  0
 16 21  1  0  0  0
 16 31  1  0  0  0
 17 18  1  0  0  0
 17 96  1  0  0  0
 18 19  2  0  0  0
 18 97  1  0  0  0
 19 20  1  0  0  0
 19 24  1  0  0  0
 20 21  2  0  0  0
 20 98  1  0  0  0
 21 23  1  0  0  0
 22 28  1  0  0  0
 22 32  2  0  0  0
 26 27  1  0  0  0
 28 99  1  0  0  0
 28100  1  0  0  0
 29101  1  0  0  0
 29102  1  0  0  0
 33 34  1  0  0  0
 33 66  1  0  0  0
 33 70  2  0  0  0
 34 36  1  0  0  0
 34 59  1  0  0  0
 34103  1  0  0  0
 35 44  2  0  0  0
 35 45  1  0  0  0
 35 68  1  0  0  0
 36 56  1  0  0  0
 36104  1  0  0  0
 37 39  1  0  0  0
 37 47  1  0  0  0
 37 66  1  0  0  0
 37105  1  0  0  0
 38 43  2  0  0  0
 38 46  1  0  0  0
 38 47  1  0  0  0
 39 64  1  0  0  0
 39 67  2  0  0  0
 40 52  1  0  0  0
 40 53  2  0  0  0
 40 58  1  0  0  0
 41106  1  0  0  0
 41107  1  0  0  0
 41108  1  0  0  0
 41 48  1  0  0  0
 42 43  1  0  0  0
 42 66  1  0  0  0
 42109  1  0  0  0
 42110  1  0  0  0
 43 44  1  0  0  0
 44111  1  0  0  0
 45 46  2  0  0  0
 45112  1  0  0  0
 46113  1  0  0  0
 47114  1  0  0  0
 47115  1  0  0  0
 48 56  1  0  0  0
 48 65  1  0  0  0
 48116  1  0  0  0
 49 50  1  0  0  0
 49 53  1  0  0  0
 49 64  1  0  0  0
 49117  1  0  0  0
 50 51  1  0  0  0
 50118  1  0  0  0
 50119  1  0  0  0
 51 52  1  0  0  0
 51120  1  0  0  0
 51121  1  0  0  0
 52122  1  0  0  0
 52123  1  0  0  0
 53 54  1  0  0  0
 54 55  2  0  0  0
 54124  1  0  0  0
 55 57  1  0  0  0
 55125  1  0  0  0
 56 69  2  0  0  0
 57 58  2  0  0  0
 57126  1  0  0  0
 58127  1  0  0  0
 59 60  1  0  0  0
 59 61  1  0  0  0
 59 62  1  0  0  0
 60128  1  0  0  0
 60129  1  0  0  0
 60130  1  0  0  0
 61131  1  0  0  0
 61132  1  0  0  0
 61133  1  0  0  0
 62134  1  0  0  0
 62135  1  0  0  0
 62136  1  0  0  0
 63 65  1  0  0  0
 63137  1  0  0  0
 63138  1  0  0  0
 63139  1  0  0  0
 64140  1  0  0  0
 65141  1  0  0  0
 68 80  1  0  0  0
 71 72  2  0  0  0
 71 73  1  0  0  0
 71142  1  0  0  0
 72 74  1  0  0  0
 72143  1  0  0  0
 73 75  2  0  0  0
 73 78  1  0  0  0
 74 80  1  0  0  0
 74 82  2  0  0  0
 75 79  1  0  0  0
 75 82  1  0  0  0
 76 79  1  0  0  0
 76144  1  0  0  0
 76145  1  0  0  0
 76146  1  0  0  0
 77147  1  0  0  0
 77148  1  0  0  0
 77149  1  0  0  0
 77 81  1  0  0  0
 78 81  1  0  0  0
 78150  1  0  0  0
 78151  1  0  0  0
 79152  1  0  0  0
 79153  1  0  0  0
 80154  1  0  0  0
 80155  1  0  0  0
 81156  1  0  0  0
M  ISO  4   1 100  68 101  80 101  81 100
M  END
> <chiral flag>
0

> <version>
0

> <s_m_source_file>
/data/baiqing/PycharmProjects/Reinvent-master-3.2/result/LINK_invent/BTK/process_docking_weight1_custom_sum_contain_oxygen_bond_distance_aromatic_linkinvent_7_9_3/rearranged_h_0047.sdf

> <i_m_source_file_index>
91

> <r_mmod_Potential_Energy-OPLS-2005>
820.574768066406

> <r_mmod_Stretch_Energy-OPLS-2005>
417.281036376953

> <r_mmod_Bend_Energy-OPLS-2005>
388.725860595703

> <r_mmod_Torsional_Energy-OPLS-2005>
194.378128051758

> <r_mmod_Improper_Torsional_Energy-OPLS-2005>
5.91229200363159

> <r_mmod_Van_der_Waal_Energy-OPLS-2005>
128.174530029297

> <r_mmod_Electrostatic_Energy-OPLS-2005>
-441.423126220703

> <r_mmod_Solvation_Energy-OPLS-2005>
-203.003387451172

> <b_mmod_Minimization_Converged-OPLS-2005>
0

> <r_mmod_RMS_Derivative-OPLS-2005>
0.147009924054146

$$$$
91
                    3D
 Structure written by MMmdl.
147155  0  0  1  0            999 V2000
  -30.4060  -15.3767   20.3593 C   0  0  0  0  0  0
  -30.4344  -12.8926   19.5208 C   0  0  0  0  0  0
  -29.5371  -12.5916   18.2925 C   0  0  0  0  0  0
  -28.0940  -12.2910   18.7311 C   0  0  0  0  0  0
  -27.6040  -13.2827   19.8140 C   0  0  2  0  0  0
  -28.6356  -13.5146   20.9389 C   0  0  0  0  0  0
  -25.2362  -13.8247   20.5772 C   0  0  0  0  0  0
  -24.1727  -13.0426   20.9278 C   0  0  0  0  0  0
  -24.6396  -11.6927   20.8766 C   0  0  0  0  0  0
  -23.9091  -10.4287   21.0405 C   0  0  0  0  0  0
  -24.3636   -9.4203   21.9184 C   0  0  0  0  0  0
  -23.6307   -8.2239   22.0752 C   0  0  0  0  0  0
  -22.4287   -8.0280   21.3544 C   0  0  0  0  0  0
  -21.9930   -9.0252   20.4643 C   0  0  0  0  0  0
  -22.7263  -10.2127   20.3053 C   0  0  0  0  0  0
  -21.6854   -6.0739   22.5282 C   0  0  0  0  0  0
  -21.4014   -6.5642   23.8216 C   0  0  0  0  0  0
  -21.3660   -5.6795   24.9178 C   0  0  0  0  0  0
  -21.6043   -4.3059   24.7228 C   0  0  0  0  0  0
  -21.8818   -3.8150   23.4349 C   0  0  0  0  0  0
  -21.9193   -4.6966   22.3404 C   0  0  0  0  0  0
  -22.7744  -13.5174   21.1923 C   0  0  0  0  0  0
  -22.1663   -4.2151   21.0983 F   0  0  0  0  0  0
  -21.5627   -3.4542   25.7740 F   0  0  0  0  0  0
  -29.8455  -14.0566   20.2924 N   0  0  0  0  0  0
  -26.2790  -12.9534   20.3210 N   0  0  0  0  0  0
  -25.9332  -11.6631   20.5710 N   0  0  0  0  0  0
  -22.0409  -12.8148   22.0473 N   0  0  0  0  0  0
  -25.3983  -15.1984   20.4215 N   0  0  0  0  0  0
  -31.6384  -15.3450   20.2150 O   0  0  0  0  0  0
  -21.6645   -6.8881   21.4243 O   0  0  0  0  0  0
  -22.3421  -14.5478   20.6767 O   0  0  0  0  0  0
  -24.6706  -31.8169   23.1652 C   0  0  0  0  0  0
  -25.9357  -32.4556   23.8138 C   0  0  1  0  0  0
  -27.2173  -26.8538   20.1965 C   0  0  0  0  0  0
  -25.6001  -33.8371   24.2046 N   0  0  0  0  0  0
  -23.4881  -30.4271   21.5167 C   0  0  2  0  0  0
  -24.9421  -28.8001   20.1189 C   0  0  0  0  0  0
  -22.7704  -29.4413   22.4766 C   0  0  0  0  0  0
  -18.0329  -28.1419   22.8466 C   0  0  0  0  0  0
  -24.1493  -36.7186   23.2646 C   0  0  0  0  0  0
  -26.0626  -30.6008   21.4054 C   0  0  0  0  0  0
  -26.1303  -29.1817   20.7547 C   0  0  0  0  0  0
  -27.2628  -28.2335   20.7639 C   0  0  0  0  0  0
  -25.9987  -26.6496   19.5069 C   0  0  0  0  0  0
  -24.9063  -27.5559   19.4723 C   0  0  0  0  0  0
  -23.7325  -29.7379   20.1465 C   0  0  0  0  0  0
  -25.4136  -36.2946   24.0294 C   0  0  1  0  0  0
  -20.5961  -28.3770   23.1175 C   0  0  2  0  0  0
  -20.6805  -26.9445   22.5405 C   0  0  0  0  0  0
  -19.5776  -26.6388   21.5217 C   0  0  0  0  0  0
  -18.1960  -26.7950   22.1626 C   0  0  0  0  0  0
  -19.1593  -28.8916   23.2807 C   0  0  0  0  0  0
  -18.9498  -30.1505   23.8843 C   0  0  0  0  0  0
  -17.6491  -30.6605   24.0557 C   0  0  0  0  0  0
  -25.9111  -34.9332   23.4994 C   0  0  0  0  0  0
  -16.5382  -29.9092   23.6348 C   0  0  0  0  0  0
  -16.7313  -28.6514   23.0365 C   0  0  0  0  0  0
  -26.4581  -31.6522   25.0689 C   0  0  0  0  0  0
  -25.3692  -31.3796   26.1335 C   0  0  0  0  0  0
  -27.0477  -30.2876   24.6467 C   0  0  0  0  0  0
  -27.6058  -32.4340   25.7497 C   0  0  0  0  0  0
  -27.5561  -37.1757   24.8470 C   0  0  0  0  0  0
  -21.4367  -29.3045   22.3512 N   0  0  0  0  0  0
  -26.4274  -37.3691   23.9405 N   0  0  0  0  0  0
  -24.7626  -30.9771   22.0823 N   0  0  0  0  0  0
  -23.4220  -28.7993   23.3040 O   0  0  0  0  0  0
  -28.1937  -25.6961   20.2228 O   0  0  0  0  0  0
  -26.5719  -34.8879   22.4588 O   0  0  0  0  0  0
  -23.5764  -32.1167   23.6713 O   0  0  0  0  0  0
  -28.9043  -21.2646   20.9954 C   0  0  0  0  0  0
  -29.2688  -19.9633   20.2477 C   0  0  0  0  0  0
  -28.5875  -22.4822   20.2266 C   0  0  0  0  0  0
  -28.6028  -22.4341   17.6849 C   0  0  0  0  0  0
  -29.9840  -18.3429   20.5824 C   0  0  0  0  0  0
  -27.7982  -24.0796   20.4520 C   0  0  0  0  0  0
  -29.1842  -20.4708   19.0025 N   0  0  0  0  0  0
  -28.7895  -21.8314   18.9907 N   0  0  0  0  0  0
  -29.6573  -16.6847   20.3954 N   0  0  0  0  0  0
  -31.4446  -13.1164   19.1761 H   0  0  0  0  0  0
  -30.5329  -12.0102   20.1552 H   0  0  0  0  0  0
  -29.9393  -11.7539   17.7209 H   0  0  0  0  0  0
  -29.5425  -13.4523   17.6218 H   0  0  0  0  0  0
  -28.0772  -11.2771   19.1329 H   0  0  0  0  0  0
  -27.4217  -12.2918   17.8719 H   0  0  0  0  0  0
  -27.4991  -14.2325   19.2881 H   0  0  0  0  0  0
  -28.8362  -12.5996   21.4977 H   0  0  0  0  0  0
  -28.2533  -14.2411   21.6575 H   0  0  0  0  0  0
  -25.2775   -9.5680   22.4770 H   0  0  0  0  0  0
  -24.0013   -7.4627   22.7472 H   0  0  0  0  0  0
  -21.0863   -8.8770   19.8946 H   0  0  0  0  0  0
  -22.3718  -10.9668   19.6165 H   0  0  0  0  0  0
  -21.2007   -7.6152   23.9719 H   0  0  0  0  0  0
  -21.1482   -6.0527   25.9080 H   0  0  0  0  0  0
  -22.0595   -2.7612   23.2849 H   0  0  0  0  0  0
  -22.4052  -11.9817   22.4852 H   0  0  0  0  0  0
  -21.1015  -13.1135   22.2680 H   0  0  0  0  0  0
  -24.6263  -15.8462   20.5367 H   0  0  0  0  0  0
  -26.2369  -15.6416   20.0708 H   0  0  0  0  0  0
  -26.7428  -32.5074   23.0850 H   0  0  0  0  0  0
  -25.0101  -33.9435   25.0168 H   0  0  0  0  0  0
  -22.8052  -31.2611   21.3407 H   0  0  0  0  0  0
  -23.3761  -35.9512   23.3295 H   0  0  0  0  0  0
  -24.3566  -36.8848   22.2064 H   0  0  0  0  0  0
  -23.7253  -37.6371   23.6712 H   0  0  0  0  0  0
  -26.2486  -31.3354   20.6208 H   0  0  0  0  0  0
  -26.9206  -30.6636   22.0627 H   0  0  0  0  0  0
  -28.1624  -28.5314   21.2835 H   0  0  0  0  0  0
  -25.8537  -25.7106   18.9940 H   0  0  0  0  0  0
  -24.0087  -27.2590   18.9471 H   0  0  0  0  0  0
  -23.8962  -30.5030   19.3867 H   0  0  0  0  0  0
  -22.8399  -29.1981   19.8258 H   0  0  0  0  0  0
  -25.1345  -36.1726   25.0785 H   0  0  0  0  0  0
  -21.0046  -28.3379   24.1301 H   0  0  0  0  0  0
  -20.5681  -26.2392   23.3654 H   0  0  0  0  0  0
  -21.6666  -26.7417   22.1211 H   0  0  0  0  0  0
  -19.6933  -25.6288   21.1281 H   0  0  0  0  0  0
  -19.6708  -27.3168   20.6722 H   0  0  0  0  0  0
  -17.4229  -26.6696   21.4031 H   0  0  0  0  0  0
  -18.0348  -26.0108   22.9038 H   0  0  0  0  0  0
  -19.7973  -30.7339   24.2185 H   0  0  0  0  0  0
  -17.5042  -31.6275   24.5176 H   0  0  0  0  0  0
  -15.5380  -30.2976   23.7705 H   0  0  0  0  0  0
  -15.8714  -28.0817   22.7109 H   0  0  0  0  0  0
  -24.5898  -30.7114   25.7655 H   0  0  0  0  0  0
  -24.8849  -32.3000   26.4599 H   0  0  0  0  0  0
  -25.7913  -30.9081   27.0218 H   0  0  0  0  0  0
  -26.3156  -29.6544   24.1442 H   0  0  0  0  0  0
  -27.3950  -29.7255   25.5146 H   0  0  0  0  0  0
  -27.9128  -30.4040   23.9936 H   0  0  0  0  0  0
  -27.2620  -33.3692   26.1927 H   0  0  0  0  0  0
  -28.3949  -32.6817   25.0385 H   0  0  0  0  0  0
  -28.0637  -31.8562   26.5539 H   0  0  0  0  0  0
  -28.2582  -38.0049   24.7490 H   0  0  0  0  0  0
  -28.1059  -36.2573   24.6336 H   0  0  0  0  0  0
  -27.2276  -37.1448   25.8875 H   0  0  0  0  0  0
  -20.9639  -29.8722   21.6616 H   0  0  0  0  0  0
  -26.0114  -38.2750   24.1398 H   0  0  0  0  0  0
  -28.8649  -21.2890   22.0754 H   0  0  0  0  0  0
  -27.8619  -23.2317   17.7363 H   0  0  0  0  0  0
  -28.2577  -21.6903   16.9658 H   0  0  0  0  0  0
  -29.5465  -22.8543   17.3365 H   0  0  0  0  0  0
  -30.2193  -18.3799   21.6461 H   0  0  0  0  0  0
  -30.9720  -18.4000   20.1246 H   0  0  0  0  0  0
  -27.4752  -24.0755   21.4926 H   0  0  0  0  0  0
  -26.8596  -23.9757   19.9110 H   0  0  0  0  0  0
  -28.6618  -16.5212   20.3856 H   0  0  0  0  0  0
  1 25  1  0  0  0
  1 30  2  0  0  0
  1 79  1  0  0  0
  2  3  1  0  0  0
  2 25  1  0  0  0
  2 80  1  0  0  0
  2 81  1  0  0  0
  3  4  1  0  0  0
  3 82  1  0  0  0
  3 83  1  0  0  0
  4  5  1  0  0  0
  4 84  1  0  0  0
  4 85  1  0  0  0
  5  6  1  0  0  0
  5 26  1  0  0  0
  5 86  1  0  0  0
  6 25  1  0  0  0
  6 87  1  0  0  0
  6 88  1  0  0  0
  7  8  2  0  0  0
  7 26  1  0  0  0
  7 29  1  0  0  0
  8  9  1  0  0  0
  8 22  1  0  0  0
  9 10  1  0  0  0
  9 27  2  0  0  0
 10 11  2  0  0  0
 10 15  1  0  0  0
 11 12  1  0  0  0
 11 89  1  0  0  0
 12 13  2  0  0  0
 12 90  1  0  0  0
 13 14  1  0  0  0
 13 31  1  0  0  0
 14 15  2  0  0  0
 14 91  1  0  0  0
 15 92  1  0  0  0
 16 17  2  0  0  0
 16 21  1  0  0  0
 16 31  1  0  0  0
 17 18  1  0  0  0
 17 93  1  0  0  0
 18 19  2  0  0  0
 18 94  1  0  0  0
 19 20  1  0  0  0
 19 24  1  0  0  0
 20 21  2  0  0  0
 20 95  1  0  0  0
 21 23  1  0  0  0
 22 28  1  0  0  0
 22 32  2  0  0  0
 26 27  1  0  0  0
 28 96  1  0  0  0
 28 97  1  0  0  0
 29 98  1  0  0  0
 29 99  1  0  0  0
 33 34  1  0  0  0
 33 66  1  0  0  0
 33 70  2  0  0  0
 34 36  1  0  0  0
 34 59  1  0  0  0
 34100  1  0  0  0
 35 44  2  0  0  0
 35 45  1  0  0  0
 35 68  1  0  0  0
 36 56  1  0  0  0
 36101  1  0  0  0
 37 39  1  0  0  0
 37 47  1  0  0  0
 37 66  1  0  0  0
 37102  1  0  0  0
 38 43  2  0  0  0
 38 46  1  0  0  0
 38 47  1  0  0  0
 39 64  1  0  0  0
 39 67  2  0  0  0
 40 52  1  0  0  0
 40 53  2  0  0  0
 40 58  1  0  0  0
 41103  1  0  0  0
 41104  1  0  0  0
 41105  1  0  0  0
 41 48  1  0  0  0
 42 43  1  0  0  0
 42 66  1  0  0  0
 42106  1  0  0  0
 42107  1  0  0  0
 43 44  1  0  0  0
 44108  1  0  0  0
 45 46  2  0  0  0
 45109  1  0  0  0
 46110  1  0  0  0
 47111  1  0  0  0
 47112  1  0  0  0
 48 56  1  0  0  0
 48 65  1  0  0  0
 48113  1  0  0  0
 49 50  1  0  0  0
 49 53  1  0  0  0
 49 64  1  0  0  0
 49114  1  0  0  0
 50 51  1  0  0  0
 50115  1  0  0  0
 50116  1  0  0  0
 51 52  1  0  0  0
 51117  1  0  0  0
 51118  1  0  0  0
 52119  1  0  0  0
 52120  1  0  0  0
 53 54  1  0  0  0
 54 55  2  0  0  0
 54121  1  0  0  0
 55 57  1  0  0  0
 55122  1  0  0  0
 56 69  2  0  0  0
 57 58  2  0  0  0
 57123  1  0  0  0
 58124  1  0  0  0
 59 60  1  0  0  0
 59 61  1  0  0  0
 59 62  1  0  0  0
 60125  1  0  0  0
 60126  1  0  0  0
 60127  1  0  0  0
 61128  1  0  0  0
 61129  1  0  0  0
 61130  1  0  0  0
 62131  1  0  0  0
 62132  1  0  0  0
 62133  1  0  0  0
 63 65  1  0  0  0
 63134  1  0  0  0
 63135  1  0  0  0
 63136  1  0  0  0
 64137  1  0  0  0
 65138  1  0  0  0
 68 76  1  0  0  0
 71 72  1  0  0  0
 71 73  2  0  0  0
 71139  1  0  0  0
 72 75  1  0  0  0
 72 77  2  0  0  0
 73 76  1  0  0  0
 73 78  1  0  0  0
 74 78  1  0  0  0
 74140  1  0  0  0
 74141  1  0  0  0
 74142  1  0  0  0
 75 79  1  0  0  0
 75143  1  0  0  0
 75144  1  0  0  0
 76145  1  0  0  0
 76146  1  0  0  0
 77 78  1  0  0  0
 79147  1  0  0  0
M  ISO  4   1 100  68 101  76 101  79 100
M  END
> <chiral flag>
0

> <version>
0

> <s_m_source_file>
/data/baiqing/PycharmProjects/Reinvent-master-3.2/result/LINK_invent/BTK/process_docking_weight1_custom_sum_contain_oxygen_bond_distance_aromatic_linkinvent_7_9_3/rearranged_h_0047.sdf

> <i_m_source_file_index>
92

> <r_mmod_Potential_Energy-OPLS-2005>
1461.27978515625

> <r_mmod_Stretch_Energy-OPLS-2005>
682.45751953125

> <r_mmod_Bend_Energy-OPLS-2005>
523.948791503906

> <r_mmod_Torsional_Energy-OPLS-2005>
233.653305053711

> <r_mmod_Improper_Torsional_Energy-OPLS-2005>
6.88076114654541

> <r_mmod_Van_der_Waal_Energy-OPLS-2005>
108.522399902344

> <r_mmod_Electrostatic_Energy-OPLS-2005>
-437.956878662109

> <r_mmod_Solvation_Energy-OPLS-2005>
-237.307434082031

> <b_mmod_Minimization_Converged-OPLS-2005>
0

> <r_mmod_RMS_Derivative-OPLS-2005>
0.721813976764679

$$$$
92
                    3D
 Structure written by MMmdl.
157165  0  0  1  0            999 V2000
  -30.6056  -14.7310   20.4734 C   0  0  0  0  0  0
  -30.4393  -12.4530   19.4547 C   0  0  0  0  0  0
  -29.5083  -12.4995   18.2237 C   0  0  0  0  0  0
  -28.0347  -12.3237   18.6430 C   0  0  0  0  0  0
  -27.6418  -13.2254   19.8442 C   0  0  2  0  0  0
  -28.6885  -13.1478   20.9748 C   0  0  0  0  0  0
  -25.2529  -13.8185   20.5687 C   0  0  0  0  0  0
  -24.1812  -13.0441   20.9212 C   0  0  0  0  0  0
  -24.6398  -11.6916   20.8750 C   0  0  0  0  0  0
  -23.9079  -10.4292   21.0414 C   0  0  0  0  0  0
  -24.3630   -9.4203   21.9184 C   0  0  0  0  0  0
  -23.6301   -8.2240   22.0751 C   0  0  0  0  0  0
  -22.4282   -8.0284   21.3544 C   0  0  0  0  0  0
  -21.9924   -9.0264   20.4649 C   0  0  0  0  0  0
  -22.7256  -10.2138   20.3059 C   0  0  0  0  0  0
  -21.6854   -6.0745   22.5278 C   0  0  0  0  0  0
  -21.4018   -6.5645   23.8214 C   0  0  0  0  0  0
  -21.3656   -5.6790   24.9171 C   0  0  0  0  0  0
  -21.6044   -4.3056   24.7219 C   0  0  0  0  0  0
  -21.8821   -3.8153   23.4339 C   0  0  0  0  0  0
  -21.9195   -4.6971   22.3400 C   0  0  0  0  0  0
  -22.7836  -13.5229   21.1866 C   0  0  0  0  0  0
  -22.1664   -4.2164   21.0976 F   0  0  0  0  0  0
  -21.5624   -3.4537   25.7729 F   0  0  0  0  0  0
  -29.9864  -13.5065   20.3879 N   0  0  0  0  0  0
  -26.2943  -12.9380   20.3252 N   0  0  0  0  0  0
  -25.9321  -11.6531   20.5732 N   0  0  0  0  0  0
  -22.0473  -12.8225   22.0416 N   0  0  0  0  0  0
  -25.4216  -15.1912   20.4102 N   0  0  0  0  0  0
  -31.8045  -14.8418   20.2035 O   0  0  0  0  0  0
  -21.6641   -6.8888   21.4240 O   0  0  0  0  0  0
  -22.3524  -14.5531   20.6698 O   0  0  0  0  0  0
  -24.6302  -31.8553   23.1973 C   0  0  0  0  0  0
  -25.9127  -32.4756   23.8324 C   0  0  1  0  0  0
  -27.2239  -27.2724   20.1381 C   0  0  0  0  0  0
  -25.5921  -33.8557   24.2253 N   0  0  0  0  0  0
  -23.4277  -30.4755   21.5406 C   0  0  2  0  0  0
  -24.8761  -28.9173   20.1148 C   0  0  0  0  0  0
  -22.7500  -29.4601   22.4924 C   0  0  0  0  0  0
  -18.0293  -28.1387   22.8491 C   0  0  0  0  0  0
  -24.1487  -36.7283   23.2643 C   0  0  0  0  0  0
  -25.9712  -30.7734   21.3730 C   0  0  0  0  0  0
  -26.0472  -29.3942   20.7194 C   0  0  0  0  0  0
  -27.2281  -28.5857   20.7143 C   0  0  0  0  0  0
  -26.0327  -26.8527   19.5123 C   0  0  0  0  0  0
  -24.8727  -27.6543   19.5000 C   0  0  0  0  0  0
  -23.6459  -29.8040   20.1586 C   0  0  0  0  0  0
  -25.4112  -36.3071   24.0330 C   0  0  1  0  0  0
  -20.5895  -28.3696   23.1277 C   0  0  2  0  0  0
  -20.6780  -26.9415   22.5414 C   0  0  0  0  0  0
  -19.5753  -26.6385   21.5219 C   0  0  0  0  0  0
  -18.1934  -26.7933   22.1629 C   0  0  0  0  0  0
  -19.1547  -28.8860   23.2879 C   0  0  0  0  0  0
  -18.9467  -30.1459   23.8899 C   0  0  0  0  0  0
  -17.6466  -30.6591   24.0562 C   0  0  0  0  0  0
  -25.9049  -34.9442   23.5097 C   0  0  0  0  0  0
  -16.5355  -29.9088   23.6332 C   0  0  0  0  0  0
  -16.7280  -28.6503   23.0359 C   0  0  0  0  0  0
  -26.4496  -31.6581   25.0715 C   0  0  0  0  0  0
  -25.3715  -31.3735   26.1436 C   0  0  0  0  0  0
  -27.0350  -30.3003   24.6193 C   0  0  0  0  0  0
  -27.6053  -32.4321   25.7486 C   0  0  0  0  0  0
  -27.5577  -37.1797   24.8468 C   0  0  0  0  0  0
  -21.4209  -29.3043   22.3666 N   0  0  0  0  0  0
  -26.4289  -37.3767   23.9409 N   0  0  0  0  0  0
  -24.6955  -31.0525   22.0937 N   0  0  0  0  0  0
  -23.4204  -28.8153   23.3028 O   0  0  0  0  0  0
  -28.3199  -26.3855   20.1465 O   0  0  0  0  0  0
  -26.5626  -34.8922   22.4668 O   0  0  0  0  0  0
  -23.5451  -32.1366   23.7272 O   0  0  0  0  0  0
  -30.8145  -23.4538   20.3928 C   0  0  0  0  0  0
  -31.8099  -22.5366   20.5859 C   0  0  0  0  0  0
  -29.8609  -21.4153   20.4536 C   0  0  0  0  0  0
  -33.2848  -22.6962   20.7587 C   0  0  0  0  0  0
  -29.0020  -20.0990   20.5304 C   0  0  0  0  0  0
  -29.6331  -18.5986   20.2522 C   0  0  0  0  0  0
  -28.3311  -23.5868   20.0984 C   0  0  0  0  0  0
  -30.1790  -17.2812   21.0650 C   0  0  0  0  0  0
  -28.1485  -25.0452   20.8005 C   0  0  0  0  0  0
  -29.6121  -22.7877   20.3385 N   0  0  0  0  0  0
  -31.1897  -21.3199   20.6076 N   0  3  0  0  0  0
  -29.8112  -15.8474   20.6795 N   0  0  0  0  0  0
  -31.4762  -12.5959   19.1453 H   0  0  0  0  0  0
  -30.4015  -11.4746   19.9367 H   0  0  0  0  0  0
  -29.7874  -11.7228   17.5101 H   0  0  0  0  0  0
  -29.6312  -13.4507   17.7028 H   0  0  0  0  0  0
  -27.8938  -11.2754   18.9098 H   0  0  0  0  0  0
  -27.3753  -12.5108   17.7951 H   0  0  0  0  0  0
  -27.6373  -14.2474   19.4640 H   0  0  0  0  0  0
  -28.7255  -12.1452   21.4020 H   0  0  0  0  0  0
  -28.4238  -13.8182   21.7945 H   0  0  0  0  0  0
  -25.2776   -9.5676   22.4760 H   0  0  0  0  0  0
  -24.0015   -7.4628   22.7468 H   0  0  0  0  0  0
  -21.0857   -8.8792   19.8953 H   0  0  0  0  0  0
  -22.3725  -10.9681   19.6171 H   0  0  0  0  0  0
  -21.2013   -7.6153   23.9726 H   0  0  0  0  0  0
  -21.1471   -6.0514   25.9074 H   0  0  0  0  0  0
  -22.0602   -2.7618   23.2828 H   0  0  0  0  0  0
  -22.4090  -11.9906   22.4837 H   0  0  0  0  0  0
  -21.1079  -13.1245   22.2588 H   0  0  0  0  0  0
  -24.6510  -15.8413   20.5196 H   0  0  0  0  0  0
  -26.2614  -15.6313   20.0561 H   0  0  0  0  0  0
  -26.7199  -32.5412   23.1072 H   0  0  0  0  0  0
  -25.0057  -33.9688   25.0393 H   0  0  0  0  0  0
  -22.7243  -31.2974   21.3923 H   0  0  0  0  0  0
  -23.3750  -35.9613   23.3302 H   0  0  0  0  0  0
  -24.3579  -36.8905   22.2058 H   0  0  0  0  0  0
  -23.7241  -37.6485   23.6664 H   0  0  0  0  0  0
  -26.1046  -31.5336   20.6020 H   0  0  0  0  0  0
  -26.8507  -30.8261   22.0032 H   0  0  0  0  0  0
  -28.1296  -28.9485   21.1881 H   0  0  0  0  0  0
  -25.9937  -25.8795   19.0427 H   0  0  0  0  0  0
  -23.9749  -27.2830   19.0248 H   0  0  0  0  0  0
  -23.7699  -30.5778   19.3999 H   0  0  0  0  0  0
  -22.7649  -29.2353   19.8552 H   0  0  0  0  0  0
  -25.1294  -36.1919   25.0822 H   0  0  0  0  0  0
  -20.9989  -28.3274   24.1396 H   0  0  0  0  0  0
  -20.5686  -26.2305   23.3616 H   0  0  0  0  0  0
  -21.6646  -26.7443   22.1203 H   0  0  0  0  0  0
  -19.6911  -25.6296   21.1248 H   0  0  0  0  0  0
  -19.6690  -27.3196   20.6749 H   0  0  0  0  0  0
  -17.4204  -26.6691   21.4026 H   0  0  0  0  0  0
  -18.0325  -26.0073   22.9024 H   0  0  0  0  0  0
  -19.7940  -30.7275   24.2274 H   0  0  0  0  0  0
  -17.5018  -31.6273   24.5157 H   0  0  0  0  0  0
  -15.5355  -30.2986   23.7655 H   0  0  0  0  0  0
  -15.8683  -28.0815   22.7081 H   0  0  0  0  0  0
  -24.5885  -30.7092   25.7760 H   0  0  0  0  0  0
  -24.8911  -32.2908   26.4848 H   0  0  0  0  0  0
  -25.8023  -30.8917   27.0221 H   0  0  0  0  0  0
  -26.2938  -29.6747   24.1207 H   0  0  0  0  0  0
  -27.4033  -29.7269   25.4709 H   0  0  0  0  0  0
  -27.8807  -30.4292   23.9436 H   0  0  0  0  0  0
  -27.2664  -33.3622   26.2057 H   0  0  0  0  0  0
  -28.3861  -32.6878   25.0312 H   0  0  0  0  0  0
  -28.0721  -31.8451   26.5404 H   0  0  0  0  0  0
  -28.2598  -38.0091   24.7506 H   0  0  0  0  0  0
  -28.1070  -36.2622   24.6299 H   0  0  0  0  0  0
  -27.2296  -37.1454   25.8873 H   0  0  0  0  0  0
  -20.9397  -29.8751   21.6858 H   0  0  0  0  0  0
  -26.0169  -38.2841   24.1407 H   0  0  0  0  0  0
  -30.8793  -24.5310   20.3028 H   0  0  0  0  0  0
  -33.6004  -23.6890   20.4384 H   0  0  0  0  0  0
  -33.8240  -21.9542   20.1700 H   0  0  0  0  0  0
  -33.5566  -22.5708   21.8068 H   0  0  0  0  0  0
  -28.2034  -20.2698   19.8073 H   0  0  0  0  0  0
  -28.5149  -20.1310   21.5078 H   0  0  0  0  0  0
  -28.6242  -18.2036   20.3785 H   0  0  0  0  0  0
  -30.2535  -19.0150   21.0414 H   0  0  0  0  0  0
  -28.2038  -23.6812   19.0202 H   0  0  0  0  0  0
  -27.5182  -22.9432   20.4351 H   0  0  0  0  0  0
  -29.8675  -17.3567   22.1113 H   0  0  0  0  0  0
  -31.2730  -17.3067   21.0982 H   0  0  0  0  0  0
  -28.7951  -25.0631   21.6782 H   0  0  0  0  0  0
  -27.1500  -25.0319   21.2391 H   0  0  0  0  0  0
  -31.6736  -20.4386   20.7328 H   0  0  0  0  0  0
  -28.8293  -15.6287   20.7599 H   0  0  0  0  0  0
  1 25  1  0  0  0
  1 30  2  0  0  0
  1 82  1  0  0  0
  2  3  1  0  0  0
  2 25  1  0  0  0
  2 83  1  0  0  0
  2 84  1  0  0  0
  3  4  1  0  0  0
  3 85  1  0  0  0
  3 86  1  0  0  0
  4  5  1  0  0  0
  4 87  1  0  0  0
  4 88  1  0  0  0
  5  6  1  0  0  0
  5 26  1  0  0  0
  5 89  1  0  0  0
  6 25  1  0  0  0
  6 90  1  0  0  0
  6 91  1  0  0  0
  7  8  2  0  0  0
  7 26  1  0  0  0
  7 29  1  0  0  0
  8  9  1  0  0  0
  8 22  1  0  0  0
  9 10  1  0  0  0
  9 27  2  0  0  0
 10 11  2  0  0  0
 10 15  1  0  0  0
 11 12  1  0  0  0
 11 92  1  0  0  0
 12 13  2  0  0  0
 12 93  1  0  0  0
 13 14  1  0  0  0
 13 31  1  0  0  0
 14 15  2  0  0  0
 14 94  1  0  0  0
 15 95  1  0  0  0
 16 17  2  0  0  0
 16 21  1  0  0  0
 16 31  1  0  0  0
 17 18  1  0  0  0
 17 96  1  0  0  0
 18 19  2  0  0  0
 18 97  1  0  0  0
 19 20  1  0  0  0
 19 24  1  0  0  0
 20 21  2  0  0  0
 20 98  1  0  0  0
 21 23  1  0  0  0
 22 28  1  0  0  0
 22 32  2  0  0  0
 26 27  1  0  0  0
 28 99  1  0  0  0
 28100  1  0  0  0
 29101  1  0  0  0
 29102  1  0  0  0
 33 34  1  0  0  0
 33 66  1  0  0  0
 33 70  2  0  0  0
 34 36  1  0  0  0
 34 59  1  0  0  0
 34103  1  0  0  0
 35 44  2  0  0  0
 35 45  1  0  0  0
 35 68  1  0  0  0
 36 56  1  0  0  0
 36104  1  0  0  0
 37 39  1  0  0  0
 37 47  1  0  0  0
 37 66  1  0  0  0
 37105  1  0  0  0
 38 43  2  0  0  0
 38 46  1  0  0  0
 38 47  1  0  0  0
 39 64  1  0  0  0
 39 67  2  0  0  0
 40 52  1  0  0  0
 40 53  2  0  0  0
 40 58  1  0  0  0
 41106  1  0  0  0
 41107  1  0  0  0
 41108  1  0  0  0
 41 48  1  0  0  0
 42 43  1  0  0  0
 42 66  1  0  0  0
 42109  1  0  0  0
 42110  1  0  0  0
 43 44  1  0  0  0
 44111  1  0  0  0
 45 46  2  0  0  0
 45112  1  0  0  0
 46113  1  0  0  0
 47114  1  0  0  0
 47115  1  0  0  0
 48 56  1  0  0  0
 48 65  1  0  0  0
 48116  1  0  0  0
 49 50  1  0  0  0
 49 53  1  0  0  0
 49 64  1  0  0  0
 49117  1  0  0  0
 50 51  1  0  0  0
 50118  1  0  0  0
 50119  1  0  0  0
 51 52  1  0  0  0
 51120  1  0  0  0
 51121  1  0  0  0
 52122  1  0  0  0
 52123  1  0  0  0
 53 54  1  0  0  0
 54 55  2  0  0  0
 54124  1  0  0  0
 55 57  1  0  0  0
 55125  1  0  0  0
 56 69  2  0  0  0
 57 58  2  0  0  0
 57126  1  0  0  0
 58127  1  0  0  0
 59 60  1  0  0  0
 59 61  1  0  0  0
 59 62  1  0  0  0
 60128  1  0  0  0
 60129  1  0  0  0
 60130  1  0  0  0
 61131  1  0  0  0
 61132  1  0  0  0
 61133  1  0  0  0
 62134  1  0  0  0
 62135  1  0  0  0
 62136  1  0  0  0
 63 65  1  0  0  0
 63137  1  0  0  0
 63138  1  0  0  0
 63139  1  0  0  0
 64140  1  0  0  0
 65141  1  0  0  0
 68 79  1  0  0  0
 71 72  2  0  0  0
 71 80  1  0  0  0
 71142  1  0  0  0
 72 74  1  0  0  0
 72 81  1  0  0  0
 73 75  1  0  0  0
 73 80  1  0  0  0
 73 81  2  0  0  0
 74143  1  0  0  0
 74144  1  0  0  0
 74145  1  0  0  0
 75 76  1  0  0  0
 75146  1  0  0  0
 75147  1  0  0  0
 76 78  1  0  0  0
 76148  1  0  0  0
 76149  1  0  0  0
 77 79  1  0  0  0
 77 80  1  0  0  0
 77150  1  0  0  0
 77151  1  0  0  0
 78 82  1  0  0  0
 78152  1  0  0  0
 78153  1  0  0  0
 79154  1  0  0  0
 79155  1  0  0  0
 81156  1  0  0  0
 82157  1  0  0  0
M  CHG  1  81   1
M  ISO  4   1 100  68 101  79 101  82 100
M  END
> <chiral flag>
0

> <version>
0

> <s_m_source_file>
/data/baiqing/PycharmProjects/Reinvent-master-3.2/result/LINK_invent/BTK/process_docking_weight1_custom_sum_contain_oxygen_bond_distance_aromatic_linkinvent_7_9_3/rearranged_h_0047.sdf

> <i_m_source_file_index>
93

> <r_mmod_Potential_Energy-OPLS-2005>
388.538146972656

> <r_mmod_Stretch_Energy-OPLS-2005>
132.345138549805

> <r_mmod_Bend_Energy-OPLS-2005>
426.829620361328

> <r_mmod_Torsional_Energy-OPLS-2005>
254.109619140625

> <r_mmod_Improper_Torsional_Energy-OPLS-2005>
4.6938624382019

> <r_mmod_Van_der_Waal_Energy-OPLS-2005>
123.753868103027

> <r_mmod_Electrostatic_Energy-OPLS-2005>
-212.710205078125

> <r_mmod_Solvation_Energy-OPLS-2005>
-420.624450683594

> <b_mmod_Minimization_Converged-OPLS-2005>
0

> <r_mmod_RMS_Derivative-OPLS-2005>
1.12862539291382

$$$$
93
                    3D
 Structure written by MMmdl.
167175  0  0  1  0            999 V2000
  -30.7304  -14.4888   20.6384 C   0  0  0  0  0  0
  -30.4271  -12.3511   19.4187 C   0  0  0  0  0  0
  -29.4957  -12.5386   18.2023 C   0  0  0  0  0  0
  -28.0143  -12.3832   18.6017 C   0  0  0  0  0  0
  -27.6632  -13.1919   19.8770 C   0  0  2  0  0  0
  -28.7079  -12.9017   20.9774 C   0  0  0  0  0  0
  -25.2606  -13.8122   20.5646 C   0  0  0  0  0  0
  -24.1848  -13.0430   20.9157 C   0  0  0  0  0  0
  -24.6377  -11.6884   20.8726 C   0  0  0  0  0  0
  -23.9045  -10.4284   21.0389 C   0  0  0  0  0  0
  -24.3607   -9.4206   21.9160 C   0  0  0  0  0  0
  -23.6289   -8.2242   22.0741 C   0  0  0  0  0  0
  -22.4272   -8.0276   21.3532 C   0  0  0  0  0  0
  -21.9901   -9.0243   20.4634 C   0  0  0  0  0  0
  -22.7222  -10.2124   20.3041 C   0  0  0  0  0  0
  -21.6857   -6.0735   22.5278 C   0  0  0  0  0  0
  -21.4015   -6.5636   23.8209 C   0  0  0  0  0  0
  -21.3659   -5.6790   24.9169 C   0  0  0  0  0  0
  -21.6050   -4.3054   24.7229 C   0  0  0  0  0  0
  -21.8823   -3.8148   23.4350 C   0  0  0  0  0  0
  -21.9193   -4.6962   22.3407 C   0  0  0  0  0  0
  -22.7877  -13.5234   21.1842 C   0  0  0  0  0  0
  -22.1656   -4.2145   21.0985 F   0  0  0  0  0  0
  -21.5626   -3.4538   25.7741 F   0  0  0  0  0  0
  -30.0249  -13.3180   20.4674 N   0  0  0  0  0  0
  -26.3026  -12.9254   20.3345 N   0  0  0  0  0  0
  -25.9294  -11.6425   20.5739 N   0  0  0  0  0  0
  -22.0546  -12.8220   22.0412 N   0  0  0  0  0  0
  -25.4360  -15.1839   20.4030 N   0  0  0  0  0  0
  -31.8194  -14.6191   20.0666 O   0  0  0  0  0  0
  -21.6629   -6.8881   21.4242 O   0  0  0  0  0  0
  -22.3549  -14.5546   20.6708 O   0  0  0  0  0  0
  -24.6154  -31.8669   23.2099 C   0  0  0  0  0  0
  -25.9045  -32.4815   23.8394 C   0  0  1  0  0  0
  -27.2366  -27.4238   20.0979 C   0  0  0  0  0  0
  -25.5904  -33.8615   24.2324 N   0  0  0  0  0  0
  -23.4034  -30.4907   21.5510 C   0  0  2  0  0  0
  -24.8490  -28.9552   20.1152 C   0  0  0  0  0  0
  -22.7409  -29.4654   22.4990 C   0  0  0  0  0  0
  -18.0269  -28.1375   22.8496 C   0  0  0  0  0  0
  -24.1488  -36.7316   23.2639 C   0  0  0  0  0  0
  -25.9328  -30.8276   21.3657 C   0  0  0  0  0  0
  -26.0090  -29.4619   20.7130 C   0  0  0  0  0  0
  -27.2034  -28.7045   20.6993 C   0  0  0  0  0  0
  -26.0593  -26.9422   19.4788 C   0  0  0  0  0  0
  -24.8694  -27.6947   19.4951 C   0  0  0  0  0  0
  -23.6117  -29.8230   20.1656 C   0  0  0  0  0  0
  -25.4108  -36.3109   24.0338 C   0  0  1  0  0  0
  -20.5861  -28.3662   23.1321 C   0  0  2  0  0  0
  -20.6762  -26.9398   22.5420 C   0  0  0  0  0  0
  -19.5739  -26.6386   21.5216 C   0  0  0  0  0  0
  -18.1916  -26.7922   22.1627 C   0  0  0  0  0  0
  -19.1519  -28.8836   23.2907 C   0  0  0  0  0  0
  -18.9447  -30.1445   23.8914 C   0  0  0  0  0  0
  -17.6451  -30.6585   24.0567 C   0  0  0  0  0  0
  -25.9034  -34.9474   23.5126 C   0  0  0  0  0  0
  -16.5341  -29.9086   23.6329 C   0  0  0  0  0  0
  -16.7259  -28.6503   23.0348 C   0  0  0  0  0  0
  -26.4472  -31.6600   25.0727 C   0  0  0  0  0  0
  -25.3742  -31.3701   26.1478 C   0  0  0  0  0  0
  -27.0305  -30.3043   24.6107 C   0  0  0  0  0  0
  -27.6050  -32.4318   25.7483 C   0  0  0  0  0  0
  -27.5581  -37.1813   24.8462 C   0  0  0  0  0  0
  -21.4136  -29.3033   22.3730 N   0  0  0  0  0  0
  -26.4295  -37.3795   23.9406 N   0  0  0  0  0  0
  -24.6686  -31.0762   22.1006 N   0  0  0  0  0  0
  -23.4178  -28.8199   23.3035 O   0  0  0  0  0  0
  -28.4191  -26.7056   20.1031 O   0  0  0  0  0  0
  -26.5596  -34.8926   22.4687 O   0  0  0  0  0  0
  -23.5346  -32.1427   23.7495 O   0  0  0  0  0  0
  -30.0214  -17.8704   19.3146 C   0  0  0  0  0  0
  -30.6273  -17.9322   20.5951 C   0  0  0  0  0  0
  -27.6430  -15.1486   24.1750 C   0  0  0  0  0  0
  -27.5013  -23.3060   17.8966 C   0  0  0  0  0  0
  -31.0593  -16.7945   21.4980 C   0  0  0  0  0  0
  -29.0324  -15.2333   23.5335 C   0  0  0  0  0  0
  -28.9263  -22.0034   19.5663 C   0  0  0  0  0  0
  -29.3001  -24.6008   19.1767 C   0  0  0  0  0  0
  -30.3209  -21.3359   19.7210 C   0  0  0  0  0  0
  -28.9673  -15.7354   22.0770 C   0  0  0  0  0  0
  -28.3629  -25.2687   20.2124 C   0  0  0  0  0  0
  -28.8687  -23.2221   18.5997 C   0  0  2  0  0  0
  -29.8086  -19.0782   18.8517 N   0  0  0  0  0  0
  -30.7800  -19.1986   20.9204 N   0  0  0  0  0  0
  -30.2675  -19.8761   19.8523 N   0  0  0  0  0  0
  -30.2488  -15.5536   21.3706 N   0  0  0  0  0  0
  -31.4659  -12.4611   19.1037 H   0  0  0  0  0  0
  -30.3600  -11.3286   19.7935 H   0  0  0  0  0  0
  -29.7498  -11.8211   17.4207 H   0  0  0  0  0  0
  -29.6545  -13.5286   17.7712 H   0  0  0  0  0  0
  -27.8247  -11.3230   18.7721 H   0  0  0  0  0  0
  -27.3688  -12.6798   17.7739 H   0  0  0  0  0  0
  -27.7228  -14.2452   19.6059 H   0  0  0  0  0  0
  -28.7191  -11.8293   21.1779 H   0  0  0  0  0  0
  -28.4326  -13.2987   21.9427 H   0  0  0  0  0  0
  -25.2759   -9.5686   22.4711 H   0  0  0  0  0  0
  -24.0005   -7.4640   22.7460 H   0  0  0  0  0  0
  -21.0828   -8.8765   19.8942 H   0  0  0  0  0  0
  -22.3679  -10.9657   19.6147 H   0  0  0  0  0  0
  -21.2009   -7.6146   23.9715 H   0  0  0  0  0  0
  -21.1472   -6.0517   25.9068 H   0  0  0  0  0  0
  -22.0608   -2.7614   23.2856 H   0  0  0  0  0  0
  -22.4157  -11.9853   22.4753 H   0  0  0  0  0  0
  -21.1170  -13.1233   22.2642 H   0  0  0  0  0  0
  -24.6746  -15.8466   20.5048 H   0  0  0  0  0  0
  -26.2952  -15.6184   20.0934 H   0  0  0  0  0  0
  -26.7109  -32.5522   23.1152 H   0  0  0  0  0  0
  -25.0056  -33.9774   25.0469 H   0  0  0  0  0  0
  -22.6930  -31.3082   21.4117 H   0  0  0  0  0  0
  -23.3745  -35.9654   23.3316 H   0  0  0  0  0  0
  -24.3572  -36.8912   22.2048 H   0  0  0  0  0  0
  -23.7250  -37.6532   23.6640 H   0  0  0  0  0  0
  -26.0468  -31.5942   20.5983 H   0  0  0  0  0  0
  -26.8204  -30.8798   21.9848 H   0  0  0  0  0  0
  -28.0990  -29.0952   21.1618 H   0  0  0  0  0  0
  -26.0466  -25.9954   18.9590 H   0  0  0  0  0  0
  -23.9807  -27.3043   19.0183 H   0  0  0  0  0  0
  -23.7183  -30.5980   19.4054 H   0  0  0  0  0  0
  -22.7361  -29.2419   19.8711 H   0  0  0  0  0  0
  -25.1285  -36.1975   25.0833 H   0  0  0  0  0  0
  -20.9949  -28.3222   24.1444 H   0  0  0  0  0  0
  -20.5665  -26.2267   23.3602 H   0  0  0  0  0  0
  -21.6630  -26.7437   22.1209 H   0  0  0  0  0  0
  -19.6897  -25.6300   21.1234 H   0  0  0  0  0  0
  -19.6684  -27.3211   20.6756 H   0  0  0  0  0  0
  -17.4187  -26.6676   21.4028 H   0  0  0  0  0  0
  -18.0317  -26.0058   22.9018 H   0  0  0  0  0  0
  -19.7922  -30.7260   24.2287 H   0  0  0  0  0  0
  -17.5003  -31.6265   24.5164 H   0  0  0  0  0  0
  -15.5341  -30.2993   23.7644 H   0  0  0  0  0  0
  -15.8656  -28.0832   22.7047 H   0  0  0  0  0  0
  -24.5910  -30.7053   25.7814 H   0  0  0  0  0  0
  -24.8945  -32.2856   26.4950 H   0  0  0  0  0  0
  -25.8106  -30.8851   27.0220 H   0  0  0  0  0  0
  -26.2846  -29.6802   24.1171 H   0  0  0  0  0  0
  -27.4080  -29.7280   25.4564 H   0  0  0  0  0  0
  -27.8680  -30.4354   23.9250 H   0  0  0  0  0  0
  -27.2669  -33.3605   26.2089 H   0  0  0  0  0  0
  -28.3847  -32.6899   25.0304 H   0  0  0  0  0  0
  -28.0736  -31.8427   26.5376 H   0  0  0  0  0  0
  -28.2606  -38.0106   24.7512 H   0  0  0  0  0  0
  -28.1076  -36.2640   24.6288 H   0  0  0  0  0  0
  -27.2296  -37.1456   25.8865 H   0  0  0  0  0  0
  -20.9293  -29.8760   21.6961 H   0  0  0  0  0  0
  -26.0188  -38.2874   24.1413 H   0  0  0  0  0  0
  -29.7544  -16.9960   18.7376 H   0  0  0  0  0  0
  -27.7137  -14.8422   25.2189 H   0  0  0  0  0  0
  -27.1306  -16.1107   24.1462 H   0  0  0  0  0  0
  -27.0126  -14.4235   23.6581 H   0  0  0  0  0  0
  -27.3215  -22.4183   17.2888 H   0  0  0  0  0  0
  -27.4529  -24.1659   17.2275 H   0  0  0  0  0  0
  -26.6782  -23.3834   18.6070 H   0  0  0  0  0  0
  -31.0141  -17.1238   22.5374 H   0  0  0  0  0  0
  -32.1239  -16.6032   21.3555 H   0  0  0  0  0  0
  -29.5206  -14.2603   23.5962 H   0  0  0  0  0  0
  -29.6582  -15.9077   24.1202 H   0  0  0  0  0  0
  -28.5226  -22.2610   20.5457 H   0  0  0  0  0  0
  -28.2445  -21.2471   19.1769 H   0  0  0  0  0  0
  -30.3062  -24.5316   19.5930 H   0  0  0  0  0  0
  -29.3938  -25.2835   18.3303 H   0  0  0  0  0  0
  -30.8477  -21.7571   20.5776 H   0  0  0  0  0  0
  -30.9456  -21.5483   18.8534 H   0  0  0  0  0  0
  -28.7037  -16.7938   22.1122 H   0  0  0  0  0  0
  -28.1340  -15.3239   21.5195 H   0  0  0  0  0  0
  -28.7003  -24.9989   21.2130 H   0  0  0  0  0  0
  -27.3574  -24.8607   20.1580 H   0  0  0  0  0  0
  -29.5749  -23.0113   17.7951 H   0  0  0  0  0  0
  1 25  1  0  0  0
  1 30  2  0  0  0
  1 86  1  0  0  0
  2  3  1  0  0  0
  2 25  1  0  0  0
  2 87  1  0  0  0
  2 88  1  0  0  0
  3  4  1  0  0  0
  3 89  1  0  0  0
  3 90  1  0  0  0
  4  5  1  0  0  0
  4 91  1  0  0  0
  4 92  1  0  0  0
  5  6  1  0  0  0
  5 26  1  0  0  0
  5 93  1  0  0  0
  6 25  1  0  0  0
  6 94  1  0  0  0
  6 95  1  0  0  0
  7  8  2  0  0  0
  7 26  1  0  0  0
  7 29  1  0  0  0
  8  9  1  0  0  0
  8 22  1  0  0  0
  9 10  1  0  0  0
  9 27  2  0  0  0
 10 11  2  0  0  0
 10 15  1  0  0  0
 11 12  1  0  0  0
 11 96  1  0  0  0
 12 13  2  0  0  0
 12 97  1  0  0  0
 13 14  1  0  0  0
 13 31  1  0  0  0
 14 15  2  0  0  0
 14 98  1  0  0  0
 15 99  1  0  0  0
 16 17  2  0  0  0
 16 21  1  0  0  0
 16 31  1  0  0  0
 17 18  1  0  0  0
 17100  1  0  0  0
 18 19  2  0  0  0
 18101  1  0  0  0
 19 20  1  0  0  0
 19 24  1  0  0  0
 20 21  2  0  0  0
 20102  1  0  0  0
 21 23  1  0  0  0
 22 28  1  0  0  0
 22 32  2  0  0  0
 26 27  1  0  0  0
 28103  1  0  0  0
 28104  1  0  0  0
 29105  1  0  0  0
 29106  1  0  0  0
 33 34  1  0  0  0
 33 66  1  0  0  0
 33 70  2  0  0  0
 34 36  1  0  0  0
 34 59  1  0  0  0
 34107  1  0  0  0
 35 44  2  0  0  0
 35 45  1  0  0  0
 35 68  1  0  0  0
 36 56  1  0  0  0
 36108  1  0  0  0
 37 39  1  0  0  0
 37 47  1  0  0  0
 37 66  1  0  0  0
 37109  1  0  0  0
 38 43  2  0  0  0
 38 46  1  0  0  0
 38 47  1  0  0  0
 39 64  1  0  0  0
 39 67  2  0  0  0
 40 52  1  0  0  0
 40 53  2  0  0  0
 40 58  1  0  0  0
 41110  1  0  0  0
 41111  1  0  0  0
 41112  1  0  0  0
 41 48  1  0  0  0
 42 43  1  0  0  0
 42 66  1  0  0  0
 42113  1  0  0  0
 42114  1  0  0  0
 43 44  1  0  0  0
 44115  1  0  0  0
 45 46  2  0  0  0
 45116  1  0  0  0
 46117  1  0  0  0
 47118  1  0  0  0
 47119  1  0  0  0
 48 56  1  0  0  0
 48 65  1  0  0  0
 48120  1  0  0  0
 49 50  1  0  0  0
 49 53  1  0  0  0
 49 64  1  0  0  0
 49121  1  0  0  0
 50 51  1  0  0  0
 50122  1  0  0  0
 50123  1  0  0  0
 51 52  1  0  0  0
 51124  1  0  0  0
 51125  1  0  0  0
 52126  1  0  0  0
 52127  1  0  0  0
 53 54  1  0  0  0
 54 55  2  0  0  0
 54128  1  0  0  0
 55 57  1  0  0  0
 55129  1  0  0  0
 56 69  2  0  0  0
 57 58  2  0  0  0
 57130  1  0  0  0
 58131  1  0  0  0
 59 60  1  0  0  0
 59 61  1  0  0  0
 59 62  1  0  0  0
 60132  1  0  0  0
 60133  1  0  0  0
 60134  1  0  0  0
 61135  1  0  0  0
 61136  1  0  0  0
 61137  1  0  0  0
 62138  1  0  0  0
 62139  1  0  0  0
 62140  1  0  0  0
 63 65  1  0  0  0
 63141  1  0  0  0
 63142  1  0  0  0
 63143  1  0  0  0
 64144  1  0  0  0
 65145  1  0  0  0
 68 81  1  0  0  0
 71 72  1  0  0  0
 71 83  2  0  0  0
 71146  1  0  0  0
 72 75  1  0  0  0
 72 84  2  0  0  0
 73 76  1  0  0  0
 73147  1  0  0  0
 73148  1  0  0  0
 73149  1  0  0  0
 74150  1  0  0  0
 74151  1  0  0  0
 74152  1  0  0  0
 74 82  1  0  0  0
 75 86  1  0  0  0
 75153  1  0  0  0
 75154  1  0  0  0
 76 80  1  0  0  0
 76155  1  0  0  0
 76156  1  0  0  0
 77 79  1  0  0  0
 77 82  1  0  0  0
 77157  1  0  0  0
 77158  1  0  0  0
 78 81  1  0  0  0
 78 82  1  0  0  0
 78159  1  0  0  0
 78160  1  0  0  0
 79 85  1  0  0  0
 79161  1  0  0  0
 79162  1  0  0  0
 80 86  1  0  0  0
 80163  1  0  0  0
 80164  1  0  0  0
 81165  1  0  0  0
 81166  1  0  0  0
 82167  1  0  0  0
 83 85  1  0  0  0
 84 85  1  0  0  0
M  ISO  4   1 100  68 101  81 101  86 100
M  END
> <chiral flag>
0

> <version>
0

> <s_m_source_file>
/data/baiqing/PycharmProjects/Reinvent-master-3.2/result/LINK_invent/BTK/process_docking_weight1_custom_sum_contain_oxygen_bond_distance_aromatic_linkinvent_7_9_3/rearranged_h_0047.sdf

> <i_m_source_file_index>
94

> <r_mmod_Potential_Energy-OPLS-2005>
124.952880859375

> <r_mmod_Stretch_Energy-OPLS-2005>
46.8160247802734

> <r_mmod_Bend_Energy-OPLS-2005>
152.209564208984

> <r_mmod_Torsional_Energy-OPLS-2005>
275.944061279297

> <r_mmod_Improper_Torsional_Energy-OPLS-2005>
2.30595135688782

> <r_mmod_Van_der_Waal_Energy-OPLS-2005>
143.487609863281

> <r_mmod_Electrostatic_Energy-OPLS-2005>
-314.522491455078

> <r_mmod_Solvation_Energy-OPLS-2005>
-195.071151733398

> <b_mmod_Minimization_Converged-OPLS-2005>
0

> <r_mmod_RMS_Derivative-OPLS-2005>
1.36022126674652

$$$$
94
                    3D
 Structure written by MMmdl.
154162  0  0  1  0            999 V2000
  -30.6461  -14.6426   20.4894 C   0  0  0  0  0  0
  -30.4271  -12.3968   19.4408 C   0  0  0  0  0  0
  -29.4983  -12.5038   18.2136 C   0  0  0  0  0  0
  -28.0224  -12.3479   18.6309 C   0  0  0  0  0  0
  -27.6473  -13.2240   19.8560 C   0  0  2  0  0  0
  -28.6967  -13.1051   20.9822 C   0  0  0  0  0  0
  -25.2538  -13.8197   20.5702 C   0  0  0  0  0  0
  -24.1835  -13.0447   20.9221 C   0  0  0  0  0  0
  -24.6424  -11.6926   20.8765 C   0  0  0  0  0  0
  -23.9093  -10.4296   21.0422 C   0  0  0  0  0  0
  -24.3644   -9.4203   21.9192 C   0  0  0  0  0  0
  -23.6316   -8.2241   22.0757 C   0  0  0  0  0  0
  -22.4298   -8.0286   21.3545 C   0  0  0  0  0  0
  -21.9935   -9.0265   20.4647 C   0  0  0  0  0  0
  -22.7277  -10.2139   20.3055 C   0  0  0  0  0  0
  -21.6851   -6.0754   22.5283 C   0  0  0  0  0  0
  -21.4012   -6.5653   23.8221 C   0  0  0  0  0  0
  -21.3650   -5.6799   24.9185 C   0  0  0  0  0  0
  -21.6040   -4.3068   24.7226 C   0  0  0  0  0  0
  -21.8818   -3.8161   23.4350 C   0  0  0  0  0  0
  -21.9201   -4.6977   22.3410 C   0  0  0  0  0  0
  -22.7854  -13.5212   21.1878 C   0  0  0  0  0  0
  -22.1663   -4.2172   21.0987 F   0  0  0  0  0  0
  -21.5624   -3.4535   25.7731 F   0  0  0  0  0  0
  -30.0033  -13.4371   20.3991 N   0  0  0  0  0  0
  -26.2973  -12.9385   20.3313 N   0  0  0  0  0  0
  -25.9339  -11.6531   20.5771 N   0  0  0  0  0  0
  -22.0497  -12.8187   22.0431 N   0  0  0  0  0  0
  -25.4235  -15.1915   20.4096 N   0  0  0  0  0  0
  -31.8296  -14.7593   20.1636 O   0  0  0  0  0  0
  -21.6652   -6.8897   21.4251 O   0  0  0  0  0  0
  -22.3528  -14.5531   20.6753 O   0  0  0  0  0  0
  -24.6270  -31.8578   23.2009 C   0  0  0  0  0  0
  -25.9132  -32.4770   23.8330 C   0  0  1  0  0  0
  -27.2179  -27.3123   20.1191 C   0  0  0  0  0  0
  -25.5980  -33.8576   24.2283 N   0  0  0  0  0  0
  -23.4196  -30.4825   21.5408 C   0  0  2  0  0  0
  -24.8708  -28.9347   20.1053 C   0  0  0  0  0  0
  -22.7470  -29.4637   22.4901 C   0  0  0  0  0  0
  -18.0279  -28.1386   22.8511 C   0  0  0  0  0  0
  -24.1471  -36.7241   23.2651 C   0  0  0  0  0  0
  -25.9625  -30.7880   21.3707 C   0  0  0  0  0  0
  -26.0381  -29.4123   20.7174 C   0  0  0  0  0  0
  -27.2204  -28.6090   20.7205 C   0  0  0  0  0  0
  -26.0330  -26.8813   19.4933 C   0  0  0  0  0  0
  -24.8688  -27.6729   19.4862 C   0  0  0  0  0  0
  -23.6365  -29.8128   20.1569 C   0  0  0  0  0  0
  -25.4111  -36.3073   24.0341 C   0  0  1  0  0  0
  -20.5895  -28.3690   23.1288 C   0  0  2  0  0  0
  -20.6791  -26.9404   22.5405 C   0  0  0  0  0  0
  -19.5750  -26.6389   21.5220 C   0  0  0  0  0  0
  -18.1923  -26.7945   22.1613 C   0  0  0  0  0  0
  -19.1541  -28.8846   23.2897 C   0  0  0  0  0  0
  -18.9477  -30.1467   23.8878 C   0  0  0  0  0  0
  -17.6488  -30.6604   24.0544 C   0  0  0  0  0  0
  -25.9056  -34.9462   23.5097 C   0  0  0  0  0  0
  -16.5363  -29.9099   23.6347 C   0  0  0  0  0  0
  -16.7275  -28.6505   23.0375 C   0  0  0  0  0  0
  -26.4522  -31.6591   25.0701 C   0  0  0  0  0  0
  -25.3776  -31.3761   26.1439 C   0  0  0  0  0  0
  -27.0404  -30.3036   24.6175 C   0  0  0  0  0  0
  -27.6057  -32.4343   25.7497 C   0  0  0  0  0  0
  -27.5539  -37.1779   24.8481 C   0  0  0  0  0  0
  -21.4180  -29.3059   22.3682 N   0  0  0  0  0  0
  -26.4255  -37.3777   23.9432 N   0  0  0  0  0  0
  -24.6884  -31.0603   22.0944 N   0  0  0  0  0  0
  -23.4207  -28.8162   23.2959 O   0  0  0  0  0  0
  -28.2916  -26.4121   20.1291 O   0  0  0  0  0  0
  -26.5563  -34.8942   22.4623 O   0  0  0  0  0  0
  -23.5441  -32.1349   23.7369 O   0  0  0  0  0  0
  -28.4956  -21.8013   19.6325 C   0  0  0  0  0  0
  -28.9029  -20.9995   20.7472 C   0  0  0  0  0  0
  -29.0109  -22.9956   21.9871 C   0  0  0  0  0  0
  -28.5845  -23.8109   20.8855 C   0  0  0  0  0  0
  -29.2021  -23.5555   23.3874 C   0  0  0  0  0  0
  -28.7912  -19.4219   20.8485 C   0  0  0  0  0  0
  -28.1651  -25.3290   21.1255 C   0  0  0  0  0  0
  -29.8744  -18.4223   20.2458 C   0  0  0  0  0  0
  -30.3539  -17.1485   21.0952 C   0  0  0  0  0  0
  -28.3477  -23.1766   19.6943 N   0  0  0  0  0  0
  -29.1946  -21.6432   21.9067 N   0  0  0  0  0  0
  -29.8848  -15.7491   20.7792 N   0  0  0  0  0  0
  -31.4692  -12.5088   19.1353 H   0  0  0  0  0  0
  -30.3526  -11.4074   19.8930 H   0  0  0  0  0  0
  -29.7575  -11.7478   17.4702 H   0  0  0  0  0  0
  -29.6421  -13.4706   17.7270 H   0  0  0  0  0  0
  -27.8565  -11.2955   18.8630 H   0  0  0  0  0  0
  -27.3654  -12.5793   17.7914 H   0  0  0  0  0  0
  -27.6587  -14.2566   19.5051 H   0  0  0  0  0  0
  -28.7141  -12.0948   21.3918 H   0  0  0  0  0  0
  -28.4521  -13.7642   21.8168 H   0  0  0  0  0  0
  -25.2787   -9.5673   22.4764 H   0  0  0  0  0  0
  -24.0023   -7.4620   22.7459 H   0  0  0  0  0  0
  -21.0868   -8.8793   19.8938 H   0  0  0  0  0  0
  -22.3750  -10.9682   19.6155 H   0  0  0  0  0  0
  -21.1998   -7.6156   23.9738 H   0  0  0  0  0  0
  -21.1460   -6.0526   25.9091 H   0  0  0  0  0  0
  -22.0603   -2.7626   23.2844 H   0  0  0  0  0  0
  -22.4121  -11.9816   22.4753 H   0  0  0  0  0  0
  -21.1116  -13.1186   22.2669 H   0  0  0  0  0  0
  -24.6547  -15.8450   20.5172 H   0  0  0  0  0  0
  -26.2698  -15.6319   20.0720 H   0  0  0  0  0  0
  -26.7201  -32.5427   23.1080 H   0  0  0  0  0  0
  -25.0331  -33.9744   25.0567 H   0  0  0  0  0  0
  -22.7144  -31.3029   21.3974 H   0  0  0  0  0  0
  -23.3759  -35.9539   23.3321 H   0  0  0  0  0  0
  -24.3560  -36.8816   22.2054 H   0  0  0  0  0  0
  -23.7213  -37.6456   23.6640 H   0  0  0  0  0  0
  -26.0958  -31.5476   20.5989 H   0  0  0  0  0  0
  -26.8418  -30.8415   21.9997 H   0  0  0  0  0  0
  -28.1130  -28.9694   21.2117 H   0  0  0  0  0  0
  -26.0038  -25.9002   19.0363 H   0  0  0  0  0  0
  -23.9725  -27.2955   19.0153 H   0  0  0  0  0  0
  -23.7529  -30.5844   19.3960 H   0  0  0  0  0  0
  -22.7575  -29.2369   19.8594 H   0  0  0  0  0  0
  -25.1308  -36.1870   25.0832 H   0  0  0  0  0  0
  -20.9991  -28.3217   24.1403 H   0  0  0  0  0  0
  -20.5713  -26.2273   23.3603 H   0  0  0  0  0  0
  -21.6656  -26.7434   22.1165 H   0  0  0  0  0  0
  -19.6889  -25.6293   21.1260 H   0  0  0  0  0  0
  -19.6695  -27.3199   20.6752 H   0  0  0  0  0  0
  -17.4205  -26.6716   21.3994 H   0  0  0  0  0  0
  -18.0242  -26.0100   22.9003 H   0  0  0  0  0  0
  -19.7962  -30.7297   24.2205 H   0  0  0  0  0  0
  -17.5046  -31.6278   24.5140 H   0  0  0  0  0  0
  -15.5370  -30.2988   23.7744 H   0  0  0  0  0  0
  -15.8649  -28.0839   22.7114 H   0  0  0  0  0  0
  -24.5944  -30.7098   25.7811 H   0  0  0  0  0  0
  -24.8981  -32.2953   26.4816 H   0  0  0  0  0  0
  -25.8116  -30.8994   27.0242 H   0  0  0  0  0  0
  -26.2995  -29.6739   24.1242 H   0  0  0  0  0  0
  -27.4187  -29.7335   25.4670 H   0  0  0  0  0  0
  -27.8811  -30.4353   23.9368 H   0  0  0  0  0  0
  -27.2658  -33.3688   26.1986 H   0  0  0  0  0  0
  -28.3950  -32.6822   25.0387 H   0  0  0  0  0  0
  -28.0646  -31.8521   26.5500 H   0  0  0  0  0  0
  -28.2583  -38.0050   24.7513 H   0  0  0  0  0  0
  -28.0994  -36.2583   24.6310 H   0  0  0  0  0  0
  -27.2252  -37.1420   25.8882 H   0  0  0  0  0  0
  -20.9315  -29.8786   21.6923 H   0  0  0  0  0  0
  -26.0106  -38.2828   24.1480 H   0  0  0  0  0  0
  -28.2115  -21.3332   18.6996 H   0  0  0  0  0  0
  -30.1823  -24.0240   23.4803 H   0  0  0  0  0  0
  -29.1362  -22.7673   24.1394 H   0  0  0  0  0  0
  -28.4310  -24.2839   23.6412 H   0  0  0  0  0  0
  -27.8124  -19.1366   20.4615 H   0  0  0  0  0  0
  -28.7251  -19.1972   21.9139 H   0  0  0  0  0  0
  -28.7717  -25.6999   21.9497 H   0  0  0  0  0  0
  -27.1469  -25.2967   21.5195 H   0  0  0  0  0  0
  -30.7704  -19.0249   20.0888 H   0  0  0  0  0  0
  -29.5800  -18.1160   19.2415 H   0  0  0  0  0  0
  -30.1497  -17.3259   22.1509 H   0  0  0  0  0  0
  -31.4442  -17.1330   21.0426 H   0  0  0  0  0  0
  -28.9092  -15.5565   20.9518 H   0  0  0  0  0  0
  1 25  1  0  0  0
  1 30  2  0  0  0
  1 82  1  0  0  0
  2  3  1  0  0  0
  2 25  1  0  0  0
  2 83  1  0  0  0
  2 84  1  0  0  0
  3  4  1  0  0  0
  3 85  1  0  0  0
  3 86  1  0  0  0
  4  5  1  0  0  0
  4 87  1  0  0  0
  4 88  1  0  0  0
  5  6  1  0  0  0
  5 26  1  0  0  0
  5 89  1  0  0  0
  6 25  1  0  0  0
  6 90  1  0  0  0
  6 91  1  0  0  0
  7  8  2  0  0  0
  7 26  1  0  0  0
  7 29  1  0  0  0
  8  9  1  0  0  0
  8 22  1  0  0  0
  9 10  1  0  0  0
  9 27  2  0  0  0
 10 11  2  0  0  0
 10 15  1  0  0  0
 11 12  1  0  0  0
 11 92  1  0  0  0
 12 13  2  0  0  0
 12 93  1  0  0  0
 13 14  1  0  0  0
 13 31  1  0  0  0
 14 15  2  0  0  0
 14 94  1  0  0  0
 15 95  1  0  0  0
 16 17  2  0  0  0
 16 21  1  0  0  0
 16 31  1  0  0  0
 17 18  1  0  0  0
 17 96  1  0  0  0
 18 19  2  0  0  0
 18 97  1  0  0  0
 19 20  1  0  0  0
 19 24  1  0  0  0
 20 21  2  0  0  0
 20 98  1  0  0  0
 21 23  1  0  0  0
 22 28  1  0  0  0
 22 32  2  0  0  0
 26 27  1  0  0  0
 28 99  1  0  0  0
 28100  1  0  0  0
 29101  1  0  0  0
 29102  1  0  0  0
 33 34  1  0  0  0
 33 66  1  0  0  0
 33 70  2  0  0  0
 34 36  1  0  0  0
 34 59  1  0  0  0
 34103  1  0  0  0
 35 44  2  0  0  0
 35 45  1  0  0  0
 35 68  1  0  0  0
 36 56  1  0  0  0
 36104  1  0  0  0
 37 39  1  0  0  0
 37 47  1  0  0  0
 37 66  1  0  0  0
 37105  1  0  0  0
 38 43  2  0  0  0
 38 46  1  0  0  0
 38 47  1  0  0  0
 39 64  1  0  0  0
 39 67  2  0  0  0
 40 52  1  0  0  0
 40 53  2  0  0  0
 40 58  1  0  0  0
 41106  1  0  0  0
 41107  1  0  0  0
 41108  1  0  0  0
 41 48  1  0  0  0
 42 43  1  0  0  0
 42 66  1  0  0  0
 42109  1  0  0  0
 42110  1  0  0  0
 43 44  1  0  0  0
 44111  1  0  0  0
 45 46  2  0  0  0
 45112  1  0  0  0
 46113  1  0  0  0
 47114  1  0  0  0
 47115  1  0  0  0
 48 56  1  0  0  0
 48 65  1  0  0  0
 48116  1  0  0  0
 49 50  1  0  0  0
 49 53  1  0  0  0
 49 64  1  0  0  0
 49117  1  0  0  0
 50 51  1  0  0  0
 50118  1  0  0  0
 50119  1  0  0  0
 51 52  1  0  0  0
 51120  1  0  0  0
 51121  1  0  0  0
 52122  1  0  0  0
 52123  1  0  0  0
 53 54  1  0  0  0
 54 55  2  0  0  0
 54124  1  0  0  0
 55 57  1  0  0  0
 55125  1  0  0  0
 56 69  2  0  0  0
 57 58  2  0  0  0
 57126  1  0  0  0
 58127  1  0  0  0
 59 60  1  0  0  0
 59 61  1  0  0  0
 59 62  1  0  0  0
 60128  1  0  0  0
 60129  1  0  0  0
 60130  1  0  0  0
 61131  1  0  0  0
 61132  1  0  0  0
 61133  1  0  0  0
 62134  1  0  0  0
 62135  1  0  0  0
 62136  1  0  0  0
 63 65  1  0  0  0
 63137  1  0  0  0
 63138  1  0  0  0
 63139  1  0  0  0
 64140  1  0  0  0
 65141  1  0  0  0
 68 77  1  0  0  0
 71 72  2  0  0  0
 71 80  1  0  0  0
 71142  1  0  0  0
 72 76  1  0  0  0
 72 81  1  0  0  0
 73 74  1  0  0  0
 73 75  1  0  0  0
 73 81  2  0  0  0
 74 77  1  0  0  0
 74 80  2  0  0  0
 75143  1  0  0  0
 75144  1  0  0  0
 75145  1  0  0  0
 76 78  1  0  0  0
 76146  1  0  0  0
 76147  1  0  0  0
 77148  1  0  0  0
 77149  1  0  0  0
 78 79  1  0  0  0
 78150  1  0  0  0
 78151  1  0  0  0
 79 82  1  0  0  0
 79152  1  0  0  0
 79153  1  0  0  0
 82154  1  0  0  0
M  ISO  4   1 100  68 101  77 101  82 100
M  END
> <chiral flag>
0

> <version>
0

> <s_m_source_file>
/data/baiqing/PycharmProjects/Reinvent-master-3.2/result/LINK_invent/BTK/process_docking_weight1_custom_sum_contain_oxygen_bond_distance_aromatic_linkinvent_7_9_3/rearranged_h_0047.sdf

> <i_m_source_file_index>
95

> <r_mmod_Potential_Energy-OPLS-2005>
190.351425170898

> <r_mmod_Stretch_Energy-OPLS-2005>
91.8036956787109

> <r_mmod_Bend_Energy-OPLS-2005>
163.572357177734

> <r_mmod_Torsional_Energy-OPLS-2005>
256.384735107422

> <r_mmod_Improper_Torsional_Energy-OPLS-2005>
6.62362957000732

> <r_mmod_Van_der_Waal_Energy-OPLS-2005>
144.919830322266

> <r_mmod_Electrostatic_Energy-OPLS-2005>
-299.538452148438

> <r_mmod_Solvation_Energy-OPLS-2005>
-228.531341552734

> <b_mmod_Minimization_Converged-OPLS-2005>
0

> <r_mmod_RMS_Derivative-OPLS-2005>
3.56467437744141

$$$$
95
                    3D
 Structure written by MMmdl.
154162  0  0  1  0            999 V2000
  -30.4865  -14.9828   20.4280 C   0  0  0  0  0  0
  -30.4481  -12.6180   19.4751 C   0  0  0  0  0  0
  -29.5123  -12.5060   18.2466 C   0  0  0  0  0  0
  -28.0515  -12.2801   18.6862 C   0  0  0  0  0  0
  -27.6197  -13.2359   19.8265 C   0  0  2  0  0  0
  -28.6654  -13.2783   20.9561 C   0  0  0  0  0  0
  -25.2439  -13.8190   20.5757 C   0  0  0  0  0  0
  -24.1743  -13.0434   20.9274 C   0  0  0  0  0  0
  -24.6348  -11.6916   20.8803 C   0  0  0  0  0  0
  -23.9039  -10.4296   21.0449 C   0  0  0  0  0  0
  -24.3593   -9.4207   21.9220 C   0  0  0  0  0  0
  -23.6266   -8.2242   22.0778 C   0  0  0  0  0  0
  -22.4251   -8.0284   21.3556 C   0  0  0  0  0  0
  -21.9893   -9.0270   20.4668 C   0  0  0  0  0  0
  -22.7223  -10.2143   20.3085 C   0  0  0  0  0  0
  -21.6844   -6.0739   22.5287 C   0  0  0  0  0  0
  -21.4020   -6.5643   23.8227 C   0  0  0  0  0  0
  -21.3659   -5.6790   24.9189 C   0  0  0  0  0  0
  -21.6036   -4.3048   24.7227 C   0  0  0  0  0  0
  -21.8819   -3.8149   23.4350 C   0  0  0  0  0  0
  -21.9191   -4.6964   22.3409 C   0  0  0  0  0  0
  -22.7768  -13.5226   21.1913 C   0  0  0  0  0  0
  -22.1654   -4.2158   21.0981 F   0  0  0  0  0  0
  -21.5628   -3.4535   25.7734 F   0  0  0  0  0  0
  -29.9294  -13.7090   20.3445 N   0  0  0  0  0  0
  -26.2822  -12.9389   20.3224 N   0  0  0  0  0  0
  -25.9261  -11.6539   20.5747 N   0  0  0  0  0  0
  -22.0371  -12.8248   22.0457 N   0  0  0  0  0  0
  -25.4087  -15.1927   20.4226 N   0  0  0  0  0  0
  -31.7091  -15.0807   20.2788 O   0  0  0  0  0  0
  -21.6626   -6.8872   21.4242 O   0  0  0  0  0  0
  -22.3483  -14.5538   20.6738 O   0  0  0  0  0  0
  -24.6460  -31.8432   23.1804 C   0  0  0  0  0  0
  -25.9221  -32.4716   23.8217 C   0  0  1  0  0  0
  -27.2341  -27.1164   20.1821 C   0  0  0  0  0  0
  -25.5961  -33.8517   24.2139 N   0  0  0  0  0  0
  -23.4497  -30.4539   21.5300 C   0  0  2  0  0  0
  -24.9002  -28.8582   20.1281 C   0  0  0  0  0  0
  -22.7564  -29.4556   22.4895 C   0  0  0  0  0  0
  -18.0296  -28.1407   22.8476 C   0  0  0  0  0  0
  -24.1462  -36.7285   23.2625 C   0  0  0  0  0  0
  -26.0002  -30.7176   21.3667 C   0  0  0  0  0  0
  -26.0785  -29.3144   20.7351 C   0  0  0  0  0  0
  -27.2475  -28.4639   20.7320 C   0  0  0  0  0  0
  -26.0275  -26.7528   19.5503 C   0  0  0  0  0  0
  -24.8885  -27.5913   19.5189 C   0  0  0  0  0  0
  -23.6739  -29.7591   20.1590 C   0  0  0  0  0  0
  -25.4097  -36.3031   24.0289 C   0  0  1  0  0  0
  -20.5903  -28.3735   23.1230 C   0  0  2  0  0  0
  -20.6778  -26.9446   22.5394 C   0  0  0  0  0  0
  -19.5755  -26.6401   21.5195 C   0  0  0  0  0  0
  -18.1937  -26.7952   22.1611 C   0  0  0  0  0  0
  -19.1553  -28.8888   23.2842 C   0  0  0  0  0  0
  -18.9480  -30.1476   23.8889 C   0  0  0  0  0  0
  -17.6480  -30.6614   24.0558 C   0  0  0  0  0  0
  -25.9065  -34.9419   23.5019 C   0  0  0  0  0  0
  -16.5366  -29.9107   23.6346 C   0  0  0  0  0  0
  -16.7278  -28.6511   23.0385 C   0  0  0  0  0  0
  -26.4521  -31.6601   25.0677 C   0  0  0  0  0  0
  -25.3729  -31.3855   26.1405 C   0  0  0  0  0  0
  -27.0352  -30.2997   24.6215 C   0  0  0  0  0  0
  -27.6022  -32.4382   25.7531 C   0  0  0  0  0  0
  -27.5548  -37.1782   24.8448 C   0  0  0  0  0  0
  -21.4251  -29.3053   22.3607 N   0  0  0  0  0  0
  -26.4241  -37.3761   23.9428 N   0  0  0  0  0  0
  -24.7205  -31.0262   22.0838 N   0  0  0  0  0  0
  -23.4175  -28.8156   23.3099 O   0  0  0  0  0  0
  -28.3443  -26.2021   20.0889 O   0  0  0  0  0  0
  -26.5641  -34.8930   22.4589 O   0  0  0  0  0  0
  -23.5587  -32.1302   23.7027 O   0  0  0  0  0  0
  -30.2565  -20.7419   21.8214 C   0  0  0  0  0  0
  -29.4064  -20.4214   20.7491 C   0  0  0  0  0  0
  -29.7670  -19.0504   20.2310 C   0  0  0  0  0  0
  -31.8947  -19.4936   20.8187 C   0  0  0  0  0  0
  -33.3617  -19.1338   20.7165 C   0  0  0  0  0  0
  -29.0658  -21.8100   19.9000 C   0  0  0  0  0  0
  -29.5496  -17.6008   20.9989 C   0  0  0  0  0  0
  -28.1266  -23.1920   20.2732 C   0  0  0  0  0  0
  -28.5319  -24.7805   20.7198 C   0  0  0  0  0  0
  -31.5243  -20.2745   21.8330 N   0  0  0  0  0  0
  -31.0711  -18.9689   19.9123 N   0  0  0  0  0  0
  -29.6184  -16.1108   20.4521 N   0  0  0  0  0  0
  -31.4693  -12.8192   19.1465 H   0  0  0  0  0  0
  -30.4886  -11.6748   20.0235 H   0  0  0  0  0  0
  -29.8340  -11.6870   17.6012 H   0  0  0  0  0  0
  -29.5767  -13.4130   17.6456 H   0  0  0  0  0  0
  -27.9770  -11.2490   19.0352 H   0  0  0  0  0  0
  -27.3737  -12.3661   17.8372 H   0  0  0  0  0  0
  -27.5760  -14.2274   19.3745 H   0  0  0  0  0  0
  -28.7646  -12.3046   21.4378 H   0  0  0  0  0  0
  -28.3590  -13.9779   21.7359 H   0  0  0  0  0  0
  -25.2730   -9.5688   22.4821 H   0  0  0  0  0  0
  -23.9982   -7.4622   22.7494 H   0  0  0  0  0  0
  -21.0832   -8.8788   19.8964 H   0  0  0  0  0  0
  -22.3683  -10.9696   19.6209 H   0  0  0  0  0  0
  -21.2018   -7.6149   23.9736 H   0  0  0  0  0  0
  -21.1479   -6.0517   25.9088 H   0  0  0  0  0  0
  -22.0592   -2.7614   23.2847 H   0  0  0  0  0  0
  -22.3910  -11.9894   22.4874 H   0  0  0  0  0  0
  -21.1001  -13.1347   22.2621 H   0  0  0  0  0  0
  -24.6388  -15.8357   20.5729 H   0  0  0  0  0  0
  -26.2294  -15.6488   20.0509 H   0  0  0  0  0  0
  -26.7306  -32.5337   23.0967 H   0  0  0  0  0  0
  -25.0133  -33.9627   25.0300 H   0  0  0  0  0  0
  -22.7529  -31.2788   21.3619 H   0  0  0  0  0  0
  -23.3712  -35.9628   23.3269 H   0  0  0  0  0  0
  -24.3531  -36.8957   22.2043 H   0  0  0  0  0  0
  -23.7225  -37.6474   23.6698 H   0  0  0  0  0  0
  -26.1166  -31.4499   20.5664 H   0  0  0  0  0  0
  -26.8871  -30.8096   21.9829 H   0  0  0  0  0  0
  -28.1632  -28.8270   21.1764 H   0  0  0  0  0  0
  -25.9652  -25.7854   19.0714 H   0  0  0  0  0  0
  -23.9900  -27.2377   19.0314 H   0  0  0  0  0  0
  -23.7986  -30.5158   19.3846 H   0  0  0  0  0  0
  -22.7925  -29.1857   19.8686 H   0  0  0  0  0  0
  -25.1265  -36.1830   25.0771 H   0  0  0  0  0  0
  -20.9977  -28.3341   24.1353 H   0  0  0  0  0  0
  -20.5660  -26.2363   23.3611 H   0  0  0  0  0  0
  -21.6648  -26.7459   22.1200 H   0  0  0  0  0  0
  -19.6930  -25.6307   21.1240 H   0  0  0  0  0  0
  -19.6696  -27.3197   20.6716 H   0  0  0  0  0  0
  -17.4197  -26.6674   21.4027 H   0  0  0  0  0  0
  -18.0368  -26.0095   22.9016 H   0  0  0  0  0  0
  -19.7961  -30.7272   24.2276 H   0  0  0  0  0  0
  -17.5052  -31.6302   24.5155 H   0  0  0  0  0  0
  -15.5376  -30.3013   23.7706 H   0  0  0  0  0  0
  -15.8662  -28.0821   22.7158 H   0  0  0  0  0  0
  -24.5889  -30.7181   25.7804 H   0  0  0  0  0  0
  -24.8943  -32.3077   26.4721 H   0  0  0  0  0  0
  -25.8039  -30.9152   27.0251 H   0  0  0  0  0  0
  -26.2939  -29.6793   24.1164 H   0  0  0  0  0  0
  -27.3913  -29.7224   25.4754 H   0  0  0  0  0  0
  -27.8856  -30.4230   23.9509 H   0  0  0  0  0  0
  -27.2548  -33.3690   26.2034 H   0  0  0  0  0  0
  -28.3918  -32.6955   25.0463 H   0  0  0  0  0  0
  -28.0589  -31.8574   26.5549 H   0  0  0  0  0  0
  -28.2526  -38.0115   24.7525 H   0  0  0  0  0  0
  -28.1065  -36.2640   24.6205 H   0  0  0  0  0  0
  -27.2283  -37.1368   25.8854 H   0  0  0  0  0  0
  -20.9503  -29.8672   21.6675 H   0  0  0  0  0  0
  -26.0085  -38.2796   24.1534 H   0  0  0  0  0  0
  -30.1355  -21.6627   22.3729 H   0  0  0  0  0  0
  -33.8204  -19.0942   21.7043 H   0  0  0  0  0  0
  -33.8952  -19.8731   20.1192 H   0  0  0  0  0  0
  -33.4931  -18.1559   20.2520 H   0  0  0  0  0  0
  -28.6104  -21.4178   18.9905 H   0  0  0  0  0  0
  -30.0286  -22.1813   19.5478 H   0  0  0  0  0  0
  -28.5380  -17.6834   21.3994 H   0  0  0  0  0  0
  -30.1675  -17.6049   21.8982 H   0  0  0  0  0  0
  -27.3404  -22.8639   20.9540 H   0  0  0  0  0  0
  -27.5772  -23.3658   19.3477 H   0  0  0  0  0  0
  -29.6107  -24.7395   20.8714 H   0  0  0  0  0  0
  -28.1520  -24.8971   21.7356 H   0  0  0  0  0  0
  -28.6806  -15.7945   20.2736 H   0  0  0  0  0  0
  1 25  1  0  0  0
  1 30  2  0  0  0
  1 82  1  0  0  0
  2  3  1  0  0  0
  2 25  1  0  0  0
  2 83  1  0  0  0
  2 84  1  0  0  0
  3  4  1  0  0  0
  3 85  1  0  0  0
  3 86  1  0  0  0
  4  5  1  0  0  0
  4 87  1  0  0  0
  4 88  1  0  0  0
  5  6  1  0  0  0
  5 26  1  0  0  0
  5 89  1  0  0  0
  6 25  1  0  0  0
  6 90  1  0  0  0
  6 91  1  0  0  0
  7  8  2  0  0  0
  7 26  1  0  0  0
  7 29  1  0  0  0
  8  9  1  0  0  0
  8 22  1  0  0  0
  9 10  1  0  0  0
  9 27  2  0  0  0
 10 11  2  0  0  0
 10 15  1  0  0  0
 11 12  1  0  0  0
 11 92  1  0  0  0
 12 13  2  0  0  0
 12 93  1  0  0  0
 13 14  1  0  0  0
 13 31  1  0  0  0
 14 15  2  0  0  0
 14 94  1  0  0  0
 15 95  1  0  0  0
 16 17  2  0  0  0
 16 21  1  0  0  0
 16 31  1  0  0  0
 17 18  1  0  0  0
 17 96  1  0  0  0
 18 19  2  0  0  0
 18 97  1  0  0  0
 19 20  1  0  0  0
 19 24  1  0  0  0
 20 21  2  0  0  0
 20 98  1  0  0  0
 21 23  1  0  0  0
 22 28  1  0  0  0
 22 32  2  0  0  0
 26 27  1  0  0  0
 28 99  1  0  0  0
 28100  1  0  0  0
 29101  1  0  0  0
 29102  1  0  0  0
 33 34  1  0  0  0
 33 66  1  0  0  0
 33 70  2  0  0  0
 34 36  1  0  0  0
 34 59  1  0  0  0
 34103  1  0  0  0
 35 44  2  0  0  0
 35 45  1  0  0  0
 35 68  1  0  0  0
 36 56  1  0  0  0
 36104  1  0  0  0
 37 39  1  0  0  0
 37 47  1  0  0  0
 37 66  1  0  0  0
 37105  1  0  0  0
 38 43  2  0  0  0
 38 46  1  0  0  0
 38 47  1  0  0  0
 39 64  1  0  0  0
 39 67  2  0  0  0
 40 52  1  0  0  0
 40 53  2  0  0  0
 40 58  1  0  0  0
 41106  1  0  0  0
 41107  1  0  0  0
 41108  1  0  0  0
 41 48  1  0  0  0
 42 43  1  0  0  0
 42 66  1  0  0  0
 42109  1  0  0  0
 42110  1  0  0  0
 43 44  1  0  0  0
 44111  1  0  0  0
 45 46  2  0  0  0
 45112  1  0  0  0
 46113  1  0  0  0
 47114  1  0  0  0
 47115  1  0  0  0
 48 56  1  0  0  0
 48 65  1  0  0  0
 48116  1  0  0  0
 49 50  1  0  0  0
 49 53  1  0  0  0
 49 64  1  0  0  0
 49117  1  0  0  0
 50 51  1  0  0  0
 50118  1  0  0  0
 50119  1  0  0  0
 51 52  1  0  0  0
 51120  1  0  0  0
 51121  1  0  0  0
 52122  1  0  0  0
 52123  1  0  0  0
 53 54  1  0  0  0
 54 55  2  0  0  0
 54124  1  0  0  0
 55 57  1  0  0  0
 55125  1  0  0  0
 56 69  2  0  0  0
 57 58  2  0  0  0
 57126  1  0  0  0
 58127  1  0  0  0
 59 60  1  0  0  0
 59 61  1  0  0  0
 59 62  1  0  0  0
 60128  1  0  0  0
 60129  1  0  0  0
 60130  1  0  0  0
 61131  1  0  0  0
 61132  1  0  0  0
 61133  1  0  0  0
 62134  1  0  0  0
 62135  1  0  0  0
 62136  1  0  0  0
 63 65  1  0  0  0
 63137  1  0  0  0
 63138  1  0  0  0
 63139  1  0  0  0
 64140  1  0  0  0
 65141  1  0  0  0
 68 79  1  0  0  0
 71 72  2  0  0  0
 71 80  1  0  0  0
 71142  1  0  0  0
 72 73  1  0  0  0
 72 76  1  0  0  0
 73 77  1  0  0  0
 73 81  2  0  0  0
 74 75  1  0  0  0
 74 80  2  0  0  0
 74 81  1  0  0  0
 75143  1  0  0  0
 75144  1  0  0  0
 75145  1  0  0  0
 76 78  1  0  0  0
 76146  1  0  0  0
 76147  1  0  0  0
 77 82  1  0  0  0
 77148  1  0  0  0
 77149  1  0  0  0
 78 79  1  0  0  0
 78150  1  0  0  0
 78151  1  0  0  0
 79152  1  0  0  0
 79153  1  0  0  0
 82154  1  0  0  0
M  ISO  4   1 100  68 101  79 101  82 100
M  END
> <chiral flag>
0

> <version>
0

> <s_m_source_file>
/data/baiqing/PycharmProjects/Reinvent-master-3.2/result/LINK_invent/BTK/process_docking_weight1_custom_sum_contain_oxygen_bond_distance_aromatic_linkinvent_7_9_3/rearranged_h_0047.sdf

> <i_m_source_file_index>
96

> <r_mmod_Potential_Energy-OPLS-2005>
411.106567382812

> <r_mmod_Stretch_Energy-OPLS-2005>
290.841979980469

> <r_mmod_Bend_Energy-OPLS-2005>
417.341430664062

> <r_mmod_Torsional_Energy-OPLS-2005>
438.454284667969

> <r_mmod_Improper_Torsional_Energy-OPLS-2005>
39.6401023864746

> <r_mmod_Van_der_Waal_Energy-OPLS-2005>
139.194564819336

> <r_mmod_Electrostatic_Energy-OPLS-2005>
-877.810363769531

> <r_mmod_Solvation_Energy-OPLS-2005>
-246.626235961914

> <b_mmod_Minimization_Converged-OPLS-2005>
0

> <r_mmod_RMS_Derivative-OPLS-2005>
2.80402183532715

$$$$
96
                    3D
 Structure written by MMmdl.
187195  0  0  1  0            999 V2000
  -30.7406  -14.5390   20.5529 C   0  0  0  0  0  0
  -30.4059  -12.3527   19.4435 C   0  0  0  0  0  0
  -29.4881  -12.4921   18.2139 C   0  0  0  0  0  0
  -28.0162  -12.3214   18.6323 C   0  0  0  0  0  0
  -27.6475  -13.1966   19.8568 C   0  0  2  0  0  0
  -28.6954  -13.0478   20.9914 C   0  0  0  0  0  0
  -25.2535  -13.8126   20.5665 C   0  0  0  0  0  0
  -24.1810  -13.0428   20.9225 C   0  0  0  0  0  0
  -24.6350  -11.6887   20.8767 C   0  0  0  0  0  0
  -23.9019  -10.4281   21.0436 C   0  0  0  0  0  0
  -24.3584   -9.4200   21.9202 C   0  0  0  0  0  0
  -23.6271   -8.2231   22.0759 C   0  0  0  0  0  0
  -22.4262   -8.0266   21.3543 C   0  0  0  0  0  0
  -21.9890   -9.0239   20.4649 C   0  0  0  0  0  0
  -22.7205  -10.2123   20.3073 C   0  0  0  0  0  0
  -21.6846   -6.0719   22.5275 C   0  0  0  0  0  0
  -21.4004   -6.5626   23.8204 C   0  0  0  0  0  0
  -21.3659   -5.6786   24.9175 C   0  0  0  0  0  0
  -21.6052   -4.3045   24.7232 C   0  0  0  0  0  0
  -21.8819   -3.8131   23.4351 C   0  0  0  0  0  0
  -21.9195   -4.6948   22.3404 C   0  0  0  0  0  0
  -22.7832  -13.5235   21.1888 C   0  0  0  0  0  0
  -22.1671   -4.2130   21.0984 F   0  0  0  0  0  0
  -21.5642   -3.4536   25.7746 F   0  0  0  0  0  0
  -30.0054  -13.3877   20.4245 N   0  0  0  0  0  0
  -26.2940  -12.9272   20.3292 N   0  0  0  0  0  0
  -25.9264  -11.6451   20.5761 N   0  0  0  0  0  0
  -22.0456  -12.8248   22.0445 N   0  0  0  0  0  0
  -25.4245  -15.1832   20.3960 N   0  0  0  0  0  0
  -31.8849  -14.5690   20.0923 O   0  0  0  0  0  0
  -21.6630   -6.8865   21.4236 O   0  0  0  0  0  0
  -22.3539  -14.5557   20.6733 O   0  0  0  0  0  0
  -24.6191  -31.8660   23.2082 C   0  0  0  0  0  0
  -25.9071  -32.4807   23.8389 C   0  0  1  0  0  0
  -27.2237  -27.4043   20.1075 C   0  0  0  0  0  0
  -25.5928  -33.8602   24.2327 N   0  0  0  0  0  0
  -23.4077  -30.4895   21.5502 C   0  0  2  0  0  0
  -24.8546  -28.9560   20.1093 C   0  0  0  0  0  0
  -22.7436  -29.4638   22.4983 C   0  0  0  0  0  0
  -18.0273  -28.1369   22.8490 C   0  0  0  0  0  0
  -24.1485  -36.7300   23.2643 C   0  0  0  0  0  0
  -25.9389  -30.8231   21.3658 C   0  0  0  0  0  0
  -26.0176  -29.4569   20.7105 C   0  0  0  0  0  0
  -27.2095  -28.6892   20.7058 C   0  0  0  0  0  0
  -26.0496  -26.9345   19.4818 C   0  0  0  0  0  0
  -24.8671  -27.6951   19.4897 C   0  0  0  0  0  0
  -23.6165  -29.8247   20.1637 C   0  0  0  0  0  0
  -25.4105  -36.3093   24.0332 C   0  0  1  0  0  0
  -20.5865  -28.3660   23.1305 C   0  0  2  0  0  0
  -20.6766  -26.9399   22.5409 C   0  0  0  0  0  0
  -19.5739  -26.6375   21.5211 C   0  0  0  0  0  0
  -18.1914  -26.7917   22.1616 C   0  0  0  0  0  0
  -19.1527  -28.8830   23.2887 C   0  0  0  0  0  0
  -18.9458  -30.1442   23.8889 C   0  0  0  0  0  0
  -17.6461  -30.6585   24.0563 C   0  0  0  0  0  0
  -25.9036  -34.9462   23.5121 C   0  0  0  0  0  0
  -16.5347  -29.9082   23.6339 C   0  0  0  0  0  0
  -16.7261  -28.6498   23.0353 C   0  0  0  0  0  0
  -26.4492  -31.6594   25.0731 C   0  0  0  0  0  0
  -25.3752  -31.3681   26.1478 C   0  0  0  0  0  0
  -27.0350  -30.3044   24.6108 C   0  0  0  0  0  0
  -27.6058  -32.4330   25.7493 C   0  0  0  0  0  0
  -27.5571  -37.1797   24.8468 C   0  0  0  0  0  0
  -21.4154  -29.3025   22.3717 N   0  0  0  0  0  0
  -26.4286  -37.3782   23.9412 N   0  0  0  0  0  0
  -24.6738  -31.0742   22.0991 N   0  0  0  0  0  0
  -23.4199  -28.8194   23.3048 O   0  0  0  0  0  0
  -28.3431  -26.5923   20.1464 O   0  0  0  0  0  0
  -26.5598  -34.8924   22.4683 O   0  0  0  0  0  0
  -23.5374  -32.1418   23.7463 O   0  0  0  0  0  0
  -31.7951  -17.6724   19.5656 C   0  0  0  0  0  0
  -32.2936  -18.7522   18.8159 C   0  0  0  0  0  0
  -31.8724  -17.6990   20.9763 C   0  0  0  0  0  0
  -32.8960  -19.8219   19.5036 C   0  0  0  0  0  0
  -32.5299  -18.8079   21.5694 C   0  0  0  0  0  0
  -28.6527  -18.9051   21.0211 C   0  0  0  0  0  0
  -32.1637  -18.7532   17.3017 C   0  0  0  0  0  0
  -33.4132  -21.0483   18.7763 C   0  0  0  0  0  0
  -30.5104  -21.0485   27.1812 C   0  0  0  0  0  0
  -31.2720  -16.5640   21.8342 C   0  0  0  0  0  0
  -32.7321  -18.9578   23.0740 C   0  0  0  0  0  0
  -28.1251  -20.1145   20.2159 C   0  0  0  0  0  0
  -28.6068  -17.5038   20.3569 C   0  0  0  0  0  0
  -30.8974  -21.2276   25.7090 C   0  0  0  0  0  0
  -31.9474  -20.1496   23.6533 C   0  0  0  0  0  0
  -28.9743  -21.4290   20.2412 C   0  0  0  0  0  0
  -31.7072  -20.0417   25.1654 C   0  0  0  0  0  0
  -28.1939  -22.7135   20.6605 C   0  0  0  0  0  0
  -28.7576  -24.0718   20.1309 C   0  0  0  0  0  0
  -28.9024  -16.2562   21.2649 C   0  0  0  0  0  0
  -28.1277  -25.3205   20.8139 C   0  0  0  0  0  0
  -33.0336  -19.8296   20.8425 N   0  0  0  0  0  0
  -30.2750  -15.6677   21.1981 N   0  0  0  0  0  0
  -29.0040  -19.0447   22.1922 O   0  0  0  0  0  0
  -31.4494  -12.4244   19.1327 H   0  0  0  0  0  0
  -30.3095  -11.3577   19.8808 H   0  0  0  0  0  0
  -29.7508  -11.7472   17.4612 H   0  0  0  0  0  0
  -29.6330  -13.4665   17.7443 H   0  0  0  0  0  0
  -27.8627  -11.2689   18.8725 H   0  0  0  0  0  0
  -27.3555  -12.5406   17.7925 H   0  0  0  0  0  0
  -27.6612  -14.2158   19.4742 H   0  0  0  0  0  0
  -28.7060  -12.0190   21.3542 H   0  0  0  0  0  0
  -28.4592  -13.6433   21.8724 H   0  0  0  0  0  0
  -25.2725   -9.5687   22.4783 H   0  0  0  0  0  0
  -23.9985   -7.4623   22.7471 H   0  0  0  0  0  0
  -21.0825   -8.8750   19.8948 H   0  0  0  0  0  0
  -22.3662  -10.9666   19.6186 H   0  0  0  0  0  0
  -21.1980   -7.6132   23.9706 H   0  0  0  0  0  0
  -21.1491   -6.0518   25.9078 H   0  0  0  0  0  0
  -22.0598   -2.7589   23.2863 H   0  0  0  0  0  0
  -22.4025  -11.9889   22.4838 H   0  0  0  0  0  0
  -21.1067  -13.1281   22.2618 H   0  0  0  0  0  0
  -24.6530  -15.8348   20.4886 H   0  0  0  0  0  0
  -26.2558  -15.6041   20.0053 H   0  0  0  0  0  0
  -26.7147  -32.5517   23.1151 H   0  0  0  0  0  0
  -25.0120  -33.9745   25.0502 H   0  0  0  0  0  0
  -22.6977  -31.3076   21.4132 H   0  0  0  0  0  0
  -23.3739  -35.9641   23.3317 H   0  0  0  0  0  0
  -24.3576  -36.8907   22.2059 H   0  0  0  0  0  0
  -23.7242  -37.6502   23.6658 H   0  0  0  0  0  0
  -26.0572  -31.5889   20.5990 H   0  0  0  0  0  0
  -26.8238  -30.8743   21.9876 H   0  0  0  0  0  0
  -28.1042  -29.0636   21.1841 H   0  0  0  0  0  0
  -26.0452  -25.9655   19.0017 H   0  0  0  0  0  0
  -23.9755  -27.3039   19.0199 H   0  0  0  0  0  0
  -23.7238  -30.6020   19.4060 H   0  0  0  0  0  0
  -22.7372  -29.2476   19.8701 H   0  0  0  0  0  0
  -25.1277  -36.1957   25.0820 H   0  0  0  0  0  0
  -20.9943  -28.3236   24.1429 H   0  0  0  0  0  0
  -20.5687  -26.2266   23.3597 H   0  0  0  0  0  0
  -21.6633  -26.7453   22.1191 H   0  0  0  0  0  0
  -19.6912  -25.6293   21.1232 H   0  0  0  0  0  0
  -19.6686  -27.3195   20.6749 H   0  0  0  0  0  0
  -17.4194  -26.6671   21.4014 H   0  0  0  0  0  0
  -18.0307  -26.0057   22.9005 H   0  0  0  0  0  0
  -19.7942  -30.7252   24.2254 H   0  0  0  0  0  0
  -17.5026  -31.6266   24.5163 H   0  0  0  0  0  0
  -15.5348  -30.2979   23.7680 H   0  0  0  0  0  0
  -15.8655  -28.0821   22.7062 H   0  0  0  0  0  0
  -24.5927  -30.7024   25.7816 H   0  0  0  0  0  0
  -24.8932  -32.2820   26.4959 H   0  0  0  0  0  0
  -25.8109  -30.8838   27.0228 H   0  0  0  0  0  0
  -26.2896  -29.6750   24.1230 H   0  0  0  0  0  0
  -27.4217  -29.7334   25.4556 H   0  0  0  0  0  0
  -27.8682  -30.4378   23.9201 H   0  0  0  0  0  0
  -27.2676  -33.3635   26.2066 H   0  0  0  0  0  0
  -28.3866  -32.6877   25.0313 H   0  0  0  0  0  0
  -28.0731  -31.8458   26.5412 H   0  0  0  0  0  0
  -28.2593  -38.0093   24.7527 H   0  0  0  0  0  0
  -28.1065  -36.2625   24.6288 H   0  0  0  0  0  0
  -27.2290  -37.1440   25.8873 H   0  0  0  0  0  0
  -20.9332  -29.8770   21.6946 H   0  0  0  0  0  0
  -26.0173  -38.2854   24.1425 H   0  0  0  0  0  0
  -31.3262  -16.8512   19.0462 H   0  0  0  0  0  0
  -31.7627  -17.8091   16.9320 H   0  0  0  0  0  0
  -33.1353  -18.9076   16.8314 H   0  0  0  0  0  0
  -31.4948  -19.5503   16.9769 H   0  0  0  0  0  0
  -32.6156  -21.5022   18.1887 H   0  0  0  0  0  0
  -34.2277  -20.7817   18.1027 H   0  0  0  0  0  0
  -33.7808  -21.8024   19.4723 H   0  0  0  0  0  0
  -29.9647  -21.9187   27.5481 H   0  0  0  0  0  0
  -31.3897  -20.9185   27.8124 H   0  0  0  0  0  0
  -29.8696  -20.1761   27.3134 H   0  0  0  0  0  0
  -30.7996  -17.0043   22.7117 H   0  0  0  0  0  0
  -32.0999  -15.9767   22.2371 H   0  0  0  0  0  0
  -33.7964  -19.0898   23.2741 H   0  0  0  0  0  0
  -32.4622  -18.0443   23.6001 H   0  0  0  0  0  0
  -27.9723  -19.8013   19.1824 H   0  0  0  0  0  0
  -27.1273  -20.3202   20.6037 H   0  0  0  0  0  0
  -29.2271  -17.5000   19.4648 H   0  0  0  0  0  0
  -27.5892  -17.4026   19.9798 H   0  0  0  0  0  0
  -31.4708  -22.1482   25.5922 H   0  0  0  0  0  0
  -29.9891  -21.3543   25.1173 H   0  0  0  0  0  0
  -30.9793  -20.2130   23.1621 H   0  0  0  0  0  0
  -32.4642  -21.0767   23.4055 H   0  0  0  0  0  0
  -29.3731  -21.5749   19.2374 H   0  0  0  0  0  0
  -29.8517  -21.3172   20.8831 H   0  0  0  0  0  0
  -31.1685  -19.1160   25.3748 H   0  0  0  0  0  0
  -32.6618  -19.9725   25.6887 H   0  0  0  0  0  0
  -28.1396  -22.7375   21.7505 H   0  0  0  0  0  0
  -27.1603  -22.6331   20.3203 H   0  0  0  0  0  0
  -28.5788  -24.1248   19.0568 H   0  0  0  0  0  0
  -29.8401  -24.1030   20.2594 H   0  0  0  0  0  0
  -28.1458  -15.5358   21.0117 H   0  0  0  0  0  0
  -28.6694  -16.4844   22.3057 H   0  0  0  0  0  0
  -28.5446  -25.4124   21.8177 H   0  0  0  0  0  0
  -27.0683  -25.1195   20.9762 H   0  0  0  0  0  0
  1 25  1  0  0  0
  1 30  2  0  0  0
  1 93  1  0  0  0
  2  3  1  0  0  0
  2 25  1  0  0  0
  2 95  1  0  0  0
  2 96  1  0  0  0
  3  4  1  0  0  0
  3 97  1  0  0  0
  3 98  1  0  0  0
  4  5  1  0  0  0
  4 99  1  0  0  0
  4100  1  0  0  0
  5  6  1  0  0  0
  5 26  1  0  0  0
  5101  1  0  0  0
  6 25  1  0  0  0
  6102  1  0  0  0
  6103  1  0  0  0
  7  8  2  0  0  0
  7 26  1  0  0  0
  7 29  1  0  0  0
  8  9  1  0  0  0
  8 22  1  0  0  0
  9 10  1  0  0  0
  9 27  2  0  0  0
 10 11  2  0  0  0
 10 15  1  0  0  0
 11 12  1  0  0  0
 11104  1  0  0  0
 12 13  2  0  0  0
 12105  1  0  0  0
 13 14  1  0  0  0
 13 31  1  0  0  0
 14 15  2  0  0  0
 14106  1  0  0  0
 15107  1  0  0  0
 16 17  2  0  0  0
 16 21  1  0  0  0
 16 31  1  0  0  0
 17 18  1  0  0  0
 17108  1  0  0  0
 18 19  2  0  0  0
 18109  1  0  0  0
 19 20  1  0  0  0
 19 24  1  0  0  0
 20 21  2  0  0  0
 20110  1  0  0  0
 21 23  1  0  0  0
 22 28  1  0  0  0
 22 32  2  0  0  0
 26 27  1  0  0  0
 28111  1  0  0  0
 28112  1  0  0  0
 29113  1  0  0  0
 29114  1  0  0  0
 33 34  1  0  0  0
 33 66  1  0  0  0
 33 70  2  0  0  0
 34 36  1  0  0  0
 34 59  1  0  0  0
 34115  1  0  0  0
 35 44  2  0  0  0
 35 45  1  0  0  0
 35 68  1  0  0  0
 36 56  1  0  0  0
 36116  1  0  0  0
 37 39  1  0  0  0
 37 47  1  0  0  0
 37 66  1  0  0  0
 37117  1  0  0  0
 38 43  2  0  0  0
 38 46  1  0  0  0
 38 47  1  0  0  0
 39 64  1  0  0  0
 39 67  2  0  0  0
 40 52  1  0  0  0
 40 53  2  0  0  0
 40 58  1  0  0  0
 41118  1  0  0  0
 41119  1  0  0  0
 41120  1  0  0  0
 41 48  1  0  0  0
 42 43  1  0  0  0
 42 66  1  0  0  0
 42121  1  0  0  0
 42122  1  0  0  0
 43 44  1  0  0  0
 44123  1  0  0  0
 45 46  2  0  0  0
 45124  1  0  0  0
 46125  1  0  0  0
 47126  1  0  0  0
 47127  1  0  0  0
 48 56  1  0  0  0
 48 65  1  0  0  0
 48128  1  0  0  0
 49 50  1  0  0  0
 49 53  1  0  0  0
 49 64  1  0  0  0
 49129  1  0  0  0
 50 51  1  0  0  0
 50130  1  0  0  0
 50131  1  0  0  0
 51 52  1  0  0  0
 51132  1  0  0  0
 51133  1  0  0  0
 52134  1  0  0  0
 52135  1  0  0  0
 53 54  1  0  0  0
 54 55  2  0  0  0
 54136  1  0  0  0
 55 57  1  0  0  0
 55137  1  0  0  0
 56 69  2  0  0  0
 57 58  2  0  0  0
 57138  1  0  0  0
 58139  1  0  0  0
 59 60  1  0  0  0
 59 61  1  0  0  0
 59 62  1  0  0  0
 60140  1  0  0  0
 60141  1  0  0  0
 60142  1  0  0  0
 61143  1  0  0  0
 61144  1  0  0  0
 61145  1  0  0  0
 62146  1  0  0  0
 62147  1  0  0  0
 62148  1  0  0  0
 63 65  1  0  0  0
 63149  1  0  0  0
 63150  1  0  0  0
 63151  1  0  0  0
 64152  1  0  0  0
 65153  1  0  0  0
 68 91  1  0  0  0
 71 72  2  0  0  0
 71 73  1  0  0  0
 71154  1  0  0  0
 72 74  1  0  0  0
 72 77  1  0  0  0
 73 75  2  0  0  0
 73 80  1  0  0  0
 74 78  1  0  0  0
 74 92  2  0  0  0
 75 81  1  0  0  0
 75 92  1  0  0  0
 76 82  1  0  0  0
 76 83  1  0  0  0
 76 94  2  0  0  0
 77155  1  0  0  0
 77156  1  0  0  0
 77157  1  0  0  0
 78158  1  0  0  0
 78159  1  0  0  0
 78160  1  0  0  0
 79 84  1  0  0  0
 79161  1  0  0  0
 79162  1  0  0  0
 79163  1  0  0  0
 80 93  1  0  0  0
 80164  1  0  0  0
 80165  1  0  0  0
 81 85  1  0  0  0
 81166  1  0  0  0
 81167  1  0  0  0
 82 86  1  0  0  0
 82168  1  0  0  0
 82169  1  0  0  0
 83 90  1  0  0  0
 83170  1  0  0  0
 83171  1  0  0  0
 84 87  1  0  0  0
 84172  1  0  0  0
 84173  1  0  0  0
 85 87  1  0  0  0
 85174  1  0  0  0
 85175  1  0  0  0
 86 88  1  0  0  0
 86176  1  0  0  0
 86177  1  0  0  0
 87178  1  0  0  0
 87179  1  0  0  0
 88 89  1  0  0  0
 88180  1  0  0  0
 88181  1  0  0  0
 89 91  1  0  0  0
 89182  1  0  0  0
 89183  1  0  0  0
 90 93  1  0  0  0
 90184  1  0  0  0
 90185  1  0  0  0
 91186  1  0  0  0
 91187  1  0  0  0
M  ISO  4   1 100  68 101  91 101  93 100
M  END
> <chiral flag>
0

> <version>
0

> <s_m_source_file>
/data/baiqing/PycharmProjects/Reinvent-master-3.2/result/LINK_invent/BTK/process_docking_weight1_custom_sum_contain_oxygen_bond_distance_aromatic_linkinvent_7_9_3/rearranged_h_0047.sdf

> <i_m_source_file_index>
97

> <r_mmod_Potential_Energy-OPLS-2005>
39.9967842102051

> <r_mmod_Stretch_Energy-OPLS-2005>
56.4248924255371

> <r_mmod_Bend_Energy-OPLS-2005>
147.264465332031

> <r_mmod_Torsional_Energy-OPLS-2005>
278.666229248047

> <r_mmod_Improper_Torsional_Energy-OPLS-2005>
2.76916646957397

> <r_mmod_Van_der_Waal_Energy-OPLS-2005>
151.3271484375

> <r_mmod_Electrostatic_Energy-OPLS-2005>
-405.801544189453

> <r_mmod_Solvation_Energy-OPLS-2005>
-217.057418823242

> <b_mmod_Minimization_Converged-OPLS-2005>
0

> <r_mmod_RMS_Derivative-OPLS-2005>
1.97313678264618

$$$$
97
                    3D
 Structure written by MMmdl.
148156  0  0  1  0            999 V2000
  -30.4770  -15.2518   20.3788 C   0  0  0  0  0  0
  -30.4428  -12.8002   19.5184 C   0  0  0  0  0  0
  -29.5344  -12.5581   18.2858 C   0  0  0  0  0  0
  -28.0869  -12.2744   18.7237 C   0  0  0  0  0  0
  -27.6134  -13.2578   19.8196 C   0  0  2  0  0  0
  -28.6557  -13.4168   20.9511 C   0  0  0  0  0  0
  -25.2325  -13.8147   20.5669 C   0  0  0  0  0  0
  -24.1716  -13.0366   20.9272 C   0  0  0  0  0  0
  -24.6383  -11.6880   20.8795 C   0  0  0  0  0  0
  -23.9081  -10.4256   21.0431 C   0  0  0  0  0  0
  -24.3619   -9.4169   21.9210 C   0  0  0  0  0  0
  -23.6292   -8.2206   22.0753 C   0  0  0  0  0  0
  -22.4280   -8.0258   21.3530 C   0  0  0  0  0  0
  -21.9921   -9.0237   20.4640 C   0  0  0  0  0  0
  -22.7254  -10.2111   20.3068 C   0  0  0  0  0  0
  -21.6846   -6.0726   22.5269 C   0  0  0  0  0  0
  -21.4012   -6.5633   23.8201 C   0  0  0  0  0  0
  -21.3654   -5.6787   24.9162 C   0  0  0  0  0  0
  -21.6043   -4.3050   24.7214 C   0  0  0  0  0  0
  -21.8826   -3.8141   23.4335 C   0  0  0  0  0  0
  -21.9198   -4.6958   22.3392 C   0  0  0  0  0  0
  -22.7732  -13.5127   21.1919 C   0  0  0  0  0  0
  -22.1674   -4.2146   21.0971 F   0  0  0  0  0  0
  -21.5622   -3.4534   25.7726 F   0  0  0  0  0  0
  -29.8843  -13.9508   20.3247 N   0  0  0  0  0  0
  -26.2806  -12.9440   20.3202 N   0  0  0  0  0  0
  -25.9319  -11.6562   20.5755 N   0  0  0  0  0  0
  -22.0391  -12.8134   22.0489 N   0  0  0  0  0  0
  -25.3752  -15.1862   20.3920 N   0  0  0  0  0  0
  -31.6938  -15.2163   20.1376 O   0  0  0  0  0  0
  -21.6632   -6.8863   21.4227 O   0  0  0  0  0  0
  -22.3412  -14.5431   20.6747 O   0  0  0  0  0  0
  -24.6611  -31.8258   23.1718 C   0  0  0  0  0  0
  -25.9307  -32.4590   23.8182 C   0  0  1  0  0  0
  -27.2305  -26.9658   20.1715 C   0  0  0  0  0  0
  -25.5975  -33.8405   24.2080 N   0  0  0  0  0  0
  -23.4756  -30.4391   21.5198 C   0  0  2  0  0  0
  -24.9332  -28.8361   20.1086 C   0  0  0  0  0  0
  -22.7660  -29.4453   22.4765 C   0  0  0  0  0  0
  -18.0325  -28.1408   22.8461 C   0  0  0  0  0  0
  -24.1487  -36.7219   23.2648 C   0  0  0  0  0  0
  -26.0430  -30.6458   21.3982 C   0  0  0  0  0  0
  -26.1161  -29.2394   20.7409 C   0  0  0  0  0  0
  -27.2609  -28.3250   20.7495 C   0  0  0  0  0  0
  -26.0154  -26.7078   19.4953 C   0  0  0  0  0  0
  -24.9067  -27.5895   19.4670 C   0  0  0  0  0  0
  -23.7160  -29.7583   20.1450 C   0  0  0  0  0  0
  -25.4125  -36.2964   24.0294 C   0  0  1  0  0  0
  -20.5947  -28.3752   23.1172 C   0  0  2  0  0  0
  -20.6797  -26.9428   22.5397 C   0  0  0  0  0  0
  -19.5770  -26.6375   21.5210 C   0  0  0  0  0  0
  -18.1951  -26.7939   22.1617 C   0  0  0  0  0  0
  -19.1589  -28.8898   23.2801 C   0  0  0  0  0  0
  -18.9498  -30.1488   23.8835 C   0  0  0  0  0  0
  -17.6491  -30.6588   24.0558 C   0  0  0  0  0  0
  -25.9092  -34.9344   23.5006 C   0  0  0  0  0  0
  -16.5383  -29.9080   23.6335 C   0  0  0  0  0  0
  -16.7310  -28.6509   23.0344 C   0  0  0  0  0  0
  -26.4567  -31.6526   25.0704 C   0  0  0  0  0  0
  -25.3694  -31.3782   26.1363 C   0  0  0  0  0  0
  -27.0461  -30.2881   24.6441 C   0  0  0  0  0  0
  -27.6041  -32.4361   25.7505 C   0  0  0  0  0  0
  -27.5566  -37.1752   24.8460 C   0  0  0  0  0  0
  -21.4328  -29.3040   22.3514 N   0  0  0  0  0  0
  -26.4270  -37.3700   23.9414 N   0  0  0  0  0  0
  -24.7474  -30.9953   22.0846 N   0  0  0  0  0  0
  -23.4201  -28.8005   23.3006 O   0  0  0  0  0  0
  -28.2341  -25.8698   20.2473 O   0  0  0  0  0  0
  -26.5705  -34.8876   22.4607 O   0  0  0  0  0  0
  -23.5681  -32.1236   23.6809 O   0  0  0  0  0  0
  -28.9128  -20.5130   21.2497 C   0  0  0  0  0  0
  -29.6641  -20.7317   19.1381 C   0  0  0  0  0  0
  -29.5246  -19.7356   20.1865 C   0  0  0  0  0  0
  -28.7123  -22.7583   20.1878 C   0  0  0  0  0  0
  -28.4369  -16.6505   21.0196 C   0  0  0  0  0  0
  -30.2351  -18.1339   20.1505 C   0  0  0  0  0  0
  -27.8895  -24.2903   20.0110 C   0  0  0  0  0  0
  -28.5218  -21.8828   21.2335 N   0  0  0  0  0  0
  -29.2793  -22.0950   19.1338 N   0  0  0  0  0  0
  -29.7731  -16.5739   20.4504 N   0  0  0  0  0  0
  -31.4583  -12.9986   19.1739 H   0  0  0  0  0  0
  -30.5213  -11.8965   20.1260 H   0  0  0  0  0  0
  -29.9154  -11.7249   17.6930 H   0  0  0  0  0  0
  -29.5598  -13.4339   17.6373 H   0  0  0  0  0  0
  -28.0622  -11.2588   19.1209 H   0  0  0  0  0  0
  -27.4122  -12.2868   17.8668 H   0  0  0  0  0  0
  -27.5275  -14.2108   19.2998 H   0  0  0  0  0  0
  -28.8323  -12.4629   21.4509 H   0  0  0  0  0  0
  -28.2896  -14.0843   21.7295 H   0  0  0  0  0  0
  -25.2744   -9.5644   22.4816 H   0  0  0  0  0  0
  -23.9990   -7.4585   22.7462 H   0  0  0  0  0  0
  -21.0857   -8.8766   19.8937 H   0  0  0  0  0  0
  -22.3714  -10.9667   19.6196 H   0  0  0  0  0  0
  -21.2009   -7.6145   23.9701 H   0  0  0  0  0  0
  -21.1468   -6.0517   25.9063 H   0  0  0  0  0  0
  -22.0615   -2.7610   23.2830 H   0  0  0  0  0  0
  -22.4022  -11.9816   22.4911 H   0  0  0  0  0  0
  -21.1000  -13.1139   22.2670 H   0  0  0  0  0  0
  -24.5906  -15.8221   20.4867 H   0  0  0  0  0  0
  -26.1978  -15.6279   20.0064 H   0  0  0  0  0  0
  -26.7384  -32.5144   23.0907 H   0  0  0  0  0  0
  -25.0048  -33.9474   25.0180 H   0  0  0  0  0  0
  -22.7880  -31.2698   21.3491 H   0  0  0  0  0  0
  -23.3747  -35.9551   23.3271 H   0  0  0  0  0  0
  -24.3577  -36.8921   22.2074 H   0  0  0  0  0  0
  -23.7248  -37.6393   23.6745 H   0  0  0  0  0  0
  -26.2166  -31.3908   20.6204 H   0  0  0  0  0  0
  -26.9051  -30.7059   22.0509 H   0  0  0  0  0  0
  -28.1570  -28.6282   21.2740 H   0  0  0  0  0  0
  -25.8780  -25.7561   19.0054 H   0  0  0  0  0  0
  -24.0067  -27.2724   18.9588 H   0  0  0  0  0  0
  -23.8671  -30.5298   19.3890 H   0  0  0  0  0  0
  -22.8279  -29.2096   19.8262 H   0  0  0  0  0  0
  -25.1315  -36.1761   25.0781 H   0  0  0  0  0  0
  -21.0045  -28.3387   24.1295 H   0  0  0  0  0  0
  -20.5681  -26.2371   23.3645 H   0  0  0  0  0  0
  -21.6653  -26.7403   22.1195 H   0  0  0  0  0  0
  -19.6917  -25.6272   21.1269 H   0  0  0  0  0  0
  -19.6702  -27.3156   20.6714 H   0  0  0  0  0  0
  -17.4213  -26.6691   21.4022 H   0  0  0  0  0  0
  -18.0334  -26.0092   22.9024 H   0  0  0  0  0  0
  -19.7982  -30.7321   24.2167 H   0  0  0  0  0  0
  -17.5050  -31.6257   24.5183 H   0  0  0  0  0  0
  -15.5379  -30.2959   23.7693 H   0  0  0  0  0  0
  -15.8722  -28.0821   22.7061 H   0  0  0  0  0  0
  -24.5873  -30.7131   25.7682 H   0  0  0  0  0  0
  -24.8877  -32.2975   26.4685 H   0  0  0  0  0  0
  -25.7914  -30.9018   27.0217 H   0  0  0  0  0  0
  -26.3122  -29.6539   24.1447 H   0  0  0  0  0  0
  -27.3974  -29.7274   25.5113 H   0  0  0  0  0  0
  -27.9075  -30.4036   23.9862 H   0  0  0  0  0  0
  -27.2596  -33.3725   26.1912 H   0  0  0  0  0  0
  -28.3927  -32.6836   25.0385 H   0  0  0  0  0  0
  -28.0628  -31.8618   26.5564 H   0  0  0  0  0  0
  -28.2532  -38.0093   24.7517 H   0  0  0  0  0  0
  -28.1107  -36.2609   24.6265 H   0  0  0  0  0  0
  -27.2288  -37.1374   25.8865 H   0  0  0  0  0  0
  -20.9578  -29.8774   21.6684 H   0  0  0  0  0  0
  -26.0111  -38.2752   24.1453 H   0  0  0  0  0  0
  -28.7420  -20.0203   22.1950 H   0  0  0  0  0  0
  -30.1489  -20.4228   18.2229 H   0  0  0  0  0  0
  -27.7715  -15.9834   20.4943 H   0  0  0  0  0  0
  -27.9956  -17.6426   20.9250 H   0  0  0  0  0  0
  -28.4475  -16.3997   22.0793 H   0  0  0  0  0  0
  -31.1327  -18.2483   20.7601 H   0  0  0  0  0  0
  -30.6338  -18.0627   19.1379 H   0  0  0  0  0  0
  -26.9548  -24.1383   20.5521 H   0  0  0  0  0  0
  -27.5987  -24.2659   18.9617 H   0  0  0  0  0  0
  1 25  1  0  0  0
  1 30  2  0  0  0
  1 80  1  0  0  0
  2  3  1  0  0  0
  2 25  1  0  0  0
  2 81  1  0  0  0
  2 82  1  0  0  0
  3  4  1  0  0  0
  3 83  1  0  0  0
  3 84  1  0  0  0
  4  5  1  0  0  0
  4 85  1  0  0  0
  4 86  1  0  0  0
  5  6  1  0  0  0
  5 26  1  0  0  0
  5 87  1  0  0  0
  6 25  1  0  0  0
  6 88  1  0  0  0
  6 89  1  0  0  0
  7  8  2  0  0  0
  7 26  1  0  0  0
  7 29  1  0  0  0
  8  9  1  0  0  0
  8 22  1  0  0  0
  9 10  1  0  0  0
  9 27  2  0  0  0
 10 11  2  0  0  0
 10 15  1  0  0  0
 11 12  1  0  0  0
 11 90  1  0  0  0
 12 13  2  0  0  0
 12 91  1  0  0  0
 13 14  1  0  0  0
 13 31  1  0  0  0
 14 15  2  0  0  0
 14 92  1  0  0  0
 15 93  1  0  0  0
 16 17  2  0  0  0
 16 21  1  0  0  0
 16 31  1  0  0  0
 17 18  1  0  0  0
 17 94  1  0  0  0
 18 19  2  0  0  0
 18 95  1  0  0  0
 19 20  1  0  0  0
 19 24  1  0  0  0
 20 21  2  0  0  0
 20 96  1  0  0  0
 21 23  1  0  0  0
 22 28  1  0  0  0
 22 32  2  0  0  0
 26 27  1  0  0  0
 28 97  1  0  0  0
 28 98  1  0  0  0
 29 99  1  0  0  0
 29100  1  0  0  0
 33 34  1  0  0  0
 33 66  1  0  0  0
 33 70  2  0  0  0
 34 36  1  0  0  0
 34 59  1  0  0  0
 34101  1  0  0  0
 35 44  2  0  0  0
 35 45  1  0  0  0
 35 68  1  0  0  0
 36 56  1  0  0  0
 36102  1  0  0  0
 37 39  1  0  0  0
 37 47  1  0  0  0
 37 66  1  0  0  0
 37103  1  0  0  0
 38 43  2  0  0  0
 38 46  1  0  0  0
 38 47  1  0  0  0
 39 64  1  0  0  0
 39 67  2  0  0  0
 40 52  1  0  0  0
 40 53  2  0  0  0
 40 58  1  0  0  0
 41104  1  0  0  0
 41105  1  0  0  0
 41106  1  0  0  0
 41 48  1  0  0  0
 42 43  1  0  0  0
 42 66  1  0  0  0
 42107  1  0  0  0
 42108  1  0  0  0
 43 44  1  0  0  0
 44109  1  0  0  0
 45 46  2  0  0  0
 45110  1  0  0  0
 46111  1  0  0  0
 47112  1  0  0  0
 47113  1  0  0  0
 48 56  1  0  0  0
 48 65  1  0  0  0
 48114  1  0  0  0
 49 50  1  0  0  0
 49 53  1  0  0  0
 49 64  1  0  0  0
 49115  1  0  0  0
 50 51  1  0  0  0
 50116  1  0  0  0
 50117  1  0  0  0
 51 52  1  0  0  0
 51118  1  0  0  0
 51119  1  0  0  0
 52120  1  0  0  0
 52121  1  0  0  0
 53 54  1  0  0  0
 54 55  2  0  0  0
 54122  1  0  0  0
 55 57  1  0  0  0
 55123  1  0  0  0
 56 69  2  0  0  0
 57 58  2  0  0  0
 57124  1  0  0  0
 58125  1  0  0  0
 59 60  1  0  0  0
 59 61  1  0  0  0
 59 62  1  0  0  0
 60126  1  0  0  0
 60127  1  0  0  0
 60128  1  0  0  0
 61129  1  0  0  0
 61130  1  0  0  0
 61131  1  0  0  0
 62132  1  0  0  0
 62133  1  0  0  0
 62134  1  0  0  0
 63 65  1  0  0  0
 63135  1  0  0  0
 63136  1  0  0  0
 63137  1  0  0  0
 64138  1  0  0  0
 65139  1  0  0  0
 68 77  1  0  0  0
 71 73  2  0  0  0
 71 78  1  0  0  0
 71140  1  0  0  0
 72 73  1  0  0  0
 72 79  2  0  0  0
 72141  1  0  0  0
 73 76  1  0  0  0
 74 77  1  0  0  0
 74 78  2  0  0  0
 74 79  1  0  0  0
 75 80  1  0  0  0
 75142  1  0  0  0
 75143  1  0  0  0
 75144  1  0  0  0
 76 80  1  0  0  0
 76145  1  0  0  0
 76146  1  0  0  0
 77147  1  0  0  0
 77148  1  0  0  0
M  ISO  4   1 100  68 101  77 101  80 100
M  END
> <chiral flag>
0

> <version>
0

> <s_m_source_file>
/data/baiqing/PycharmProjects/Reinvent-master-3.2/result/LINK_invent/BTK/process_docking_weight1_custom_sum_contain_oxygen_bond_distance_aromatic_linkinvent_7_9_3/rearranged_h_0047.sdf

> <i_m_source_file_index>
98

> <r_mmod_Potential_Energy-OPLS-2005>
922.539916992188

> <r_mmod_Stretch_Energy-OPLS-2005>
492.535980224609

> <r_mmod_Bend_Energy-OPLS-2005>
446.663696289062

> <r_mmod_Torsional_Energy-OPLS-2005>
250.774169921875

> <r_mmod_Improper_Torsional_Energy-OPLS-2005>
10.9048948287964

> <r_mmod_Van_der_Waal_Energy-OPLS-2005>
145.639068603516

> <r_mmod_Electrostatic_Energy-OPLS-2005>
-606.07568359375

> <r_mmod_Solvation_Energy-OPLS-2005>
-238.118225097656

> <b_mmod_Minimization_Converged-OPLS-2005>
0

> <r_mmod_RMS_Derivative-OPLS-2005>
2.15418767929077

$$$$
98
                    3D
 Structure written by MMmdl.
154162  0  0  1  0            999 V2000
  -30.6057  -14.7488   20.4181 C   0  0  0  0  0  0
  -30.4268  -12.4512   19.4687 C   0  0  0  0  0  0
  -29.5048  -12.4950   18.2316 C   0  0  0  0  0  0
  -28.0318  -12.3212   18.6484 C   0  0  0  0  0  0
  -27.6377  -13.2286   19.8468 C   0  0  2  0  0  0
  -28.6862  -13.1787   20.9786 C   0  0  0  0  0  0
  -25.2511  -13.8133   20.5756 C   0  0  0  0  0  0
  -24.1785  -13.0393   20.9210 C   0  0  0  0  0  0
  -24.6380  -11.6883   20.8739 C   0  0  0  0  0  0
  -23.9053  -10.4263   21.0385 C   0  0  0  0  0  0
  -24.3607   -9.4186   21.9177 C   0  0  0  0  0  0
  -23.6288   -8.2223   22.0744 C   0  0  0  0  0  0
  -22.4277   -8.0261   21.3528 C   0  0  0  0  0  0
  -21.9891   -9.0230   20.4634 C   0  0  0  0  0  0
  -22.7208  -10.2120   20.3045 C   0  0  0  0  0  0
  -21.6846   -6.0728   22.5274 C   0  0  0  0  0  0
  -21.4021   -6.5630   23.8207 C   0  0  0  0  0  0
  -21.3659   -5.6781   24.9168 C   0  0  0  0  0  0
  -21.6043   -4.3044   24.7207 C   0  0  0  0  0  0
  -21.8823   -3.8140   23.4326 C   0  0  0  0  0  0
  -21.9194   -4.6959   22.3390 C   0  0  0  0  0  0
  -22.7820  -13.5196   21.1854 C   0  0  0  0  0  0
  -22.1663   -4.2148   21.0963 F   0  0  0  0  0  0
  -21.5625   -3.4522   25.7719 F   0  0  0  0  0  0
  -29.9803  -13.5247   20.3826 N   0  0  0  0  0  0
  -26.2930  -12.9343   20.3302 N   0  0  0  0  0  0
  -25.9317  -11.6487   20.5754 N   0  0  0  0  0  0
  -22.0466  -12.8214   22.0431 N   0  0  0  0  0  0
  -25.4187  -15.1848   20.4318 N   0  0  0  0  0  0
  -31.8075  -14.8305   20.1503 O   0  0  0  0  0  0
  -21.6629   -6.8875   21.4243 O   0  0  0  0  0  0
  -22.3510  -14.5494   20.6688 O   0  0  0  0  0  0
  -24.6284  -31.8520   23.1960 C   0  0  0  0  0  0
  -25.9102  -32.4753   23.8313 C   0  0  1  0  0  0
  -27.2337  -27.2705   20.1154 C   0  0  0  0  0  0
  -25.5898  -33.8555   24.2229 N   0  0  0  0  0  0
  -23.4257  -30.4718   21.5378 C   0  0  2  0  0  0
  -24.8748  -28.9122   20.1065 C   0  0  0  0  0  0
  -22.7479  -29.4579   22.4906 C   0  0  0  0  0  0
  -18.0277  -28.1379   22.8486 C   0  0  0  0  0  0
  -24.1481  -36.7290   23.2642 C   0  0  0  0  0  0
  -25.9687  -30.7660   21.3741 C   0  0  0  0  0  0
  -26.0418  -29.3884   20.7152 C   0  0  0  0  0  0
  -27.2184  -28.5762   20.7118 C   0  0  0  0  0  0
  -26.0412  -26.8499   19.4893 C   0  0  0  0  0  0
  -24.8774  -27.6496   19.4886 C   0  0  0  0  0  0
  -23.6431  -29.7965   20.1559 C   0  0  0  0  0  0
  -25.4115  -36.3072   24.0313 C   0  0  1  0  0  0
  -20.5868  -28.3700   23.1257 C   0  0  2  0  0  0
  -20.6770  -26.9422   22.5401 C   0  0  0  0  0  0
  -19.5749  -26.6383   21.5202 C   0  0  0  0  0  0
  -18.1928  -26.7924   22.1622 C   0  0  0  0  0  0
  -19.1523  -28.8857   23.2876 C   0  0  0  0  0  0
  -18.9462  -30.1458   23.8900 C   0  0  0  0  0  0
  -17.6462  -30.6594   24.0553 C   0  0  0  0  0  0
  -25.9050  -34.9432   23.5078 C   0  0  0  0  0  0
  -16.5352  -29.9089   23.6331 C   0  0  0  0  0  0
  -16.7261  -28.6493   23.0368 C   0  0  0  0  0  0
  -26.4478  -31.6603   25.0717 C   0  0  0  0  0  0
  -25.3715  -31.3747   26.1457 C   0  0  0  0  0  0
  -27.0324  -30.3009   24.6229 C   0  0  0  0  0  0
  -27.6022  -32.4357   25.7492 C   0  0  0  0  0  0
  -27.5578  -37.1794   24.8457 C   0  0  0  0  0  0
  -21.4187  -29.3042   22.3643 N   0  0  0  0  0  0
  -26.4291  -37.3773   23.9399 N   0  0  0  0  0  0
  -24.6927  -31.0490   22.0923 N   0  0  0  0  0  0
  -23.4166  -28.8130   23.3023 O   0  0  0  0  0  0
  -28.3666  -26.4305   20.1982 O   0  0  0  0  0  0
  -26.5644  -34.8900   22.4656 O   0  0  0  0  0  0
  -23.5434  -32.1335   23.7257 O   0  0  0  0  0  0
  -27.4246  -20.4981   19.7476 C   0  0  0  0  0  0
  -27.0906  -19.1358   19.7775 C   0  0  0  0  0  0
  -28.7581  -20.8660   19.9436 C   0  0  0  0  0  0
  -29.2671  -18.5304   20.1916 C   0  0  0  0  0  0
  -25.6712  -18.7034   19.4866 C   0  0  0  0  0  0
  -29.1866  -22.3799   19.6964 C   0  0  0  0  0  0
  -30.3023  -17.3399   20.3798 C   0  0  0  0  0  0
  -28.3679  -23.6565   20.2821 C   0  0  0  0  0  0
  -28.5205  -25.0915   19.5399 C   0  0  0  0  0  0
  -28.0009  -18.1643   20.0096 N   0  0  0  0  0  0
  -29.6714  -19.8426   20.1597 N   0  0  0  0  0  0
  -29.8391  -15.8925   20.5239 N   0  0  0  0  0  0
  -31.4695  -12.5691   19.1681 H   0  0  0  0  0  0
  -30.3669  -11.4812   19.9662 H   0  0  0  0  0  0
  -29.7884  -11.7168   17.5208 H   0  0  0  0  0  0
  -29.6300  -13.4456   17.7114 H   0  0  0  0  0  0
  -27.8927  -11.2743   18.9204 H   0  0  0  0  0  0
  -27.3737  -12.5037   17.7975 H   0  0  0  0  0  0
  -27.6225  -14.2468   19.4579 H   0  0  0  0  0  0
  -28.7275  -12.1887   21.4351 H   0  0  0  0  0  0
  -28.4259  -13.8756   21.7763 H   0  0  0  0  0  0
  -25.2757   -9.5669   22.4742 H   0  0  0  0  0  0
  -23.9994   -7.4620   22.7473 H   0  0  0  0  0  0
  -21.0815   -8.8742   19.8951 H   0  0  0  0  0  0
  -22.3657  -10.9658   19.6156 H   0  0  0  0  0  0
  -21.2027   -7.6141   23.9705 H   0  0  0  0  0  0
  -21.1478   -6.0513   25.9069 H   0  0  0  0  0  0
  -22.0612   -2.7601   23.2819 H   0  0  0  0  0  0
  -22.4085  -11.9884   22.4834 H   0  0  0  0  0  0
  -21.1091  -13.1257   22.2616 H   0  0  0  0  0  0
  -24.6530  -15.8313   20.5766 H   0  0  0  0  0  0
  -26.2781  -15.6433   20.1564 H   0  0  0  0  0  0
  -26.7165  -32.5410   23.1057 H   0  0  0  0  0  0
  -25.0017  -33.9703   25.0350 H   0  0  0  0  0  0
  -22.7241  -31.2946   21.3884 H   0  0  0  0  0  0
  -23.3742  -35.9627   23.3301 H   0  0  0  0  0  0
  -24.3572  -36.8933   22.2066 H   0  0  0  0  0  0
  -23.7240  -37.6478   23.6685 H   0  0  0  0  0  0
  -26.1039  -31.5287   20.6057 H   0  0  0  0  0  0
  -26.8463  -30.8170   22.0077 H   0  0  0  0  0  0
  -28.1124  -28.9397   21.1977 H   0  0  0  0  0  0
  -25.9778  -25.8771   19.0251 H   0  0  0  0  0  0
  -23.9778  -27.2759   19.0186 H   0  0  0  0  0  0
  -23.7586  -30.5677   19.3929 H   0  0  0  0  0  0
  -22.7634  -29.2222   19.8591 H   0  0  0  0  0  0
  -25.1300  -36.1918   25.0809 H   0  0  0  0  0  0
  -20.9972  -28.3297   24.1369 H   0  0  0  0  0  0
  -20.5665  -26.2333   23.3617 H   0  0  0  0  0  0
  -21.6649  -26.7447   22.1204 H   0  0  0  0  0  0
  -19.6923  -25.6287   21.1251 H   0  0  0  0  0  0
  -19.6676  -27.3184   20.6713 H   0  0  0  0  0  0
  -17.4199  -26.6650   21.4025 H   0  0  0  0  0  0
  -18.0347  -26.0065   22.9021 H   0  0  0  0  0  0
  -19.7942  -30.7267   24.2280 H   0  0  0  0  0  0
  -17.5016  -31.6275   24.5161 H   0  0  0  0  0  0
  -15.5356  -30.2996   23.7646 H   0  0  0  0  0  0
  -15.8659  -28.0806   22.7099 H   0  0  0  0  0  0
  -24.5877  -30.7107   25.7794 H   0  0  0  0  0  0
  -24.8926  -32.2918   26.4895 H   0  0  0  0  0  0
  -25.8051  -30.8922   27.0229 H   0  0  0  0  0  0
  -26.2903  -29.6767   24.1244 H   0  0  0  0  0  0
  -27.3963  -29.7277   25.4769 H   0  0  0  0  0  0
  -27.8801  -30.4258   23.9489 H   0  0  0  0  0  0
  -27.2601  -33.3647   26.2061 H   0  0  0  0  0  0
  -28.3830  -32.6948   25.0330 H   0  0  0  0  0  0
  -28.0698  -31.8512   26.5426 H   0  0  0  0  0  0
  -28.2586  -38.0098   24.7514 H   0  0  0  0  0  0
  -28.1079  -36.2627   24.6268 H   0  0  0  0  0  0
  -27.2300  -37.1442   25.8860 H   0  0  0  0  0  0
  -20.9379  -29.8782   21.6857 H   0  0  0  0  0  0
  -26.0162  -38.2835   24.1422 H   0  0  0  0  0  0
  -26.6774  -21.2456   19.5163 H   0  0  0  0  0  0
  -24.9924  -19.0955   20.2424 H   0  0  0  0  0  0
  -25.5759  -17.6220   19.4634 H   0  0  0  0  0  0
  -25.3549  -19.0801   18.5134 H   0  0  0  0  0  0
  -29.1783  -22.4843   18.6106 H   0  0  0  0  0  0
  -30.2356  -22.4834   19.9739 H   0  0  0  0  0  0
  -30.9238  -17.5751   21.2441 H   0  0  0  0  0  0
  -30.9684  -17.3828   19.5186 H   0  0  0  0  0  0
  -28.6356  -23.7678   21.3328 H   0  0  0  0  0  0
  -27.3065  -23.4132   20.2817 H   0  0  0  0  0  0
  -27.9701  -25.0707   18.6001 H   0  0  0  0  0  0
  -29.5612  -25.1180   19.2140 H   0  0  0  0  0  0
  -28.8423  -15.7904   20.6399 H   0  0  0  0  0  0
  1 25  1  0  0  0
  1 30  2  0  0  0
  1 82  1  0  0  0
  2  3  1  0  0  0
  2 25  1  0  0  0
  2 83  1  0  0  0
  2 84  1  0  0  0
  3  4  1  0  0  0
  3 85  1  0  0  0
  3 86  1  0  0  0
  4  5  1  0  0  0
  4 87  1  0  0  0
  4 88  1  0  0  0
  5  6  1  0  0  0
  5 26  1  0  0  0
  5 89  1  0  0  0
  6 25  1  0  0  0
  6 90  1  0  0  0
  6 91  1  0  0  0
  7  8  2  0  0  0
  7 26  1  0  0  0
  7 29  1  0  0  0
  8  9  1  0  0  0
  8 22  1  0  0  0
  9 10  1  0  0  0
  9 27  2  0  0  0
 10 11  2  0  0  0
 10 15  1  0  0  0
 11 12  1  0  0  0
 11 92  1  0  0  0
 12 13  2  0  0  0
 12 93  1  0  0  0
 13 14  1  0  0  0
 13 31  1  0  0  0
 14 15  2  0  0  0
 14 94  1  0  0  0
 15 95  1  0  0  0
 16 17  2  0  0  0
 16 21  1  0  0  0
 16 31  1  0  0  0
 17 18  1  0  0  0
 17 96  1  0  0  0
 18 19  2  0  0  0
 18 97  1  0  0  0
 19 20  1  0  0  0
 19 24  1  0  0  0
 20 21  2  0  0  0
 20 98  1  0  0  0
 21 23  1  0  0  0
 22 28  1  0  0  0
 22 32  2  0  0  0
 26 27  1  0  0  0
 28 99  1  0  0  0
 28100  1  0  0  0
 29101  1  0  0  0
 29102  1  0  0  0
 33 34  1  0  0  0
 33 66  1  0  0  0
 33 70  2  0  0  0
 34 36  1  0  0  0
 34 59  1  0  0  0
 34103  1  0  0  0
 35 44  2  0  0  0
 35 45  1  0  0  0
 35 68  1  0  0  0
 36 56  1  0  0  0
 36104  1  0  0  0
 37 39  1  0  0  0
 37 47  1  0  0  0
 37 66  1  0  0  0
 37105  1  0  0  0
 38 43  2  0  0  0
 38 46  1  0  0  0
 38 47  1  0  0  0
 39 64  1  0  0  0
 39 67  2  0  0  0
 40 52  1  0  0  0
 40 53  2  0  0  0
 40 58  1  0  0  0
 41106  1  0  0  0
 41107  1  0  0  0
 41108  1  0  0  0
 41 48  1  0  0  0
 42 43  1  0  0  0
 42 66  1  0  0  0
 42109  1  0  0  0
 42110  1  0  0  0
 43 44  1  0  0  0
 44111  1  0  0  0
 45 46  2  0  0  0
 45112  1  0  0  0
 46113  1  0  0  0
 47114  1  0  0  0
 47115  1  0  0  0
 48 56  1  0  0  0
 48 65  1  0  0  0
 48116  1  0  0  0
 49 50  1  0  0  0
 49 53  1  0  0  0
 49 64  1  0  0  0
 49117  1  0  0  0
 50 51  1  0  0  0
 50118  1  0  0  0
 50119  1  0  0  0
 51 52  1  0  0  0
 51120  1  0  0  0
 51121  1  0  0  0
 52122  1  0  0  0
 52123  1  0  0  0
 53 54  1  0  0  0
 54 55  2  0  0  0
 54124  1  0  0  0
 55 57  1  0  0  0
 55125  1  0  0  0
 56 69  2  0  0  0
 57 58  2  0  0  0
 57126  1  0  0  0
 58127  1  0  0  0
 59 60  1  0  0  0
 59 61  1  0  0  0
 59 62  1  0  0  0
 60128  1  0  0  0
 60129  1  0  0  0
 60130  1  0  0  0
 61131  1  0  0  0
 61132  1  0  0  0
 61133  1  0  0  0
 62134  1  0  0  0
 62135  1  0  0  0
 62136  1  0  0  0
 63 65  1  0  0  0
 63137  1  0  0  0
 63138  1  0  0  0
 63139  1  0  0  0
 64140  1  0  0  0
 65141  1  0  0  0
 68 79  1  0  0  0
 71 72  2  0  0  0
 71 73  1  0  0  0
 71142  1  0  0  0
 72 75  1  0  0  0
 72 80  1  0  0  0
 73 76  1  0  0  0
 73 81  2  0  0  0
 74 77  1  0  0  0
 74 80  2  0  0  0
 74 81  1  0  0  0
 75143  1  0  0  0
 75144  1  0  0  0
 75145  1  0  0  0
 76 78  1  0  0  0
 76146  1  0  0  0
 76147  1  0  0  0
 77 82  1  0  0  0
 77148  1  0  0  0
 77149  1  0  0  0
 78 79  1  0  0  0
 78150  1  0  0  0
 78151  1  0  0  0
 79152  1  0  0  0
 79153  1  0  0  0
 82154  1  0  0  0
M  ISO  4   1 100  68 101  79 101  82 100
M  END
> <chiral flag>
0

> <version>
0

> <s_m_source_file>
/data/baiqing/PycharmProjects/Reinvent-master-3.2/result/LINK_invent/BTK/process_docking_weight1_custom_sum_contain_oxygen_bond_distance_aromatic_linkinvent_7_9_3/rearranged_h_0047.sdf

> <i_m_source_file_index>
99

> <r_mmod_Potential_Energy-OPLS-2005>
-472.727386474609

> <r_mmod_Stretch_Energy-OPLS-2005>
113.215286254883

> <r_mmod_Bend_Energy-OPLS-2005>
181.243209838867

> <r_mmod_Torsional_Energy-OPLS-2005>
202.835021972656

> <r_mmod_Improper_Torsional_Energy-OPLS-2005>
6.06955862045288

> <r_mmod_Van_der_Waal_Energy-OPLS-2005>
138.647308349609

> <r_mmod_Electrostatic_Energy-OPLS-2005>
-970.485534667969

> <r_mmod_Solvation_Energy-OPLS-2005>
-228.37255859375

> <b_mmod_Minimization_Converged-OPLS-2005>
0

> <r_mmod_RMS_Derivative-OPLS-2005>
2.2892050743103

$$$$
