0
                    3D
 Structure written by MMmdl.
163171  0  0  1  0            999 V2000
  -30.3909  -14.6888   20.5468 C   0  0  0  0  0  0
  -30.4067  -12.5288   19.4236 C   0  0  0  0  0  0
  -29.4277  -12.4365   18.2129 C   0  0  0  0  0  0
  -27.9783  -12.2739   18.6226 C   0  0  0  0  0  0
  -27.6033  -13.1491   19.8453 C   0  0  2  0  0  0
  -28.6102  -12.9530   20.9753 C   0  0  0  0  0  0
  -25.2298  -13.8114   20.4882 C   0  0  0  0  0  0
  -24.1778  -13.0601   20.9272 C   0  0  0  0  0  0
  -24.6615  -11.7022   20.9468 C   0  0  0  0  0  0
  -23.9438  -10.4619   21.0975 C   0  0  0  0  0  0
  -24.4478   -9.4530   21.9466 C   0  0  0  0  0  0
  -23.6998   -8.2488   22.1067 C   0  0  0  0  0  0
  -22.4670   -8.0753   21.3794 C   0  0  0  0  0  0
  -22.0526   -9.0880   20.4711 C   0  0  0  0  0  0
  -22.7948  -10.2594   20.3377 C   0  0  0  0  0  0
  -21.7202   -6.1158   22.5281 C   0  0  0  0  0  0
  -21.4135   -6.5995   23.8158 C   0  0  0  0  0  0
  -21.3504   -5.7098   24.9001 C   0  0  0  0  0  0
  -21.5992   -4.3351   24.6972 C   0  0  0  0  0  0
  -21.8865   -3.8544   23.4104 C   0  0  0  0  0  0
  -21.9426   -4.7370   22.3234 C   0  0  0  0  0  0
  -22.7729  -13.5485   21.1453 C   0  0  0  0  0  0
  -22.1906   -4.2675   21.0826 F   0  0  0  0  0  0
  -21.5577   -3.4582   25.7483 F   0  0  0  0  0  0
  -29.8725  -13.4286   20.4470 N   0  0  0  0  0  0
  -26.2714  -12.9272   20.3217 N   0  0  0  0  0  0
  -25.9457  -11.6480   20.6856 N   0  0  0  0  0  0
  -22.0515  -12.8614   22.0232 N   0  0  0  0  0  0
  -25.2992  -15.1466   20.1535 N   0  0  0  0  0  0
  -31.5782  -14.8720   20.2863 O   0  0  0  0  0  0
  -21.6940   -6.9301   21.4279 O   0  0  0  0  0  0
  -22.3419  -14.5774   20.6165 O   0  0  0  0  0  0
  -24.6342  -31.8787   23.2594 C   0  0  0  0  0  0
  -25.9101  -32.5069   23.8845 C   0  0  1  0  0  0
  -27.0403  -27.3318   19.9877 C   0  0  0  0  0  0
  -25.5908  -33.8876   24.2698 N   0  0  0  0  0  0
  -23.4069  -30.5267   21.6196 C   0  0  2  0  0  0
  -24.8067  -29.0591   20.0700 C   0  0  0  0  0  0
  -22.7460  -29.4613   22.5167 C   0  0  0  0  0  0
  -18.0256  -28.1335   22.8508 C   0  0  0  0  0  0
  -24.1450  -36.7401   23.2630 C   0  0  0  0  0  0
  -25.9584  -30.8075   21.4386 C   0  0  0  0  0  0
  -25.9912  -29.4495   20.7345 C   0  0  0  0  0  0
  -27.1392  -28.5821   20.6864 C   0  0  0  0  0  0
  -25.9196  -27.1490   19.1771 C   0  0  0  0  0  0
  -24.7723  -27.9153   19.2835 C   0  0  0  0  0  0
  -23.6065  -29.9617   20.2014 C   0  0  0  0  0  0
  -25.4084  -36.3341   24.0441 C   0  0  1  0  0  0
  -20.5964  -28.3725   23.1319 C   0  0  2  0  0  0
  -20.6779  -26.9448   22.5389 C   0  0  0  0  0  0
  -19.5704  -26.6370   21.5210 C   0  0  0  0  0  0
  -18.1922  -26.7891   22.1619 C   0  0  0  0  0  0
  -19.1547  -28.8800   23.2942 C   0  0  0  0  0  0
  -18.9417  -30.1430   23.8939 C   0  0  0  0  0  0
  -17.6393  -30.6573   24.0582 C   0  0  0  0  0  0
  -25.9001  -34.9634   23.5363 C   0  0  0  0  0  0
  -16.5311  -29.9079   23.6306 C   0  0  0  0  0  0
  -16.7230  -28.6484   23.0375 C   0  0  0  0  0  0
  -26.4434  -31.6794   25.1115 C   0  0  0  0  0  0
  -25.3694  -31.3890   26.1891 C   0  0  0  0  0  0
  -27.0224  -30.3189   24.6584 C   0  0  0  0  0  0
  -27.6081  -32.4450   25.7824 C   0  0  0  0  0  0
  -27.5604  -37.1905   24.8449 C   0  0  0  0  0  0
  -21.4226  -29.3102   22.3868 N   0  0  0  0  0  0
  -26.4296  -37.4010   23.9441 N   0  0  0  0  0  0
  -24.6933  -31.0691   22.1725 N   0  0  0  0  0  0
  -23.4117  -28.8059   23.3176 O   0  0  0  0  0  0
  -27.8229  -26.1717   20.0983 O   0  0  0  0  0  0
  -26.5452  -34.8947   22.4865 O   0  0  0  0  0  0
  -23.5451  -32.1600   23.7800 O   0  0  0  0  0  0
  -27.7028  -20.1155   18.1067 C   0  0  0  0  0  0
  -27.0344  -22.3476   18.7908 C   0  0  0  0  0  0
  -25.6672  -21.8321   18.7725 C   0  0  0  0  0  0
  -28.0785  -21.4373   18.4570 C   0  0  0  0  0  0
  -25.6245  -20.4124   18.9762 C   0  0  0  0  0  0
  -24.7001  -22.1924   17.5670 C   0  0  0  0  0  0
  -27.5182  -23.8346   18.9929 C   0  0  0  0  0  0
  -27.0389  -18.4245   20.9604 C   0  0  0  0  0  0
  -27.6295  -17.3633   21.9653 C   0  0  0  0  0  0
  -25.4936  -18.4137   20.5267 C   0  0  0  0  0  0
  -28.2927  -15.9732   21.5270 C   0  0  0  0  0  0
  -27.0366  -24.8369   20.1196 C   0  0  0  0  0  0
  -26.4773  -19.6262   18.3563 N   0  0  0  0  0  0
  -24.9612  -19.7313   20.0508 N   0  0  0  0  0  0
  -29.5430  -15.7822   20.6846 N   0  0  0  0  0  0
  -29.7841  -21.7438   18.4371 Cl  0  0  0  0  0  0
  -31.3448  -12.9453   18.9848 H   0  0  0  0  0  0
  -30.7446  -11.6376   19.9205 H   0  0  0  0  0  0
  -29.6472  -11.5863   17.5645 H   0  0  0  0  0  0
  -29.5327  -13.2904   17.5266 H   0  0  0  0  0  0
  -27.8337  -11.1901   18.8384 H   0  0  0  0  0  0
  -27.2961  -12.5976   17.8142 H   0  0  0  0  0  0
  -27.6816  -14.1446   19.4172 H   0  0  0  0  0  0
  -28.6694  -11.9048   21.2274 H   0  0  0  0  0  0
  -28.2840  -13.4930   21.8825 H   0  0  0  0  0  0
  -25.3671   -9.5830   22.4553 H   0  0  0  0  0  0
  -24.0729   -7.5081   22.8002 H   0  0  0  0  0  0
  -21.1291   -8.9728   19.9018 H   0  0  0  0  0  0
  -22.4907  -11.0289   19.6282 H   0  0  0  0  0  0
  -21.2040   -7.6402   23.9733 H   0  0  0  0  0  0
  -21.1189   -6.0631   25.8875 H   0  0  0  0  0  0
  -22.0692   -2.7933   23.2361 H   0  0  0  0  0  0
  -22.4733  -12.0200   22.3979 H   0  0  0  0  0  0
  -21.0948  -13.0990   22.2387 H   0  0  0  0  0  0
  -26.1272  -15.5320   19.6838 H   0  0  0  0  0  0
  -24.4754  -15.6979   19.9397 H   0  0  0  0  0  0
  -26.7142  -32.5640   23.1623 H   0  0  0  0  0  0
  -25.0313  -34.0283   25.0972 H   0  0  0  0  0  0
  -22.7020  -31.3652   21.5592 H   0  0  0  0  0  0
  -23.3892  -35.9524   23.3174 H   0  0  0  0  0  0
  -24.3591  -36.9115   22.2047 H   0  0  0  0  0  0
  -23.6915  -37.6469   23.6677 H   0  0  0  0  0  0
  -26.0669  -31.6173   20.7119 H   0  0  0  0  0  0
  -26.8588  -30.8263   22.0575 H   0  0  0  0  0  0
  -28.0620  -28.8160   21.2231 H   0  0  0  0  0  0
  -25.9147  -26.3585   18.4562 H   0  0  0  0  0  0
  -23.9252  -27.7004   18.6562 H   0  0  0  0  0  0
  -23.7638  -30.8258   19.5573 H   0  0  0  0  0  0
  -22.6882  -29.5021   19.8438 H   0  0  0  0  0  0
  -25.1196  -36.2411   25.0943 H   0  0  0  0  0  0
  -20.9891  -28.3178   24.1514 H   0  0  0  0  0  0
  -20.5769  -26.2249   23.3610 H   0  0  0  0  0  0
  -21.6654  -26.7542   22.1169 H   0  0  0  0  0  0
  -19.6930  -25.6289   21.1286 H   0  0  0  0  0  0
  -19.6684  -27.3158   20.6766 H   0  0  0  0  0  0
  -17.4237  -26.6711   21.4039 H   0  0  0  0  0  0
  -18.0306  -26.0051   22.8990 H   0  0  0  0  0  0
  -19.7921  -30.7257   24.2345 H   0  0  0  0  0  0
  -17.4983  -31.6277   24.5161 H   0  0  0  0  0  0
  -15.5352  -30.2961   23.7622 H   0  0  0  0  0  0
  -15.8676  -28.0790   22.7067 H   0  0  0  0  0  0
  -24.6048  -30.7021   25.8347 H   0  0  0  0  0  0
  -24.8626  -32.2935   26.5200 H   0  0  0  0  0  0
  -25.8007  -30.9307   27.0807 H   0  0  0  0  0  0
  -26.2744  -29.7005   24.1673 H   0  0  0  0  0  0
  -27.3858  -29.7481   25.5149 H   0  0  0  0  0  0
  -27.8668  -30.4446   23.9842 H   0  0  0  0  0  0
  -27.2933  -33.3932   26.2215 H   0  0  0  0  0  0
  -28.3961  -32.6719   25.0643 H   0  0  0  0  0  0
  -28.0677  -31.8708   26.5904 H   0  0  0  0  0  0
  -28.2633  -38.0211   24.7670 H   0  0  0  0  0  0
  -28.1117  -36.2784   24.6120 H   0  0  0  0  0  0
  -27.2336  -37.1355   25.8847 H   0  0  0  0  0  0
  -20.9348  -29.9021   21.7414 H   0  0  0  0  0  0
  -26.0278  -38.3111   24.1535 H   0  0  0  0  0  0
  -28.4531  -19.3838   17.7928 H   0  0  0  0  0  0
  -25.1710  -21.7832   16.6676 H   0  0  0  0  0  0
  -24.3967  -23.2406   17.3741 H   0  0  0  0  0  0
  -23.6876  -21.7579   17.5806 H   0  0  0  0  0  0
  -27.2690  -24.3186   18.0261 H   0  0  0  0  0  0
  -28.6152  -23.7844   19.1267 H   0  0  0  0  0  0
  -27.6067  -18.3101   20.0591 H   0  0  0  0  0  0
  -27.2375  -19.4149   21.3251 H   0  0  0  0  0  0
  -26.8009  -17.0680   22.6192 H   0  0  0  0  0  0
  -28.2961  -17.8698   22.6517 H   0  0  0  0  0  0
  -24.8672  -17.9524   21.2873 H   0  0  0  0  0  0
  -25.4001  -17.7320   19.6844 H   0  0  0  0  0  0
  -27.4778  -15.4823   21.0303 H   0  0  0  0  0  0
  -28.4093  -15.4280   22.4650 H   0  0  0  0  0  0
  -27.0929  -24.3751   21.1357 H   0  0  0  0  0  0
  -25.9591  -24.9473   20.0241 H   0  0  0  0  0  0
  -24.4105  -20.2981   20.7051 H   0  0  0  0  0  0
  -29.9405  -16.6424   20.3101 H   0  0  0  0  0  0
  1 25  1  0  0  0
  1 30  2  0  0  0
  1 85  1  0  0  0
  2  3  1  0  0  0
  2 25  1  0  0  0
  2 87  1  0  0  0
  2 88  1  0  0  0
  3  4  1  0  0  0
  3 89  1  0  0  0
  3 90  1  0  0  0
  4  5  1  0  0  0
  4 91  1  0  0  0
  4 92  1  0  0  0
  5  6  1  0  0  0
  5 26  1  0  0  0
  5 93  1  0  0  0
  6 25  1  0  0  0
  6 94  1  0  0  0
  6 95  1  0  0  0
  7  8  2  0  0  0
  7 26  1  0  0  0
  7 29  1  0  0  0
  8  9  1  0  0  0
  8 22  1  0  0  0
  9 10  1  0  0  0
  9 27  2  0  0  0
 10 11  2  0  0  0
 10 15  1  0  0  0
 11 12  1  0  0  0
 11 96  1  0  0  0
 12 13  2  0  0  0
 12 97  1  0  0  0
 13 14  1  0  0  0
 13 31  1  0  0  0
 14 15  2  0  0  0
 14 98  1  0  0  0
 15 99  1  0  0  0
 16 17  2  0  0  0
 16 21  1  0  0  0
 16 31  1  0  0  0
 17 18  1  0  0  0
 17100  1  0  0  0
 18 19  2  0  0  0
 18101  1  0  0  0
 19 20  1  0  0  0
 19 24  1  0  0  0
 20 21  2  0  0  0
 20102  1  0  0  0
 21 23  1  0  0  0
 22 28  1  0  0  0
 22 32  2  0  0  0
 26 27  1  0  0  0
 28103  1  0  0  0
 28104  1  0  0  0
 29105  1  0  0  0
 29106  1  0  0  0
 33 34  1  0  0  0
 33 66  1  0  0  0
 33 70  2  0  0  0
 34 36  1  0  0  0
 34 59  1  0  0  0
 34107  1  0  0  0
 35 44  2  0  0  0
 35 45  1  0  0  0
 35 68  1  0  0  0
 36 56  1  0  0  0
 36108  1  0  0  0
 37 39  1  0  0  0
 37 47  1  0  0  0
 37 66  1  0  0  0
 37109  1  0  0  0
 38 43  2  0  0  0
 38 46  1  0  0  0
 38 47  1  0  0  0
 39 64  1  0  0  0
 39 67  2  0  0  0
 40 52  1  0  0  0
 40 53  2  0  0  0
 40 58  1  0  0  0
 41110  1  0  0  0
 41111  1  0  0  0
 41112  1  0  0  0
 41 48  1  0  0  0
 42 43  1  0  0  0
 42 66  1  0  0  0
 42113  1  0  0  0
 42114  1  0  0  0
 43 44  1  0  0  0
 44115  1  0  0  0
 45 46  2  0  0  0
 45116  1  0  0  0
 46117  1  0  0  0
 47118  1  0  0  0
 47119  1  0  0  0
 48 56  1  0  0  0
 48 65  1  0  0  0
 48120  1  0  0  0
 49 50  1  0  0  0
 49 53  1  0  0  0
 49 64  1  0  0  0
 49121  1  0  0  0
 50 51  1  0  0  0
 50122  1  0  0  0
 50123  1  0  0  0
 51 52  1  0  0  0
 51124  1  0  0  0
 51125  1  0  0  0
 52126  1  0  0  0
 52127  1  0  0  0
 53 54  1  0  0  0
 54 55  2  0  0  0
 54128  1  0  0  0
 55 57  1  0  0  0
 55129  1  0  0  0
 56 69  2  0  0  0
 57 58  2  0  0  0
 57130  1  0  0  0
 58131  1  0  0  0
 59 60  1  0  0  0
 59 61  1  0  0  0
 59 62  1  0  0  0
 60132  1  0  0  0
 60133  1  0  0  0
 60134  1  0  0  0
 61135  1  0  0  0
 61136  1  0  0  0
 61137  1  0  0  0
 62138  1  0  0  0
 62139  1  0  0  0
 62140  1  0  0  0
 63 65  1  0  0  0
 63141  1  0  0  0
 63142  1  0  0  0
 63143  1  0  0  0
 64144  1  0  0  0
 65145  1  0  0  0
 68 82  1  0  0  0
 71 74  2  0  0  0
 71 83  1  0  0  0
 71146  1  0  0  0
 72 73  2  0  0  0
 72 74  1  0  0  0
 72 77  1  0  0  0
 73 75  1  0  0  0
 73 76  1  0  0  0
 74 86  1  0  0  0
 75 83  2  0  0  0
 75 84  1  0  0  0
 76147  1  0  0  0
 76148  1  0  0  0
 76149  1  0  0  0
 77 82  1  0  0  0
 77150  1  0  0  0
 77151  1  0  0  0
 78 79  1  0  0  0
 78 80  1  0  0  0
 78152  1  0  0  0
 78153  1  0  0  0
 79 81  1  0  0  0
 79154  1  0  0  0
 79155  1  0  0  0
 80 84  1  0  0  0
 80156  1  0  0  0
 80157  1  0  0  0
 81 85  1  0  0  0
 81158  1  0  0  0
 81159  1  0  0  0
 82160  1  0  0  0
 82161  1  0  0  0
 84162  1  0  0  0
 85163  1  0  0  0
M  ISO  4   1 100  68 101  82 101  85 100
M  END
> <chiral flag>
0

> <version>
0

> <s_m_source_file>
/data/baiqing/PycharmProjects/Reinvent-master-3.2/result/LINK_invent/BTK/process_docking_weight1_custom_sum_contain_oxygen_bond_distance_aromatic_linkinvent_7_9_3/rearranged_h_0032.sdf

> <i_m_source_file_index>
1

> <r_mmod_Potential_Energy-OPLS-2005>
594.44775390625

> <r_mmod_Stretch_Energy-OPLS-2005>
146.466369628906

> <r_mmod_Bend_Energy-OPLS-2005>
284.682830810547

> <r_mmod_Torsional_Energy-OPLS-2005>
504.059143066406

> <r_mmod_Improper_Torsional_Energy-OPLS-2005>
35.7572784423828

> <r_mmod_Van_der_Waal_Energy-OPLS-2005>
216.792633056641

> <r_mmod_Electrostatic_Energy-OPLS-2005>
-571.503601074219

> <r_mmod_Solvation_Energy-OPLS-2005>
-221.697311401367

> <b_mmod_Minimization_Converged-OPLS-2005>
0

> <r_mmod_RMS_Derivative-OPLS-2005>
57.066822052002

$$$$
1
                    3D
 Structure written by MMmdl.
148156  0  0  1  0            999 V2000
  -30.4188  -15.3635   20.3539 C   0  0  0  0  0  0
  -30.4330  -12.8780   19.5404 C   0  0  0  0  0  0
  -29.5388  -12.5930   18.3057 C   0  0  0  0  0  0
  -28.0948  -12.2939   18.7389 C   0  0  0  0  0  0
  -27.6071  -13.2848   19.8236 C   0  0  2  0  0  0
  -28.6343  -13.5165   20.9545 C   0  0  0  0  0  0
  -25.2364  -13.8260   20.5788 C   0  0  0  0  0  0
  -24.1723  -13.0444   20.9276 C   0  0  0  0  0  0
  -24.6390  -11.6944   20.8771 C   0  0  0  0  0  0
  -23.9085  -10.4297   21.0409 C   0  0  0  0  0  0
  -24.3633   -9.4215   21.9191 C   0  0  0  0  0  0
  -23.6309   -8.2246   22.0757 C   0  0  0  0  0  0
  -22.4290   -8.0284   21.3545 C   0  0  0  0  0  0
  -21.9927   -9.0258   20.4650 C   0  0  0  0  0  0
  -22.7255  -10.2135   20.3064 C   0  0  0  0  0  0
  -21.6855   -6.0745   22.5284 C   0  0  0  0  0  0
  -21.4018   -6.5653   23.8216 C   0  0  0  0  0  0
  -21.3658   -5.6806   24.9179 C   0  0  0  0  0  0
  -21.6038   -4.3067   24.7228 C   0  0  0  0  0  0
  -21.8814   -3.8156   23.4351 C   0  0  0  0  0  0
  -21.9194   -4.6971   22.3408 C   0  0  0  0  0  0
  -22.7743  -13.5186   21.1917 C   0  0  0  0  0  0
  -22.1666   -4.2158   21.0985 F   0  0  0  0  0  0
  -21.5621   -3.4551   25.7741 F   0  0  0  0  0  0
  -29.8569  -14.0434   20.3217 N   0  0  0  0  0  0
  -26.2799  -12.9550   20.3257 N   0  0  0  0  0  0
  -25.9328  -11.6641   20.5737 N   0  0  0  0  0  0
  -22.0414  -12.8161   22.0472 N   0  0  0  0  0  0
  -25.3996  -15.1992   20.4234 N   0  0  0  0  0  0
  -31.6391  -15.3347   20.1295 O   0  0  0  0  0  0
  -21.6654   -6.8883   21.4242 O   0  0  0  0  0  0
  -22.3426  -14.5493   20.6767 O   0  0  0  0  0  0
  -24.6678  -31.8175   23.1647 C   0  0  0  0  0  0
  -25.9333  -32.4563   23.8119 C   0  0  1  0  0  0
  -27.2253  -26.8741   20.1893 C   0  0  0  0  0  0
  -25.5990  -33.8374   24.2028 N   0  0  0  0  0  0
  -23.4875  -30.4281   21.5129 C   0  0  2  0  0  0
  -24.9448  -28.8062   20.1072 C   0  0  0  0  0  0
  -22.7709  -29.4410   22.4725 C   0  0  0  0  0  0
  -18.0339  -28.1424   22.8478 C   0  0  0  0  0  0
  -24.1497  -36.7192   23.2648 C   0  0  0  0  0  0
  -26.0592  -30.6078   21.4024 C   0  0  0  0  0  0
  -26.1271  -29.1916   20.7501 C   0  0  0  0  0  0
  -27.2579  -28.2466   20.7688 C   0  0  0  0  0  0
  -26.0174  -26.6628   19.4831 C   0  0  0  0  0  0
  -24.9196  -27.5649   19.4510 C   0  0  0  0  0  0
  -23.7331  -29.7407   20.1402 C   0  0  0  0  0  0
  -25.4138  -36.2952   24.0294 C   0  0  1  0  0  0
  -20.5972  -28.3772   23.1180 C   0  0  2  0  0  0
  -20.6818  -26.9445   22.5413 C   0  0  0  0  0  0
  -19.5787  -26.6380   21.5232 C   0  0  0  0  0  0
  -18.1965  -26.7961   22.1628 C   0  0  0  0  0  0
  -19.1605  -28.8914   23.2817 C   0  0  0  0  0  0
  -18.9513  -30.1497   23.8859 C   0  0  0  0  0  0
  -17.6506  -30.6612   24.0564 C   0  0  0  0  0  0
  -25.9104  -34.9338   23.4976 C   0  0  0  0  0  0
  -16.5392  -29.9108   23.6344 C   0  0  0  0  0  0
  -16.7322  -28.6524   23.0366 C   0  0  0  0  0  0
  -26.4566  -31.6530   25.0670 C   0  0  0  0  0  0
  -25.3685  -31.3814   26.1316 C   0  0  0  0  0  0
  -27.0457  -30.2894   24.6435 C   0  0  0  0  0  0
  -27.6050  -32.4347   25.7470 C   0  0  0  0  0  0
  -27.5560  -37.1757   24.8466 C   0  0  0  0  0  0
  -21.4366  -29.3043   22.3502 N   0  0  0  0  0  0
  -26.4269  -37.3694   23.9414 N   0  0  0  0  0  0
  -24.7597  -30.9794   22.0806 N   0  0  0  0  0  0
  -23.4231  -28.7975   23.2979 O   0  0  0  0  0  0
  -28.1982  -25.7249   20.3104 O   0  0  0  0  0  0
  -26.5706  -34.8891   22.4570 O   0  0  0  0  0  0
  -23.5732  -32.1149   23.6717 O   0  0  0  0  0  0
  -28.9331  -21.1531   19.6428 C   0  0  0  0  0  0
  -28.8717  -21.9612   21.6090 C   0  0  0  0  0  0
  -28.6296  -22.4944   20.3526 C   0  0  0  0  0  0
  -29.3092  -19.9363   20.3816 C   0  0  0  0  0  0
  -29.5809  -19.8825   22.8772 C   0  0  0  0  0  0
  -27.9821  -24.1205   19.8872 C   0  0  0  0  0  0
  -29.9982  -18.3056   20.0989 C   0  0  0  0  0  0
  -29.2529  -20.5695   21.6406 N   0  0  0  0  0  0
  -29.6804  -16.6739   20.4314 N   0  0  0  0  0  0
  -31.4490  -13.0855   19.2013 H   0  0  0  0  0  0
  -30.5164  -11.9918   20.1719 H   0  0  0  0  0  0
  -29.9394  -11.7575   17.7294 H   0  0  0  0  0  0
  -29.5488  -13.4593   17.6424 H   0  0  0  0  0  0
  -28.0734  -11.2786   19.1380 H   0  0  0  0  0  0
  -27.4245  -12.2989   17.8797 H   0  0  0  0  0  0
  -27.5050  -14.2360   19.2993 H   0  0  0  0  0  0
  -28.8236  -12.6061   21.5241 H   0  0  0  0  0  0
  -28.2506  -14.2519   21.6641 H   0  0  0  0  0  0
  -25.2764   -9.5702   22.4782 H   0  0  0  0  0  0
  -24.0020   -7.4638   22.7474 H   0  0  0  0  0  0
  -21.0859   -8.8768   19.8956 H   0  0  0  0  0  0
  -22.3696  -10.9679   19.6186 H   0  0  0  0  0  0
  -21.2014   -7.6161   23.9720 H   0  0  0  0  0  0
  -21.1483   -6.0540   25.9079 H   0  0  0  0  0  0
  -22.0588   -2.7620   23.2851 H   0  0  0  0  0  0
  -22.4057  -11.9819   22.4825 H   0  0  0  0  0  0
  -21.1034  -13.1164   22.2720 H   0  0  0  0  0  0
  -24.6266  -15.8468   20.5349 H   0  0  0  0  0  0
  -26.2394  -15.6414   20.0740 H   0  0  0  0  0  0
  -26.7399  -32.5083   23.0824 H   0  0  0  0  0  0
  -25.0136  -33.9444   25.0182 H   0  0  0  0  0  0
  -22.8028  -31.2600   21.3359 H   0  0  0  0  0  0
  -23.3760  -35.9522   23.3295 H   0  0  0  0  0  0
  -24.3576  -36.8855   22.2063 H   0  0  0  0  0  0
  -23.7269  -37.6382   23.6711 H   0  0  0  0  0  0
  -26.2429  -31.3457   20.6202 H   0  0  0  0  0  0
  -26.9165  -30.6679   22.0600 H   0  0  0  0  0  0
  -28.1463  -28.5409   21.3102 H   0  0  0  0  0  0
  -25.8761  -25.7184   18.9797 H   0  0  0  0  0  0
  -24.0245  -27.2673   18.9217 H   0  0  0  0  0  0
  -23.8975  -30.5080   19.3825 H   0  0  0  0  0  0
  -22.8422  -29.2008   19.8152 H   0  0  0  0  0  0
  -25.1350  -36.1716   25.0789 H   0  0  0  0  0  0
  -21.0071  -28.3387   24.1296 H   0  0  0  0  0  0
  -20.5707  -26.2393   23.3659 H   0  0  0  0  0  0
  -21.6683  -26.7417   22.1212 H   0  0  0  0  0  0
  -19.6955  -25.6275   21.1296 H   0  0  0  0  0  0
  -19.6742  -27.3166   20.6741 H   0  0  0  0  0  0
  -17.4250  -26.6720   21.4014 H   0  0  0  0  0  0
  -18.0333  -26.0104   22.9023 H   0  0  0  0  0  0
  -19.7986  -30.7326   24.2208 H   0  0  0  0  0  0
  -17.5061  -31.6293   24.5178 H   0  0  0  0  0  0
  -15.5389  -30.3002   23.7692 H   0  0  0  0  0  0
  -15.8720  -28.0832   22.7098 H   0  0  0  0  0  0
  -24.5896  -30.7124   25.7634 H   0  0  0  0  0  0
  -24.8831  -32.3019   26.4555 H   0  0  0  0  0  0
  -25.7901  -30.9112   27.0207 H   0  0  0  0  0  0
  -26.3123  -29.6559   24.1428 H   0  0  0  0  0  0
  -27.3959  -29.7275   25.5099 H   0  0  0  0  0  0
  -27.9083  -30.4059   23.9876 H   0  0  0  0  0  0
  -27.2623  -33.3711   26.1877 H   0  0  0  0  0  0
  -28.3942  -32.6799   25.0354 H   0  0  0  0  0  0
  -28.0618  -31.8581   26.5516 H   0  0  0  0  0  0
  -28.2568  -38.0056   24.7486 H   0  0  0  0  0  0
  -28.1057  -36.2579   24.6316 H   0  0  0  0  0  0
  -27.2273  -37.1437   25.8868 H   0  0  0  0  0  0
  -20.9610  -29.8742   21.6640 H   0  0  0  0  0  0
  -26.0100  -38.2745   24.1425 H   0  0  0  0  0  0
  -28.8875  -21.0993   18.5638 H   0  0  0  0  0  0
  -28.7878  -22.4812   22.5560 H   0  0  0  0  0  0
  -29.2165  -20.4468   23.7356 H   0  0  0  0  0  0
  -30.6617  -19.7713   22.9641 H   0  0  0  0  0  0
  -29.1180  -18.8955   22.8941 H   0  0  0  0  0  0
  -26.9116  -23.9707   20.0267 H   0  0  0  0  0  0
  -28.1050  -24.1360   18.8044 H   0  0  0  0  0  0
  -31.0159  -18.3914   20.4816 H   0  0  0  0  0  0
  -30.1581  -18.2737   19.0212 H   0  0  0  0  0  0
  -28.6997  -16.5222   20.6131 H   0  0  0  0  0  0
  1 25  1  0  0  0
  1 30  2  0  0  0
  1 79  1  0  0  0
  2  3  1  0  0  0
  2 25  1  0  0  0
  2 80  1  0  0  0
  2 81  1  0  0  0
  3  4  1  0  0  0
  3 82  1  0  0  0
  3 83  1  0  0  0
  4  5  1  0  0  0
  4 84  1  0  0  0
  4 85  1  0  0  0
  5  6  1  0  0  0
  5 26  1  0  0  0
  5 86  1  0  0  0
  6 25  1  0  0  0
  6 87  1  0  0  0
  6 88  1  0  0  0
  7  8  2  0  0  0
  7 26  1  0  0  0
  7 29  1  0  0  0
  8  9  1  0  0  0
  8 22  1  0  0  0
  9 10  1  0  0  0
  9 27  2  0  0  0
 10 11  2  0  0  0
 10 15  1  0  0  0
 11 12  1  0  0  0
 11 89  1  0  0  0
 12 13  2  0  0  0
 12 90  1  0  0  0
 13 14  1  0  0  0
 13 31  1  0  0  0
 14 15  2  0  0  0
 14 91  1  0  0  0
 15 92  1  0  0  0
 16 17  2  0  0  0
 16 21  1  0  0  0
 16 31  1  0  0  0
 17 18  1  0  0  0
 17 93  1  0  0  0
 18 19  2  0  0  0
 18 94  1  0  0  0
 19 20  1  0  0  0
 19 24  1  0  0  0
 20 21  2  0  0  0
 20 95  1  0  0  0
 21 23  1  0  0  0
 22 28  1  0  0  0
 22 32  2  0  0  0
 26 27  1  0  0  0
 28 96  1  0  0  0
 28 97  1  0  0  0
 29 98  1  0  0  0
 29 99  1  0  0  0
 33 34  1  0  0  0
 33 66  1  0  0  0
 33 70  2  0  0  0
 34 36  1  0  0  0
 34 59  1  0  0  0
 34100  1  0  0  0
 35 44  2  0  0  0
 35 45  1  0  0  0
 35 68  1  0  0  0
 36 56  1  0  0  0
 36101  1  0  0  0
 37 39  1  0  0  0
 37 47  1  0  0  0
 37 66  1  0  0  0
 37102  1  0  0  0
 38 43  2  0  0  0
 38 46  1  0  0  0
 38 47  1  0  0  0
 39 64  1  0  0  0
 39 67  2  0  0  0
 40 52  1  0  0  0
 40 53  2  0  0  0
 40 58  1  0  0  0
 41103  1  0  0  0
 41104  1  0  0  0
 41105  1  0  0  0
 41 48  1  0  0  0
 42 43  1  0  0  0
 42 66  1  0  0  0
 42106  1  0  0  0
 42107  1  0  0  0
 43 44  1  0  0  0
 44108  1  0  0  0
 45 46  2  0  0  0
 45109  1  0  0  0
 46110  1  0  0  0
 47111  1  0  0  0
 47112  1  0  0  0
 48 56  1  0  0  0
 48 65  1  0  0  0
 48113  1  0  0  0
 49 50  1  0  0  0
 49 53  1  0  0  0
 49 64  1  0  0  0
 49114  1  0  0  0
 50 51  1  0  0  0
 50115  1  0  0  0
 50116  1  0  0  0
 51 52  1  0  0  0
 51117  1  0  0  0
 51118  1  0  0  0
 52119  1  0  0  0
 52120  1  0  0  0
 53 54  1  0  0  0
 54 55  2  0  0  0
 54121  1  0  0  0
 55 57  1  0  0  0
 55122  1  0  0  0
 56 69  2  0  0  0
 57 58  2  0  0  0
 57123  1  0  0  0
 58124  1  0  0  0
 59 60  1  0  0  0
 59 61  1  0  0  0
 59 62  1  0  0  0
 60125  1  0  0  0
 60126  1  0  0  0
 60127  1  0  0  0
 61128  1  0  0  0
 61129  1  0  0  0
 61130  1  0  0  0
 62131  1  0  0  0
 62132  1  0  0  0
 62133  1  0  0  0
 63 65  1  0  0  0
 63134  1  0  0  0
 63135  1  0  0  0
 63136  1  0  0  0
 64137  1  0  0  0
 65138  1  0  0  0
 68 76  1  0  0  0
 71 73  1  0  0  0
 71 74  2  0  0  0
 71139  1  0  0  0
 72 73  2  0  0  0
 72 78  1  0  0  0
 72140  1  0  0  0
 73 76  1  0  0  0
 74 77  1  0  0  0
 74 78  1  0  0  0
 75 78  1  0  0  0
 75141  1  0  0  0
 75142  1  0  0  0
 75143  1  0  0  0
 76144  1  0  0  0
 76145  1  0  0  0
 77 79  1  0  0  0
 77146  1  0  0  0
 77147  1  0  0  0
 79148  1  0  0  0
M  ISO  4   1 100  68 101  76 101  79 100
M  END
> <chiral flag>
0

> <version>
0

> <s_m_source_file>
/data/baiqing/PycharmProjects/Reinvent-master-3.2/result/LINK_invent/BTK/process_docking_weight1_custom_sum_contain_oxygen_bond_distance_aromatic_linkinvent_7_9_3/rearranged_h_0032.sdf

> <i_m_source_file_index>
2

> <r_mmod_Potential_Energy-OPLS-2005>
1432.72131347656

> <r_mmod_Stretch_Energy-OPLS-2005>
663.338256835938

> <r_mmod_Bend_Energy-OPLS-2005>
481.370697021484

> <r_mmod_Torsional_Energy-OPLS-2005>
220.140823364258

> <r_mmod_Improper_Torsional_Energy-OPLS-2005>
6.66515254974365

> <r_mmod_Van_der_Waal_Energy-OPLS-2005>
108.252426147461

> <r_mmod_Electrostatic_Energy-OPLS-2005>
-383.716613769531

> <r_mmod_Solvation_Energy-OPLS-2005>
-225.03125

> <b_mmod_Minimization_Converged-OPLS-2005>
0

> <r_mmod_RMS_Derivative-OPLS-2005>
1.92257845401764

$$$$
2
                    3D
 Structure written by MMmdl.
162170  0  0  1  0            999 V2000
  -30.8036  -14.2806   20.7794 C   0  0  0  0  0  0
  -30.4160  -12.2940   19.3662 C   0  0  0  0  0  0
  -29.4737  -12.5527   18.1789 C   0  0  0  0  0  0
  -28.0028  -12.3897   18.6004 C   0  0  0  0  0  0
  -27.6660  -13.1991   19.8783 C   0  0  2  0  0  0
  -28.7002  -12.9180   20.9882 C   0  0  0  0  0  0
  -25.2598  -13.8152   20.5662 C   0  0  0  0  0  0
  -24.1837  -13.0434   20.9151 C   0  0  0  0  0  0
  -24.6382  -11.6903   20.8713 C   0  0  0  0  0  0
  -23.9048  -10.4292   21.0398 C   0  0  0  0  0  0
  -24.3604   -9.4214   21.9179 C   0  0  0  0  0  0
  -23.6286   -8.2245   22.0749 C   0  0  0  0  0  0
  -22.4272   -8.0276   21.3540 C   0  0  0  0  0  0
  -21.9898   -9.0250   20.4644 C   0  0  0  0  0  0
  -22.7218  -10.2134   20.3051 C   0  0  0  0  0  0
  -21.6852   -6.0733   22.5279 C   0  0  0  0  0  0
  -21.4016   -6.5639   23.8215 C   0  0  0  0  0  0
  -21.3659   -5.6792   24.9175 C   0  0  0  0  0  0
  -21.6044   -4.3053   24.7227 C   0  0  0  0  0  0
  -21.8819   -3.8144   23.4349 C   0  0  0  0  0  0
  -21.9192   -4.6959   22.3404 C   0  0  0  0  0  0
  -22.7867  -13.5241   21.1837 C   0  0  0  0  0  0
  -22.1659   -4.2145   21.0981 F   0  0  0  0  0  0
  -21.5630   -3.4539   25.7740 F   0  0  0  0  0  0
  -30.0534  -13.1978   20.4642 N   0  0  0  0  0  0
  -26.3034  -12.9312   20.3362 N   0  0  0  0  0  0
  -25.9305  -11.6471   20.5725 N   0  0  0  0  0  0
  -22.0509  -12.8230   22.0398 N   0  0  0  0  0  0
  -25.4334  -15.1865   20.4085 N   0  0  0  0  0  0
  -31.7391  -14.6982   20.0879 O   0  0  0  0  0  0
  -21.6634   -6.8874   21.4241 O   0  0  0  0  0  0
  -22.3550  -14.5555   20.6703 O   0  0  0  0  0  0
  -24.6120  -31.8713   23.2117 C   0  0  0  0  0  0
  -25.9032  -32.4834   23.8401 C   0  0  1  0  0  0
  -27.2367  -27.4687   20.0943 C   0  0  0  0  0  0
  -25.5896  -33.8633   24.2337 N   0  0  0  0  0  0
  -23.3977  -30.4924   21.5521 C   0  0  2  0  0  0
  -24.8465  -28.9591   20.1183 C   0  0  0  0  0  0
  -22.7399  -29.4663   22.5020 C   0  0  0  0  0  0
  -18.0263  -28.1362   22.8495 C   0  0  0  0  0  0
  -24.1490  -36.7311   23.2626 C   0  0  0  0  0  0
  -25.9218  -30.8458   21.3599 C   0  0  0  0  0  0
  -26.0019  -29.4779   20.7183 C   0  0  0  0  0  0
  -27.2016  -28.7356   20.7136 C   0  0  0  0  0  0
  -26.0734  -26.9565   19.4875 C   0  0  0  0  0  0
  -24.8734  -27.6942   19.5033 C   0  0  0  0  0  0
  -23.6055  -29.8219   20.1672 C   0  0  0  0  0  0
  -25.4105  -36.3109   24.0328 C   0  0  1  0  0  0
  -20.5854  -28.3648   23.1337 C   0  0  2  0  0  0
  -20.6756  -26.9397   22.5419 C   0  0  0  0  0  0
  -19.5738  -26.6385   21.5207 C   0  0  0  0  0  0
  -18.1908  -26.7910   22.1621 C   0  0  0  0  0  0
  -19.1511  -28.8824   23.2909 C   0  0  0  0  0  0
  -18.9445  -30.1427   23.8930 C   0  0  0  0  0  0
  -17.6453  -30.6587   24.0559 C   0  0  0  0  0  0
  -25.9029  -34.9482   23.5126 C   0  0  0  0  0  0
  -16.5341  -29.9092   23.6319 C   0  0  0  0  0  0
  -16.7255  -28.6494   23.0361 C   0  0  0  0  0  0
  -26.4470  -31.6589   25.0705 C   0  0  0  0  0  0
  -25.3751  -31.3701   26.1475 C   0  0  0  0  0  0
  -27.0257  -30.3026   24.6021 C   0  0  0  0  0  0
  -27.6073  -32.4282   25.7464 C   0  0  0  0  0  0
  -27.5583  -37.1806   24.8462 C   0  0  0  0  0  0
  -21.4132  -29.3021   22.3762 N   0  0  0  0  0  0
  -26.4294  -37.3796   23.9408 N   0  0  0  0  0  0
  -24.6615  -31.0836   22.1003 N   0  0  0  0  0  0
  -23.4194  -28.8216   23.3050 O   0  0  0  0  0  0
  -28.3960  -26.7414   20.0195 O   0  0  0  0  0  0
  -26.5593  -34.8930   22.4688 O   0  0  0  0  0  0
  -23.5323  -32.1455   23.7533 O   0  0  0  0  0  0
  -29.4426  -17.5072   21.9925 C   0  0  0  0  0  0
  -29.2919  -18.6533   24.5467 C   0  0  0  0  0  0
  -30.2520  -16.9930   23.0275 C   0  0  0  0  0  0
  -28.4915  -19.1724   23.5055 C   0  0  0  0  0  0
  -30.1705  -17.5754   24.3172 C   0  0  0  0  0  0
  -28.5715  -18.5885   22.2198 C   0  0  0  0  0  0
  -31.2023  -15.8434   22.7120 C   0  0  0  0  0  0
  -27.5720  -20.3546   23.7853 C   0  0  0  0  0  0
  -28.5074  -23.8591   22.4928 C   0  0  0  0  0  0
  -27.9101  -24.8233   21.4539 C   0  0  0  0  0  0
  -27.6320  -22.6111   22.7237 C   0  0  0  0  0  0
  -28.7790  -26.0735   21.2168 C   0  0  0  0  0  0
  -30.5335  -14.7633   21.9968 N   0  0  0  0  0  0
  -28.2949  -21.6308   23.6101 N   0  3  0  0  0  0
  -31.1273  -17.0043   25.6392 Cl  0  0  0  0  0  0
  -27.6393  -19.1901   20.8961 Cl  0  0  0  0  0  0
  -31.4561  -12.4156   19.0583 H   0  0  0  0  0  0
  -30.3258  -11.2602   19.7042 H   0  0  0  0  0  0
  -29.7060  -11.8740   17.3573 H   0  0  0  0  0  0
  -29.6350  -13.5627   17.7978 H   0  0  0  0  0  0
  -27.8161  -11.3287   18.7707 H   0  0  0  0  0  0
  -27.3440  -12.6883   17.7845 H   0  0  0  0  0  0
  -27.7314  -14.2567   19.6208 H   0  0  0  0  0  0
  -28.6505  -11.8717   21.2934 H   0  0  0  0  0  0
  -28.4341  -13.4926   21.8755 H   0  0  0  0  0  0
  -25.2756   -9.5691   22.4747 H   0  0  0  0  0  0
  -23.9999   -7.4635   22.7471 H   0  0  0  0  0  0
  -21.0827   -8.8765   19.8953 H   0  0  0  0  0  0
  -22.3676  -10.9669   19.6157 H   0  0  0  0  0  0
  -21.2011   -7.6148   23.9717 H   0  0  0  0  0  0
  -21.1483   -6.0522   25.9078 H   0  0  0  0  0  0
  -22.0600   -2.7607   23.2851 H   0  0  0  0  0  0
  -22.4115  -11.9873   22.4758 H   0  0  0  0  0  0
  -21.1137  -13.1262   22.2624 H   0  0  0  0  0  0
  -24.6735  -15.8477   20.5243 H   0  0  0  0  0  0
  -26.2975  -15.6253   20.1157 H   0  0  0  0  0  0
  -26.7107  -32.5578   23.1184 H   0  0  0  0  0  0
  -25.0069  -33.9807   25.0498 H   0  0  0  0  0  0
  -22.6835  -31.3067   21.4131 H   0  0  0  0  0  0
  -23.3761  -35.9636   23.3274 H   0  0  0  0  0  0
  -24.3596  -36.8942   22.2047 H   0  0  0  0  0  0
  -23.7240  -37.6503   23.6664 H   0  0  0  0  0  0
  -26.0207  -31.6087   20.5857 H   0  0  0  0  0  0
  -26.8138  -30.9110   21.9695 H   0  0  0  0  0  0
  -28.0982  -29.1351   21.1678 H   0  0  0  0  0  0
  -26.0978  -25.9881   19.0066 H   0  0  0  0  0  0
  -23.9866  -27.2901   19.0342 H   0  0  0  0  0  0
  -23.7086  -30.5954   19.4052 H   0  0  0  0  0  0
  -22.7323  -29.2344   19.8761 H   0  0  0  0  0  0
  -25.1283  -36.1957   25.0819 H   0  0  0  0  0  0
  -20.9940  -28.3214   24.1460 H   0  0  0  0  0  0
  -20.5662  -26.2261   23.3604 H   0  0  0  0  0  0
  -21.6625  -26.7456   22.1205 H   0  0  0  0  0  0
  -19.6912  -25.6305   21.1215 H   0  0  0  0  0  0
  -19.6663  -27.3215   20.6753 H   0  0  0  0  0  0
  -17.4176  -26.6651   21.4023 H   0  0  0  0  0  0
  -18.0308  -26.0048   22.9016 H   0  0  0  0  0  0
  -19.7921  -30.7207   24.2340 H   0  0  0  0  0  0
  -17.5011  -31.6275   24.5146 H   0  0  0  0  0  0
  -15.5341  -30.3011   23.7619 H   0  0  0  0  0  0
  -15.8640  -28.0817   22.7096 H   0  0  0  0  0  0
  -24.5907  -30.7068   25.7824 H   0  0  0  0  0  0
  -24.8978  -32.2870   26.4945 H   0  0  0  0  0  0
  -25.8121  -30.8856   27.0220 H   0  0  0  0  0  0
  -26.2754  -29.6811   24.1120 H   0  0  0  0  0  0
  -27.4082  -29.7230   25.4435 H   0  0  0  0  0  0
  -27.8582  -30.4320   23.9097 H   0  0  0  0  0  0
  -27.2720  -33.3617   26.2000 H   0  0  0  0  0  0
  -28.3918  -32.6770   25.0300 H   0  0  0  0  0  0
  -28.0689  -31.8405   26.5411 H   0  0  0  0  0  0
  -28.2597  -38.0112   24.7538 H   0  0  0  0  0  0
  -28.1086  -36.2650   24.6254 H   0  0  0  0  0  0
  -27.2312  -37.1416   25.8869 H   0  0  0  0  0  0
  -20.9294  -29.8741   21.6984 H   0  0  0  0  0  0
  -26.0178  -38.2869   24.1438 H   0  0  0  0  0  0
  -29.5001  -17.0794   21.0026 H   0  0  0  0  0  0
  -29.2442  -19.0852   25.5367 H   0  0  0  0  0  0
  -31.6285  -15.4139   23.6178 H   0  0  0  0  0  0
  -32.0415  -16.2405   22.1390 H   0  0  0  0  0  0
  -27.2063  -20.2972   24.8116 H   0  0  0  0  0  0
  -26.6809  -20.3032   23.1581 H   0  0  0  0  0  0
  -28.6579  -24.3870   23.4360 H   0  0  0  0  0  0
  -29.4965  -23.5500   22.1509 H   0  0  0  0  0  0
  -26.9095  -25.1307   21.7625 H   0  0  0  0  0  0
  -27.7897  -24.2911   20.5095 H   0  0  0  0  0  0
  -27.4188  -22.1342   21.7659 H   0  0  0  0  0  0
  -26.6717  -22.9008   23.1538 H   0  0  0  0  0  0
  -29.8219  -25.7779   21.0916 H   0  0  0  0  0  0
  -28.7475  -26.7443   22.0771 H   0  0  0  0  0  0
  -29.7990  -14.2861   22.4969 H   0  0  0  0  0  0
  -29.2056  -21.4203   23.2370 H   0  0  0  0  0  0
  -28.4282  -22.0390   24.5210 H   0  0  0  0  0  0
  1 25  1  0  0  0
  1 30  2  0  0  0
  1 83  1  0  0  0
  2  3  1  0  0  0
  2 25  1  0  0  0
  2 87  1  0  0  0
  2 88  1  0  0  0
  3  4  1  0  0  0
  3 89  1  0  0  0
  3 90  1  0  0  0
  4  5  1  0  0  0
  4 91  1  0  0  0
  4 92  1  0  0  0
  5  6  1  0  0  0
  5 26  1  0  0  0
  5 93  1  0  0  0
  6 25  1  0  0  0
  6 94  1  0  0  0
  6 95  1  0  0  0
  7  8  2  0  0  0
  7 26  1  0  0  0
  7 29  1  0  0  0
  8  9  1  0  0  0
  8 22  1  0  0  0
  9 10  1  0  0  0
  9 27  2  0  0  0
 10 11  2  0  0  0
 10 15  1  0  0  0
 11 12  1  0  0  0
 11 96  1  0  0  0
 12 13  2  0  0  0
 12 97  1  0  0  0
 13 14  1  0  0  0
 13 31  1  0  0  0
 14 15  2  0  0  0
 14 98  1  0  0  0
 15 99  1  0  0  0
 16 17  2  0  0  0
 16 21  1  0  0  0
 16 31  1  0  0  0
 17 18  1  0  0  0
 17100  1  0  0  0
 18 19  2  0  0  0
 18101  1  0  0  0
 19 20  1  0  0  0
 19 24  1  0  0  0
 20 21  2  0  0  0
 20102  1  0  0  0
 21 23  1  0  0  0
 22 28  1  0  0  0
 22 32  2  0  0  0
 26 27  1  0  0  0
 28103  1  0  0  0
 28104  1  0  0  0
 29105  1  0  0  0
 29106  1  0  0  0
 33 34  1  0  0  0
 33 66  1  0  0  0
 33 70  2  0  0  0
 34 36  1  0  0  0
 34 59  1  0  0  0
 34107  1  0  0  0
 35 44  2  0  0  0
 35 45  1  0  0  0
 35 68  1  0  0  0
 36 56  1  0  0  0
 36108  1  0  0  0
 37 39  1  0  0  0
 37 47  1  0  0  0
 37 66  1  0  0  0
 37109  1  0  0  0
 38 43  2  0  0  0
 38 46  1  0  0  0
 38 47  1  0  0  0
 39 64  1  0  0  0
 39 67  2  0  0  0
 40 52  1  0  0  0
 40 53  2  0  0  0
 40 58  1  0  0  0
 41110  1  0  0  0
 41111  1  0  0  0
 41112  1  0  0  0
 41 48  1  0  0  0
 42 43  1  0  0  0
 42 66  1  0  0  0
 42113  1  0  0  0
 42114  1  0  0  0
 43 44  1  0  0  0
 44115  1  0  0  0
 45 46  2  0  0  0
 45116  1  0  0  0
 46117  1  0  0  0
 47118  1  0  0  0
 47119  1  0  0  0
 48 56  1  0  0  0
 48 65  1  0  0  0
 48120  1  0  0  0
 49 50  1  0  0  0
 49 53  1  0  0  0
 49 64  1  0  0  0
 49121  1  0  0  0
 50 51  1  0  0  0
 50122  1  0  0  0
 50123  1  0  0  0
 51 52  1  0  0  0
 51124  1  0  0  0
 51125  1  0  0  0
 52126  1  0  0  0
 52127  1  0  0  0
 53 54  1  0  0  0
 54 55  2  0  0  0
 54128  1  0  0  0
 55 57  1  0  0  0
 55129  1  0  0  0
 56 69  2  0  0  0
 57 58  2  0  0  0
 57130  1  0  0  0
 58131  1  0  0  0
 59 60  1  0  0  0
 59 61  1  0  0  0
 59 62  1  0  0  0
 60132  1  0  0  0
 60133  1  0  0  0
 60134  1  0  0  0
 61135  1  0  0  0
 61136  1  0  0  0
 61137  1  0  0  0
 62138  1  0  0  0
 62139  1  0  0  0
 62140  1  0  0  0
 63 65  1  0  0  0
 63141  1  0  0  0
 63142  1  0  0  0
 63143  1  0  0  0
 64144  1  0  0  0
 65145  1  0  0  0
 68 82  1  0  0  0
 71 73  2  0  0  0
 71 76  1  0  0  0
 71146  1  0  0  0
 72 74  1  0  0  0
 72 75  2  0  0  0
 72147  1  0  0  0
 73 75  1  0  0  0
 73 77  1  0  0  0
 74 76  2  0  0  0
 74 78  1  0  0  0
 75 85  1  0  0  0
 76 86  1  0  0  0
 77 83  1  0  0  0
 77148  1  0  0  0
 77149  1  0  0  0
 78 84  1  0  0  0
 78150  1  0  0  0
 78151  1  0  0  0
 79 80  1  0  0  0
 79 81  1  0  0  0
 79152  1  0  0  0
 79153  1  0  0  0
 80 82  1  0  0  0
 80154  1  0  0  0
 80155  1  0  0  0
 81 84  1  0  0  0
 81156  1  0  0  0
 81157  1  0  0  0
 82158  1  0  0  0
 82159  1  0  0  0
 83160  1  0  0  0
 84161  1  0  0  0
 84162  1  0  0  0
M  CHG  1  84   1
M  ISO  4   1 100  68 101  82 101  83 100
M  END
> <chiral flag>
0

> <version>
0

> <s_m_source_file>
/data/baiqing/PycharmProjects/Reinvent-master-3.2/result/LINK_invent/BTK/process_docking_weight1_custom_sum_contain_oxygen_bond_distance_aromatic_linkinvent_7_9_3/rearranged_h_0032.sdf

> <i_m_source_file_index>
3

> <r_mmod_Potential_Energy-OPLS-2005>
-338.888732910156

> <r_mmod_Stretch_Energy-OPLS-2005>
31.200662612915

> <r_mmod_Bend_Energy-OPLS-2005>
85.5037994384766

> <r_mmod_Torsional_Energy-OPLS-2005>
216.328521728516

> <r_mmod_Improper_Torsional_Energy-OPLS-2005>
2.96542811393738

> <r_mmod_Van_der_Waal_Energy-OPLS-2005>
144.796585083008

> <r_mmod_Electrostatic_Energy-OPLS-2005>
-351.155334472656

> <r_mmod_Solvation_Energy-OPLS-2005>
-477.142211914062

> <b_mmod_Minimization_Converged-OPLS-2005>
0

> <r_mmod_RMS_Derivative-OPLS-2005>
1.65342497825623

$$$$
3
                    3D
 Structure written by MMmdl.
169177  0  0  1  0            999 V2000
  -30.7466  -14.3803   20.6549 C   0  0  0  0  0  0
  -30.4155  -12.2902   19.3930 C   0  0  0  0  0  0
  -29.4802  -12.5410   18.1931 C   0  0  0  0  0  0
  -28.0016  -12.4059   18.6031 C   0  0  0  0  0  0
  -27.6673  -13.2021   19.8923 C   0  0  2  0  0  0
  -28.7076  -12.9246   21.0011 C   0  0  0  0  0  0
  -25.2563  -13.8148   20.5629 C   0  0  0  0  0  0
  -24.1824  -13.0396   20.9119 C   0  0  0  0  0  0
  -24.6393  -11.6861   20.8697 C   0  0  0  0  0  0
  -23.9052  -10.4273   21.0398 C   0  0  0  0  0  0
  -24.3606   -9.4202   21.9164 C   0  0  0  0  0  0
  -23.6292   -8.2244   22.0730 C   0  0  0  0  0  0
  -22.4281   -8.0281   21.3528 C   0  0  0  0  0  0
  -21.9915   -9.0240   20.4632 C   0  0  0  0  0  0
  -22.7224  -10.2125   20.3046 C   0  0  0  0  0  0
  -21.6879   -6.0738   22.5286 C   0  0  0  0  0  0
  -21.4023   -6.5638   23.8210 C   0  0  0  0  0  0
  -21.3643   -5.6782   24.9178 C   0  0  0  0  0  0
  -21.6062   -4.3040   24.7243 C   0  0  0  0  0  0
  -21.8807   -3.8154   23.4353 C   0  0  0  0  0  0
  -21.9192   -4.6971   22.3410 C   0  0  0  0  0  0
  -22.7856  -13.5174   21.1832 C   0  0  0  0  0  0
  -22.1665   -4.2167   21.0993 F   0  0  0  0  0  0
  -21.5628   -3.4500   25.7737 F   0  0  0  0  0  0
  -30.0495  -13.2300   20.4603 N   0  0  0  0  0  0
  -26.3043  -12.9298   20.3448 N   0  0  0  0  0  0
  -25.9315  -11.6469   20.5761 N   0  0  0  0  0  0
  -22.0574  -12.8167   22.0435 N   0  0  0  0  0  0
  -25.4214  -15.1884   20.3979 N   0  0  0  0  0  0
  -31.8034  -14.6486   20.0691 O   0  0  0  0  0  0
  -21.6651   -6.8880   21.4245 O   0  0  0  0  0  0
  -22.3504  -14.5478   20.6712 O   0  0  0  0  0  0
  -24.6172  -31.8684   23.2154 C   0  0  0  0  0  0
  -25.9070  -32.4823   23.8425 C   0  0  1  0  0  0
  -27.2120  -27.4239   20.0543 C   0  0  0  0  0  0
  -25.5908  -33.8623   24.2337 N   0  0  0  0  0  0
  -23.4021  -30.5006   21.5570 C   0  0  2  0  0  0
  -24.8383  -28.9724   20.1119 C   0  0  0  0  0  0
  -22.7424  -29.4672   22.4985 C   0  0  0  0  0  0
  -18.0281  -28.1388   22.8491 C   0  0  0  0  0  0
  -24.1481  -36.7323   23.2638 C   0  0  0  0  0  0
  -25.9371  -30.8253   21.3734 C   0  0  0  0  0  0
  -26.0056  -29.4633   20.7096 C   0  0  0  0  0  0
  -27.1944  -28.6940   20.6817 C   0  0  0  0  0  0
  -26.0083  -26.9407   19.4866 C   0  0  0  0  0  0
  -24.8336  -27.7095   19.5048 C   0  0  0  0  0  0
  -23.6077  -29.8484   20.1659 C   0  0  0  0  0  0
  -25.4105  -36.3117   24.0335 C   0  0  1  0  0  0
  -20.5871  -28.3674   23.1304 C   0  0  2  0  0  0
  -20.6765  -26.9409   22.5405 C   0  0  0  0  0  0
  -19.5743  -26.6393   21.5210 C   0  0  0  0  0  0
  -18.1927  -26.7941   22.1611 C   0  0  0  0  0  0
  -19.1534  -28.8845   23.2893 C   0  0  0  0  0  0
  -18.9453  -30.1450   23.8913 C   0  0  0  0  0  0
  -17.6456  -30.6592   24.0565 C   0  0  0  0  0  0
  -25.9035  -34.9481   23.5144 C   0  0  0  0  0  0
  -16.5343  -29.9106   23.6315 C   0  0  0  0  0  0
  -16.7267  -28.6515   23.0338 C   0  0  0  0  0  0
  -26.4478  -31.6607   25.0765 C   0  0  0  0  0  0
  -25.3737  -31.3738   26.1520 C   0  0  0  0  0  0
  -27.0295  -30.3035   24.6170 C   0  0  0  0  0  0
  -27.6059  -32.4336   25.7509 C   0  0  0  0  0  0
  -27.5590  -37.1806   24.8458 C   0  0  0  0  0  0
  -21.4139  -29.3048   22.3723 N   0  0  0  0  0  0
  -26.4286  -37.3806   23.9430 N   0  0  0  0  0  0
  -24.6709  -31.0781   22.1071 N   0  0  0  0  0  0
  -23.4197  -28.8194   23.2998 O   0  0  0  0  0  0
  -28.3789  -26.6792   20.0385 O   0  0  0  0  0  0
  -26.5596  -34.8930   22.4702 O   0  0  0  0  0  0
  -23.5354  -32.1437   23.7542 O   0  0  0  0  0  0
  -29.5562  -22.0670   21.5263 C   0  0  0  0  0  0
  -29.1783  -21.3871   20.4049 C   0  0  0  0  0  0
  -29.0814  -22.3490   19.3518 C   0  0  0  0  0  0
  -29.5270  -23.5553   19.8358 C   0  0  0  0  0  0
  -28.6292  -22.0383   17.9441 C   0  0  0  0  0  0
  -32.6631  -25.2369   22.9354 C   0  0  0  0  0  0
  -28.9483  -19.8948   20.3026 C   0  0  0  0  0  0
  -29.7956  -24.8527   19.1059 C   0  0  0  0  0  0
  -31.9381  -24.2676   22.0006 C   0  0  0  0  0  0
  -30.0251  -19.0633   21.0373 C   0  0  0  0  0  0
  -29.9335  -17.5715   20.6838 C   0  0  0  0  0  0
  -30.4041  -24.3465   22.0905 C   0  0  0  0  0  0
  -30.5803  -16.6340   21.7200 C   0  0  0  0  0  0
  -28.5942  -25.8001   18.9173 C   0  0  0  0  0  0
  -29.8180  -23.3768   21.1831 N   0  0  0  0  0  0
  -30.1709  -15.2516   21.4918 N   0  0  0  0  0  0
  -31.4550  -12.4017   19.0788 H   0  0  0  0  0  0
  -30.3217  -11.2632   19.7530 H   0  0  0  0  0  0
  -29.7051  -11.8463   17.3824 H   0  0  0  0  0  0
  -29.6591  -13.5430   17.7997 H   0  0  0  0  0  0
  -27.7783  -11.3456   18.7414 H   0  0  0  0  0  0
  -27.3635  -12.7434   17.7843 H   0  0  0  0  0  0
  -27.7296  -14.2624   19.6418 H   0  0  0  0  0  0
  -28.6759  -11.8752   21.2978 H   0  0  0  0  0  0
  -28.4599  -13.4755   21.9086 H   0  0  0  0  0  0
  -25.2770   -9.5682   22.4698 H   0  0  0  0  0  0
  -24.0013   -7.4632   22.7412 H   0  0  0  0  0  0
  -21.0872   -8.8752   19.8912 H   0  0  0  0  0  0
  -22.3696  -10.9656   19.6139 H   0  0  0  0  0  0
  -21.2034   -7.6151   23.9724 H   0  0  0  0  0  0
  -21.1466   -6.0527   25.9073 H   0  0  0  0  0  0
  -22.0618   -2.7620   23.2857 H   0  0  0  0  0  0
  -22.4212  -11.9804   22.4780 H   0  0  0  0  0  0
  -21.1176  -13.1155   22.2620 H   0  0  0  0  0  0
  -24.6454  -15.8339   20.5017 H   0  0  0  0  0  0
  -26.2769  -15.6482   20.1129 H   0  0  0  0  0  0
  -26.7137  -32.5505   23.1167 H   0  0  0  0  0  0
  -25.0033  -33.9784   25.0469 H   0  0  0  0  0  0
  -22.6925  -31.3204   21.4279 H   0  0  0  0  0  0
  -23.3742  -35.9654   23.3274 H   0  0  0  0  0  0
  -24.3574  -36.8965   22.2061 H   0  0  0  0  0  0
  -23.7213  -37.6513   23.6664 H   0  0  0  0  0  0
  -26.0618  -31.5954   20.6103 H   0  0  0  0  0  0
  -26.8225  -30.8643   21.9966 H   0  0  0  0  0  0
  -28.1013  -29.0750   21.1298 H   0  0  0  0  0  0
  -25.9233  -25.9636   19.0410 H   0  0  0  0  0  0
  -23.9288  -27.3223   19.0553 H   0  0  0  0  0  0
  -23.7332  -30.6340   19.4200 H   0  0  0  0  0  0
  -22.7236  -29.2879   19.8543 H   0  0  0  0  0  0
  -25.1271  -36.1978   25.0820 H   0  0  0  0  0  0
  -20.9959  -28.3235   24.1414 H   0  0  0  0  0  0
  -20.5661  -26.2283   23.3601 H   0  0  0  0  0  0
  -21.6634  -26.7448   22.1201 H   0  0  0  0  0  0
  -19.6906  -25.6300   21.1241 H   0  0  0  0  0  0
  -19.6688  -27.3194   20.6736 H   0  0  0  0  0  0
  -17.4192  -26.6676   21.4024 H   0  0  0  0  0  0
  -18.0334  -26.0082   22.9011 H   0  0  0  0  0  0
  -19.7921  -30.7274   24.2288 H   0  0  0  0  0  0
  -17.5003  -31.6276   24.5175 H   0  0  0  0  0  0
  -15.5350  -30.3015   23.7637 H   0  0  0  0  0  0
  -15.8654  -28.0858   22.7031 H   0  0  0  0  0  0
  -24.5893  -30.7100   25.7865 H   0  0  0  0  0  0
  -24.8953  -32.2911   26.4983 H   0  0  0  0  0  0
  -25.8091  -30.8896   27.0274 H   0  0  0  0  0  0
  -26.2843  -29.6819   24.1201 H   0  0  0  0  0  0
  -27.3997  -29.7273   25.4655 H   0  0  0  0  0  0
  -27.8716  -30.4331   23.9372 H   0  0  0  0  0  0
  -27.2680  -33.3630   26.2118 H   0  0  0  0  0  0
  -28.3845  -32.6917   25.0316 H   0  0  0  0  0  0
  -28.0757  -31.8448   26.5396 H   0  0  0  0  0  0
  -28.2582  -38.0127   24.7538 H   0  0  0  0  0  0
  -28.1102  -36.2660   24.6219 H   0  0  0  0  0  0
  -27.2322  -37.1393   25.8861 H   0  0  0  0  0  0
  -20.9318  -29.8782   21.6942 H   0  0  0  0  0  0
  -26.0169  -38.2873   24.1457 H   0  0  0  0  0  0
  -29.7387  -21.7074   22.5310 H   0  0  0  0  0  0
  -29.3522  -21.3917   17.4468 H   0  0  0  0  0  0
  -28.5073  -22.9415   17.3478 H   0  0  0  0  0  0
  -27.6701  -21.5184   17.9743 H   0  0  0  0  0  0
  -33.7436  -25.1337   22.8297 H   0  0  0  0  0  0
  -32.4061  -25.0459   23.9792 H   0  0  0  0  0  0
  -32.4049  -26.2701   22.7016 H   0  0  0  0  0  0
  -28.9354  -19.6111   19.2489 H   0  0  0  0  0  0
  -27.9596  -19.6648   20.7037 H   0  0  0  0  0  0
  -30.1737  -24.5950   18.1162 H   0  0  0  0  0  0
  -30.6125  -25.4009   19.5695 H   0  0  0  0  0  0
  -32.2609  -23.2480   22.2181 H   0  0  0  0  0  0
  -32.2515  -24.4619   20.9747 H   0  0  0  0  0  0
  -29.9139  -19.2073   22.1142 H   0  0  0  0  0  0
  -31.0228  -19.4288   20.7819 H   0  0  0  0  0  0
  -30.3839  -17.4001   19.7018 H   0  0  0  0  0  0
  -28.8805  -17.3155   20.5819 H   0  0  0  0  0  0
  -30.0357  -25.3430   21.8446 H   0  0  0  0  0  0
  -30.0666  -24.1250   23.1048 H   0  0  0  0  0  0
  -30.2450  -16.9077   22.7186 H   0  0  0  0  0  0
  -31.6668  -16.7266   21.7228 H   0  0  0  0  0  0
  -27.7419  -25.1830   18.6459 H   0  0  0  0  0  0
  -28.7993  -26.4417   18.0582 H   0  0  0  0  0  0
  -29.3195  -14.9510   21.9431 H   0  0  0  0  0  0
  1 25  1  0  0  0
  1 30  2  0  0  0
  1 86  1  0  0  0
  2  3  1  0  0  0
  2 25  1  0  0  0
  2 87  1  0  0  0
  2 88  1  0  0  0
  3  4  1  0  0  0
  3 89  1  0  0  0
  3 90  1  0  0  0
  4  5  1  0  0  0
  4 91  1  0  0  0
  4 92  1  0  0  0
  5  6  1  0  0  0
  5 26  1  0  0  0
  5 93  1  0  0  0
  6 25  1  0  0  0
  6 94  1  0  0  0
  6 95  1  0  0  0
  7  8  2  0  0  0
  7 26  1  0  0  0
  7 29  1  0  0  0
  8  9  1  0  0  0
  8 22  1  0  0  0
  9 10  1  0  0  0
  9 27  2  0  0  0
 10 11  2  0  0  0
 10 15  1  0  0  0
 11 12  1  0  0  0
 11 96  1  0  0  0
 12 13  2  0  0  0
 12 97  1  0  0  0
 13 14  1  0  0  0
 13 31  1  0  0  0
 14 15  2  0  0  0
 14 98  1  0  0  0
 15 99  1  0  0  0
 16 17  2  0  0  0
 16 21  1  0  0  0
 16 31  1  0  0  0
 17 18  1  0  0  0
 17100  1  0  0  0
 18 19  2  0  0  0
 18101  1  0  0  0
 19 20  1  0  0  0
 19 24  1  0  0  0
 20 21  2  0  0  0
 20102  1  0  0  0
 21 23  1  0  0  0
 22 28  1  0  0  0
 22 32  2  0  0  0
 26 27  1  0  0  0
 28103  1  0  0  0
 28104  1  0  0  0
 29105  1  0  0  0
 29106  1  0  0  0
 33 34  1  0  0  0
 33 66  1  0  0  0
 33 70  2  0  0  0
 34 36  1  0  0  0
 34 59  1  0  0  0
 34107  1  0  0  0
 35 44  2  0  0  0
 35 45  1  0  0  0
 35 68  1  0  0  0
 36 56  1  0  0  0
 36108  1  0  0  0
 37 39  1  0  0  0
 37 47  1  0  0  0
 37 66  1  0  0  0
 37109  1  0  0  0
 38 43  2  0  0  0
 38 46  1  0  0  0
 38 47  1  0  0  0
 39 64  1  0  0  0
 39 67  2  0  0  0
 40 52  1  0  0  0
 40 53  2  0  0  0
 40 58  1  0  0  0
 41110  1  0  0  0
 41111  1  0  0  0
 41112  1  0  0  0
 41 48  1  0  0  0
 42 43  1  0  0  0
 42 66  1  0  0  0
 42113  1  0  0  0
 42114  1  0  0  0
 43 44  1  0  0  0
 44115  1  0  0  0
 45 46  2  0  0  0
 45116  1  0  0  0
 46117  1  0  0  0
 47118  1  0  0  0
 47119  1  0  0  0
 48 56  1  0  0  0
 48 65  1  0  0  0
 48120  1  0  0  0
 49 50  1  0  0  0
 49 53  1  0  0  0
 49 64  1  0  0  0
 49121  1  0  0  0
 50 51  1  0  0  0
 50122  1  0  0  0
 50123  1  0  0  0
 51 52  1  0  0  0
 51124  1  0  0  0
 51125  1  0  0  0
 52126  1  0  0  0
 52127  1  0  0  0
 53 54  1  0  0  0
 54 55  2  0  0  0
 54128  1  0  0  0
 55 57  1  0  0  0
 55129  1  0  0  0
 56 69  2  0  0  0
 57 58  2  0  0  0
 57130  1  0  0  0
 58131  1  0  0  0
 59 60  1  0  0  0
 59 61  1  0  0  0
 59 62  1  0  0  0
 60132  1  0  0  0
 60133  1  0  0  0
 60134  1  0  0  0
 61135  1  0  0  0
 61136  1  0  0  0
 61137  1  0  0  0
 62138  1  0  0  0
 62139  1  0  0  0
 62140  1  0  0  0
 63 65  1  0  0  0
 63141  1  0  0  0
 63142  1  0  0  0
 63143  1  0  0  0
 64144  1  0  0  0
 65145  1  0  0  0
 68 84  1  0  0  0
 71 72  2  0  0  0
 71 85  1  0  0  0
 71146  1  0  0  0
 72 73  1  0  0  0
 72 77  1  0  0  0
 73 74  2  0  0  0
 73 75  1  0  0  0
 74 78  1  0  0  0
 74 85  1  0  0  0
 75147  1  0  0  0
 75148  1  0  0  0
 75149  1  0  0  0
 76 79  1  0  0  0
 76150  1  0  0  0
 76151  1  0  0  0
 76152  1  0  0  0
 77 80  1  0  0  0
 77153  1  0  0  0
 77154  1  0  0  0
 78 84  1  0  0  0
 78155  1  0  0  0
 78156  1  0  0  0
 79 82  1  0  0  0
 79157  1  0  0  0
 79158  1  0  0  0
 80 81  1  0  0  0
 80159  1  0  0  0
 80160  1  0  0  0
 81 83  1  0  0  0
 81161  1  0  0  0
 81162  1  0  0  0
 82 85  1  0  0  0
 82163  1  0  0  0
 82164  1  0  0  0
 83 86  1  0  0  0
 83165  1  0  0  0
 83166  1  0  0  0
 84167  1  0  0  0
 84168  1  0  0  0
 86169  1  0  0  0
M  ISO  4   1 100  68 101  84 101  86 100
M  END
> <chiral flag>
0

> <version>
0

> <s_m_source_file>
/data/baiqing/PycharmProjects/Reinvent-master-3.2/result/LINK_invent/BTK/process_docking_weight1_custom_sum_contain_oxygen_bond_distance_aromatic_linkinvent_7_9_3/rearranged_h_0032.sdf

> <i_m_source_file_index>
4

> <r_mmod_Potential_Energy-OPLS-2005>
-104.484634399414

> <r_mmod_Stretch_Energy-OPLS-2005>
33.8389129638672

> <r_mmod_Bend_Energy-OPLS-2005>
100.613410949707

> <r_mmod_Torsional_Energy-OPLS-2005>
217.484832763672

> <r_mmod_Improper_Torsional_Energy-OPLS-2005>
2.88880276679993

> <r_mmod_Van_der_Waal_Energy-OPLS-2005>
127.320495605469

> <r_mmod_Electrostatic_Energy-OPLS-2005>
-389.272583007812

> <r_mmod_Solvation_Energy-OPLS-2005>
-207.800399780273

> <b_mmod_Minimization_Converged-OPLS-2005>
0

> <r_mmod_RMS_Derivative-OPLS-2005>
4.90500116348267

$$$$
4
                    3D
 Structure written by MMmdl.
161169  0  0  1  0            999 V2000
  -30.5490  -14.9642   20.4008 C   0  0  0  0  0  0
  -30.4392  -12.5835   19.5309 C   0  0  0  0  0  0
  -29.5320  -12.5440   18.2821 C   0  0  0  0  0  0
  -28.0660  -12.3235   18.6861 C   0  0  0  0  0  0
  -27.6339  -13.2558   19.8484 C   0  0  2  0  0  0
  -28.6739  -13.2891   20.9926 C   0  0  0  0  0  0
  -25.2471  -13.8229   20.5704 C   0  0  0  0  0  0
  -24.1786  -13.0441   20.9192 C   0  0  0  0  0  0
  -24.6402  -11.6929   20.8718 C   0  0  0  0  0  0
  -23.9082  -10.4288   21.0385 C   0  0  0  0  0  0
  -24.3617   -9.4230   21.9192 C   0  0  0  0  0  0
  -23.6285   -8.2275   22.0769 C   0  0  0  0  0  0
  -22.4264   -8.0291   21.3570 C   0  0  0  0  0  0
  -21.9896   -9.0254   20.4673 C   0  0  0  0  0  0
  -22.7222  -10.2133   20.3073 C   0  0  0  0  0  0
  -21.6883   -6.0726   22.5279 C   0  0  0  0  0  0
  -21.4028   -6.5634   23.8197 C   0  0  0  0  0  0
  -21.3659   -5.6790   24.9155 C   0  0  0  0  0  0
  -21.6061   -4.3056   24.7236 C   0  0  0  0  0  0
  -21.8816   -3.8149   23.4355 C   0  0  0  0  0  0
  -21.9215   -4.6958   22.3403 C   0  0  0  0  0  0
  -22.7819  -13.5223   21.1851 C   0  0  0  0  0  0
  -22.1681   -4.2152   21.0962 F   0  0  0  0  0  0
  -21.5622   -3.4526   25.7744 F   0  0  0  0  0  0
  -29.9564  -13.6975   20.4031 N   0  0  0  0  0  0
  -26.2914  -12.9462   20.3269 N   0  0  0  0  0  0
  -25.9347  -11.6583   20.5725 N   0  0  0  0  0  0
  -22.0507  -12.8181   22.0414 N   0  0  0  0  0  0
  -25.4123  -15.1970   20.4135 N   0  0  0  0  0  0
  -31.7305  -15.0171   20.0469 O   0  0  0  0  0  0
  -21.6665   -6.8862   21.4241 O   0  0  0  0  0  0
  -22.3462  -14.5520   20.6710 O   0  0  0  0  0  0
  -24.6526  -31.8448   23.1811 C   0  0  0  0  0  0
  -25.9250  -32.4747   23.8259 C   0  0  1  0  0  0
  -27.2389  -27.1023   20.1747 C   0  0  0  0  0  0
  -25.5980  -33.8523   24.2195 N   0  0  0  0  0  0
  -23.4608  -30.4528   21.5339 C   0  0  2  0  0  0
  -24.9157  -28.8663   20.1210 C   0  0  0  0  0  0
  -22.7616  -29.4587   22.4938 C   0  0  0  0  0  0
  -18.0333  -28.1474   22.8524 C   0  0  0  0  0  0
  -24.1471  -36.7200   23.2647 C   0  0  0  0  0  0
  -26.0171  -30.7078   21.3869 C   0  0  0  0  0  0
  -26.0928  -29.3119   20.7333 C   0  0  0  0  0  0
  -27.2559  -28.4482   20.7318 C   0  0  0  0  0  0
  -26.0315  -26.7562   19.5328 C   0  0  0  0  0  0
  -24.8987  -27.6058   19.5024 C   0  0  0  0  0  0
  -23.6905  -29.7695   20.1604 C   0  0  0  0  0  0
  -25.4136  -36.3060   24.0329 C   0  0  1  0  0  0
  -20.5948  -28.3802   23.1273 C   0  0  2  0  0  0
  -20.6842  -26.9522   22.5436 C   0  0  0  0  0  0
  -19.5791  -26.6461   21.5274 C   0  0  0  0  0  0
  -18.1961  -26.8024   22.1649 C   0  0  0  0  0  0
  -19.1593  -28.8957   23.2891 C   0  0  0  0  0  0
  -18.9494  -30.1547   23.8933 C   0  0  0  0  0  0
  -17.6481  -30.6664   24.0585 C   0  0  0  0  0  0
  -25.9102  -34.9442   23.5093 C   0  0  0  0  0  0
  -16.5378  -29.9153   23.6356 C   0  0  0  0  0  0
  -16.7310  -28.6569   23.0399 C   0  0  0  0  0  0
  -26.4523  -31.6622   25.0711 C   0  0  0  0  0  0
  -25.3616  -31.3816   26.1334 C   0  0  0  0  0  0
  -27.0441  -30.3062   24.6303 C   0  0  0  0  0  0
  -27.6098  -32.4357   25.7466 C   0  0  0  0  0  0
  -27.5590  -37.1772   24.8484 C   0  0  0  0  0  0
  -21.4310  -29.3086   22.3614 N   0  0  0  0  0  0
  -26.4302  -37.3781   23.9434 N   0  0  0  0  0  0
  -24.7299  -31.0248   22.0894 N   0  0  0  0  0  0
  -23.4204  -28.8188   23.3169 O   0  0  0  0  0  0
  -28.3193  -26.1309   20.1790 O   0  0  0  0  0  0
  -26.5655  -34.8942   22.4651 O   0  0  0  0  0  0
  -23.5626  -32.1314   23.6993 O   0  0  0  0  0  0
  -29.2080  -20.3662   20.0330 C   0  0  0  0  0  0
  -29.8423  -19.1410   20.6067 C   0  0  0  0  0  0
  -30.6440  -19.4400   21.7426 C   0  0  0  0  0  0
  -29.3204  -21.7507   20.5767 C   0  0  0  0  0  0
  -30.7182  -20.7861   22.2224 C   0  0  0  0  0  0
  -34.8616  -16.4873   21.5800 C   0  0  0  0  0  0
  -31.4727  -18.3408   22.4248 C   0  0  0  0  0  0
  -29.8706  -17.6107   19.9343 C   0  0  0  0  0  0
  -28.9651  -23.2382   19.8931 C   0  0  0  0  0  0
  -33.6259  -16.9123   22.3909 C   0  0  0  0  0  0
  -32.7637  -17.9588   21.6608 C   0  0  0  0  0  0
  -28.1715  -24.6047   20.5512 C   0  0  0  0  0  0
  -30.0920  -21.8613   21.6781 N   0  0  0  0  0  0
  -29.7907  -16.1595   20.5815 N   0  0  0  0  0  0
  -31.7376  -21.1928   23.5578 Cl  0  0  0  0  0  0
  -31.4811  -12.7196   19.2334 H   0  0  0  0  0  0
  -30.4103  -11.6276   20.0603 H   0  0  0  0  0  0
  -29.8558  -11.7610   17.5957 H   0  0  0  0  0  0
  -29.6289  -13.4903   17.7456 H   0  0  0  0  0  0
  -27.9534  -11.2774   18.9813 H   0  0  0  0  0  0
  -27.4137  -12.4710   17.8251 H   0  0  0  0  0  0
  -27.5918  -14.2565   19.4151 H   0  0  0  0  0  0
  -28.7497  -12.3094   21.4722 H   0  0  0  0  0  0
  -28.3697  -13.9888   21.7722 H   0  0  0  0  0  0
  -25.2770   -9.5708   22.4746 H   0  0  0  0  0  0
  -24.0030   -7.4662   22.7462 H   0  0  0  0  0  0
  -21.0867   -8.8745   19.8943 H   0  0  0  0  0  0
  -22.3703  -10.9649   19.6162 H   0  0  0  0  0  0
  -21.2006   -7.6152   23.9695 H   0  0  0  0  0  0
  -21.1481   -6.0524   25.9047 H   0  0  0  0  0  0
  -22.0605   -2.7619   23.2854 H   0  0  0  0  0  0
  -22.4130  -11.9823   22.4766 H   0  0  0  0  0  0
  -21.1135  -13.1196   22.2668 H   0  0  0  0  0  0
  -24.6396  -15.8466   20.5074 H   0  0  0  0  0  0
  -26.2640  -15.6466   20.0984 H   0  0  0  0  0  0
  -26.7334  -32.5368   23.0999 H   0  0  0  0  0  0
  -25.0087  -33.9621   25.0332 H   0  0  0  0  0  0
  -22.7692  -31.2817   21.3718 H   0  0  0  0  0  0
  -23.3816  -35.9447   23.3305 H   0  0  0  0  0  0
  -24.3547  -36.8815   22.2061 H   0  0  0  0  0  0
  -23.7102  -37.6350   23.6665 H   0  0  0  0  0  0
  -26.1772  -31.4604   20.6146 H   0  0  0  0  0  0
  -26.8812  -30.7634   22.0360 H   0  0  0  0  0  0
  -28.1624  -28.7977   21.2056 H   0  0  0  0  0  0
  -25.9504  -25.7868   19.0596 H   0  0  0  0  0  0
  -23.9970  -27.2675   19.0131 H   0  0  0  0  0  0
  -23.8255  -30.5357   19.3961 H   0  0  0  0  0  0
  -22.8063  -29.2043   19.8605 H   0  0  0  0  0  0
  -25.1333  -36.1901   25.0824 H   0  0  0  0  0  0
  -21.0024  -28.3429   24.1399 H   0  0  0  0  0  0
  -20.5880  -26.2418   23.3664 H   0  0  0  0  0  0
  -21.6696  -26.7604   22.1163 H   0  0  0  0  0  0
  -19.6953  -25.6362   21.1345 H   0  0  0  0  0  0
  -19.6738  -27.3257   20.6795 H   0  0  0  0  0  0
  -17.4260  -26.6833   21.4020 H   0  0  0  0  0  0
  -18.0284  -26.0191   22.9057 H   0  0  0  0  0  0
  -19.7958  -30.7376   24.2327 H   0  0  0  0  0  0
  -17.5024  -31.6351   24.5170 H   0  0  0  0  0  0
  -15.5376  -30.3041   23.7705 H   0  0  0  0  0  0
  -15.8722  -28.0870   22.7133 H   0  0  0  0  0  0
  -24.5781  -30.7262   25.7492 H   0  0  0  0  0  0
  -24.8813  -32.3017   26.4700 H   0  0  0  0  0  0
  -25.7727  -30.8907   27.0167 H   0  0  0  0  0  0
  -26.3111  -29.6757   24.1269 H   0  0  0  0  0  0
  -27.4071  -29.7399   25.4884 H   0  0  0  0  0  0
  -27.8976  -30.4370   23.9641 H   0  0  0  0  0  0
  -27.2785  -33.3687   26.2037 H   0  0  0  0  0  0
  -28.3875  -32.6878   25.0234 H   0  0  0  0  0  0
  -28.0835  -31.8496   26.5362 H   0  0  0  0  0  0
  -28.2638  -38.0044   24.7610 H   0  0  0  0  0  0
  -28.1073  -36.2614   24.6264 H   0  0  0  0  0  0
  -27.2327  -37.1336   25.8883 H   0  0  0  0  0  0
  -20.9620  -29.8574   21.6555 H   0  0  0  0  0  0
  -26.0200  -38.2860   24.1460 H   0  0  0  0  0  0
  -28.6563  -20.2466   19.1097 H   0  0  0  0  0  0
  -35.4794  -15.7878   22.1458 H   0  0  0  0  0  0
  -35.4911  -17.3400   21.3254 H   0  0  0  0  0  0
  -34.5692  -15.9916   20.6503 H   0  0  0  0  0  0
  -30.8390  -17.4721   22.5923 H   0  0  0  0  0  0
  -31.7536  -18.6376   23.4336 H   0  0  0  0  0  0
  -30.7536  -17.5945   19.2975 H   0  0  0  0  0  0
  -29.0475  -17.6148   19.2213 H   0  0  0  0  0  0
  -28.4951  -23.0290   18.9335 H   0  0  0  0  0  0
  -29.9485  -23.6134   19.6114 H   0  0  0  0  0  0
  -33.9355  -17.3075   23.3611 H   0  0  0  0  0  0
  -33.0337  -16.0201   22.5996 H   0  0  0  0  0  0
  -33.3637  -18.8558   21.4976 H   0  0  0  0  0  0
  -32.5243  -17.5800   20.6675 H   0  0  0  0  0  0
  -28.4654  -24.6042   21.6015 H   0  0  0  0  0  0
  -27.1071  -24.3749   20.5821 H   0  0  0  0  0  0
  -28.8719  -15.9690   20.9514 H   0  0  0  0  0  0
  1 25  1  0  0  0
  1 30  2  0  0  0
  1 84  1  0  0  0
  2  3  1  0  0  0
  2 25  1  0  0  0
  2 86  1  0  0  0
  2 87  1  0  0  0
  3  4  1  0  0  0
  3 88  1  0  0  0
  3 89  1  0  0  0
  4  5  1  0  0  0
  4 90  1  0  0  0
  4 91  1  0  0  0
  5  6  1  0  0  0
  5 26  1  0  0  0
  5 92  1  0  0  0
  6 25  1  0  0  0
  6 93  1  0  0  0
  6 94  1  0  0  0
  7  8  2  0  0  0
  7 26  1  0  0  0
  7 29  1  0  0  0
  8  9  1  0  0  0
  8 22  1  0  0  0
  9 10  1  0  0  0
  9 27  2  0  0  0
 10 11  2  0  0  0
 10 15  1  0  0  0
 11 12  1  0  0  0
 11 95  1  0  0  0
 12 13  2  0  0  0
 12 96  1  0  0  0
 13 14  1  0  0  0
 13 31  1  0  0  0
 14 15  2  0  0  0
 14 97  1  0  0  0
 15 98  1  0  0  0
 16 17  2  0  0  0
 16 21  1  0  0  0
 16 31  1  0  0  0
 17 18  1  0  0  0
 17 99  1  0  0  0
 18 19  2  0  0  0
 18100  1  0  0  0
 19 20  1  0  0  0
 19 24  1  0  0  0
 20 21  2  0  0  0
 20101  1  0  0  0
 21 23  1  0  0  0
 22 28  1  0  0  0
 22 32  2  0  0  0
 26 27  1  0  0  0
 28102  1  0  0  0
 28103  1  0  0  0
 29104  1  0  0  0
 29105  1  0  0  0
 33 34  1  0  0  0
 33 66  1  0  0  0
 33 70  2  0  0  0
 34 36  1  0  0  0
 34 59  1  0  0  0
 34106  1  0  0  0
 35 44  2  0  0  0
 35 45  1  0  0  0
 35 68  1  0  0  0
 36 56  1  0  0  0
 36107  1  0  0  0
 37 39  1  0  0  0
 37 47  1  0  0  0
 37 66  1  0  0  0
 37108  1  0  0  0
 38 43  2  0  0  0
 38 46  1  0  0  0
 38 47  1  0  0  0
 39 64  1  0  0  0
 39 67  2  0  0  0
 40 52  1  0  0  0
 40 53  2  0  0  0
 40 58  1  0  0  0
 41109  1  0  0  0
 41110  1  0  0  0
 41111  1  0  0  0
 41 48  1  0  0  0
 42 43  1  0  0  0
 42 66  1  0  0  0
 42112  1  0  0  0
 42113  1  0  0  0
 43 44  1  0  0  0
 44114  1  0  0  0
 45 46  2  0  0  0
 45115  1  0  0  0
 46116  1  0  0  0
 47117  1  0  0  0
 47118  1  0  0  0
 48 56  1  0  0  0
 48 65  1  0  0  0
 48119  1  0  0  0
 49 50  1  0  0  0
 49 53  1  0  0  0
 49 64  1  0  0  0
 49120  1  0  0  0
 50 51  1  0  0  0
 50121  1  0  0  0
 50122  1  0  0  0
 51 52  1  0  0  0
 51123  1  0  0  0
 51124  1  0  0  0
 52125  1  0  0  0
 52126  1  0  0  0
 53 54  1  0  0  0
 54 55  2  0  0  0
 54127  1  0  0  0
 55 57  1  0  0  0
 55128  1  0  0  0
 56 69  2  0  0  0
 57 58  2  0  0  0
 57129  1  0  0  0
 58130  1  0  0  0
 59 60  1  0  0  0
 59 61  1  0  0  0
 59 62  1  0  0  0
 60131  1  0  0  0
 60132  1  0  0  0
 60133  1  0  0  0
 61134  1  0  0  0
 61135  1  0  0  0
 61136  1  0  0  0
 62137  1  0  0  0
 62138  1  0  0  0
 62139  1  0  0  0
 63 65  1  0  0  0
 63140  1  0  0  0
 63141  1  0  0  0
 63142  1  0  0  0
 64143  1  0  0  0
 65144  1  0  0  0
 68 82  1  0  0  0
 71 72  2  0  0  0
 71 74  1  0  0  0
 71145  1  0  0  0
 72 73  1  0  0  0
 72 78  1  0  0  0
 73 75  2  0  0  0
 73 77  1  0  0  0
 74 79  1  0  0  0
 74 83  2  0  0  0
 75 83  1  0  0  0
 75 85  1  0  0  0
 76 80  1  0  0  0
 76146  1  0  0  0
 76147  1  0  0  0
 76148  1  0  0  0
 77 81  1  0  0  0
 77149  1  0  0  0
 77150  1  0  0  0
 78 84  1  0  0  0
 78151  1  0  0  0
 78152  1  0  0  0
 79 82  1  0  0  0
 79153  1  0  0  0
 79154  1  0  0  0
 80 81  1  0  0  0
 80155  1  0  0  0
 80156  1  0  0  0
 81157  1  0  0  0
 81158  1  0  0  0
 82159  1  0  0  0
 82160  1  0  0  0
 84161  1  0  0  0
M  ISO  4   1 100  68 101  82 101  84 100
M  END
> <chiral flag>
0

> <version>
0

> <s_m_source_file>
/data/baiqing/PycharmProjects/Reinvent-master-3.2/result/LINK_invent/BTK/process_docking_weight1_custom_sum_contain_oxygen_bond_distance_aromatic_linkinvent_7_9_3/rearranged_h_0032.sdf

> <i_m_source_file_index>
5

> <r_mmod_Potential_Energy-OPLS-2005>
372.259063720703

> <r_mmod_Stretch_Energy-OPLS-2005>
299.106719970703

> <r_mmod_Bend_Energy-OPLS-2005>
297.460601806641

> <r_mmod_Torsional_Energy-OPLS-2005>
228.767135620117

> <r_mmod_Improper_Torsional_Energy-OPLS-2005>
8.79787921905518

> <r_mmod_Van_der_Waal_Energy-OPLS-2005>
126.127960205078

> <r_mmod_Electrostatic_Energy-OPLS-2005>
-575.279724121094

> <r_mmod_Solvation_Energy-OPLS-2005>
-219.308074951172

> <b_mmod_Minimization_Converged-OPLS-2005>
0

> <r_mmod_RMS_Derivative-OPLS-2005>
4.89702033996582

$$$$
5
                    3D
 Structure written by MMmdl.
162170  0  0  1  0            999 V2000
  -30.6697  -14.4778   20.5882 C   0  0  0  0  0  0
  -30.4307  -12.3181   19.4084 C   0  0  0  0  0  0
  -29.4900  -12.5078   18.1988 C   0  0  0  0  0  0
  -28.0116  -12.3633   18.6148 C   0  0  0  0  0  0
  -27.6606  -13.1974   19.8750 C   0  0  2  0  0  0
  -28.7032  -12.9552   20.9890 C   0  0  0  0  0  0
  -25.2593  -13.8142   20.5671 C   0  0  0  0  0  0
  -24.1824  -13.0433   20.9162 C   0  0  0  0  0  0
  -24.6364  -11.6895   20.8724 C   0  0  0  0  0  0
  -23.9026  -10.4291   21.0399 C   0  0  0  0  0  0
  -24.3589   -9.4211   21.9175 C   0  0  0  0  0  0
  -23.6277   -8.2243   22.0747 C   0  0  0  0  0  0
  -22.4263   -8.0274   21.3537 C   0  0  0  0  0  0
  -21.9888   -9.0239   20.4636 C   0  0  0  0  0  0
  -22.7201  -10.2129   20.3045 C   0  0  0  0  0  0
  -21.6848   -6.0725   22.5270 C   0  0  0  0  0  0
  -21.4012   -6.5633   23.8204 C   0  0  0  0  0  0
  -21.3660   -5.6790   24.9167 C   0  0  0  0  0  0
  -21.6049   -4.3051   24.7221 C   0  0  0  0  0  0
  -21.8820   -3.8138   23.4341 C   0  0  0  0  0  0
  -21.9193   -4.6951   22.3397 C   0  0  0  0  0  0
  -22.7856  -13.5241   21.1839 C   0  0  0  0  0  0
  -22.1663   -4.2136   21.0975 F   0  0  0  0  0  0
  -21.5631   -3.4538   25.7737 F   0  0  0  0  0  0
  -30.0310  -13.2852   20.4408 N   0  0  0  0  0  0
  -26.3010  -12.9284   20.3363 N   0  0  0  0  0  0
  -25.9283  -11.6453   20.5754 N   0  0  0  0  0  0
  -22.0504  -12.8233   22.0402 N   0  0  0  0  0  0
  -25.4372  -15.1854   20.4088 N   0  0  0  0  0  0
  -31.7954  -14.7035   20.1356 O   0  0  0  0  0  0
  -21.6636   -6.8864   21.4231 O   0  0  0  0  0  0
  -22.3541  -14.5548   20.6691 O   0  0  0  0  0  0
  -24.6159  -31.8673   23.2090 C   0  0  0  0  0  0
  -25.9052  -32.4813   23.8375 C   0  0  1  0  0  0
  -27.2334  -27.4173   20.0793 C   0  0  0  0  0  0
  -25.5910  -33.8610   24.2313 N   0  0  0  0  0  0
  -23.4038  -30.4917   21.5509 C   0  0  2  0  0  0
  -24.8483  -28.9576   20.1138 C   0  0  0  0  0  0
  -22.7416  -29.4650   22.4983 C   0  0  0  0  0  0
  -18.0279  -28.1369   22.8495 C   0  0  0  0  0  0
  -24.1498  -36.7307   23.2639 C   0  0  0  0  0  0
  -25.9363  -30.8248   21.3671 C   0  0  0  0  0  0
  -26.0107  -29.4592   20.7103 C   0  0  0  0  0  0
  -27.2027  -28.6947   20.6937 C   0  0  0  0  0  0
  -26.0373  -26.9240   19.5060 C   0  0  0  0  0  0
  -24.8567  -27.6887   19.5137 C   0  0  0  0  0  0
  -23.6130  -29.8288   20.1642 C   0  0  0  0  0  0
  -25.4120  -36.3097   24.0330 C   0  0  1  0  0  0
  -20.5871  -28.3652   23.1324 C   0  0  2  0  0  0
  -20.6778  -26.9386   22.5421 C   0  0  0  0  0  0
  -19.5749  -26.6382   21.5219 C   0  0  0  0  0  0
  -18.1928  -26.7918   22.1626 C   0  0  0  0  0  0
  -19.1528  -28.8827   23.2909 C   0  0  0  0  0  0
  -18.9452  -30.1441   23.8905 C   0  0  0  0  0  0
  -17.6453  -30.6578   24.0558 C   0  0  0  0  0  0
  -25.9044  -34.9466   23.5118 C   0  0  0  0  0  0
  -16.5345  -29.9073   23.6327 C   0  0  0  0  0  0
  -16.7269  -28.6495   23.0340 C   0  0  0  0  0  0
  -26.4488  -31.6588   25.0701 C   0  0  0  0  0  0
  -25.3759  -31.3659   26.1447 C   0  0  0  0  0  0
  -27.0338  -30.3037   24.6070 C   0  0  0  0  0  0
  -27.6058  -32.4314   25.7468 C   0  0  0  0  0  0
  -27.5587  -37.1804   24.8465 C   0  0  0  0  0  0
  -21.4142  -29.3019   22.3722 N   0  0  0  0  0  0
  -26.4305  -37.3781   23.9404 N   0  0  0  0  0  0
  -24.6702  -31.0759   22.1003 N   0  0  0  0  0  0
  -23.4188  -28.8195   23.3029 O   0  0  0  0  0  0
  -28.4165  -26.6954   20.0949 O   0  0  0  0  0  0
  -26.5601  -34.8918   22.4675 O   0  0  0  0  0  0
  -23.5349  -32.1439   23.7469 O   0  0  0  0  0  0
  -30.4004  -22.5081   20.6671 C   0  0  0  0  0  0
  -27.8739  -23.2672   19.7488 C   0  0  0  0  0  0
  -30.1743  -23.8485   20.2709 C   0  0  0  0  0  0
  -29.3855  -21.5278   20.6035 C   0  0  0  0  0  0
  -28.9032  -24.2366   19.7661 C   0  0  0  0  0  0
  -28.0975  -21.9361   20.1732 C   0  0  0  0  0  0
  -31.2431  -25.6444   21.7057 C   0  0  0  0  0  0
  -31.3285  -24.8319   20.4080 C   0  0  0  0  0  0
  -29.7144  -20.0837   21.0356 C   0  0  0  0  0  0
  -28.6398  -25.6266   19.1537 C   0  0  0  0  0  0
  -29.5683  -19.0087   19.9245 C   0  0  0  0  0  0
  -30.4082  -17.7066   20.0698 C   0  0  0  0  0  0
  -30.2014  -16.8718   21.3613 C   0  0  0  0  0  0
  -29.9114  -15.4450   21.1404 N   0  0  0  0  0  0
  -26.7668  -20.8341   20.1539 Cl  0  0  0  0  0  0
  -31.4701  -12.4458   19.1016 H   0  0  0  0  0  0
  -30.3565  -11.3018   19.7986 H   0  0  0  0  0  0
  -29.7281  -11.7841   17.4186 H   0  0  0  0  0  0
  -29.6501  -13.4937   17.7595 H   0  0  0  0  0  0
  -27.8214  -11.3063   18.8063 H   0  0  0  0  0  0
  -27.3578  -12.6418   17.7870 H   0  0  0  0  0  0
  -27.7107  -14.2470   19.5852 H   0  0  0  0  0  0
  -28.6875  -11.9082   21.2959 H   0  0  0  0  0  0
  -28.4592  -13.5204   21.8898 H   0  0  0  0  0  0
  -25.2734   -9.5697   22.4746 H   0  0  0  0  0  0
  -23.9989   -7.4638   22.7471 H   0  0  0  0  0  0
  -21.0819   -8.8741   19.8943 H   0  0  0  0  0  0
  -22.3644  -10.9659   19.6155 H   0  0  0  0  0  0
  -21.2003   -7.6142   23.9697 H   0  0  0  0  0  0
  -21.1484   -6.0524   25.9071 H   0  0  0  0  0  0
  -22.0601   -2.7597   23.2845 H   0  0  0  0  0  0
  -22.4130  -11.9898   22.4782 H   0  0  0  0  0  0
  -21.1120  -13.1254   22.2621 H   0  0  0  0  0  0
  -24.6783  -15.8493   20.5177 H   0  0  0  0  0  0
  -26.2985  -15.6177   20.0978 H   0  0  0  0  0  0
  -26.7114  -32.5518   23.1127 H   0  0  0  0  0  0
  -25.0049  -33.9768   25.0447 H   0  0  0  0  0  0
  -22.6922  -31.3086   21.4128 H   0  0  0  0  0  0
  -23.3753  -35.9648   23.3311 H   0  0  0  0  0  0
  -24.3577  -36.8921   22.2051 H   0  0  0  0  0  0
  -23.7271  -37.6517   23.6659 H   0  0  0  0  0  0
  -26.0578  -31.5949   20.6036 H   0  0  0  0  0  0
  -26.8206  -30.8697   21.9910 H   0  0  0  0  0  0
  -28.1031  -29.0813   21.1515 H   0  0  0  0  0  0
  -25.9748  -25.9405   19.0674 H   0  0  0  0  0  0
  -23.9576  -27.2876   19.0664 H   0  0  0  0  0  0
  -23.7269  -30.6068   19.4084 H   0  0  0  0  0  0
  -22.7351  -29.2546   19.8640 H   0  0  0  0  0  0
  -25.1306  -36.1949   25.0825 H   0  0  0  0  0  0
  -20.9967  -28.3227   24.1443 H   0  0  0  0  0  0
  -20.5716  -26.2245   23.3601 H   0  0  0  0  0  0
  -21.6643  -26.7457   22.1186 H   0  0  0  0  0  0
  -19.6905  -25.6303   21.1228 H   0  0  0  0  0  0
  -19.6692  -27.3210   20.6767 H   0  0  0  0  0  0
  -17.4205  -26.6675   21.4021 H   0  0  0  0  0  0
  -18.0306  -26.0056   22.9015 H   0  0  0  0  0  0
  -19.7933  -30.7256   24.2271 H   0  0  0  0  0  0
  -17.5011  -31.6260   24.5159 H   0  0  0  0  0  0
  -15.5343  -30.2968   23.7665 H   0  0  0  0  0  0
  -15.8672  -28.0832   22.7024 H   0  0  0  0  0  0
  -24.5940  -30.7010   25.7763 H   0  0  0  0  0  0
  -24.8943  -32.2798   26.4933 H   0  0  0  0  0  0
  -25.8128  -30.8793   27.0177 H   0  0  0  0  0  0
  -26.2870  -29.6745   24.1211 H   0  0  0  0  0  0
  -27.4220  -29.7318   25.4508 H   0  0  0  0  0  0
  -27.8658  -30.4366   23.9148 H   0  0  0  0  0  0
  -27.2677  -33.3608   26.2058 H   0  0  0  0  0  0
  -28.3856  -32.6881   25.0287 H   0  0  0  0  0  0
  -28.0734  -31.8429   26.5366 H   0  0  0  0  0  0
  -28.2603  -38.0104   24.7521 H   0  0  0  0  0  0
  -28.1091  -36.2634   24.6300 H   0  0  0  0  0  0
  -27.2290  -37.1461   25.8863 H   0  0  0  0  0  0
  -20.9292  -29.8733   21.6942 H   0  0  0  0  0  0
  -26.0191  -38.2859   24.1396 H   0  0  0  0  0  0
  -31.3799  -22.2275   21.0297 H   0  0  0  0  0  0
  -26.8934  -23.5402   19.3865 H   0  0  0  0  0  0
  -32.0901  -26.3249   21.7912 H   0  0  0  0  0  0
  -31.2493  -24.9931   22.5805 H   0  0  0  0  0  0
  -30.3339  -26.2428   21.7480 H   0  0  0  0  0  0
  -31.3848  -25.4949   19.5465 H   0  0  0  0  0  0
  -32.2696  -24.2805   20.3998 H   0  0  0  0  0  0
  -29.0911  -19.8215   21.8916 H   0  0  0  0  0  0
  -30.7402  -20.0639   21.4046 H   0  0  0  0  0  0
  -27.8778  -25.5411   18.3830 H   0  0  0  0  0  0
  -29.5127  -25.9123   18.5699 H   0  0  0  0  0  0
  -29.8642  -19.4632   18.9782 H   0  0  0  0  0  0
  -28.5188  -18.7450   19.8015 H   0  0  0  0  0  0
  -31.4663  -17.9599   19.9880 H   0  0  0  0  0  0
  -30.1999  -17.0858   19.1968 H   0  0  0  0  0  0
  -29.3674  -17.2824   21.9309 H   0  0  0  0  0  0
  -31.0761  -16.9607   22.0079 H   0  0  0  0  0  0
  -28.9995  -15.1363   21.4455 H   0  0  0  0  0  0
  1 25  1  0  0  0
  1 30  2  0  0  0
  1 84  1  0  0  0
  2  3  1  0  0  0
  2 25  1  0  0  0
  2 86  1  0  0  0
  2 87  1  0  0  0
  3  4  1  0  0  0
  3 88  1  0  0  0
  3 89  1  0  0  0
  4  5  1  0  0  0
  4 90  1  0  0  0
  4 91  1  0  0  0
  5  6  1  0  0  0
  5 26  1  0  0  0
  5 92  1  0  0  0
  6 25  1  0  0  0
  6 93  1  0  0  0
  6 94  1  0  0  0
  7  8  2  0  0  0
  7 26  1  0  0  0
  7 29  1  0  0  0
  8  9  1  0  0  0
  8 22  1  0  0  0
  9 10  1  0  0  0
  9 27  2  0  0  0
 10 11  2  0  0  0
 10 15  1  0  0  0
 11 12  1  0  0  0
 11 95  1  0  0  0
 12 13  2  0  0  0
 12 96  1  0  0  0
 13 14  1  0  0  0
 13 31  1  0  0  0
 14 15  2  0  0  0
 14 97  1  0  0  0
 15 98  1  0  0  0
 16 17  2  0  0  0
 16 21  1  0  0  0
 16 31  1  0  0  0
 17 18  1  0  0  0
 17 99  1  0  0  0
 18 19  2  0  0  0
 18100  1  0  0  0
 19 20  1  0  0  0
 19 24  1  0  0  0
 20 21  2  0  0  0
 20101  1  0  0  0
 21 23  1  0  0  0
 22 28  1  0  0  0
 22 32  2  0  0  0
 26 27  1  0  0  0
 28102  1  0  0  0
 28103  1  0  0  0
 29104  1  0  0  0
 29105  1  0  0  0
 33 34  1  0  0  0
 33 66  1  0  0  0
 33 70  2  0  0  0
 34 36  1  0  0  0
 34 59  1  0  0  0
 34106  1  0  0  0
 35 44  2  0  0  0
 35 45  1  0  0  0
 35 68  1  0  0  0
 36 56  1  0  0  0
 36107  1  0  0  0
 37 39  1  0  0  0
 37 47  1  0  0  0
 37 66  1  0  0  0
 37108  1  0  0  0
 38 43  2  0  0  0
 38 46  1  0  0  0
 38 47  1  0  0  0
 39 64  1  0  0  0
 39 67  2  0  0  0
 40 52  1  0  0  0
 40 53  2  0  0  0
 40 58  1  0  0  0
 41109  1  0  0  0
 41110  1  0  0  0
 41111  1  0  0  0
 41 48  1  0  0  0
 42 43  1  0  0  0
 42 66  1  0  0  0
 42112  1  0  0  0
 42113  1  0  0  0
 43 44  1  0  0  0
 44114  1  0  0  0
 45 46  2  0  0  0
 45115  1  0  0  0
 46116  1  0  0  0
 47117  1  0  0  0
 47118  1  0  0  0
 48 56  1  0  0  0
 48 65  1  0  0  0
 48119  1  0  0  0
 49 50  1  0  0  0
 49 53  1  0  0  0
 49 64  1  0  0  0
 49120  1  0  0  0
 50 51  1  0  0  0
 50121  1  0  0  0
 50122  1  0  0  0
 51 52  1  0  0  0
 51123  1  0  0  0
 51124  1  0  0  0
 52125  1  0  0  0
 52126  1  0  0  0
 53 54  1  0  0  0
 54 55  2  0  0  0
 54127  1  0  0  0
 55 57  1  0  0  0
 55128  1  0  0  0
 56 69  2  0  0  0
 57 58  2  0  0  0
 57129  1  0  0  0
 58130  1  0  0  0
 59 60  1  0  0  0
 59 61  1  0  0  0
 59 62  1  0  0  0
 60131  1  0  0  0
 60132  1  0  0  0
 60133  1  0  0  0
 61134  1  0  0  0
 61135  1  0  0  0
 61136  1  0  0  0
 62137  1  0  0  0
 62138  1  0  0  0
 62139  1  0  0  0
 63 65  1  0  0  0
 63140  1  0  0  0
 63141  1  0  0  0
 63142  1  0  0  0
 64143  1  0  0  0
 65144  1  0  0  0
 68 80  1  0  0  0
 71 73  2  0  0  0
 71 74  1  0  0  0
 71145  1  0  0  0
 72 75  2  0  0  0
 72 76  1  0  0  0
 72146  1  0  0  0
 73 75  1  0  0  0
 73 78  1  0  0  0
 74 76  2  0  0  0
 74 79  1  0  0  0
 75 80  1  0  0  0
 76 85  1  0  0  0
 77 78  1  0  0  0
 77147  1  0  0  0
 77148  1  0  0  0
 77149  1  0  0  0
 78150  1  0  0  0
 78151  1  0  0  0
 79 81  1  0  0  0
 79152  1  0  0  0
 79153  1  0  0  0
 80154  1  0  0  0
 80155  1  0  0  0
 81 82  1  0  0  0
 81156  1  0  0  0
 81157  1  0  0  0
 82 83  1  0  0  0
 82158  1  0  0  0
 82159  1  0  0  0
 83 84  1  0  0  0
 83160  1  0  0  0
 83161  1  0  0  0
 84162  1  0  0  0
M  ISO  4   1 100  68 101  80 101  84 100
M  END
> <chiral flag>
0

> <version>
0

> <s_m_source_file>
/data/baiqing/PycharmProjects/Reinvent-master-3.2/result/LINK_invent/BTK/process_docking_weight1_custom_sum_contain_oxygen_bond_distance_aromatic_linkinvent_7_9_3/rearranged_h_0032.sdf

> <i_m_source_file_index>
6

> <r_mmod_Potential_Energy-OPLS-2005>
-21.6261138916016

> <r_mmod_Stretch_Energy-OPLS-2005>
41.2356414794922

> <r_mmod_Bend_Energy-OPLS-2005>
111.673683166504

> <r_mmod_Torsional_Energy-OPLS-2005>
225.925674438477

> <r_mmod_Improper_Torsional_Energy-OPLS-2005>
3.43994784355164

> <r_mmod_Van_der_Waal_Energy-OPLS-2005>
149.156280517578

> <r_mmod_Electrostatic_Energy-OPLS-2005>
-367.498687744141

> <r_mmod_Solvation_Energy-OPLS-2005>
-199.745834350586

> <b_mmod_Minimization_Converged-OPLS-2005>
0

> <r_mmod_RMS_Derivative-OPLS-2005>
1.22475290298462

$$$$
6
                    3D
 Structure written by MMmdl.
156164  0  0  1  0            999 V2000
  -30.6406  -14.6768   20.4445 C   0  0  0  0  0  0
  -30.4298  -12.4105   19.4536 C   0  0  0  0  0  0
  -29.5022  -12.4958   18.2216 C   0  0  0  0  0  0
  -28.0253  -12.3424   18.6371 C   0  0  0  0  0  0
  -27.6455  -13.2337   19.8501 C   0  0  2  0  0  0
  -28.6943  -13.1364   20.9817 C   0  0  0  0  0  0
  -25.2552  -13.8272   20.5750 C   0  0  0  0  0  0
  -24.1815  -13.0485   20.9214 C   0  0  0  0  0  0
  -24.6401  -11.6980   20.8720 C   0  0  0  0  0  0
  -23.9083  -10.4329   21.0356 C   0  0  0  0  0  0
  -24.3638   -9.4254   21.9136 C   0  0  0  0  0  0
  -23.6327   -8.2280   22.0720 C   0  0  0  0  0  0
  -22.4300   -8.0302   21.3538 C   0  0  0  0  0  0
  -21.9932   -9.0268   20.4624 C   0  0  0  0  0  0
  -22.7258  -10.2158   20.3015 C   0  0  0  0  0  0
  -21.6866   -6.0741   22.5288 C   0  0  0  0  0  0
  -21.4013   -6.5633   23.8225 C   0  0  0  0  0  0
  -21.3667   -5.6788   24.9183 C   0  0  0  0  0  0
  -21.6056   -4.3051   24.7231 C   0  0  0  0  0  0
  -21.8829   -3.8146   23.4351 C   0  0  0  0  0  0
  -21.9210   -4.6964   22.3414 C   0  0  0  0  0  0
  -22.7857  -13.5262   21.1905 C   0  0  0  0  0  0
  -22.1700   -4.2165   21.0989 F   0  0  0  0  0  0
  -21.5613   -3.4524   25.7733 F   0  0  0  0  0  0
  -30.0020  -13.4635   20.3984 N   0  0  0  0  0  0
  -26.2961  -12.9467   20.3306 N   0  0  0  0  0  0
  -25.9323  -11.6605   20.5730 N   0  0  0  0  0  0
  -22.0525  -12.8177   22.0428 N   0  0  0  0  0  0
  -25.4243  -15.2001   20.4316 N   0  0  0  0  0  0
  -31.8273  -14.7782   20.1268 O   0  0  0  0  0  0
  -21.6679   -6.8891   21.4244 O   0  0  0  0  0  0
  -22.3512  -14.5569   20.6798 O   0  0  0  0  0  0
  -24.6301  -31.8502   23.1935 C   0  0  0  0  0  0
  -25.9149  -32.4699   23.8270 C   0  0  1  0  0  0
  -27.2442  -27.2917   20.1071 C   0  0  0  0  0  0
  -25.5954  -33.8506   24.2181 N   0  0  0  0  0  0
  -23.4218  -30.4752   21.5305 C   0  0  2  0  0  0
  -24.8688  -28.9066   20.1079 C   0  0  0  0  0  0
  -22.7365  -29.4668   22.4817 C   0  0  0  0  0  0
  -18.0285  -28.1377   22.8438 C   0  0  0  0  0  0
  -24.1511  -36.7290   23.2645 C   0  0  0  0  0  0
  -25.9631  -30.7649   21.3677 C   0  0  0  0  0  0
  -26.0344  -29.3898   20.7138 C   0  0  0  0  0  0
  -27.2165  -28.5922   20.7044 C   0  0  0  0  0  0
  -26.0526  -26.8506   19.4891 C   0  0  0  0  0  0
  -24.8807  -27.6409   19.4919 C   0  0  0  0  0  0
  -23.6371  -29.7929   20.1523 C   0  0  0  0  0  0
  -25.4126  -36.3020   24.0314 C   0  0  1  0  0  0
  -20.5855  -28.3763   23.1183 C   0  0  2  0  0  0
  -20.6733  -26.9452   22.5412 C   0  0  0  0  0  0
  -19.5764  -26.6373   21.5178 C   0  0  0  0  0  0
  -18.1953  -26.7934   22.1543 C   0  0  0  0  0  0
  -19.1525  -28.8886   23.2816 C   0  0  0  0  0  0
  -18.9435  -30.1447   23.8898 C   0  0  0  0  0  0
  -17.6434  -30.6543   24.0560 C   0  0  0  0  0  0
  -25.9066  -34.9403   23.5036 C   0  0  0  0  0  0
  -16.5349  -29.9055   23.6252 C   0  0  0  0  0  0
  -16.7278  -28.6466   23.0292 C   0  0  0  0  0  0
  -26.4512  -31.6547   25.0671 C   0  0  0  0  0  0
  -25.3732  -31.3738   26.1393 C   0  0  0  0  0  0
  -27.0355  -30.2969   24.6136 C   0  0  0  0  0  0
  -27.6040  -32.4302   25.7473 C   0  0  0  0  0  0
  -27.5563  -37.1809   24.8466 C   0  0  0  0  0  0
  -21.4087  -29.3052   22.3461 N   0  0  0  0  0  0
  -26.4279  -37.3725   23.9406 N   0  0  0  0  0  0
  -24.6908  -31.0475   22.0896 N   0  0  0  0  0  0
  -23.4015  -28.8265   23.3006 O   0  0  0  0  0  0
  -28.4038  -26.4968   20.1791 O   0  0  0  0  0  0
  -26.5630  -34.8920   22.4604 O   0  0  0  0  0  0
  -23.5472  -32.1336   23.7266 O   0  0  0  0  0  0
  -29.5118  -19.8186   20.2351 C   0  0  0  0  0  0
  -28.0178  -18.1603   21.1865 C   0  0  0  0  0  0
  -29.2621  -18.4332   20.5965 C   0  0  0  0  0  0
  -28.5677  -20.9046   20.4423 C   0  0  0  0  0  0
  -27.3396  -20.5327   21.0639 C   0  0  0  0  0  0
  -27.0803  -19.1774   21.4197 C   0  0  0  0  0  0
  -26.2650  -21.5713   21.3126 C   0  0  0  0  0  0
  -28.8197  -22.3726   19.8436 C   0  0  0  0  0  0
  -30.2937  -17.2513   20.4044 C   0  0  0  0  0  0
  -28.3425  -23.7991   20.4856 C   0  0  0  0  0  0
  -28.5524  -25.1324   19.6047 C   0  0  0  0  0  0
  -29.8726  -15.8060   20.6219 N   0  0  0  0  0  0
  -25.5831  -18.6828   22.1352 Cl  0  0  0  0  0  0
  -31.4696  -12.5257   19.1422 H   0  0  0  0  0  0
  -30.3662  -11.4285   19.9255 H   0  0  0  0  0  0
  -29.7642  -11.7201   17.5019 H   0  0  0  0  0  0
  -29.6447  -13.4496   17.7108 H   0  0  0  0  0  0
  -27.8629  -11.2911   18.8820 H   0  0  0  0  0  0
  -27.3704  -12.5579   17.7929 H   0  0  0  0  0  0
  -27.6455  -14.2616   19.4881 H   0  0  0  0  0  0
  -28.7102  -12.1338   21.4131 H   0  0  0  0  0  0
  -28.4453  -13.8174   21.7970 H   0  0  0  0  0  0
  -25.2769   -9.5759   22.4721 H   0  0  0  0  0  0
  -24.0046   -7.4688   22.7437 H   0  0  0  0  0  0
  -21.0865   -8.8796   19.8933 H   0  0  0  0  0  0
  -22.3706  -10.9693   19.6132 H   0  0  0  0  0  0
  -21.1999   -7.6141   23.9729 H   0  0  0  0  0  0
  -21.1474   -6.0511   25.9095 H   0  0  0  0  0  0
  -22.0593   -2.7602   23.2861 H   0  0  0  0  0  0
  -22.4163  -11.9834   22.4776 H   0  0  0  0  0  0
  -21.1124  -13.1135   22.2603 H   0  0  0  0  0  0
  -24.6758  -15.8537   20.6303 H   0  0  0  0  0  0
  -26.2713  -15.6600   20.1223 H   0  0  0  0  0  0
  -26.7175  -32.5303   23.0962 H   0  0  0  0  0  0
  -25.0112  -33.9629   25.0331 H   0  0  0  0  0  0
  -22.7279  -31.3043   21.3782 H   0  0  0  0  0  0
  -23.3719  -35.9670   23.3289 H   0  0  0  0  0  0
  -24.3614  -36.8919   22.2060 H   0  0  0  0  0  0
  -23.7330  -37.6526   23.6678 H   0  0  0  0  0  0
  -26.0970  -31.5142   20.5888 H   0  0  0  0  0  0
  -26.8477  -30.8158   21.9886 H   0  0  0  0  0  0
  -28.1124  -28.9571   21.1873 H   0  0  0  0  0  0
  -26.0000  -25.8773   19.0218 H   0  0  0  0  0  0
  -23.9875  -27.2556   19.0196 H   0  0  0  0  0  0
  -23.7596  -30.5650   19.3920 H   0  0  0  0  0  0
  -22.7533  -29.2248   19.8551 H   0  0  0  0  0  0
  -25.1310  -36.1816   25.0796 H   0  0  0  0  0  0
  -20.9955  -28.3428   24.1296 H   0  0  0  0  0  0
  -20.5584  -26.2435   23.3692 H   0  0  0  0  0  0
  -21.6596  -26.7435   22.1255 H   0  0  0  0  0  0
  -19.6881  -25.6242   21.1246 H   0  0  0  0  0  0
  -19.6713  -27.3123   20.6673 H   0  0  0  0  0  0
  -17.4230  -26.6686   21.3943 H   0  0  0  0  0  0
  -18.0340  -26.0036   22.8908 H   0  0  0  0  0  0
  -19.7883  -30.7260   24.2274 H   0  0  0  0  0  0
  -17.4965  -31.6200   24.5180 H   0  0  0  0  0  0
  -15.5325  -30.2912   23.7508 H   0  0  0  0  0  0
  -15.8697  -28.0794   22.6966 H   0  0  0  0  0  0
  -24.5887  -30.7081   25.7759 H   0  0  0  0  0  0
  -24.8939  -32.2935   26.4779 H   0  0  0  0  0  0
  -25.8053  -30.8958   27.0191 H   0  0  0  0  0  0
  -26.2930  -29.6702   24.1158 H   0  0  0  0  0  0
  -27.4072  -29.7231   25.4637 H   0  0  0  0  0  0
  -27.8791  -30.4267   23.9343 H   0  0  0  0  0  0
  -27.2608  -33.3587   26.2063 H   0  0  0  0  0  0
  -28.3886  -32.6884   25.0341 H   0  0  0  0  0  0
  -28.0669  -31.8413   26.5403 H   0  0  0  0  0  0
  -28.2579  -38.0103   24.7456 H   0  0  0  0  0  0
  -28.1065  -36.2631   24.6327 H   0  0  0  0  0  0
  -27.2313  -37.1490   25.8883 H   0  0  0  0  0  0
  -20.9268  -29.8407   21.6362 H   0  0  0  0  0  0
  -26.0127  -38.2798   24.1337 H   0  0  0  0  0  0
  -30.4600  -20.0416   19.7615 H   0  0  0  0  0  0
  -27.7530  -17.1568   21.4782 H   0  0  0  0  0  0
  -25.3084  -21.1668   21.6298 H   0  0  0  0  0  0
  -26.0693  -22.1130   20.3876 H   0  0  0  0  0  0
  -26.5972  -22.2554   22.0936 H   0  0  0  0  0  0
  -28.3923  -22.3305   18.8413 H   0  0  0  0  0  0
  -29.8958  -22.4382   19.6649 H   0  0  0  0  0  0
  -30.7256  -17.3379   19.4056 H   0  0  0  0  0  0
  -31.1237  -17.4453   21.0846 H   0  0  0  0  0  0
  -28.8418  -23.9298   21.4446 H   0  0  0  0  0  0
  -27.2824  -23.8209   20.7253 H   0  0  0  0  0  0
  -27.9926  -25.0581   18.6749 H   0  0  0  0  0  0
  -29.5938  -25.1009   19.2766 H   0  0  0  0  0  0
  -28.9005  -15.6408   20.8304 H   0  0  0  0  0  0
  1 25  1  0  0  0
  1 30  2  0  0  0
  1 82  1  0  0  0
  2  3  1  0  0  0
  2 25  1  0  0  0
  2 84  1  0  0  0
  2 85  1  0  0  0
  3  4  1  0  0  0
  3 86  1  0  0  0
  3 87  1  0  0  0
  4  5  1  0  0  0
  4 88  1  0  0  0
  4 89  1  0  0  0
  5  6  1  0  0  0
  5 26  1  0  0  0
  5 90  1  0  0  0
  6 25  1  0  0  0
  6 91  1  0  0  0
  6 92  1  0  0  0
  7  8  2  0  0  0
  7 26  1  0  0  0
  7 29  1  0  0  0
  8  9  1  0  0  0
  8 22  1  0  0  0
  9 10  1  0  0  0
  9 27  2  0  0  0
 10 11  2  0  0  0
 10 15  1  0  0  0
 11 12  1  0  0  0
 11 93  1  0  0  0
 12 13  2  0  0  0
 12 94  1  0  0  0
 13 14  1  0  0  0
 13 31  1  0  0  0
 14 15  2  0  0  0
 14 95  1  0  0  0
 15 96  1  0  0  0
 16 17  2  0  0  0
 16 21  1  0  0  0
 16 31  1  0  0  0
 17 18  1  0  0  0
 17 97  1  0  0  0
 18 19  2  0  0  0
 18 98  1  0  0  0
 19 20  1  0  0  0
 19 24  1  0  0  0
 20 21  2  0  0  0
 20 99  1  0  0  0
 21 23  1  0  0  0
 22 28  1  0  0  0
 22 32  2  0  0  0
 26 27  1  0  0  0
 28100  1  0  0  0
 28101  1  0  0  0
 29102  1  0  0  0
 29103  1  0  0  0
 33 34  1  0  0  0
 33 66  1  0  0  0
 33 70  2  0  0  0
 34 36  1  0  0  0
 34 59  1  0  0  0
 34104  1  0  0  0
 35 44  2  0  0  0
 35 45  1  0  0  0
 35 68  1  0  0  0
 36 56  1  0  0  0
 36105  1  0  0  0
 37 39  1  0  0  0
 37 47  1  0  0  0
 37 66  1  0  0  0
 37106  1  0  0  0
 38 43  2  0  0  0
 38 46  1  0  0  0
 38 47  1  0  0  0
 39 64  1  0  0  0
 39 67  2  0  0  0
 40 52  1  0  0  0
 40 53  2  0  0  0
 40 58  1  0  0  0
 41107  1  0  0  0
 41108  1  0  0  0
 41109  1  0  0  0
 41 48  1  0  0  0
 42 43  1  0  0  0
 42 66  1  0  0  0
 42110  1  0  0  0
 42111  1  0  0  0
 43 44  1  0  0  0
 44112  1  0  0  0
 45 46  2  0  0  0
 45113  1  0  0  0
 46114  1  0  0  0
 47115  1  0  0  0
 47116  1  0  0  0
 48 56  1  0  0  0
 48 65  1  0  0  0
 48117  1  0  0  0
 49 50  1  0  0  0
 49 53  1  0  0  0
 49 64  1  0  0  0
 49118  1  0  0  0
 50 51  1  0  0  0
 50119  1  0  0  0
 50120  1  0  0  0
 51 52  1  0  0  0
 51121  1  0  0  0
 51122  1  0  0  0
 52123  1  0  0  0
 52124  1  0  0  0
 53 54  1  0  0  0
 54 55  2  0  0  0
 54125  1  0  0  0
 55 57  1  0  0  0
 55126  1  0  0  0
 56 69  2  0  0  0
 57 58  2  0  0  0
 57127  1  0  0  0
 58128  1  0  0  0
 59 60  1  0  0  0
 59 61  1  0  0  0
 59 62  1  0  0  0
 60129  1  0  0  0
 60130  1  0  0  0
 60131  1  0  0  0
 61132  1  0  0  0
 61133  1  0  0  0
 61134  1  0  0  0
 62135  1  0  0  0
 62136  1  0  0  0
 62137  1  0  0  0
 63 65  1  0  0  0
 63138  1  0  0  0
 63139  1  0  0  0
 63140  1  0  0  0
 64141  1  0  0  0
 65142  1  0  0  0
 68 81  1  0  0  0
 71 73  2  0  0  0
 71 74  1  0  0  0
 71143  1  0  0  0
 72 73  1  0  0  0
 72 76  2  0  0  0
 72144  1  0  0  0
 73 79  1  0  0  0
 74 75  2  0  0  0
 74 78  1  0  0  0
 75 76  1  0  0  0
 75 77  1  0  0  0
 76 83  1  0  0  0
 77145  1  0  0  0
 77146  1  0  0  0
 77147  1  0  0  0
 78 80  1  0  0  0
 78148  1  0  0  0
 78149  1  0  0  0
 79 82  1  0  0  0
 79150  1  0  0  0
 79151  1  0  0  0
 80 81  1  0  0  0
 80152  1  0  0  0
 80153  1  0  0  0
 81154  1  0  0  0
 81155  1  0  0  0
 82156  1  0  0  0
M  ISO  4   1 100  68 101  81 101  82 100
M  END
> <chiral flag>
0

> <version>
0

> <s_m_source_file>
/data/baiqing/PycharmProjects/Reinvent-master-3.2/result/LINK_invent/BTK/process_docking_weight1_custom_sum_contain_oxygen_bond_distance_aromatic_linkinvent_7_9_3/rearranged_h_0032.sdf

> <i_m_source_file_index>
7

> <r_mmod_Potential_Energy-OPLS-2005>
66.3555145263672

> <r_mmod_Stretch_Energy-OPLS-2005>
110.871643066406

> <r_mmod_Bend_Energy-OPLS-2005>
172.567749023438

> <r_mmod_Torsional_Energy-OPLS-2005>
193.797729492188

> <r_mmod_Improper_Torsional_Energy-OPLS-2005>
5.85963201522827

> <r_mmod_Van_der_Waal_Energy-OPLS-2005>
141.698104858398

> <r_mmod_Electrostatic_Energy-OPLS-2005>
-416.227325439453

> <r_mmod_Solvation_Energy-OPLS-2005>
-203.385772705078

> <b_mmod_Minimization_Converged-OPLS-2005>
0

> <r_mmod_RMS_Derivative-OPLS-2005>
6.05232954025269

$$$$
7
                    3D
 Structure written by MMmdl.
167177  0  0  1  0            999 V2000
  -30.6556  -14.7096   20.3905 C   0  0  0  0  0  0
  -30.4309  -12.4165   19.4523 C   0  0  0  0  0  0
  -29.4948  -12.4050   18.2240 C   0  0  0  0  0  0
  -28.0199  -12.2977   18.6522 C   0  0  0  0  0  0
  -27.6389  -13.2302   19.8343 C   0  0  2  0  0  0
  -28.6961  -13.2016   20.9574 C   0  0  0  0  0  0
  -25.2536  -13.8215   20.5726 C   0  0  0  0  0  0
  -24.1808  -13.0460   20.9207 C   0  0  0  0  0  0
  -24.6383  -11.6929   20.8759 C   0  0  0  0  0  0
  -23.9049  -10.4306   21.0403 C   0  0  0  0  0  0
  -24.3606   -9.4227   21.9180 C   0  0  0  0  0  0
  -23.6295   -8.2255   22.0750 C   0  0  0  0  0  0
  -22.4277   -8.0275   21.3536 C   0  0  0  0  0  0
  -21.9899   -9.0245   20.4642 C   0  0  0  0  0  0
  -22.7213  -10.2139   20.3058 C   0  0  0  0  0  0
  -21.6867   -6.0713   22.5259 C   0  0  0  0  0  0
  -21.4022   -6.5618   23.8186 C   0  0  0  0  0  0
  -21.3674   -5.6776   24.9152 C   0  0  0  0  0  0
  -21.6051   -4.3034   24.7207 C   0  0  0  0  0  0
  -21.8827   -3.8124   23.4329 C   0  0  0  0  0  0
  -21.9203   -4.6941   22.3384 C   0  0  0  0  0  0
  -22.7830  -13.5239   21.1847 C   0  0  0  0  0  0
  -22.1677   -4.2119   21.0961 F   0  0  0  0  0  0
  -21.5641   -3.4524   25.7723 F   0  0  0  0  0  0
  -29.9882  -13.5115   20.3385 N   0  0  0  0  0  0
  -26.2951  -12.9419   20.3303 N   0  0  0  0  0  0
  -25.9324  -11.6562   20.5809 N   0  0  0  0  0  0
  -22.0489  -12.8231   22.0414 N   0  0  0  0  0  0
  -25.4287  -15.1936   20.4169 N   0  0  0  0  0  0
  -31.8851  -14.7356   20.2922 O   0  0  0  0  0  0
  -21.6660   -6.8853   21.4219 O   0  0  0  0  0  0
  -22.3506  -14.5529   20.6672 O   0  0  0  0  0  0
  -24.6269  -31.8592   23.1996 C   0  0  0  0  0  0
  -25.9115  -32.4774   23.8329 C   0  0  1  0  0  0
  -27.2163  -27.3019   20.1298 C   0  0  0  0  0  0
  -25.5927  -33.8568   24.2260 N   0  0  0  0  0  0
  -23.4201  -30.4822   21.5431 C   0  0  2  0  0  0
  -24.8655  -28.9298   20.1139 C   0  0  0  0  0  0
  -22.7463  -29.4633   22.4924 C   0  0  0  0  0  0
  -18.0286  -28.1381   22.8491 C   0  0  0  0  0  0
  -24.1490  -36.7288   23.2638 C   0  0  0  0  0  0
  -25.9609  -30.7862   21.3703 C   0  0  0  0  0  0
  -26.0363  -29.4101   20.7176 C   0  0  0  0  0  0
  -27.2180  -28.6080   20.7128 C   0  0  0  0  0  0
  -26.0294  -26.8760   19.5009 C   0  0  0  0  0  0
  -24.8641  -27.6680   19.4969 C   0  0  0  0  0  0
  -23.6348  -29.8130   20.1604 C   0  0  0  0  0  0
  -25.4115  -36.3078   24.0327 C   0  0  1  0  0  0
  -20.5889  -28.3689   23.1283 C   0  0  2  0  0  0
  -20.6778  -26.9412   22.5415 C   0  0  0  0  0  0
  -19.5754  -26.6384   21.5218 C   0  0  0  0  0  0
  -18.1933  -26.7929   22.1625 C   0  0  0  0  0  0
  -19.1541  -28.8849   23.2887 C   0  0  0  0  0  0
  -18.9466  -30.1451   23.8905 C   0  0  0  0  0  0
  -17.6469  -30.6591   24.0563 C   0  0  0  0  0  0
  -25.9049  -34.9447   23.5088 C   0  0  0  0  0  0
  -16.5357  -29.9088   23.6335 C   0  0  0  0  0  0
  -16.7271  -28.6500   23.0362 C   0  0  0  0  0  0
  -26.4504  -31.6581   25.0695 C   0  0  0  0  0  0
  -25.3746  -31.3720   26.1423 C   0  0  0  0  0  0
  -27.0343  -30.3009   24.6144 C   0  0  0  0  0  0
  -27.6063  -32.4320   25.7469 C   0  0  0  0  0  0
  -27.5580  -37.1791   24.8464 C   0  0  0  0  0  0
  -21.4177  -29.3056   22.3671 N   0  0  0  0  0  0
  -26.4284  -37.3781   23.9417 N   0  0  0  0  0  0
  -24.6888  -31.0597   22.0952 N   0  0  0  0  0  0
  -23.4180  -28.8174   23.3018 O   0  0  0  0  0  0
  -28.3167  -26.4320   20.1316 O   0  0  0  0  0  0
  -26.5628  -34.8930   22.4663 O   0  0  0  0  0  0
  -23.5439  -32.1387   23.7330 O   0  0  0  0  0  0
  -29.1577  -19.8259   22.3418 C   0  0  0  0  0  0
  -29.0131  -21.1007   20.2687 C   0  0  0  0  0  0
  -29.1221  -19.8069   20.9337 C   0  0  0  0  0  0
  -29.0601  -21.0474   23.0263 C   0  0  0  0  0  0
  -28.9275  -22.2760   22.3761 C   0  0  0  0  0  0
  -28.9090  -22.3776   20.9588 C   0  0  0  0  0  0
  -29.0837  -21.1847   24.5250 C   0  0  0  0  0  0
  -28.8279  -23.3847   23.3978 C   0  0  0  0  0  0
  -28.8592  -22.6872   24.7750 C   0  0  0  0  0  0
  -29.0782  -17.1132   18.0430 C   0  0  0  0  0  0
  -29.1702  -18.4900   18.7025 C   0  0  0  0  0  0
  -30.1598  -16.1837   18.6041 C   0  0  0  0  0  0
  -30.0179  -17.1800   20.7758 C   0  0  0  0  0  0
  -29.0809  -18.3834   20.2316 C   0  0  1  0  0  0
  -28.8730  -23.7760   20.1861 C   0  0  0  0  0  0
  -28.1380  -25.0932   20.7600 C   0  0  0  0  0  0
  -29.9488  -15.8546   20.0299 N   0  0  0  0  0  0
  -31.4664  -12.5385   19.1296 H   0  0  0  0  0  0
  -30.3894  -11.4633   19.9808 H   0  0  0  0  0  0
  -29.7446  -11.5609   17.5798 H   0  0  0  0  0  0
  -29.6393  -13.2884   17.6099 H   0  0  0  0  0  0
  -27.8546  -11.2592   18.9409 H   0  0  0  0  0  0
  -27.3628  -12.4818   17.8008 H   0  0  0  0  0  0
  -27.6234  -14.2406   19.4245 H   0  0  0  0  0  0
  -28.7257  -12.2289   21.4493 H   0  0  0  0  0  0
  -28.4588  -13.9408   21.7251 H   0  0  0  0  0  0
  -25.2751   -9.5714   22.4746 H   0  0  0  0  0  0
  -24.0011   -7.4651   22.7474 H   0  0  0  0  0  0
  -21.0831   -8.8729   19.8961 H   0  0  0  0  0  0
  -22.3635  -10.9661   19.6168 H   0  0  0  0  0  0
  -21.2008   -7.6127   23.9662 H   0  0  0  0  0  0
  -21.1507   -6.0522   25.9054 H   0  0  0  0  0  0
  -22.0600   -2.7581   23.2831 H   0  0  0  0  0  0
  -22.4128  -11.9912   22.4818 H   0  0  0  0  0  0
  -21.1097  -13.1241   22.2599 H   0  0  0  0  0  0
  -24.6725  -15.8578   20.5413 H   0  0  0  0  0  0
  -26.2954  -15.6276   20.1250 H   0  0  0  0  0  0
  -26.7170  -32.5439   23.1060 H   0  0  0  0  0  0
  -25.0076  -33.9713   25.0401 H   0  0  0  0  0  0
  -22.7155  -31.3041   21.3974 H   0  0  0  0  0  0
  -23.3766  -35.9610   23.3291 H   0  0  0  0  0  0
  -24.3581  -36.8921   22.2058 H   0  0  0  0  0  0
  -23.7230  -37.6478   23.6668 H   0  0  0  0  0  0
  -26.0902  -31.5454   20.5976 H   0  0  0  0  0  0
  -26.8430  -30.8393   21.9965 H   0  0  0  0  0  0
  -28.1158  -28.9699   21.1938 H   0  0  0  0  0  0
  -25.9995  -25.9093   19.0182 H   0  0  0  0  0  0
  -23.9680  -27.2942   19.0205 H   0  0  0  0  0  0
  -23.7511  -30.5868   19.4004 H   0  0  0  0  0  0
  -22.7538  -29.2432   19.8595 H   0  0  0  0  0  0
  -25.1294  -36.1923   25.0824 H   0  0  0  0  0  0
  -20.9993  -28.3275   24.1398 H   0  0  0  0  0  0
  -20.5696  -26.2298   23.3614 H   0  0  0  0  0  0
  -21.6642  -26.7449   22.1204 H   0  0  0  0  0  0
  -19.6924  -25.6300   21.1240 H   0  0  0  0  0  0
  -19.6700  -27.3200   20.6756 H   0  0  0  0  0  0
  -17.4209  -26.6691   21.4020 H   0  0  0  0  0  0
  -18.0324  -26.0060   22.9009 H   0  0  0  0  0  0
  -19.7945  -30.7262   24.2283 H   0  0  0  0  0  0
  -17.5025  -31.6273   24.5157 H   0  0  0  0  0  0
  -15.5361  -30.2995   23.7652 H   0  0  0  0  0  0
  -15.8668  -28.0813   22.7091 H   0  0  0  0  0  0
  -24.5923  -30.7061   25.7752 H   0  0  0  0  0  0
  -24.8931  -32.2885   26.4847 H   0  0  0  0  0  0
  -25.8073  -30.8899   27.0194 H   0  0  0  0  0  0
  -26.2898  -29.6753   24.1203 H   0  0  0  0  0  0
  -27.4081  -29.7275   25.4634 H   0  0  0  0  0  0
  -27.8751  -30.4297   23.9323 H   0  0  0  0  0  0
  -27.2669  -33.3625   26.2036 H   0  0  0  0  0  0
  -28.3878  -32.6880   25.0296 H   0  0  0  0  0  0
  -28.0723  -31.8450   26.5391 H   0  0  0  0  0  0
  -28.2591  -38.0101   24.7535 H   0  0  0  0  0  0
  -28.1087  -36.2629   24.6255 H   0  0  0  0  0  0
  -27.2299  -37.1395   25.8868 H   0  0  0  0  0  0
  -20.9340  -29.8750   21.6863 H   0  0  0  0  0  0
  -26.0167  -38.2853   24.1444 H   0  0  0  0  0  0
  -29.2285  -18.9060   22.9066 H   0  0  0  0  0  0
  -29.0013  -21.1252   19.1886 H   0  0  0  0  0  0
  -30.0523  -20.8603   24.9063 H   0  0  0  0  0  0
  -28.3066  -20.5742   24.9846 H   0  0  0  0  0  0
  -27.8867  -23.9229   23.2888 H   0  0  0  0  0  0
  -29.6618  -24.0786   23.2884 H   0  0  0  0  0  0
  -29.6308  -23.1017   25.4242 H   0  0  0  0  0  0
  -27.9053  -22.8358   25.2843 H   0  0  0  0  0  0
  -29.2093  -17.2224   16.9656 H   0  0  0  0  0  0
  -28.0891  -16.6783   18.1916 H   0  0  0  0  0  0
  -28.3633  -19.1159   18.3197 H   0  0  0  0  0  0
  -30.1068  -18.9717   18.4179 H   0  0  0  0  0  0
  -31.1419  -16.6490   18.4799 H   0  0  0  0  0  0
  -30.1910  -15.2893   17.9866 H   0  0  0  0  0  0
  -29.7862  -16.9810   21.8217 H   0  0  0  0  0  0
  -31.0570  -17.5139   20.7625 H   0  0  0  0  0  0
  -28.0645  -18.0401   20.4316 H   0  0  0  0  0  0
  -28.4566  -23.5800   19.1971 H   0  0  0  0  0  0
  -29.9153  -24.0395   20.0045 H   0  0  0  0  0  0
  -28.5270  -25.2939   21.7517 H   0  0  0  0  0  0
  -27.0818  -24.8601   20.9002 H   0  0  0  0  0  0
  1 25  1  0  0  0
  1 30  2  0  0  0
  1 87  1  0  0  0
  2  3  1  0  0  0
  2 25  1  0  0  0
  2 88  1  0  0  0
  2 89  1  0  0  0
  3  4  1  0  0  0
  3 90  1  0  0  0
  3 91  1  0  0  0
  4  5  1  0  0  0
  4 92  1  0  0  0
  4 93  1  0  0  0
  5  6  1  0  0  0
  5 26  1  0  0  0
  5 94  1  0  0  0
  6 25  1  0  0  0
  6 95  1  0  0  0
  6 96  1  0  0  0
  7  8  2  0  0  0
  7 26  1  0  0  0
  7 29  1  0  0  0
  8  9  1  0  0  0
  8 22  1  0  0  0
  9 10  1  0  0  0
  9 27  2  0  0  0
 10 11  2  0  0  0
 10 15  1  0  0  0
 11 12  1  0  0  0
 11 97  1  0  0  0
 12 13  2  0  0  0
 12 98  1  0  0  0
 13 14  1  0  0  0
 13 31  1  0  0  0
 14 15  2  0  0  0
 14 99  1  0  0  0
 15100  1  0  0  0
 16 17  2  0  0  0
 16 21  1  0  0  0
 16 31  1  0  0  0
 17 18  1  0  0  0
 17101  1  0  0  0
 18 19  2  0  0  0
 18102  1  0  0  0
 19 20  1  0  0  0
 19 24  1  0  0  0
 20 21  2  0  0  0
 20103  1  0  0  0
 21 23  1  0  0  0
 22 28  1  0  0  0
 22 32  2  0  0  0
 26 27  1  0  0  0
 28104  1  0  0  0
 28105  1  0  0  0
 29106  1  0  0  0
 29107  1  0  0  0
 33 34  1  0  0  0
 33 66  1  0  0  0
 33 70  2  0  0  0
 34 36  1  0  0  0
 34 59  1  0  0  0
 34108  1  0  0  0
 35 44  2  0  0  0
 35 45  1  0  0  0
 35 68  1  0  0  0
 36 56  1  0  0  0
 36109  1  0  0  0
 37 39  1  0  0  0
 37 47  1  0  0  0
 37 66  1  0  0  0
 37110  1  0  0  0
 38 43  2  0  0  0
 38 46  1  0  0  0
 38 47  1  0  0  0
 39 64  1  0  0  0
 39 67  2  0  0  0
 40 52  1  0  0  0
 40 53  2  0  0  0
 40 58  1  0  0  0
 41111  1  0  0  0
 41112  1  0  0  0
 41113  1  0  0  0
 41 48  1  0  0  0
 42 43  1  0  0  0
 42 66  1  0  0  0
 42114  1  0  0  0
 42115  1  0  0  0
 43 44  1  0  0  0
 44116  1  0  0  0
 45 46  2  0  0  0
 45117  1  0  0  0
 46118  1  0  0  0
 47119  1  0  0  0
 47120  1  0  0  0
 48 56  1  0  0  0
 48 65  1  0  0  0
 48121  1  0  0  0
 49 50  1  0  0  0
 49 53  1  0  0  0
 49 64  1  0  0  0
 49122  1  0  0  0
 50 51  1  0  0  0
 50123  1  0  0  0
 50124  1  0  0  0
 51 52  1  0  0  0
 51125  1  0  0  0
 51126  1  0  0  0
 52127  1  0  0  0
 52128  1  0  0  0
 53 54  1  0  0  0
 54 55  2  0  0  0
 54129  1  0  0  0
 55 57  1  0  0  0
 55130  1  0  0  0
 56 69  2  0  0  0
 57 58  2  0  0  0
 57131  1  0  0  0
 58132  1  0  0  0
 59 60  1  0  0  0
 59 61  1  0  0  0
 59 62  1  0  0  0
 60133  1  0  0  0
 60134  1  0  0  0
 60135  1  0  0  0
 61136  1  0  0  0
 61137  1  0  0  0
 61138  1  0  0  0
 62139  1  0  0  0
 62140  1  0  0  0
 62141  1  0  0  0
 63 65  1  0  0  0
 63142  1  0  0  0
 63143  1  0  0  0
 63144  1  0  0  0
 64145  1  0  0  0
 65146  1  0  0  0
 68 86  1  0  0  0
 71 73  2  0  0  0
 71 74  1  0  0  0
 71147  1  0  0  0
 72 73  1  0  0  0
 72 76  2  0  0  0
 72148  1  0  0  0
 73 84  1  0  0  0
 74 75  2  0  0  0
 74 77  1  0  0  0
 75 76  1  0  0  0
 75 78  1  0  0  0
 76 85  1  0  0  0
 77 79  1  0  0  0
 77149  1  0  0  0
 77150  1  0  0  0
 78 79  1  0  0  0
 78151  1  0  0  0
 78152  1  0  0  0
 79153  1  0  0  0
 79154  1  0  0  0
 80 81  1  0  0  0
 80 82  1  0  0  0
 80155  1  0  0  0
 80156  1  0  0  0
 81 84  1  0  0  0
 81157  1  0  0  0
 81158  1  0  0  0
 82 87  1  0  0  0
 82159  1  0  0  0
 82160  1  0  0  0
 83 84  1  0  0  0
 83 87  1  0  0  0
 83161  1  0  0  0
 83162  1  0  0  0
 84163  1  0  0  0
 85 86  1  0  0  0
 85164  1  0  0  0
 85165  1  0  0  0
 86166  1  0  0  0
 86167  1  0  0  0
M  ISO  4   1 100  68 101  86 101  87 100
M  END
> <chiral flag>
0

> <version>
0

> <s_m_source_file>
/data/baiqing/PycharmProjects/Reinvent-master-3.2/result/LINK_invent/BTK/process_docking_weight1_custom_sum_contain_oxygen_bond_distance_aromatic_linkinvent_7_9_3/rearranged_h_0032.sdf

> <i_m_source_file_index>
8

> <r_mmod_Potential_Energy-OPLS-2005>
422.939880371094

> <r_mmod_Stretch_Energy-OPLS-2005>
111.574142456055

> <r_mmod_Bend_Energy-OPLS-2005>
201.251388549805

> <r_mmod_Torsional_Energy-OPLS-2005>
371.367156982422

> <r_mmod_Improper_Torsional_Energy-OPLS-2005>
21.7370624542236

> <r_mmod_Van_der_Waal_Energy-OPLS-2005>
140.887771606445

> <r_mmod_Electrostatic_Energy-OPLS-2005>
-312.058532714844

> <r_mmod_Solvation_Energy-OPLS-2005>
-191.966888427734

> <b_mmod_Minimization_Converged-OPLS-2005>
0

> <r_mmod_RMS_Derivative-OPLS-2005>
2.25965261459351

$$$$
8
                    3D
 Structure written by MMmdl.
164172  0  0  1  0            999 V2000
  -30.7306  -14.4083   20.6687 C   0  0  0  0  0  0
  -30.4210  -12.3144   19.3903 C   0  0  0  0  0  0
  -29.4712  -12.5242   18.1899 C   0  0  0  0  0  0
  -27.9921  -12.3916   18.6159 C   0  0  0  0  0  0
  -27.6657  -13.2011   19.8979 C   0  0  2  0  0  0
  -28.7139  -12.9312   20.9992 C   0  0  0  0  0  0
  -25.2624  -13.8159   20.5779 C   0  0  0  0  0  0
  -24.1868  -13.0433   20.9265 C   0  0  0  0  0  0
  -24.6399  -11.6903   20.8805 C   0  0  0  0  0  0
  -23.8995  -10.4296   21.0445 C   0  0  0  0  0  0
  -24.3546   -9.4196   21.9198 C   0  0  0  0  0  0
  -23.6213   -8.2261   22.0783 C   0  0  0  0  0  0
  -22.4216   -8.0278   21.3563 C   0  0  0  0  0  0
  -21.9851   -9.0254   20.4711 C   0  0  0  0  0  0
  -22.7177  -10.2147   20.3115 C   0  0  0  0  0  0
  -21.6822   -6.0726   22.5296 C   0  0  0  0  0  0
  -21.3994   -6.5633   23.8220 C   0  0  0  0  0  0
  -21.3719   -5.6824   24.9214 C   0  0  0  0  0  0
  -21.6088   -4.3076   24.7276 C   0  0  0  0  0  0
  -21.8813   -3.8148   23.4385 C   0  0  0  0  0  0
  -21.9172   -4.6959   22.3428 C   0  0  0  0  0  0
  -22.7894  -13.5200   21.1921 C   0  0  0  0  0  0
  -22.1687   -4.2151   21.1026 F   0  0  0  0  0  0
  -21.5598   -3.4557   25.7783 F   0  0  0  0  0  0
  -30.0457  -13.2525   20.4583 N   0  0  0  0  0  0
  -26.3035  -12.9299   20.3508 N   0  0  0  0  0  0
  -25.9322  -11.6467   20.5922 N   0  0  0  0  0  0
  -22.0544  -12.8182   22.0505 N   0  0  0  0  0  0
  -25.4320  -15.1834   20.4158 N   0  0  0  0  0  0
  -31.7705  -14.6970   20.0605 O   0  0  0  0  0  0
  -21.6583   -6.8876   21.4267 O   0  0  0  0  0  0
  -22.3499  -14.5464   20.6773 O   0  0  0  0  0  0
  -24.6230  -31.8696   23.2221 C   0  0  0  0  0  0
  -25.9110  -32.4804   23.8467 C   0  0  1  0  0  0
  -27.1781  -27.3706   20.0620 C   0  0  0  0  0  0
  -25.5930  -33.8596   24.2343 N   0  0  0  0  0  0
  -23.4054  -30.5131   21.5669 C   0  0  2  0  0  0
  -24.8371  -29.0025   20.1194 C   0  0  0  0  0  0
  -22.7441  -29.4696   22.4958 C   0  0  0  0  0  0
  -18.0287  -28.1372   22.8486 C   0  0  0  0  0  0
  -24.1498  -36.7334   23.2631 C   0  0  0  0  0  0
  -25.9545  -30.8112   21.3997 C   0  0  0  0  0  0
  -26.0147  -29.4529   20.7281 C   0  0  0  0  0  0
  -27.1880  -28.6406   20.7128 C   0  0  0  0  0  0
  -25.9589  -27.0007   19.4208 C   0  0  0  0  0  0
  -24.8061  -27.7751   19.4678 C   0  0  0  0  0  0
  -23.6129  -29.8803   20.1733 C   0  0  0  0  0  0
  -25.4112  -36.3100   24.0329 C   0  0  1  0  0  0
  -20.5873  -28.3696   23.1277 C   0  0  2  0  0  0
  -20.6782  -26.9426   22.5385 C   0  0  0  0  0  0
  -19.5754  -26.6381   21.5186 C   0  0  0  0  0  0
  -18.1936  -26.7902   22.1632 C   0  0  0  0  0  0
  -19.1532  -28.8844   23.2881 C   0  0  0  0  0  0
  -18.9454  -30.1434   23.8889 C   0  0  0  0  0  0
  -17.6449  -30.6559   24.0554 C   0  0  0  0  0  0
  -25.9071  -34.9457   23.5149 C   0  0  0  0  0  0
  -16.5341  -29.9065   23.6313 C   0  0  0  0  0  0
  -16.7269  -28.6492   23.0333 C   0  0  0  0  0  0
  -26.4529  -31.6597   25.0798 C   0  0  0  0  0  0
  -25.3783  -31.3722   26.1549 C   0  0  0  0  0  0
  -27.0403  -30.3022   24.6245 C   0  0  0  0  0  0
  -27.6106  -32.4353   25.7532 C   0  0  0  0  0  0
  -27.5584  -37.1815   24.8450 C   0  0  0  0  0  0
  -21.4163  -29.3055   22.3687 N   0  0  0  0  0  0
  -26.4285  -37.3786   23.9421 N   0  0  0  0  0  0
  -24.6785  -31.0786   22.1163 N   0  0  0  0  0  0
  -23.4236  -28.8138   23.2897 O   0  0  0  0  0  0
  -28.2766  -26.4924   20.0636 O   0  0  0  0  0  0
  -26.5610  -34.8894   22.4702 O   0  0  0  0  0  0
  -23.5432  -32.1467   23.7604 O   0  0  0  0  0  0
  -26.6944  -21.4424   16.4892 C   0  0  0  0  0  0
  -27.9624  -21.0022   16.9012 C   0  0  0  0  0  0
  -28.5666  -21.6162   18.0355 C   0  0  0  0  0  0
  -27.9705  -22.8065   18.5449 C   0  0  0  0  0  0
  -26.0826  -22.4853   17.1911 C   0  0  0  0  0  0
  -28.6495  -19.9058   16.0992 C   0  0  0  0  0  0
  -29.7345  -20.9277   18.7479 C   0  0  0  0  0  0
  -28.6837  -23.8237   19.4927 C   0  0  0  0  0  0
  -29.2094  -19.6776   19.5109 C   0  0  0  0  0  0
  -30.2163  -18.8865   20.3766 C   0  0  0  0  0  0
  -29.5903  -17.5770   20.9218 C   0  0  0  0  0  0
  -30.5303  -16.6623   21.7473 C   0  0  0  0  0  0
  -27.9378  -25.1956   19.4763 C   0  0  0  0  0  0
  -26.7144  -23.1553   18.1683 N   0  0  0  0  0  0
  -30.1795  -15.2485   21.5606 N   0  0  0  0  0  0
  -24.4810  -22.9740   16.7660 Cl  0  0  0  0  0  0
  -31.4587  -12.4352   19.0757 H   0  0  0  0  0  0
  -30.3450  -11.2886   19.7548 H   0  0  0  0  0  0
  -29.6863  -11.7931   17.4090 H   0  0  0  0  0  0
  -29.6408  -13.5079   17.7402 H   0  0  0  0  0  0
  -27.7855  -11.3316   18.7785 H   0  0  0  0  0  0
  -27.3326  -12.7014   17.8060 H   0  0  0  0  0  0
  -27.7225  -14.2591   19.6449 H   0  0  0  0  0  0
  -28.6902  -11.8804   21.2820 H   0  0  0  0  0  0
  -28.4746  -13.4709   21.9164 H   0  0  0  0  0  0
  -25.2687   -9.5656   22.4725 H   0  0  0  0  0  0
  -23.9920   -7.4649   22.7494 H   0  0  0  0  0  0
  -21.0768   -8.8764   19.9026 H   0  0  0  0  0  0
  -22.3598  -10.9668   19.6223 H   0  0  0  0  0  0
  -21.1981   -7.6156   23.9687 H   0  0  0  0  0  0
  -21.1548   -6.0614   25.9107 H   0  0  0  0  0  0
  -22.0529   -2.7579   23.2941 H   0  0  0  0  0  0
  -22.4136  -11.9762   22.4758 H   0  0  0  0  0  0
  -21.1125  -13.1113   22.2698 H   0  0  0  0  0  0
  -24.6709  -15.8404   20.5430 H   0  0  0  0  0  0
  -26.2914  -15.6124   20.0917 H   0  0  0  0  0  0
  -26.7153  -32.5471   23.1201 H   0  0  0  0  0  0
  -25.0036  -33.9747   25.0468 H   0  0  0  0  0  0
  -22.6954  -31.3342   21.4381 H   0  0  0  0  0  0
  -23.3745  -35.9678   23.3251 H   0  0  0  0  0  0
  -24.3589  -36.9019   22.2045 H   0  0  0  0  0  0
  -23.7250  -37.6523   23.6703 H   0  0  0  0  0  0
  -26.0954  -31.5889   20.6488 H   0  0  0  0  0  0
  -26.8372  -30.8416   22.0299 H   0  0  0  0  0  0
  -28.0828  -28.9736   21.2188 H   0  0  0  0  0  0
  -25.8127  -26.0972   18.8460 H   0  0  0  0  0  0
  -23.9045  -27.4286   18.9791 H   0  0  0  0  0  0
  -23.7348  -30.6697   19.4313 H   0  0  0  0  0  0
  -22.7355  -29.3143   19.8544 H   0  0  0  0  0  0
  -25.1281  -36.1960   25.0814 H   0  0  0  0  0  0
  -20.9951  -28.3237   24.1403 H   0  0  0  0  0  0
  -20.5660  -26.2287   23.3574 H   0  0  0  0  0  0
  -21.6649  -26.7423   22.1167 H   0  0  0  0  0  0
  -19.6910  -25.6293   21.1211 H   0  0  0  0  0  0
  -19.6659  -27.3194   20.6721 H   0  0  0  0  0  0
  -17.4172  -26.6588   21.4069 H   0  0  0  0  0  0
  -18.0398  -26.0042   22.9053 H   0  0  0  0  0  0
  -19.7927  -30.7240   24.2273 H   0  0  0  0  0  0
  -17.5012  -31.6250   24.5159 H   0  0  0  0  0  0
  -15.5357  -30.2975   23.7619 H   0  0  0  0  0  0
  -15.8679  -28.0799   22.7069 H   0  0  0  0  0  0
  -24.5889  -30.7149   25.7889 H   0  0  0  0  0  0
  -24.9026  -32.2871   26.5074 H   0  0  0  0  0  0
  -25.8076  -30.8800   27.0281 H   0  0  0  0  0  0
  -26.2994  -29.6731   24.1264 H   0  0  0  0  0  0
  -27.4136  -29.7280   25.4745 H   0  0  0  0  0  0
  -27.8872  -30.4345   23.9495 H   0  0  0  0  0  0
  -27.2712  -33.3637   26.2166 H   0  0  0  0  0  0
  -28.3857  -32.6958   25.0298 H   0  0  0  0  0  0
  -28.0881  -31.8452   26.5381 H   0  0  0  0  0  0
  -28.2594  -38.0130   24.7510 H   0  0  0  0  0  0
  -28.1092  -36.2634   24.6266 H   0  0  0  0  0  0
  -27.2296  -37.1477   25.8858 H   0  0  0  0  0  0
  -20.9326  -29.8872   21.6979 H   0  0  0  0  0  0
  -26.0171  -38.2888   24.1372 H   0  0  0  0  0  0
  -26.1681  -20.9718   15.6651 H   0  0  0  0  0  0
  -28.0758  -19.6335   15.2107 H   0  0  0  0  0  0
  -28.7889  -18.9945   16.6735 H   0  0  0  0  0  0
  -29.6205  -20.2554   15.7524 H   0  0  0  0  0  0
  -30.2008  -21.6162   19.4511 H   0  0  0  0  0  0
  -30.5001  -20.6481   18.0221 H   0  0  0  0  0  0
  -29.7048  -23.9562   19.1455 H   0  0  0  0  0  0
  -28.7172  -23.4247   20.5071 H   0  0  0  0  0  0
  -28.7897  -18.9781   18.7921 H   0  0  0  0  0  0
  -28.3626  -19.9721   20.1323 H   0  0  0  0  0  0
  -30.5718  -19.5071   21.2005 H   0  0  0  0  0  0
  -31.0831  -18.6339   19.7619 H   0  0  0  0  0  0
  -29.2213  -17.0259   20.0567 H   0  0  0  0  0  0
  -28.7007  -17.7990   21.5222 H   0  0  0  0  0  0
  -30.4378  -16.8965   22.8125 H   0  0  0  0  0  0
  -31.5776  -16.8254   21.5008 H   0  0  0  0  0  0
  -27.0164  -24.8829   19.9753 H   0  0  0  0  0  0
  -27.7843  -25.4163   18.4194 H   0  0  0  0  0  0
  -29.4022  -14.8861   22.0934 H   0  0  0  0  0  0
  1 25  1  0  0  0
  1 30  2  0  0  0
  1 85  1  0  0  0
  2  3  1  0  0  0
  2 25  1  0  0  0
  2 87  1  0  0  0
  2 88  1  0  0  0
  3  4  1  0  0  0
  3 89  1  0  0  0
  3 90  1  0  0  0
  4  5  1  0  0  0
  4 91  1  0  0  0
  4 92  1  0  0  0
  5  6  1  0  0  0
  5 26  1  0  0  0
  5 93  1  0  0  0
  6 25  1  0  0  0
  6 94  1  0  0  0
  6 95  1  0  0  0
  7  8  2  0  0  0
  7 26  1  0  0  0
  7 29  1  0  0  0
  8  9  1  0  0  0
  8 22  1  0  0  0
  9 10  1  0  0  0
  9 27  2  0  0  0
 10 11  2  0  0  0
 10 15  1  0  0  0
 11 12  1  0  0  0
 11 96  1  0  0  0
 12 13  2  0  0  0
 12 97  1  0  0  0
 13 14  1  0  0  0
 13 31  1  0  0  0
 14 15  2  0  0  0
 14 98  1  0  0  0
 15 99  1  0  0  0
 16 17  2  0  0  0
 16 21  1  0  0  0
 16 31  1  0  0  0
 17 18  1  0  0  0
 17100  1  0  0  0
 18 19  2  0  0  0
 18101  1  0  0  0
 19 20  1  0  0  0
 19 24  1  0  0  0
 20 21  2  0  0  0
 20102  1  0  0  0
 21 23  1  0  0  0
 22 28  1  0  0  0
 22 32  2  0  0  0
 26 27  1  0  0  0
 28103  1  0  0  0
 28104  1  0  0  0
 29105  1  0  0  0
 29106  1  0  0  0
 33 34  1  0  0  0
 33 66  1  0  0  0
 33 70  2  0  0  0
 34 36  1  0  0  0
 34 59  1  0  0  0
 34107  1  0  0  0
 35 44  2  0  0  0
 35 45  1  0  0  0
 35 68  1  0  0  0
 36 56  1  0  0  0
 36108  1  0  0  0
 37 39  1  0  0  0
 37 47  1  0  0  0
 37 66  1  0  0  0
 37109  1  0  0  0
 38 43  2  0  0  0
 38 46  1  0  0  0
 38 47  1  0  0  0
 39 64  1  0  0  0
 39 67  2  0  0  0
 40 52  1  0  0  0
 40 53  2  0  0  0
 40 58  1  0  0  0
 41110  1  0  0  0
 41111  1  0  0  0
 41112  1  0  0  0
 41 48  1  0  0  0
 42 43  1  0  0  0
 42 66  1  0  0  0
 42113  1  0  0  0
 42114  1  0  0  0
 43 44  1  0  0  0
 44115  1  0  0  0
 45 46  2  0  0  0
 45116  1  0  0  0
 46117  1  0  0  0
 47118  1  0  0  0
 47119  1  0  0  0
 48 56  1  0  0  0
 48 65  1  0  0  0
 48120  1  0  0  0
 49 50  1  0  0  0
 49 53  1  0  0  0
 49 64  1  0  0  0
 49121  1  0  0  0
 50 51  1  0  0  0
 50122  1  0  0  0
 50123  1  0  0  0
 51 52  1  0  0  0
 51124  1  0  0  0
 51125  1  0  0  0
 52126  1  0  0  0
 52127  1  0  0  0
 53 54  1  0  0  0
 54 55  2  0  0  0
 54128  1  0  0  0
 55 57  1  0  0  0
 55129  1  0  0  0
 56 69  2  0  0  0
 57 58  2  0  0  0
 57130  1  0  0  0
 58131  1  0  0  0
 59 60  1  0  0  0
 59 61  1  0  0  0
 59 62  1  0  0  0
 60132  1  0  0  0
 60133  1  0  0  0
 60134  1  0  0  0
 61135  1  0  0  0
 61136  1  0  0  0
 61137  1  0  0  0
 62138  1  0  0  0
 62139  1  0  0  0
 62140  1  0  0  0
 63 65  1  0  0  0
 63141  1  0  0  0
 63142  1  0  0  0
 63143  1  0  0  0
 64144  1  0  0  0
 65145  1  0  0  0
 68 83  1  0  0  0
 71 72  2  0  0  0
 71 75  1  0  0  0
 71146  1  0  0  0
 72 73  1  0  0  0
 72 76  1  0  0  0
 73 74  2  0  0  0
 73 77  1  0  0  0
 74 78  1  0  0  0
 74 84  1  0  0  0
 75 84  2  0  0  0
 75 86  1  0  0  0
 76147  1  0  0  0
 76148  1  0  0  0
 76149  1  0  0  0
 77 79  1  0  0  0
 77150  1  0  0  0
 77151  1  0  0  0
 78 83  1  0  0  0
 78152  1  0  0  0
 78153  1  0  0  0
 79 80  1  0  0  0
 79154  1  0  0  0
 79155  1  0  0  0
 80 81  1  0  0  0
 80156  1  0  0  0
 80157  1  0  0  0
 81 82  1  0  0  0
 81158  1  0  0  0
 81159  1  0  0  0
 82 85  1  0  0  0
 82160  1  0  0  0
 82161  1  0  0  0
 83162  1  0  0  0
 83163  1  0  0  0
 85164  1  0  0  0
M  ISO  4   1 100  68 101  83 101  85 100
M  END
> <chiral flag>
0

> <version>
0

> <s_m_source_file>
/data/baiqing/PycharmProjects/Reinvent-master-3.2/result/LINK_invent/BTK/process_docking_weight1_custom_sum_contain_oxygen_bond_distance_aromatic_linkinvent_7_9_3/rearranged_h_0032.sdf

> <i_m_source_file_index>
9

> <r_mmod_Potential_Energy-OPLS-2005>
-86.0467987060547

> <r_mmod_Stretch_Energy-OPLS-2005>
50.4270935058594

> <r_mmod_Bend_Energy-OPLS-2005>
143.21467590332

> <r_mmod_Torsional_Energy-OPLS-2005>
225.497055053711

> <r_mmod_Improper_Torsional_Energy-OPLS-2005>
2.41390943527222

> <r_mmod_Van_der_Waal_Energy-OPLS-2005>
192.599395751953

> <r_mmod_Electrostatic_Energy-OPLS-2005>
-514.050231933594

> <r_mmod_Solvation_Energy-OPLS-2005>
-211.559692382812

> <b_mmod_Minimization_Converged-OPLS-2005>
0

> <r_mmod_RMS_Derivative-OPLS-2005>
7.69538402557373

$$$$
9
                    3D
 Structure written by MMmdl.
169177  0  0  1  0            999 V2000
  -30.3332  -15.5389   20.0148 C   0  0  0  0  0  0
  -30.4537  -12.9746   19.4645 C   0  0  0  0  0  0
  -29.5464  -12.5912   18.2672 C   0  0  0  0  0  0
  -28.1081  -12.2864   18.7258 C   0  0  0  0  0  0
  -27.6041  -13.3046   19.7760 C   0  0  2  0  0  0
  -28.6569  -13.6368   20.8551 C   0  0  0  0  0  0
  -25.2439  -13.8296   20.5787 C   0  0  0  0  0  0
  -24.1806  -13.0455   20.9278 C   0  0  0  0  0  0
  -24.6490  -11.6958   20.8760 C   0  0  0  0  0  0
  -23.9160  -10.4305   21.0388 C   0  0  0  0  0  0
  -24.3668   -9.4218   21.9183 C   0  0  0  0  0  0
  -23.6315   -8.2267   22.0769 C   0  0  0  0  0  0
  -22.4296   -8.0304   21.3555 C   0  0  0  0  0  0
  -21.9957   -9.0290   20.4658 C   0  0  0  0  0  0
  -22.7316  -10.2152   20.3052 C   0  0  0  0  0  0
  -21.6865   -6.0744   22.5273 C   0  0  0  0  0  0
  -21.4023   -6.5644   23.8209 C   0  0  0  0  0  0
  -21.3655   -5.6796   24.9171 C   0  0  0  0  0  0
  -21.6039   -4.3057   24.7222 C   0  0  0  0  0  0
  -21.8823   -3.8153   23.4343 C   0  0  0  0  0  0
  -21.9197   -4.6969   22.3400 C   0  0  0  0  0  0
  -22.7799  -13.5184   21.1901 C   0  0  0  0  0  0
  -22.1663   -4.2152   21.0980 F   0  0  0  0  0  0
  -21.5621   -3.4545   25.7737 F   0  0  0  0  0  0
  -29.8486  -14.1773   20.1564 N   0  0  0  0  0  0
  -26.2895  -12.9636   20.3165 N   0  0  0  0  0  0
  -25.9444  -11.6704   20.5664 N   0  0  0  0  0  0
  -22.0430  -12.8170   22.0432 N   0  0  0  0  0  0
  -25.4033  -15.2045   20.4246 N   0  0  0  0  0  0
  -31.5748  -15.5011   19.9578 O   0  0  0  0  0  0
  -21.6660   -6.8895   21.4236 O   0  0  0  0  0  0
  -22.3460  -14.5478   20.6732 O   0  0  0  0  0  0
  -24.6708  -32.0624   23.0947 C   0  0  0  0  0  0
  -25.9151  -32.5717   23.9086 C   0  0  1  0  0  0
  -27.2426  -26.5353   20.3227 C   0  0  0  0  0  0
  -25.5774  -33.9387   24.2753 N   0  0  0  0  0  0
  -23.4919  -30.4229   21.4334 C   0  0  2  0  0  0
  -25.0923  -27.9970   19.9414 C   0  0  0  0  0  0
  -22.6879  -29.6924   22.5768 C   0  0  0  0  0  0
  -18.0294  -28.1532   22.8531 C   0  0  0  0  0  0
  -24.1427  -36.7777   23.2532 C   0  0  0  0  0  0
  -26.4609  -31.4223   21.1500 C   0  0  0  0  0  0
  -26.6424  -28.5422   20.1101 C   0  0  0  0  0  0
  -27.7187  -27.7387   20.1068 C   0  0  0  0  0  0
  -26.0066  -25.9932   19.8849 C   0  0  0  0  0  0
  -24.9136  -26.7545   19.5165 C   0  0  0  0  0  0
  -23.6167  -28.8832   20.4396 C   0  0  0  0  0  0
  -25.3982  -36.3609   24.0327 C   0  0  1  0  0  0
  -20.5859  -28.4309   23.1223 C   0  0  2  0  0  0
  -20.6949  -26.9945   22.5475 C   0  0  0  0  0  0
  -19.5921  -26.6587   21.5354 C   0  0  0  0  0  0
  -18.2065  -26.8063   22.1719 C   0  0  0  0  0  0
  -19.1468  -28.9148   23.2889 C   0  0  0  0  0  0
  -18.9309  -30.1712   23.8904 C   0  0  0  0  0  0
  -17.6289  -30.6710   24.0641 C   0  0  0  0  0  0
  -25.8872  -34.9988   23.5243 C   0  0  0  0  0  0
  -16.5234  -29.9105   23.6403 C   0  0  0  0  0  0
  -16.7258  -28.6555   23.0382 C   0  0  0  0  0  0
  -26.3753  -31.7677   25.1936 C   0  0  0  0  0  0
  -25.2472  -31.4578   26.1909 C   0  0  0  0  0  0
  -27.0360  -30.4374   24.8872 C   0  0  0  0  0  0
  -27.5002  -32.5566   25.9041 C   0  0  0  0  0  0
  -27.5571  -37.2039   24.8386 C   0  0  0  0  0  0
  -21.3913  -29.3999   22.3550 N   0  0  0  0  0  0
  -26.4238  -37.4187   23.9427 N   0  0  0  0  0  0
  -24.7822  -31.5822   21.8027 N   0  0  0  0  0  0
  -23.2672  -29.1631   23.5242 O   0  0  0  0  0  0
  -27.7039  -26.3077   21.5176 O   0  0  0  0  0  0
  -26.5355  -34.9173   22.4757 O   0  0  0  0  0  0
  -23.5746  -32.1833   23.6576 O   0  0  0  0  0  0
  -25.3868  -30.2952   19.6743 C   0  0  0  0  0  0
  -27.3925  -29.5258   22.1716 C   0  0  0  0  0  0
  -25.7585  -29.4534   21.8488 C   0  0  0  0  0  0
  -26.8050  -30.3509   18.7188 C   0  0  0  0  0  0
  -28.4518  -30.0614   21.0832 C   0  0  0  0  0  0
  -28.1542  -30.4674   19.5595 C   0  0  0  0  0  0
  -25.5710  -27.9715   22.5661 C   0  0  0  0  0  0
  -27.2118  -28.9496   17.5645 C   0  0  0  0  0  0
  -29.4556  -17.1427   19.7363 C   0  0  0  0  0  0
  -29.7683  -18.9708   19.2791 C   0  0  0  0  0  0
  -28.7807  -20.5754   18.9676 C   0  0  0  0  0  0
  -29.0444  -22.3944   18.4658 C   0  0  0  0  0  0
  -28.0367  -23.9835   18.1863 C   0  0  0  0  0  0
  -28.2712  -25.8229   17.7152 C   0  0  0  0  0  0
  -26.7420  -26.7801   22.5860 C   0  0  0  0  0  0
  -27.1935  -27.1920   17.5913 N   0  3  0  0  0  0
  -29.7465  -30.0978   21.4803 F   0  0  0  0  0  0
  -29.2616  -30.7271   18.8239 F   0  0  0  0  0  0
  -31.4538  -13.2029   19.0918 H   0  0  0  0  0  0
  -30.5809  -12.1392   20.1538 H   0  0  0  0  0  0
  -29.9630  -11.7327   17.7387 H   0  0  0  0  0  0
  -29.5300  -13.4144   17.5491 H   0  0  0  0  0  0
  -28.1080  -11.2864   19.1604 H   0  0  0  0  0  0
  -27.4347  -12.2475   17.8679 H   0  0  0  0  0  0
  -27.4585  -14.2230   19.2049 H   0  0  0  0  0  0
  -28.8971  -12.7695   21.4698 H   0  0  0  0  0  0
  -28.2753  -14.3989   21.5361 H   0  0  0  0  0  0
  -25.2791   -9.5688   22.4791 H   0  0  0  0  0  0
  -23.9999   -7.4663   22.7512 H   0  0  0  0  0  0
  -21.0878   -8.8830   19.8979 H   0  0  0  0  0  0
  -22.3764  -10.9700   19.6179 H   0  0  0  0  0  0
  -21.2024   -7.6156   23.9708 H   0  0  0  0  0  0
  -21.1466   -6.0532   25.9071 H   0  0  0  0  0  0
  -22.0604   -2.7615   23.2851 H   0  0  0  0  0  0
  -22.4037  -11.9840   22.4849 H   0  0  0  0  0  0
  -21.1041  -13.1220   22.2597 H   0  0  0  0  0  0
  -24.6390  -15.8563   20.5612 H   0  0  0  0  0  0
  -26.2561  -15.6543   20.1180 H   0  0  0  0  0  0
  -26.8326  -32.6947   23.3753 H   0  0  0  0  0  0
  -24.9936  -34.0705   25.0880 H   0  0  0  0  0  0
  -22.7579  -31.0552   20.9324 H   0  0  0  0  0  0
  -23.3627  -36.0175   23.3198 H   0  0  0  0  0  0
  -24.3567  -36.9316   22.1945 H   0  0  0  0  0  0
  -23.7238  -37.7060   23.6434 H   0  0  0  0  0  0
  -26.5199  -32.2180   20.3904 H   0  0  0  0  0  0
  -27.2417  -31.8653   21.7547 H   0  0  0  0  0  0
  -28.7537  -27.9293   20.3611 H   0  0  0  0  0  0
  -25.7833  -24.9678   20.1400 H   0  0  0  0  0  0
  -23.9325  -26.3179   19.3717 H   0  0  0  0  0  0
  -23.0206  -29.0362   19.5380 H   0  0  0  0  0  0
  -23.0376  -28.0734   20.8802 H   0  0  0  0  0  0
  -25.1076  -36.2569   25.0811 H   0  0  0  0  0  0
  -20.9833  -28.3929   24.1395 H   0  0  0  0  0  0
  -20.5997  -26.2889   23.3745 H   0  0  0  0  0  0
  -21.6856  -26.8067   22.1341 H   0  0  0  0  0  0
  -19.7193  -25.6441   21.1574 H   0  0  0  0  0  0
  -19.6826  -27.3279   20.6780 H   0  0  0  0  0  0
  -17.4401  -26.6786   21.4065 H   0  0  0  0  0  0
  -18.0446  -26.0211   22.9125 H   0  0  0  0  0  0
  -19.7745  -30.7656   24.2183 H   0  0  0  0  0  0
  -17.4789  -31.6379   24.5254 H   0  0  0  0  0  0
  -15.5226  -30.2950   23.7765 H   0  0  0  0  0  0
  -15.8701  -28.0840   22.7039 H   0  0  0  0  0  0
  -24.4923  -30.8011   25.7588 H   0  0  0  0  0  0
  -24.7408  -32.3663   26.5154 H   0  0  0  0  0  0
  -25.6216  -30.9639   27.0898 H   0  0  0  0  0  0
  -26.3262  -29.7801   24.4171 H   0  0  0  0  0  0
  -27.3476  -29.9268   25.8001 H   0  0  0  0  0  0
  -27.9456  -30.6095   24.3151 H   0  0  0  0  0  0
  -27.1396  -33.5061   26.3035 H   0  0  0  0  0  0
  -28.3313  -32.7818   25.2334 H   0  0  0  0  0  0
  -27.9073  -32.0087   26.7567 H   0  0  0  0  0  0
  -28.2503  -38.0426   24.7603 H   0  0  0  0  0  0
  -28.1138  -36.2983   24.5932 H   0  0  0  0  0  0
  -27.2342  -37.1429   25.8792 H   0  0  0  0  0  0
  -20.9462  -29.8113   21.5471 H   0  0  0  0  0  0
  -26.0202  -38.3270   24.1551 H   0  0  0  0  0  0
  -24.4943  -30.4171   19.0707 H   0  0  0  0  0  0
  -27.8435  -29.0308   23.0151 H   0  0  0  0  0  0
  -24.6479  -27.4769   22.2853 H   0  0  0  0  0  0
  -25.3964  -28.1356   23.6249 H   0  0  0  0  0  0
  -28.1907  -29.1950   17.1577 H   0  0  0  0  0  0
  -26.5463  -29.1600   16.7286 H   0  0  0  0  0  0
  -28.7692  -16.8404   18.9464 H   0  0  0  0  0  0
  -28.8237  -17.1979   20.6229 H   0  0  0  0  0  0
  -30.3887  -18.8926   18.3856 H   0  0  0  0  0  0
  -30.4838  -19.2860   20.0400 H   0  0  0  0  0  0
  -28.2248  -20.6850   19.8992 H   0  0  0  0  0  0
  -28.0211  -20.2461   18.2588 H   0  0  0  0  0  0
  -29.5893  -22.3043   17.5267 H   0  0  0  0  0  0
  -29.8131  -22.7213   19.1675 H   0  0  0  0  0  0
  -27.4945  -24.0251   19.1243 H   0  0  0  0  0  0
  -27.2803  -23.6628   17.4685 H   0  0  0  0  0  0
  -28.7349  -25.7924   16.7282 H   0  0  0  0  0  0
  -29.0821  -26.1787   18.3504 H   0  0  0  0  0  0
  -26.2218  -25.8766   22.9078 H   0  0  0  0  0  0
  -27.3939  -26.9892   23.4327 H   0  0  0  0  0  0
  -26.5675  -26.9448   16.8444 H   0  0  0  0  0  0
  -26.6495  -27.0776   18.4412 H   0  0  0  0  0  0
  1 25  1  0  0  0
  1 30  2  0  0  0
  1 79  1  0  0  0
  2  3  1  0  0  0
  2 25  1  0  0  0
  2 89  1  0  0  0
  2 90  1  0  0  0
  3  4  1  0  0  0
  3 91  1  0  0  0
  3 92  1  0  0  0
  4  5  1  0  0  0
  4 93  1  0  0  0
  4 94  1  0  0  0
  5  6  1  0  0  0
  5 26  1  0  0  0
  5 95  1  0  0  0
  6 25  1  0  0  0
  6 96  1  0  0  0
  6 97  1  0  0  0
  7  8  2  0  0  0
  7 26  1  0  0  0
  7 29  1  0  0  0
  8  9  1  0  0  0
  8 22  1  0  0  0
  9 10  1  0  0  0
  9 27  2  0  0  0
 10 11  2  0  0  0
 10 15  1  0  0  0
 11 12  1  0  0  0
 11 98  1  0  0  0
 12 13  2  0  0  0
 12 99  1  0  0  0
 13 14  1  0  0  0
 13 31  1  0  0  0
 14 15  2  0  0  0
 14100  1  0  0  0
 15101  1  0  0  0
 16 17  2  0  0  0
 16 21  1  0  0  0
 16 31  1  0  0  0
 17 18  1  0  0  0
 17102  1  0  0  0
 18 19  2  0  0  0
 18103  1  0  0  0
 19 20  1  0  0  0
 19 24  1  0  0  0
 20 21  2  0  0  0
 20104  1  0  0  0
 21 23  1  0  0  0
 22 28  1  0  0  0
 22 32  2  0  0  0
 26 27  1  0  0  0
 28105  1  0  0  0
 28106  1  0  0  0
 29107  1  0  0  0
 29108  1  0  0  0
 33 34  1  0  0  0
 33 66  1  0  0  0
 33 70  2  0  0  0
 34 36  1  0  0  0
 34 59  1  0  0  0
 34109  1  0  0  0
 35 44  2  0  0  0
 35 45  1  0  0  0
 35 68  1  0  0  0
 36 56  1  0  0  0
 36110  1  0  0  0
 37 39  1  0  0  0
 37 47  1  0  0  0
 37 66  1  0  0  0
 37111  1  0  0  0
 38 43  2  0  0  0
 38 46  1  0  0  0
 38 47  1  0  0  0
 39 64  1  0  0  0
 39 67  2  0  0  0
 40 52  1  0  0  0
 40 53  2  0  0  0
 40 58  1  0  0  0
 41112  1  0  0  0
 41113  1  0  0  0
 41114  1  0  0  0
 41 48  1  0  0  0
 42 43  1  0  0  0
 42 66  1  0  0  0
 42115  1  0  0  0
 42116  1  0  0  0
 43 44  1  0  0  0
 44117  1  0  0  0
 45 46  2  0  0  0
 45118  1  0  0  0
 46119  1  0  0  0
 47120  1  0  0  0
 47121  1  0  0  0
 48 56  1  0  0  0
 48 65  1  0  0  0
 48122  1  0  0  0
 49 50  1  0  0  0
 49 53  1  0  0  0
 49 64  1  0  0  0
 49123  1  0  0  0
 50 51  1  0  0  0
 50124  1  0  0  0
 50125  1  0  0  0
 51 52  1  0  0  0
 51126  1  0  0  0
 51127  1  0  0  0
 52128  1  0  0  0
 52129  1  0  0  0
 53 54  1  0  0  0
 54 55  2  0  0  0
 54130  1  0  0  0
 55 57  1  0  0  0
 55131  1  0  0  0
 56 69  2  0  0  0
 57 58  2  0  0  0
 57132  1  0  0  0
 58133  1  0  0  0
 59 60  1  0  0  0
 59 61  1  0  0  0
 59 62  1  0  0  0
 60134  1  0  0  0
 60135  1  0  0  0
 60136  1  0  0  0
 61137  1  0  0  0
 61138  1  0  0  0
 61139  1  0  0  0
 62140  1  0  0  0
 62141  1  0  0  0
 62142  1  0  0  0
 63 65  1  0  0  0
 63143  1  0  0  0
 63144  1  0  0  0
 63145  1  0  0  0
 64146  1  0  0  0
 65147  1  0  0  0
 68 85  1  0  0  0
 71 73  2  0  0  0
 71 74  1  0  0  0
 71148  1  0  0  0
 72 73  1  0  0  0
 72 75  2  0  0  0
 72149  1  0  0  0
 73 77  1  0  0  0
 74 76  2  0  0  0
 74 78  1  0  0  0
 75 76  1  0  0  0
 75 87  1  0  0  0
 76 88  1  0  0  0
 77 85  1  0  0  0
 77150  1  0  0  0
 77151  1  0  0  0
 78 86  1  0  0  0
 78152  1  0  0  0
 78153  1  0  0  0
 79 80  1  0  0  0
 79154  1  0  0  0
 79155  1  0  0  0
 80 81  1  0  0  0
 80156  1  0  0  0
 80157  1  0  0  0
 81 82  1  0  0  0
 81158  1  0  0  0
 81159  1  0  0  0
 82 83  1  0  0  0
 82160  1  0  0  0
 82161  1  0  0  0
 83 84  1  0  0  0
 83162  1  0  0  0
 83163  1  0  0  0
 84 86  1  0  0  0
 84164  1  0  0  0
 84165  1  0  0  0
 85166  1  0  0  0
 85167  1  0  0  0
 86168  1  0  0  0
 86169  1  0  0  0
M  CHG  1  86   1
M  ISO  4   1 100  68 101  79 100  85 101
M  END
> <chiral flag>
0

> <version>
0

> <s_m_source_file>
/data/baiqing/PycharmProjects/Reinvent-master-3.2/result/LINK_invent/BTK/process_docking_weight1_custom_sum_contain_oxygen_bond_distance_aromatic_linkinvent_7_9_3/rearranged_h_0032.sdf

> <i_m_source_file_index>
10

> <r_mmod_Potential_Energy-OPLS-2005>
14212.5478515625

> <r_mmod_Stretch_Energy-OPLS-2005>
7795.43505859375

> <r_mmod_Bend_Energy-OPLS-2005>
1212.26171875

> <r_mmod_Torsional_Energy-OPLS-2005>
600.009643554688

> <r_mmod_Improper_Torsional_Energy-OPLS-2005>
78.7463760375977

> <r_mmod_Van_der_Waal_Energy-OPLS-2005>
3453.89379882812

> <r_mmod_Electrostatic_Energy-OPLS-2005>
-322.434173583984

> <r_mmod_Solvation_Energy-OPLS-2005>
-399.389129638672

> <b_mmod_Minimization_Converged-OPLS-2005>
0

> <r_mmod_RMS_Derivative-OPLS-2005>
7.96732330322266

$$$$
10
                    3D
 Structure written by MMmdl.
170178  0  0  1  0            999 V2000
  -30.6993  -14.3833   20.6476 C   0  0  0  0  0  0
  -30.4559  -12.2829   19.3949 C   0  0  0  0  0  0
  -29.5234  -12.5513   18.2000 C   0  0  0  0  0  0
  -28.0400  -12.4199   18.6050 C   0  0  0  0  0  0
  -27.6894  -13.1969   19.9017 C   0  0  2  0  0  0
  -28.7220  -12.8780   21.0058 C   0  0  0  0  0  0
  -25.2723  -13.8107   20.5671 C   0  0  0  0  0  0
  -24.1949  -13.0425   20.9122 C   0  0  0  0  0  0
  -24.6478  -11.6862   20.8658 C   0  0  0  0  0  0
  -23.9122  -10.4262   21.0363 C   0  0  0  0  0  0
  -24.3643   -9.4178   21.9148 C   0  0  0  0  0  0
  -23.6304   -8.2231   22.0744 C   0  0  0  0  0  0
  -22.4276   -8.0279   21.3542 C   0  0  0  0  0  0
  -21.9931   -9.0239   20.4643 C   0  0  0  0  0  0
  -22.7276  -10.2111   20.3026 C   0  0  0  0  0  0
  -21.6856   -6.0731   22.5256 C   0  0  0  0  0  0
  -21.3999   -6.5633   23.8195 C   0  0  0  0  0  0
  -21.3668   -5.6792   24.9153 C   0  0  0  0  0  0
  -21.6057   -4.3066   24.7226 C   0  0  0  0  0  0
  -21.8819   -3.8149   23.4339 C   0  0  0  0  0  0
  -21.9189   -4.6967   22.3404 C   0  0  0  0  0  0
  -22.7978  -13.5213   21.1894 C   0  0  0  0  0  0
  -22.1665   -4.2142   21.0970 F   0  0  0  0  0  0
  -21.5633   -3.4544   25.7736 F   0  0  0  0  0  0
  -30.0642  -13.1965   20.4789 N   0  0  0  0  0  0
  -26.3190  -12.9269   20.3416 N   0  0  0  0  0  0
  -25.9408  -11.6422   20.5681 N   0  0  0  0  0  0
  -22.0698  -12.8102   22.0435 N   0  0  0  0  0  0
  -25.4517  -15.1832   20.4137 N   0  0  0  0  0  0
  -31.8002  -14.6338   20.1585 O   0  0  0  0  0  0
  -21.6632   -6.8887   21.4238 O   0  0  0  0  0  0
  -22.3655  -14.5594   20.6882 O   0  0  0  0  0  0
  -24.6027  -31.8802   23.2192 C   0  0  0  0  0  0
  -25.8965  -32.4888   23.8481 C   0  0  1  0  0  0
  -27.2440  -27.4970   20.1183 C   0  0  0  0  0  0
  -25.5867  -33.8690   24.2427 N   0  0  0  0  0  0
  -23.3870  -30.4937   21.5595 C   0  0  2  0  0  0
  -24.8413  -28.9591   20.1326 C   0  0  0  0  0  0
  -22.7333  -29.4704   22.5125 C   0  0  0  0  0  0
  -18.0237  -28.1362   22.8543 C   0  0  0  0  0  0
  -24.1473  -36.7291   23.2649 C   0  0  0  0  0  0
  -25.9057  -30.8544   21.3688 C   0  0  0  0  0  0
  -25.9885  -29.4853   20.7386 C   0  0  0  0  0  0
  -27.1907  -28.7533   20.7523 C   0  0  0  0  0  0
  -26.0927  -26.9729   19.5008 C   0  0  0  0  0  0
  -24.8822  -27.6923   19.5190 C   0  0  0  0  0  0
  -23.5919  -29.8087   20.1793 C   0  0  0  0  0  0
  -25.4105  -36.3157   24.0377 C   0  0  1  0  0  0
  -20.5814  -28.3622   23.1372 C   0  0  2  0  0  0
  -20.6729  -26.9380   22.5423 C   0  0  0  0  0  0
  -19.5691  -26.6367   21.5236 C   0  0  0  0  0  0
  -18.1861  -26.7931   22.1623 C   0  0  0  0  0  0
  -19.1499  -28.8822   23.2937 C   0  0  0  0  0  0
  -18.9437  -30.1444   23.8923 C   0  0  0  0  0  0
  -17.6459  -30.6608   24.0547 C   0  0  0  0  0  0
  -25.9023  -34.9514   23.5200 C   0  0  0  0  0  0
  -16.5334  -29.9096   23.6366 C   0  0  0  0  0  0
  -16.7239  -28.6475   23.0448 C   0  0  0  0  0  0
  -26.4428  -31.6644   25.0774 C   0  0  0  0  0  0
  -25.3684  -31.3724   26.1509 C   0  0  0  0  0  0
  -27.0303  -30.3130   24.6084 C   0  0  0  0  0  0
  -27.6076  -32.4339   25.7444 C   0  0  0  0  0  0
  -27.5610  -37.1768   24.8469 C   0  0  0  0  0  0
  -21.4080  -29.3031   22.3838 N   0  0  0  0  0  0
  -26.4298  -37.3832   23.9446 N   0  0  0  0  0  0
  -24.6490  -31.0912   22.1089 N   0  0  0  0  0  0
  -23.4153  -28.8272   23.3162 O   0  0  0  0  0  0
  -28.4105  -26.7952   20.0148 O   0  0  0  0  0  0
  -26.5558  -34.8945   22.4746 O   0  0  0  0  0  0
  -23.5238  -32.1550   23.7617 O   0  0  0  0  0  0
  -28.7547  -24.3009   22.5405 C   0  0  0  0  0  0
  -29.1471  -24.9332   21.3435 C   0  0  0  0  0  0
  -29.5611  -24.1276   20.2514 C   0  0  0  0  0  0
  -28.7465  -22.8997   22.6009 C   0  0  0  0  0  0
  -29.4757  -22.7246   20.3962 C   0  0  0  0  0  0
  -30.0222  -24.7705   18.9395 C   0  0  0  0  0  0
  -28.3653  -22.1767   23.8765 C   0  0  0  0  0  0
  -29.0751  -26.4463   21.2242 C   0  0  0  0  0  0
  -29.7348  -21.7654   19.2419 C   0  0  0  0  0  0
  -31.0487  -20.9810   19.3772 C   0  0  0  0  0  0
  -31.1726  -19.9100   18.2798 C   0  0  0  0  0  0
  -32.1047  -18.7443   18.6426 C   0  0  0  0  0  0
  -31.3519  -17.5096   19.1639 C   0  0  0  0  0  0
  -30.9052  -17.6121   20.6363 C   0  0  0  0  0  0
  -29.7203  -16.7117   21.0195 C   0  0  0  0  0  0
  -29.0839  -22.1295   21.5470 N   0  0  0  0  0  0
  -29.9408  -15.2880   21.2812 N   0  0  0  0  0  0
  -31.4950  -12.4291   19.0896 H   0  0  0  0  0  0
  -30.3807  -11.2431   19.7132 H   0  0  0  0  0  0
  -29.7562  -11.8714   17.3795 H   0  0  0  0  0  0
  -29.7161  -13.5594   17.8271 H   0  0  0  0  0  0
  -27.8297  -11.3591   18.7430 H   0  0  0  0  0  0
  -27.4116  -12.7661   17.7841 H   0  0  0  0  0  0
  -27.7691  -14.2624   19.6803 H   0  0  0  0  0  0
  -28.6811  -11.8212   21.2680 H   0  0  0  0  0  0
  -28.4821  -13.3991   21.9330 H   0  0  0  0  0  0
  -25.2798   -9.5620   22.4698 H   0  0  0  0  0  0
  -24.0008   -7.4620   22.7451 H   0  0  0  0  0  0
  -21.0845   -8.8743   19.8963 H   0  0  0  0  0  0
  -22.3733  -10.9622   19.6100 H   0  0  0  0  0  0
  -21.1967   -7.6130   23.9686 H   0  0  0  0  0  0
  -21.1494   -6.0530   25.9050 H   0  0  0  0  0  0
  -22.0593   -2.7617   23.2839 H   0  0  0  0  0  0
  -22.4325  -11.9613   22.4527 H   0  0  0  0  0  0
  -21.1372  -13.1130   22.2896 H   0  0  0  0  0  0
  -24.6998  -15.8489   20.5405 H   0  0  0  0  0  0
  -26.3053  -15.6133   20.0830 H   0  0  0  0  0  0
  -26.7022  -32.5653   23.1256 H   0  0  0  0  0  0
  -25.0133  -33.9892   25.0637 H   0  0  0  0  0  0
  -22.6698  -31.3065   21.4172 H   0  0  0  0  0  0
  -23.3829  -35.9523   23.3244 H   0  0  0  0  0  0
  -24.3597  -36.8973   22.2078 H   0  0  0  0  0  0
  -23.7079  -37.6416   23.6692 H   0  0  0  0  0  0
  -26.0046  -31.6090   20.5876 H   0  0  0  0  0  0
  -26.7974  -30.9277   21.9791 H   0  0  0  0  0  0
  -28.0717  -29.1648   21.2248 H   0  0  0  0  0  0
  -26.1437  -26.0095   19.0134 H   0  0  0  0  0  0
  -24.0027  -27.2749   19.0527 H   0  0  0  0  0  0
  -23.6676  -30.5715   19.4035 H   0  0  0  0  0  0
  -22.7237  -29.2021   19.9095 H   0  0  0  0  0  0
  -25.1267  -36.2059   25.0871 H   0  0  0  0  0  0
  -20.9885  -28.3152   24.1502 H   0  0  0  0  0  0
  -20.5676  -26.2236   23.3600 H   0  0  0  0  0  0
  -21.6597  -26.7465   22.1192 H   0  0  0  0  0  0
  -19.6848  -25.6274   21.1281 H   0  0  0  0  0  0
  -19.6645  -27.3177   20.6766 H   0  0  0  0  0  0
  -17.4165  -26.6796   21.3968 H   0  0  0  0  0  0
  -18.0177  -26.0008   22.8933 H   0  0  0  0  0  0
  -19.7924  -30.7253   24.2285 H   0  0  0  0  0  0
  -17.5020  -31.6323   24.5081 H   0  0  0  0  0  0
  -15.5349  -30.3015   23.7694 H   0  0  0  0  0  0
  -15.8609  -28.0775   22.7258 H   0  0  0  0  0  0
  -24.5821  -30.7133   25.7790 H   0  0  0  0  0  0
  -24.8882  -32.2870   26.5015 H   0  0  0  0  0  0
  -25.7990  -30.8804   27.0234 H   0  0  0  0  0  0
  -26.2851  -29.6812   24.1231 H   0  0  0  0  0  0
  -27.4259  -29.7440   25.4506 H   0  0  0  0  0  0
  -27.8579  -30.4557   23.9131 H   0  0  0  0  0  0
  -27.2834  -33.3712   26.1973 H   0  0  0  0  0  0
  -28.3851  -32.6770   25.0188 H   0  0  0  0  0  0
  -28.0748  -31.8457   26.5346 H   0  0  0  0  0  0
  -28.2589  -38.0110   24.7693 H   0  0  0  0  0  0
  -28.1162  -36.2676   24.6115 H   0  0  0  0  0  0
  -27.2347  -37.1193   25.8866 H   0  0  0  0  0  0
  -20.9245  -29.8734   21.7031 H   0  0  0  0  0  0
  -26.0229  -38.2923   24.1485 H   0  0  0  0  0  0
  -28.4453  -24.8831   23.3973 H   0  0  0  0  0  0
  -29.1564  -25.0078   18.3177 H   0  0  0  0  0  0
  -30.6870  -24.1379   18.3574 H   0  0  0  0  0  0
  -30.5755  -25.6959   19.1087 H   0  0  0  0  0  0
  -27.7437  -22.8054   24.5163 H   0  0  0  0  0  0
  -29.2622  -21.9119   24.4359 H   0  0  0  0  0  0
  -27.8141  -21.2591   23.6695 H   0  0  0  0  0  0
  -30.0919  -26.8395   21.1959 H   0  0  0  0  0  0
  -28.5952  -26.8701   22.1081 H   0  0  0  0  0  0
  -29.7009  -22.2609   18.2745 H   0  0  0  0  0  0
  -28.8908  -21.0762   19.2195 H   0  0  0  0  0  0
  -31.0767  -20.5380   20.3686 H   0  0  0  0  0  0
  -31.9150  -21.6429   19.3464 H   0  0  0  0  0  0
  -31.5410  -20.3935   17.3746 H   0  0  0  0  0  0
  -30.1875  -19.5209   18.0219 H   0  0  0  0  0  0
  -32.8789  -19.0678   19.3429 H   0  0  0  0  0  0
  -32.6327  -18.4365   17.7391 H   0  0  0  0  0  0
  -32.0138  -16.6607   19.0337 H   0  0  0  0  0  0
  -30.4953  -17.3035   18.5192 H   0  0  0  0  0  0
  -30.5080  -18.6112   20.7794 H   0  0  0  0  0  0
  -31.7491  -17.5305   21.3254 H   0  0  0  0  0  0
  -28.9618  -16.7825   20.2397 H   0  0  0  0  0  0
  -29.2528  -17.1243   21.9153 H   0  0  0  0  0  0
  -29.1466  -14.8463   21.7221 H   0  0  0  0  0  0
  1 25  1  0  0  0
  1 30  2  0  0  0
  1 87  1  0  0  0
  2  3  1  0  0  0
  2 25  1  0  0  0
  2 88  1  0  0  0
  2 89  1  0  0  0
  3  4  1  0  0  0
  3 90  1  0  0  0
  3 91  1  0  0  0
  4  5  1  0  0  0
  4 92  1  0  0  0
  4 93  1  0  0  0
  5  6  1  0  0  0
  5 26  1  0  0  0
  5 94  1  0  0  0
  6 25  1  0  0  0
  6 95  1  0  0  0
  6 96  1  0  0  0
  7  8  2  0  0  0
  7 26  1  0  0  0
  7 29  1  0  0  0
  8  9  1  0  0  0
  8 22  1  0  0  0
  9 10  1  0  0  0
  9 27  2  0  0  0
 10 11  2  0  0  0
 10 15  1  0  0  0
 11 12  1  0  0  0
 11 97  1  0  0  0
 12 13  2  0  0  0
 12 98  1  0  0  0
 13 14  1  0  0  0
 13 31  1  0  0  0
 14 15  2  0  0  0
 14 99  1  0  0  0
 15100  1  0  0  0
 16 17  2  0  0  0
 16 21  1  0  0  0
 16 31  1  0  0  0
 17 18  1  0  0  0
 17101  1  0  0  0
 18 19  2  0  0  0
 18102  1  0  0  0
 19 20  1  0  0  0
 19 24  1  0  0  0
 20 21  2  0  0  0
 20103  1  0  0  0
 21 23  1  0  0  0
 22 28  1  0  0  0
 22 32  2  0  0  0
 26 27  1  0  0  0
 28104  1  0  0  0
 28105  1  0  0  0
 29106  1  0  0  0
 29107  1  0  0  0
 33 34  1  0  0  0
 33 66  1  0  0  0
 33 70  2  0  0  0
 34 36  1  0  0  0
 34 59  1  0  0  0
 34108  1  0  0  0
 35 44  2  0  0  0
 35 45  1  0  0  0
 35 68  1  0  0  0
 36 56  1  0  0  0
 36109  1  0  0  0
 37 39  1  0  0  0
 37 47  1  0  0  0
 37 66  1  0  0  0
 37110  1  0  0  0
 38 43  2  0  0  0
 38 46  1  0  0  0
 38 47  1  0  0  0
 39 64  1  0  0  0
 39 67  2  0  0  0
 40 52  1  0  0  0
 40 53  2  0  0  0
 40 58  1  0  0  0
 41111  1  0  0  0
 41112  1  0  0  0
 41113  1  0  0  0
 41 48  1  0  0  0
 42 43  1  0  0  0
 42 66  1  0  0  0
 42114  1  0  0  0
 42115  1  0  0  0
 43 44  1  0  0  0
 44116  1  0  0  0
 45 46  2  0  0  0
 45117  1  0  0  0
 46118  1  0  0  0
 47119  1  0  0  0
 47120  1  0  0  0
 48 56  1  0  0  0
 48 65  1  0  0  0
 48121  1  0  0  0
 49 50  1  0  0  0
 49 53  1  0  0  0
 49 64  1  0  0  0
 49122  1  0  0  0
 50 51  1  0  0  0
 50123  1  0  0  0
 50124  1  0  0  0
 51 52  1  0  0  0
 51125  1  0  0  0
 51126  1  0  0  0
 52127  1  0  0  0
 52128  1  0  0  0
 53 54  1  0  0  0
 54 55  2  0  0  0
 54129  1  0  0  0
 55 57  1  0  0  0
 55130  1  0  0  0
 56 69  2  0  0  0
 57 58  2  0  0  0
 57131  1  0  0  0
 58132  1  0  0  0
 59 60  1  0  0  0
 59 61  1  0  0  0
 59 62  1  0  0  0
 60133  1  0  0  0
 60134  1  0  0  0
 60135  1  0  0  0
 61136  1  0  0  0
 61137  1  0  0  0
 61138  1  0  0  0
 62139  1  0  0  0
 62140  1  0  0  0
 62141  1  0  0  0
 63 65  1  0  0  0
 63142  1  0  0  0
 63143  1  0  0  0
 63144  1  0  0  0
 64145  1  0  0  0
 65146  1  0  0  0
 68 78  1  0  0  0
 71 72  2  0  0  0
 71 74  1  0  0  0
 71147  1  0  0  0
 72 73  1  0  0  0
 72 78  1  0  0  0
 73 75  2  0  0  0
 73 76  1  0  0  0
 74 77  1  0  0  0
 74 86  2  0  0  0
 75 79  1  0  0  0
 75 86  1  0  0  0
 76148  1  0  0  0
 76149  1  0  0  0
 76150  1  0  0  0
 77151  1  0  0  0
 77152  1  0  0  0
 77153  1  0  0  0
 78154  1  0  0  0
 78155  1  0  0  0
 79 80  1  0  0  0
 79156  1  0  0  0
 79157  1  0  0  0
 80 81  1  0  0  0
 80158  1  0  0  0
 80159  1  0  0  0
 81 82  1  0  0  0
 81160  1  0  0  0
 81161  1  0  0  0
 82 83  1  0  0  0
 82162  1  0  0  0
 82163  1  0  0  0
 83 84  1  0  0  0
 83164  1  0  0  0
 83165  1  0  0  0
 84 85  1  0  0  0
 84166  1  0  0  0
 84167  1  0  0  0
 85 87  1  0  0  0
 85168  1  0  0  0
 85169  1  0  0  0
 87170  1  0  0  0
M  ISO  4   1 100  68 101  78 101  87 100
M  END
> <chiral flag>
0

> <version>
0

> <s_m_source_file>
/data/baiqing/PycharmProjects/Reinvent-master-3.2/result/LINK_invent/BTK/process_docking_weight1_custom_sum_contain_oxygen_bond_distance_aromatic_linkinvent_7_9_3/rearranged_h_0032.sdf

> <i_m_source_file_index>
11

> <r_mmod_Potential_Energy-OPLS-2005>
-147.581756591797

> <r_mmod_Stretch_Energy-OPLS-2005>
32.2372245788574

> <r_mmod_Bend_Energy-OPLS-2005>
113.548751831055

> <r_mmod_Torsional_Energy-OPLS-2005>
258.453857421875

> <r_mmod_Improper_Torsional_Energy-OPLS-2005>
5.60463047027588

> <r_mmod_Van_der_Waal_Energy-OPLS-2005>
170.543151855469

> <r_mmod_Electrostatic_Energy-OPLS-2005>
-519.739013671875

> <r_mmod_Solvation_Energy-OPLS-2005>
-217.302505493164

> <b_mmod_Minimization_Converged-OPLS-2005>
0

> <r_mmod_RMS_Derivative-OPLS-2005>
5.82901287078857

$$$$
11
                    3D
 Structure written by MMmdl.
166174  0  0  1  0            999 V2000
  -30.7435  -14.3981   20.6526 C   0  0  0  0  0  0
  -30.4156  -12.3019   19.3924 C   0  0  0  0  0  0
  -29.4753  -12.5368   18.1913 C   0  0  0  0  0  0
  -28.0021  -12.3784   18.6147 C   0  0  0  0  0  0
  -27.6646  -13.2013   19.8877 C   0  0  2  0  0  0
  -28.7082  -12.9409   21.0005 C   0  0  0  0  0  0
  -25.2551  -13.8136   20.5637 C   0  0  0  0  0  0
  -24.1786  -13.0398   20.9101 C   0  0  0  0  0  0
  -24.6361  -11.6877   20.8705 C   0  0  0  0  0  0
  -23.9038  -10.4256   21.0402 C   0  0  0  0  0  0
  -24.3615   -9.4194   21.9185 C   0  0  0  0  0  0
  -23.6280   -8.2229   22.0778 C   0  0  0  0  0  0
  -22.4269   -8.0251   21.3549 C   0  0  0  0  0  0
  -21.9885   -9.0203   20.4658 C   0  0  0  0  0  0
  -22.7200  -10.2096   20.3070 C   0  0  0  0  0  0
  -21.6823   -6.0714   22.5254 C   0  0  0  0  0  0
  -21.4006   -6.5637   23.8188 C   0  0  0  0  0  0
  -21.3674   -5.6798   24.9160 C   0  0  0  0  0  0
  -21.6045   -4.3053   24.7212 C   0  0  0  0  0  0
  -21.8821   -3.8129   23.4335 C   0  0  0  0  0  0
  -21.9189   -4.6940   22.3384 C   0  0  0  0  0  0
  -22.7835  -13.5215   21.1761 C   0  0  0  0  0  0
  -22.1644   -4.2130   21.0956 F   0  0  0  0  0  0
  -21.5673   -3.4540   25.7728 F   0  0  0  0  0  0
  -30.0455  -13.2478   20.4582 N   0  0  0  0  0  0
  -26.3015  -12.9308   20.3445 N   0  0  0  0  0  0
  -25.9292  -11.6459   20.5787 N   0  0  0  0  0  0
  -22.0508  -12.8227   22.0369 N   0  0  0  0  0  0
  -25.4226  -15.1853   20.4052 N   0  0  0  0  0  0
  -31.8053  -14.6522   20.0779 O   0  0  0  0  0  0
  -21.6631   -6.8840   21.4219 O   0  0  0  0  0  0
  -22.3505  -14.5514   20.6604 O   0  0  0  0  0  0
  -24.6106  -31.8713   23.2139 C   0  0  0  0  0  0
  -25.9015  -32.4837   23.8425 C   0  0  1  0  0  0
  -27.2449  -27.4700   20.0988 C   0  0  0  0  0  0
  -25.5894  -33.8636   24.2348 N   0  0  0  0  0  0
  -23.3975  -30.4924   21.5533 C   0  0  2  0  0  0
  -24.8495  -28.9631   20.1193 C   0  0  0  0  0  0
  -22.7396  -29.4658   22.5015 C   0  0  0  0  0  0
  -18.0263  -28.1369   22.8492 C   0  0  0  0  0  0
  -24.1483  -36.7320   23.2639 C   0  0  0  0  0  0
  -25.9231  -30.8442   21.3674 C   0  0  0  0  0  0
  -26.0048  -29.4798   20.7208 C   0  0  0  0  0  0
  -27.2070  -28.7407   20.7171 C   0  0  0  0  0  0
  -26.0782  -26.9665   19.4904 C   0  0  0  0  0  0
  -24.8782  -27.7006   19.5025 C   0  0  0  0  0  0
  -23.6071  -29.8217   20.1685 C   0  0  0  0  0  0
  -25.4102  -36.3117   24.0340 C   0  0  1  0  0  0
  -20.5852  -28.3654   23.1331 C   0  0  2  0  0  0
  -20.6751  -26.9391   22.5425 C   0  0  0  0  0  0
  -19.5731  -26.6376   21.5218 C   0  0  0  0  0  0
  -18.1906  -26.7916   22.1624 C   0  0  0  0  0  0
  -19.1510  -28.8826   23.2907 C   0  0  0  0  0  0
  -18.9443  -30.1440   23.8907 C   0  0  0  0  0  0
  -17.6446  -30.6587   24.0552 C   0  0  0  0  0  0
  -25.9026  -34.9483   23.5140 C   0  0  0  0  0  0
  -16.5335  -29.9077   23.6340 C   0  0  0  0  0  0
  -16.7246  -28.6493   23.0356 C   0  0  0  0  0  0
  -26.4459  -31.6604   25.0744 C   0  0  0  0  0  0
  -25.3743  -31.3695   26.1509 C   0  0  0  0  0  0
  -27.0310  -30.3052   24.6109 C   0  0  0  0  0  0
  -27.6030  -32.4336   25.7507 C   0  0  0  0  0  0
  -27.5581  -37.1814   24.8464 C   0  0  0  0  0  0
  -21.4127  -29.3030   22.3756 N   0  0  0  0  0  0
  -26.4291  -37.3799   23.9408 N   0  0  0  0  0  0
  -24.6608  -31.0832   22.1033 N   0  0  0  0  0  0
  -23.4164  -28.8216   23.3069 O   0  0  0  0  0  0
  -28.3579  -26.6702   20.0082 O   0  0  0  0  0  0
  -26.5579  -34.8922   22.4692 O   0  0  0  0  0  0
  -23.5312  -32.1455   23.7551 O   0  0  0  0  0  0
  -29.6144  -21.3176   19.2659 C   0  0  0  0  0  0
  -28.8324  -22.0395   18.3275 C   0  0  0  0  0  0
  -30.3355  -22.2763   19.9422 C   0  0  0  0  0  0
  -29.1115  -23.3682   18.3696 C   0  0  0  0  0  0
  -31.3279  -22.1042   21.0529 C   0  0  0  0  0  0
  -28.6068  -24.4693   17.4874 C   0  0  0  0  0  0
  -29.6005  -19.7976   19.3506 C   0  0  0  0  0  0
  -30.2108  -19.0890   20.5779 C   0  0  0  0  0  0
  -29.9707  -17.5643   20.4679 C   0  0  0  0  0  0
  -30.0737  -25.4153   21.0784 C   0  0  0  0  0  0
  -30.6530  -24.8182   19.7725 C   0  0  0  0  0  0
  -30.5478  -16.7059   21.6128 C   0  0  0  0  0  0
  -29.4296  -26.8084   20.9244 C   0  0  0  0  0  0
  -30.0449  -23.5364   19.3896 N   0  0  0  0  0  0
  -30.1578  -15.2981   21.4569 N   0  0  0  0  0  0
  -27.7318  -21.3160   17.2114 Cl  0  0  0  0  0  0
  -31.4572  -12.4063   19.0805 H   0  0  0  0  0  0
  -30.3147  -11.2777   19.7529 H   0  0  0  0  0  0
  -29.7060  -11.8440   17.3805 H   0  0  0  0  0  0
  -29.6237  -13.5394   17.7846 H   0  0  0  0  0  0
  -27.8135  -11.3187   18.7980 H   0  0  0  0  0  0
  -27.3439  -12.6646   17.7944 H   0  0  0  0  0  0
  -27.7220  -14.2582   19.6179 H   0  0  0  0  0  0
  -28.6781  -11.8941   21.3057 H   0  0  0  0  0  0
  -28.4668  -13.5081   21.9005 H   0  0  0  0  0  0
  -25.2780   -9.5678   22.4723 H   0  0  0  0  0  0
  -23.9991   -7.4652   22.7526 H   0  0  0  0  0  0
  -21.0819   -8.8711   19.8977 H   0  0  0  0  0  0
  -22.3658  -10.9621   19.6176 H   0  0  0  0  0  0
  -21.1981   -7.6143   23.9672 H   0  0  0  0  0  0
  -21.1516   -6.0546   25.9069 H   0  0  0  0  0  0
  -22.0599   -2.7587   23.2840 H   0  0  0  0  0  0
  -22.4143  -11.9925   22.4779 H   0  0  0  0  0  0
  -21.1141  -13.1259   22.2578 H   0  0  0  0  0  0
  -24.6519  -15.8384   20.4992 H   0  0  0  0  0  0
  -26.2830  -15.6255   20.1018 H   0  0  0  0  0  0
  -26.7092  -32.5567   23.1207 H   0  0  0  0  0  0
  -25.0072  -33.9805   25.0514 H   0  0  0  0  0  0
  -22.6836  -31.3081   21.4144 H   0  0  0  0  0  0
  -23.3739  -35.9663   23.3313 H   0  0  0  0  0  0
  -24.3578  -36.8921   22.2053 H   0  0  0  0  0  0
  -23.7245  -37.6532   23.6646 H   0  0  0  0  0  0
  -26.0360  -31.6106   20.5992 H   0  0  0  0  0  0
  -26.8102  -30.8970   21.9875 H   0  0  0  0  0  0
  -28.0952  -29.1535   21.1739 H   0  0  0  0  0  0
  -26.0995  -25.9994   19.0081 H   0  0  0  0  0  0
  -23.9928  -27.2954   19.0318 H   0  0  0  0  0  0
  -23.7052  -30.5951   19.4059 H   0  0  0  0  0  0
  -22.7340  -29.2342   19.8798 H   0  0  0  0  0  0
  -25.1276  -36.1985   25.0836 H   0  0  0  0  0  0
  -20.9918  -28.3202   24.1459 H   0  0  0  0  0  0
  -20.5656  -26.2255   23.3602 H   0  0  0  0  0  0
  -21.6622  -26.7441   22.1218 H   0  0  0  0  0  0
  -19.6897  -25.6291   21.1235 H   0  0  0  0  0  0
  -19.6675  -27.3199   20.6751 H   0  0  0  0  0  0
  -17.4182  -26.6673   21.4015 H   0  0  0  0  0  0
  -18.0297  -26.0048   22.9007 H   0  0  0  0  0  0
  -19.7917  -30.7253   24.2269 H   0  0  0  0  0  0
  -17.5003  -31.6267   24.5150 H   0  0  0  0  0  0
  -15.5337  -30.2981   23.7665 H   0  0  0  0  0  0
  -15.8642  -28.0814   22.7077 H   0  0  0  0  0  0
  -24.5891  -30.7069   25.7847 H   0  0  0  0  0  0
  -24.8976  -32.2857   26.5009 H   0  0  0  0  0  0
  -25.8124  -30.8824   27.0231 H   0  0  0  0  0  0
  -26.2865  -29.6810   24.1151 H   0  0  0  0  0  0
  -27.4074  -29.7287   25.4568 H   0  0  0  0  0  0
  -27.8699  -30.4380   23.9270 H   0  0  0  0  0  0
  -27.2618  -33.3601   26.2133 H   0  0  0  0  0  0
  -28.3811  -32.6950   25.0327 H   0  0  0  0  0  0
  -28.0729  -31.8441   26.5388 H   0  0  0  0  0  0
  -28.2594  -38.0113   24.7511 H   0  0  0  0  0  0
  -28.1074  -36.2645   24.6280 H   0  0  0  0  0  0
  -27.2303  -37.1459   25.8868 H   0  0  0  0  0  0
  -20.9285  -29.8735   21.6972 H   0  0  0  0  0  0
  -26.0177  -38.2877   24.1408 H   0  0  0  0  0  0
  -32.2252  -21.6026   20.6900 H   0  0  0  0  0  0
  -30.9093  -21.4924   21.8504 H   0  0  0  0  0  0
  -31.6342  -23.0445   21.5094 H   0  0  0  0  0  0
  -27.6702  -24.1904   17.0038 H   0  0  0  0  0  0
  -29.3328  -24.6955   16.7068 H   0  0  0  0  0  0
  -28.4166  -25.3857   18.0306 H   0  0  0  0  0  0
  -30.0889  -19.4374   18.4447 H   0  0  0  0  0  0
  -28.5599  -19.4880   19.2639 H   0  0  0  0  0  0
  -29.7592  -19.4713   21.4953 H   0  0  0  0  0  0
  -31.2802  -19.2944   20.6367 H   0  0  0  0  0  0
  -30.3867  -17.2110   19.5231 H   0  0  0  0  0  0
  -28.8963  -17.3854   20.4072 H   0  0  0  0  0  0
  -30.8802  -25.4916   21.8080 H   0  0  0  0  0  0
  -29.3479  -24.7315   21.5176 H   0  0  0  0  0  0
  -31.7284  -24.6706   19.8800 H   0  0  0  0  0  0
  -30.5571  -25.5270   18.9498 H   0  0  0  0  0  0
  -30.1676  -17.0682   22.5698 H   0  0  0  0  0  0
  -31.6350  -16.7947   21.6599 H   0  0  0  0  0  0
  -30.1507  -27.5355   20.5487 H   0  0  0  0  0  0
  -29.0828  -27.1506   21.8996 H   0  0  0  0  0  0
  -29.3095  -14.9977   21.9126 H   0  0  0  0  0  0
  1 25  1  0  0  0
  1 30  2  0  0  0
  1 85  1  0  0  0
  2  3  1  0  0  0
  2 25  1  0  0  0
  2 87  1  0  0  0
  2 88  1  0  0  0
  3  4  1  0  0  0
  3 89  1  0  0  0
  3 90  1  0  0  0
  4  5  1  0  0  0
  4 91  1  0  0  0
  4 92  1  0  0  0
  5  6  1  0  0  0
  5 26  1  0  0  0
  5 93  1  0  0  0
  6 25  1  0  0  0
  6 94  1  0  0  0
  6 95  1  0  0  0
  7  8  2  0  0  0
  7 26  1  0  0  0
  7 29  1  0  0  0
  8  9  1  0  0  0
  8 22  1  0  0  0
  9 10  1  0  0  0
  9 27  2  0  0  0
 10 11  2  0  0  0
 10 15  1  0  0  0
 11 12  1  0  0  0
 11 96  1  0  0  0
 12 13  2  0  0  0
 12 97  1  0  0  0
 13 14  1  0  0  0
 13 31  1  0  0  0
 14 15  2  0  0  0
 14 98  1  0  0  0
 15 99  1  0  0  0
 16 17  2  0  0  0
 16 21  1  0  0  0
 16 31  1  0  0  0
 17 18  1  0  0  0
 17100  1  0  0  0
 18 19  2  0  0  0
 18101  1  0  0  0
 19 20  1  0  0  0
 19 24  1  0  0  0
 20 21  2  0  0  0
 20102  1  0  0  0
 21 23  1  0  0  0
 22 28  1  0  0  0
 22 32  2  0  0  0
 26 27  1  0  0  0
 28103  1  0  0  0
 28104  1  0  0  0
 29105  1  0  0  0
 29106  1  0  0  0
 33 34  1  0  0  0
 33 66  1  0  0  0
 33 70  2  0  0  0
 34 36  1  0  0  0
 34 59  1  0  0  0
 34107  1  0  0  0
 35 44  2  0  0  0
 35 45  1  0  0  0
 35 68  1  0  0  0
 36 56  1  0  0  0
 36108  1  0  0  0
 37 39  1  0  0  0
 37 47  1  0  0  0
 37 66  1  0  0  0
 37109  1  0  0  0
 38 43  2  0  0  0
 38 46  1  0  0  0
 38 47  1  0  0  0
 39 64  1  0  0  0
 39 67  2  0  0  0
 40 52  1  0  0  0
 40 53  2  0  0  0
 40 58  1  0  0  0
 41110  1  0  0  0
 41111  1  0  0  0
 41112  1  0  0  0
 41 48  1  0  0  0
 42 43  1  0  0  0
 42 66  1  0  0  0
 42113  1  0  0  0
 42114  1  0  0  0
 43 44  1  0  0  0
 44115  1  0  0  0
 45 46  2  0  0  0
 45116  1  0  0  0
 46117  1  0  0  0
 47118  1  0  0  0
 47119  1  0  0  0
 48 56  1  0  0  0
 48 65  1  0  0  0
 48120  1  0  0  0
 49 50  1  0  0  0
 49 53  1  0  0  0
 49 64  1  0  0  0
 49121  1  0  0  0
 50 51  1  0  0  0
 50122  1  0  0  0
 50123  1  0  0  0
 51 52  1  0  0  0
 51124  1  0  0  0
 51125  1  0  0  0
 52126  1  0  0  0
 52127  1  0  0  0
 53 54  1  0  0  0
 54 55  2  0  0  0
 54128  1  0  0  0
 55 57  1  0  0  0
 55129  1  0  0  0
 56 69  2  0  0  0
 57 58  2  0  0  0
 57130  1  0  0  0
 58131  1  0  0  0
 59 60  1  0  0  0
 59 61  1  0  0  0
 59 62  1  0  0  0
 60132  1  0  0  0
 60133  1  0  0  0
 60134  1  0  0  0
 61135  1  0  0  0
 61136  1  0  0  0
 61137  1  0  0  0
 62138  1  0  0  0
 62139  1  0  0  0
 62140  1  0  0  0
 63 65  1  0  0  0
 63141  1  0  0  0
 63142  1  0  0  0
 63143  1  0  0  0
 64144  1  0  0  0
 65145  1  0  0  0
 68 83  1  0  0  0
 71 72  1  0  0  0
 71 73  2  0  0  0
 71 77  1  0  0  0
 72 74  2  0  0  0
 72 86  1  0  0  0
 73 75  1  0  0  0
 73 84  1  0  0  0
 74 76  1  0  0  0
 74 84  1  0  0  0
 75146  1  0  0  0
 75147  1  0  0  0
 75148  1  0  0  0
 76149  1  0  0  0
 76150  1  0  0  0
 76151  1  0  0  0
 77 78  1  0  0  0
 77152  1  0  0  0
 77153  1  0  0  0
 78 79  1  0  0  0
 78154  1  0  0  0
 78155  1  0  0  0
 79 82  1  0  0  0
 79156  1  0  0  0
 79157  1  0  0  0
 80 81  1  0  0  0
 80 83  1  0  0  0
 80158  1  0  0  0
 80159  1  0  0  0
 81 84  1  0  0  0
 81160  1  0  0  0
 81161  1  0  0  0
 82 85  1  0  0  0
 82162  1  0  0  0
 82163  1  0  0  0
 83164  1  0  0  0
 83165  1  0  0  0
 85166  1  0  0  0
M  ISO  4   1 100  68 101  83 101  85 100
M  END
> <chiral flag>
0

> <version>
0

> <s_m_source_file>
/data/baiqing/PycharmProjects/Reinvent-master-3.2/result/LINK_invent/BTK/process_docking_weight1_custom_sum_contain_oxygen_bond_distance_aromatic_linkinvent_7_9_3/rearranged_h_0032.sdf

> <i_m_source_file_index>
12

> <r_mmod_Potential_Energy-OPLS-2005>
-105.890029907227

> <r_mmod_Stretch_Energy-OPLS-2005>
34.8155899047852

> <r_mmod_Bend_Energy-OPLS-2005>
118.571357727051

> <r_mmod_Torsional_Energy-OPLS-2005>
215.161087036133

> <r_mmod_Improper_Torsional_Energy-OPLS-2005>
2.72879838943481

> <r_mmod_Van_der_Waal_Energy-OPLS-2005>
126.116470336914

> <r_mmod_Electrostatic_Energy-OPLS-2005>
-400.690399169922

> <r_mmod_Solvation_Energy-OPLS-2005>
-209.572723388672

> <b_mmod_Minimization_Converged-OPLS-2005>
0

> <r_mmod_RMS_Derivative-OPLS-2005>
3.34582710266113

$$$$
12
                    3D
 Structure written by MMmdl.
151159  0  0  1  0            999 V2000
  -30.5882  -14.8113   20.4528 C   0  0  0  0  0  0
  -30.4414  -12.4878   19.5005 C   0  0  0  0  0  0
  -29.5250  -12.5030   18.2555 C   0  0  0  0  0  0
  -28.0521  -12.3129   18.6649 C   0  0  0  0  0  0
  -27.6417  -13.2343   19.8430 C   0  0  2  0  0  0
  -28.6808  -13.2112   20.9841 C   0  0  0  0  0  0
  -25.2533  -13.8194   20.5686 C   0  0  0  0  0  0
  -24.1818  -13.0440   20.9191 C   0  0  0  0  0  0
  -24.6406  -11.6919   20.8736 C   0  0  0  0  0  0
  -23.9081  -10.4295   21.0403 C   0  0  0  0  0  0
  -24.3621   -9.4212   21.9185 C   0  0  0  0  0  0
  -23.6290   -8.2251   22.0758 C   0  0  0  0  0  0
  -22.4280   -8.0283   21.3538 C   0  0  0  0  0  0
  -21.9916   -9.0259   20.4644 C   0  0  0  0  0  0
  -22.7250  -10.2138   20.3056 C   0  0  0  0  0  0
  -21.6851   -6.0740   22.5277 C   0  0  0  0  0  0
  -21.4012   -6.5637   23.8212 C   0  0  0  0  0  0
  -21.3664   -5.6787   24.9171 C   0  0  0  0  0  0
  -21.6044   -4.3052   24.7218 C   0  0  0  0  0  0
  -21.8821   -3.8149   23.4338 C   0  0  0  0  0  0
  -21.9190   -4.6969   22.3398 C   0  0  0  0  0  0
  -22.7843  -13.5229   21.1853 C   0  0  0  0  0  0
  -22.1659   -4.2150   21.0975 F   0  0  0  0  0  0
  -21.5632   -3.4539   25.7733 F   0  0  0  0  0  0
  -29.9852  -13.5658   20.4140 N   0  0  0  0  0  0
  -26.2946  -12.9398   20.3234 N   0  0  0  0  0  0
  -25.9335  -11.6542   20.5727 N   0  0  0  0  0  0
  -22.0480  -12.8221   22.0404 N   0  0  0  0  0  0
  -25.4249  -15.1915   20.4148 N   0  0  0  0  0  0
  -31.7687  -14.8891   20.1003 O   0  0  0  0  0  0
  -21.6634   -6.8885   21.4240 O   0  0  0  0  0  0
  -22.3530  -14.5531   20.6697 O   0  0  0  0  0  0
  -24.6359  -31.8513   23.1916 C   0  0  0  0  0  0
  -25.9162  -32.4732   23.8289 C   0  0  1  0  0  0
  -27.2301  -27.2190   20.1356 C   0  0  0  0  0  0
  -25.5944  -33.8529   24.2228 N   0  0  0  0  0  0
  -23.4360  -30.4703   21.5356 C   0  0  2  0  0  0
  -24.8868  -28.9056   20.1097 C   0  0  0  0  0  0
  -22.7541  -29.4577   22.4886 C   0  0  0  0  0  0
  -18.0308  -28.1387   22.8469 C   0  0  0  0  0  0
  -24.1497  -36.7274   23.2641 C   0  0  0  0  0  0
  -25.9838  -30.7508   21.3757 C   0  0  0  0  0  0
  -26.0594  -29.3671   20.7210 C   0  0  0  0  0  0
  -27.2336  -28.5382   20.7190 C   0  0  0  0  0  0
  -26.0306  -26.8328   19.4972 C   0  0  0  0  0  0
  -24.8794  -27.6480   19.4847 C   0  0  0  0  0  0
  -23.6575  -29.7969   20.1543 C   0  0  0  0  0  0
  -25.4120  -36.3050   24.0329 C   0  0  1  0  0  0
  -20.5913  -28.3708   23.1250 C   0  0  2  0  0  0
  -20.6788  -26.9420   22.5402 C   0  0  0  0  0  0
  -19.5766  -26.6379   21.5208 C   0  0  0  0  0  0
  -18.1941  -26.7922   22.1609 C   0  0  0  0  0  0
  -19.1560  -28.8866   23.2841 C   0  0  0  0  0  0
  -18.9479  -30.1455   23.8882 C   0  0  0  0  0  0
  -17.6474  -30.6583   24.0554 C   0  0  0  0  0  0
  -25.9066  -34.9422   23.5088 C   0  0  0  0  0  0
  -16.5368  -29.9082   23.6323 C   0  0  0  0  0  0
  -16.7290  -28.6495   23.0352 C   0  0  0  0  0  0
  -26.4517  -31.6577   25.0699 C   0  0  0  0  0  0
  -25.3721  -31.3717   26.1407 C   0  0  0  0  0  0
  -27.0389  -30.3003   24.6193 C   0  0  0  0  0  0
  -27.6075  -32.4320   25.7472 C   0  0  0  0  0  0
  -27.5584  -37.1784   24.8463 C   0  0  0  0  0  0
  -21.4248  -29.3045   22.3650 N   0  0  0  0  0  0
  -26.4289  -37.3761   23.9417 N   0  0  0  0  0  0
  -24.7041  -31.0437   22.0904 N   0  0  0  0  0  0
  -23.4220  -28.8127   23.3014 O   0  0  0  0  0  0
  -28.3241  -26.3086   20.1960 O   0  0  0  0  0  0
  -26.5643  -34.8914   22.4655 O   0  0  0  0  0  0
  -23.5506  -32.1351   23.7200 O   0  0  0  0  0  0
  -29.9132  -21.3791   21.5005 C   0  0  0  0  0  0
  -28.8438  -21.2825   19.3897 C   0  0  0  0  0  0
  -29.2783  -22.1257   20.4566 C   0  0  0  0  0  0
  -29.7898  -19.1252   20.3642 C   0  0  0  0  0  0
  -30.1615  -19.9585   21.4654 C   0  0  0  0  0  0
  -29.0854  -19.8545   19.3423 C   0  0  0  0  0  0
  -29.3045  -23.7520   20.4645 C   0  0  0  0  0  0
  -30.3730  -17.6170   20.1613 C   0  0  0  0  0  0
  -29.8113  -16.2053   20.7791 C   0  0  0  0  0  0
  -28.1154  -24.8028   20.0623 C   0  0  0  0  0  0
  -31.0270  -19.2603   22.7887 Cl  0  0  0  0  0  0
  -28.5562  -19.0140   17.9286 Cl  0  0  0  0  0  0
  -31.4837  -12.6099   19.2027 H   0  0  0  0  0  0
  -30.3907  -11.5214   20.0059 H   0  0  0  0  0  0
  -29.8250  -11.7178   17.5603 H   0  0  0  0  0  0
  -29.6422  -13.4474   17.7229 H   0  0  0  0  0  0
  -27.9287  -11.2693   18.9560 H   0  0  0  0  0  0
  -27.3947  -12.4675   17.8088 H   0  0  0  0  0  0
  -27.6249  -14.2449   19.4351 H   0  0  0  0  0  0
  -28.7233  -12.2273   21.4535 H   0  0  0  0  0  0
  -28.4015  -13.9154   21.7693 H   0  0  0  0  0  0
  -25.2764   -9.5683   22.4760 H   0  0  0  0  0  0
  -23.9988   -7.4648   22.7486 H   0  0  0  0  0  0
  -21.0843   -8.8786   19.8947 H   0  0  0  0  0  0
  -22.3710  -10.9678   19.6161 H   0  0  0  0  0  0
  -21.2004   -7.6145   23.9712 H   0  0  0  0  0  0
  -21.1483   -6.0519   25.9070 H   0  0  0  0  0  0
  -22.0596   -2.7611   23.2838 H   0  0  0  0  0  0
  -22.4084  -11.9877   22.4787 H   0  0  0  0  0  0
  -21.1105  -13.1266   22.2615 H   0  0  0  0  0  0
  -24.6632  -15.8494   20.5379 H   0  0  0  0  0  0
  -26.2819  -15.6312   20.1043 H   0  0  0  0  0  0
  -26.7231  -32.5381   23.1033 H   0  0  0  0  0  0
  -25.0081  -33.9639   25.0365 H   0  0  0  0  0  0
  -22.7338  -31.2926   21.3838 H   0  0  0  0  0  0
  -23.3765  -35.9600   23.3287 H   0  0  0  0  0  0
  -24.3590  -36.8920   22.2061 H   0  0  0  0  0  0
  -23.7237  -37.6458   23.6684 H   0  0  0  0  0  0
  -26.1240  -31.5089   20.6038 H   0  0  0  0  0  0
  -26.8599  -30.8053   22.0096 H   0  0  0  0  0  0
  -28.1302  -28.8866   21.2132 H   0  0  0  0  0  0
  -25.9559  -25.8700   19.0134 H   0  0  0  0  0  0
  -23.9840  -27.2894   18.9960 H   0  0  0  0  0  0
  -23.7802  -30.5691   19.3943 H   0  0  0  0  0  0
  -22.7759  -29.2298   19.8520 H   0  0  0  0  0  0
  -25.1297  -36.1904   25.0823 H   0  0  0  0  0  0
  -20.9984  -28.3296   24.1379 H   0  0  0  0  0  0
  -20.5706  -26.2319   23.3607 H   0  0  0  0  0  0
  -21.6650  -26.7445   22.1189 H   0  0  0  0  0  0
  -19.6930  -25.6287   21.1256 H   0  0  0  0  0  0
  -19.6712  -27.3170   20.6718 H   0  0  0  0  0  0
  -17.4209  -26.6675   21.4012 H   0  0  0  0  0  0
  -18.0332  -26.0070   22.9021 H   0  0  0  0  0  0
  -19.7963  -30.7260   24.2264 H   0  0  0  0  0  0
  -17.5037  -31.6277   24.5149 H   0  0  0  0  0  0
  -15.5365  -30.2977   23.7662 H   0  0  0  0  0  0
  -15.8685  -28.0814   22.7073 H   0  0  0  0  0  0
  -24.5912  -30.7064   25.7711 H   0  0  0  0  0  0
  -24.8882  -32.2874   26.4818 H   0  0  0  0  0  0
  -25.8014  -30.8897   27.0198 H   0  0  0  0  0  0
  -26.2979  -29.6715   24.1247 H   0  0  0  0  0  0
  -27.4120  -29.7307   25.4712 H   0  0  0  0  0  0
  -27.8834  -30.4293   23.9414 H   0  0  0  0  0  0
  -27.2703  -33.3652   26.1992 H   0  0  0  0  0  0
  -28.3900  -32.6829   25.0298 H   0  0  0  0  0  0
  -28.0718  -31.8470   26.5420 H   0  0  0  0  0  0
  -28.2575  -38.0108   24.7538 H   0  0  0  0  0  0
  -28.1104  -36.2637   24.6255 H   0  0  0  0  0  0
  -27.2301  -37.1385   25.8862 H   0  0  0  0  0  0
  -20.9454  -29.8775   21.6844 H   0  0  0  0  0  0
  -26.0177  -38.2835   24.1424 H   0  0  0  0  0  0
  -30.3002  -21.9244   22.3499 H   0  0  0  0  0  0
  -28.3643  -21.7429   18.5375 H   0  0  0  0  0  0
  -30.1643  -24.0191   19.8494 H   0  0  0  0  0  0
  -29.6097  -24.0315   21.4728 H   0  0  0  0  0  0
  -31.4190  -17.6794   20.4641 H   0  0  0  0  0  0
  -30.4480  -17.4614   19.0863 H   0  0  0  0  0  0
  -28.7776  -16.0911   20.4568 H   0  0  0  0  0  0
  -29.7755  -16.2947   21.8645 H   0  0  0  0  0  0
  -27.2358  -24.5413   20.6510 H   0  0  0  0  0  0
  -27.8515  -24.6050   19.0226 H   0  0  0  0  0  0
  1 25  1  0  0  0
  1 30  2  0  0  0
  1 79  1  0  0  0
  2  3  1  0  0  0
  2 25  1  0  0  0
  2 83  1  0  0  0
  2 84  1  0  0  0
  3  4  1  0  0  0
  3 85  1  0  0  0
  3 86  1  0  0  0
  4  5  1  0  0  0
  4 87  1  0  0  0
  4 88  1  0  0  0
  5  6  1  0  0  0
  5 26  1  0  0  0
  5 89  1  0  0  0
  6 25  1  0  0  0
  6 90  1  0  0  0
  6 91  1  0  0  0
  7  8  2  0  0  0
  7 26  1  0  0  0
  7 29  1  0  0  0
  8  9  1  0  0  0
  8 22  1  0  0  0
  9 10  1  0  0  0
  9 27  2  0  0  0
 10 11  2  0  0  0
 10 15  1  0  0  0
 11 12  1  0  0  0
 11 92  1  0  0  0
 12 13  2  0  0  0
 12 93  1  0  0  0
 13 14  1  0  0  0
 13 31  1  0  0  0
 14 15  2  0  0  0
 14 94  1  0  0  0
 15 95  1  0  0  0
 16 17  2  0  0  0
 16 21  1  0  0  0
 16 31  1  0  0  0
 17 18  1  0  0  0
 17 96  1  0  0  0
 18 19  2  0  0  0
 18 97  1  0  0  0
 19 20  1  0  0  0
 19 24  1  0  0  0
 20 21  2  0  0  0
 20 98  1  0  0  0
 21 23  1  0  0  0
 22 28  1  0  0  0
 22 32  2  0  0  0
 26 27  1  0  0  0
 28 99  1  0  0  0
 28100  1  0  0  0
 29101  1  0  0  0
 29102  1  0  0  0
 33 34  1  0  0  0
 33 66  1  0  0  0
 33 70  2  0  0  0
 34 36  1  0  0  0
 34 59  1  0  0  0
 34103  1  0  0  0
 35 44  2  0  0  0
 35 45  1  0  0  0
 35 68  1  0  0  0
 36 56  1  0  0  0
 36104  1  0  0  0
 37 39  1  0  0  0
 37 47  1  0  0  0
 37 66  1  0  0  0
 37105  1  0  0  0
 38 43  2  0  0  0
 38 46  1  0  0  0
 38 47  1  0  0  0
 39 64  1  0  0  0
 39 67  2  0  0  0
 40 52  1  0  0  0
 40 53  2  0  0  0
 40 58  1  0  0  0
 41106  1  0  0  0
 41107  1  0  0  0
 41108  1  0  0  0
 41 48  1  0  0  0
 42 43  1  0  0  0
 42 66  1  0  0  0
 42109  1  0  0  0
 42110  1  0  0  0
 43 44  1  0  0  0
 44111  1  0  0  0
 45 46  2  0  0  0
 45112  1  0  0  0
 46113  1  0  0  0
 47114  1  0  0  0
 47115  1  0  0  0
 48 56  1  0  0  0
 48 65  1  0  0  0
 48116  1  0  0  0
 49 50  1  0  0  0
 49 53  1  0  0  0
 49 64  1  0  0  0
 49117  1  0  0  0
 50 51  1  0  0  0
 50118  1  0  0  0
 50119  1  0  0  0
 51 52  1  0  0  0
 51120  1  0  0  0
 51121  1  0  0  0
 52122  1  0  0  0
 52123  1  0  0  0
 53 54  1  0  0  0
 54 55  2  0  0  0
 54124  1  0  0  0
 55 57  1  0  0  0
 55125  1  0  0  0
 56 69  2  0  0  0
 57 58  2  0  0  0
 57126  1  0  0  0
 58127  1  0  0  0
 59 60  1  0  0  0
 59 61  1  0  0  0
 59 62  1  0  0  0
 60128  1  0  0  0
 60129  1  0  0  0
 60130  1  0  0  0
 61131  1  0  0  0
 61132  1  0  0  0
 61133  1  0  0  0
 62134  1  0  0  0
 62135  1  0  0  0
 62136  1  0  0  0
 63 65  1  0  0  0
 63137  1  0  0  0
 63138  1  0  0  0
 63139  1  0  0  0
 64140  1  0  0  0
 65141  1  0  0  0
 68 80  1  0  0  0
 71 73  2  0  0  0
 71 75  1  0  0  0
 71142  1  0  0  0
 72 73  1  0  0  0
 72 76  2  0  0  0
 72143  1  0  0  0
 73 77  1  0  0  0
 74 75  2  0  0  0
 74 76  1  0  0  0
 74 78  1  0  0  0
 75 81  1  0  0  0
 76 82  1  0  0  0
 77 80  1  0  0  0
 77144  1  0  0  0
 77145  1  0  0  0
 78 79  1  0  0  0
 78146  1  0  0  0
 78147  1  0  0  0
 79148  1  0  0  0
 79149  1  0  0  0
 80150  1  0  0  0
 80151  1  0  0  0
M  ISO  4   1 100  68 101  79 100  80 101
M  END
> <chiral flag>
0

> <version>
0

> <s_m_source_file>
/data/baiqing/PycharmProjects/Reinvent-master-3.2/result/LINK_invent/BTK/process_docking_weight1_custom_sum_contain_oxygen_bond_distance_aromatic_linkinvent_7_9_3/rearranged_h_0032.sdf

> <i_m_source_file_index>
13

> <r_mmod_Potential_Energy-OPLS-2005>
290.734313964844

> <r_mmod_Stretch_Energy-OPLS-2005>
162.774215698242

> <r_mmod_Bend_Energy-OPLS-2005>
202.299331665039

> <r_mmod_Torsional_Energy-OPLS-2005>
184.71484375

> <r_mmod_Improper_Torsional_Energy-OPLS-2005>
6.04989862442017

> <r_mmod_Van_der_Waal_Energy-OPLS-2005>
129.756378173828

> <r_mmod_Electrostatic_Energy-OPLS-2005>
-316.218444824219

> <r_mmod_Solvation_Energy-OPLS-2005>
-191.83952331543

> <b_mmod_Minimization_Converged-OPLS-2005>
0

> <r_mmod_RMS_Derivative-OPLS-2005>
1.84772861003876

$$$$
13
                    3D
 Structure written by MMmdl.
180188  0  0  1  0            999 V2000
  -30.8705  -14.2819   20.6826 C   0  0  0  0  0  0
  -30.4003  -12.2479   19.3852 C   0  0  0  0  0  0
  -29.4835  -12.5303   18.1877 C   0  0  0  0  0  0
  -28.0127  -12.3843   18.6094 C   0  0  0  0  0  0
  -27.6769  -13.2105   19.8781 C   0  0  2  0  0  0
  -28.7248  -12.9944   20.9992 C   0  0  0  0  0  0
  -25.2660  -13.8163   20.5676 C   0  0  0  0  0  0
  -24.1918  -13.0450   20.9157 C   0  0  0  0  0  0
  -24.6473  -11.6908   20.8734 C   0  0  0  0  0  0
  -23.9124  -10.4291   21.0398 C   0  0  0  0  0  0
  -24.3656   -9.4204   21.9188 C   0  0  0  0  0  0
  -23.6317   -8.2254   22.0759 C   0  0  0  0  0  0
  -22.4304   -8.0307   21.3544 C   0  0  0  0  0  0
  -21.9954   -9.0280   20.4644 C   0  0  0  0  0  0
  -22.7296  -10.2145   20.3047 C   0  0  0  0  0  0
  -21.6866   -6.0761   22.5275 C   0  0  0  0  0  0
  -21.4018   -6.5649   23.8215 C   0  0  0  0  0  0
  -21.3652   -5.6800   24.9169 C   0  0  0  0  0  0
  -21.6046   -4.3065   24.7219 C   0  0  0  0  0  0
  -21.8817   -3.8161   23.4339 C   0  0  0  0  0  0
  -21.9188   -4.6980   22.3402 C   0  0  0  0  0  0
  -22.7929  -13.5234   21.1828 C   0  0  0  0  0  0
  -22.1665   -4.2172   21.0988 F   0  0  0  0  0  0
  -21.5619   -3.4553   25.7719 F   0  0  0  0  0  0
  -30.0793  -13.2039   20.4497 N   0  0  0  0  0  0
  -26.3147  -12.9362   20.3414 N   0  0  0  0  0  0
  -25.9416  -11.6509   20.5796 N   0  0  0  0  0  0
  -22.0559  -12.8204   22.0351 N   0  0  0  0  0  0
  -25.4374  -15.1900   20.4090 N   0  0  0  0  0  0
  -31.7804  -14.6463   19.9337 O   0  0  0  0  0  0
  -21.6646   -6.8918   21.4252 O   0  0  0  0  0  0
  -22.3602  -14.5545   20.6684 O   0  0  0  0  0  0
  -24.6100  -31.8708   23.2190 C   0  0  0  0  0  0
  -25.9026  -32.4822   23.8463 C   0  0  1  0  0  0
  -27.2116  -27.4749   20.0831 C   0  0  0  0  0  0
  -25.5937  -33.8620   24.2423 N   0  0  0  0  0  0
  -23.3967  -30.4999   21.5576 C   0  0  2  0  0  0
  -24.8356  -28.9764   20.1170 C   0  0  0  0  0  0
  -22.7382  -29.4668   22.4997 C   0  0  0  0  0  0
  -18.0285  -28.1351   22.8516 C   0  0  0  0  0  0
  -24.1469  -36.7278   23.2635 C   0  0  0  0  0  0
  -25.9296  -30.8475   21.3754 C   0  0  0  0  0  0
  -25.9991  -29.4971   20.6964 C   0  0  0  0  0  0
  -27.1996  -28.7572   20.6617 C   0  0  0  0  0  0
  -26.0321  -26.9527   19.5140 C   0  0  0  0  0  0
  -24.8428  -27.7001   19.5283 C   0  0  0  0  0  0
  -23.5969  -29.8388   20.1696 C   0  0  0  0  0  0
  -25.4081  -36.3107   24.0390 C   0  0  1  0  0  0
  -20.5897  -28.3613   23.1304 C   0  0  2  0  0  0
  -20.6796  -26.9345   22.5402 C   0  0  0  0  0  0
  -19.5769  -26.6359   21.5211 C   0  0  0  0  0  0
  -18.1941  -26.7937   22.1596 C   0  0  0  0  0  0
  -19.1552  -28.8803   23.2921 C   0  0  0  0  0  0
  -18.9469  -30.1421   23.8910 C   0  0  0  0  0  0
  -17.6467  -30.6570   24.0558 C   0  0  0  0  0  0
  -25.9008  -34.9463   23.5186 C   0  0  0  0  0  0
  -16.5351  -29.9052   23.6362 C   0  0  0  0  0  0
  -16.7279  -28.6460   23.0423 C   0  0  0  0  0  0
  -26.4379  -31.6572   25.0766 C   0  0  0  0  0  0
  -25.3548  -31.3594   26.1384 C   0  0  0  0  0  0
  -27.0308  -30.3029   24.6296 C   0  0  0  0  0  0
  -27.5895  -32.4303   25.7588 C   0  0  0  0  0  0
  -27.5634  -37.1728   24.8441 C   0  0  0  0  0  0
  -21.4136  -29.2966   22.3662 N   0  0  0  0  0  0
  -26.4280  -37.3790   23.9470 N   0  0  0  0  0  0
  -24.6627  -31.0857   22.1064 N   0  0  0  0  0  0
  -23.4162  -28.8222   23.3035 O   0  0  0  0  0  0
  -28.3667  -26.7378   20.1046 O   0  0  0  0  0  0
  -26.5483  -34.8899   22.4712 O   0  0  0  0  0  0
  -23.5286  -32.1410   23.7597 O   0  0  0  0  0  0
  -28.4693  -26.3180   22.9997 C   0  0  0  0  0  0
  -26.8159  -24.5660   22.6377 C   0  0  0  0  0  0
  -27.7974  -25.4469   22.1255 C   0  0  0  0  0  0
  -28.2031  -26.2999   24.3810 C   0  0  0  0  0  0
  -26.5727  -24.5043   24.0294 C   0  0  0  0  0  0
  -27.2465  -25.3984   24.8987 C   0  0  0  0  0  0
  -29.0091  -27.1989   25.2966 C   0  0  0  0  0  0
  -25.7168  -23.3720   24.5962 C   0  0  0  0  0  0
  -28.2307  -25.4295   20.6623 C   0  0  0  0  0  0
  -26.6281  -22.3269   25.2931 C   0  0  0  0  0  0
  -26.3618  -20.8343   25.0233 C   0  0  0  0  0  0
  -27.3865  -19.9751   25.8016 C   0  0  0  0  0  0
  -27.4114  -18.4744   25.4540 C   0  0  0  0  0  0
  -28.6603  -17.7781   26.0408 C   0  0  0  0  0  0
  -28.6932  -16.2498   25.8655 C   0  0  0  0  0  0
  -30.0940  -15.6348   26.0998 C   0  0  0  0  0  0
  -30.7311  -15.1038   24.8052 C   0  0  0  0  0  0
  -31.1972  -16.2243   23.8524 C   0  0  0  0  0  0
  -31.7116  -15.7242   22.4964 C   0  0  0  0  0  0
  -30.7480  -14.8066   21.8969 N   0  0  0  0  0  0
  -26.9542  -25.3630   26.6046 Cl  0  0  0  0  0  0
  -31.4504  -12.2869   19.0876 H   0  0  0  0  0  0
  -30.2425  -11.2301   19.7476 H   0  0  0  0  0  0
  -29.7130  -11.8533   17.3646 H   0  0  0  0  0  0
  -29.6688  -13.5393   17.8157 H   0  0  0  0  0  0
  -27.8207  -11.3261   18.7922 H   0  0  0  0  0  0
  -27.3578  -12.6754   17.7877 H   0  0  0  0  0  0
  -27.7250  -14.2599   19.5856 H   0  0  0  0  0  0
  -28.6574  -11.9835   21.4023 H   0  0  0  0  0  0
  -28.5030  -13.6656   21.8286 H   0  0  0  0  0  0
  -25.2812   -9.5655   22.4768 H   0  0  0  0  0  0
  -24.0008   -7.4636   22.7478 H   0  0  0  0  0  0
  -21.0895   -8.8819   19.8945 H   0  0  0  0  0  0
  -22.3794  -10.9690   19.6147 H   0  0  0  0  0  0
  -21.2028   -7.6159   23.9725 H   0  0  0  0  0  0
  -21.1471   -6.0532   25.9076 H   0  0  0  0  0  0
  -22.0605   -2.7629   23.2830 H   0  0  0  0  0  0
  -22.4163  -11.9840   22.4696 H   0  0  0  0  0  0
  -21.1173  -13.1202   22.2546 H   0  0  0  0  0  0
  -24.6734  -15.8483   20.5185 H   0  0  0  0  0  0
  -26.3052  -15.6303   20.1317 H   0  0  0  0  0  0
  -26.7126  -32.5520   23.1264 H   0  0  0  0  0  0
  -25.0377  -33.9780   25.0767 H   0  0  0  0  0  0
  -22.6847  -31.3162   21.4254 H   0  0  0  0  0  0
  -23.3791  -35.9549   23.3205 H   0  0  0  0  0  0
  -24.3633  -36.8964   22.2074 H   0  0  0  0  0  0
  -23.7072  -37.6425   23.6625 H   0  0  0  0  0  0
  -26.0780  -31.6403   20.6413 H   0  0  0  0  0  0
  -26.8066  -30.8632   22.0109 H   0  0  0  0  0  0
  -28.1080  -29.1567   21.0898 H   0  0  0  0  0  0
  -26.0321  -25.9743   19.0589 H   0  0  0  0  0  0
  -23.9422  -27.2906   19.0945 H   0  0  0  0  0  0
  -23.7031  -30.6211   19.4166 H   0  0  0  0  0  0
  -22.7203  -29.2579   19.8735 H   0  0  0  0  0  0
  -25.1222  -36.2007   25.0874 H   0  0  0  0  0  0
  -21.0028  -28.3191   24.1422 H   0  0  0  0  0  0
  -20.5746  -26.2169   23.3567 H   0  0  0  0  0  0
  -21.6652  -26.7404   22.1146 H   0  0  0  0  0  0
  -19.6901  -25.6289   21.1206 H   0  0  0  0  0  0
  -19.6771  -27.3197   20.6794 H   0  0  0  0  0  0
  -17.4221  -26.6748   21.3960 H   0  0  0  0  0  0
  -18.0292  -26.0044   22.8933 H   0  0  0  0  0  0
  -19.7942  -30.7248   24.2242 H   0  0  0  0  0  0
  -17.5017  -31.6264   24.5121 H   0  0  0  0  0  0
  -15.5360  -30.2943   23.7707 H   0  0  0  0  0  0
  -15.8674  -28.0741   22.7218 H   0  0  0  0  0  0
  -24.6062  -30.6597   25.7659 H   0  0  0  0  0  0
  -24.8267  -32.2607   26.4475 H   0  0  0  0  0  0
  -25.7842  -30.9066   27.0322 H   0  0  0  0  0  0
  -26.2799  -29.6269   24.2151 H   0  0  0  0  0  0
  -27.4671  -29.7960   25.4880 H   0  0  0  0  0  0
  -27.8331  -30.4202   23.9020 H   0  0  0  0  0  0
  -27.2500  -33.3618   26.2124 H   0  0  0  0  0  0
  -28.3725  -32.6826   25.0436 H   0  0  0  0  0  0
  -28.0526  -31.8454   26.5551 H   0  0  0  0  0  0
  -28.2458  -38.0202   24.7748 H   0  0  0  0  0  0
  -28.1325  -36.2742   24.5957 H   0  0  0  0  0  0
  -27.2371  -37.1015   25.8830 H   0  0  0  0  0  0
  -20.9243  -29.8505   21.6760 H   0  0  0  0  0  0
  -26.0209  -38.2864   24.1601 H   0  0  0  0  0  0
  -29.2150  -26.9856   22.5928 H   0  0  0  0  0  0
  -26.2898  -23.8951   21.9722 H   0  0  0  0  0  0
  -29.7110  -27.8137   24.7317 H   0  0  0  0  0  0
  -29.5864  -26.6019   26.0018 H   0  0  0  0  0  0
  -28.3626  -27.8596   25.8715 H   0  0  0  0  0  0
  -25.1116  -22.9160   23.8100 H   0  0  0  0  0  0
  -25.0074  -23.7905   25.3145 H   0  0  0  0  0  0
  -27.6033  -24.7811   20.0492 H   0  0  0  0  0  0
  -29.2308  -24.9919   20.6380 H   0  0  0  0  0  0
  -26.6518  -22.5181   26.3680 H   0  0  0  0  0  0
  -27.6484  -22.4988   24.9457 H   0  0  0  0  0  0
  -26.4744  -20.6580   23.9526 H   0  0  0  0  0  0
  -25.3416  -20.5530   25.2917 H   0  0  0  0  0  0
  -27.2173  -20.0868   26.8748 H   0  0  0  0  0  0
  -28.3850  -20.3755   25.6151 H   0  0  0  0  0  0
  -27.4178  -18.3539   24.3698 H   0  0  0  0  0  0
  -26.4970  -17.9968   25.8097 H   0  0  0  0  0  0
  -28.7429  -18.0043   27.1044 H   0  0  0  0  0  0
  -29.5469  -18.2080   25.5751 H   0  0  0  0  0  0
  -28.3258  -15.9742   24.8760 H   0  0  0  0  0  0
  -27.9888  -15.8015   26.5663 H   0  0  0  0  0  0
  -29.9966  -14.7986   26.7956 H   0  0  0  0  0  0
  -30.7688  -16.3408   26.5897 H   0  0  0  0  0  0
  -29.9961  -14.4604   24.3225 H   0  0  0  0  0  0
  -31.5770  -14.4539   25.0353 H   0  0  0  0  0  0
  -31.9810  -16.8090   24.3362 H   0  0  0  0  0  0
  -30.3771  -16.9166   23.6699 H   0  0  0  0  0  0
  -32.6736  -15.2191   22.6120 H   0  0  0  0  0  0
  -31.8934  -16.5674   21.8273 H   0  0  0  0  0  0
  -30.0392  -14.4145   22.4997 H   0  0  0  0  0  0
  1 25  1  0  0  0
  1 30  2  0  0  0
  1 90  1  0  0  0
  2  3  1  0  0  0
  2 25  1  0  0  0
  2 92  1  0  0  0
  2 93  1  0  0  0
  3  4  1  0  0  0
  3 94  1  0  0  0
  3 95  1  0  0  0
  4  5  1  0  0  0
  4 96  1  0  0  0
  4 97  1  0  0  0
  5  6  1  0  0  0
  5 26  1  0  0  0
  5 98  1  0  0  0
  6 25  1  0  0  0
  6 99  1  0  0  0
  6100  1  0  0  0
  7  8  2  0  0  0
  7 26  1  0  0  0
  7 29  1  0  0  0
  8  9  1  0  0  0
  8 22  1  0  0  0
  9 10  1  0  0  0
  9 27  2  0  0  0
 10 11  2  0  0  0
 10 15  1  0  0  0
 11 12  1  0  0  0
 11101  1  0  0  0
 12 13  2  0  0  0
 12102  1  0  0  0
 13 14  1  0  0  0
 13 31  1  0  0  0
 14 15  2  0  0  0
 14103  1  0  0  0
 15104  1  0  0  0
 16 17  2  0  0  0
 16 21  1  0  0  0
 16 31  1  0  0  0
 17 18  1  0  0  0
 17105  1  0  0  0
 18 19  2  0  0  0
 18106  1  0  0  0
 19 20  1  0  0  0
 19 24  1  0  0  0
 20 21  2  0  0  0
 20107  1  0  0  0
 21 23  1  0  0  0
 22 28  1  0  0  0
 22 32  2  0  0  0
 26 27  1  0  0  0
 28108  1  0  0  0
 28109  1  0  0  0
 29110  1  0  0  0
 29111  1  0  0  0
 33 34  1  0  0  0
 33 66  1  0  0  0
 33 70  2  0  0  0
 34 36  1  0  0  0
 34 59  1  0  0  0
 34112  1  0  0  0
 35 44  2  0  0  0
 35 45  1  0  0  0
 35 68  1  0  0  0
 36 56  1  0  0  0
 36113  1  0  0  0
 37 39  1  0  0  0
 37 47  1  0  0  0
 37 66  1  0  0  0
 37114  1  0  0  0
 38 43  2  0  0  0
 38 46  1  0  0  0
 38 47  1  0  0  0
 39 64  1  0  0  0
 39 67  2  0  0  0
 40 52  1  0  0  0
 40 53  2  0  0  0
 40 58  1  0  0  0
 41115  1  0  0  0
 41116  1  0  0  0
 41117  1  0  0  0
 41 48  1  0  0  0
 42 43  1  0  0  0
 42 66  1  0  0  0
 42118  1  0  0  0
 42119  1  0  0  0
 43 44  1  0  0  0
 44120  1  0  0  0
 45 46  2  0  0  0
 45121  1  0  0  0
 46122  1  0  0  0
 47123  1  0  0  0
 47124  1  0  0  0
 48 56  1  0  0  0
 48 65  1  0  0  0
 48125  1  0  0  0
 49 50  1  0  0  0
 49 53  1  0  0  0
 49 64  1  0  0  0
 49126  1  0  0  0
 50 51  1  0  0  0
 50127  1  0  0  0
 50128  1  0  0  0
 51 52  1  0  0  0
 51129  1  0  0  0
 51130  1  0  0  0
 52131  1  0  0  0
 52132  1  0  0  0
 53 54  1  0  0  0
 54 55  2  0  0  0
 54133  1  0  0  0
 55 57  1  0  0  0
 55134  1  0  0  0
 56 69  2  0  0  0
 57 58  2  0  0  0
 57135  1  0  0  0
 58136  1  0  0  0
 59 60  1  0  0  0
 59 61  1  0  0  0
 59 62  1  0  0  0
 60137  1  0  0  0
 60138  1  0  0  0
 60139  1  0  0  0
 61140  1  0  0  0
 61141  1  0  0  0
 61142  1  0  0  0
 62143  1  0  0  0
 62144  1  0  0  0
 62145  1  0  0  0
 63 65  1  0  0  0
 63146  1  0  0  0
 63147  1  0  0  0
 63148  1  0  0  0
 64149  1  0  0  0
 65150  1  0  0  0
 68 79  1  0  0  0
 71 73  2  0  0  0
 71 74  1  0  0  0
 71151  1  0  0  0
 72 73  1  0  0  0
 72 75  2  0  0  0
 72152  1  0  0  0
 73 79  1  0  0  0
 74 76  2  0  0  0
 74 77  1  0  0  0
 75 76  1  0  0  0
 75 78  1  0  0  0
 76 91  1  0  0  0
 77153  1  0  0  0
 77154  1  0  0  0
 77155  1  0  0  0
 78 80  1  0  0  0
 78156  1  0  0  0
 78157  1  0  0  0
 79158  1  0  0  0
 79159  1  0  0  0
 80 81  1  0  0  0
 80160  1  0  0  0
 80161  1  0  0  0
 81 82  1  0  0  0
 81162  1  0  0  0
 81163  1  0  0  0
 82 83  1  0  0  0
 82164  1  0  0  0
 82165  1  0  0  0
 83 84  1  0  0  0
 83166  1  0  0  0
 83167  1  0  0  0
 84 85  1  0  0  0
 84168  1  0  0  0
 84169  1  0  0  0
 85 86  1  0  0  0
 85170  1  0  0  0
 85171  1  0  0  0
 86 87  1  0  0  0
 86172  1  0  0  0
 86173  1  0  0  0
 87 88  1  0  0  0
 87174  1  0  0  0
 87175  1  0  0  0
 88 89  1  0  0  0
 88176  1  0  0  0
 88177  1  0  0  0
 89 90  1  0  0  0
 89178  1  0  0  0
 89179  1  0  0  0
 90180  1  0  0  0
M  ISO  4   1 100  68 101  79 101  90 100
M  END
> <chiral flag>
0

> <version>
0

> <s_m_source_file>
/data/baiqing/PycharmProjects/Reinvent-master-3.2/result/LINK_invent/BTK/process_docking_weight1_custom_sum_contain_oxygen_bond_distance_aromatic_linkinvent_7_9_3/rearranged_h_0032.sdf

> <i_m_source_file_index>
14

> <r_mmod_Potential_Energy-OPLS-2005>
0.265345454216003

> <r_mmod_Stretch_Energy-OPLS-2005>
33.8786582946777

> <r_mmod_Bend_Energy-OPLS-2005>
94.0909194946289

> <r_mmod_Torsional_Energy-OPLS-2005>
253.259658813477

> <r_mmod_Improper_Torsional_Energy-OPLS-2005>
5.50211763381958

> <r_mmod_Van_der_Waal_Energy-OPLS-2005>
148.750625610352

> <r_mmod_Electrostatic_Energy-OPLS-2005>
-358.841400146484

> <r_mmod_Solvation_Energy-OPLS-2005>
-188.64094543457

> <b_mmod_Minimization_Converged-OPLS-2005>
0

> <r_mmod_RMS_Derivative-OPLS-2005>
6.26023721694946

$$$$
14
                    3D
 Structure written by MMmdl.
145153  0  0  1  0            999 V2000
  -30.3059  -15.4865   20.3444 C   0  0  0  0  0  0
  -30.4486  -12.9560   19.5524 C   0  0  0  0  0  0
  -29.5583  -12.6289   18.3187 C   0  0  0  0  0  0
  -28.1150  -12.3048   18.7418 C   0  0  0  0  0  0
  -27.6083  -13.2932   19.8176 C   0  0  2  0  0  0
  -28.6288  -13.5368   20.9500 C   0  0  0  0  0  0
  -25.2381  -13.8266   20.5756 C   0  0  0  0  0  0
  -24.1745  -13.0436   20.9251 C   0  0  0  0  0  0
  -24.6422  -11.6939   20.8739 C   0  0  0  0  0  0
  -23.9116  -10.4294   21.0390 C   0  0  0  0  0  0
  -24.3652   -9.4209   21.9176 C   0  0  0  0  0  0
  -23.6313   -8.2250   22.0753 C   0  0  0  0  0  0
  -22.4293   -8.0289   21.3545 C   0  0  0  0  0  0
  -21.9938   -9.0264   20.4644 C   0  0  0  0  0  0
  -22.7280  -10.2135   20.3046 C   0  0  0  0  0  0
  -21.6859   -6.0742   22.5280 C   0  0  0  0  0  0
  -21.4019   -6.5644   23.8214 C   0  0  0  0  0  0
  -21.3660   -5.6795   24.9174 C   0  0  0  0  0  0
  -21.6043   -4.3058   24.7224 C   0  0  0  0  0  0
  -21.8819   -3.8151   23.4344 C   0  0  0  0  0  0
  -21.9194   -4.6969   22.3402 C   0  0  0  0  0  0
  -22.7759  -13.5178   21.1906 C   0  0  0  0  0  0
  -22.1662   -4.2155   21.0979 F   0  0  0  0  0  0
  -21.5627   -3.4540   25.7736 F   0  0  0  0  0  0
  -29.8447  -14.1115   20.3383 N   0  0  0  0  0  0
  -26.2817  -12.9570   20.3188 N   0  0  0  0  0  0
  -25.9365  -11.6658   20.5673 N   0  0  0  0  0  0
  -22.0425  -12.8153   22.0460 N   0  0  0  0  0  0
  -25.4010  -15.2008   20.4238 N   0  0  0  0  0  0
  -31.5268  -15.4998   20.1002 O   0  0  0  0  0  0
  -21.6649   -6.8890   21.4244 O   0  0  0  0  0  0
  -22.3430  -14.5478   20.6751 O   0  0  0  0  0  0
  -24.6766  -31.8085   23.1583 C   0  0  0  0  0  0
  -25.9382  -32.4511   23.8101 C   0  0  1  0  0  0
  -27.2264  -26.7844   20.2041 C   0  0  0  0  0  0
  -25.5991  -33.8332   24.1995 N   0  0  0  0  0  0
  -23.4992  -30.4138   21.5105 C   0  0  2  0  0  0
  -24.9565  -28.7724   20.1164 C   0  0  0  0  0  0
  -22.7735  -29.4361   22.4736 C   0  0  0  0  0  0
  -18.0335  -28.1417   22.8461 C   0  0  0  0  0  0
  -24.1494  -36.7171   23.2650 C   0  0  0  0  0  0
  -26.0764  -30.5683   21.4110 C   0  0  0  0  0  0
  -26.1443  -29.1423   20.7591 C   0  0  0  0  0  0
  -27.2683  -28.1741   20.7730 C   0  0  0  0  0  0
  -26.0065  -26.6051   19.5066 C   0  0  0  0  0  0
  -24.9218  -27.5274   19.4673 C   0  0  0  0  0  0
  -23.7488  -29.7175   20.1429 C   0  0  0  0  0  0
  -25.4141  -36.2921   24.0288 C   0  0  1  0  0  0
  -20.5967  -28.3773   23.1158 C   0  0  2  0  0  0
  -20.6804  -26.9440   22.5402 C   0  0  0  0  0  0
  -19.5779  -26.6374   21.5216 C   0  0  0  0  0  0
  -18.1962  -26.7947   22.1622 C   0  0  0  0  0  0
  -19.1599  -28.8919   23.2792 C   0  0  0  0  0  0
  -18.9506  -30.1504   23.8834 C   0  0  0  0  0  0
  -17.6497  -30.6603   24.0552 C   0  0  0  0  0  0
  -25.9117  -34.9308   23.4973 C   0  0  0  0  0  0
  -16.5386  -29.9086   23.6349 C   0  0  0  0  0  0
  -16.7315  -28.6507   23.0367 C   0  0  0  0  0  0
  -26.4584  -31.6512   25.0689 C   0  0  0  0  0  0
  -25.3670  -31.3807   26.1318 C   0  0  0  0  0  0
  -27.0505  -30.2860   24.6532 C   0  0  0  0  0  0
  -27.6046  -32.4355   25.7505 C   0  0  0  0  0  0
  -27.5565  -37.1743   24.8466 C   0  0  0  0  0  0
  -21.4390  -29.3035   22.3487 N   0  0  0  0  0  0
  -26.4273  -37.3673   23.9409 N   0  0  0  0  0  0
  -24.7733  -30.9609   22.0795 N   0  0  0  0  0  0
  -23.4214  -28.7951   23.3045 O   0  0  0  0  0  0
  -28.1919  -25.5950   20.2798 O   0  0  0  0  0  0
  -26.5746  -34.8871   22.4582 O   0  0  0  0  0  0
  -23.5803  -32.1121   23.6586 O   0  0  0  0  0  0
  -29.2066  -19.8933   21.4569 C   0  0  0  0  0  0
  -29.1113  -19.7622   19.2292 C   0  0  0  0  0  0
  -29.3549  -18.8733   20.3878 C   0  0  0  0  0  0
  -28.6209  -22.2533   20.2383 C   0  0  0  0  0  0
  -28.8790  -21.3785   21.4064 C   0  0  0  0  0  0
  -28.7886  -21.2474   19.1550 C   0  0  0  0  0  0
  -29.3566  -17.0424   20.5454 C   0  0  0  0  0  0
  -27.8549  -23.9193   20.1295 C   0  0  0  0  0  0
  -28.7042  -22.1400   22.9460 Cl  0  0  0  0  0  0
  -28.4984  -21.8324   17.5561 Cl  0  0  0  0  0  0
  -31.4544  -13.2008   19.2095 H   0  0  0  0  0  0
  -30.5681  -12.0756   20.1860 H   0  0  0  0  0  0
  -29.9807  -11.7975   17.7531 H   0  0  0  0  0  0
  -29.5535  -13.4872   17.6453 H   0  0  0  0  0  0
  -28.1057  -11.2912   19.1445 H   0  0  0  0  0  0
  -27.4511  -12.2991   17.8764 H   0  0  0  0  0  0
  -27.5008  -14.2413   19.2892 H   0  0  0  0  0  0
  -28.8379  -12.6212   21.5052 H   0  0  0  0  0  0
  -28.2239  -14.2477   21.6718 H   0  0  0  0  0  0
  -25.2793   -9.5682   22.4756 H   0  0  0  0  0  0
  -24.0015   -7.4643   22.7478 H   0  0  0  0  0  0
  -21.0867   -8.8790   19.8951 H   0  0  0  0  0  0
  -22.3740  -10.9674   19.6156 H   0  0  0  0  0  0
  -21.2014   -7.6153   23.9719 H   0  0  0  0  0  0
  -21.1482   -6.0525   25.9077 H   0  0  0  0  0  0
  -22.0596   -2.7613   23.2843 H   0  0  0  0  0  0
  -22.4065  -11.9824   22.4847 H   0  0  0  0  0  0
  -21.1035  -13.1151   22.2667 H   0  0  0  0  0  0
  -24.6324  -15.8512   20.5462 H   0  0  0  0  0  0
  -26.2493  -15.6474   20.1015 H   0  0  0  0  0  0
  -26.7460  -32.5009   23.0815 H   0  0  0  0  0  0
  -25.0065  -33.9384   25.0098 H   0  0  0  0  0  0
  -22.8203  -31.2493   21.3272 H   0  0  0  0  0  0
  -23.3773  -35.9483   23.3268 H   0  0  0  0  0  0
  -24.3566  -36.8870   22.2073 H   0  0  0  0  0  0
  -23.7236  -37.6334   23.6747 H   0  0  0  0  0  0
  -26.2714  -31.2994   20.6252 H   0  0  0  0  0  0
  -26.9303  -30.6326   22.0731 H   0  0  0  0  0  0
  -28.1627  -28.4605   21.3084 H   0  0  0  0  0  0
  -25.8496  -25.6602   19.0074 H   0  0  0  0  0  0
  -24.0236  -27.2363   18.9401 H   0  0  0  0  0  0
  -23.9167  -30.4804   19.3820 H   0  0  0  0  0  0
  -22.8556  -29.1793   19.8211 H   0  0  0  0  0  0
  -25.1347  -36.1694   25.0778 H   0  0  0  0  0  0
  -21.0052  -28.3391   24.1283 H   0  0  0  0  0  0
  -20.5674  -26.2395   23.3657 H   0  0  0  0  0  0
  -21.6667  -26.7393   22.1216 H   0  0  0  0  0  0
  -19.6935  -25.6268   21.1287 H   0  0  0  0  0  0
  -19.6719  -27.3150   20.6719 H   0  0  0  0  0  0
  -17.4231  -26.6690   21.4026 H   0  0  0  0  0  0
  -18.0353  -26.0105   22.9033 H   0  0  0  0  0  0
  -19.7981  -30.7339   24.2173 H   0  0  0  0  0  0
  -17.5047  -31.6276   24.5167 H   0  0  0  0  0  0
  -15.5383  -30.2967   23.7709 H   0  0  0  0  0  0
  -15.8716  -28.0804   22.7118 H   0  0  0  0  0  0
  -24.5877  -30.7133   25.7622 H   0  0  0  0  0  0
  -24.8833  -32.3022   26.4568 H   0  0  0  0  0  0
  -25.7865  -30.9088   27.0211 H   0  0  0  0  0  0
  -26.3207  -29.6496   24.1517 H   0  0  0  0  0  0
  -27.3956  -29.7278   25.5245 H   0  0  0  0  0  0
  -27.9179  -30.4005   24.0029 H   0  0  0  0  0  0
  -27.2597  -33.3720   26.1899 H   0  0  0  0  0  0
  -28.3953  -32.6811   25.0403 H   0  0  0  0  0  0
  -28.0607  -31.8603   26.5573 H   0  0  0  0  0  0
  -28.2555  -38.0064   24.7517 H   0  0  0  0  0  0
  -28.1089  -36.2588   24.6290 H   0  0  0  0  0  0
  -27.2280  -37.1376   25.8868 H   0  0  0  0  0  0
  -20.9677  -29.8701   21.6574 H   0  0  0  0  0  0
  -26.0107  -38.2724   24.1423 H   0  0  0  0  0  0
  -29.2806  -19.4943   22.4586 H   0  0  0  0  0  0
  -29.1000  -19.2554   18.2745 H   0  0  0  0  0  0
  -28.4671  -16.7937   19.9677 H   0  0  0  0  0  0
  -29.0234  -16.9271   21.5764 H   0  0  0  0  0  0
  -27.0178  -23.8078   20.8187 H   0  0  0  0  0  0
  -27.3790  -23.8792   19.1508 H   0  0  0  0  0  0
  1 25  1  0  0  0
  1 30  2  0  0  0
  1 77  1  0  0  0
  2  3  1  0  0  0
  2 25  1  0  0  0
  2 81  1  0  0  0
  2 82  1  0  0  0
  3  4  1  0  0  0
  3 83  1  0  0  0
  3 84  1  0  0  0
  4  5  1  0  0  0
  4 85  1  0  0  0
  4 86  1  0  0  0
  5  6  1  0  0  0
  5 26  1  0  0  0
  5 87  1  0  0  0
  6 25  1  0  0  0
  6 88  1  0  0  0
  6 89  1  0  0  0
  7  8  2  0  0  0
  7 26  1  0  0  0
  7 29  1  0  0  0
  8  9  1  0  0  0
  8 22  1  0  0  0
  9 10  1  0  0  0
  9 27  2  0  0  0
 10 11  2  0  0  0
 10 15  1  0  0  0
 11 12  1  0  0  0
 11 90  1  0  0  0
 12 13  2  0  0  0
 12 91  1  0  0  0
 13 14  1  0  0  0
 13 31  1  0  0  0
 14 15  2  0  0  0
 14 92  1  0  0  0
 15 93  1  0  0  0
 16 17  2  0  0  0
 16 21  1  0  0  0
 16 31  1  0  0  0
 17 18  1  0  0  0
 17 94  1  0  0  0
 18 19  2  0  0  0
 18 95  1  0  0  0
 19 20  1  0  0  0
 19 24  1  0  0  0
 20 21  2  0  0  0
 20 96  1  0  0  0
 21 23  1  0  0  0
 22 28  1  0  0  0
 22 32  2  0  0  0
 26 27  1  0  0  0
 28 97  1  0  0  0
 28 98  1  0  0  0
 29 99  1  0  0  0
 29100  1  0  0  0
 33 34  1  0  0  0
 33 66  1  0  0  0
 33 70  2  0  0  0
 34 36  1  0  0  0
 34 59  1  0  0  0
 34101  1  0  0  0
 35 44  2  0  0  0
 35 45  1  0  0  0
 35 68  1  0  0  0
 36 56  1  0  0  0
 36102  1  0  0  0
 37 39  1  0  0  0
 37 47  1  0  0  0
 37 66  1  0  0  0
 37103  1  0  0  0
 38 43  2  0  0  0
 38 46  1  0  0  0
 38 47  1  0  0  0
 39 64  1  0  0  0
 39 67  2  0  0  0
 40 52  1  0  0  0
 40 53  2  0  0  0
 40 58  1  0  0  0
 41104  1  0  0  0
 41105  1  0  0  0
 41106  1  0  0  0
 41 48  1  0  0  0
 42 43  1  0  0  0
 42 66  1  0  0  0
 42107  1  0  0  0
 42108  1  0  0  0
 43 44  1  0  0  0
 44109  1  0  0  0
 45 46  2  0  0  0
 45110  1  0  0  0
 46111  1  0  0  0
 47112  1  0  0  0
 47113  1  0  0  0
 48 56  1  0  0  0
 48 65  1  0  0  0
 48114  1  0  0  0
 49 50  1  0  0  0
 49 53  1  0  0  0
 49 64  1  0  0  0
 49115  1  0  0  0
 50 51  1  0  0  0
 50116  1  0  0  0
 50117  1  0  0  0
 51 52  1  0  0  0
 51118  1  0  0  0
 51119  1  0  0  0
 52120  1  0  0  0
 52121  1  0  0  0
 53 54  1  0  0  0
 54 55  2  0  0  0
 54122  1  0  0  0
 55 57  1  0  0  0
 55123  1  0  0  0
 56 69  2  0  0  0
 57 58  2  0  0  0
 57124  1  0  0  0
 58125  1  0  0  0
 59 60  1  0  0  0
 59 61  1  0  0  0
 59 62  1  0  0  0
 60126  1  0  0  0
 60127  1  0  0  0
 60128  1  0  0  0
 61129  1  0  0  0
 61130  1  0  0  0
 61131  1  0  0  0
 62132  1  0  0  0
 62133  1  0  0  0
 62134  1  0  0  0
 63 65  1  0  0  0
 63135  1  0  0  0
 63136  1  0  0  0
 63137  1  0  0  0
 64138  1  0  0  0
 65139  1  0  0  0
 68 78  1  0  0  0
 71 73  2  0  0  0
 71 75  1  0  0  0
 71140  1  0  0  0
 72 73  1  0  0  0
 72 76  2  0  0  0
 72141  1  0  0  0
 73 77  1  0  0  0
 74 75  2  0  0  0
 74 76  1  0  0  0
 74 78  1  0  0  0
 75 79  1  0  0  0
 76 80  1  0  0  0
 77142  1  0  0  0
 77143  1  0  0  0
 78144  1  0  0  0
 78145  1  0  0  0
M  ISO  4   1 100  68 101  77 100  78 101
M  END
> <chiral flag>
0

> <version>
0

> <s_m_source_file>
/data/baiqing/PycharmProjects/Reinvent-master-3.2/result/LINK_invent/BTK/process_docking_weight1_custom_sum_contain_oxygen_bond_distance_aromatic_linkinvent_7_9_3/rearranged_h_0032.sdf

> <i_m_source_file_index>
15

> <r_mmod_Potential_Energy-OPLS-2005>
2024.64038085938

> <r_mmod_Stretch_Energy-OPLS-2005>
817.527465820312

> <r_mmod_Bend_Energy-OPLS-2005>
622.031433105469

> <r_mmod_Torsional_Energy-OPLS-2005>
204.874069213867

> <r_mmod_Improper_Torsional_Energy-OPLS-2005>
10.0610322952271

> <r_mmod_Van_der_Waal_Energy-OPLS-2005>
126.404487609863

> <r_mmod_Electrostatic_Energy-OPLS-2005>
-267.807159423828

> <r_mmod_Solvation_Energy-OPLS-2005>
-204.887985229492

> <b_mmod_Minimization_Converged-OPLS-2005>
0

> <r_mmod_RMS_Derivative-OPLS-2005>
0.14315490424633

$$$$
15
                    3D
 Structure written by MMmdl.
174182  0  0  1  0            999 V2000
  -30.6800  -14.3964   20.6697 C   0  0  0  0  0  0
  -30.4271  -12.2929   19.3984 C   0  0  0  0  0  0
  -29.4903  -12.5432   18.1970 C   0  0  0  0  0  0
  -28.0062  -12.4087   18.5999 C   0  0  0  0  0  0
  -27.6642  -13.1978   19.8890 C   0  0  2  0  0  0
  -28.6964  -12.8844   20.9923 C   0  0  0  0  0  0
  -25.2570  -13.8131   20.5672 C   0  0  0  0  0  0
  -24.1807  -13.0409   20.9153 C   0  0  0  0  0  0
  -24.6355  -11.6861   20.8744 C   0  0  0  0  0  0
  -23.9035  -10.4233   21.0433 C   0  0  0  0  0  0
  -24.3582   -9.4143   21.9203 C   0  0  0  0  0  0
  -23.6267   -8.2178   22.0773 C   0  0  0  0  0  0
  -22.4246   -8.0228   21.3563 C   0  0  0  0  0  0
  -21.9881   -9.0197   20.4672 C   0  0  0  0  0  0
  -22.7208  -10.2077   20.3084 C   0  0  0  0  0  0
  -21.6824   -6.0722   22.5275 C   0  0  0  0  0  0
  -21.4006   -6.5651   23.8203 C   0  0  0  0  0  0
  -21.3663   -5.6818   24.9164 C   0  0  0  0  0  0
  -21.6034   -4.3078   24.7228 C   0  0  0  0  0  0
  -21.8818   -3.8154   23.4353 C   0  0  0  0  0  0
  -21.9188   -4.6957   22.3401 C   0  0  0  0  0  0
  -22.7846  -13.5220   21.1854 C   0  0  0  0  0  0
  -22.1664   -4.2137   21.0989 F   0  0  0  0  0  0
  -21.5608   -3.4573   25.7751 F   0  0  0  0  0  0
  -30.0374  -13.2153   20.4721 N   0  0  0  0  0  0
  -26.3008  -12.9280   20.3405 N   0  0  0  0  0  0
  -25.9262  -11.6440   20.5739 N   0  0  0  0  0  0
  -22.0506  -12.8203   22.0426 N   0  0  0  0  0  0
  -25.4374  -15.1848   20.4124 N   0  0  0  0  0  0
  -31.7398  -14.7076   20.1206 O   0  0  0  0  0  0
  -21.6617   -6.8826   21.4228 O   0  0  0  0  0  0
  -22.3532  -14.5514   20.6684 O   0  0  0  0  0  0
  -24.6102  -31.8721   23.2137 C   0  0  0  0  0  0
  -25.9021  -32.4851   23.8389 C   0  0  1  0  0  0
  -27.2458  -27.4771   20.0916 C   0  0  0  0  0  0
  -25.5888  -33.8631   24.2362 N   0  0  0  0  0  0
  -23.3956  -30.4982   21.5529 C   0  0  2  0  0  0
  -24.8430  -28.9633   20.1213 C   0  0  0  0  0  0
  -22.7357  -29.4740   22.5031 C   0  0  0  0  0  0
  -18.0256  -28.1362   22.8508 C   0  0  0  0  0  0
  -24.1486  -36.7330   23.2635 C   0  0  0  0  0  0
  -25.9205  -30.8512   21.3581 C   0  0  0  0  0  0
  -26.0008  -29.4855   20.7131 C   0  0  0  0  0  0
  -27.2025  -28.7482   20.6955 C   0  0  0  0  0  0
  -26.0722  -26.9681   19.4877 C   0  0  0  0  0  0
  -24.8719  -27.7001   19.5092 C   0  0  0  0  0  0
  -23.6020  -29.8249   20.1700 C   0  0  0  0  0  0
  -25.4104  -36.3128   24.0339 C   0  0  1  0  0  0
  -20.5868  -28.3681   23.1341 C   0  0  2  0  0  0
  -20.6785  -26.9432   22.5373 C   0  0  0  0  0  0
  -19.5717  -26.6352   21.5207 C   0  0  0  0  0  0
  -18.1891  -26.7893   22.1657 C   0  0  0  0  0  0
  -19.1519  -28.8816   23.2917 C   0  0  0  0  0  0
  -18.9463  -30.1429   23.8943 C   0  0  0  0  0  0
  -17.6484  -30.6574   24.0615 C   0  0  0  0  0  0
  -25.9030  -34.9489   23.5148 C   0  0  0  0  0  0
  -16.5355  -29.9098   23.6346 C   0  0  0  0  0  0
  -16.7258  -28.6524   23.0345 C   0  0  0  0  0  0
  -26.4453  -31.6609   25.0704 C   0  0  0  0  0  0
  -25.3733  -31.3717   26.1475 C   0  0  0  0  0  0
  -27.0296  -30.3060   24.6065 C   0  0  0  0  0  0
  -27.6048  -32.4303   25.7466 C   0  0  0  0  0  0
  -27.5584  -37.1819   24.8464 C   0  0  0  0  0  0
  -21.4096  -29.3109   22.3768 N   0  0  0  0  0  0
  -26.4301  -37.3813   23.9400 N   0  0  0  0  0  0
  -24.6602  -31.0870   22.1005 N   0  0  0  0  0  0
  -23.4143  -28.8289   23.3076 O   0  0  0  0  0  0
  -28.4479  -26.8069   20.0502 O   0  0  0  0  0  0
  -26.5587  -34.8942   22.4723 O   0  0  0  0  0  0
  -23.5310  -32.1431   23.7593 O   0  0  0  0  0  0
  -26.6292  -23.8741   20.5314 C   0  0  0  0  0  0
  -26.2291  -22.5666   18.5199 C   0  0  0  0  0  0
  -25.8307  -22.9549   19.8167 C   0  0  0  0  0  0
  -27.7832  -24.4343   19.9461 C   0  0  0  0  0  0
  -28.1797  -24.0382   18.6436 C   0  0  0  0  0  0
  -27.3916  -23.1032   17.9376 C   0  0  0  0  0  0
  -29.4091  -24.6312   17.9718 C   0  0  0  0  0  0
  -24.5385  -22.4036   20.4058 C   0  0  0  0  0  0
  -28.5120  -25.5367   20.6987 C   0  0  0  0  0  0
  -27.0497  -18.6627   22.8659 C   0  0  0  0  0  0
  -28.2333  -18.2624   21.9669 C   0  0  0  0  0  0
  -26.1063  -19.6717   22.1962 C   0  0  0  0  0  0
  -29.1588  -17.2272   22.6407 C   0  0  0  0  0  0
  -25.0041  -20.1823   23.1486 C   0  0  0  0  0  0
  -30.2522  -16.6505   21.7095 C   0  0  0  0  0  0
  -23.9628  -21.0777   22.4500 C   0  0  0  0  0  0
  -30.0058  -15.2331   21.4704 N   0  0  0  0  0  0
  -24.6061  -22.2772   21.8769 N   0  3  0  0  0  0
  -27.7261  -22.7440   16.6739 F   0  0  0  0  0  0
  -31.4701  -12.4224   19.1080 H   0  0  0  0  0  0
  -30.3473  -11.2612   19.7478 H   0  0  0  0  0  0
  -29.7267  -11.8545   17.3858 H   0  0  0  0  0  0
  -29.6689  -13.5444   17.8030 H   0  0  0  0  0  0
  -27.7888  -11.3497   18.7448 H   0  0  0  0  0  0
  -27.3673  -12.7427   17.7805 H   0  0  0  0  0  0
  -27.7359  -14.2606   19.6510 H   0  0  0  0  0  0
  -28.6561  -11.8226   21.2462 H   0  0  0  0  0  0
  -28.4395  -13.3919   21.9205 H   0  0  0  0  0  0
  -25.2720   -9.5589   22.4774 H   0  0  0  0  0  0
  -23.9974   -7.4579   22.7501 H   0  0  0  0  0  0
  -21.0797   -8.8708   19.9000 H   0  0  0  0  0  0
  -22.3671  -10.9607   19.6190 H   0  0  0  0  0  0
  -21.1994   -7.6161   23.9695 H   0  0  0  0  0  0
  -21.1514   -6.0558   25.9072 H   0  0  0  0  0  0
  -22.0598   -2.7616   23.2864 H   0  0  0  0  0  0
  -22.4174  -11.9858   22.4754 H   0  0  0  0  0  0
  -21.1164  -13.1266   22.2750 H   0  0  0  0  0  0
  -24.6857  -15.8567   20.5195 H   0  0  0  0  0  0
  -26.3069  -15.6124   20.1238 H   0  0  0  0  0  0
  -26.7120  -32.5579   23.1173 H   0  0  0  0  0  0
  -25.0037  -33.9783   25.0503 H   0  0  0  0  0  0
  -22.6840  -31.3141   21.4123 H   0  0  0  0  0  0
  -23.3739  -35.9680   23.3327 H   0  0  0  0  0  0
  -24.3598  -36.8901   22.2048 H   0  0  0  0  0  0
  -23.7225  -37.6540   23.6626 H   0  0  0  0  0  0
  -26.0234  -31.6173   20.5876 H   0  0  0  0  0  0
  -26.8117  -30.9088   21.9699 H   0  0  0  0  0  0
  -28.1004  -29.1583   21.1341 H   0  0  0  0  0  0
  -26.0741  -26.0245   18.9678 H   0  0  0  0  0  0
  -23.9879  -27.2967   19.0347 H   0  0  0  0  0  0
  -23.7011  -30.5942   19.4038 H   0  0  0  0  0  0
  -22.7275  -29.2403   19.8795 H   0  0  0  0  0  0
  -25.1280  -36.2025   25.0826 H   0  0  0  0  0  0
  -20.9961  -28.3258   24.1479 H   0  0  0  0  0  0
  -20.5799  -26.2308   23.3579 H   0  0  0  0  0  0
  -21.6639  -26.7548   22.1090 H   0  0  0  0  0  0
  -19.6882  -25.6220   21.1354 H   0  0  0  0  0  0
  -19.6609  -27.3039   20.6641 H   0  0  0  0  0  0
  -17.4113  -26.6550   21.4109 H   0  0  0  0  0  0
  -18.0380  -26.0065   22.9098 H   0  0  0  0  0  0
  -19.7950  -30.7231   24.2307 H   0  0  0  0  0  0
  -17.5055  -31.6264   24.5216 H   0  0  0  0  0  0
  -15.5337  -30.2990   23.7674 H   0  0  0  0  0  0
  -15.8628  -28.0888   22.7049 H   0  0  0  0  0  0
  -24.5870  -30.7114   25.7802 H   0  0  0  0  0  0
  -24.8975  -32.2893   26.4952 H   0  0  0  0  0  0
  -25.8075  -30.8838   27.0214 H   0  0  0  0  0  0
  -26.2857  -29.6809   24.1118 H   0  0  0  0  0  0
  -27.4087  -29.7288   25.4505 H   0  0  0  0  0  0
  -27.8680  -30.4398   23.9229 H   0  0  0  0  0  0
  -27.2680  -33.3570   26.2132 H   0  0  0  0  0  0
  -28.3823  -32.6899   25.0268 H   0  0  0  0  0  0
  -28.0777  -31.8367   26.5303 H   0  0  0  0  0  0
  -28.2621  -38.0098   24.7510 H   0  0  0  0  0  0
  -28.1051  -36.2624   24.6308 H   0  0  0  0  0  0
  -27.2305  -37.1508   25.8868 H   0  0  0  0  0  0
  -20.9244  -29.8805   21.6973 H   0  0  0  0  0  0
  -26.0198  -38.2906   24.1376 H   0  0  0  0  0  0
  -26.3359  -24.2145   21.5155 H   0  0  0  0  0  0
  -25.6275  -21.8733   17.9481 H   0  0  0  0  0  0
  -30.2212  -24.7977   18.6777 H   0  0  0  0  0  0
  -29.1605  -25.5873   17.5092 H   0  0  0  0  0  0
  -29.7965  -23.9711   17.1949 H   0  0  0  0  0  0
  -24.3658  -21.4244   19.9554 H   0  0  0  0  0  0
  -23.6989  -23.0474   20.1336 H   0  0  0  0  0  0
  -29.5596  -25.2579   20.8100 H   0  0  0  0  0  0
  -28.1302  -25.6281   21.7172 H   0  0  0  0  0  0
  -27.4337  -19.0925   23.7899 H   0  0  0  0  0  0
  -26.4798  -17.7789   23.1519 H   0  0  0  0  0  0
  -27.8511  -17.8715   21.0263 H   0  0  0  0  0  0
  -28.8145  -19.1494   21.7166 H   0  0  0  0  0  0
  -25.6610  -19.2220   21.3077 H   0  0  0  0  0  0
  -26.7004  -20.5110   21.8349 H   0  0  0  0  0  0
  -28.5419  -16.4213   23.0407 H   0  0  0  0  0  0
  -29.6297  -17.6838   23.5127 H   0  0  0  0  0  0
  -25.4576  -20.7293   23.9791 H   0  0  0  0  0  0
  -24.4866  -19.3350   23.6004 H   0  0  0  0  0  0
  -31.2416  -16.7712   22.1528 H   0  0  0  0  0  0
  -30.2676  -17.1823   20.7546 H   0  0  0  0  0  0
  -23.2125  -21.4044   23.1718 H   0  0  0  0  0  0
  -23.4130  -20.5030   21.7003 H   0  0  0  0  0  0
  -29.1693  -14.8454   21.8815 H   0  0  0  0  0  0
  -24.1995  -23.1006   22.2924 H   0  0  0  0  0  0
  -25.5782  -22.2521   22.1358 H   0  0  0  0  0  0
  1 25  1  0  0  0
  1 30  2  0  0  0
  1 87  1  0  0  0
  2  3  1  0  0  0
  2 25  1  0  0  0
  2 90  1  0  0  0
  2 91  1  0  0  0
  3  4  1  0  0  0
  3 92  1  0  0  0
  3 93  1  0  0  0
  4  5  1  0  0  0
  4 94  1  0  0  0
  4 95  1  0  0  0
  5  6  1  0  0  0
  5 26  1  0  0  0
  5 96  1  0  0  0
  6 25  1  0  0  0
  6 97  1  0  0  0
  6 98  1  0  0  0
  7  8  2  0  0  0
  7 26  1  0  0  0
  7 29  1  0  0  0
  8  9  1  0  0  0
  8 22  1  0  0  0
  9 10  1  0  0  0
  9 27  2  0  0  0
 10 11  2  0  0  0
 10 15  1  0  0  0
 11 12  1  0  0  0
 11 99  1  0  0  0
 12 13  2  0  0  0
 12100  1  0  0  0
 13 14  1  0  0  0
 13 31  1  0  0  0
 14 15  2  0  0  0
 14101  1  0  0  0
 15102  1  0  0  0
 16 17  2  0  0  0
 16 21  1  0  0  0
 16 31  1  0  0  0
 17 18  1  0  0  0
 17103  1  0  0  0
 18 19  2  0  0  0
 18104  1  0  0  0
 19 20  1  0  0  0
 19 24  1  0  0  0
 20 21  2  0  0  0
 20105  1  0  0  0
 21 23  1  0  0  0
 22 28  1  0  0  0
 22 32  2  0  0  0
 26 27  1  0  0  0
 28106  1  0  0  0
 28107  1  0  0  0
 29108  1  0  0  0
 29109  1  0  0  0
 33 34  1  0  0  0
 33 66  1  0  0  0
 33 70  2  0  0  0
 34 36  1  0  0  0
 34 59  1  0  0  0
 34110  1  0  0  0
 35 44  2  0  0  0
 35 45  1  0  0  0
 35 68  1  0  0  0
 36 56  1  0  0  0
 36111  1  0  0  0
 37 39  1  0  0  0
 37 47  1  0  0  0
 37 66  1  0  0  0
 37112  1  0  0  0
 38 43  2  0  0  0
 38 46  1  0  0  0
 38 47  1  0  0  0
 39 64  1  0  0  0
 39 67  2  0  0  0
 40 52  1  0  0  0
 40 53  2  0  0  0
 40 58  1  0  0  0
 41113  1  0  0  0
 41114  1  0  0  0
 41115  1  0  0  0
 41 48  1  0  0  0
 42 43  1  0  0  0
 42 66  1  0  0  0
 42116  1  0  0  0
 42117  1  0  0  0
 43 44  1  0  0  0
 44118  1  0  0  0
 45 46  2  0  0  0
 45119  1  0  0  0
 46120  1  0  0  0
 47121  1  0  0  0
 47122  1  0  0  0
 48 56  1  0  0  0
 48 65  1  0  0  0
 48123  1  0  0  0
 49 50  1  0  0  0
 49 53  1  0  0  0
 49 64  1  0  0  0
 49124  1  0  0  0
 50 51  1  0  0  0
 50125  1  0  0  0
 50126  1  0  0  0
 51 52  1  0  0  0
 51127  1  0  0  0
 51128  1  0  0  0
 52129  1  0  0  0
 52130  1  0  0  0
 53 54  1  0  0  0
 54 55  2  0  0  0
 54131  1  0  0  0
 55 57  1  0  0  0
 55132  1  0  0  0
 56 69  2  0  0  0
 57 58  2  0  0  0
 57133  1  0  0  0
 58134  1  0  0  0
 59 60  1  0  0  0
 59 61  1  0  0  0
 59 62  1  0  0  0
 60135  1  0  0  0
 60136  1  0  0  0
 60137  1  0  0  0
 61138  1  0  0  0
 61139  1  0  0  0
 61140  1  0  0  0
 62141  1  0  0  0
 62142  1  0  0  0
 62143  1  0  0  0
 63 65  1  0  0  0
 63144  1  0  0  0
 63145  1  0  0  0
 63146  1  0  0  0
 64147  1  0  0  0
 65148  1  0  0  0
 68 79  1  0  0  0
 71 73  2  0  0  0
 71 74  1  0  0  0
 71149  1  0  0  0
 72 73  1  0  0  0
 72 76  2  0  0  0
 72150  1  0  0  0
 73 78  1  0  0  0
 74 75  2  0  0  0
 74 79  1  0  0  0
 75 76  1  0  0  0
 75 77  1  0  0  0
 76 89  1  0  0  0
 77151  1  0  0  0
 77152  1  0  0  0
 77153  1  0  0  0
 78 88  1  0  0  0
 78154  1  0  0  0
 78155  1  0  0  0
 79156  1  0  0  0
 79157  1  0  0  0
 80 81  1  0  0  0
 80 82  1  0  0  0
 80158  1  0  0  0
 80159  1  0  0  0
 81 83  1  0  0  0
 81160  1  0  0  0
 81161  1  0  0  0
 82 84  1  0  0  0
 82162  1  0  0  0
 82163  1  0  0  0
 83 85  1  0  0  0
 83164  1  0  0  0
 83165  1  0  0  0
 84 86  1  0  0  0
 84166  1  0  0  0
 84167  1  0  0  0
 85 87  1  0  0  0
 85168  1  0  0  0
 85169  1  0  0  0
 86 88  1  0  0  0
 86170  1  0  0  0
 86171  1  0  0  0
 87172  1  0  0  0
 88173  1  0  0  0
 88174  1  0  0  0
M  CHG  1  88   1
M  ISO  4   1 100  68 101  79 101  87 100
M  END
> <chiral flag>
0

> <version>
0

> <s_m_source_file>
/data/baiqing/PycharmProjects/Reinvent-master-3.2/result/LINK_invent/BTK/process_docking_weight1_custom_sum_contain_oxygen_bond_distance_aromatic_linkinvent_7_9_3/rearranged_h_0032.sdf

> <i_m_source_file_index>
16

> <r_mmod_Potential_Energy-OPLS-2005>
-221.968307495117

> <r_mmod_Stretch_Energy-OPLS-2005>
32.926082611084

> <r_mmod_Bend_Energy-OPLS-2005>
91.2252807617188

> <r_mmod_Torsional_Energy-OPLS-2005>
257.141906738281

> <r_mmod_Improper_Torsional_Energy-OPLS-2005>
2.87053298950195

> <r_mmod_Van_der_Waal_Energy-OPLS-2005>
152.1767578125

> <r_mmod_Electrostatic_Energy-OPLS-2005>
-300.060241699219

> <r_mmod_Solvation_Energy-OPLS-2005>
-467.285858154297

> <b_mmod_Minimization_Converged-OPLS-2005>
0

> <r_mmod_RMS_Derivative-OPLS-2005>
5.08145713806152

$$$$
16
                    3D
 Structure written by MMmdl.
175184  0  0  1  0            999 V2000
  -30.7538  -13.8416   21.0905 C   0  0  0  0  0  0
  -30.4686  -12.5637   18.9902 C   0  0  0  0  0  0
  -29.3792  -12.8483   17.9409 C   0  0  0  0  0  0
  -27.9024  -12.8374   18.4280 C   0  0  0  0  0  0
  -27.6798  -13.1165   19.9235 C   0  0  2  0  0  0
  -28.7783  -12.3622   20.6440 C   0  0  0  0  0  0
  -25.3194  -13.7353   20.5939 C   0  0  0  0  0  0
  -24.2309  -12.9696   20.9197 C   0  0  0  0  0  0
  -24.6802  -11.6358   20.8612 C   0  0  0  0  0  0
  -23.8775  -10.3989   20.9820 C   0  0  0  0  0  0
  -24.2930   -9.4255   21.8901 C   0  0  0  0  0  0
  -23.6021   -8.2052   22.0671 C   0  0  0  0  0  0
  -22.4136   -7.9879   21.3251 C   0  0  0  0  0  0
  -21.9331   -8.9851   20.4372 C   0  0  0  0  0  0
  -22.6491  -10.1858   20.2826 C   0  0  0  0  0  0
  -21.6786   -6.0573   22.5393 C   0  0  0  0  0  0
  -21.4057   -6.5675   23.8176 C   0  0  0  0  0  0
  -21.3633   -5.6895   24.9239 C   0  0  0  0  0  0
  -21.6034   -4.3144   24.7336 C   0  0  0  0  0  0
  -21.8858   -3.8094   23.4396 C   0  0  0  0  0  0
  -21.9243   -4.6822   22.3505 C   0  0  0  0  0  0
  -22.8353  -13.4560   21.1570 C   0  0  0  0  0  0
  -22.1671   -4.2141   21.0936 F   0  0  0  0  0  0
  -21.5526   -3.4588   25.7663 F   0  0  0  0  0  0
  -30.0897  -12.9346   20.3369 N   0  0  0  0  0  0
  -26.3600  -12.8321   20.4038 N   0  0  0  0  0  0
  -25.9920  -11.5486   20.6614 N   0  0  0  0  0  0
  -22.0970  -12.7984   22.0055 N   0  0  0  0  0  0
  -25.4771  -15.1051   20.4903 N   0  0  0  0  0  0
  -31.6432  -14.5583   20.6157 O   0  0  0  0  0  0
  -21.6499   -6.8483   21.4231 O   0  0  0  0  0  0
  -22.4268  -14.5434   20.7070 O   0  0  0  0  0  0
  -24.6489  -31.8391   23.1820 C   0  0  0  0  0  0
  -25.9237  -32.4648   23.8217 C   0  0  1  0  0  0
  -27.1794  -27.0649   20.3532 C   0  0  0  0  0  0
  -25.5954  -33.8459   24.2121 N   0  0  0  0  0  0
  -23.4534  -30.4542   21.5231 C   0  0  2  0  0  0
  -24.9118  -28.8636   20.1141 C   0  0  0  0  0  0
  -22.7619  -29.4544   22.4781 C   0  0  0  0  0  0
  -18.0308  -28.1398   22.8450 C   0  0  0  0  0  0
  -24.1495  -36.7235   23.2636 C   0  0  0  0  0  0
  -26.0036  -30.7009   21.3972 C   0  0  0  0  0  0
  -26.0724  -29.3037   20.7679 C   0  0  0  0  0  0
  -27.2087  -28.4254   20.8559 C   0  0  0  0  0  0
  -26.0179  -26.7380   19.6084 C   0  0  0  0  0  0
  -24.9062  -27.6012   19.4932 C   0  0  0  0  0  0
  -23.6917  -29.7674   20.1447 C   0  0  0  0  0  0
  -25.4132  -36.3003   24.0309 C   0  0  1  0  0  0
  -20.5938  -28.3759   23.1184 C   0  0  2  0  0  0
  -20.6801  -26.9433   22.5406 C   0  0  0  0  0  0
  -19.5779  -26.6377   21.5210 C   0  0  0  0  0  0
  -18.1950  -26.7938   22.1615 C   0  0  0  0  0  0
  -19.1561  -28.8892   23.2813 C   0  0  0  0  0  0
  -18.9494  -30.1482   23.8852 C   0  0  0  0  0  0
  -17.6494  -30.6597   24.0551 C   0  0  0  0  0  0
  -25.9099  -34.9386   23.5041 C   0  0  0  0  0  0
  -16.5381  -29.9079   23.6327 C   0  0  0  0  0  0
  -16.7302  -28.6490   23.0355 C   0  0  0  0  0  0
  -26.4538  -31.6529   25.0674 C   0  0  0  0  0  0
  -25.3706  -31.3739   26.1347 C   0  0  0  0  0  0
  -27.0420  -30.2913   24.6315 C   0  0  0  0  0  0
  -27.6059  -32.4308   25.7466 C   0  0  0  0  0  0
  -27.5593  -37.1760   24.8461 C   0  0  0  0  0  0
  -21.4319  -29.3076   22.3555 N   0  0  0  0  0  0
  -26.4292  -37.3736   23.9426 N   0  0  0  0  0  0
  -24.7183  -31.0266   22.0855 N   0  0  0  0  0  0
  -23.4200  -28.8127   23.2986 O   0  0  0  0  0  0
  -28.1547  -26.0355   20.6102 O   0  0  0  0  0  0
  -26.5702  -34.8895   22.4634 O   0  0  0  0  0  0
  -23.5617  -32.1275   23.6969 O   0  0  0  0  0  0
  -30.5654  -16.2823   23.3913 C   0  0  0  0  0  0
  -28.4895  -17.1869   24.9300 C   0  0  0  0  0  0
  -30.2571  -17.6528   23.3587 C   0  0  0  0  0  0
  -29.0839  -18.1456   23.9941 C   0  0  0  0  0  0
  -28.9019  -15.8142   25.0608 C   0  0  0  0  0  0
  -29.8384  -15.3583   24.1044 C   0  0  0  0  0  0
  -31.3753  -18.5469   22.8247 C   0  0  0  0  0  0
  -31.0128  -19.5337   21.7235 C   0  0  0  0  0  0
  -29.5246  -19.9322   21.6020 C   0  0  0  0  0  0
  -28.6099  -19.6923   23.9893 C   0  0  0  0  0  0
  -28.5649  -15.0068   26.3322 C   0  0  0  0  0  0
  -29.2298  -20.2099   25.2945 C   0  0  0  0  0  0
  -27.0593  -19.7025   24.1777 C   0  0  0  0  0  0
  -30.1891  -13.9080   23.7829 C   0  0  0  0  0  0
  -28.6738  -23.2893   21.5814 C   0  0  0  0  0  0
  -28.1285  -21.9250   22.4217 C   0  0  0  0  0  0
  -27.7213  -24.6322   21.1673 C   0  0  0  0  0  0
  -30.2885  -13.5826   22.3688 N   0  0  0  0  0  0
  -29.0235  -20.6817   22.8058 N   0  3  2  0  0  0
  -31.2906  -13.1771   18.5924 H   0  0  0  0  0  0
  -30.8817  -11.5954   18.9066 H   0  0  0  0  0  0
  -29.4698  -12.2778   17.0212 H   0  0  0  0  0  0
  -29.5166  -13.8971   17.6012 H   0  0  0  0  0  0
  -27.2719  -12.0306   18.0444 H   0  0  0  0  0  0
  -27.5741  -13.8134   18.0566 H   0  0  0  0  0  0
  -27.8493  -14.1831   20.1526 H   0  0  0  0  0  0
  -28.8886  -11.3101   20.4061 H   0  0  0  0  0  0
  -28.4325  -12.4317   21.6706 H   0  0  0  0  0  0
  -25.1999   -9.6366   22.4288 H   0  0  0  0  0  0
  -24.0170   -7.4755   22.7825 H   0  0  0  0  0  0
  -20.9902   -8.7931   19.8975 H   0  0  0  0  0  0
  -22.2456  -10.9062   19.5803 H   0  0  0  0  0  0
  -21.2074   -7.6219   23.9699 H   0  0  0  0  0  0
  -21.1448   -6.0599   25.9084 H   0  0  0  0  0  0
  -22.0602   -2.7599   23.2890 H   0  0  0  0  0  0
  -22.3747  -11.9524   22.4773 H   0  0  0  0  0  0
  -21.1918  -13.1800   22.2304 H   0  0  0  0  0  0
  -24.6091  -15.6129   20.3429 H   0  0  0  0  0  0
  -26.3053  -15.4978   20.0307 H   0  0  0  0  0  0
  -26.7287  -32.5234   23.0936 H   0  0  0  0  0  0
  -25.0033  -33.9525   25.0217 H   0  0  0  0  0  0
  -22.7599  -31.2809   21.3551 H   0  0  0  0  0  0
  -23.3792  -35.9534   23.3241 H   0  0  0  0  0  0
  -24.3591  -36.8943   22.2065 H   0  0  0  0  0  0
  -23.7211  -37.6392   23.6727 H   0  0  0  0  0  0
  -26.1779  -31.4255   20.5975 H   0  0  0  0  0  0
  -26.8816  -30.7543   22.0400 H   0  0  0  0  0  0
  -28.0758  -28.7289   21.4257 H   0  0  0  0  0  0
  -25.9249  -25.7449   19.1890 H   0  0  0  0  0  0
  -24.0300  -27.2701   18.9545 H   0  0  0  0  0  0
  -23.8369  -30.5295   19.3784 H   0  0  0  0  0  0
  -22.8081  -29.2065   19.8318 H   0  0  0  0  0  0
  -25.1318  -36.1812   25.0806 H   0  0  0  0  0  0
  -21.0003  -28.3355   24.1321 H   0  0  0  0  0  0
  -20.5678  -26.2364   23.3641 H   0  0  0  0  0  0
  -21.6664  -26.7431   22.1212 H   0  0  0  0  0  0
  -19.6959  -25.6272   21.1255 H   0  0  0  0  0  0
  -19.6719  -27.3163   20.6708 H   0  0  0  0  0  0
  -17.4225  -26.6644   21.4016 H   0  0  0  0  0  0
  -18.0384  -26.0090   22.9024 H   0  0  0  0  0  0
  -19.7976  -30.7298   24.2200 H   0  0  0  0  0  0
  -17.5054  -31.6277   24.5172 H   0  0  0  0  0  0
  -15.5373  -30.2990   23.7706 H   0  0  0  0  0  0
  -15.8692  -28.0820   22.7118 H   0  0  0  0  0  0
  -24.5872  -30.7114   25.7644 H   0  0  0  0  0  0
  -24.8908  -32.2925   26.4725 H   0  0  0  0  0  0
  -25.7946  -30.8914   27.0157 H   0  0  0  0  0  0
  -26.3056  -29.6611   24.1307 H   0  0  0  0  0  0
  -27.3990  -29.7232   25.4916 H   0  0  0  0  0  0
  -27.8983  -30.4127   23.9682 H   0  0  0  0  0  0
  -27.2648  -33.3641   26.1961 H   0  0  0  0  0  0
  -28.3908  -32.6814   25.0316 H   0  0  0  0  0  0
  -28.0685  -31.8488   26.5446 H   0  0  0  0  0  0
  -28.2557  -38.0106   24.7582 H   0  0  0  0  0  0
  -28.1136  -36.2643   24.6196 H   0  0  0  0  0  0
  -27.2315  -37.1292   25.8857 H   0  0  0  0  0  0
  -20.9557  -29.8688   21.6650 H   0  0  0  0  0  0
  -26.0147  -38.2799   24.1459 H   0  0  0  0  0  0
  -31.4496  -15.9364   22.8683 H   0  0  0  0  0  0
  -27.7552  -17.5087   25.6660 H   0  0  0  0  0  0
  -32.1682  -17.9149   22.4243 H   0  0  0  0  0  0
  -31.8791  -19.0368   23.6632 H   0  0  0  0  0  0
  -31.2829  -19.0344   20.7932 H   0  0  0  0  0  0
  -31.7097  -20.3821   21.7778 H   0  0  0  0  0  0
  -28.9111  -19.0417   21.4296 H   0  0  0  0  0  0
  -29.4314  -20.5746   20.7259 H   0  0  0  0  0  0
  -29.0720  -14.0241   26.3650 H   0  0  0  0  0  0
  -27.4868  -14.8701   26.4840 H   0  0  0  0  0  0
  -28.9175  -15.5298   27.2331 H   0  0  0  0  0  0
  -28.8763  -19.6099   26.1280 H   0  0  0  0  0  0
  -28.9937  -21.2400   25.5115 H   0  0  0  0  0  0
  -30.3088  -20.0755   25.2683 H   0  0  0  0  0  0
  -26.7763  -19.2746   25.1310 H   0  0  0  0  0  0
  -26.5682  -19.1506   23.3718 H   0  0  0  0  0  0
  -26.6310  -20.6843   24.2624 H   0  0  0  0  0  0
  -29.2975  -13.3069   24.0763 H   0  0  0  0  0  0
  -31.1057  -13.5379   24.2138 H   0  0  0  0  0  0
  -29.0825  -22.9061   20.6480 H   0  0  0  0  0  0
  -29.5478  -23.6430   22.1331 H   0  0  0  0  0  0
  -27.2636  -21.5339   21.8665 H   0  0  0  0  0  0
  -27.7328  -22.3158   23.3705 H   0  0  0  0  0  0
  -27.1158  -24.8198   22.0457 H   0  0  0  0  0  0
  -27.0187  -24.2086   20.4483 H   0  0  0  0  0  0
  -29.7458  -12.7251   22.2020 H   0  0  0  0  0  0
  -29.8596  -21.0960   23.2095 H   0  0  0  0  0  0
  1 25  1  0  0  0
  1 30  2  0  0  0
  1 88  1  0  0  0
  2  3  1  0  0  0
  2 25  1  0  0  0
  2 90  1  0  0  0
  2 91  1  0  0  0
  3  4  1  0  0  0
  3 92  1  0  0  0
  3 93  1  0  0  0
  4  5  1  0  0  0
  4 94  1  0  0  0
  4 95  1  0  0  0
  5  6  1  0  0  0
  5 26  1  0  0  0
  5 96  1  0  0  0
  6 25  1  0  0  0
  6 97  1  0  0  0
  6 98  1  0  0  0
  7  8  2  0  0  0
  7 26  1  0  0  0
  7 29  1  0  0  0
  8  9  1  0  0  0
  8 22  1  0  0  0
  9 10  1  0  0  0
  9 27  2  0  0  0
 10 11  2  0  0  0
 10 15  1  0  0  0
 11 12  1  0  0  0
 11 99  1  0  0  0
 12 13  2  0  0  0
 12100  1  0  0  0
 13 14  1  0  0  0
 13 31  1  0  0  0
 14 15  2  0  0  0
 14101  1  0  0  0
 15102  1  0  0  0
 16 17  2  0  0  0
 16 21  1  0  0  0
 16 31  1  0  0  0
 17 18  1  0  0  0
 17103  1  0  0  0
 18 19  2  0  0  0
 18104  1  0  0  0
 19 20  1  0  0  0
 19 24  1  0  0  0
 20 21  2  0  0  0
 20105  1  0  0  0
 21 23  1  0  0  0
 22 28  1  0  0  0
 22 32  2  0  0  0
 26 27  1  0  0  0
 28106  1  0  0  0
 28107  1  0  0  0
 29108  1  0  0  0
 29109  1  0  0  0
 33 34  1  0  0  0
 33 66  1  0  0  0
 33 70  2  0  0  0
 34 36  1  0  0  0
 34 59  1  0  0  0
 34110  1  0  0  0
 35 44  2  0  0  0
 35 45  1  0  0  0
 35 68  1  0  0  0
 36 56  1  0  0  0
 36111  1  0  0  0
 37 39  1  0  0  0
 37 47  1  0  0  0
 37 66  1  0  0  0
 37112  1  0  0  0
 38 43  2  0  0  0
 38 46  1  0  0  0
 38 47  1  0  0  0
 39 64  1  0  0  0
 39 67  2  0  0  0
 40 52  1  0  0  0
 40 53  2  0  0  0
 40 58  1  0  0  0
 41113  1  0  0  0
 41114  1  0  0  0
 41115  1  0  0  0
 41 48  1  0  0  0
 42 43  1  0  0  0
 42 66  1  0  0  0
 42116  1  0  0  0
 42117  1  0  0  0
 43 44  1  0  0  0
 44118  1  0  0  0
 45 46  2  0  0  0
 45119  1  0  0  0
 46120  1  0  0  0
 47121  1  0  0  0
 47122  1  0  0  0
 48 56  1  0  0  0
 48 65  1  0  0  0
 48123  1  0  0  0
 49 50  1  0  0  0
 49 53  1  0  0  0
 49 64  1  0  0  0
 49124  1  0  0  0
 50 51  1  0  0  0
 50125  1  0  0  0
 50126  1  0  0  0
 51 52  1  0  0  0
 51127  1  0  0  0
 51128  1  0  0  0
 52129  1  0  0  0
 52130  1  0  0  0
 53 54  1  0  0  0
 54 55  2  0  0  0
 54131  1  0  0  0
 55 57  1  0  0  0
 55132  1  0  0  0
 56 69  2  0  0  0
 57 58  2  0  0  0
 57133  1  0  0  0
 58134  1  0  0  0
 59 60  1  0  0  0
 59 61  1  0  0  0
 59 62  1  0  0  0
 60135  1  0  0  0
 60136  1  0  0  0
 60137  1  0  0  0
 61138  1  0  0  0
 61139  1  0  0  0
 61140  1  0  0  0
 62141  1  0  0  0
 62142  1  0  0  0
 62143  1  0  0  0
 63 65  1  0  0  0
 63144  1  0  0  0
 63145  1  0  0  0
 63146  1  0  0  0
 64147  1  0  0  0
 65148  1  0  0  0
 68 87  1  0  0  0
 71 73  2  0  0  0
 71 76  1  0  0  0
 71149  1  0  0  0
 72 74  2  0  0  0
 72 75  1  0  0  0
 72150  1  0  0  0
 73 74  1  0  0  0
 73 77  1  0  0  0
 74 80  1  0  0  0
 75 76  2  0  0  0
 75 81  1  0  0  0
 76 84  1  0  0  0
 77 78  1  0  0  0
 77151  1  0  0  0
 77152  1  0  0  0
 78 79  1  0  0  0
 78153  1  0  0  0
 78154  1  0  0  0
 79 89  1  0  0  0
 79155  1  0  0  0
 79156  1  0  0  0
 80 82  1  0  0  0
 80 83  1  0  0  0
 80 89  1  0  0  0
 81157  1  0  0  0
 81158  1  0  0  0
 81159  1  0  0  0
 82160  1  0  0  0
 82161  1  0  0  0
 82162  1  0  0  0
 83163  1  0  0  0
 83164  1  0  0  0
 83165  1  0  0  0
 84 88  1  0  0  0
 84166  1  0  0  0
 84167  1  0  0  0
 85 86  1  0  0  0
 85 87  1  0  0  0
 85168  1  0  0  0
 85169  1  0  0  0
 86170  1  0  0  0
 86171  1  0  0  0
 86 89  1  0  0  0
 87172  1  0  0  0
 87173  1  0  0  0
 88174  1  0  0  0
 89175  1  0  0  0
M  CHG  1  89   1
M  ISO  4   1 100  68 101  87 101  88 100
M  END
> <chiral flag>
0

> <version>
0

> <s_m_source_file>
/data/baiqing/PycharmProjects/Reinvent-master-3.2/result/LINK_invent/BTK/process_docking_weight1_custom_sum_contain_oxygen_bond_distance_aromatic_linkinvent_7_9_3/rearranged_h_0032.sdf

> <i_m_source_file_index>
17

> <r_mmod_Potential_Energy-OPLS-2005>
776.154602050781

> <r_mmod_Stretch_Energy-OPLS-2005>
243.428741455078

> <r_mmod_Bend_Energy-OPLS-2005>
411.569885253906

> <r_mmod_Torsional_Energy-OPLS-2005>
327.505279541016

> <r_mmod_Improper_Torsional_Energy-OPLS-2005>
13.9254608154297

> <r_mmod_Van_der_Waal_Energy-OPLS-2005>
178.84196472168

> <r_mmod_Electrostatic_Energy-OPLS-2005>
-361.154266357422

> <r_mmod_Solvation_Energy-OPLS-2005>
-412.923004150391

> <b_mmod_Minimization_Converged-OPLS-2005>
0

> <r_mmod_RMS_Derivative-OPLS-2005>
55.6561851501465

$$$$
17
                    3D
 Structure written by MMmdl.
169177  0  0  1  0            999 V2000
  -29.6928  -15.2530   20.5507 C   0  0  0  0  0  0
  -30.3499  -12.8773   19.6142 C   0  0  0  0  0  0
  -29.5132  -12.5690   18.3365 C   0  0  0  0  0  0
  -28.0641  -12.1817   18.7014 C   0  0  0  0  0  0
  -27.5216  -13.1291   19.7933 C   0  0  2  0  0  0
  -28.4406  -13.1822   21.0046 C   0  0  0  0  0  0
  -25.1919  -13.7674   20.5408 C   0  0  0  0  0  0
  -24.1303  -13.0076   20.9183 C   0  0  0  0  0  0
  -24.5872  -11.6568   20.8764 C   0  0  0  0  0  0
  -23.8671  -10.4067   21.0522 C   0  0  0  0  0  0
  -24.3373   -9.4051   21.9274 C   0  0  0  0  0  0
  -23.6146   -8.2055   22.0777 C   0  0  0  0  0  0
  -22.4150   -8.0100   21.3532 C   0  0  0  0  0  0
  -21.9688   -9.0029   20.4645 C   0  0  0  0  0  0
  -22.6911  -10.1938   20.3103 C   0  0  0  0  0  0
  -21.6784   -6.0643   22.5295 C   0  0  0  0  0  0
  -21.3968   -6.5588   23.8218 C   0  0  0  0  0  0
  -21.3647   -5.6763   24.9194 C   0  0  0  0  0  0
  -21.6042   -4.3027   24.7255 C   0  0  0  0  0  0
  -21.8820   -3.8090   23.4388 C   0  0  0  0  0  0
  -21.9169   -4.6887   22.3429 C   0  0  0  0  0  0
  -22.7465  -13.5062   21.1976 C   0  0  0  0  0  0
  -22.1654   -4.2079   21.1008 F   0  0  0  0  0  0
  -21.5636   -3.4522   25.7780 F   0  0  0  0  0  0
  -29.5911  -13.8493   20.4942 N   0  0  0  0  0  0
  -26.1999  -12.8647   20.2583 N   0  0  0  0  0  0
  -25.8629  -11.5944   20.5428 N   0  0  0  0  0  0
  -22.0131  -12.8149   22.0602 N   0  0  0  0  0  0
  -25.3533  -15.1366   20.3950 N   0  0  0  0  0  0
  -30.9069  -15.5416   20.3550 O   0  0  0  0  0  0
  -21.6532   -6.8716   21.4238 O   0  0  0  0  0  0
  -22.3266  -14.5440   20.6863 O   0  0  0  0  0  0
  -24.6618  -31.9641   23.2282 C   0  0  0  0  0  0
  -25.9576  -32.5176   23.8704 C   0  0  1  0  0  0
  -26.9201  -27.4250   20.0305 C   0  0  0  0  0  0
  -25.6516  -33.8911   24.2672 N   0  0  0  0  0  0
  -23.4474  -30.6729   21.5482 C   0  0  2  0  0  0
  -24.8752  -29.2422   19.9380 C   0  0  0  0  0  0
  -22.8605  -29.6979   22.5819 C   0  0  0  0  0  0
  -18.2071  -27.5620   22.4839 C   0  0  0  0  0  0
  -24.1531  -36.7362   23.2586 C   0  0  0  0  0  0
  -25.9920  -30.8595   21.4433 C   0  0  0  0  0  0
  -25.9933  -29.5395   20.7157 C   0  0  0  0  0  0
  -27.0610  -28.6187   20.7805 C   0  0  0  0  0  0
  -26.0920  -27.3999   18.9239 C   0  0  0  0  0  0
  -24.9873  -28.2622   18.9485 C   0  0  0  0  0  0
  -23.6433  -30.0993   20.1097 C   0  0  0  0  0  0
  -25.4155  -36.3239   24.0325 C   0  0  1  0  0  0
  -20.9804  -28.3297   23.2650 C   0  0  2  0  0  0
  -22.0955  -26.8826   23.2090 C   0  0  0  0  0  0
  -21.7290  -25.3093   22.3885 C   0  0  0  0  0  0
  -18.4912  -25.8220   21.7544 C   0  0  0  0  0  0
  -19.3001  -28.5117   23.0721 C   0  0  0  0  0  0
  -18.9466  -29.7794   23.6784 C   0  0  0  0  0  0
  -17.6395  -30.2534   23.8233 C   0  0  0  0  0  0
  -25.9178  -34.9662   23.5167 C   0  0  0  0  0  0
  -16.6184  -29.4256   23.3482 C   0  0  0  0  0  0
  -16.8983  -28.1566   22.7225 C   0  0  0  0  0  0
  -26.4599  -31.6690   25.0990 C   0  0  0  0  0  0
  -25.3658  -31.3873   26.1540 C   0  0  0  0  0  0
  -27.0328  -30.3062   24.6450 C   0  0  0  0  0  0
  -27.6164  -32.4247   25.7912 C   0  0  0  0  0  0
  -27.5615  -37.1901   24.8462 C   0  0  0  0  0  0
  -21.5579  -29.4385   22.5278 N   0  0  0  0  0  0
  -26.4315  -37.3933   23.9425 N   0  0  0  0  0  0
  -24.7161  -31.2090   22.1006 N   0  0  0  0  0  0
  -23.5971  -29.1639   23.4129 O   0  0  0  0  0  0
  -26.5211  -26.3110   20.6805 O   0  0  0  0  0  0
  -26.5466  -34.9027   22.4562 O   0  0  0  0  0  0
  -23.5818  -32.2597   23.7635 O   0  0  0  0  0  0
  -20.3353  -23.9994   20.7164 C   0  0  0  0  0  0
  -19.8026  -24.2390   23.2718 C   0  0  0  0  0  0
  -20.3743  -23.3078   22.0740 C   0  0  0  0  0  0
  -20.4072  -25.4935   20.3289 C   0  0  0  0  0  0
  -20.4534  -26.7217   21.3689 C   0  0  0  0  0  0
  -19.9062  -25.9075   23.3711 C   0  0  0  0  0  0
  -20.4025  -25.7275   18.8199 C   0  0  0  0  0  0
  -21.5850  -21.9609   22.3104 C   0  0  0  0  0  0
  -21.9778  -27.1740   20.5984 C   0  0  0  0  0  0
  -28.3059  -16.4765   20.4353 C   0  0  0  0  0  0
  -22.9356  -21.0049   21.3998 C   0  0  0  0  0  0
  -23.4512  -26.2650   20.3122 C   0  0  0  0  0  0
  -27.0820  -17.5759   21.3718 C   0  0  0  0  0  0
  -24.3757  -19.8451   21.8206 C   0  0  0  0  0  0
  -25.6318  -18.7260   20.9514 C   0  0  0  0  0  0
  -24.9807  -26.3422   21.1359 C   0  0  0  0  0  0
  -19.6609  -26.4668   25.0312 Cl  0  0  0  0  0  0
  -31.3240  -13.2811   19.3356 H   0  0  0  0  0  0
  -30.5569  -11.9601   20.1659 H   0  0  0  0  0  0
  -29.9848  -11.7822   17.7456 H   0  0  0  0  0  0
  -29.4864  -13.4558   17.7028 H   0  0  0  0  0  0
  -28.0611  -11.1522   19.0675 H   0  0  0  0  0  0
  -27.4311  -12.1881   17.8140 H   0  0  0  0  0  0
  -27.4543  -14.0721   19.2687 H   0  0  0  0  0  0
  -28.6589  -12.1856   21.3955 H   0  0  0  0  0  0
  -27.9868  -13.7560   21.8159 H   0  0  0  0  0  0
  -25.2518   -9.5595   22.4835 H   0  0  0  0  0  0
  -23.9869   -7.4441   22.7486 H   0  0  0  0  0  0
  -21.0611   -8.8487   19.8968 H   0  0  0  0  0  0
  -22.3352  -10.9478   19.6215 H   0  0  0  0  0  0
  -21.1956   -7.6096   23.9692 H   0  0  0  0  0  0
  -21.1480   -6.0513   25.9091 H   0  0  0  0  0  0
  -22.0622   -2.7551   23.2910 H   0  0  0  0  0  0
  -22.3675  -11.9782   22.4988 H   0  0  0  0  0  0
  -21.0801  -13.1285   22.2873 H   0  0  0  0  0  0
  -24.5862  -15.7668   20.5961 H   0  0  0  0  0  0
  -26.2095  -15.6172   20.1590 H   0  0  0  0  0  0
  -26.7733  -32.5764   23.1527 H   0  0  0  0  0  0
  -25.0950  -34.0125   25.1006 H   0  0  0  0  0  0
  -22.7389  -31.4985   21.4559 H   0  0  0  0  0  0
  -23.3830  -35.9655   23.3248 H   0  0  0  0  0  0
  -24.3642  -36.8956   22.2000 H   0  0  0  0  0  0
  -23.7228  -37.6555   23.6562 H   0  0  0  0  0  0
  -26.2327  -31.6415   20.7225 H   0  0  0  0  0  0
  -26.8371  -30.8032   22.1143 H   0  0  0  0  0  0
  -27.8229  -28.7147   21.5413 H   0  0  0  0  0  0
  -26.0570  -26.5401   18.2694 H   0  0  0  0  0  0
  -24.1963  -28.1518   18.2188 H   0  0  0  0  0  0
  -23.8006  -30.9507   19.4488 H   0  0  0  0  0  0
  -22.7410  -29.6428   19.7107 H   0  0  0  0  0  0
  -25.1293  -36.2112   25.0809 H   0  0  0  0  0  0
  -21.1191  -28.6529   24.3003 H   0  0  0  0  0  0
  -22.2368  -26.6293   24.2625 H   0  0  0  0  0  0
  -23.1271  -27.0524   22.9592 H   0  0  0  0  0  0
  -22.0526  -24.7086   23.2542 H   0  0  0  0  0  0
  -22.4146  -24.7800   21.7591 H   0  0  0  0  0  0
  -18.1285  -25.8607   20.7199 H   0  0  0  0  0  0
  -17.7826  -25.1226   22.2189 H   0  0  0  0  0  0
  -19.7252  -30.4108   24.0818 H   0  0  0  0  0  0
  -17.4328  -31.2049   24.2983 H   0  0  0  0  0  0
  -15.5901  -29.7428   23.4567 H   0  0  0  0  0  0
  -16.0441  -27.5769   22.3981 H   0  0  0  0  0  0
  -24.5765  -30.7413   25.7671 H   0  0  0  0  0  0
  -24.8978  -32.3089   26.5013 H   0  0  0  0  0  0
  -25.7784  -30.8875   27.0308 H   0  0  0  0  0  0
  -26.2918  -29.6977   24.1255 H   0  0  0  0  0  0
  -27.3694  -29.7183   25.4995 H   0  0  0  0  0  0
  -27.8996  -30.4254   23.9946 H   0  0  0  0  0  0
  -27.2808  -33.3506   26.2594 H   0  0  0  0  0  0
  -28.4048  -32.6844   25.0833 H   0  0  0  0  0  0
  -28.0719  -31.8246   26.5798 H   0  0  0  0  0  0
  -28.2587  -38.0248   24.7603 H   0  0  0  0  0  0
  -28.1167  -36.2791   24.6173 H   0  0  0  0  0  0
  -27.2346  -37.1398   25.8865 H   0  0  0  0  0  0
  -20.9688  -29.9236   21.8675 H   0  0  0  0  0  0
  -26.0194  -38.2992   24.1471 H   0  0  0  0  0  0
  -20.5556  -23.3396   19.8902 H   0  0  0  0  0  0
  -19.7159  -23.7576   24.2332 H   0  0  0  0  0  0
  -19.7821  -24.9802   18.3246 H   0  0  0  0  0  0
  -21.4059  -25.6426   18.4029 H   0  0  0  0  0  0
  -19.9874  -26.7050   18.5746 H   0  0  0  0  0  0
  -20.9767  -21.1831   22.7723 H   0  0  0  0  0  0
  -22.1471  -22.3615   23.1539 H   0  0  0  0  0  0
  -22.4514  -27.9960   21.0060 H   0  0  0  0  0  0
  -21.7056  -27.6422   19.6554 H   0  0  0  0  0  0
  -27.6683  -16.0282   19.6885 H   0  0  0  0  0  0
  -28.8026  -17.2272   19.8226 H   0  0  0  0  0  0
  -23.4142  -21.7691   20.7853 H   0  0  0  0  0  0
  -22.3548  -20.4267   20.6803 H   0  0  0  0  0  0
  -23.6150  -26.4127   19.2569 H   0  0  0  0  0  0
  -23.2550  -25.2178   20.1001 H   0  0  0  0  0  0
  -27.7360  -18.2398   21.9359 H   0  0  0  0  0  0
  -26.6796  -16.9156   22.1426 H   0  0  0  0  0  0
  -23.9558  -19.2047   22.5979 H   0  0  0  0  0  0
  -25.0344  -20.5088   22.3836 H   0  0  0  0  0  0
  -25.0015  -18.0999   20.3191 H   0  0  0  0  0  0
  -26.0801  -19.4117   20.2313 H   0  0  0  0  0  0
  -24.9244  -25.5327   21.8630 H   0  0  0  0  0  0
  -24.9178  -27.2241   21.7689 H   0  0  0  0  0  0
  1 25  1  0  0  0
  1 30  2  0  0  0
  1 80  1  0  0  0
  2  3  1  0  0  0
  2 25  1  0  0  0
  2 88  1  0  0  0
  2 89  1  0  0  0
  3  4  1  0  0  0
  3 90  1  0  0  0
  3 91  1  0  0  0
  4  5  1  0  0  0
  4 92  1  0  0  0
  4 93  1  0  0  0
  5  6  1  0  0  0
  5 26  1  0  0  0
  5 94  1  0  0  0
  6 25  1  0  0  0
  6 95  1  0  0  0
  6 96  1  0  0  0
  7  8  2  0  0  0
  7 26  1  0  0  0
  7 29  1  0  0  0
  8  9  1  0  0  0
  8 22  1  0  0  0
  9 10  1  0  0  0
  9 27  2  0  0  0
 10 11  2  0  0  0
 10 15  1  0  0  0
 11 12  1  0  0  0
 11 97  1  0  0  0
 12 13  2  0  0  0
 12 98  1  0  0  0
 13 14  1  0  0  0
 13 31  1  0  0  0
 14 15  2  0  0  0
 14 99  1  0  0  0
 15100  1  0  0  0
 16 17  2  0  0  0
 16 21  1  0  0  0
 16 31  1  0  0  0
 17 18  1  0  0  0
 17101  1  0  0  0
 18 19  2  0  0  0
 18102  1  0  0  0
 19 20  1  0  0  0
 19 24  1  0  0  0
 20 21  2  0  0  0
 20103  1  0  0  0
 21 23  1  0  0  0
 22 28  1  0  0  0
 22 32  2  0  0  0
 26 27  1  0  0  0
 28104  1  0  0  0
 28105  1  0  0  0
 29106  1  0  0  0
 29107  1  0  0  0
 33 34  1  0  0  0
 33 66  1  0  0  0
 33 70  2  0  0  0
 34 36  1  0  0  0
 34 59  1  0  0  0
 34108  1  0  0  0
 35 44  2  0  0  0
 35 45  1  0  0  0
 35 68  1  0  0  0
 36 56  1  0  0  0
 36109  1  0  0  0
 37 39  1  0  0  0
 37 47  1  0  0  0
 37 66  1  0  0  0
 37110  1  0  0  0
 38 43  2  0  0  0
 38 46  1  0  0  0
 38 47  1  0  0  0
 39 64  1  0  0  0
 39 67  2  0  0  0
 40 52  1  0  0  0
 40 53  2  0  0  0
 40 58  1  0  0  0
 41111  1  0  0  0
 41112  1  0  0  0
 41113  1  0  0  0
 41 48  1  0  0  0
 42 43  1  0  0  0
 42 66  1  0  0  0
 42114  1  0  0  0
 42115  1  0  0  0
 43 44  1  0  0  0
 44116  1  0  0  0
 45 46  2  0  0  0
 45117  1  0  0  0
 46118  1  0  0  0
 47119  1  0  0  0
 47120  1  0  0  0
 48 56  1  0  0  0
 48 65  1  0  0  0
 48121  1  0  0  0
 49 50  1  0  0  0
 49 53  1  0  0  0
 49 64  1  0  0  0
 49122  1  0  0  0
 50 51  1  0  0  0
 50123  1  0  0  0
 50124  1  0  0  0
 51 52  1  0  0  0
 51125  1  0  0  0
 51126  1  0  0  0
 52127  1  0  0  0
 52128  1  0  0  0
 53 54  1  0  0  0
 54 55  2  0  0  0
 54129  1  0  0  0
 55 57  1  0  0  0
 55130  1  0  0  0
 56 69  2  0  0  0
 57 58  2  0  0  0
 57131  1  0  0  0
 58132  1  0  0  0
 59 60  1  0  0  0
 59 61  1  0  0  0
 59 62  1  0  0  0
 60133  1  0  0  0
 60134  1  0  0  0
 60135  1  0  0  0
 61136  1  0  0  0
 61137  1  0  0  0
 61138  1  0  0  0
 62139  1  0  0  0
 62140  1  0  0  0
 62141  1  0  0  0
 63 65  1  0  0  0
 63142  1  0  0  0
 63143  1  0  0  0
 63144  1  0  0  0
 64145  1  0  0  0
 65146  1  0  0  0
 68 86  1  0  0  0
 71 73  2  0  0  0
 71 74  1  0  0  0
 71147  1  0  0  0
 72 73  1  0  0  0
 72 76  2  0  0  0
 72148  1  0  0  0
 73 78  1  0  0  0
 74 75  2  0  0  0
 74 77  1  0  0  0
 75 76  1  0  0  0
 75 79  1  0  0  0
 76 87  1  0  0  0
 77149  1  0  0  0
 77150  1  0  0  0
 77151  1  0  0  0
 78 81  1  0  0  0
 78152  1  0  0  0
 78153  1  0  0  0
 79 82  1  0  0  0
 79154  1  0  0  0
 79155  1  0  0  0
 80 83  1  0  0  0
 80156  1  0  0  0
 80157  1  0  0  0
 81 84  1  0  0  0
 81158  1  0  0  0
 81159  1  0  0  0
 82 86  1  0  0  0
 82160  1  0  0  0
 82161  1  0  0  0
 83 85  1  0  0  0
 83162  1  0  0  0
 83163  1  0  0  0
 84 85  1  0  0  0
 84164  1  0  0  0
 84165  1  0  0  0
 85166  1  0  0  0
 85167  1  0  0  0
 86168  1  0  0  0
 86169  1  0  0  0
M  ISO  4   1 100  68 101  80 100  86 101
M  END
> <chiral flag>
0

> <version>
0

> <s_m_source_file>
/data/baiqing/PycharmProjects/Reinvent-master-3.2/result/LINK_invent/BTK/process_docking_weight1_custom_sum_contain_oxygen_bond_distance_aromatic_linkinvent_7_9_3/rearranged_h_0032.sdf

> <i_m_source_file_index>
18

> <r_mmod_Potential_Energy-OPLS-2005>
13878.36328125

> <r_mmod_Stretch_Energy-OPLS-2005>
7260.35498046875

> <r_mmod_Bend_Energy-OPLS-2005>
1215.14306640625

> <r_mmod_Torsional_Energy-OPLS-2005>
586.896850585938

> <r_mmod_Improper_Torsional_Energy-OPLS-2005>
71.3758239746094

> <r_mmod_Van_der_Waal_Energy-OPLS-2005>
2826.18701171875

> <r_mmod_Electrostatic_Energy-OPLS-2005>
-315.766662597656

> <r_mmod_Solvation_Energy-OPLS-2005>
-171.421234130859

> <b_mmod_Minimization_Converged-OPLS-2005>
0

> <r_mmod_RMS_Derivative-OPLS-2005>
9.27168464660645

$$$$
18
                    3D
 Structure written by MMmdl.
180188  0  0  1  0            999 V2000
  -30.7778  -14.3342   20.7387 C   0  0  0  0  0  0
  -30.4226  -12.2981   19.3778 C   0  0  0  0  0  0
  -29.4776  -12.5276   18.1850 C   0  0  0  0  0  0
  -28.0073  -12.3724   18.6119 C   0  0  0  0  0  0
  -27.6705  -13.1951   19.8826 C   0  0  2  0  0  0
  -28.7107  -12.9299   20.9955 C   0  0  0  0  0  0
  -25.2638  -13.8144   20.5670 C   0  0  0  0  0  0
  -24.1861  -13.0424   20.9163 C   0  0  0  0  0  0
  -24.6399  -11.6896   20.8721 C   0  0  0  0  0  0
  -23.9054  -10.4288   21.0399 C   0  0  0  0  0  0
  -24.3617   -9.4208   21.9175 C   0  0  0  0  0  0
  -23.6290   -8.2243   22.0757 C   0  0  0  0  0  0
  -22.4265   -8.0285   21.3554 C   0  0  0  0  0  0
  -21.9895   -9.0255   20.4653 C   0  0  0  0  0  0
  -22.7219  -10.2139   20.3059 C   0  0  0  0  0  0
  -21.6853   -6.0732   22.5280 C   0  0  0  0  0  0
  -21.4011   -6.5638   23.8213 C   0  0  0  0  0  0
  -21.3660   -5.6793   24.9177 C   0  0  0  0  0  0
  -21.6044   -4.3056   24.7221 C   0  0  0  0  0  0
  -21.8823   -3.8141   23.4343 C   0  0  0  0  0  0
  -21.9191   -4.6958   22.3399 C   0  0  0  0  0  0
  -22.7896  -13.5257   21.1808 C   0  0  0  0  0  0
  -22.1665   -4.2147   21.0975 F   0  0  0  0  0  0
  -21.5622   -3.4543   25.7734 F   0  0  0  0  0  0
  -30.0494  -13.2243   20.4555 N   0  0  0  0  0  0
  -26.3072  -12.9287   20.3408 N   0  0  0  0  0  0
  -25.9328  -11.6452   20.5765 N   0  0  0  0  0  0
  -22.0536  -12.8268   22.0393 N   0  0  0  0  0  0
  -25.4380  -15.1848   20.4123 N   0  0  0  0  0  0
  -31.7799  -14.6418   20.0829 O   0  0  0  0  0  0
  -21.6643   -6.8873   21.4242 O   0  0  0  0  0  0
  -22.3583  -14.5547   20.6644 O   0  0  0  0  0  0
  -24.9403  -31.7515   23.1685 C   0  0  0  0  0  0
  -26.0916  -32.4866   23.8327 C   0  0  1  0  0  0
  -27.0086  -28.0580   20.6060 C   0  0  0  0  0  0
  -25.6540  -33.8467   24.2117 N   0  0  0  0  0  0
  -24.0462  -29.5915   21.8971 C   0  0  2  0  0  0
  -25.4077  -28.8604   18.9725 C   0  0  0  0  0  0
  -23.1840  -29.1396   22.8973 C   0  0  0  0  0  0
  -17.6398  -28.2368   22.7079 C   0  0  0  0  0  0
  -24.1492  -36.7145   23.2587 C   0  0  0  0  0  0
  -26.5208  -31.0735   21.0225 C   0  0  0  0  0  0
  -26.6215  -29.9333   19.4768 C   0  0  0  0  0  0
  -27.6407  -29.0657   19.9182 C   0  0  0  0  0  0
  -26.5235  -27.0409   19.7416 C   0  0  0  0  0  0
  -25.6785  -27.5200   18.7485 C   0  0  0  0  0  0
  -24.0960  -28.5057   20.1168 C   0  0  0  0  0  0
  -25.4127  -36.2942   24.0187 C   0  0  1  0  0  0
  -19.8885  -27.9831   23.5497 C   0  0  2  0  0  0
  -19.7261  -26.5504   22.9567 C   0  0  0  0  0  0
  -19.1527  -26.5262   21.5739 C   0  0  0  0  0  0
  -17.7363  -26.9655   21.8606 C   0  0  0  0  0  0
  -18.7299  -28.8132   23.3653 C   0  0  0  0  0  0
  -18.6595  -30.0763   23.9929 C   0  0  0  0  0  0
  -17.4311  -30.7137   24.0788 C   0  0  0  0  0  0
  -25.9171  -34.9399   23.4856 C   0  0  0  0  0  0
  -16.2957  -30.0601   23.5798 C   0  0  0  0  0  0
  -16.4017  -28.8399   22.8930 C   0  0  0  0  0  0
  -26.5441  -31.6631   25.0912 C   0  0  0  0  0  0
  -25.4204  -31.3771   26.1269 C   0  0  0  0  0  0
  -27.1620  -30.3083   24.6534 C   0  0  0  0  0  0
  -27.6692  -32.4436   25.7927 C   0  0  0  0  0  0
  -27.5524  -37.1782   24.8459 C   0  0  0  0  0  0
  -20.9421  -28.7571   22.9738 N   0  0  0  0  0  0
  -26.4240  -37.3726   23.9376 N   0  0  0  0  0  0
  -25.2183  -30.8443   22.1814 N   0  0  0  0  0  0
  -24.0961  -28.8952   23.6954 O   0  0  0  0  0  0
  -25.9654  -28.9265   21.1251 O   0  0  0  0  0  0
  -26.5656  -34.8992   22.4367 O   0  0  0  0  0  0
  -23.8261  -31.9951   23.6444 O   0  0  0  0  0  0
  -21.9692  -27.7803   21.3081 C   0  0  0  0  0  0
  -21.7910  -29.9475   24.6448 C   0  0  0  0  0  0
  -21.6791  -29.8302   21.1625 C   0  0  0  0  0  0
  -21.5412  -30.8825   22.8639 C   0  0  0  0  0  0
  -22.3065  -26.9698   23.1160 C   0  0  0  0  0  0
  -22.5997  -30.6947   20.0326 C   0  0  0  0  0  0
  -22.8575  -25.5420   23.1983 C   0  0  0  0  0  0
  -30.3584  -15.2133   21.9344 C   0  0  0  0  0  0
  -24.3347  -25.4319   22.7579 C   0  0  0  0  0  0
  -31.3338  -16.3679   22.2817 C   0  0  0  0  0  0
  -24.6878  -24.0908   22.0696 C   0  0  0  0  0  0
  -30.6494  -17.6066   22.8864 C   0  0  0  0  0  0
  -26.1857  -23.7431   22.1457 C   0  0  0  0  0  0
  -29.8100  -18.3937   21.8575 C   0  0  0  0  0  0
  -26.5319  -22.3622   21.5409 C   0  0  0  0  0  0
  -29.4083  -19.7898   22.3624 C   0  0  0  0  0  0
  -27.8669  -21.8150   22.0797 C   0  0  0  0  0  0
  -28.2625  -20.4256   21.5491 C   0  0  0  0  0  0
  -24.4176  -30.7540   19.9594 C   0  0  0  0  0  0
  -22.1375  -28.0354   24.7317 N   0  0  0  0  0  0
  -21.1453  -32.5674   22.7473 Cl  0  0  0  0  0  0
  -31.4601  -12.4186   19.0609 H   0  0  0  0  0  0
  -30.3457  -11.2690   19.7326 H   0  0  0  0  0  0
  -29.7109  -11.8258   17.3835 H   0  0  0  0  0  0
  -29.6397  -13.5264   17.7770 H   0  0  0  0  0  0
  -27.8236  -11.3140   18.7949 H   0  0  0  0  0  0
  -27.3465  -12.6564   17.7938 H   0  0  0  0  0  0
  -27.7341  -14.2499   19.6128 H   0  0  0  0  0  0
  -28.6713  -11.8838   21.3076 H   0  0  0  0  0  0
  -28.4565  -13.5056   21.8851 H   0  0  0  0  0  0
  -25.2771   -9.5678   22.4740 H   0  0  0  0  0  0
  -23.9999   -7.4640   22.7482 H   0  0  0  0  0  0
  -21.0822   -8.8765   19.8969 H   0  0  0  0  0  0
  -22.3664  -10.9677   19.6174 H   0  0  0  0  0  0
  -21.2016   -7.6150   23.9715 H   0  0  0  0  0  0
  -21.1473   -6.0524   25.9080 H   0  0  0  0  0  0
  -22.0598   -2.7601   23.2847 H   0  0  0  0  0  0
  -22.4146  -11.9940   22.4793 H   0  0  0  0  0  0
  -21.1171  -13.1324   22.2609 H   0  0  0  0  0  0
  -24.6763  -15.8431   20.5312 H   0  0  0  0  0  0
  -26.3019  -15.6266   20.1205 H   0  0  0  0  0  0
  -26.9310  -32.5471   23.1435 H   0  0  0  0  0  0
  -25.0717  -33.9453   25.0329 H   0  0  0  0  0  0
  -23.6728  -28.9833   21.1896 H   0  0  0  0  0  0
  -23.3835  -35.9410   23.3172 H   0  0  0  0  0  0
  -24.3571  -36.8915   22.2034 H   0  0  0  0  0  0
  -23.7204  -37.6241   23.6691 H   0  0  0  0  0  0
  -26.5583  -32.1146   20.7069 H   0  0  0  0  0  0
  -27.4499  -30.9578   21.5862 H   0  0  0  0  0  0
  -28.4939  -29.5146   20.4074 H   0  0  0  0  0  0
  -26.7272  -25.9886   19.8975 H   0  0  0  0  0  0
  -25.0399  -26.8241   18.2196 H   0  0  0  0  0  0
  -23.2631  -28.5114   19.3967 H   0  0  0  0  0  0
  -24.1437  -27.4297   20.3586 H   0  0  0  0  0  0
  -25.1368  -36.1634   25.0666 H   0  0  0  0  0  0
  -19.8669  -27.8735   24.6394 H   0  0  0  0  0  0
  -18.9829  -26.1103   23.6273 H   0  0  0  0  0  0
  -20.3930  -25.7258   23.1321 H   0  0  0  0  0  0
  -19.1661  -25.5173   21.1584 H   0  0  0  0  0  0
  -19.6152  -27.2046   20.8620 H   0  0  0  0  0  0
  -17.2228  -27.1476   20.9132 H   0  0  0  0  0  0
  -17.1733  -26.1770   22.3631 H   0  0  0  0  0  0
  -19.4714  -30.5383   24.5190 H   0  0  0  0  0  0
  -17.3397  -31.6593   24.5878 H   0  0  0  0  0  0
  -15.3204  -30.5226   23.6940 H   0  0  0  0  0  0
  -15.5139  -28.3894   22.4736 H   0  0  0  0  0  0
  -24.6700  -30.6892   25.7340 H   0  0  0  0  0  0
  -24.9076  -32.2947   26.4222 H   0  0  0  0  0  0
  -25.8212  -30.9189   27.0346 H   0  0  0  0  0  0
  -26.4425  -29.6190   24.2156 H   0  0  0  0  0  0
  -27.6105  -29.7961   25.5084 H   0  0  0  0  0  0
  -27.9617  -30.4502   23.9251 H   0  0  0  0  0  0
  -27.3166  -33.3891   26.2049 H   0  0  0  0  0  0
  -28.4762  -32.6631   25.0905 H   0  0  0  0  0  0
  -28.0903  -31.8703   26.6212 H   0  0  0  0  0  0
  -28.2517  -38.0115   24.7540 H   0  0  0  0  0  0
  -28.1062  -36.2647   24.6264 H   0  0  0  0  0  0
  -27.2195  -37.1367   25.8851 H   0  0  0  0  0  0
  -20.5490  -29.1004   22.1144 H   0  0  0  0  0  0
  -26.0059  -38.2735   24.1520 H   0  0  0  0  0  0
  -22.0363  -27.1458   20.4384 H   0  0  0  0  0  0
  -21.7312  -30.4783   25.5769 H   0  0  0  0  0  0
  -22.2540  -31.7209   20.1168 H   0  0  0  0  0  0
  -22.2275  -30.3942   19.0547 H   0  0  0  0  0  0
  -22.2554  -24.9089   22.5428 H   0  0  0  0  0  0
  -22.7519  -25.1652   24.2236 H   0  0  0  0  0  0
  -29.3694  -15.6129   21.7146 H   0  0  0  0  0  0
  -30.2462  -14.5817   22.8193 H   0  0  0  0  0  0
  -24.9642  -25.6241   23.6252 H   0  0  0  0  0  0
  -24.5659  -26.2204   22.0416 H   0  0  0  0  0  0
  -31.9092  -16.6946   21.4136 H   0  0  0  0  0  0
  -32.0731  -15.9877   22.9912 H   0  0  0  0  0  0
  -24.3823  -24.1288   21.0218 H   0  0  0  0  0  0
  -24.1178  -23.2798   22.5259 H   0  0  0  0  0  0
  -31.4269  -18.2575   23.2931 H   0  0  0  0  0  0
  -30.0305  -17.3122   23.7355 H   0  0  0  0  0  0
  -26.4799  -23.7649   23.1985 H   0  0  0  0  0  0
  -26.7852  -24.5153   21.6630 H   0  0  0  0  0  0
  -28.9141  -17.8219   21.6093 H   0  0  0  0  0  0
  -30.3718  -18.5127   20.9296 H   0  0  0  0  0  0
  -26.5500  -22.4174   20.4476 H   0  0  0  0  0  0
  -25.7460  -21.6501   21.7950 H   0  0  0  0  0  0
  -30.2837  -20.4414   22.3347 H   0  0  0  0  0  0
  -29.1087  -19.7225   23.4112 H   0  0  0  0  0  0
  -27.7805  -21.7514   23.1634 H   0  0  0  0  0  0
  -28.6639  -22.5283   21.8729 H   0  0  0  0  0  0
  -27.4002  -19.7606   21.5790 H   0  0  0  0  0  0
  -28.5479  -20.5000   20.4998 H   0  0  0  0  0  0
  -24.4964  -31.8195   20.2298 H   0  0  0  0  0  0
  -24.5584  -30.9848   18.8948 H   0  0  0  0  0  0
  1 25  1  0  0  0
  1 30  2  0  0  0
  1 78  1  0  0  0
  2  3  1  0  0  0
  2 25  1  0  0  0
  2 92  1  0  0  0
  2 93  1  0  0  0
  3  4  1  0  0  0
  3 94  1  0  0  0
  3 95  1  0  0  0
  4  5  1  0  0  0
  4 96  1  0  0  0
  4 97  1  0  0  0
  5  6  1  0  0  0
  5 26  1  0  0  0
  5 98  1  0  0  0
  6 25  1  0  0  0
  6 99  1  0  0  0
  6100  1  0  0  0
  7  8  2  0  0  0
  7 26  1  0  0  0
  7 29  1  0  0  0
  8  9  1  0  0  0
  8 22  1  0  0  0
  9 10  1  0  0  0
  9 27  2  0  0  0
 10 11  2  0  0  0
 10 15  1  0  0  0
 11 12  1  0  0  0
 11101  1  0  0  0
 12 13  2  0  0  0
 12102  1  0  0  0
 13 14  1  0  0  0
 13 31  1  0  0  0
 14 15  2  0  0  0
 14103  1  0  0  0
 15104  1  0  0  0
 16 17  2  0  0  0
 16 21  1  0  0  0
 16 31  1  0  0  0
 17 18  1  0  0  0
 17105  1  0  0  0
 18 19  2  0  0  0
 18106  1  0  0  0
 19 20  1  0  0  0
 19 24  1  0  0  0
 20 21  2  0  0  0
 20107  1  0  0  0
 21 23  1  0  0  0
 22 28  1  0  0  0
 22 32  2  0  0  0
 26 27  1  0  0  0
 28108  1  0  0  0
 28109  1  0  0  0
 29110  1  0  0  0
 29111  1  0  0  0
 33 34  1  0  0  0
 33 66  1  0  0  0
 33 70  2  0  0  0
 34 36  1  0  0  0
 34 59  1  0  0  0
 34112  1  0  0  0
 35 44  2  0  0  0
 35 45  1  0  0  0
 35 68  1  0  0  0
 36 56  1  0  0  0
 36113  1  0  0  0
 37 39  1  0  0  0
 37 47  1  0  0  0
 37 66  1  0  0  0
 37114  1  0  0  0
 38 43  2  0  0  0
 38 46  1  0  0  0
 38 47  1  0  0  0
 39 64  1  0  0  0
 39 67  2  0  0  0
 40 52  1  0  0  0
 40 53  2  0  0  0
 40 58  1  0  0  0
 41115  1  0  0  0
 41116  1  0  0  0
 41117  1  0  0  0
 41 48  1  0  0  0
 42 43  1  0  0  0
 42 66  1  0  0  0
 42118  1  0  0  0
 42119  1  0  0  0
 43 44  1  0  0  0
 44120  1  0  0  0
 45 46  2  0  0  0
 45121  1  0  0  0
 46122  1  0  0  0
 47123  1  0  0  0
 47124  1  0  0  0
 48 56  1  0  0  0
 48 65  1  0  0  0
 48125  1  0  0  0
 49 50  1  0  0  0
 49 53  1  0  0  0
 49 64  1  0  0  0
 49126  1  0  0  0
 50 51  1  0  0  0
 50127  1  0  0  0
 50128  1  0  0  0
 51 52  1  0  0  0
 51129  1  0  0  0
 51130  1  0  0  0
 52131  1  0  0  0
 52132  1  0  0  0
 53 54  1  0  0  0
 54 55  2  0  0  0
 54133  1  0  0  0
 55 57  1  0  0  0
 55134  1  0  0  0
 56 69  2  0  0  0
 57 58  2  0  0  0
 57135  1  0  0  0
 58136  1  0  0  0
 59 60  1  0  0  0
 59 61  1  0  0  0
 59 62  1  0  0  0
 60137  1  0  0  0
 60138  1  0  0  0
 60139  1  0  0  0
 61140  1  0  0  0
 61141  1  0  0  0
 61142  1  0  0  0
 62143  1  0  0  0
 62144  1  0  0  0
 62145  1  0  0  0
 63 65  1  0  0  0
 63146  1  0  0  0
 63147  1  0  0  0
 63148  1  0  0  0
 64149  1  0  0  0
 65150  1  0  0  0
 68 89  1  0  0  0
 71 73  2  0  0  0
 71 75  1  0  0  0
 71151  1  0  0  0
 72 74  2  0  0  0
 72 90  1  0  0  0
 72152  1  0  0  0
 73 74  1  0  0  0
 73 76  1  0  0  0
 74 91  1  0  0  0
 75 77  1  0  0  0
 75 90  2  0  0  0
 76 89  1  0  0  0
 76153  1  0  0  0
 76154  1  0  0  0
 77 79  1  0  0  0
 77155  1  0  0  0
 77156  1  0  0  0
 78 80  1  0  0  0
 78157  1  0  0  0
 78158  1  0  0  0
 79 81  1  0  0  0
 79159  1  0  0  0
 79160  1  0  0  0
 80 82  1  0  0  0
 80161  1  0  0  0
 80162  1  0  0  0
 81 83  1  0  0  0
 81163  1  0  0  0
 81164  1  0  0  0
 82 84  1  0  0  0
 82165  1  0  0  0
 82166  1  0  0  0
 83 85  1  0  0  0
 83167  1  0  0  0
 83168  1  0  0  0
 84 86  1  0  0  0
 84169  1  0  0  0
 84170  1  0  0  0
 85 87  1  0  0  0
 85171  1  0  0  0
 85172  1  0  0  0
 86 88  1  0  0  0
 86173  1  0  0  0
 86174  1  0  0  0
 87 88  1  0  0  0
 87175  1  0  0  0
 87176  1  0  0  0
 88177  1  0  0  0
 88178  1  0  0  0
 89179  1  0  0  0
 89180  1  0  0  0
M  ISO  4   1 100  68 101  78 100  89 101
M  END
> <chiral flag>
0

> <version>
0

> <s_m_source_file>
/data/baiqing/PycharmProjects/Reinvent-master-3.2/result/LINK_invent/BTK/process_docking_weight1_custom_sum_contain_oxygen_bond_distance_aromatic_linkinvent_7_9_3/rearranged_h_0032.sdf

> <i_m_source_file_index>
19

> <r_mmod_Potential_Energy-OPLS-2005>
19314.302734375

> <r_mmod_Stretch_Energy-OPLS-2005>
9830.8798828125

> <r_mmod_Bend_Energy-OPLS-2005>
1115.81274414062

> <r_mmod_Torsional_Energy-OPLS-2005>
679.064208984375

> <r_mmod_Improper_Torsional_Energy-OPLS-2005>
97.1512985229492

> <r_mmod_Van_der_Waal_Energy-OPLS-2005>
5260.275390625

> <r_mmod_Electrostatic_Energy-OPLS-2005>
-338.488525390625

> <r_mmod_Solvation_Energy-OPLS-2005>
-184.26335144043

> <b_mmod_Minimization_Converged-OPLS-2005>
0

> <r_mmod_RMS_Derivative-OPLS-2005>
11.2629919052124

$$$$
19
                    3D
 Structure written by MMmdl.
176184  0  0  1  0            999 V2000
  -30.6877  -14.3966   20.6533 C   0  0  0  0  0  0
  -30.4442  -12.2915   19.3853 C   0  0  0  0  0  0
  -29.4965  -12.5115   18.1883 C   0  0  0  0  0  0
  -28.0167  -12.3714   18.6037 C   0  0  0  0  0  0
  -27.6743  -13.1830   19.8825 C   0  0  2  0  0  0
  -28.7127  -12.8750   20.9839 C   0  0  0  0  0  0
  -25.2676  -13.8134   20.5640 C   0  0  0  0  0  0
  -24.1865  -13.0443   20.9121 C   0  0  0  0  0  0
  -24.6387  -11.6904   20.8712 C   0  0  0  0  0  0
  -23.9047  -10.4289   21.0392 C   0  0  0  0  0  0
  -24.3612   -9.4206   21.9162 C   0  0  0  0  0  0
  -23.6287   -8.2235   22.0759 C   0  0  0  0  0  0
  -22.4269   -8.0280   21.3552 C   0  0  0  0  0  0
  -21.9887   -9.0248   20.4648 C   0  0  0  0  0  0
  -22.7224  -10.2134   20.3037 C   0  0  0  0  0  0
  -21.6837   -6.0733   22.5275 C   0  0  0  0  0  0
  -21.4001   -6.5632   23.8217 C   0  0  0  0  0  0
  -21.3655   -5.6796   24.9181 C   0  0  0  0  0  0
  -21.6034   -4.3054   24.7241 C   0  0  0  0  0  0
  -21.8817   -3.8151   23.4358 C   0  0  0  0  0  0
  -21.9179   -4.6956   22.3413 C   0  0  0  0  0  0
  -22.7888  -13.5259   21.1799 C   0  0  0  0  0  0
  -22.1636   -4.2131   21.0997 F   0  0  0  0  0  0
  -21.5628   -3.4547   25.7759 F   0  0  0  0  0  0
  -30.0512  -13.2148   20.4571 N   0  0  0  0  0  0
  -26.3082  -12.9240   20.3352 N   0  0  0  0  0  0
  -25.9303  -11.6441   20.5734 N   0  0  0  0  0  0
  -22.0522  -12.8234   22.0344 N   0  0  0  0  0  0
  -25.4500  -15.1839   20.4130 N   0  0  0  0  0  0
  -31.7513  -14.7071   20.1059 O   0  0  0  0  0  0
  -21.6637   -6.8863   21.4242 O   0  0  0  0  0  0
  -22.3585  -14.5552   20.6663 O   0  0  0  0  0  0
  -24.6152  -31.8684   23.2135 C   0  0  0  0  0  0
  -25.9033  -32.4819   23.8451 C   0  0  1  0  0  0
  -27.2313  -27.4380   20.0843 C   0  0  0  0  0  0
  -25.5876  -33.8621   24.2369 N   0  0  0  0  0  0
  -23.4013  -30.4975   21.5548 C   0  0  2  0  0  0
  -24.8427  -28.9667   20.1079 C   0  0  0  0  0  0
  -22.7384  -29.4655   22.4971 C   0  0  0  0  0  0
  -18.0278  -28.1414   22.8511 C   0  0  0  0  0  0
  -24.1478  -36.7368   23.2639 C   0  0  0  0  0  0
  -25.9293  -30.8353   21.3599 C   0  0  0  0  0  0
  -26.0040  -29.4699   20.7072 C   0  0  0  0  0  0
  -27.1963  -28.7145   20.6898 C   0  0  0  0  0  0
  -26.0417  -26.9371   19.5010 C   0  0  0  0  0  0
  -24.8588  -27.6986   19.5025 C   0  0  0  0  0  0
  -23.6105  -29.8434   20.1618 C   0  0  0  0  0  0
  -25.4091  -36.3138   24.0347 C   0  0  1  0  0  0
  -20.5869  -28.3678   23.1343 C   0  0  2  0  0  0
  -20.6768  -26.9381   22.5486 C   0  0  0  0  0  0
  -19.5760  -26.6415   21.5241 C   0  0  0  0  0  0
  -18.1915  -26.7989   22.1632 C   0  0  0  0  0  0
  -19.1530  -28.8849   23.2952 C   0  0  0  0  0  0
  -18.9490  -30.1451   23.8983 C   0  0  0  0  0  0
  -17.6483  -30.6580   24.0645 C   0  0  0  0  0  0
  -25.9002  -34.9475   23.5144 C   0  0  0  0  0  0
  -16.5368  -29.9126   23.6355 C   0  0  0  0  0  0
  -16.7276  -28.6568   23.0317 C   0  0  0  0  0  0
  -26.4452  -31.6603   25.0784 C   0  0  0  0  0  0
  -25.3755  -31.3689   26.1567 C   0  0  0  0  0  0
  -27.0229  -30.3053   24.6085 C   0  0  0  0  0  0
  -27.6037  -32.4327   25.7557 C   0  0  0  0  0  0
  -27.5587  -37.1835   24.8453 C   0  0  0  0  0  0
  -21.4113  -29.3071   22.3741 N   0  0  0  0  0  0
  -26.4295  -37.3810   23.9404 N   0  0  0  0  0  0
  -24.6688  -31.0788   22.1033 N   0  0  0  0  0  0
  -23.4126  -28.8106   23.2964 O   0  0  0  0  0  0
  -28.4289  -26.7479   20.0902 O   0  0  0  0  0  0
  -26.5563  -34.8897   22.4706 O   0  0  0  0  0  0
  -23.5338  -32.1449   23.7511 O   0  0  0  0  0  0
  -28.5555  -22.3641   19.1546 C   0  0  0  0  0  0
  -27.5742  -23.0387   19.9031 C   0  0  0  0  0  0
  -26.2880  -22.4413   20.0065 C   0  0  0  0  0  0
  -28.2234  -21.1696   18.4853 C   0  0  0  0  0  0
  -26.0419  -21.2620   19.2553 C   0  0  0  0  0  0
  -30.5323  -21.1246   17.3533 C   0  0  0  0  0  0
  -27.9475  -24.3660   20.5714 C   0  0  0  0  0  0
  -25.2076  -23.0099   20.9326 C   0  0  0  0  0  0
  -29.2455  -20.3623   17.6955 C   0  0  0  0  0  0
  -25.4323  -22.6844   22.4287 C   0  0  0  0  0  0
  -25.5620  -21.1746   22.7393 C   0  0  0  0  0  0
  -27.0169  -20.6545   22.7268 C   0  0  0  0  0  0
  -27.1361  -19.1854   22.2961 C   0  0  0  0  0  0
  -28.5956  -18.7078   22.1729 C   0  0  0  0  0  0
  -28.6769  -17.2651   21.6487 C   0  0  0  0  0  0
  -30.1019  -16.6836   21.5601 C   0  0  0  0  0  0
  -28.4838  -25.4152   19.5681 C   0  0  0  0  0  0
  -26.9837  -20.6511   18.5132 N   0  0  0  0  0  0
  -29.9920  -15.2384   21.4257 N   0  0  0  0  0  0
  -24.4865  -20.5079   19.2231 Cl  0  0  0  0  0  0
  -31.4788  -12.4363   19.0710 H   0  0  0  0  0  0
  -30.3839  -11.2627   19.7399 H   0  0  0  0  0  0
  -29.7348  -11.8066   17.3919 H   0  0  0  0  0  0
  -29.6646  -13.5070   17.7749 H   0  0  0  0  0  0
  -27.8201  -11.3111   18.7780 H   0  0  0  0  0  0
  -27.3628  -12.6708   17.7831 H   0  0  0  0  0  0
  -27.7463  -14.2415   19.6320 H   0  0  0  0  0  0
  -28.6851  -11.8126   21.2330 H   0  0  0  0  0  0
  -28.4628  -13.3755   21.9217 H   0  0  0  0  0  0
  -25.2773   -9.5662   22.4742 H   0  0  0  0  0  0
  -23.9987   -7.4626   22.7482 H   0  0  0  0  0  0
  -21.0796   -8.8752   19.8975 H   0  0  0  0  0  0
  -22.3655  -10.9655   19.6145 H   0  0  0  0  0  0
  -21.1981   -7.6144   23.9692 H   0  0  0  0  0  0
  -21.1478   -6.0543   25.9072 H   0  0  0  0  0  0
  -22.0602   -2.7609   23.2879 H   0  0  0  0  0  0
  -22.4187  -11.9914   22.4743 H   0  0  0  0  0  0
  -21.1147  -13.1259   22.2577 H   0  0  0  0  0  0
  -24.7002  -15.8555   20.5412 H   0  0  0  0  0  0
  -26.3234  -15.6141   20.1345 H   0  0  0  0  0  0
  -26.7127  -32.5485   23.1241 H   0  0  0  0  0  0
  -25.0036  -33.9820   25.0514 H   0  0  0  0  0  0
  -22.6944  -31.3194   21.4242 H   0  0  0  0  0  0
  -23.3705  -35.9731   23.3308 H   0  0  0  0  0  0
  -24.3586  -36.8966   22.2052 H   0  0  0  0  0  0
  -23.7246  -37.6588   23.6642 H   0  0  0  0  0  0
  -26.0305  -31.5994   20.5878 H   0  0  0  0  0  0
  -26.8244  -30.8966   21.9682 H   0  0  0  0  0  0
  -28.0960  -29.1077   21.1442 H   0  0  0  0  0  0
  -25.9967  -25.9590   19.0453 H   0  0  0  0  0  0
  -23.9717  -27.2988   19.0320 H   0  0  0  0  0  0
  -23.7293  -30.6324   19.4197 H   0  0  0  0  0  0
  -22.7273  -29.2856   19.8518 H   0  0  0  0  0  0
  -25.1252  -36.2053   25.0846 H   0  0  0  0  0  0
  -20.9995  -28.3234   24.1449 H   0  0  0  0  0  0
  -20.5574  -26.2309   23.3718 H   0  0  0  0  0  0
  -21.6611  -26.7342   22.1266 H   0  0  0  0  0  0
  -19.6927  -25.6317   21.1300 H   0  0  0  0  0  0
  -19.6746  -27.3241   20.6784 H   0  0  0  0  0  0
  -17.4240  -26.6821   21.3972 H   0  0  0  0  0  0
  -18.0218  -26.0084   22.8979 H   0  0  0  0  0  0
  -19.7980  -30.7244   24.2398 H   0  0  0  0  0  0
  -17.5031  -31.6220   24.5327 H   0  0  0  0  0  0
  -15.5386  -30.3069   23.7649 H   0  0  0  0  0  0
  -15.8672  -28.0943   22.6971 H   0  0  0  0  0  0
  -24.5946  -30.6981   25.7991 H   0  0  0  0  0  0
  -24.8889  -32.2793   26.5080 H   0  0  0  0  0  0
  -25.8164  -30.8895   27.0314 H   0  0  0  0  0  0
  -26.2722  -29.6911   24.1087 H   0  0  0  0  0  0
  -27.3972  -29.7207   25.4502 H   0  0  0  0  0  0
  -27.8593  -30.4430   23.9221 H   0  0  0  0  0  0
  -27.2662  -33.3626   26.2175 H   0  0  0  0  0  0
  -28.3832  -32.6898   25.0372 H   0  0  0  0  0  0
  -28.0716  -31.8411   26.5442 H   0  0  0  0  0  0
  -28.2587  -38.0152   24.7485 H   0  0  0  0  0  0
  -28.1098  -36.2669   24.6290 H   0  0  0  0  0  0
  -27.2299  -37.1497   25.8855 H   0  0  0  0  0  0
  -20.9247  -29.9007   21.7160 H   0  0  0  0  0  0
  -26.0197  -38.2896   24.1400 H   0  0  0  0  0  0
  -29.5571  -22.7640   19.1039 H   0  0  0  0  0  0
  -31.1854  -20.5156   16.7275 H   0  0  0  0  0  0
  -31.0930  -21.3732   18.2551 H   0  0  0  0  0  0
  -30.2995  -22.0430   16.8139 H   0  0  0  0  0  0
  -28.6986  -24.1788   21.3382 H   0  0  0  0  0  0
  -27.1071  -24.7920   21.1096 H   0  0  0  0  0  0
  -24.2249  -22.6418   20.6502 H   0  0  0  0  0  0
  -25.1246  -24.0861   20.7898 H   0  0  0  0  0  0
  -28.7861  -20.0039   16.7731 H   0  0  0  0  0  0
  -29.4978  -19.4682   18.2704 H   0  0  0  0  0  0
  -24.5868  -23.0863   22.9888 H   0  0  0  0  0  0
  -26.3046  -23.2242   22.8036 H   0  0  0  0  0  0
  -24.9414  -20.6168   22.0378 H   0  0  0  0  0  0
  -25.1269  -20.9589   23.7153 H   0  0  0  0  0  0
  -27.4668  -20.7905   23.7125 H   0  0  0  0  0  0
  -27.6168  -21.2523   22.0428 H   0  0  0  0  0  0
  -26.6533  -19.0653   21.3258 H   0  0  0  0  0  0
  -26.5878  -18.5510   22.9959 H   0  0  0  0  0  0
  -29.0799  -18.7698   23.1474 H   0  0  0  0  0  0
  -29.1515  -19.3702   21.5089 H   0  0  0  0  0  0
  -28.1984  -17.1999   20.6690 H   0  0  0  0  0  0
  -28.0771  -16.6386   22.3094 H   0  0  0  0  0  0
  -30.6745  -16.9080   22.4603 H   0  0  0  0  0  0
  -30.6355  -17.1153   20.7117 H   0  0  0  0  0  0
  -27.9746  -25.3495   18.6062 H   0  0  0  0  0  0
  -29.5302  -25.1915   19.3480 H   0  0  0  0  0  0
  -29.1700  -14.8260   21.8399 H   0  0  0  0  0  0
  1 25  1  0  0  0
  1 30  2  0  0  0
  1 89  1  0  0  0
  2  3  1  0  0  0
  2 25  1  0  0  0
  2 91  1  0  0  0
  2 92  1  0  0  0
  3  4  1  0  0  0
  3 93  1  0  0  0
  3 94  1  0  0  0
  4  5  1  0  0  0
  4 95  1  0  0  0
  4 96  1  0  0  0
  5  6  1  0  0  0
  5 26  1  0  0  0
  5 97  1  0  0  0
  6 25  1  0  0  0
  6 98  1  0  0  0
  6 99  1  0  0  0
  7  8  2  0  0  0
  7 26  1  0  0  0
  7 29  1  0  0  0
  8  9  1  0  0  0
  8 22  1  0  0  0
  9 10  1  0  0  0
  9 27  2  0  0  0
 10 11  2  0  0  0
 10 15  1  0  0  0
 11 12  1  0  0  0
 11100  1  0  0  0
 12 13  2  0  0  0
 12101  1  0  0  0
 13 14  1  0  0  0
 13 31  1  0  0  0
 14 15  2  0  0  0
 14102  1  0  0  0
 15103  1  0  0  0
 16 17  2  0  0  0
 16 21  1  0  0  0
 16 31  1  0  0  0
 17 18  1  0  0  0
 17104  1  0  0  0
 18 19  2  0  0  0
 18105  1  0  0  0
 19 20  1  0  0  0
 19 24  1  0  0  0
 20 21  2  0  0  0
 20106  1  0  0  0
 21 23  1  0  0  0
 22 28  1  0  0  0
 22 32  2  0  0  0
 26 27  1  0  0  0
 28107  1  0  0  0
 28108  1  0  0  0
 29109  1  0  0  0
 29110  1  0  0  0
 33 34  1  0  0  0
 33 66  1  0  0  0
 33 70  2  0  0  0
 34 36  1  0  0  0
 34 59  1  0  0  0
 34111  1  0  0  0
 35 44  2  0  0  0
 35 45  1  0  0  0
 35 68  1  0  0  0
 36 56  1  0  0  0
 36112  1  0  0  0
 37 39  1  0  0  0
 37 47  1  0  0  0
 37 66  1  0  0  0
 37113  1  0  0  0
 38 43  2  0  0  0
 38 46  1  0  0  0
 38 47  1  0  0  0
 39 64  1  0  0  0
 39 67  2  0  0  0
 40 52  1  0  0  0
 40 53  2  0  0  0
 40 58  1  0  0  0
 41114  1  0  0  0
 41115  1  0  0  0
 41116  1  0  0  0
 41 48  1  0  0  0
 42 43  1  0  0  0
 42 66  1  0  0  0
 42117  1  0  0  0
 42118  1  0  0  0
 43 44  1  0  0  0
 44119  1  0  0  0
 45 46  2  0  0  0
 45120  1  0  0  0
 46121  1  0  0  0
 47122  1  0  0  0
 47123  1  0  0  0
 48 56  1  0  0  0
 48 65  1  0  0  0
 48124  1  0  0  0
 49 50  1  0  0  0
 49 53  1  0  0  0
 49 64  1  0  0  0
 49125  1  0  0  0
 50 51  1  0  0  0
 50126  1  0  0  0
 50127  1  0  0  0
 51 52  1  0  0  0
 51128  1  0  0  0
 51129  1  0  0  0
 52130  1  0  0  0
 52131  1  0  0  0
 53 54  1  0  0  0
 54 55  2  0  0  0
 54132  1  0  0  0
 55 57  1  0  0  0
 55133  1  0  0  0
 56 69  2  0  0  0
 57 58  2  0  0  0
 57134  1  0  0  0
 58135  1  0  0  0
 59 60  1  0  0  0
 59 61  1  0  0  0
 59 62  1  0  0  0
 60136  1  0  0  0
 60137  1  0  0  0
 60138  1  0  0  0
 61139  1  0  0  0
 61140  1  0  0  0
 61141  1  0  0  0
 62142  1  0  0  0
 62143  1  0  0  0
 62144  1  0  0  0
 63 65  1  0  0  0
 63145  1  0  0  0
 63146  1  0  0  0
 63147  1  0  0  0
 64148  1  0  0  0
 65149  1  0  0  0
 68 87  1  0  0  0
 71 72  2  0  0  0
 71 74  1  0  0  0
 71150  1  0  0  0
 72 73  1  0  0  0
 72 77  1  0  0  0
 73 75  2  0  0  0
 73 78  1  0  0  0
 74 79  1  0  0  0
 74 88  2  0  0  0
 75 88  1  0  0  0
 75 90  1  0  0  0
 76 79  1  0  0  0
 76151  1  0  0  0
 76152  1  0  0  0
 76153  1  0  0  0
 77 87  1  0  0  0
 77154  1  0  0  0
 77155  1  0  0  0
 78 80  1  0  0  0
 78156  1  0  0  0
 78157  1  0  0  0
 79158  1  0  0  0
 79159  1  0  0  0
 80 81  1  0  0  0
 80160  1  0  0  0
 80161  1  0  0  0
 81 82  1  0  0  0
 81162  1  0  0  0
 81163  1  0  0  0
 82 83  1  0  0  0
 82164  1  0  0  0
 82165  1  0  0  0
 83 84  1  0  0  0
 83166  1  0  0  0
 83167  1  0  0  0
 84 85  1  0  0  0
 84168  1  0  0  0
 84169  1  0  0  0
 85 86  1  0  0  0
 85170  1  0  0  0
 85171  1  0  0  0
 86 89  1  0  0  0
 86172  1  0  0  0
 86173  1  0  0  0
 87174  1  0  0  0
 87175  1  0  0  0
 89176  1  0  0  0
M  ISO  4   1 100  68 101  87 101  89 100
M  END
> <chiral flag>
0

> <version>
0

> <s_m_source_file>
/data/baiqing/PycharmProjects/Reinvent-master-3.2/result/LINK_invent/BTK/process_docking_weight1_custom_sum_contain_oxygen_bond_distance_aromatic_linkinvent_7_9_3/rearranged_h_0032.sdf

> <i_m_source_file_index>
20

> <r_mmod_Potential_Energy-OPLS-2005>
-204.842544555664

> <r_mmod_Stretch_Energy-OPLS-2005>
36.5335388183594

> <r_mmod_Bend_Energy-OPLS-2005>
107.701141357422

> <r_mmod_Torsional_Energy-OPLS-2005>
209.371459960938

> <r_mmod_Improper_Torsional_Energy-OPLS-2005>
2.89476299285889

> <r_mmod_Van_der_Waal_Energy-OPLS-2005>
147.160369873047

> <r_mmod_Electrostatic_Energy-OPLS-2005>
-517.019348144531

> <r_mmod_Solvation_Energy-OPLS-2005>
-202.232543945312

> <b_mmod_Minimization_Converged-OPLS-2005>
0

> <r_mmod_RMS_Derivative-OPLS-2005>
4.87983179092407

$$$$
20
                    3D
 Structure written by MMmdl.
180190  0  0  1  0            999 V2000
  -30.7582  -14.4612   20.6961 C   0  0  0  0  0  0
  -30.4237  -12.3429   19.4477 C   0  0  0  0  0  0
  -29.5051  -12.5289   18.2228 C   0  0  0  0  0  0
  -28.0310  -12.3600   18.6292 C   0  0  0  0  0  0
  -27.6617  -13.2164   19.8673 C   0  0  2  0  0  0
  -28.6899  -13.0420   21.0074 C   0  0  0  0  0  0
  -25.2591  -13.8163   20.5657 C   0  0  0  0  0  0
  -24.1846  -13.0455   20.9126 C   0  0  0  0  0  0
  -24.6399  -11.6913   20.8663 C   0  0  0  0  0  0
  -23.9074  -10.4301   21.0352 C   0  0  0  0  0  0
  -24.3620   -9.4224   21.9150 C   0  0  0  0  0  0
  -23.6290   -8.2275   22.0760 C   0  0  0  0  0  0
  -22.4259   -8.0294   21.3562 C   0  0  0  0  0  0
  -21.9892   -9.0255   20.4651 C   0  0  0  0  0  0
  -22.7230  -10.2125   20.3023 C   0  0  0  0  0  0
  -21.6850   -6.0741   22.5277 C   0  0  0  0  0  0
  -21.4000   -6.5649   23.8205 C   0  0  0  0  0  0
  -21.3647   -5.6800   24.9169 C   0  0  0  0  0  0
  -21.6035   -4.3051   24.7221 C   0  0  0  0  0  0
  -21.8817   -3.8149   23.4342 C   0  0  0  0  0  0
  -21.9201   -4.6965   22.3408 C   0  0  0  0  0  0
  -22.7863  -13.5242   21.1818 C   0  0  0  0  0  0
  -22.1665   -4.2154   21.0984 F   0  0  0  0  0  0
  -21.5636   -3.4536   25.7732 F   0  0  0  0  0  0
  -30.0353  -13.3214   20.4842 N   0  0  0  0  0  0
  -26.3030  -12.9368   20.3291 N   0  0  0  0  0  0
  -25.9334  -11.6508   20.5680 N   0  0  0  0  0  0
  -22.0518  -12.8245   22.0359 N   0  0  0  0  0  0
  -25.4336  -15.1900   20.4075 N   0  0  0  0  0  0
  -31.8111  -14.6767   20.0880 O   0  0  0  0  0  0
  -21.6643   -6.8879   21.4241 O   0  0  0  0  0  0
  -22.3551  -14.5574   20.6681 O   0  0  0  0  0  0
  -24.6181  -31.8673   23.2134 C   0  0  0  0  0  0
  -25.9092  -32.4804   23.8458 C   0  0  1  0  0  0
  -27.2644  -27.4760   20.0224 C   0  0  0  0  0  0
  -25.5992  -33.8597   24.2432 N   0  0  0  0  0  0
  -23.4077  -30.4929   21.5490 C   0  0  2  0  0  0
  -24.8548  -28.9518   20.1163 C   0  0  0  0  0  0
  -22.7437  -29.4679   22.4992 C   0  0  0  0  0  0
  -18.0311  -28.1350   22.8488 C   0  0  0  0  0  0
  -24.1466  -36.7315   23.2644 C   0  0  0  0  0  0
  -25.9360  -30.8259   21.3739 C   0  0  0  0  0  0
  -26.0110  -29.4606   20.7235 C   0  0  0  0  0  0
  -27.2170  -28.7256   20.6901 C   0  0  0  0  0  0
  -26.0905  -26.9783   19.4245 C   0  0  0  0  0  0
  -24.8887  -27.7064   19.4657 C   0  0  0  0  0  0
  -23.6193  -29.8227   20.1639 C   0  0  0  0  0  0
  -25.4081  -36.3117   24.0362 C   0  0  1  0  0  0
  -20.5896  -28.3663   23.1267 C   0  0  2  0  0  0
  -20.6756  -26.9391   22.5380 C   0  0  0  0  0  0
  -19.5737  -26.6374   21.5170 C   0  0  0  0  0  0
  -18.1935  -26.7910   22.1596 C   0  0  0  0  0  0
  -19.1564  -28.8833   23.2888 C   0  0  0  0  0  0
  -18.9484  -30.1437   23.8881 C   0  0  0  0  0  0
  -17.6472  -30.6550   24.0552 C   0  0  0  0  0  0
  -25.9015  -34.9469   23.5168 C   0  0  0  0  0  0
  -16.5366  -29.9056   23.6292 C   0  0  0  0  0  0
  -16.7301  -28.6473   23.0314 C   0  0  0  0  0  0
  -26.4527  -31.6547   25.0769 C   0  0  0  0  0  0
  -25.3871  -31.3596   26.1593 C   0  0  0  0  0  0
  -27.0332  -30.3009   24.6060 C   0  0  0  0  0  0
  -27.6116  -32.4254   25.7520 C   0  0  0  0  0  0
  -27.5556  -37.1844   24.8484 C   0  0  0  0  0  0
  -21.4168  -29.3027   22.3674 N   0  0  0  0  0  0
  -26.4272  -37.3787   23.9418 N   0  0  0  0  0  0
  -24.6703  -31.0781   22.1031 N   0  0  0  0  0  0
  -23.4203  -28.8245   23.3065 O   0  0  0  0  0  0
  -28.3928  -26.7136   19.8156 O   0  0  0  0  0  0
  -26.5524  -34.8915   22.4705 O   0  0  0  0  0  0
  -23.5381  -32.1455   23.7535 O   0  0  0  0  0  0
  -30.0756  -16.8615   21.0527 C   0  0  0  0  0  0
  -29.5045  -17.8072   23.2081 C   0  0  0  0  0  0
  -30.2596  -15.5717   21.6189 C   0  0  0  0  0  0
  -29.7393  -17.9914   21.8348 C   0  0  0  0  0  0
  -29.7119  -16.5559   23.8144 C   0  0  0  0  0  0
  -30.1323  -15.4373   23.0379 C   0  0  0  0  0  0
  -29.5135  -16.4884   25.3254 C   0  0  0  0  0  0
  -30.5688  -14.1608   23.7601 C   0  0  0  0  0  0
  -30.0597  -14.0439   25.2035 C   0  0  0  0  0  0
  -28.7887  -20.4184   21.8909 C   0  0  0  0  0  0
  -31.1546  -19.9945   21.1746 C   0  0  0  0  0  0
  -28.8715  -21.7930   21.1976 C   0  0  0  0  0  0
  -31.1909  -21.4111   20.5416 C   0  0  0  0  0  0
  -29.7297  -19.3947   21.2109 C   0  0  1  0  0  0
  -30.2616  -15.3342   26.0047 C   0  0  2  0  0  0
  -29.8360  -15.1411   27.4702 C   0  0  0  0  0  0
  -30.1860  -24.7317   22.0336 C   0  0  0  0  0  0
  -29.2732  -25.9708   21.8804 C   0  0  0  0  0  0
  -30.3212  -23.7684   20.8148 C   0  0  0  0  0  0
  -29.5276  -26.8481   20.6480 C   0  0  0  0  0  0
  -30.2543  -22.3360   21.2388 N   0  3  1  0  0  0
  -31.4690  -12.4432   19.1500 H   0  0  0  0  0  0
  -30.3291  -11.3323   19.8471 H   0  0  0  0  0  0
  -29.7654  -11.8078   17.4474 H   0  0  0  0  0  0
  -29.6615  -13.5185   17.7873 H   0  0  0  0  0  0
  -27.8647  -11.3037   18.8452 H   0  0  0  0  0  0
  -27.3798  -12.6028   17.7896 H   0  0  0  0  0  0
  -27.6971  -14.2581   19.5474 H   0  0  0  0  0  0
  -28.6546  -12.0288   21.4090 H   0  0  0  0  0  0
  -28.4194  -13.6997   21.8325 H   0  0  0  0  0  0
  -25.2774   -9.5708   22.4701 H   0  0  0  0  0  0
  -23.9985   -7.4668   22.7491 H   0  0  0  0  0  0
  -21.0818   -8.8771   19.8953 H   0  0  0  0  0  0
  -22.3700  -10.9649   19.6105 H   0  0  0  0  0  0
  -21.1970   -7.6161   23.9708 H   0  0  0  0  0  0
  -21.1463   -6.0535   25.9074 H   0  0  0  0  0  0
  -22.0604   -2.7609   23.2850 H   0  0  0  0  0  0
  -22.4126  -11.9894   22.4731 H   0  0  0  0  0  0
  -21.1126  -13.1251   22.2552 H   0  0  0  0  0  0
  -24.6756  -15.8513   20.5286 H   0  0  0  0  0  0
  -26.3076  -15.6265   20.1443 H   0  0  0  0  0  0
  -26.7179  -32.5502   23.1236 H   0  0  0  0  0  0
  -25.0256  -33.9752   25.0668 H   0  0  0  0  0  0
  -22.7007  -31.3141   21.4050 H   0  0  0  0  0  0
  -23.3684  -35.9704   23.3371 H   0  0  0  0  0  0
  -24.3551  -36.8844   22.2046 H   0  0  0  0  0  0
  -23.7272  -37.6577   23.6580 H   0  0  0  0  0  0
  -26.0603  -31.5904   20.6066 H   0  0  0  0  0  0
  -26.8226  -30.8746   21.9950 H   0  0  0  0  0  0
  -28.1038  -29.1552   21.1320 H   0  0  0  0  0  0
  -26.1254  -26.0475   18.8725 H   0  0  0  0  0  0
  -24.0151  -27.3233   18.9547 H   0  0  0  0  0  0
  -23.7401  -30.6012   19.4089 H   0  0  0  0  0  0
  -22.7421  -29.2510   19.8574 H   0  0  0  0  0  0
  -25.1248  -36.1998   25.0858 H   0  0  0  0  0  0
  -21.0027  -28.3221   24.1376 H   0  0  0  0  0  0
  -20.5556  -26.2315   23.3587 H   0  0  0  0  0  0
  -21.6626  -26.7338   22.1215 H   0  0  0  0  0  0
  -19.6856  -25.6296   21.1178 H   0  0  0  0  0  0
  -19.6669  -27.3183   20.6704 H   0  0  0  0  0  0
  -17.4205  -26.6738   21.3984 H   0  0  0  0  0  0
  -18.0302  -26.0008   22.8953 H   0  0  0  0  0  0
  -19.7972  -30.7258   24.2221 H   0  0  0  0  0  0
  -17.5027  -31.6190   24.5229 H   0  0  0  0  0  0
  -15.5360  -30.2939   23.7579 H   0  0  0  0  0  0
  -15.8724  -28.0766   22.6981 H   0  0  0  0  0  0
  -24.6074  -30.6852   25.8019 H   0  0  0  0  0  0
  -24.9018  -32.2683   26.5145 H   0  0  0  0  0  0
  -25.8350  -30.8784   27.0303 H   0  0  0  0  0  0
  -26.2791  -29.6767   24.1229 H   0  0  0  0  0  0
  -27.4267  -29.7246   25.4441 H   0  0  0  0  0  0
  -27.8595  -30.4340   23.9075 H   0  0  0  0  0  0
  -27.2722  -33.3514   26.2183 H   0  0  0  0  0  0
  -28.3892  -32.6873   25.0327 H   0  0  0  0  0  0
  -28.0836  -31.8329   26.5382 H   0  0  0  0  0  0
  -28.2628  -38.0078   24.7428 H   0  0  0  0  0  0
  -28.1002  -36.2624   24.6416 H   0  0  0  0  0  0
  -27.2296  -37.1597   25.8894 H   0  0  0  0  0  0
  -20.9371  -29.8842   21.6936 H   0  0  0  0  0  0
  -26.0177  -38.2890   24.1367 H   0  0  0  0  0  0
  -30.2543  -16.9991   19.9951 H   0  0  0  0  0  0
  -29.2236  -18.6397   23.8355 H   0  0  0  0  0  0
  -28.4417  -16.4069   25.5106 H   0  0  0  0  0  0
  -29.8199  -17.4337   25.7771 H   0  0  0  0  0  0
  -31.6597  -14.1603   23.7747 H   0  0  0  0  0  0
  -30.2695  -13.2654   23.2216 H   0  0  0  0  0  0
  -30.5544  -13.2090   25.7019 H   0  0  0  0  0  0
  -28.9945  -13.8076   25.1871 H   0  0  0  0  0  0
  -27.7596  -20.0636   21.8530 H   0  0  0  0  0  0
  -29.0313  -20.5592   22.9433 H   0  0  0  0  0  0
  -31.5561  -20.0426   22.1893 H   0  0  0  0  0  0
  -31.8197  -19.3270   20.6241 H   0  0  0  0  0  0
  -28.1769  -22.4906   21.6641 H   0  0  0  0  0  0
  -28.5568  -21.6891   20.1589 H   0  0  0  0  0  0
  -30.9379  -21.3439   19.4819 H   0  0  0  0  0  0
  -32.2100  -21.7974   20.5935 H   0  0  0  0  0  0
  -29.3800  -19.2688   20.1843 H   0  0  0  0  0  0
  -31.3245  -15.5829   25.9957 H   0  0  0  0  0  0
  -28.7815  -14.8752   27.5482 H   0  0  0  0  0  0
  -29.9943  -16.0431   28.0624 H   0  0  0  0  0  0
  -30.4096  -14.3406   27.9388 H   0  0  0  0  0  0
  -29.8071  -24.1802   22.8937 H   0  0  0  0  0  0
  -31.1795  -25.0676   22.3342 H   0  0  0  0  0  0
  -29.3833  -26.6068   22.7608 H   0  0  0  0  0  0
  -28.2277  -25.6518   21.8918 H   0  0  0  0  0  0
  -31.2772  -23.9712   20.3265 H   0  0  0  0  0  0
  -29.5707  -23.9752   20.0482 H   0  0  0  0  0  0
  -30.3940  -26.4968   20.0860 H   0  0  0  0  0  0
  -29.7573  -27.8786   20.9102 H   0  0  0  0  0  0
  -30.5562  -22.3358   22.2004 H   0  0  0  0  0  0
  1 25  1  0  0  0
  1 30  2  0  0  0
  1 73  1  0  0  0
  2  3  1  0  0  0
  2 25  1  0  0  0
  2 92  1  0  0  0
  2 93  1  0  0  0
  3  4  1  0  0  0
  3 94  1  0  0  0
  3 95  1  0  0  0
  4  5  1  0  0  0
  4 96  1  0  0  0
  4 97  1  0  0  0
  5  6  1  0  0  0
  5 26  1  0  0  0
  5 98  1  0  0  0
  6 25  1  0  0  0
  6 99  1  0  0  0
  6100  1  0  0  0
  7  8  2  0  0  0
  7 26  1  0  0  0
  7 29  1  0  0  0
  8  9  1  0  0  0
  8 22  1  0  0  0
  9 10  1  0  0  0
  9 27  2  0  0  0
 10 11  2  0  0  0
 10 15  1  0  0  0
 11 12  1  0  0  0
 11101  1  0  0  0
 12 13  2  0  0  0
 12102  1  0  0  0
 13 14  1  0  0  0
 13 31  1  0  0  0
 14 15  2  0  0  0
 14103  1  0  0  0
 15104  1  0  0  0
 16 17  2  0  0  0
 16 21  1  0  0  0
 16 31  1  0  0  0
 17 18  1  0  0  0
 17105  1  0  0  0
 18 19  2  0  0  0
 18106  1  0  0  0
 19 20  1  0  0  0
 19 24  1  0  0  0
 20 21  2  0  0  0
 20107  1  0  0  0
 21 23  1  0  0  0
 22 28  1  0  0  0
 22 32  2  0  0  0
 26 27  1  0  0  0
 28108  1  0  0  0
 28109  1  0  0  0
 29110  1  0  0  0
 29111  1  0  0  0
 33 34  1  0  0  0
 33 66  1  0  0  0
 33 70  2  0  0  0
 34 36  1  0  0  0
 34 59  1  0  0  0
 34112  1  0  0  0
 35 44  2  0  0  0
 35 45  1  0  0  0
 35 68  1  0  0  0
 36 56  1  0  0  0
 36113  1  0  0  0
 37 39  1  0  0  0
 37 47  1  0  0  0
 37 66  1  0  0  0
 37114  1  0  0  0
 38 43  2  0  0  0
 38 46  1  0  0  0
 38 47  1  0  0  0
 39 64  1  0  0  0
 39 67  2  0  0  0
 40 52  1  0  0  0
 40 53  2  0  0  0
 40 58  1  0  0  0
 41115  1  0  0  0
 41116  1  0  0  0
 41117  1  0  0  0
 41 48  1  0  0  0
 42 43  1  0  0  0
 42 66  1  0  0  0
 42118  1  0  0  0
 42119  1  0  0  0
 43 44  1  0  0  0
 44120  1  0  0  0
 45 46  2  0  0  0
 45121  1  0  0  0
 46122  1  0  0  0
 47123  1  0  0  0
 47124  1  0  0  0
 48 56  1  0  0  0
 48 65  1  0  0  0
 48125  1  0  0  0
 49 50  1  0  0  0
 49 53  1  0  0  0
 49 64  1  0  0  0
 49126  1  0  0  0
 50 51  1  0  0  0
 50127  1  0  0  0
 50128  1  0  0  0
 51 52  1  0  0  0
 51129  1  0  0  0
 51130  1  0  0  0
 52131  1  0  0  0
 52132  1  0  0  0
 53 54  1  0  0  0
 54 55  2  0  0  0
 54133  1  0  0  0
 55 57  1  0  0  0
 55134  1  0  0  0
 56 69  2  0  0  0
 57 58  2  0  0  0
 57135  1  0  0  0
 58136  1  0  0  0
 59 60  1  0  0  0
 59 61  1  0  0  0
 59 62  1  0  0  0
 60137  1  0  0  0
 60138  1  0  0  0
 60139  1  0  0  0
 61140  1  0  0  0
 61141  1  0  0  0
 61142  1  0  0  0
 62143  1  0  0  0
 62144  1  0  0  0
 62145  1  0  0  0
 63 65  1  0  0  0
 63146  1  0  0  0
 63147  1  0  0  0
 63148  1  0  0  0
 64149  1  0  0  0
 65150  1  0  0  0
 68 90  1  0  0  0
 71 73  2  0  0  0
 71 74  1  0  0  0
 71151  1  0  0  0
 72 74  2  0  0  0
 72 75  1  0  0  0
 72152  1  0  0  0
 73 76  1  0  0  0
 74 84  1  0  0  0
 75 76  2  0  0  0
 75 77  1  0  0  0
 76 78  1  0  0  0
 77 85  1  0  0  0
 77153  1  0  0  0
 77154  1  0  0  0
 78 79  1  0  0  0
 78155  1  0  0  0
 78156  1  0  0  0
 79 85  1  0  0  0
 79157  1  0  0  0
 79158  1  0  0  0
 80 82  1  0  0  0
 80 84  1  0  0  0
 80159  1  0  0  0
 80160  1  0  0  0
 81 83  1  0  0  0
 81 84  1  0  0  0
 81161  1  0  0  0
 81162  1  0  0  0
 82 91  1  0  0  0
 82163  1  0  0  0
 82164  1  0  0  0
 83 91  1  0  0  0
 83165  1  0  0  0
 83166  1  0  0  0
 84167  1  0  0  0
 85 86  1  0  0  0
 85168  1  0  0  0
 86169  1  0  0  0
 86170  1  0  0  0
 86171  1  0  0  0
 87 88  1  0  0  0
 87 89  1  0  0  0
 87172  1  0  0  0
 87173  1  0  0  0
 88 90  1  0  0  0
 88174  1  0  0  0
 88175  1  0  0  0
 89176  1  0  0  0
 89177  1  0  0  0
 89 91  1  0  0  0
 90178  1  0  0  0
 90179  1  0  0  0
 91180  1  0  0  0
M  CHG  1  91   1
M  ISO  4   1 100  68 101  73 100  90 101
M  END
> <chiral flag>
0

> <version>
0

> <s_m_source_file>
/data/baiqing/PycharmProjects/Reinvent-master-3.2/result/LINK_invent/BTK/process_docking_weight1_custom_sum_contain_oxygen_bond_distance_aromatic_linkinvent_7_9_3/rearranged_h_0032.sdf

> <i_m_source_file_index>
21

> <r_mmod_Potential_Energy-OPLS-2005>
13.4761018753052

> <r_mmod_Stretch_Energy-OPLS-2005>
44.469554901123

> <r_mmod_Bend_Energy-OPLS-2005>
125.723136901855

> <r_mmod_Torsional_Energy-OPLS-2005>
262.475372314453

> <r_mmod_Improper_Torsional_Energy-OPLS-2005>
3.76900672912598

> <r_mmod_Van_der_Waal_Energy-OPLS-2005>
155.118148803711

> <r_mmod_Electrostatic_Energy-OPLS-2005>
-195.784805297852

> <r_mmod_Solvation_Energy-OPLS-2005>
-399.628936767578

> <b_mmod_Minimization_Converged-OPLS-2005>
0

> <r_mmod_RMS_Derivative-OPLS-2005>
4.89864444732666

$$$$
21
                    3D
 Structure written by MMmdl.
164172  0  0  1  0            999 V2000
  -30.7341  -14.4147   20.6396 C   0  0  0  0  0  0
  -30.4205  -12.3013   19.3931 C   0  0  0  0  0  0
  -29.4854  -12.5231   18.1894 C   0  0  0  0  0  0
  -28.0040  -12.3995   18.5998 C   0  0  0  0  0  0
  -27.6693  -13.2085   19.8814 C   0  0  2  0  0  0
  -28.7160  -12.9558   20.9918 C   0  0  0  0  0  0
  -25.2638  -13.8123   20.5732 C   0  0  0  0  0  0
  -24.1877  -13.0397   20.9194 C   0  0  0  0  0  0
  -24.6451  -11.6879   20.8796 C   0  0  0  0  0  0
  -23.9101  -10.4272   21.0471 C   0  0  0  0  0  0
  -24.3644   -9.4168   21.9237 C   0  0  0  0  0  0
  -23.6308   -8.2204   22.0769 C   0  0  0  0  0  0
  -22.4301   -8.0277   21.3539 C   0  0  0  0  0  0
  -21.9961   -9.0257   20.4662 C   0  0  0  0  0  0
  -22.7290  -10.2129   20.3102 C   0  0  0  0  0  0
  -21.6865   -6.0734   22.5284 C   0  0  0  0  0  0
  -21.4028   -6.5623   23.8221 C   0  0  0  0  0  0
  -21.3662   -5.6782   24.9185 C   0  0  0  0  0  0
  -21.6037   -4.3049   24.7251 C   0  0  0  0  0  0
  -21.8822   -3.8134   23.4368 C   0  0  0  0  0  0
  -21.9201   -4.6943   22.3422 C   0  0  0  0  0  0
  -22.7899  -13.5227   21.1847 C   0  0  0  0  0  0
  -22.1668   -4.2136   21.0992 F   0  0  0  0  0  0
  -21.5633   -3.4531   25.7748 F   0  0  0  0  0  0
  -30.0453  -13.2578   20.4427 N   0  0  0  0  0  0
  -26.3112  -12.9312   20.3447 N   0  0  0  0  0  0
  -25.9386  -11.6469   20.5796 N   0  0  0  0  0  0
  -22.0526  -12.8224   22.0390 N   0  0  0  0  0  0
  -25.4321  -15.1844   20.4125 N   0  0  0  0  0  0
  -31.8099  -14.6325   20.0752 O   0  0  0  0  0  0
  -21.6649   -6.8880   21.4249 O   0  0  0  0  0  0
  -22.3597  -14.5524   20.6689 O   0  0  0  0  0  0
  -24.6075  -31.8689   23.2146 C   0  0  0  0  0  0
  -25.8994  -32.4822   23.8464 C   0  0  1  0  0  0
  -27.2335  -27.4544   20.0965 C   0  0  0  0  0  0
  -25.5852  -33.8634   24.2370 N   0  0  0  0  0  0
  -23.3955  -30.4966   21.5511 C   0  0  2  0  0  0
  -24.8418  -28.9705   20.0970 C   0  0  0  0  0  0
  -22.7388  -29.4648   22.4934 C   0  0  0  0  0  0
  -18.0271  -28.1347   22.8510 C   0  0  0  0  0  0
  -24.1491  -36.7332   23.2657 C   0  0  0  0  0  0
  -25.9264  -30.8352   21.3751 C   0  0  0  0  0  0
  -25.9975  -29.4782   20.7106 C   0  0  0  0  0  0
  -27.1860  -28.7254   20.7153 C   0  0  0  0  0  0
  -26.0665  -26.9728   19.4553 C   0  0  0  0  0  0
  -24.8732  -27.7195   19.4680 C   0  0  0  0  0  0
  -23.6062  -29.8330   20.1591 C   0  0  0  0  0  0
  -25.4116  -36.3135   24.0366 C   0  0  1  0  0  0
  -20.5866  -28.3654   23.1299 C   0  0  2  0  0  0
  -20.6758  -26.9395   22.5398 C   0  0  0  0  0  0
  -19.5721  -26.6374   21.5211 C   0  0  0  0  0  0
  -18.1908  -26.7882   22.1637 C   0  0  0  0  0  0
  -19.1533  -28.8818   23.2898 C   0  0  0  0  0  0
  -18.9444  -30.1417   23.8913 C   0  0  0  0  0  0
  -17.6452  -30.6560   24.0574 C   0  0  0  0  0  0
  -25.9011  -34.9476   23.5184 C   0  0  0  0  0  0
  -16.5353  -29.9069   23.6311 C   0  0  0  0  0  0
  -16.7267  -28.6476   23.0352 C   0  0  0  0  0  0
  -26.4439  -31.6618   25.0794 C   0  0  0  0  0  0
  -25.3742  -31.3720   26.1578 C   0  0  0  0  0  0
  -27.0363  -30.3095   24.6206 C   0  0  0  0  0  0
  -27.6006  -32.4401   25.7492 C   0  0  0  0  0  0
  -27.5592  -37.1827   24.8465 C   0  0  0  0  0  0
  -21.4107  -29.3039   22.3695 N   0  0  0  0  0  0
  -26.4300  -37.3806   23.9402 N   0  0  0  0  0  0
  -24.6593  -31.0832   22.1029 N   0  0  0  0  0  0
  -23.4169  -28.8183   23.2969 O   0  0  0  0  0  0
  -28.4138  -26.7489   20.1735 O   0  0  0  0  0  0
  -26.5587  -34.8925   22.4739 O   0  0  0  0  0  0
  -23.5305  -32.1417   23.7549 O   0  0  0  0  0  0
  -28.3958  -23.0518   19.2224 C   0  0  0  0  0  0
  -27.7825  -21.8551   19.6614 C   0  0  0  0  0  0
  -27.9760  -24.2722   19.7910 C   0  0  0  0  0  0
  -26.7579  -21.9791   20.6299 C   0  0  0  0  0  0
  -28.2831  -20.4928   19.2048 C   0  0  0  0  0  0
  -28.6365  -25.5926   19.3574 C   0  0  0  0  0  0
  -30.1450  -15.5034   21.5640 C   0  0  0  0  0  0
  -28.7286  -20.3885   17.7406 C   0  0  0  0  0  0
  -30.8828  -16.8682   21.5691 C   0  0  0  0  0  0
  -29.2870  -18.9861   17.4454 C   0  0  0  0  0  0
  -30.4280  -17.9011   20.5111 C   0  0  0  0  0  0
  -30.6795  -18.7250   18.0602 C   0  0  0  0  0  0
  -30.7679  -17.5429   19.0488 C   0  0  0  0  0  0
  -27.0204  -24.3085   20.7537 N   0  0  0  0  0  0
  -26.4101  -23.1810   21.1475 N   0  0  0  0  0  0
  -25.9198  -20.5888   21.2164 Cl  0  0  0  0  0  0
  -31.4613  -12.4053   19.0837 H   0  0  0  0  0  0
  -30.3347  -11.2842   19.7726 H   0  0  0  0  0  0
  -29.7144  -11.8080   17.3980 H   0  0  0  0  0  0
  -29.6664  -13.5149   17.7724 H   0  0  0  0  0  0
  -27.7773  -11.3414   18.7459 H   0  0  0  0  0  0
  -27.3682  -12.7357   17.7794 H   0  0  0  0  0  0
  -27.7215  -14.2666   19.6151 H   0  0  0  0  0  0
  -28.6868  -11.9132   21.3114 H   0  0  0  0  0  0
  -28.4812  -13.5373   21.8839 H   0  0  0  0  0  0
  -25.2794   -9.5603   22.4833 H   0  0  0  0  0  0
  -24.0019   -7.4571   22.7488 H   0  0  0  0  0  0
  -21.0911   -8.8797   19.8968 H   0  0  0  0  0  0
  -22.3803  -10.9665   19.6226 H   0  0  0  0  0  0
  -21.2015   -7.6134   23.9720 H   0  0  0  0  0  0
  -21.1493   -6.0508   25.9072 H   0  0  0  0  0  0
  -22.0605   -2.7601   23.2876 H   0  0  0  0  0  0
  -22.4095  -11.9861   22.4782 H   0  0  0  0  0  0
  -21.1144  -13.1248   22.2555 H   0  0  0  0  0  0
  -24.6666  -15.8390   20.5334 H   0  0  0  0  0  0
  -26.2907  -15.6314   20.1175 H   0  0  0  0  0  0
  -26.7041  -32.5519   23.1223 H   0  0  0  0  0  0
  -25.0025  -33.9807   25.0537 H   0  0  0  0  0  0
  -22.6845  -31.3135   21.4113 H   0  0  0  0  0  0
  -23.3746  -35.9657   23.3309 H   0  0  0  0  0  0
  -24.3585  -36.8960   22.2068 H   0  0  0  0  0  0
  -23.7219  -37.6544   23.6667 H   0  0  0  0  0  0
  -26.0592  -31.6045   20.6151 H   0  0  0  0  0  0
  -26.8052  -30.8694   22.0040 H   0  0  0  0  0  0
  -28.0737  -29.1118   21.1936 H   0  0  0  0  0  0
  -26.0560  -26.0168   18.9580 H   0  0  0  0  0  0
  -23.9923  -27.3228   18.9790 H   0  0  0  0  0  0
  -23.7095  -30.6097   19.4018 H   0  0  0  0  0  0
  -22.7291  -29.2514   19.8618 H   0  0  0  0  0  0
  -25.1274  -36.2037   25.0854 H   0  0  0  0  0  0
  -20.9999  -28.3251   24.1396 H   0  0  0  0  0  0
  -20.5674  -26.2285   23.3602 H   0  0  0  0  0  0
  -21.6624  -26.7423   22.1193 H   0  0  0  0  0  0
  -19.6895  -25.6296   21.1200 H   0  0  0  0  0  0
  -19.6630  -27.3223   20.6766 H   0  0  0  0  0  0
  -17.4186  -26.6645   21.4048 H   0  0  0  0  0  0
  -18.0314  -26.0013   22.9017 H   0  0  0  0  0  0
  -19.7937  -30.7207   24.2313 H   0  0  0  0  0  0
  -17.5018  -31.6243   24.5161 H   0  0  0  0  0  0
  -15.5357  -30.2987   23.7582 H   0  0  0  0  0  0
  -15.8658  -28.0780   22.7070 H   0  0  0  0  0  0
  -24.5807  -30.7194   25.7936 H   0  0  0  0  0  0
  -24.9059  -32.2891   26.5173 H   0  0  0  0  0  0
  -25.8096  -30.8770   27.0261 H   0  0  0  0  0  0
  -26.2975  -29.6733   24.1342 H   0  0  0  0  0  0
  -27.4274  -29.7434   25.4663 H   0  0  0  0  0  0
  -27.8701  -30.4482   23.9321 H   0  0  0  0  0  0
  -27.2576  -33.3609   26.2206 H   0  0  0  0  0  0
  -28.3664  -32.7137   25.0228 H   0  0  0  0  0  0
  -28.0863  -31.8511   26.5276 H   0  0  0  0  0  0
  -28.2628  -38.0116   24.7501 H   0  0  0  0  0  0
  -28.1073  -36.2644   24.6290 H   0  0  0  0  0  0
  -27.2313  -37.1490   25.8875 H   0  0  0  0  0  0
  -20.9252  -29.8807   21.6972 H   0  0  0  0  0  0
  -26.0215  -38.2903   24.1355 H   0  0  0  0  0  0
  -29.1918  -23.0462   18.4999 H   0  0  0  0  0  0
  -27.5521  -19.7041   19.3865 H   0  0  0  0  0  0
  -29.1225  -20.2629   19.8572 H   0  0  0  0  0  0
  -29.7124  -25.4252   19.4245 H   0  0  0  0  0  0
  -28.4098  -25.8304   18.3170 H   0  0  0  0  0  0
  -29.0931  -15.6645   21.3310 H   0  0  0  0  0  0
  -30.1799  -15.0936   22.5739 H   0  0  0  0  0  0
  -29.4851  -21.1378   17.5068 H   0  0  0  0  0  0
  -27.8798  -20.5988   17.0859 H   0  0  0  0  0  0
  -31.9636  -16.7323   21.5148 H   0  0  0  0  0  0
  -30.7132  -17.3210   22.5477 H   0  0  0  0  0  0
  -29.3597  -18.8689   16.3653 H   0  0  0  0  0  0
  -28.5729  -18.2287   17.7709 H   0  0  0  0  0  0
  -30.9301  -18.8404   20.7524 H   0  0  0  0  0  0
  -29.3585  -18.0934   20.6175 H   0  0  0  0  0  0
  -31.0843  -19.6278   18.5249 H   0  0  0  0  0  0
  -31.3575  -18.5146   17.2358 H   0  0  0  0  0  0
  -30.1521  -16.7126   18.7071 H   0  0  0  0  0  0
  -31.7935  -17.1817   19.0299 H   0  0  0  0  0  0
  1 25  1  0  0  0
  1 30  2  0  0  0
  1 77  1  0  0  0
  2  3  1  0  0  0
  2 25  1  0  0  0
  2 87  1  0  0  0
  2 88  1  0  0  0
  3  4  1  0  0  0
  3 89  1  0  0  0
  3 90  1  0  0  0
  4  5  1  0  0  0
  4 91  1  0  0  0
  4 92  1  0  0  0
  5  6  1  0  0  0
  5 26  1  0  0  0
  5 93  1  0  0  0
  6 25  1  0  0  0
  6 94  1  0  0  0
  6 95  1  0  0  0
  7  8  2  0  0  0
  7 26  1  0  0  0
  7 29  1  0  0  0
  8  9  1  0  0  0
  8 22  1  0  0  0
  9 10  1  0  0  0
  9 27  2  0  0  0
 10 11  2  0  0  0
 10 15  1  0  0  0
 11 12  1  0  0  0
 11 96  1  0  0  0
 12 13  2  0  0  0
 12 97  1  0  0  0
 13 14  1  0  0  0
 13 31  1  0  0  0
 14 15  2  0  0  0
 14 98  1  0  0  0
 15 99  1  0  0  0
 16 17  2  0  0  0
 16 21  1  0  0  0
 16 31  1  0  0  0
 17 18  1  0  0  0
 17100  1  0  0  0
 18 19  2  0  0  0
 18101  1  0  0  0
 19 20  1  0  0  0
 19 24  1  0  0  0
 20 21  2  0  0  0
 20102  1  0  0  0
 21 23  1  0  0  0
 22 28  1  0  0  0
 22 32  2  0  0  0
 26 27  1  0  0  0
 28103  1  0  0  0
 28104  1  0  0  0
 29105  1  0  0  0
 29106  1  0  0  0
 33 34  1  0  0  0
 33 66  1  0  0  0
 33 70  2  0  0  0
 34 36  1  0  0  0
 34 59  1  0  0  0
 34107  1  0  0  0
 35 44  2  0  0  0
 35 45  1  0  0  0
 35 68  1  0  0  0
 36 56  1  0  0  0
 36108  1  0  0  0
 37 39  1  0  0  0
 37 47  1  0  0  0
 37 66  1  0  0  0
 37109  1  0  0  0
 38 43  2  0  0  0
 38 46  1  0  0  0
 38 47  1  0  0  0
 39 64  1  0  0  0
 39 67  2  0  0  0
 40 52  1  0  0  0
 40 53  2  0  0  0
 40 58  1  0  0  0
 41110  1  0  0  0
 41111  1  0  0  0
 41112  1  0  0  0
 41 48  1  0  0  0
 42 43  1  0  0  0
 42 66  1  0  0  0
 42113  1  0  0  0
 42114  1  0  0  0
 43 44  1  0  0  0
 44115  1  0  0  0
 45 46  2  0  0  0
 45116  1  0  0  0
 46117  1  0  0  0
 47118  1  0  0  0
 47119  1  0  0  0
 48 56  1  0  0  0
 48 65  1  0  0  0
 48120  1  0  0  0
 49 50  1  0  0  0
 49 53  1  0  0  0
 49 64  1  0  0  0
 49121  1  0  0  0
 50 51  1  0  0  0
 50122  1  0  0  0
 50123  1  0  0  0
 51 52  1  0  0  0
 51124  1  0  0  0
 51125  1  0  0  0
 52126  1  0  0  0
 52127  1  0  0  0
 53 54  1  0  0  0
 54 55  2  0  0  0
 54128  1  0  0  0
 55 57  1  0  0  0
 55129  1  0  0  0
 56 69  2  0  0  0
 57 58  2  0  0  0
 57130  1  0  0  0
 58131  1  0  0  0
 59 60  1  0  0  0
 59 61  1  0  0  0
 59 62  1  0  0  0
 60132  1  0  0  0
 60133  1  0  0  0
 60134  1  0  0  0
 61135  1  0  0  0
 61136  1  0  0  0
 61137  1  0  0  0
 62138  1  0  0  0
 62139  1  0  0  0
 62140  1  0  0  0
 63 65  1  0  0  0
 63141  1  0  0  0
 63142  1  0  0  0
 63143  1  0  0  0
 64144  1  0  0  0
 65145  1  0  0  0
 68 76  1  0  0  0
 71 72  2  0  0  0
 71 73  1  0  0  0
 71146  1  0  0  0
 72 74  1  0  0  0
 72 75  1  0  0  0
 73 76  1  0  0  0
 73 84  2  0  0  0
 74 85  2  0  0  0
 74 86  1  0  0  0
 75 78  1  0  0  0
 75147  1  0  0  0
 75148  1  0  0  0
 76149  1  0  0  0
 76150  1  0  0  0
 77 79  1  0  0  0
 77151  1  0  0  0
 77152  1  0  0  0
 78 80  1  0  0  0
 78153  1  0  0  0
 78154  1  0  0  0
 79 81  1  0  0  0
 79155  1  0  0  0
 79156  1  0  0  0
 80 82  1  0  0  0
 80157  1  0  0  0
 80158  1  0  0  0
 81 83  1  0  0  0
 81159  1  0  0  0
 81160  1  0  0  0
 82 83  1  0  0  0
 82161  1  0  0  0
 82162  1  0  0  0
 83163  1  0  0  0
 83164  1  0  0  0
 84 85  1  0  0  0
M  ISO  4   1 100  68 101  76 101  77 100
M  END
> <chiral flag>
0

> <version>
0

> <s_m_source_file>
/data/baiqing/PycharmProjects/Reinvent-master-3.2/result/LINK_invent/BTK/process_docking_weight1_custom_sum_contain_oxygen_bond_distance_aromatic_linkinvent_7_9_3/rearranged_h_0032.sdf

> <i_m_source_file_index>
22

> <r_mmod_Potential_Energy-OPLS-2005>
86.740119934082

> <r_mmod_Stretch_Energy-OPLS-2005>
36.9046096801758

> <r_mmod_Bend_Energy-OPLS-2005>
115.539764404297

> <r_mmod_Torsional_Energy-OPLS-2005>
180.870803833008

> <r_mmod_Improper_Torsional_Energy-OPLS-2005>
2.0226104259491

> <r_mmod_Van_der_Waal_Energy-OPLS-2005>
154.23518371582

> <r_mmod_Electrostatic_Energy-OPLS-2005>
-205.404342651367

> <r_mmod_Solvation_Energy-OPLS-2005>
-208.444229125977

> <b_mmod_Minimization_Converged-OPLS-2005>
0

> <r_mmod_RMS_Derivative-OPLS-2005>
8.40877819061279

$$$$
22
                    3D
 Structure written by MMmdl.
174182  0  0  1  0            999 V2000
  -30.6999  -14.4871   20.5222 C   0  0  0  0  0  0
  -30.4204  -12.2957   19.4418 C   0  0  0  0  0  0
  -29.5005  -12.4907   18.2176 C   0  0  0  0  0  0
  -28.0201  -12.3583   18.6270 C   0  0  0  0  0  0
  -27.6617  -13.2093   19.8750 C   0  0  2  0  0  0
  -28.7037  -13.0158   21.0025 C   0  0  0  0  0  0
  -25.2588  -13.8160   20.5677 C   0  0  0  0  0  0
  -24.1841  -13.0433   20.9181 C   0  0  0  0  0  0
  -24.6400  -11.6904   20.8726 C   0  0  0  0  0  0
  -23.9062  -10.4289   21.0386 C   0  0  0  0  0  0
  -24.3613   -9.4203   21.9162 C   0  0  0  0  0  0
  -23.6288   -8.2238   22.0743 C   0  0  0  0  0  0
  -22.4268   -8.0273   21.3535 C   0  0  0  0  0  0
  -21.9903   -9.0245   20.4636 C   0  0  0  0  0  0
  -22.7234  -10.2122   20.3039 C   0  0  0  0  0  0
  -21.6852   -6.0725   22.5273 C   0  0  0  0  0  0
  -21.4013   -6.5627   23.8205 C   0  0  0  0  0  0
  -21.3661   -5.6786   24.9169 C   0  0  0  0  0  0
  -21.6052   -4.3052   24.7225 C   0  0  0  0  0  0
  -21.8820   -3.8136   23.4347 C   0  0  0  0  0  0
  -21.9192   -4.6951   22.3401 C   0  0  0  0  0  0
  -22.7859  -13.5218   21.1854 C   0  0  0  0  0  0
  -22.1660   -4.2141   21.0977 F   0  0  0  0  0  0
  -21.5635   -3.4533   25.7735 F   0  0  0  0  0  0
  -30.0357  -13.3010   20.4468 N   0  0  0  0  0  0
  -26.3030  -12.9337   20.3363 N   0  0  0  0  0  0
  -25.9329  -11.6497   20.5769 N   0  0  0  0  0  0
  -22.0524  -12.8196   22.0411 N   0  0  0  0  0  0
  -25.4308  -15.1884   20.4077 N   0  0  0  0  0  0
  -31.8463  -14.6347   20.0922 O   0  0  0  0  0  0
  -21.6634   -6.8869   21.4233 O   0  0  0  0  0  0
  -22.3538  -14.5528   20.6715 O   0  0  0  0  0  0
  -24.6140  -31.8675   23.2082 C   0  0  0  0  0  0
  -25.9018  -32.4832   23.8397 C   0  0  1  0  0  0
  -27.2363  -27.4256   20.1048 C   0  0  0  0  0  0
  -25.5862  -33.8624   24.2317 N   0  0  0  0  0  0
  -23.4050  -30.4894   21.5494 C   0  0  2  0  0  0
  -24.8535  -28.9540   20.1151 C   0  0  0  0  0  0
  -22.7428  -29.4641   22.4979 C   0  0  0  0  0  0
  -18.0272  -28.1369   22.8490 C   0  0  0  0  0  0
  -24.1489  -36.7338   23.2639 C   0  0  0  0  0  0
  -25.9346  -30.8314   21.3624 C   0  0  0  0  0  0
  -26.0143  -29.4650   20.7108 C   0  0  0  0  0  0
  -27.2101  -28.7096   20.6985 C   0  0  0  0  0  0
  -26.0593  -26.9343   19.4959 C   0  0  0  0  0  0
  -24.8714  -27.6887   19.5042 C   0  0  0  0  0  0
  -23.6153  -29.8207   20.1644 C   0  0  0  0  0  0
  -25.4107  -36.3123   24.0346 C   0  0  1  0  0  0
  -20.5863  -28.3659   23.1312 C   0  0  2  0  0  0
  -20.6769  -26.9392   22.5417 C   0  0  0  0  0  0
  -19.5745  -26.6377   21.5208 C   0  0  0  0  0  0
  -18.1920  -26.7916   22.1621 C   0  0  0  0  0  0
  -19.1518  -28.8826   23.2899 C   0  0  0  0  0  0
  -18.9454  -30.1432   23.8910 C   0  0  0  0  0  0
  -17.6455  -30.6574   24.0553 C   0  0  0  0  0  0
  -25.9029  -34.9491   23.5135 C   0  0  0  0  0  0
  -16.5342  -29.9078   23.6321 C   0  0  0  0  0  0
  -16.7259  -28.6499   23.0342 C   0  0  0  0  0  0
  -26.4439  -31.6612   25.0726 C   0  0  0  0  0  0
  -25.3695  -31.3709   26.1471 C   0  0  0  0  0  0
  -27.0271  -30.3056   24.6091 C   0  0  0  0  0  0
  -27.6029  -32.4315   25.7473 C   0  0  0  0  0  0
  -27.5592  -37.1813   24.8459 C   0  0  0  0  0  0
  -21.4148  -29.3029   22.3729 N   0  0  0  0  0  0
  -26.4302  -37.3796   23.9405 N   0  0  0  0  0  0
  -24.6699  -31.0770   22.0982 N   0  0  0  0  0  0
  -23.4199  -28.8182   23.3018 O   0  0  0  0  0  0
  -28.3990  -26.6815   20.1026 O   0  0  0  0  0  0
  -26.5609  -34.8946   22.4707 O   0  0  0  0  0  0
  -23.5327  -32.1438   23.7462 O   0  0  0  0  0  0
  -30.0683  -20.7895   22.5957 C   0  0  0  0  0  0
  -29.6962  -22.0033   20.5215 C   0  0  0  0  0  0
  -29.8835  -20.7699   21.1985 C   0  0  0  0  0  0
  -30.0931  -22.0069   23.3040 C   0  0  0  0  0  0
  -29.7162  -23.2407   21.2169 C   0  0  0  0  0  0
  -29.9087  -23.2345   22.6202 C   0  0  0  0  0  0
  -27.4082  -21.5520   30.4543 C   0  0  0  0  0  0
  -29.9589  -19.4603   20.3976 C   0  0  0  0  0  0
  -30.3710  -21.9660   24.7979 C   0  0  0  0  0  0
  -29.6293  -24.5724   20.4504 C   0  0  0  0  0  0
  -28.5094  -22.0217   29.5017 C   0  0  0  0  0  0
  -29.9110  -18.1107   21.1788 C   0  0  0  0  0  0
  -29.0976  -21.8084   25.6404 C   0  0  0  0  0  0
  -28.2061  -21.6819   28.0364 C   0  0  0  0  0  0
  -29.4000  -21.9989   27.1307 C   0  0  0  0  0  0
  -30.1446  -16.8979   20.2419 C   0  0  0  0  0  0
  -28.2816  -25.3235   20.5708 C   0  0  0  0  0  0
  -29.9476  -15.5604   20.8431 N   0  0  0  0  0  0
  -29.9499  -24.7285   23.4974 Cl  0  0  0  0  0  0
  -31.4682  -12.3739   19.1465 H   0  0  0  0  0  0
  -30.3025  -11.2907   19.8520 H   0  0  0  0  0  0
  -29.7402  -11.7581   17.4457 H   0  0  0  0  0  0
  -29.6772  -13.4720   17.7741 H   0  0  0  0  0  0
  -27.8320  -11.3039   18.8344 H   0  0  0  0  0  0
  -27.3720  -12.6219   17.7910 H   0  0  0  0  0  0
  -27.6986  -14.2523   19.5606 H   0  0  0  0  0  0
  -28.6758  -11.9906   21.3745 H   0  0  0  0  0  0
  -28.4776  -13.6486   21.8619 H   0  0  0  0  0  0
  -25.2758   -9.5671   22.4737 H   0  0  0  0  0  0
  -23.9996   -7.4623   22.7457 H   0  0  0  0  0  0
  -21.0837   -8.8755   19.8938 H   0  0  0  0  0  0
  -22.3685  -10.9655   19.6147 H   0  0  0  0  0  0
  -21.2000   -7.6135   23.9706 H   0  0  0  0  0  0
  -21.1491   -6.0514   25.9074 H   0  0  0  0  0  0
  -22.0602   -2.7598   23.2845 H   0  0  0  0  0  0
  -22.4148  -11.9843   22.4770 H   0  0  0  0  0  0
  -21.1145  -13.1200   22.2651 H   0  0  0  0  0  0
  -24.6639  -15.8446   20.5120 H   0  0  0  0  0  0
  -26.2815  -15.6245   20.0740 H   0  0  0  0  0  0
  -26.7103  -32.5537   23.1184 H   0  0  0  0  0  0
  -24.9949  -33.9782   25.0416 H   0  0  0  0  0  0
  -22.6937  -31.3047   21.4084 H   0  0  0  0  0  0
  -23.3747  -35.9671   23.3304 H   0  0  0  0  0  0
  -24.3568  -36.8958   22.2049 H   0  0  0  0  0  0
  -23.7269  -37.6558   23.6651 H   0  0  0  0  0  0
  -26.0455  -31.5984   20.5946 H   0  0  0  0  0  0
  -26.8225  -30.8879   21.9815 H   0  0  0  0  0  0
  -28.1074  -29.0974   21.1612 H   0  0  0  0  0  0
  -26.0517  -25.9748   18.9991 H   0  0  0  0  0  0
  -23.9813  -27.2914   19.0350 H   0  0  0  0  0  0
  -23.7200  -30.5943   19.4012 H   0  0  0  0  0  0
  -22.7410  -29.2362   19.8728 H   0  0  0  0  0  0
  -25.1286  -36.2007   25.0844 H   0  0  0  0  0  0
  -20.9945  -28.3231   24.1439 H   0  0  0  0  0  0
  -20.5671  -26.2263   23.3606 H   0  0  0  0  0  0
  -21.6642  -26.7439   22.1207 H   0  0  0  0  0  0
  -19.6907  -25.6293   21.1228 H   0  0  0  0  0  0
  -19.6691  -27.3205   20.6744 H   0  0  0  0  0  0
  -17.4196  -26.6657   21.4016 H   0  0  0  0  0  0
  -18.0312  -26.0055   22.9015 H   0  0  0  0  0  0
  -19.7933  -30.7222   24.2307 H   0  0  0  0  0  0
  -17.5017  -31.6256   24.5146 H   0  0  0  0  0  0
  -15.5348  -30.2972   23.7642 H   0  0  0  0  0  0
  -15.8664  -28.0815   22.7046 H   0  0  0  0  0  0
  -24.5872  -30.7064   25.7792 H   0  0  0  0  0  0
  -24.8859  -32.2841   26.4926 H   0  0  0  0  0  0
  -25.8023  -30.8866   27.0225 H   0  0  0  0  0  0
  -26.2818  -29.6818   24.1139 H   0  0  0  0  0  0
  -27.4057  -29.7299   25.4542 H   0  0  0  0  0  0
  -27.8641  -30.4401   23.9242 H   0  0  0  0  0  0
  -27.2690  -33.3622   26.2075 H   0  0  0  0  0  0
  -28.3809  -32.6863   25.0265 H   0  0  0  0  0  0
  -28.0724  -31.8414   26.5355 H   0  0  0  0  0  0
  -28.2605  -38.0111   24.7505 H   0  0  0  0  0  0
  -28.1101  -36.2648   24.6285 H   0  0  0  0  0  0
  -27.2300  -37.1465   25.8856 H   0  0  0  0  0  0
  -20.9315  -29.8790   21.6984 H   0  0  0  0  0  0
  -26.0217  -38.2890   24.1366 H   0  0  0  0  0  0
  -30.2228  -19.8726   23.1442 H   0  0  0  0  0  0
  -29.5709  -22.0027   19.4469 H   0  0  0  0  0  0
  -27.6435  -21.8222   31.4848 H   0  0  0  0  0  0
  -27.2936  -20.4678   30.4165 H   0  0  0  0  0  0
  -26.4484  -22.0031   30.2010 H   0  0  0  0  0  0
  -30.8887  -19.4995   19.8286 H   0  0  0  0  0  0
  -29.1582  -19.4711   19.6576 H   0  0  0  0  0  0
  -30.9184  -22.8583   25.0996 H   0  0  0  0  0  0
  -31.0476  -21.1369   25.0111 H   0  0  0  0  0  0
  -29.8482  -24.4019   19.3954 H   0  0  0  0  0  0
  -30.4319  -25.2177   20.8095 H   0  0  0  0  0  0
  -29.4522  -21.5623   29.8016 H   0  0  0  0  0  0
  -28.6500  -23.0994   29.6021 H   0  0  0  0  0  0
  -28.9540  -18.0193   21.6933 H   0  0  0  0  0  0
  -30.6874  -18.0931   21.9438 H   0  0  0  0  0  0
  -28.6582  -20.8257   25.4617 H   0  0  0  0  0  0
  -28.3533  -22.5429   25.3297 H   0  0  0  0  0  0
  -27.3257  -22.2357   27.7039 H   0  0  0  0  0  0
  -27.9586  -20.6230   27.9421 H   0  0  0  0  0  0
  -29.7252  -23.0274   27.2963 H   0  0  0  0  0  0
  -30.2391  -21.3620   27.4158 H   0  0  0  0  0  0
  -31.1427  -16.9909   19.8104 H   0  0  0  0  0  0
  -29.4560  -16.9643   19.3985 H   0  0  0  0  0  0
  -27.9645  -25.3568   21.6135 H   0  0  0  0  0  0
  -27.5227  -24.7567   20.0321 H   0  0  0  0  0  0
  -29.0302  -15.3598   21.2156 H   0  0  0  0  0  0
  1 25  1  0  0  0
  1 30  2  0  0  0
  1 88  1  0  0  0
  2  3  1  0  0  0
  2 25  1  0  0  0
  2 90  1  0  0  0
  2 91  1  0  0  0
  3  4  1  0  0  0
  3 92  1  0  0  0
  3 93  1  0  0  0
  4  5  1  0  0  0
  4 94  1  0  0  0
  4 95  1  0  0  0
  5  6  1  0  0  0
  5 26  1  0  0  0
  5 96  1  0  0  0
  6 25  1  0  0  0
  6 97  1  0  0  0
  6 98  1  0  0  0
  7  8  2  0  0  0
  7 26  1  0  0  0
  7 29  1  0  0  0
  8  9  1  0  0  0
  8 22  1  0  0  0
  9 10  1  0  0  0
  9 27  2  0  0  0
 10 11  2  0  0  0
 10 15  1  0  0  0
 11 12  1  0  0  0
 11 99  1  0  0  0
 12 13  2  0  0  0
 12100  1  0  0  0
 13 14  1  0  0  0
 13 31  1  0  0  0
 14 15  2  0  0  0
 14101  1  0  0  0
 15102  1  0  0  0
 16 17  2  0  0  0
 16 21  1  0  0  0
 16 31  1  0  0  0
 17 18  1  0  0  0
 17103  1  0  0  0
 18 19  2  0  0  0
 18104  1  0  0  0
 19 20  1  0  0  0
 19 24  1  0  0  0
 20 21  2  0  0  0
 20105  1  0  0  0
 21 23  1  0  0  0
 22 28  1  0  0  0
 22 32  2  0  0  0
 26 27  1  0  0  0
 28106  1  0  0  0
 28107  1  0  0  0
 29108  1  0  0  0
 29109  1  0  0  0
 33 34  1  0  0  0
 33 66  1  0  0  0
 33 70  2  0  0  0
 34 36  1  0  0  0
 34 59  1  0  0  0
 34110  1  0  0  0
 35 44  2  0  0  0
 35 45  1  0  0  0
 35 68  1  0  0  0
 36 56  1  0  0  0
 36111  1  0  0  0
 37 39  1  0  0  0
 37 47  1  0  0  0
 37 66  1  0  0  0
 37112  1  0  0  0
 38 43  2  0  0  0
 38 46  1  0  0  0
 38 47  1  0  0  0
 39 64  1  0  0  0
 39 67  2  0  0  0
 40 52  1  0  0  0
 40 53  2  0  0  0
 40 58  1  0  0  0
 41113  1  0  0  0
 41114  1  0  0  0
 41115  1  0  0  0
 41 48  1  0  0  0
 42 43  1  0  0  0
 42 66  1  0  0  0
 42116  1  0  0  0
 42117  1  0  0  0
 43 44  1  0  0  0
 44118  1  0  0  0
 45 46  2  0  0  0
 45119  1  0  0  0
 46120  1  0  0  0
 47121  1  0  0  0
 47122  1  0  0  0
 48 56  1  0  0  0
 48 65  1  0  0  0
 48123  1  0  0  0
 49 50  1  0  0  0
 49 53  1  0  0  0
 49 64  1  0  0  0
 49124  1  0  0  0
 50 51  1  0  0  0
 50125  1  0  0  0
 50126  1  0  0  0
 51 52  1  0  0  0
 51127  1  0  0  0
 51128  1  0  0  0
 52129  1  0  0  0
 52130  1  0  0  0
 53 54  1  0  0  0
 54 55  2  0  0  0
 54131  1  0  0  0
 55 57  1  0  0  0
 55132  1  0  0  0
 56 69  2  0  0  0
 57 58  2  0  0  0
 57133  1  0  0  0
 58134  1  0  0  0
 59 60  1  0  0  0
 59 61  1  0  0  0
 59 62  1  0  0  0
 60135  1  0  0  0
 60136  1  0  0  0
 60137  1  0  0  0
 61138  1  0  0  0
 61139  1  0  0  0
 61140  1  0  0  0
 62141  1  0  0  0
 62142  1  0  0  0
 62143  1  0  0  0
 63 65  1  0  0  0
 63144  1  0  0  0
 63145  1  0  0  0
 63146  1  0  0  0
 64147  1  0  0  0
 65148  1  0  0  0
 68 87  1  0  0  0
 71 73  2  0  0  0
 71 74  1  0  0  0
 71149  1  0  0  0
 72 73  1  0  0  0
 72 75  2  0  0  0
 72150  1  0  0  0
 73 78  1  0  0  0
 74 76  2  0  0  0
 74 79  1  0  0  0
 75 76  1  0  0  0
 75 80  1  0  0  0
 76 89  1  0  0  0
 77 81  1  0  0  0
 77151  1  0  0  0
 77152  1  0  0  0
 77153  1  0  0  0
 78 82  1  0  0  0
 78154  1  0  0  0
 78155  1  0  0  0
 79 83  1  0  0  0
 79156  1  0  0  0
 79157  1  0  0  0
 80 87  1  0  0  0
 80158  1  0  0  0
 80159  1  0  0  0
 81 84  1  0  0  0
 81160  1  0  0  0
 81161  1  0  0  0
 82 86  1  0  0  0
 82162  1  0  0  0
 82163  1  0  0  0
 83 85  1  0  0  0
 83164  1  0  0  0
 83165  1  0  0  0
 84 85  1  0  0  0
 84166  1  0  0  0
 84167  1  0  0  0
 85168  1  0  0  0
 85169  1  0  0  0
 86 88  1  0  0  0
 86170  1  0  0  0
 86171  1  0  0  0
 87172  1  0  0  0
 87173  1  0  0  0
 88174  1  0  0  0
M  ISO  4   1 100  68 101  87 101  88 100
M  END
> <chiral flag>
0

> <version>
0

> <s_m_source_file>
/data/baiqing/PycharmProjects/Reinvent-master-3.2/result/LINK_invent/BTK/process_docking_weight1_custom_sum_contain_oxygen_bond_distance_aromatic_linkinvent_7_9_3/rearranged_h_0032.sdf

> <i_m_source_file_index>
23

> <r_mmod_Potential_Energy-OPLS-2005>
-28.3345108032227

> <r_mmod_Stretch_Energy-OPLS-2005>
40.4116287231445

> <r_mmod_Bend_Energy-OPLS-2005>
95.7026290893555

> <r_mmod_Torsional_Energy-OPLS-2005>
225.029922485352

> <r_mmod_Improper_Torsional_Energy-OPLS-2005>
8.10697937011719

> <r_mmod_Van_der_Waal_Energy-OPLS-2005>
151.122604370117

> <r_mmod_Electrostatic_Energy-OPLS-2005>
-364.505493164062

> <r_mmod_Solvation_Energy-OPLS-2005>
-199.564514160156

> <b_mmod_Minimization_Converged-OPLS-2005>
0

> <r_mmod_RMS_Derivative-OPLS-2005>
2.04717946052551

$$$$
23
                    3D
 Structure written by MMmdl.
162170  0  0  1  0            999 V2000
  -30.6844  -14.5492   20.5618 C   0  0  0  0  0  0
  -30.4343  -12.3620   19.4307 C   0  0  0  0  0  0
  -29.5020  -12.5049   18.2106 C   0  0  0  0  0  0
  -28.0246  -12.3618   18.6245 C   0  0  0  0  0  0
  -27.6596  -13.2148   19.8701 C   0  0  2  0  0  0
  -28.7056  -13.0442   20.9947 C   0  0  0  0  0  0
  -25.2594  -13.8183   20.5671 C   0  0  0  0  0  0
  -24.1856  -13.0456   20.9201 C   0  0  0  0  0  0
  -24.6414  -11.6922   20.8746 C   0  0  0  0  0  0
  -23.9074  -10.4305   21.0402 C   0  0  0  0  0  0
  -24.3630   -9.4221   21.9172 C   0  0  0  0  0  0
  -23.6300   -8.2255   22.0740 C   0  0  0  0  0  0
  -22.4280   -8.0292   21.3534 C   0  0  0  0  0  0
  -21.9922   -9.0270   20.4636 C   0  0  0  0  0  0
  -22.7247  -10.2148   20.3048 C   0  0  0  0  0  0
  -21.6866   -6.0737   22.5271 C   0  0  0  0  0  0
  -21.4014   -6.5640   23.8202 C   0  0  0  0  0  0
  -21.3658   -5.6792   24.9164 C   0  0  0  0  0  0
  -21.6053   -4.3054   24.7219 C   0  0  0  0  0  0
  -21.8829   -3.8145   23.4339 C   0  0  0  0  0  0
  -21.9200   -4.6963   22.3393 C   0  0  0  0  0  0
  -22.7876  -13.5247   21.1863 C   0  0  0  0  0  0
  -22.1665   -4.2153   21.0971 F   0  0  0  0  0  0
  -21.5633   -3.4533   25.7733 F   0  0  0  0  0  0
  -30.0238  -13.3652   20.4263 N   0  0  0  0  0  0
  -26.3032  -12.9353   20.3351 N   0  0  0  0  0  0
  -25.9349  -11.6513   20.5787 N   0  0  0  0  0  0
  -22.0513  -12.8226   22.0404 N   0  0  0  0  0  0
  -25.4319  -15.1895   20.4043 N   0  0  0  0  0  0
  -31.8336  -14.7153   20.1430 O   0  0  0  0  0  0
  -21.6654   -6.8878   21.4232 O   0  0  0  0  0  0
  -22.3559  -14.5544   20.6695 O   0  0  0  0  0  0
  -24.6213  -31.8632   23.2077 C   0  0  0  0  0  0
  -25.9079  -32.4794   23.8393 C   0  0  1  0  0  0
  -27.2188  -27.3801   20.1092 C   0  0  0  0  0  0
  -25.5925  -33.8595   24.2302 N   0  0  0  0  0  0
  -23.4107  -30.4897   21.5500 C   0  0  2  0  0  0
  -24.8527  -28.9476   20.1168 C   0  0  0  0  0  0
  -22.7444  -29.4646   22.4971 C   0  0  0  0  0  0
  -18.0275  -28.1384   22.8493 C   0  0  0  0  0  0
  -24.1487  -36.7307   23.2638 C   0  0  0  0  0  0
  -25.9456  -30.8123   21.3679 C   0  0  0  0  0  0
  -26.0172  -29.4401   20.7198 C   0  0  0  0  0  0
  -27.2054  -28.6655   20.7104 C   0  0  0  0  0  0
  -26.0406  -26.9172   19.4885 C   0  0  0  0  0  0
  -24.8616  -27.6872   19.4958 C   0  0  0  0  0  0
  -23.6184  -29.8232   20.1646 C   0  0  0  0  0  0
  -25.4111  -36.3088   24.0324 C   0  0  1  0  0  0
  -20.5872  -28.3679   23.1310 C   0  0  2  0  0  0
  -20.6774  -26.9408   22.5422 C   0  0  0  0  0  0
  -19.5753  -26.6381   21.5226 C   0  0  0  0  0  0
  -18.1925  -26.7928   22.1629 C   0  0  0  0  0  0
  -19.1525  -28.8846   23.2896 C   0  0  0  0  0  0
  -18.9460  -30.1450   23.8903 C   0  0  0  0  0  0
  -17.6459  -30.6589   24.0568 C   0  0  0  0  0  0
  -25.9050  -34.9454   23.5108 C   0  0  0  0  0  0
  -16.5349  -29.9092   23.6342 C   0  0  0  0  0  0
  -16.7261  -28.6511   23.0352 C   0  0  0  0  0  0
  -26.4463  -31.6592   25.0742 C   0  0  0  0  0  0
  -25.3708  -31.3705   26.1487 C   0  0  0  0  0  0
  -27.0298  -30.3043   24.6125 C   0  0  0  0  0  0
  -27.6056  -32.4309   25.7480 C   0  0  0  0  0  0
  -27.5575  -37.1805   24.8465 C   0  0  0  0  0  0
  -21.4169  -29.3037   22.3718 N   0  0  0  0  0  0
  -26.4290  -37.3783   23.9401 N   0  0  0  0  0  0
  -24.6783  -31.0720   22.0988 N   0  0  0  0  0  0
  -23.4192  -28.8176   23.3032 O   0  0  0  0  0  0
  -28.3629  -26.6043   20.0510 O   0  0  0  0  0  0
  -26.5623  -34.8914   22.4674 O   0  0  0  0  0  0
  -23.5397  -32.1383   23.7461 O   0  0  0  0  0  0
  -29.6219  -22.0398   18.0109 C   0  0  0  0  0  0
  -28.5995  -21.6828   20.5666 C   0  0  0  0  0  0
  -29.6783  -20.7552   18.5956 C   0  0  0  0  0  0
  -29.0287  -23.1387   18.6624 C   0  0  0  0  0  0
  -29.1674  -20.5470   19.9097 C   0  0  0  0  0  0
  -28.5078  -22.9773   19.9659 C   0  0  0  0  0  0
  -30.2598  -19.6464   17.7329 C   0  0  0  0  0  0
  -28.9390  -24.4613   17.9206 C   0  0  0  0  0  0
  -29.1170  -19.1625   20.6409 C   0  0  0  0  0  0
  -27.7501  -24.1246   20.6859 C   0  0  0  0  0  0
  -30.2117  -18.0707   20.3560 C   0  0  0  0  0  0
  -30.4384  -16.9419   21.4179 C   0  0  0  0  0  0
  -28.4703  -25.4923   20.9780 C   0  0  0  0  0  0
  -29.9630  -15.5798   21.0647 N   0  0  0  0  0  0
  -31.4750  -12.4813   19.1236 H   0  0  0  0  0  0
  -30.3602  -11.3619   19.8595 H   0  0  0  0  0  0
  -29.7549  -11.7539   17.4611 H   0  0  0  0  0  0
  -29.6578  -13.4743   17.7331 H   0  0  0  0  0  0
  -27.8433  -11.3061   18.8282 H   0  0  0  0  0  0
  -27.3750  -12.6252   17.7899 H   0  0  0  0  0  0
  -27.6886  -14.2567   19.5516 H   0  0  0  0  0  0
  -28.7123  -12.0225   21.3758 H   0  0  0  0  0  0
  -28.4593  -13.6764   21.8497 H   0  0  0  0  0  0
  -25.2780   -9.5714   22.4732 H   0  0  0  0  0  0
  -24.0035   -7.4658   22.7453 H   0  0  0  0  0  0
  -21.0858   -8.8780   19.8939 H   0  0  0  0  0  0
  -22.3698  -10.9687   19.6159 H   0  0  0  0  0  0
  -21.1985   -7.6147   23.9702 H   0  0  0  0  0  0
  -21.1474   -6.0518   25.9069 H   0  0  0  0  0  0
  -22.0606   -2.7612   23.2837 H   0  0  0  0  0  0
  -22.4152  -11.9913   22.4816 H   0  0  0  0  0  0
  -21.1111  -13.1211   22.2569 H   0  0  0  0  0  0
  -24.6647  -15.8456   20.5021 H   0  0  0  0  0  0
  -26.2798  -15.6225   20.0585 H   0  0  0  0  0  0
  -26.7161  -32.5449   23.1167 H   0  0  0  0  0  0
  -25.0091  -33.9768   25.0455 H   0  0  0  0  0  0
  -22.7034  -31.3099   21.4110 H   0  0  0  0  0  0
  -23.3737  -35.9657   23.3316 H   0  0  0  0  0  0
  -24.3589  -36.8909   22.2053 H   0  0  0  0  0  0
  -23.7252  -37.6517   23.6655 H   0  0  0  0  0  0
  -26.0685  -31.5696   20.5925 H   0  0  0  0  0  0
  -26.8337  -30.8647   21.9869 H   0  0  0  0  0  0
  -28.1099  -29.0421   21.1665 H   0  0  0  0  0  0
  -26.0242  -25.9648   18.9812 H   0  0  0  0  0  0
  -23.9708  -27.3077   19.0151 H   0  0  0  0  0  0
  -23.7301  -30.5980   19.4055 H   0  0  0  0  0  0
  -22.7386  -29.2488   19.8690 H   0  0  0  0  0  0
  -25.1280  -36.1963   25.0817 H   0  0  0  0  0  0
  -20.9966  -28.3246   24.1429 H   0  0  0  0  0  0
  -20.5705  -26.2273   23.3604 H   0  0  0  0  0  0
  -21.6637  -26.7462   22.1190 H   0  0  0  0  0  0
  -19.6915  -25.6295   21.1246 H   0  0  0  0  0  0
  -19.6695  -27.3206   20.6765 H   0  0  0  0  0  0
  -17.4194  -26.6690   21.4024 H   0  0  0  0  0  0
  -18.0317  -26.0060   22.9016 H   0  0  0  0  0  0
  -19.7932  -30.7271   24.2270 H   0  0  0  0  0  0
  -17.5012  -31.6273   24.5167 H   0  0  0  0  0  0
  -15.5352  -30.2998   23.7655 H   0  0  0  0  0  0
  -15.8659  -28.0838   22.7062 H   0  0  0  0  0  0
  -24.5893  -30.7035   25.7818 H   0  0  0  0  0  0
  -24.8873  -32.2844   26.4936 H   0  0  0  0  0  0
  -25.8031  -30.8868   27.0255 H   0  0  0  0  0  0
  -26.2843  -29.6816   24.1162 H   0  0  0  0  0  0
  -27.4065  -29.7270   25.4581 H   0  0  0  0  0  0
  -27.8674  -30.4376   23.9274 H   0  0  0  0  0  0
  -27.2712  -33.3628   26.2048 H   0  0  0  0  0  0
  -28.3839  -32.6837   25.0263 H   0  0  0  0  0  0
  -28.0745  -31.8426   26.5378 H   0  0  0  0  0  0
  -28.2591  -38.0106   24.7513 H   0  0  0  0  0  0
  -28.1064  -36.2634   24.6277 H   0  0  0  0  0  0
  -27.2300  -37.1439   25.8872 H   0  0  0  0  0  0
  -20.9347  -29.8731   21.6904 H   0  0  0  0  0  0
  -26.0171  -38.2852   24.1425 H   0  0  0  0  0  0
  -30.0146  -22.1838   17.0138 H   0  0  0  0  0  0
  -28.1798  -21.5412   21.5537 H   0  0  0  0  0  0
  -30.5599  -20.0148   16.7521 H   0  0  0  0  0  0
  -29.5266  -18.8557   17.5681 H   0  0  0  0  0  0
  -31.1590  -19.2269   18.1763 H   0  0  0  0  0  0
  -29.6676  -25.1659   18.3192 H   0  0  0  0  0  0
  -27.9430  -24.8988   17.9983 H   0  0  0  0  0  0
  -29.1532  -24.3400   16.8583 H   0  0  0  0  0  0
  -28.1335  -18.7258   20.4659 H   0  0  0  0  0  0
  -29.1430  -19.3783   21.7095 H   0  0  0  0  0  0
  -27.4501  -23.7267   21.6562 H   0  0  0  0  0  0
  -26.8080  -24.2904   20.1688 H   0  0  0  0  0  0
  -31.1614  -18.6030   20.3024 H   0  0  0  0  0  0
  -30.0617  -17.6060   19.3839 H   0  0  0  0  0  0
  -30.0027  -17.2365   22.3720 H   0  0  0  0  0  0
  -31.5102  -16.8757   21.6159 H   0  0  0  0  0  0
  -29.5304  -25.2958   21.1397 H   0  0  0  0  0  0
  -28.1083  -25.8574   21.9406 H   0  0  0  0  0  0
  -29.0078  -15.3621   21.3105 H   0  0  0  0  0  0
  1 25  1  0  0  0
  1 30  2  0  0  0
  1 84  1  0  0  0
  2  3  1  0  0  0
  2 25  1  0  0  0
  2 85  1  0  0  0
  2 86  1  0  0  0
  3  4  1  0  0  0
  3 87  1  0  0  0
  3 88  1  0  0  0
  4  5  1  0  0  0
  4 89  1  0  0  0
  4 90  1  0  0  0
  5  6  1  0  0  0
  5 26  1  0  0  0
  5 91  1  0  0  0
  6 25  1  0  0  0
  6 92  1  0  0  0
  6 93  1  0  0  0
  7  8  2  0  0  0
  7 26  1  0  0  0
  7 29  1  0  0  0
  8  9  1  0  0  0
  8 22  1  0  0  0
  9 10  1  0  0  0
  9 27  2  0  0  0
 10 11  2  0  0  0
 10 15  1  0  0  0
 11 12  1  0  0  0
 11 94  1  0  0  0
 12 13  2  0  0  0
 12 95  1  0  0  0
 13 14  1  0  0  0
 13 31  1  0  0  0
 14 15  2  0  0  0
 14 96  1  0  0  0
 15 97  1  0  0  0
 16 17  2  0  0  0
 16 21  1  0  0  0
 16 31  1  0  0  0
 17 18  1  0  0  0
 17 98  1  0  0  0
 18 19  2  0  0  0
 18 99  1  0  0  0
 19 20  1  0  0  0
 19 24  1  0  0  0
 20 21  2  0  0  0
 20100  1  0  0  0
 21 23  1  0  0  0
 22 28  1  0  0  0
 22 32  2  0  0  0
 26 27  1  0  0  0
 28101  1  0  0  0
 28102  1  0  0  0
 29103  1  0  0  0
 29104  1  0  0  0
 33 34  1  0  0  0
 33 66  1  0  0  0
 33 70  2  0  0  0
 34 36  1  0  0  0
 34 59  1  0  0  0
 34105  1  0  0  0
 35 44  2  0  0  0
 35 45  1  0  0  0
 35 68  1  0  0  0
 36 56  1  0  0  0
 36106  1  0  0  0
 37 39  1  0  0  0
 37 47  1  0  0  0
 37 66  1  0  0  0
 37107  1  0  0  0
 38 43  2  0  0  0
 38 46  1  0  0  0
 38 47  1  0  0  0
 39 64  1  0  0  0
 39 67  2  0  0  0
 40 52  1  0  0  0
 40 53  2  0  0  0
 40 58  1  0  0  0
 41108  1  0  0  0
 41109  1  0  0  0
 41110  1  0  0  0
 41 48  1  0  0  0
 42 43  1  0  0  0
 42 66  1  0  0  0
 42111  1  0  0  0
 42112  1  0  0  0
 43 44  1  0  0  0
 44113  1  0  0  0
 45 46  2  0  0  0
 45114  1  0  0  0
 46115  1  0  0  0
 47116  1  0  0  0
 47117  1  0  0  0
 48 56  1  0  0  0
 48 65  1  0  0  0
 48118  1  0  0  0
 49 50  1  0  0  0
 49 53  1  0  0  0
 49 64  1  0  0  0
 49119  1  0  0  0
 50 51  1  0  0  0
 50120  1  0  0  0
 50121  1  0  0  0
 51 52  1  0  0  0
 51122  1  0  0  0
 51123  1  0  0  0
 52124  1  0  0  0
 52125  1  0  0  0
 53 54  1  0  0  0
 54 55  2  0  0  0
 54126  1  0  0  0
 55 57  1  0  0  0
 55127  1  0  0  0
 56 69  2  0  0  0
 57 58  2  0  0  0
 57128  1  0  0  0
 58129  1  0  0  0
 59 60  1  0  0  0
 59 61  1  0  0  0
 59 62  1  0  0  0
 60130  1  0  0  0
 60131  1  0  0  0
 60132  1  0  0  0
 61133  1  0  0  0
 61134  1  0  0  0
 61135  1  0  0  0
 62136  1  0  0  0
 62137  1  0  0  0
 62138  1  0  0  0
 63 65  1  0  0  0
 63139  1  0  0  0
 63140  1  0  0  0
 63141  1  0  0  0
 64142  1  0  0  0
 65143  1  0  0  0
 68 83  1  0  0  0
 71 73  2  0  0  0
 71 74  1  0  0  0
 71144  1  0  0  0
 72 75  2  0  0  0
 72 76  1  0  0  0
 72145  1  0  0  0
 73 75  1  0  0  0
 73 77  1  0  0  0
 74 76  2  0  0  0
 74 78  1  0  0  0
 75 79  1  0  0  0
 76 80  1  0  0  0
 77146  1  0  0  0
 77147  1  0  0  0
 77148  1  0  0  0
 78149  1  0  0  0
 78150  1  0  0  0
 78151  1  0  0  0
 79 81  1  0  0  0
 79152  1  0  0  0
 79153  1  0  0  0
 80 83  1  0  0  0
 80154  1  0  0  0
 80155  1  0  0  0
 81 82  1  0  0  0
 81156  1  0  0  0
 81157  1  0  0  0
 82 84  1  0  0  0
 82158  1  0  0  0
 82159  1  0  0  0
 83160  1  0  0  0
 83161  1  0  0  0
 84162  1  0  0  0
M  ISO  4   1 100  68 101  83 101  84 100
M  END
> <chiral flag>
0

> <version>
0

> <s_m_source_file>
/data/baiqing/PycharmProjects/Reinvent-master-3.2/result/LINK_invent/BTK/process_docking_weight1_custom_sum_contain_oxygen_bond_distance_aromatic_linkinvent_7_9_3/rearranged_h_0032.sdf

> <i_m_source_file_index>
24

> <r_mmod_Potential_Energy-OPLS-2005>
8.73692321777344

> <r_mmod_Stretch_Energy-OPLS-2005>
54.1397438049316

> <r_mmod_Bend_Energy-OPLS-2005>
130.568023681641

> <r_mmod_Torsional_Energy-OPLS-2005>
238.691040039062

> <r_mmod_Improper_Torsional_Energy-OPLS-2005>
3.52683877944946

> <r_mmod_Van_der_Waal_Energy-OPLS-2005>
149.118194580078

> <r_mmod_Electrostatic_Energy-OPLS-2005>
-386.856475830078

> <r_mmod_Solvation_Energy-OPLS-2005>
-204.298767089844

> <b_mmod_Minimization_Converged-OPLS-2005>
0

> <r_mmod_RMS_Derivative-OPLS-2005>
2.86645579338074

$$$$
24
                    3D
 Structure written by MMmdl.
177185  0  0  1  0            999 V2000
  -30.7892  -14.3209   20.7516 C   0  0  0  0  0  0
  -30.4254  -12.3010   19.3749 C   0  0  0  0  0  0
  -29.4830  -12.5426   18.1822 C   0  0  0  0  0  0
  -28.0146  -12.3721   18.6139 C   0  0  0  0  0  0
  -27.6744  -13.1993   19.8824 C   0  0  2  0  0  0
  -28.7133  -12.9091   20.9858 C   0  0  0  0  0  0
  -25.2668  -13.8116   20.5651 C   0  0  0  0  0  0
  -24.1895  -13.0467   20.9152 C   0  0  0  0  0  0
  -24.6421  -11.6914   20.8737 C   0  0  0  0  0  0
  -23.9094  -10.4327   21.0410 C   0  0  0  0  0  0
  -24.3648   -9.4237   21.9194 C   0  0  0  0  0  0
  -23.6311   -8.2282   22.0751 C   0  0  0  0  0  0
  -22.4292   -8.0328   21.3545 C   0  0  0  0  0  0
  -21.9944   -9.0310   20.4642 C   0  0  0  0  0  0
  -22.7276  -10.2175   20.3050 C   0  0  0  0  0  0
  -21.6874   -6.0777   22.5292 C   0  0  0  0  0  0
  -21.4012   -6.5659   23.8228 C   0  0  0  0  0  0
  -21.3639   -5.6795   24.9183 C   0  0  0  0  0  0
  -21.6036   -4.3065   24.7225 C   0  0  0  0  0  0
  -21.8816   -3.8177   23.4342 C   0  0  0  0  0  0
  -21.9195   -4.7006   22.3404 C   0  0  0  0  0  0
  -22.7921  -13.5265   21.1849 C   0  0  0  0  0  0
  -22.1685   -4.2197   21.0986 F   0  0  0  0  0  0
  -21.5613   -3.4530   25.7730 F   0  0  0  0  0  0
  -30.0557  -13.2133   20.4681 N   0  0  0  0  0  0
  -26.3111  -12.9290   20.3384 N   0  0  0  0  0  0
  -25.9341  -11.6461   20.5752 N   0  0  0  0  0  0
  -22.0586  -12.8229   22.0388 N   0  0  0  0  0  0
  -25.4436  -15.1805   20.3949 N   0  0  0  0  0  0
  -31.7512  -14.6901   20.0739 O   0  0  0  0  0  0
  -21.6646   -6.8932   21.4258 O   0  0  0  0  0  0
  -22.3619  -14.5630   20.6770 O   0  0  0  0  0  0
  -24.6174  -31.8666   23.2184 C   0  0  0  0  0  0
  -25.9065  -32.4831   23.8455 C   0  0  1  0  0  0
  -27.2265  -27.4537   20.0597 C   0  0  0  0  0  0
  -25.5906  -33.8629   24.2357 N   0  0  0  0  0  0
  -23.4018  -30.4950   21.5618 C   0  0  2  0  0  0
  -24.8387  -28.9717   20.1182 C   0  0  0  0  0  0
  -22.7417  -29.4644   22.5070 C   0  0  0  0  0  0
  -18.0245  -28.1381   22.8457 C   0  0  0  0  0  0
  -24.1474  -36.7345   23.2635 C   0  0  0  0  0  0
  -25.9282  -30.8417   21.3609 C   0  0  0  0  0  0
  -26.0037  -29.4780   20.7055 C   0  0  0  0  0  0
  -27.2007  -28.7274   20.6682 C   0  0  0  0  0  0
  -26.0346  -26.9654   19.4670 C   0  0  0  0  0  0
  -24.8491  -27.7162   19.4962 C   0  0  0  0  0  0
  -23.6053  -29.8386   20.1722 C   0  0  0  0  0  0
  -25.4093  -36.3141   24.0333 C   0  0  1  0  0  0
  -20.5840  -28.3661   23.1353 C   0  0  2  0  0  0
  -20.6756  -26.9398   22.5464 C   0  0  0  0  0  0
  -19.5772  -26.6385   21.5200 C   0  0  0  0  0  0
  -18.1924  -26.7922   22.1573 C   0  0  0  0  0  0
  -19.1490  -28.8835   23.2883 C   0  0  0  0  0  0
  -18.9427  -30.1436   23.8900 C   0  0  0  0  0  0
  -17.6428  -30.6584   24.0558 C   0  0  0  0  0  0
  -25.9027  -34.9490   23.5143 C   0  0  0  0  0  0
  -16.5321  -29.9089   23.6319 C   0  0  0  0  0  0
  -16.7236  -28.6511   23.0310 C   0  0  0  0  0  0
  -26.4487  -31.6625   25.0788 C   0  0  0  0  0  0
  -25.3769  -31.3746   26.1571 C   0  0  0  0  0  0
  -27.0304  -30.3080   24.6113 C   0  0  0  0  0  0
  -27.6059  -32.4351   25.7559 C   0  0  0  0  0  0
  -27.5568  -37.1838   24.8459 C   0  0  0  0  0  0
  -21.4147  -29.3031   22.3801 N   0  0  0  0  0  0
  -26.4285  -37.3833   23.9403 N   0  0  0  0  0  0
  -24.6691  -31.0781   22.1098 N   0  0  0  0  0  0
  -23.4197  -28.8162   23.3088 O   0  0  0  0  0  0
  -28.4104  -26.7412   20.0618 O   0  0  0  0  0  0
  -26.5577  -34.8943   22.4705 O   0  0  0  0  0  0
  -23.5364  -32.1434   23.7577 O   0  0  0  0  0  0
  -24.9600  -22.0459   20.2904 C   0  0  0  0  0  0
  -27.7525  -22.1754   20.3147 C   0  0  0  0  0  0
  -25.5857  -23.2361   20.7003 C   0  0  0  0  0  0
  -25.7063  -20.9203   19.8907 C   0  0  0  0  0  0
  -27.0064  -23.3156   20.6991 C   0  0  0  0  0  0
  -27.1178  -20.9861   19.9017 C   0  0  0  0  0  0
  -24.6543  -24.3651   21.1195 C   0  0  0  0  0  0
  -24.9637  -19.6485   19.5151 C   0  0  0  0  0  0
  -27.7634  -24.5872   21.0790 C   0  0  0  0  0  0
  -24.8987  -18.5886   20.6347 C   0  0  0  0  0  0
  -24.3946  -19.0759   22.0110 C   0  0  0  0  0  0
  -25.4832  -19.7040   22.9025 C   0  0  0  0  0  0
  -26.2657  -18.7172   23.7789 C   0  0  0  0  0  0
  -27.1093  -17.6698   23.0299 C   0  0  0  0  0  0
  -28.0667  -16.9422   23.9870 C   0  0  0  0  0  0
  -28.7406  -15.7050   23.3832 C   0  0  0  0  0  0
  -29.7426  -15.9938   22.2426 C   0  0  0  0  0  0
  -28.3543  -25.3211   19.8537 C   0  0  0  0  0  0
  -30.6039  -14.8387   21.9742 N   0  0  0  0  0  0
  -28.0848  -19.6242   19.4523 Cl  0  0  0  0  0  0
  -31.4647  -12.4241   19.0621 H   0  0  0  0  0  0
  -30.3468  -11.2699   19.7241 H   0  0  0  0  0  0
  -29.7180  -11.8523   17.3705 H   0  0  0  0  0  0
  -29.6385  -13.5494   17.7867 H   0  0  0  0  0  0
  -27.8530  -11.3093   18.8108 H   0  0  0  0  0  0
  -27.3430  -12.6364   17.7971 H   0  0  0  0  0  0
  -27.7433  -14.2608   19.6313 H   0  0  0  0  0  0
  -28.6714  -11.8597   21.2770 H   0  0  0  0  0  0
  -28.4719  -13.4410   21.8949 H   0  0  0  0  0  0
  -25.2797   -9.5703   22.4770 H   0  0  0  0  0  0
  -24.0028   -7.4648   22.7438 H   0  0  0  0  0  0
  -21.0893   -8.8843   19.8920 H   0  0  0  0  0  0
  -22.3767  -10.9738   19.6159 H   0  0  0  0  0  0
  -21.2018   -7.6163   23.9753 H   0  0  0  0  0  0
  -21.1445   -6.0518   25.9081 H   0  0  0  0  0  0
  -22.0609   -2.7647   23.2823 H   0  0  0  0  0  0
  -22.4196  -11.9799   22.4619 H   0  0  0  0  0  0
  -21.1216  -13.1227   22.2683 H   0  0  0  0  0  0
  -24.6824  -15.8386   20.5002 H   0  0  0  0  0  0
  -26.3006  -15.6116   20.0788 H   0  0  0  0  0  0
  -26.7140  -32.5574   23.1230 H   0  0  0  0  0  0
  -25.0091  -33.9801   25.0521 H   0  0  0  0  0  0
  -22.6945  -31.3154   21.4314 H   0  0  0  0  0  0
  -23.3736  -35.9687   23.3297 H   0  0  0  0  0  0
  -24.3597  -36.8959   22.2062 H   0  0  0  0  0  0
  -23.7217  -37.6548   23.6643 H   0  0  0  0  0  0
  -26.0212  -31.6039   20.5866 H   0  0  0  0  0  0
  -26.8265  -30.9099   21.9635 H   0  0  0  0  0  0
  -28.1093  -29.1185   21.1052 H   0  0  0  0  0  0
  -25.9806  -26.0151   18.9597 H   0  0  0  0  0  0
  -23.9519  -27.3355   19.0295 H   0  0  0  0  0  0
  -23.7298  -30.6198   19.4213 H   0  0  0  0  0  0
  -22.7242  -29.2688   19.8679 H   0  0  0  0  0  0
  -25.1261  -36.2039   25.0825 H   0  0  0  0  0  0
  -20.9883  -28.3217   24.1500 H   0  0  0  0  0  0
  -20.5600  -26.2265   23.3635 H   0  0  0  0  0  0
  -21.6641  -26.7425   22.1313 H   0  0  0  0  0  0
  -19.6961  -25.6303   21.1231 H   0  0  0  0  0  0
  -19.6770  -27.3218   20.6757 H   0  0  0  0  0  0
  -17.4233  -26.6695   21.3934 H   0  0  0  0  0  0
  -18.0298  -26.0052   22.8942 H   0  0  0  0  0  0
  -19.7899  -30.7244   24.2309 H   0  0  0  0  0  0
  -17.4991  -31.6253   24.5162 H   0  0  0  0  0  0
  -15.5329  -30.2993   23.7650 H   0  0  0  0  0  0
  -15.8631  -28.0851   22.7011 H   0  0  0  0  0  0
  -24.5869  -30.7158   25.7930 H   0  0  0  0  0  0
  -24.9060  -32.2926   26.5116 H   0  0  0  0  0  0
  -25.8157  -30.8852   27.0275 H   0  0  0  0  0  0
  -26.2832  -29.6896   24.1118 H   0  0  0  0  0  0
  -27.4046  -29.7277   25.4556 H   0  0  0  0  0  0
  -27.8684  -30.4438   23.9267 H   0  0  0  0  0  0
  -27.2635  -33.3596   26.2232 H   0  0  0  0  0  0
  -28.3835  -32.7004   25.0380 H   0  0  0  0  0  0
  -28.0766  -31.8426   26.5424 H   0  0  0  0  0  0
  -28.2602  -38.0116   24.7501 H   0  0  0  0  0  0
  -28.1030  -36.2660   24.6270 H   0  0  0  0  0  0
  -27.2294  -37.1473   25.8862 H   0  0  0  0  0  0
  -20.9339  -29.8801   21.7050 H   0  0  0  0  0  0
  -26.0172  -38.2902   24.1452 H   0  0  0  0  0  0
  -23.8803  -21.9962   20.3023 H   0  0  0  0  0  0
  -28.8336  -22.2009   20.3412 H   0  0  0  0  0  0
  -23.8129  -23.9434   21.6687 H   0  0  0  0  0  0
  -24.2420  -24.8539   20.2335 H   0  0  0  0  0  0
  -25.0841  -25.1173   21.7775 H   0  0  0  0  0  0
  -25.4215  -19.2183   18.6233 H   0  0  0  0  0  0
  -23.9478  -19.9153   19.2172 H   0  0  0  0  0  0
  -28.5644  -24.3358   21.7777 H   0  0  0  0  0  0
  -27.1334  -25.2579   21.6530 H   0  0  0  0  0  0
  -25.8753  -18.1232   20.7368 H   0  0  0  0  0  0
  -24.2366  -17.7950   20.2933 H   0  0  0  0  0  0
  -23.9357  -18.2457   22.5521 H   0  0  0  0  0  0
  -23.5871  -19.7914   21.8552 H   0  0  0  0  0  0
  -25.0050  -20.4324   23.5613 H   0  0  0  0  0  0
  -26.1822  -20.2887   22.3158 H   0  0  0  0  0  0
  -26.9312  -19.3122   24.4032 H   0  0  0  0  0  0
  -25.5725  -18.2123   24.4546 H   0  0  0  0  0  0
  -27.6759  -18.1404   22.2238 H   0  0  0  0  0  0
  -26.4436  -16.9440   22.5594 H   0  0  0  0  0  0
  -27.4875  -16.6027   24.8495 H   0  0  0  0  0  0
  -28.8144  -17.6378   24.3746 H   0  0  0  0  0  0
  -27.9414  -15.0453   23.0524 H   0  0  0  0  0  0
  -29.2609  -15.1795   24.1860 H   0  0  0  0  0  0
  -29.2183  -16.3230   21.3460 H   0  0  0  0  0  0
  -30.3928  -16.8253   22.5251 H   0  0  0  0  0  0
  -27.8147  -25.0842   18.9371 H   0  0  0  0  0  0
  -29.3601  -24.9418   19.6648 H   0  0  0  0  0  0
  -31.5109  -15.0141   22.3816 H   0  0  0  0  0  0
  1 25  1  0  0  0
  1 30  2  0  0  0
  1 89  1  0  0  0
  2  3  1  0  0  0
  2 25  1  0  0  0
  2 91  1  0  0  0
  2 92  1  0  0  0
  3  4  1  0  0  0
  3 93  1  0  0  0
  3 94  1  0  0  0
  4  5  1  0  0  0
  4 95  1  0  0  0
  4 96  1  0  0  0
  5  6  1  0  0  0
  5 26  1  0  0  0
  5 97  1  0  0  0
  6 25  1  0  0  0
  6 98  1  0  0  0
  6 99  1  0  0  0
  7  8  2  0  0  0
  7 26  1  0  0  0
  7 29  1  0  0  0
  8  9  1  0  0  0
  8 22  1  0  0  0
  9 10  1  0  0  0
  9 27  2  0  0  0
 10 11  2  0  0  0
 10 15  1  0  0  0
 11 12  1  0  0  0
 11100  1  0  0  0
 12 13  2  0  0  0
 12101  1  0  0  0
 13 14  1  0  0  0
 13 31  1  0  0  0
 14 15  2  0  0  0
 14102  1  0  0  0
 15103  1  0  0  0
 16 17  2  0  0  0
 16 21  1  0  0  0
 16 31  1  0  0  0
 17 18  1  0  0  0
 17104  1  0  0  0
 18 19  2  0  0  0
 18105  1  0  0  0
 19 20  1  0  0  0
 19 24  1  0  0  0
 20 21  2  0  0  0
 20106  1  0  0  0
 21 23  1  0  0  0
 22 28  1  0  0  0
 22 32  2  0  0  0
 26 27  1  0  0  0
 28107  1  0  0  0
 28108  1  0  0  0
 29109  1  0  0  0
 29110  1  0  0  0
 33 34  1  0  0  0
 33 66  1  0  0  0
 33 70  2  0  0  0
 34 36  1  0  0  0
 34 59  1  0  0  0
 34111  1  0  0  0
 35 44  2  0  0  0
 35 45  1  0  0  0
 35 68  1  0  0  0
 36 56  1  0  0  0
 36112  1  0  0  0
 37 39  1  0  0  0
 37 47  1  0  0  0
 37 66  1  0  0  0
 37113  1  0  0  0
 38 43  2  0  0  0
 38 46  1  0  0  0
 38 47  1  0  0  0
 39 64  1  0  0  0
 39 67  2  0  0  0
 40 52  1  0  0  0
 40 53  2  0  0  0
 40 58  1  0  0  0
 41114  1  0  0  0
 41115  1  0  0  0
 41116  1  0  0  0
 41 48  1  0  0  0
 42 43  1  0  0  0
 42 66  1  0  0  0
 42117  1  0  0  0
 42118  1  0  0  0
 43 44  1  0  0  0
 44119  1  0  0  0
 45 46  2  0  0  0
 45120  1  0  0  0
 46121  1  0  0  0
 47122  1  0  0  0
 47123  1  0  0  0
 48 56  1  0  0  0
 48 65  1  0  0  0
 48124  1  0  0  0
 49 50  1  0  0  0
 49 53  1  0  0  0
 49 64  1  0  0  0
 49125  1  0  0  0
 50 51  1  0  0  0
 50126  1  0  0  0
 50127  1  0  0  0
 51 52  1  0  0  0
 51128  1  0  0  0
 51129  1  0  0  0
 52130  1  0  0  0
 52131  1  0  0  0
 53 54  1  0  0  0
 54 55  2  0  0  0
 54132  1  0  0  0
 55 57  1  0  0  0
 55133  1  0  0  0
 56 69  2  0  0  0
 57 58  2  0  0  0
 57134  1  0  0  0
 58135  1  0  0  0
 59 60  1  0  0  0
 59 61  1  0  0  0
 59 62  1  0  0  0
 60136  1  0  0  0
 60137  1  0  0  0
 60138  1  0  0  0
 61139  1  0  0  0
 61140  1  0  0  0
 61141  1  0  0  0
 62142  1  0  0  0
 62143  1  0  0  0
 62144  1  0  0  0
 63 65  1  0  0  0
 63145  1  0  0  0
 63146  1  0  0  0
 63147  1  0  0  0
 64148  1  0  0  0
 65149  1  0  0  0
 68 88  1  0  0  0
 71 73  2  0  0  0
 71 74  1  0  0  0
 71150  1  0  0  0
 72 75  2  0  0  0
 72 76  1  0  0  0
 72151  1  0  0  0
 73 75  1  0  0  0
 73 77  1  0  0  0
 74 76  2  0  0  0
 74 78  1  0  0  0
 75 79  1  0  0  0
 76 90  1  0  0  0
 77152  1  0  0  0
 77153  1  0  0  0
 77154  1  0  0  0
 78 80  1  0  0  0
 78155  1  0  0  0
 78156  1  0  0  0
 79 88  1  0  0  0
 79157  1  0  0  0
 79158  1  0  0  0
 80 81  1  0  0  0
 80159  1  0  0  0
 80160  1  0  0  0
 81 82  1  0  0  0
 81161  1  0  0  0
 81162  1  0  0  0
 82 83  1  0  0  0
 82163  1  0  0  0
 82164  1  0  0  0
 83 84  1  0  0  0
 83165  1  0  0  0
 83166  1  0  0  0
 84 85  1  0  0  0
 84167  1  0  0  0
 84168  1  0  0  0
 85 86  1  0  0  0
 85169  1  0  0  0
 85170  1  0  0  0
 86 87  1  0  0  0
 86171  1  0  0  0
 86172  1  0  0  0
 87 89  1  0  0  0
 87173  1  0  0  0
 87174  1  0  0  0
 88175  1  0  0  0
 88176  1  0  0  0
 89177  1  0  0  0
M  ISO  4   1 100  68 101  88 101  89 100
M  END
> <chiral flag>
0

> <version>
0

> <s_m_source_file>
/data/baiqing/PycharmProjects/Reinvent-master-3.2/result/LINK_invent/BTK/process_docking_weight1_custom_sum_contain_oxygen_bond_distance_aromatic_linkinvent_7_9_3/rearranged_h_0032.sdf

> <i_m_source_file_index>
25

> <r_mmod_Potential_Energy-OPLS-2005>
34.2845649719238

> <r_mmod_Stretch_Energy-OPLS-2005>
35.2915153503418

> <r_mmod_Bend_Energy-OPLS-2005>
118.281745910645

> <r_mmod_Torsional_Energy-OPLS-2005>
278.912628173828

> <r_mmod_Improper_Torsional_Energy-OPLS-2005>
11.7674703598022

> <r_mmod_Van_der_Waal_Energy-OPLS-2005>
137.998168945312

> <r_mmod_Electrostatic_Energy-OPLS-2005>
-375.924285888672

> <r_mmod_Solvation_Energy-OPLS-2005>
-181.986389160156

> <b_mmod_Minimization_Converged-OPLS-2005>
0

> <r_mmod_RMS_Derivative-OPLS-2005>
5.47196531295776

$$$$
25
                    3D
 Structure written by MMmdl.
176185  0  0  1  0            999 V2000
  -30.6048  -14.5183   20.5769 C   0  0  0  0  0  0
  -30.4505  -12.3385   19.3973 C   0  0  0  0  0  0
  -29.4983  -12.5017   18.1938 C   0  0  0  0  0  0
  -28.0249  -12.3307   18.6275 C   0  0  0  0  0  0
  -27.6640  -13.1819   19.8752 C   0  0  2  0  0  0
  -28.7095  -12.9356   20.9905 C   0  0  0  0  0  0
  -25.2535  -13.7990   20.5704 C   0  0  0  0  0  0
  -24.1833  -13.0306   20.9326 C   0  0  0  0  0  0
  -24.6387  -11.6776   20.8808 C   0  0  0  0  0  0
  -23.9052  -10.4171   21.0406 C   0  0  0  0  0  0
  -24.3656   -9.4017   21.9095 C   0  0  0  0  0  0
  -23.6307   -8.2077   22.0664 C   0  0  0  0  0  0
  -22.4226   -8.0213   21.3536 C   0  0  0  0  0  0
  -21.9817   -9.0230   20.4695 C   0  0  0  0  0  0
  -22.7179  -10.2083   20.3100 C   0  0  0  0  0  0
  -21.6796   -6.0694   22.5292 C   0  0  0  0  0  0
  -21.3980   -6.5611   23.8226 C   0  0  0  0  0  0
  -21.3657   -5.6781   24.9204 C   0  0  0  0  0  0
  -21.6060   -4.3045   24.7257 C   0  0  0  0  0  0
  -21.8796   -3.8108   23.4379 C   0  0  0  0  0  0
  -21.9145   -4.6919   22.3428 C   0  0  0  0  0  0
  -22.7837  -13.5062   21.1997 C   0  0  0  0  0  0
  -22.1640   -4.2106   21.1015 F   0  0  0  0  0  0
  -21.5633   -3.4546   25.7777 F   0  0  0  0  0  0
  -30.0233  -13.2938   20.4369 N   0  0  0  0  0  0
  -26.3015  -12.9186   20.3402 N   0  0  0  0  0  0
  -25.9281  -11.6346   20.5765 N   0  0  0  0  0  0
  -22.0591  -12.8097   22.0657 N   0  0  0  0  0  0
  -25.4009  -15.1703   20.4049 N   0  0  0  0  0  0
  -31.7256  -14.7839   20.1457 O   0  0  0  0  0  0
  -21.6580   -6.8832   21.4234 O   0  0  0  0  0  0
  -22.3402  -14.5269   20.6709 O   0  0  0  0  0  0
  -24.6832  -31.9718   23.2160 C   0  0  0  0  0  0
  -25.9772  -32.5176   23.8549 C   0  0  1  0  0  0
  -25.3551  -27.2175   20.7417 C   0  0  0  0  0  0
  -25.6607  -33.8889   24.2553 N   0  0  0  0  0  0
  -23.4732  -30.6654   21.5769 C   0  0  2  0  0  0
  -24.7676  -29.3662   19.7520 C   0  0  0  0  0  0
  -23.0865  -29.6195   22.6439 C   0  0  0  0  0  0
  -18.7307  -28.2381   22.1134 C   0  0  0  0  0  0
  -24.1540  -36.7335   23.2586 C   0  0  0  0  0  0
  -25.9830  -30.8212   21.4009 C   0  0  0  0  0  0
  -25.8237  -29.5052   20.6572 C   0  0  0  0  0  0
  -26.2922  -28.2652   21.1279 C   0  0  0  0  0  0
  -25.4330  -27.0645   19.3739 C   0  0  0  0  0  0
  -24.6900  -28.1782   18.9655 C   0  0  0  0  0  0
  -23.5734  -30.2038   20.0693 C   0  0  0  0  0  0
  -25.4182  -36.3222   24.0297 C   0  0  1  0  0  0
  -21.2989  -28.3128   23.5105 C   0  0  2  0  0  0
  -22.0242  -26.3134   23.1704 C   0  0  0  0  0  0
  -20.6714  -25.5615   21.5476 C   0  0  0  0  0  0
  -19.1939  -26.7959   21.1737 C   0  0  0  0  0  0
  -19.6928  -28.9021   23.0735 C   0  0  0  0  0  0
  -19.1710  -29.9929   23.8632 C   0  0  0  0  0  0
  -17.8100  -30.3844   23.9161 C   0  0  0  0  0  0
  -25.9254  -34.9656   23.5101 C   0  0  0  0  0  0
  -16.8683  -29.6121   23.2312 C   0  0  0  0  0  0
  -17.3238  -28.5592   22.3859 C   0  0  0  0  0  0
  -26.4712  -31.6689   25.0864 C   0  0  0  0  0  0
  -25.3687  -31.3870   26.1340 C   0  0  0  0  0  0
  -27.0441  -30.3052   24.6355 C   0  0  0  0  0  0
  -27.6260  -32.4183   25.7817 C   0  0  0  0  0  0
  -27.5619  -37.1891   24.8462 C   0  0  0  0  0  0
  -21.8320  -29.5114   22.9181 N   0  0  0  0  0  0
  -26.4323  -37.3922   23.9433 N   0  0  0  0  0  0
  -24.7338  -31.2317   22.0759 N   0  0  0  0  0  0
  -23.8748  -28.9277   23.2811 O   0  0  0  0  0  0
  -23.9029  -27.1130   21.2960 O   0  0  0  0  0  0
  -26.5577  -34.9054   22.4525 O   0  0  0  0  0  0
  -23.6054  -32.2531   23.7654 O   0  0  0  0  0  0
  -25.1828  -17.8191   22.9162 C   0  0  0  0  0  0
  -26.2928  -19.7142   21.9410 C   0  0  0  0  0  0
  -24.0800  -20.0439   23.0480 C   0  0  0  0  0  0
  -26.2980  -18.3304   22.2220 C   0  0  0  0  0  0
  -24.1004  -18.6368   23.3261 C   0  0  0  0  0  0
  -25.2153  -20.5497   22.3407 C   0  0  0  0  0  0
  -21.9763  -20.6664   24.6198 C   0  0  0  0  0  0
  -22.0361  -21.4504   22.2263 C   0  0  0  0  0  0
  -21.0299  -21.8205   25.0578 C   0  0  0  0  0  0
  -20.5671  -21.8517   22.5472 C   0  0  0  0  0  0
  -22.9148  -21.0339   23.4392 C   0  0  2  0  0  0
  -20.3100  -22.5643   23.9059 C   0  0  2  0  0  0
  -27.3926  -17.3581   21.7086 C   0  0  0  0  0  0
  -28.8848  -17.7137   21.9534 C   0  0  0  0  0  0
  -19.8486  -26.4811   23.4311 C   0  0  0  0  0  0
  -29.9321  -16.9299   21.0813 C   0  0  0  0  0  0
  -21.8622  -27.4801   21.3064 C   0  0  0  0  0  0
  -19.5665  -24.9207   23.8702 C   0  0  0  0  0  0
  -29.7656  -15.4625   21.0730 N   0  0  0  0  0  0
  -20.6581  -23.9619   23.9011 O   0  0  0  0  0  0
  -22.8294  -17.7890   24.1371 Cl  0  0  0  0  0  0
  -25.3274  -22.2238   21.9068 Cl  0  0  0  0  0  0
  -31.4804  -12.5163   19.0773 H   0  0  0  0  0  0
  -30.4222  -11.3178   19.7765 H   0  0  0  0  0  0
  -29.7475  -11.7624   17.4300 H   0  0  0  0  0  0
  -29.6527  -13.4734   17.7272 H   0  0  0  0  0  0
  -27.8933  -11.2728   18.8557 H   0  0  0  0  0  0
  -27.3507  -12.5503   17.7973 H   0  0  0  0  0  0
  -27.7061  -14.2322   19.5798 H   0  0  0  0  0  0
  -28.7118  -11.8889   21.2960 H   0  0  0  0  0  0
  -28.4700  -13.4887   21.9007 H   0  0  0  0  0  0
  -25.2871   -9.5399   22.4576 H   0  0  0  0  0  0
  -24.0027   -7.4368   22.7264 H   0  0  0  0  0  0
  -21.0707   -8.8786   19.9089 H   0  0  0  0  0  0
  -22.3591  -10.9663   19.6283 H   0  0  0  0  0  0
  -21.2002   -7.6124   23.9737 H   0  0  0  0  0  0
  -21.1532   -6.0529   25.9122 H   0  0  0  0  0  0
  -22.0583   -2.7560   23.2907 H   0  0  0  0  0  0
  -22.4541  -12.0173   22.5557 H   0  0  0  0  0  0
  -21.1037  -13.0730   22.2615 H   0  0  0  0  0  0
  -24.6070  -15.7873   20.5318 H   0  0  0  0  0  0
  -26.2371  -15.6587   20.1190 H   0  0  0  0  0  0
  -26.7821  -32.5571   23.1250 H   0  0  0  0  0  0
  -25.0828  -34.0002   25.0732 H   0  0  0  0  0  0
  -22.7046  -31.4409   21.5865 H   0  0  0  0  0  0
  -23.3863  -35.9602   23.3239 H   0  0  0  0  0  0
  -24.3630  -36.8978   22.2004 H   0  0  0  0  0  0
  -23.7225  -37.6495   23.6608 H   0  0  0  0  0  0
  -26.2557  -31.5965   20.6885 H   0  0  0  0  0  0
  -26.8219  -30.7056   22.0679 H   0  0  0  0  0  0
  -26.7422  -28.2701   22.1053 H   0  0  0  0  0  0
  -25.1078  -26.1493   18.9018 H   0  0  0  0  0  0
  -23.9186  -28.0465   18.2168 H   0  0  0  0  0  0
  -23.6621  -31.0988   19.4500 H   0  0  0  0  0  0
  -22.6572  -29.7277   19.7130 H   0  0  0  0  0  0
  -25.1346  -36.2055   25.0777 H   0  0  0  0  0  0
  -21.4292  -28.4788   24.5769 H   0  0  0  0  0  0
  -21.9965  -25.7712   24.1146 H   0  0  0  0  0  0
  -23.0898  -26.1695   23.0563 H   0  0  0  0  0  0
  -20.3057  -24.5483   21.6724 H   0  0  0  0  0  0
  -21.2131  -25.2668   20.6480 H   0  0  0  0  0  0
  -19.3371  -27.1644   20.1580 H   0  0  0  0  0  0
  -18.2908  -26.1882   21.0923 H   0  0  0  0  0  0
  -19.8440  -30.5156   24.5345 H   0  0  0  0  0  0
  -17.4815  -31.2037   24.5407 H   0  0  0  0  0  0
  -15.8075  -29.8252   23.3087 H   0  0  0  0  0  0
  -16.5658  -27.9756   21.8762 H   0  0  0  0  0  0
  -24.5859  -30.7384   25.7410 H   0  0  0  0  0  0
  -24.8936  -32.3085   26.4699 H   0  0  0  0  0  0
  -25.7731  -30.8908   27.0169 H   0  0  0  0  0  0
  -26.3024  -29.6884   24.1309 H   0  0  0  0  0  0
  -27.3954  -29.7267   25.4919 H   0  0  0  0  0  0
  -27.9025  -30.4237   23.9732 H   0  0  0  0  0  0
  -27.2964  -33.3456   26.2515 H   0  0  0  0  0  0
  -28.4182  -32.6754   25.0752 H   0  0  0  0  0  0
  -28.0793  -31.8129   26.5685 H   0  0  0  0  0  0
  -28.2612  -38.0216   24.7599 H   0  0  0  0  0  0
  -28.1157  -36.2767   24.6210 H   0  0  0  0  0  0
  -27.2331  -37.1425   25.8853 H   0  0  0  0  0  0
  -21.1621  -30.1591   22.5266 H   0  0  0  0  0  0
  -26.0202  -38.2958   24.1523 H   0  0  0  0  0  0
  -25.1291  -16.7561   23.1133 H   0  0  0  0  0  0
  -27.1130  -20.1500   21.3841 H   0  0  0  0  0  0
  -21.3271  -19.8449   24.3241 H   0  0  0  0  0  0
  -22.5560  -20.3234   25.4784 H   0  0  0  0  0  0
  -22.5271  -22.2597   21.6851 H   0  0  0  0  0  0
  -21.9903  -20.6106   21.5340 H   0  0  0  0  0  0
  -21.5564  -22.5356   25.6956 H   0  0  0  0  0  0
  -20.2655  -21.3872   25.7048 H   0  0  0  0  0  0
  -19.9719  -20.9370   22.5525 H   0  0  0  0  0  0
  -20.1464  -22.4208   21.7197 H   0  0  0  0  0  0
  -23.4023  -21.9461   23.7810 H   0  0  0  0  0  0
  -19.2351  -22.4928   24.1032 H   0  0  0  0  0  0
  -27.2449  -17.2199   20.6396 H   0  0  0  0  0  0
  -27.2207  -16.3760   22.1604 H   0  0  0  0  0  0
  -29.1035  -17.5941   23.0151 H   0  0  0  0  0  0
  -29.0396  -18.7742   21.7481 H   0  0  0  0  0  0
  -18.7693  -26.5992   23.5061 H   0  0  0  0  0  0
  -20.0257  -26.7783   24.4762 H   0  0  0  0  0  0
  -30.9414  -17.1743   21.4193 H   0  0  0  0  0  0
  -29.8749  -17.2890   20.0516 H   0  0  0  0  0  0
  -21.5735  -28.4539   20.9230 H   0  0  0  0  0  0
  -21.6882  -27.1571   20.2782 H   0  0  0  0  0  0
  -18.8023  -24.5231   23.1922 H   0  0  0  0  0  0
  -19.0900  -24.8874   24.8505 H   0  0  0  0  0  0
  -28.8482  -15.1191   21.3122 H   0  0  0  0  0  0
  1 25  1  0  0  0
  1 30  2  0  0  0
  1 89  1  0  0  0
  2  3  1  0  0  0
  2 25  1  0  0  0
  2 93  1  0  0  0
  2 94  1  0  0  0
  3  4  1  0  0  0
  3 95  1  0  0  0
  3 96  1  0  0  0
  4  5  1  0  0  0
  4 97  1  0  0  0
  4 98  1  0  0  0
  5  6  1  0  0  0
  5 26  1  0  0  0
  5 99  1  0  0  0
  6 25  1  0  0  0
  6100  1  0  0  0
  6101  1  0  0  0
  7  8  2  0  0  0
  7 26  1  0  0  0
  7 29  1  0  0  0
  8  9  1  0  0  0
  8 22  1  0  0  0
  9 10  1  0  0  0
  9 27  2  0  0  0
 10 11  2  0  0  0
 10 15  1  0  0  0
 11 12  1  0  0  0
 11102  1  0  0  0
 12 13  2  0  0  0
 12103  1  0  0  0
 13 14  1  0  0  0
 13 31  1  0  0  0
 14 15  2  0  0  0
 14104  1  0  0  0
 15105  1  0  0  0
 16 17  2  0  0  0
 16 21  1  0  0  0
 16 31  1  0  0  0
 17 18  1  0  0  0
 17106  1  0  0  0
 18 19  2  0  0  0
 18107  1  0  0  0
 19 20  1  0  0  0
 19 24  1  0  0  0
 20 21  2  0  0  0
 20108  1  0  0  0
 21 23  1  0  0  0
 22 28  1  0  0  0
 22 32  2  0  0  0
 26 27  1  0  0  0
 28109  1  0  0  0
 28110  1  0  0  0
 29111  1  0  0  0
 29112  1  0  0  0
 33 34  1  0  0  0
 33 66  1  0  0  0
 33 70  2  0  0  0
 34 36  1  0  0  0
 34 59  1  0  0  0
 34113  1  0  0  0
 35 44  2  0  0  0
 35 45  1  0  0  0
 35 68  1  0  0  0
 36 56  1  0  0  0
 36114  1  0  0  0
 37 39  1  0  0  0
 37 47  1  0  0  0
 37 66  1  0  0  0
 37115  1  0  0  0
 38 43  2  0  0  0
 38 46  1  0  0  0
 38 47  1  0  0  0
 39 64  1  0  0  0
 39 67  2  0  0  0
 40 52  1  0  0  0
 40 53  2  0  0  0
 40 58  1  0  0  0
 41116  1  0  0  0
 41117  1  0  0  0
 41118  1  0  0  0
 41 48  1  0  0  0
 42 43  1  0  0  0
 42 66  1  0  0  0
 42119  1  0  0  0
 42120  1  0  0  0
 43 44  1  0  0  0
 44121  1  0  0  0
 45 46  2  0  0  0
 45122  1  0  0  0
 46123  1  0  0  0
 47124  1  0  0  0
 47125  1  0  0  0
 48 56  1  0  0  0
 48 65  1  0  0  0
 48126  1  0  0  0
 49 50  1  0  0  0
 49 53  1  0  0  0
 49 64  1  0  0  0
 49127  1  0  0  0
 50 51  1  0  0  0
 50128  1  0  0  0
 50129  1  0  0  0
 51 52  1  0  0  0
 51130  1  0  0  0
 51131  1  0  0  0
 52132  1  0  0  0
 52133  1  0  0  0
 53 54  1  0  0  0
 54 55  2  0  0  0
 54134  1  0  0  0
 55 57  1  0  0  0
 55135  1  0  0  0
 56 69  2  0  0  0
 57 58  2  0  0  0
 57136  1  0  0  0
 58137  1  0  0  0
 59 60  1  0  0  0
 59 61  1  0  0  0
 59 62  1  0  0  0
 60138  1  0  0  0
 60139  1  0  0  0
 60140  1  0  0  0
 61141  1  0  0  0
 61142  1  0  0  0
 61143  1  0  0  0
 62144  1  0  0  0
 62145  1  0  0  0
 62146  1  0  0  0
 63 65  1  0  0  0
 63147  1  0  0  0
 63148  1  0  0  0
 63149  1  0  0  0
 64150  1  0  0  0
 65151  1  0  0  0
 68 87  1  0  0  0
 71 74  2  0  0  0
 71 75  1  0  0  0
 71152  1  0  0  0
 72 74  1  0  0  0
 72 76  2  0  0  0
 72153  1  0  0  0
 73 75  2  0  0  0
 73 76  1  0  0  0
 73 81  1  0  0  0
 74 83  1  0  0  0
 75 91  1  0  0  0
 76 92  1  0  0  0
 77 79  1  0  0  0
 77 81  1  0  0  0
 77154  1  0  0  0
 77155  1  0  0  0
 78 80  1  0  0  0
 78 81  1  0  0  0
 78156  1  0  0  0
 78157  1  0  0  0
 79 82  1  0  0  0
 79158  1  0  0  0
 79159  1  0  0  0
 80 82  1  0  0  0
 80160  1  0  0  0
 80161  1  0  0  0
 81162  1  0  0  0
 82 90  1  0  0  0
 82163  1  0  0  0
 83 84  1  0  0  0
 83164  1  0  0  0
 83165  1  0  0  0
 84 86  1  0  0  0
 84166  1  0  0  0
 84167  1  0  0  0
 85 87  1  0  0  0
 85 88  1  0  0  0
 85168  1  0  0  0
 85169  1  0  0  0
 86 89  1  0  0  0
 86170  1  0  0  0
 86171  1  0  0  0
 87172  1  0  0  0
 87173  1  0  0  0
 88 90  1  0  0  0
 88174  1  0  0  0
 88175  1  0  0  0
 89176  1  0  0  0
M  ISO  4   1 100  68 101  87 101  89 100
M  END
> <chiral flag>
0

> <version>
0

> <s_m_source_file>
/data/baiqing/PycharmProjects/Reinvent-master-3.2/result/LINK_invent/BTK/process_docking_weight1_custom_sum_contain_oxygen_bond_distance_aromatic_linkinvent_7_9_3/rearranged_h_0032.sdf

> <i_m_source_file_index>
26

> <r_mmod_Potential_Energy-OPLS-2005>
11680.4267578125

> <r_mmod_Stretch_Energy-OPLS-2005>
4925.24462890625

> <r_mmod_Bend_Energy-OPLS-2005>
721.453491210938

> <r_mmod_Torsional_Energy-OPLS-2005>
617.278076171875

> <r_mmod_Improper_Torsional_Energy-OPLS-2005>
51.5444831848145

> <r_mmod_Van_der_Waal_Energy-OPLS-2005>
1886.79064941406

> <r_mmod_Electrostatic_Energy-OPLS-2005>
-382.9990234375

> <r_mmod_Solvation_Energy-OPLS-2005>
-196.638153076172

> <b_mmod_Minimization_Converged-OPLS-2005>
0

> <r_mmod_RMS_Derivative-OPLS-2005>
15.5599164962769

$$$$
26
                    3D
 Structure written by MMmdl.
155163  0  0  1  0            999 V2000
  -30.5583  -14.7035   20.5181 C   0  0  0  0  0  0
  -30.4534  -12.4356   19.4510 C   0  0  0  0  0  0
  -29.5133  -12.5163   18.2251 C   0  0  0  0  0  0
  -28.0385  -12.3243   18.6359 C   0  0  0  0  0  0
  -27.6499  -13.2033   19.8514 C   0  0  2  0  0  0
  -28.6945  -13.0734   20.9826 C   0  0  0  0  0  0
  -25.2584  -13.8137   20.5671 C   0  0  0  0  0  0
  -24.1840  -13.0428   20.9193 C   0  0  0  0  0  0
  -24.6390  -11.6891   20.8733 C   0  0  0  0  0  0
  -23.9060  -10.4289   21.0412 C   0  0  0  0  0  0
  -24.3621   -9.4207   21.9183 C   0  0  0  0  0  0
  -23.6302   -8.2242   22.0747 C   0  0  0  0  0  0
  -22.4285   -8.0283   21.3538 C   0  0  0  0  0  0
  -21.9914   -9.0259   20.4648 C   0  0  0  0  0  0
  -22.7236  -10.2137   20.3063 C   0  0  0  0  0  0
  -21.6851   -6.0749   22.5291 C   0  0  0  0  0  0
  -21.4009   -6.5649   23.8225 C   0  0  0  0  0  0
  -21.3650   -5.6795   24.9180 C   0  0  0  0  0  0
  -21.6048   -4.3062   24.7229 C   0  0  0  0  0  0
  -21.8817   -3.8161   23.4349 C   0  0  0  0  0  0
  -21.9195   -4.6981   22.3409 C   0  0  0  0  0  0
  -22.7868  -13.5237   21.1865 C   0  0  0  0  0  0
  -22.1663   -4.2170   21.0981 F   0  0  0  0  0  0
  -21.5630   -3.4540   25.7740 F   0  0  0  0  0  0
  -30.0041  -13.4475   20.4301 N   0  0  0  0  0  0
  -26.2977  -12.9281   20.3252 N   0  0  0  0  0  0
  -25.9306  -11.6458   20.5721 N   0  0  0  0  0  0
  -22.0511  -12.8230   22.0427 N   0  0  0  0  0  0
  -25.4331  -15.1855   20.4106 N   0  0  0  0  0  0
  -31.7108  -14.8990   20.1138 O   0  0  0  0  0  0
  -21.6639   -6.8887   21.4248 O   0  0  0  0  0  0
  -22.3559  -14.5550   20.6717 O   0  0  0  0  0  0
  -24.6279  -31.8566   23.1981 C   0  0  0  0  0  0
  -25.9121  -32.4755   23.8318 C   0  0  1  0  0  0
  -27.2343  -27.3017   20.1348 C   0  0  0  0  0  0
  -25.5928  -33.8554   24.2249 N   0  0  0  0  0  0
  -23.4237  -30.4761   21.5412 C   0  0  2  0  0  0
  -24.8745  -28.9209   20.1154 C   0  0  0  0  0  0
  -22.7489  -29.4596   22.4933 C   0  0  0  0  0  0
  -18.0290  -28.1388   22.8492 C   0  0  0  0  0  0
  -24.1492  -36.7282   23.2642 C   0  0  0  0  0  0
  -25.9647  -30.7831   21.3702 C   0  0  0  0  0  0
  -26.0421  -29.4060   20.7183 C   0  0  0  0  0  0
  -27.2267  -28.6099   20.7126 C   0  0  0  0  0  0
  -26.0456  -26.8638   19.5150 C   0  0  0  0  0  0
  -24.8788  -27.6549   19.5042 C   0  0  0  0  0  0
  -23.6418  -29.8033   20.1594 C   0  0  0  0  0  0
  -25.4118  -36.3065   24.0332 C   0  0  1  0  0  0
  -20.5894  -28.3684   23.1304 C   0  0  2  0  0  0
  -20.6778  -26.9398   22.5444 C   0  0  0  0  0  0
  -19.5755  -26.6378   21.5240 C   0  0  0  0  0  0
  -18.1926  -26.7934   22.1620 C   0  0  0  0  0  0
  -19.1543  -28.8851   23.2895 C   0  0  0  0  0  0
  -18.9463  -30.1455   23.8907 C   0  0  0  0  0  0
  -17.6460  -30.6583   24.0574 C   0  0  0  0  0  0
  -25.9062  -34.9437   23.5094 C   0  0  0  0  0  0
  -16.5353  -29.9081   23.6334 C   0  0  0  0  0  0
  -16.7279  -28.6507   23.0345 C   0  0  0  0  0  0
  -26.4509  -31.6571   25.0690 C   0  0  0  0  0  0
  -25.3755  -31.3747   26.1441 C   0  0  0  0  0  0
  -27.0323  -30.2985   24.6140 C   0  0  0  0  0  0
  -27.6076  -32.4314   25.7436 C   0  0  0  0  0  0
  -27.5590  -37.1778   24.8457 C   0  0  0  0  0  0
  -21.4199  -29.3023   22.3684 N   0  0  0  0  0  0
  -26.4286  -37.3766   23.9423 N   0  0  0  0  0  0
  -24.6910  -31.0559   22.0939 N   0  0  0  0  0  0
  -23.4201  -28.8149   23.3031 O   0  0  0  0  0  0
  -28.3559  -26.4577   20.1283 O   0  0  0  0  0  0
  -26.5616  -34.8913   22.4654 O   0  0  0  0  0  0
  -23.5443  -32.1362   23.7312 O   0  0  0  0  0  0
  -30.6768  -19.6102   21.3165 C   0  0  0  0  0  0
  -29.9330  -17.4668   20.8296 C   0  0  0  0  0  0
  -30.8326  -18.2742   21.5852 C   0  0  0  0  0  0
  -29.2567  -18.4232   20.0600 C   0  0  0  0  0  0
  -28.1889  -18.2026   19.0338 C   0  0  0  0  0  0
  -29.6488  -15.9176   21.0287 C   0  0  0  0  0  0
  -28.9412  -22.3817   20.6351 C   0  0  0  0  0  0
  -28.7328  -23.7960   19.8794 C   0  0  0  0  0  0
  -29.2242  -21.0705   19.7495 C   0  0  0  0  0  0
  -28.2397  -25.0864   20.6990 C   0  0  0  0  0  0
  -29.6648  -19.7546   20.3793 N   0  0  0  0  0  0
  -31.9290  -17.6563   22.7656 Cl  0  0  0  0  0  0
  -31.4873  -12.5991   19.1427 H   0  0  0  0  0  0
  -30.4260  -11.4389   19.8948 H   0  0  0  0  0  0
  -29.7946  -11.7681   17.4831 H   0  0  0  0  0  0
  -29.6328  -13.4854   17.7385 H   0  0  0  0  0  0
  -27.8949  -11.2703   18.8792 H   0  0  0  0  0  0
  -27.3802  -12.5326   17.7916 H   0  0  0  0  0  0
  -27.6549  -14.2266   19.4809 H   0  0  0  0  0  0
  -28.7241  -12.0496   21.3583 H   0  0  0  0  0  0
  -28.4209  -13.6916   21.8378 H   0  0  0  0  0  0
  -25.2776   -9.5688   22.4750 H   0  0  0  0  0  0
  -24.0025   -7.4634   22.7456 H   0  0  0  0  0  0
  -21.0847   -8.8776   19.8960 H   0  0  0  0  0  0
  -22.3694  -10.9682   19.6178 H   0  0  0  0  0  0
  -21.1985   -7.6153   23.9736 H   0  0  0  0  0  0
  -21.1472   -6.0521   25.9084 H   0  0  0  0  0  0
  -22.0603   -2.7624   23.2843 H   0  0  0  0  0  0
  -22.4115  -11.9883   22.4810 H   0  0  0  0  0  0
  -21.1138  -13.1266   22.2647 H   0  0  0  0  0  0
  -24.6715  -15.8434   20.5353 H   0  0  0  0  0  0
  -26.2891  -15.6272   20.1031 H   0  0  0  0  0  0
  -26.7183  -32.5431   23.1058 H   0  0  0  0  0  0
  -25.0102  -33.9686   25.0410 H   0  0  0  0  0  0
  -22.7185  -31.2964   21.3925 H   0  0  0  0  0  0
  -23.3765  -35.9600   23.3268 H   0  0  0  0  0  0
  -24.3594  -36.8947   22.2064 H   0  0  0  0  0  0
  -23.7228  -37.6463   23.6691 H   0  0  0  0  0  0
  -26.0922  -31.5427   20.5973 H   0  0  0  0  0  0
  -26.8463  -30.8371   21.9976 H   0  0  0  0  0  0
  -28.1266  -28.9824   21.1818 H   0  0  0  0  0  0
  -26.0200  -25.8924   19.0421 H   0  0  0  0  0  0
  -23.9844  -27.2762   19.0292 H   0  0  0  0  0  0
  -23.7623  -30.5762   19.3996 H   0  0  0  0  0  0
  -22.7625  -29.2321   19.8569 H   0  0  0  0  0  0
  -25.1298  -36.1904   25.0824 H   0  0  0  0  0  0
  -20.9985  -28.3269   24.1425 H   0  0  0  0  0  0
  -20.5686  -26.2288   23.3652 H   0  0  0  0  0  0
  -21.6648  -26.7425   22.1230 H   0  0  0  0  0  0
  -19.6920  -25.6292   21.1251 H   0  0  0  0  0  0
  -19.6716  -27.3209   20.6788 H   0  0  0  0  0  0
  -17.4221  -26.6733   21.3992 H   0  0  0  0  0  0
  -18.0271  -26.0064   22.8990 H   0  0  0  0  0  0
  -19.7941  -30.7281   24.2265 H   0  0  0  0  0  0
  -17.5007  -31.6257   24.5179 H   0  0  0  0  0  0
  -15.5350  -30.2980   23.7652 H   0  0  0  0  0  0
  -15.8683  -28.0833   22.7035 H   0  0  0  0  0  0
  -24.5907  -30.7110   25.7792 H   0  0  0  0  0  0
  -24.8981  -32.2935   26.4855 H   0  0  0  0  0  0
  -25.8091  -30.8933   27.0213 H   0  0  0  0  0  0
  -26.2858  -29.6736   24.1218 H   0  0  0  0  0  0
  -27.4074  -29.7250   25.4624 H   0  0  0  0  0  0
  -27.8718  -30.4250   23.9296 H   0  0  0  0  0  0
  -27.2680  -33.3616   26.1997 H   0  0  0  0  0  0
  -28.3869  -32.6876   25.0242 H   0  0  0  0  0  0
  -28.0755  -31.8455   26.5357 H   0  0  0  0  0  0
  -28.2589  -38.0086   24.7517 H   0  0  0  0  0  0
  -28.1097  -36.2623   24.6245 H   0  0  0  0  0  0
  -27.2321  -37.1398   25.8860 H   0  0  0  0  0  0
  -20.9380  -29.8735   21.6885 H   0  0  0  0  0  0
  -26.0172  -38.2834   24.1452 H   0  0  0  0  0  0
  -31.1901  -20.4742   21.7157 H   0  0  0  0  0  0
  -28.0741  -17.1448   18.7972 H   0  0  0  0  0  0
  -28.4289  -18.7157   18.1010 H   0  0  0  0  0  0
  -27.2248  -18.5728   19.3838 H   0  0  0  0  0  0
  -28.6486  -15.7725   20.6340 H   0  0  0  0  0  0
  -29.5424  -15.7718   22.1036 H   0  0  0  0  0  0
  -28.0590  -22.1859   21.2447 H   0  0  0  0  0  0
  -29.7574  -22.5016   21.3469 H   0  0  0  0  0  0
  -28.0272  -23.6447   19.0615 H   0  0  0  0  0  0
  -29.6778  -24.0484   19.3975 H   0  0  0  0  0  0
  -29.9915  -21.3263   19.0191 H   0  0  0  0  0  0
  -28.3268  -20.8800   19.1617 H   0  0  0  0  0  0
  -28.8273  -25.1177   21.6169 H   0  0  0  0  0  0
  -27.2181  -24.9094   21.0382 H   0  0  0  0  0  0
  1 25  1  0  0  0
  1 30  2  0  0  0
  1 76  1  0  0  0
  2  3  1  0  0  0
  2 25  1  0  0  0
  2 83  1  0  0  0
  2 84  1  0  0  0
  3  4  1  0  0  0
  3 85  1  0  0  0
  3 86  1  0  0  0
  4  5  1  0  0  0
  4 87  1  0  0  0
  4 88  1  0  0  0
  5  6  1  0  0  0
  5 26  1  0  0  0
  5 89  1  0  0  0
  6 25  1  0  0  0
  6 90  1  0  0  0
  6 91  1  0  0  0
  7  8  2  0  0  0
  7 26  1  0  0  0
  7 29  1  0  0  0
  8  9  1  0  0  0
  8 22  1  0  0  0
  9 10  1  0  0  0
  9 27  2  0  0  0
 10 11  2  0  0  0
 10 15  1  0  0  0
 11 12  1  0  0  0
 11 92  1  0  0  0
 12 13  2  0  0  0
 12 93  1  0  0  0
 13 14  1  0  0  0
 13 31  1  0  0  0
 14 15  2  0  0  0
 14 94  1  0  0  0
 15 95  1  0  0  0
 16 17  2  0  0  0
 16 21  1  0  0  0
 16 31  1  0  0  0
 17 18  1  0  0  0
 17 96  1  0  0  0
 18 19  2  0  0  0
 18 97  1  0  0  0
 19 20  1  0  0  0
 19 24  1  0  0  0
 20 21  2  0  0  0
 20 98  1  0  0  0
 21 23  1  0  0  0
 22 28  1  0  0  0
 22 32  2  0  0  0
 26 27  1  0  0  0
 28 99  1  0  0  0
 28100  1  0  0  0
 29101  1  0  0  0
 29102  1  0  0  0
 33 34  1  0  0  0
 33 66  1  0  0  0
 33 70  2  0  0  0
 34 36  1  0  0  0
 34 59  1  0  0  0
 34103  1  0  0  0
 35 44  2  0  0  0
 35 45  1  0  0  0
 35 68  1  0  0  0
 36 56  1  0  0  0
 36104  1  0  0  0
 37 39  1  0  0  0
 37 47  1  0  0  0
 37 66  1  0  0  0
 37105  1  0  0  0
 38 43  2  0  0  0
 38 46  1  0  0  0
 38 47  1  0  0  0
 39 64  1  0  0  0
 39 67  2  0  0  0
 40 52  1  0  0  0
 40 53  2  0  0  0
 40 58  1  0  0  0
 41106  1  0  0  0
 41107  1  0  0  0
 41108  1  0  0  0
 41 48  1  0  0  0
 42 43  1  0  0  0
 42 66  1  0  0  0
 42109  1  0  0  0
 42110  1  0  0  0
 43 44  1  0  0  0
 44111  1  0  0  0
 45 46  2  0  0  0
 45112  1  0  0  0
 46113  1  0  0  0
 47114  1  0  0  0
 47115  1  0  0  0
 48 56  1  0  0  0
 48 65  1  0  0  0
 48116  1  0  0  0
 49 50  1  0  0  0
 49 53  1  0  0  0
 49 64  1  0  0  0
 49117  1  0  0  0
 50 51  1  0  0  0
 50118  1  0  0  0
 50119  1  0  0  0
 51 52  1  0  0  0
 51120  1  0  0  0
 51121  1  0  0  0
 52122  1  0  0  0
 52123  1  0  0  0
 53 54  1  0  0  0
 54 55  2  0  0  0
 54124  1  0  0  0
 55 57  1  0  0  0
 55125  1  0  0  0
 56 69  2  0  0  0
 57 58  2  0  0  0
 57126  1  0  0  0
 58127  1  0  0  0
 59 60  1  0  0  0
 59 61  1  0  0  0
 59 62  1  0  0  0
 60128  1  0  0  0
 60129  1  0  0  0
 60130  1  0  0  0
 61131  1  0  0  0
 61132  1  0  0  0
 61133  1  0  0  0
 62134  1  0  0  0
 62135  1  0  0  0
 62136  1  0  0  0
 63 65  1  0  0  0
 63137  1  0  0  0
 63138  1  0  0  0
 63139  1  0  0  0
 64140  1  0  0  0
 65141  1  0  0  0
 68 80  1  0  0  0
 71 73  2  0  0  0
 71 81  1  0  0  0
 71142  1  0  0  0
 72 73  1  0  0  0
 72 74  2  0  0  0
 72 76  1  0  0  0
 73 82  1  0  0  0
 74 75  1  0  0  0
 74 81  1  0  0  0
 75143  1  0  0  0
 75144  1  0  0  0
 75145  1  0  0  0
 76146  1  0  0  0
 76147  1  0  0  0
 77 78  1  0  0  0
 77 79  1  0  0  0
 77148  1  0  0  0
 77149  1  0  0  0
 78 80  1  0  0  0
 78150  1  0  0  0
 78151  1  0  0  0
 79 81  1  0  0  0
 79152  1  0  0  0
 79153  1  0  0  0
 80154  1  0  0  0
 80155  1  0  0  0
M  ISO  4   1 100  68 101  76 100  80 101
M  END
> <chiral flag>
0

> <version>
0

> <s_m_source_file>
/data/baiqing/PycharmProjects/Reinvent-master-3.2/result/LINK_invent/BTK/process_docking_weight1_custom_sum_contain_oxygen_bond_distance_aromatic_linkinvent_7_9_3/rearranged_h_0032.sdf

> <i_m_source_file_index>
27

> <r_mmod_Potential_Energy-OPLS-2005>
134.480331420898

> <r_mmod_Stretch_Energy-OPLS-2005>
101.988426208496

> <r_mmod_Bend_Energy-OPLS-2005>
164.969039916992

> <r_mmod_Torsional_Energy-OPLS-2005>
207.287643432617

> <r_mmod_Improper_Torsional_Energy-OPLS-2005>
4.71661615371704

> <r_mmod_Van_der_Waal_Energy-OPLS-2005>
107.250381469727

> <r_mmod_Electrostatic_Energy-OPLS-2005>
-310.337219238281

> <r_mmod_Solvation_Energy-OPLS-2005>
-204.976089477539

> <b_mmod_Minimization_Converged-OPLS-2005>
0

> <r_mmod_RMS_Derivative-OPLS-2005>
1.68509387969971

$$$$
27
                    3D
 Structure written by MMmdl.
178186  0  0  1  0            999 V2000
  -30.2960  -15.1877   20.5545 C   0  0  0  0  0  0
  -30.4388  -12.7829   19.5591 C   0  0  0  0  0  0
  -29.5439  -12.5834   18.3049 C   0  0  0  0  0  0
  -28.0846  -12.3028   18.7090 C   0  0  0  0  0  0
  -27.6101  -13.2519   19.8380 C   0  0  2  0  0  0
  -28.6081  -13.3336   21.0052 C   0  0  0  0  0  0
  -25.2400  -13.8241   20.5692 C   0  0  0  0  0  0
  -24.1725  -13.0476   20.9213 C   0  0  0  0  0  0
  -24.6329  -11.6948   20.8729 C   0  0  0  0  0  0
  -23.9035  -10.4330   21.0421 C   0  0  0  0  0  0
  -24.3608   -9.4266   21.9202 C   0  0  0  0  0  0
  -23.6298   -8.2298   22.0772 C   0  0  0  0  0  0
  -22.4276   -8.0318   21.3583 C   0  0  0  0  0  0
  -21.9899   -9.0279   20.4683 C   0  0  0  0  0  0
  -22.7210  -10.2161   20.3084 C   0  0  0  0  0  0
  -21.6859   -6.0755   22.5292 C   0  0  0  0  0  0
  -21.4010   -6.5651   23.8222 C   0  0  0  0  0  0
  -21.3638   -5.6801   24.9179 C   0  0  0  0  0  0
  -21.6032   -4.3065   24.7231 C   0  0  0  0  0  0
  -21.8823   -3.8163   23.4352 C   0  0  0  0  0  0
  -21.9204   -4.6984   22.3411 C   0  0  0  0  0  0
  -22.7772  -13.5286   21.1881 C   0  0  0  0  0  0
  -22.1677   -4.2165   21.0990 F   0  0  0  0  0  0
  -21.5613   -3.4538   25.7736 F   0  0  0  0  0  0
  -29.8470  -13.8582   20.4408 N   0  0  0  0  0  0
  -26.2737  -12.9428   20.3131 N   0  0  0  0  0  0
  -25.9229  -11.6558   20.5629 N   0  0  0  0  0  0
  -22.0371  -12.8307   22.0407 N   0  0  0  0  0  0
  -25.4153  -15.1965   20.4196 N   0  0  0  0  0  0
  -31.4920  -15.3298   20.2368 O   0  0  0  0  0  0
  -21.6645   -6.8911   21.4269 O   0  0  0  0  0  0
  -22.3522  -14.5613   20.6725 O   0  0  0  0  0  0
  -24.5491  -31.9956   23.4023 C   0  0  0  0  0  0
  -25.8421  -32.6202   24.0911 C   0  0  1  0  0  0
  -27.5206  -26.8611   19.3284 C   0  0  0  0  0  0
  -25.4956  -33.9997   24.3428 N   0  0  0  0  0  0
  -23.4141  -30.2935   21.5860 C   0  0  2  0  0  0
  -25.1265  -28.0482   19.8070 C   0  0  0  0  0  0
  -22.5745  -29.5451   22.6315 C   0  0  0  0  0  0
  -17.9787  -28.1346   22.8380 C   0  0  0  0  0  0
  -24.1455  -36.8101   23.2366 C   0  0  0  0  0  0
  -26.3176  -30.6409   22.3495 C   0  0  0  0  0  0
  -26.6201  -28.3302   20.5151 C   0  0  0  0  0  0
  -27.5916  -27.4200   20.4908 C   0  0  0  0  0  0
  -26.3228  -26.4745   18.6745 C   0  0  0  0  0  0
  -25.0685  -27.0200   18.9532 C   0  0  0  0  0  0
  -23.5944  -28.9662   20.2578 C   0  0  0  0  0  0
  -25.3928  -36.4025   24.0318 C   0  0  1  0  0  0
  -20.5080  -28.3590   23.1366 C   0  0  2  0  0  0
  -20.6206  -26.9279   22.5646 C   0  0  0  0  0  0
  -19.5415  -26.6123   21.5269 C   0  0  0  0  0  0
  -18.1496  -26.7888   22.1459 C   0  0  0  0  0  0
  -19.0949  -28.8770   23.2929 C   0  0  0  0  0  0
  -18.9090  -30.1355   23.9013 C   0  0  0  0  0  0
  -17.6163  -30.6599   24.0567 C   0  0  0  0  0  0
  -25.8592  -35.0224   23.5617 C   0  0  0  0  0  0
  -16.5015  -29.9194   23.6215 C   0  0  0  0  0  0
  -16.6845  -28.6588   23.0202 C   0  0  0  0  0  0
  -26.4566  -31.8839   25.3730 C   0  0  0  0  0  0
  -25.3539  -31.4532   26.3409 C   0  0  0  0  0  0
  -27.4319  -30.6864   25.2191 C   0  0  0  0  0  0
  -27.4528  -32.8563   26.0333 C   0  0  0  0  0  0
  -27.5614  -37.2016   24.8430 C   0  0  0  0  0  0
  -21.3020  -29.2934   22.3550 N   0  0  0  0  0  0
  -26.4452  -37.4360   23.9289 N   0  0  0  0  0  0
  -24.6963  -31.0941   22.4281 N   0  0  0  0  0  0
  -23.1080  -29.0523   23.6277 O   0  0  0  0  0  0
  -28.5328  -27.5175   18.7351 O   0  0  0  0  0  0
  -26.5347  -34.9091   22.5299 O   0  0  0  0  0  0
  -23.4326  -32.3295   23.7832 O   0  0  0  0  0  0
  -28.3509  -29.9777   21.2129 C   0  0  0  0  0  0
  -25.6090  -30.2648   20.3590 C   0  0  0  0  0  0
  -27.2683  -30.5359   20.1266 C   0  0  0  0  0  0
  -28.0878  -29.0202   22.5055 C   0  0  0  0  0  0
  -25.2566  -28.6913   22.1557 C   0  0  0  0  0  0
  -26.6671  -28.3702   22.9692 C   0  0  0  0  0  0
  -29.7858  -27.2169   23.3309 C   0  0  0  0  0  0
  -25.6488  -27.6289   25.0635 C   0  0  0  0  0  0
  -27.9015  -30.3079   18.7114 C   0  0  0  0  0  0
  -29.3237  -28.6806   23.3525 C   0  0  0  0  0  0
  -24.8901  -26.9030   22.1535 C   0  0  0  0  0  0
  -25.9628  -25.4116   22.3193 C   0  0  0  0  0  0
  -26.3617  -23.8782   21.4520 C   0  0  0  0  0  0
  -27.0502  -22.2857   21.9598 C   0  0  0  0  0  0
  -27.8840  -20.9320   21.1063 C   0  0  0  0  0  0
  -28.2046  -19.1965   21.4720 C   0  0  0  0  0  0
  -29.3498  -17.9769   20.8115 C   0  0  0  0  0  0
  -28.0986  -28.8050   18.0680 C   0  0  0  0  0  0
  -29.3874  -16.3160   20.8658 N   0  0  0  0  0  0
  -26.7188  -27.5801   24.1106 O   0  0  0  0  0  0
  -31.4551  -13.0375   19.2481 H   0  0  0  0  0  0
  -30.5258  -11.8489   20.1137 H   0  0  0  0  0  0
  -29.9175  -11.7663   17.6884 H   0  0  0  0  0  0
  -29.5773  -13.4734   17.6779 H   0  0  0  0  0  0
  -28.0373  -11.2691   19.0538 H   0  0  0  0  0  0
  -27.4248  -12.3644   17.8434 H   0  0  0  0  0  0
  -27.5577  -14.2392   19.3745 H   0  0  0  0  0  0
  -28.7582  -12.3689   21.4922 H   0  0  0  0  0  0
  -28.2348  -14.0159   21.7749 H   0  0  0  0  0  0
  -25.2747   -9.5743   22.4782 H   0  0  0  0  0  0
  -24.0001   -7.4697   22.7481 H   0  0  0  0  0  0
  -21.0828   -8.8799   19.8996 H   0  0  0  0  0  0
  -22.3671  -10.9702   19.6201 H   0  0  0  0  0  0
  -21.2004   -7.6153   23.9732 H   0  0  0  0  0  0
  -21.1438   -6.0522   25.9076 H   0  0  0  0  0  0
  -22.0614   -2.7624   23.2840 H   0  0  0  0  0  0
  -22.3901  -11.9975   22.4864 H   0  0  0  0  0  0
  -21.1005  -13.1407   22.2548 H   0  0  0  0  0  0
  -24.6491  -15.8509   20.5389 H   0  0  0  0  0  0
  -26.2551  -15.6339   20.0670 H   0  0  0  0  0  0
  -26.7267  -32.7735   23.4986 H   0  0  0  0  0  0
  -24.8900  -34.1824   25.1288 H   0  0  0  0  0  0
  -22.7822  -31.0843   21.1868 H   0  0  0  0  0  0
  -23.3600  -36.0604   23.3248 H   0  0  0  0  0  0
  -24.3609  -36.9280   22.1739 H   0  0  0  0  0  0
  -23.7293  -37.7501   23.5982 H   0  0  0  0  0  0
  -26.8934  -31.5367   22.1217 H   0  0  0  0  0  0
  -26.3510  -30.4842   23.3620 H   0  0  0  0  0  0
  -28.5832  -27.4843   20.9108 H   0  0  0  0  0  0
  -26.4051  -25.8750   17.7756 H   0  0  0  0  0  0
  -24.1677  -26.7448   18.4175 H   0  0  0  0  0  0
  -23.2358  -29.3965   19.3264 H   0  0  0  0  0  0
  -22.8454  -28.1976   20.4391 H   0  0  0  0  0  0
  -25.0891  -36.3355   25.0813 H   0  0  0  0  0  0
  -20.8805  -28.3140   24.1620 H   0  0  0  0  0  0
  -20.4845  -26.2308   23.3928 H   0  0  0  0  0  0
  -21.6216  -26.7222   22.1856 H   0  0  0  0  0  0
  -19.6569  -25.5905   21.1623 H   0  0  0  0  0  0
  -19.6565  -27.2707   20.6636 H   0  0  0  0  0  0
  -17.3895  -26.6847   21.3698 H   0  0  0  0  0  0
  -17.9601  -26.0020   22.8804 H   0  0  0  0  0  0
  -19.7632  -30.7025   24.2516 H   0  0  0  0  0  0
  -17.4736  -31.6271   24.5180 H   0  0  0  0  0  0
  -15.5022  -30.3160   23.7489 H   0  0  0  0  0  0
  -15.8193  -28.1006   22.6864 H   0  0  0  0  0  0
  -24.5523  -30.9039   25.8468 H   0  0  0  0  0  0
  -24.9183  -32.3335   26.8162 H   0  0  0  0  0  0
  -25.7365  -30.8092   27.1337 H   0  0  0  0  0  0
  -26.9537  -29.7352   25.1164 H   0  0  0  0  0  0
  -28.0582  -30.5305   26.1007 H   0  0  0  0  0  0
  -28.1509  -30.8818   24.4259 H   0  0  0  0  0  0
  -26.9569  -33.7664   26.3712 H   0  0  0  0  0  0
  -28.2446  -33.1767   25.3528 H   0  0  0  0  0  0
  -27.9273  -32.4599   26.9325 H   0  0  0  0  0  0
  -28.2864  -38.0117   24.7590 H   0  0  0  0  0  0
  -28.0900  -36.2711   24.6272 H   0  0  0  0  0  0
  -27.2263  -37.1711   25.8816 H   0  0  0  0  0  0
  -20.8827  -29.6904   21.5267 H   0  0  0  0  0  0
  -26.0648  -38.3601   24.1241 H   0  0  0  0  0  0
  -29.3941  -30.1493   20.9724 H   0  0  0  0  0  0
  -25.0229  -30.5440   19.4901 H   0  0  0  0  0  0
  -30.6245  -27.0818   24.0140 H   0  0  0  0  0  0
  -30.1220  -26.8898   22.3503 H   0  0  0  0  0  0
  -28.9995  -26.5473   23.6697 H   0  0  0  0  0  0
  -26.0823  -27.5121   26.0587 H   0  0  0  0  0  0
  -24.9376  -26.8069   24.9612 H   0  0  0  0  0  0
  -25.1215  -28.5857   25.0772 H   0  0  0  0  0  0
  -28.8913  -30.7607   18.7584 H   0  0  0  0  0  0
  -27.3436  -30.9210   18.0049 H   0  0  0  0  0  0
  -29.1247  -28.9179   24.3975 H   0  0  0  0  0  0
  -30.1549  -29.3205   23.0494 H   0  0  0  0  0  0
  -24.1358  -26.6147   21.4216 H   0  0  0  0  0  0
  -24.2210  -26.8298   23.0024 H   0  0  0  0  0  0
  -25.5844  -25.0102   23.2603 H   0  0  0  0  0  0
  -26.9579  -25.7652   22.5794 H   0  0  0  0  0  0
  -27.0197  -24.1939   20.6394 H   0  0  0  0  0  0
  -25.4378  -23.6137   20.9367 H   0  0  0  0  0  0
  -26.2259  -21.7957   22.4847 H   0  0  0  0  0  0
  -27.7453  -22.5395   22.7628 H   0  0  0  0  0  0
  -28.8729  -21.3374   20.8973 H   0  0  0  0  0  0
  -27.4202  -20.9060   20.1198 H   0  0  0  0  0  0
  -27.2315  -18.7237   21.3564 H   0  0  0  0  0  0
  -28.3681  -19.1721   22.5528 H   0  0  0  0  0  0
  -30.3286  -18.2755   21.1945 H   0  0  0  0  0  0
  -29.4160  -18.1870   19.7447 H   0  0  0  0  0  0
  -28.8101  -28.9293   17.2510 H   0  0  0  0  0  0
  -27.1609  -28.5983   17.5480 H   0  0  0  0  0  0
  -28.4752  -15.9394   21.0857 H   0  0  0  0  0  0
  1 25  1  0  0  0
  1 30  2  0  0  0
  1 89  1  0  0  0
  2  3  1  0  0  0
  2 25  1  0  0  0
  2 91  1  0  0  0
  2 92  1  0  0  0
  3  4  1  0  0  0
  3 93  1  0  0  0
  3 94  1  0  0  0
  4  5  1  0  0  0
  4 95  1  0  0  0
  4 96  1  0  0  0
  5  6  1  0  0  0
  5 26  1  0  0  0
  5 97  1  0  0  0
  6 25  1  0  0  0
  6 98  1  0  0  0
  6 99  1  0  0  0
  7  8  2  0  0  0
  7 26  1  0  0  0
  7 29  1  0  0  0
  8  9  1  0  0  0
  8 22  1  0  0  0
  9 10  1  0  0  0
  9 27  2  0  0  0
 10 11  2  0  0  0
 10 15  1  0  0  0
 11 12  1  0  0  0
 11100  1  0  0  0
 12 13  2  0  0  0
 12101  1  0  0  0
 13 14  1  0  0  0
 13 31  1  0  0  0
 14 15  2  0  0  0
 14102  1  0  0  0
 15103  1  0  0  0
 16 17  2  0  0  0
 16 21  1  0  0  0
 16 31  1  0  0  0
 17 18  1  0  0  0
 17104  1  0  0  0
 18 19  2  0  0  0
 18105  1  0  0  0
 19 20  1  0  0  0
 19 24  1  0  0  0
 20 21  2  0  0  0
 20106  1  0  0  0
 21 23  1  0  0  0
 22 28  1  0  0  0
 22 32  2  0  0  0
 26 27  1  0  0  0
 28107  1  0  0  0
 28108  1  0  0  0
 29109  1  0  0  0
 29110  1  0  0  0
 33 34  1  0  0  0
 33 66  1  0  0  0
 33 70  2  0  0  0
 34 36  1  0  0  0
 34 59  1  0  0  0
 34111  1  0  0  0
 35 44  2  0  0  0
 35 45  1  0  0  0
 35 68  1  0  0  0
 36 56  1  0  0  0
 36112  1  0  0  0
 37 39  1  0  0  0
 37 47  1  0  0  0
 37 66  1  0  0  0
 37113  1  0  0  0
 38 43  2  0  0  0
 38 46  1  0  0  0
 38 47  1  0  0  0
 39 64  1  0  0  0
 39 67  2  0  0  0
 40 52  1  0  0  0
 40 53  2  0  0  0
 40 58  1  0  0  0
 41114  1  0  0  0
 41115  1  0  0  0
 41116  1  0  0  0
 41 48  1  0  0  0
 42 43  1  0  0  0
 42 66  1  0  0  0
 42117  1  0  0  0
 42118  1  0  0  0
 43 44  1  0  0  0
 44119  1  0  0  0
 45 46  2  0  0  0
 45120  1  0  0  0
 46121  1  0  0  0
 47122  1  0  0  0
 47123  1  0  0  0
 48 56  1  0  0  0
 48 65  1  0  0  0
 48124  1  0  0  0
 49 50  1  0  0  0
 49 53  1  0  0  0
 49 64  1  0  0  0
 49125  1  0  0  0
 50 51  1  0  0  0
 50126  1  0  0  0
 50127  1  0  0  0
 51 52  1  0  0  0
 51128  1  0  0  0
 51129  1  0  0  0
 52130  1  0  0  0
 52131  1  0  0  0
 53 54  1  0  0  0
 54 55  2  0  0  0
 54132  1  0  0  0
 55 57  1  0  0  0
 55133  1  0  0  0
 56 69  2  0  0  0
 57 58  2  0  0  0
 57134  1  0  0  0
 58135  1  0  0  0
 59 60  1  0  0  0
 59 61  1  0  0  0
 59 62  1  0  0  0
 60136  1  0  0  0
 60137  1  0  0  0
 60138  1  0  0  0
 61139  1  0  0  0
 61140  1  0  0  0
 61141  1  0  0  0
 62142  1  0  0  0
 62143  1  0  0  0
 62144  1  0  0  0
 63 65  1  0  0  0
 63145  1  0  0  0
 63146  1  0  0  0
 63147  1  0  0  0
 64148  1  0  0  0
 65149  1  0  0  0
 68 88  1  0  0  0
 71 73  2  0  0  0
 71 74  1  0  0  0
 71150  1  0  0  0
 72 73  1  0  0  0
 72 75  2  0  0  0
 72151  1  0  0  0
 73 79  1  0  0  0
 74 76  2  0  0  0
 74 80  1  0  0  0
 75 76  1  0  0  0
 75 81  1  0  0  0
 76 90  1  0  0  0
 77 80  1  0  0  0
 77152  1  0  0  0
 77153  1  0  0  0
 77154  1  0  0  0
 78 90  1  0  0  0
 78155  1  0  0  0
 78156  1  0  0  0
 78157  1  0  0  0
 79 88  1  0  0  0
 79158  1  0  0  0
 79159  1  0  0  0
 80160  1  0  0  0
 80161  1  0  0  0
 81 82  1  0  0  0
 81162  1  0  0  0
 81163  1  0  0  0
 82 83  1  0  0  0
 82164  1  0  0  0
 82165  1  0  0  0
 83 84  1  0  0  0
 83166  1  0  0  0
 83167  1  0  0  0
 84 85  1  0  0  0
 84168  1  0  0  0
 84169  1  0  0  0
 85 86  1  0  0  0
 85170  1  0  0  0
 85171  1  0  0  0
 86 87  1  0  0  0
 86172  1  0  0  0
 86173  1  0  0  0
 87 89  1  0  0  0
 87174  1  0  0  0
 87175  1  0  0  0
 88176  1  0  0  0
 88177  1  0  0  0
 89178  1  0  0  0
M  ISO  4   1 100  68 101  88 101  89 100
M  END
> <chiral flag>
0

> <version>
0

> <s_m_source_file>
/data/baiqing/PycharmProjects/Reinvent-master-3.2/result/LINK_invent/BTK/process_docking_weight1_custom_sum_contain_oxygen_bond_distance_aromatic_linkinvent_7_9_3/rearranged_h_0032.sdf

> <i_m_source_file_index>
28

> <r_mmod_Potential_Energy-OPLS-2005>
13059.7158203125

> <r_mmod_Stretch_Energy-OPLS-2005>
6978.353515625

> <r_mmod_Bend_Energy-OPLS-2005>
927.080749511719

> <r_mmod_Torsional_Energy-OPLS-2005>
570.379028320312

> <r_mmod_Improper_Torsional_Energy-OPLS-2005>
67.1484680175781

> <r_mmod_Van_der_Waal_Energy-OPLS-2005>
3445.54272460938

> <r_mmod_Electrostatic_Energy-OPLS-2005>
-377.333099365234

> <r_mmod_Solvation_Energy-OPLS-2005>
-193.268447875977

> <b_mmod_Minimization_Converged-OPLS-2005>
0

> <r_mmod_RMS_Derivative-OPLS-2005>
11.4723777770996

$$$$
28
                    3D
 Structure written by MMmdl.
159168  0  0  1  0            999 V2000
  -30.6831  -14.6748   20.3696 C   0  0  0  0  0  0
  -30.4233  -12.3728   19.4810 C   0  0  0  0  0  0
  -29.5014  -12.3431   18.2427 C   0  0  0  0  0  0
  -28.0108  -12.2858   18.6449 C   0  0  0  0  0  0
  -27.6276  -13.1948   19.8464 C   0  0  2  0  0  0
  -28.6921  -13.1861   20.9646 C   0  0  0  0  0  0
  -25.2512  -13.8101   20.5758 C   0  0  0  0  0  0
  -24.1755  -13.0397   20.9231 C   0  0  0  0  0  0
  -24.6322  -11.6863   20.8833 C   0  0  0  0  0  0
  -23.9019  -10.4257   21.0482 C   0  0  0  0  0  0
  -24.3586   -9.4159   21.9240 C   0  0  0  0  0  0
  -23.6267   -8.2196   22.0763 C   0  0  0  0  0  0
  -22.4254   -8.0262   21.3536 C   0  0  0  0  0  0
  -21.9902   -9.0238   20.4637 C   0  0  0  0  0  0
  -22.7226  -10.2120   20.3091 C   0  0  0  0  0  0
  -21.6821   -6.0749   22.5289 C   0  0  0  0  0  0
  -21.3989   -6.5654   23.8228 C   0  0  0  0  0  0
  -21.3645   -5.6800   24.9188 C   0  0  0  0  0  0
  -21.6035   -4.3068   24.7234 C   0  0  0  0  0  0
  -21.8811   -3.8168   23.4356 C   0  0  0  0  0  0
  -21.9173   -4.6980   22.3412 C   0  0  0  0  0  0
  -22.7793  -13.5212   21.1872 C   0  0  0  0  0  0
  -22.1643   -4.2175   21.0988 F   0  0  0  0  0  0
  -21.5629   -3.4544   25.7742 F   0  0  0  0  0  0
  -29.9882  -13.4879   20.3433 N   0  0  0  0  0  0
  -26.2881  -12.9209   20.3417 N   0  0  0  0  0  0
  -25.9238  -11.6406   20.5916 N   0  0  0  0  0  0
  -22.0453  -12.8184   22.0433 N   0  0  0  0  0  0
  -25.4298  -15.1829   20.4162 N   0  0  0  0  0  0
  -31.9112  -14.6666   20.2777 O   0  0  0  0  0  0
  -21.6606   -6.8871   21.4239 O   0  0  0  0  0  0
  -22.3485  -14.5521   20.6731 O   0  0  0  0  0  0
  -24.6205  -31.8636   23.2079 C   0  0  0  0  0  0
  -25.9059  -32.4806   23.8411 C   0  0  1  0  0  0
  -27.2228  -27.3616   20.1154 C   0  0  0  0  0  0
  -25.5896  -33.8614   24.2339 N   0  0  0  0  0  0
  -23.4148  -30.4877   21.5480 C   0  0  2  0  0  0
  -24.8652  -28.9563   20.1061 C   0  0  0  0  0  0
  -22.7461  -29.4627   22.4946 C   0  0  0  0  0  0
  -18.0276  -28.1365   22.8486 C   0  0  0  0  0  0
  -24.1481  -36.7310   23.2641 C   0  0  0  0  0  0
  -25.9530  -30.8076   21.3749 C   0  0  0  0  0  0
  -26.0311  -29.4397   20.7158 C   0  0  0  0  0  0
  -27.2162  -28.6514   20.7190 C   0  0  0  0  0  0
  -26.0472  -26.9345   19.4601 C   0  0  0  0  0  0
  -24.8727  -27.7058   19.4699 C   0  0  0  0  0  0
  -23.6284  -29.8271   20.1612 C   0  0  0  0  0  0
  -25.4103  -36.3120   24.0350 C   0  0  1  0  0  0
  -20.5875  -28.3667   23.1293 C   0  0  2  0  0  0
  -20.6771  -26.9395   22.5409 C   0  0  0  0  0  0
  -19.5751  -26.6369   21.5209 C   0  0  0  0  0  0
  -18.1926  -26.7909   22.1616 C   0  0  0  0  0  0
  -19.1528  -28.8832   23.2883 C   0  0  0  0  0  0
  -18.9463  -30.1433   23.8898 C   0  0  0  0  0  0
  -17.6470  -30.6577   24.0557 C   0  0  0  0  0  0
  -25.9037  -34.9471   23.5147 C   0  0  0  0  0  0
  -16.5358  -29.9078   23.6322 C   0  0  0  0  0  0
  -16.7269  -28.6489   23.0352 C   0  0  0  0  0  0
  -26.4460  -31.6602   25.0760 C   0  0  0  0  0  0
  -25.3709  -31.3714   26.1503 C   0  0  0  0  0  0
  -27.0301  -30.3037   24.6169 C   0  0  0  0  0  0
  -27.6052  -32.4317   25.7511 C   0  0  0  0  0  0
  -27.5580  -37.1809   24.8463 C   0  0  0  0  0  0
  -21.4174  -29.3038   22.3704 N   0  0  0  0  0  0
  -26.4291  -37.3804   23.9414 N   0  0  0  0  0  0
  -24.6814  -31.0686   22.1004 N   0  0  0  0  0  0
  -23.4200  -28.8141   23.2999 O   0  0  0  0  0  0
  -28.2991  -26.4780   20.1861 O   0  0  0  0  0  0
  -26.5604  -34.8920   22.4712 O   0  0  0  0  0  0
  -23.5378  -32.1411   23.7423 O   0  0  0  0  0  0
  -30.2732  -22.1953   21.6951 C   0  0  0  0  0  0
  -28.4828  -23.0056   19.7229 C   0  0  0  0  0  0
  -29.9407  -21.2474   20.6923 C   0  0  0  0  0  0
  -28.7896  -23.9361   20.7504 C   0  0  0  0  0  0
  -29.0487  -21.6981   19.6801 C   0  0  0  0  0  0
  -29.7196  -23.5041   21.7322 C   0  0  0  0  0  0
  -29.9757  -18.4784   20.7154 C   0  0  0  0  0  0
  -29.8026  -17.0600   18.0151 C   0  0  0  0  0  0
  -31.1236  -17.3879   18.6819 C   0  0  0  0  0  0
  -29.2280  -15.9544   18.9058 C   0  0  0  0  0  0
  -30.7555  -17.1982   20.1568 C   0  0  2  0  0  0
  -30.7007  -19.8747   20.6557 C   0  0  0  0  0  0
  -27.9593  -25.2483   20.9157 C   0  0  0  0  0  0
  -30.0114  -15.8748   20.1636 N   0  0  0  0  0  0
  -28.8349  -18.4020   21.1787 O   0  0  0  0  0  0
  -28.6462  -20.6736   18.3507 Cl  0  0  0  0  0  0
  -30.1870  -24.5481   23.0286 Cl  0  0  0  0  0  0
  -31.4648  -12.4650   19.1672 H   0  0  0  0  0  0
  -30.3625  -11.4333   20.0329 H   0  0  0  0  0  0
  -29.7382  -11.4609   17.6455 H   0  0  0  0  0  0
  -29.7042  -13.1801   17.5804 H   0  0  0  0  0  0
  -27.7882  -11.2472   18.8914 H   0  0  0  0  0  0
  -27.3842  -12.5249   17.7848 H   0  0  0  0  0  0
  -27.5617  -14.1911   19.4436 H   0  0  0  0  0  0
  -28.7213  -12.2136   21.4579 H   0  0  0  0  0  0
  -28.4529  -13.9205   21.7355 H   0  0  0  0  0  0
  -25.2733   -9.5613   22.4826 H   0  0  0  0  0  0
  -23.9967   -7.4550   22.7457 H   0  0  0  0  0  0
  -21.0859   -8.8758   19.8905 H   0  0  0  0  0  0
  -22.3721  -10.9672   19.6203 H   0  0  0  0  0  0
  -21.1979   -7.6161   23.9743 H   0  0  0  0  0  0
  -21.1470   -6.0540   25.9088 H   0  0  0  0  0  0
  -22.0604   -2.7640   23.2855 H   0  0  0  0  0  0
  -22.4075  -11.9800   22.4727 H   0  0  0  0  0  0
  -21.1095  -13.1207   22.2709 H   0  0  0  0  0  0
  -24.6767  -15.8523   20.5260 H   0  0  0  0  0  0
  -26.3072  -15.6157   20.1577 H   0  0  0  0  0  0
  -26.7134  -32.5497   23.1180 H   0  0  0  0  0  0
  -25.0058  -33.9789   25.0491 H   0  0  0  0  0  0
  -22.7048  -31.3050   21.4070 H   0  0  0  0  0  0
  -23.3760  -35.9626   23.3296 H   0  0  0  0  0  0
  -24.3588  -36.8932   22.2059 H   0  0  0  0  0  0
  -23.7214  -37.6503   23.6660 H   0  0  0  0  0  0
  -26.0777  -31.5722   20.6069 H   0  0  0  0  0  0
  -26.8349  -30.8583   22.0018 H   0  0  0  0  0  0
  -28.1036  -29.0084   21.2219 H   0  0  0  0  0  0
  -26.0248  -25.9763   18.9607 H   0  0  0  0  0  0
  -23.9817  -27.3314   18.9848 H   0  0  0  0  0  0
  -23.7355  -30.6046   19.4038 H   0  0  0  0  0  0
  -22.7517  -29.2485   19.8650 H   0  0  0  0  0  0
  -25.1273  -36.2002   25.0847 H   0  0  0  0  0  0
  -20.9966  -28.3236   24.1416 H   0  0  0  0  0  0
  -20.5668  -26.2281   23.3604 H   0  0  0  0  0  0
  -21.6644  -26.7421   22.1211 H   0  0  0  0  0  0
  -19.6925  -25.6282   21.1230 H   0  0  0  0  0  0
  -19.6698  -27.3184   20.6747 H   0  0  0  0  0  0
  -17.4202  -26.6656   21.4006 H   0  0  0  0  0  0
  -18.0321  -26.0035   22.8999 H   0  0  0  0  0  0
  -19.7948  -30.7233   24.2279 H   0  0  0  0  0  0
  -17.5033  -31.6262   24.5149 H   0  0  0  0  0  0
  -15.5362  -30.2991   23.7646 H   0  0  0  0  0  0
  -15.8658  -28.0816   22.7075 H   0  0  0  0  0  0
  -24.5914  -30.7013   25.7858 H   0  0  0  0  0  0
  -24.8840  -32.2851   26.4922 H   0  0  0  0  0  0
  -25.8047  -30.8929   27.0288 H   0  0  0  0  0  0
  -26.2871  -29.6805   24.1173 H   0  0  0  0  0  0
  -27.4009  -29.7278   25.4658 H   0  0  0  0  0  0
  -27.8730  -30.4362   23.9384 H   0  0  0  0  0  0
  -27.2721  -33.3667   26.2029 H   0  0  0  0  0  0
  -28.3878  -32.6781   25.0323 H   0  0  0  0  0  0
  -28.0674  -31.8449   26.5457 H   0  0  0  0  0  0
  -28.2596  -38.0106   24.7536 H   0  0  0  0  0  0
  -28.1077  -36.2646   24.6262 H   0  0  0  0  0  0
  -27.2302  -37.1434   25.8864 H   0  0  0  0  0  0
  -20.9338  -29.8813   21.6966 H   0  0  0  0  0  0
  -26.0183  -38.2884   24.1414 H   0  0  0  0  0  0
  -30.9861  -21.9267   22.4610 H   0  0  0  0  0  0
  -27.7703  -23.2886   18.9621 H   0  0  0  0  0  0
  -29.9384  -16.7242   16.9861 H   0  0  0  0  0  0
  -29.1358  -17.9214   17.9937 H   0  0  0  0  0  0
  -31.4935  -18.3753   18.4121 H   0  0  0  0  0  0
  -31.8910  -16.6709   18.3832 H   0  0  0  0  0  0
  -29.2045  -15.0405   18.3268 H   0  0  0  0  0  0
  -28.1977  -16.2140   19.1535 H   0  0  0  0  0  0
  -31.6708  -17.1155   20.7475 H   0  0  0  0  0  0
  -31.3929  -19.8706   21.4964 H   0  0  0  0  0  0
  -31.3386  -19.9035   19.7762 H   0  0  0  0  0  0
  -27.9243  -25.5133   21.9724 H   0  0  0  0  0  0
  -26.9362  -24.9347   20.7082 H   0  0  0  0  0  0
  1 25  1  0  0  0
  1 30  2  0  0  0
  1 84  1  0  0  0
  2  3  1  0  0  0
  2 25  1  0  0  0
  2 88  1  0  0  0
  2 89  1  0  0  0
  3  4  1  0  0  0
  3 90  1  0  0  0
  3 91  1  0  0  0
  4  5  1  0  0  0
  4 92  1  0  0  0
  4 93  1  0  0  0
  5  6  1  0  0  0
  5 26  1  0  0  0
  5 94  1  0  0  0
  6 25  1  0  0  0
  6 95  1  0  0  0
  6 96  1  0  0  0
  7  8  2  0  0  0
  7 26  1  0  0  0
  7 29  1  0  0  0
  8  9  1  0  0  0
  8 22  1  0  0  0
  9 10  1  0  0  0
  9 27  2  0  0  0
 10 11  2  0  0  0
 10 15  1  0  0  0
 11 12  1  0  0  0
 11 97  1  0  0  0
 12 13  2  0  0  0
 12 98  1  0  0  0
 13 14  1  0  0  0
 13 31  1  0  0  0
 14 15  2  0  0  0
 14 99  1  0  0  0
 15100  1  0  0  0
 16 17  2  0  0  0
 16 21  1  0  0  0
 16 31  1  0  0  0
 17 18  1  0  0  0
 17101  1  0  0  0
 18 19  2  0  0  0
 18102  1  0  0  0
 19 20  1  0  0  0
 19 24  1  0  0  0
 20 21  2  0  0  0
 20103  1  0  0  0
 21 23  1  0  0  0
 22 28  1  0  0  0
 22 32  2  0  0  0
 26 27  1  0  0  0
 28104  1  0  0  0
 28105  1  0  0  0
 29106  1  0  0  0
 29107  1  0  0  0
 33 34  1  0  0  0
 33 66  1  0  0  0
 33 70  2  0  0  0
 34 36  1  0  0  0
 34 59  1  0  0  0
 34108  1  0  0  0
 35 44  2  0  0  0
 35 45  1  0  0  0
 35 68  1  0  0  0
 36 56  1  0  0  0
 36109  1  0  0  0
 37 39  1  0  0  0
 37 47  1  0  0  0
 37 66  1  0  0  0
 37110  1  0  0  0
 38 43  2  0  0  0
 38 46  1  0  0  0
 38 47  1  0  0  0
 39 64  1  0  0  0
 39 67  2  0  0  0
 40 52  1  0  0  0
 40 53  2  0  0  0
 40 58  1  0  0  0
 41111  1  0  0  0
 41112  1  0  0  0
 41113  1  0  0  0
 41 48  1  0  0  0
 42 43  1  0  0  0
 42 66  1  0  0  0
 42114  1  0  0  0
 42115  1  0  0  0
 43 44  1  0  0  0
 44116  1  0  0  0
 45 46  2  0  0  0
 45117  1  0  0  0
 46118  1  0  0  0
 47119  1  0  0  0
 47120  1  0  0  0
 48 56  1  0  0  0
 48 65  1  0  0  0
 48121  1  0  0  0
 49 50  1  0  0  0
 49 53  1  0  0  0
 49 64  1  0  0  0
 49122  1  0  0  0
 50 51  1  0  0  0
 50123  1  0  0  0
 50124  1  0  0  0
 51 52  1  0  0  0
 51125  1  0  0  0
 51126  1  0  0  0
 52127  1  0  0  0
 52128  1  0  0  0
 53 54  1  0  0  0
 54 55  2  0  0  0
 54129  1  0  0  0
 55 57  1  0  0  0
 55130  1  0  0  0
 56 69  2  0  0  0
 57 58  2  0  0  0
 57131  1  0  0  0
 58132  1  0  0  0
 59 60  1  0  0  0
 59 61  1  0  0  0
 59 62  1  0  0  0
 60133  1  0  0  0
 60134  1  0  0  0
 60135  1  0  0  0
 61136  1  0  0  0
 61137  1  0  0  0
 61138  1  0  0  0
 62139  1  0  0  0
 62140  1  0  0  0
 62141  1  0  0  0
 63 65  1  0  0  0
 63142  1  0  0  0
 63143  1  0  0  0
 63144  1  0  0  0
 64145  1  0  0  0
 65146  1  0  0  0
 68 83  1  0  0  0
 71 73  2  0  0  0
 71 76  1  0  0  0
 71147  1  0  0  0
 72 74  1  0  0  0
 72 75  2  0  0  0
 72148  1  0  0  0
 73 75  1  0  0  0
 73 82  1  0  0  0
 74 76  2  0  0  0
 74 83  1  0  0  0
 75 86  1  0  0  0
 76 87  1  0  0  0
 77 82  1  0  0  0
 77 85  2  0  0  0
 77 81  1  0  0  0
 78 79  1  0  0  0
 78 80  1  0  0  0
 78149  1  0  0  0
 78150  1  0  0  0
 79 81  1  0  0  0
 79151  1  0  0  0
 79152  1  0  0  0
 80 84  1  0  0  0
 80153  1  0  0  0
 80154  1  0  0  0
 81 84  1  0  0  0
 81155  1  0  0  0
 82156  1  0  0  0
 82157  1  0  0  0
 83158  1  0  0  0
 83159  1  0  0  0
M  ISO  4   1 100  68 101  83 101  84 100
M  END
> <chiral flag>
0

> <version>
0

> <s_m_source_file>
/data/baiqing/PycharmProjects/Reinvent-master-3.2/result/LINK_invent/BTK/process_docking_weight1_custom_sum_contain_oxygen_bond_distance_aromatic_linkinvent_7_9_3/rearranged_h_0032.sdf

> <i_m_source_file_index>
29

> <r_mmod_Potential_Energy-OPLS-2005>
298.408294677734

> <r_mmod_Stretch_Energy-OPLS-2005>
78.7191619873047

> <r_mmod_Bend_Energy-OPLS-2005>
177.955383300781

> <r_mmod_Torsional_Energy-OPLS-2005>
347.612152099609

> <r_mmod_Improper_Torsional_Energy-OPLS-2005>
15.7206621170044

> <r_mmod_Van_der_Waal_Energy-OPLS-2005>
155.979202270508

> <r_mmod_Electrostatic_Energy-OPLS-2005>
-340.917083740234

> <r_mmod_Solvation_Energy-OPLS-2005>
-208.064178466797

> <b_mmod_Minimization_Converged-OPLS-2005>
0

> <r_mmod_RMS_Derivative-OPLS-2005>
2.31568551063538

$$$$
29
                    3D
 Structure written by MMmdl.
151159  0  0  1  0            999 V2000
  -30.5075  -15.0091   20.3961 C   0  0  0  0  0  0
  -30.4369  -12.6161   19.5351 C   0  0  0  0  0  0
  -29.5339  -12.5419   18.2796 C   0  0  0  0  0  0
  -28.0634  -12.3262   18.6826 C   0  0  0  0  0  0
  -27.6275  -13.2592   19.8424 C   0  0  2  0  0  0
  -28.6608  -13.3059   20.9901 C   0  0  0  0  0  0
  -25.2417  -13.8231   20.5691 C   0  0  0  0  0  0
  -24.1751  -13.0442   20.9221 C   0  0  0  0  0  0
  -24.6391  -11.6935   20.8739 C   0  0  0  0  0  0
  -23.9088  -10.4292   21.0391 C   0  0  0  0  0  0
  -24.3641   -9.4205   21.9166 C   0  0  0  0  0  0
  -23.6304   -8.2243   22.0739 C   0  0  0  0  0  0
  -22.4276   -8.0281   21.3542 C   0  0  0  0  0  0
  -21.9920   -9.0256   20.4644 C   0  0  0  0  0  0
  -22.7259  -10.2125   20.3046 C   0  0  0  0  0  0
  -21.6853   -6.0732   22.5276 C   0  0  0  0  0  0
  -21.4023   -6.5638   23.8209 C   0  0  0  0  0  0
  -21.3661   -5.6791   24.9172 C   0  0  0  0  0  0
  -21.6037   -4.3053   24.7220 C   0  0  0  0  0  0
  -21.8819   -3.8145   23.4341 C   0  0  0  0  0  0
  -21.9192   -4.6962   22.3399 C   0  0  0  0  0  0
  -22.7766  -13.5204   21.1887 C   0  0  0  0  0  0
  -22.1654   -4.2154   21.0975 F   0  0  0  0  0  0
  -21.5631   -3.4536   25.7735 F   0  0  0  0  0  0
  -29.9389  -13.7279   20.4048 N   0  0  0  0  0  0
  -26.2859  -12.9489   20.3237 N   0  0  0  0  0  0
  -25.9325  -11.6607   20.5720 N   0  0  0  0  0  0
  -22.0427  -12.8192   22.0452 N   0  0  0  0  0  0
  -25.4080  -15.1959   20.4111 N   0  0  0  0  0  0
  -31.6902  -15.0743   20.0421 O   0  0  0  0  0  0
  -21.6647   -6.8870   21.4236 O   0  0  0  0  0  0
  -22.3440  -14.5504   20.6732 O   0  0  0  0  0  0
  -24.6474  -31.8375   23.1816 C   0  0  0  0  0  0
  -25.9231  -32.4655   23.8227 C   0  0  1  0  0  0
  -27.2231  -27.0938   20.1580 C   0  0  0  0  0  0
  -25.5956  -33.8463   24.2153 N   0  0  0  0  0  0
  -23.4529  -30.4532   21.5260 C   0  0  2  0  0  0
  -24.9034  -28.8663   20.1049 C   0  0  0  0  0  0
  -22.7587  -29.4511   22.4827 C   0  0  0  0  0  0
  -18.0307  -28.1384   22.8480 C   0  0  0  0  0  0
  -24.1487  -36.7242   23.2642 C   0  0  0  0  0  0
  -26.0090  -30.6975   21.3848 C   0  0  0  0  0  0
  -26.0775  -29.3033   20.7286 C   0  0  0  0  0  0
  -27.2325  -28.4319   20.7373 C   0  0  0  0  0  0
  -26.0245  -26.7608   19.4924 C   0  0  0  0  0  0
  -24.8925  -27.6118   19.4709 C   0  0  0  0  0  0
  -23.6812  -29.7741   20.1464 C   0  0  0  0  0  0
  -25.4120  -36.3008   24.0312 C   0  0  1  0  0  0
  -20.5923  -28.3717   23.1223 C   0  0  2  0  0  0
  -20.6781  -26.9414   22.5405 C   0  0  0  0  0  0
  -19.5757  -26.6375   21.5211 C   0  0  0  0  0  0
  -18.1943  -26.7923   22.1627 C   0  0  0  0  0  0
  -19.1565  -28.8871   23.2845 C   0  0  0  0  0  0
  -18.9482  -30.1465   23.8876 C   0  0  0  0  0  0
  -17.6477  -30.6586   24.0558 C   0  0  0  0  0  0
  -25.9076  -34.9386   23.5051 C   0  0  0  0  0  0
  -16.5370  -29.9079   23.6330 C   0  0  0  0  0  0
  -16.7292  -28.6491   23.0364 C   0  0  0  0  0  0
  -26.4538  -31.6542   25.0692 C   0  0  0  0  0  0
  -25.3716  -31.3757   26.1390 C   0  0  0  0  0  0
  -27.0415  -30.2929   24.6313 C   0  0  0  0  0  0
  -27.6054  -32.4318   25.7484 C   0  0  0  0  0  0
  -27.5571  -37.1775   24.8464 C   0  0  0  0  0  0
  -21.4272  -29.3036   22.3585 N   0  0  0  0  0  0
  -26.4278  -37.3728   23.9409 N   0  0  0  0  0  0
  -24.7231  -31.0198   22.0855 N   0  0  0  0  0  0
  -23.4217  -28.8069   23.2999 O   0  0  0  0  0  0
  -28.2932  -26.1238   20.2818 O   0  0  0  0  0  0
  -26.5673  -34.8898   22.4634 O   0  0  0  0  0  0
  -23.5589  -32.1256   23.7024 O   0  0  0  0  0  0
  -28.5474  -20.2350   20.2149 C   0  0  0  0  0  0
  -30.3447  -21.3662   20.6556 C   0  0  0  0  0  0
  -29.0112  -21.6429   20.4554 C   0  0  0  0  0  0
  -29.5396  -19.2005   20.2689 C   0  0  0  0  0  0
  -32.0037  -19.4699   20.7144 C   0  0  0  0  0  0
  -28.2763  -23.1544   20.6703 C   0  0  0  0  0  0
  -29.7251  -17.5999   19.8066 C   0  0  0  0  0  0
  -28.3816  -24.6210   19.8003 C   0  0  0  0  0  0
  -30.6550  -19.9889   20.5631 N   0  0  0  0  0  0
  -29.7270  -16.2009   20.5753 N   0  0  0  0  0  0
  -31.4771  -12.7597   19.2393 H   0  0  0  0  0  0
  -30.4165  -11.6700   20.0795 H   0  0  0  0  0  0
  -29.8669  -11.7403   17.6198 H   0  0  0  0  0  0
  -29.6269  -13.4669   17.7074 H   0  0  0  0  0  0
  -27.9582  -11.2854   18.9902 H   0  0  0  0  0  0
  -27.4080  -12.4593   17.8206 H   0  0  0  0  0  0
  -27.5869  -14.2598   19.4095 H   0  0  0  0  0  0
  -28.7484  -12.3352   21.4825 H   0  0  0  0  0  0
  -28.3459  -14.0135   21.7587 H   0  0  0  0  0  0
  -25.2780   -9.5691   22.4748 H   0  0  0  0  0  0
  -24.0010   -7.4637   22.7469 H   0  0  0  0  0  0
  -21.0842   -8.8791   19.8956 H   0  0  0  0  0  0
  -22.3717  -10.9665   19.6164 H   0  0  0  0  0  0
  -21.2025   -7.6144   23.9722 H   0  0  0  0  0  0
  -21.1482   -6.0515   25.9081 H   0  0  0  0  0  0
  -22.0597   -2.7605   23.2842 H   0  0  0  0  0  0
  -22.4060  -11.9867   22.4853 H   0  0  0  0  0  0
  -21.1040  -13.1195   22.2666 H   0  0  0  0  0  0
  -24.6370  -15.8452   20.5186 H   0  0  0  0  0  0
  -26.2512  -15.6390   20.0687 H   0  0  0  0  0  0
  -26.7296  -32.5242   23.0947 H   0  0  0  0  0  0
  -25.0065  -33.9553   25.0279 H   0  0  0  0  0  0
  -22.7578  -31.2799   21.3663 H   0  0  0  0  0  0
  -23.3753  -35.9570   23.3282 H   0  0  0  0  0  0
  -24.3573  -36.8903   22.2064 H   0  0  0  0  0  0
  -23.7246  -37.6430   23.6698 H   0  0  0  0  0  0
  -26.1705  -31.4489   20.6100 H   0  0  0  0  0  0
  -26.8774  -30.7487   22.0302 H   0  0  0  0  0  0
  -28.1260  -28.7597   21.2487 H   0  0  0  0  0  0
  -25.9292  -25.7951   19.0186 H   0  0  0  0  0  0
  -23.9947  -27.2738   18.9715 H   0  0  0  0  0  0
  -23.8213  -30.5442   19.3869 H   0  0  0  0  0  0
  -22.7950  -29.2171   19.8376 H   0  0  0  0  0  0
  -25.1309  -36.1820   25.0803 H   0  0  0  0  0  0
  -21.0025  -28.3313   24.1341 H   0  0  0  0  0  0
  -20.5660  -26.2334   23.3631 H   0  0  0  0  0  0
  -21.6647  -26.7397   22.1217 H   0  0  0  0  0  0
  -19.6913  -25.6281   21.1253 H   0  0  0  0  0  0
  -19.6691  -27.3172   20.6730 H   0  0  0  0  0  0
  -17.4208  -26.6675   21.4030 H   0  0  0  0  0  0
  -18.0343  -26.0064   22.9023 H   0  0  0  0  0  0
  -19.7955  -30.7283   24.2243 H   0  0  0  0  0  0
  -17.5028  -31.6261   24.5161 H   0  0  0  0  0  0
  -15.5372  -30.2976   23.7651 H   0  0  0  0  0  0
  -15.8694  -28.0795   22.7106 H   0  0  0  0  0  0
  -24.5874  -30.7132   25.7708 H   0  0  0  0  0  0
  -24.8946  -32.2962   26.4764 H   0  0  0  0  0  0
  -25.7995  -30.8949   27.0196 H   0  0  0  0  0  0
  -26.3049  -29.6630   24.1320 H   0  0  0  0  0  0
  -27.4005  -29.7251   25.4905 H   0  0  0  0  0  0
  -27.8958  -30.4142   23.9652 H   0  0  0  0  0  0
  -27.2628  -33.3628   26.2006 H   0  0  0  0  0  0
  -28.3899  -32.6864   25.0347 H   0  0  0  0  0  0
  -28.0684  -31.8487   26.5453 H   0  0  0  0  0  0
  -28.2575  -38.0080   24.7506 H   0  0  0  0  0  0
  -28.1080  -36.2614   24.6289 H   0  0  0  0  0  0
  -27.2293  -37.1419   25.8866 H   0  0  0  0  0  0
  -20.9491  -29.8755   21.6766 H   0  0  0  0  0  0
  -26.0140  -38.2791   24.1413 H   0  0  0  0  0  0
  -27.5163  -19.9975   19.9864 H   0  0  0  0  0  0
  -31.1419  -22.0609   20.8882 H   0  0  0  0  0  0
  -32.6198  -20.1714   21.2772 H   0  0  0  0  0  0
  -32.4518  -19.3189   19.7320 H   0  0  0  0  0  0
  -31.9884  -18.5193   21.2490 H   0  0  0  0  0  0
  -28.5824  -23.4235   21.6807 H   0  0  0  0  0  0
  -27.2112  -22.9429   20.7747 H   0  0  0  0  0  0
  -30.6288  -17.5630   19.1968 H   0  0  0  0  0  0
  -28.9395  -17.4429   19.0663 H   0  0  0  0  0  0
  -27.7648  -24.5214   18.9078 H   0  0  0  0  0  0
  -29.3965  -24.5954   19.4018 H   0  0  0  0  0  0
  -28.8378  -16.0068   21.0105 H   0  0  0  0  0  0
  1 25  1  0  0  0
  1 30  2  0  0  0
  1 80  1  0  0  0
  2  3  1  0  0  0
  2 25  1  0  0  0
  2 81  1  0  0  0
  2 82  1  0  0  0
  3  4  1  0  0  0
  3 83  1  0  0  0
  3 84  1  0  0  0
  4  5  1  0  0  0
  4 85  1  0  0  0
  4 86  1  0  0  0
  5  6  1  0  0  0
  5 26  1  0  0  0
  5 87  1  0  0  0
  6 25  1  0  0  0
  6 88  1  0  0  0
  6 89  1  0  0  0
  7  8  2  0  0  0
  7 26  1  0  0  0
  7 29  1  0  0  0
  8  9  1  0  0  0
  8 22  1  0  0  0
  9 10  1  0  0  0
  9 27  2  0  0  0
 10 11  2  0  0  0
 10 15  1  0  0  0
 11 12  1  0  0  0
 11 90  1  0  0  0
 12 13  2  0  0  0
 12 91  1  0  0  0
 13 14  1  0  0  0
 13 31  1  0  0  0
 14 15  2  0  0  0
 14 92  1  0  0  0
 15 93  1  0  0  0
 16 17  2  0  0  0
 16 21  1  0  0  0
 16 31  1  0  0  0
 17 18  1  0  0  0
 17 94  1  0  0  0
 18 19  2  0  0  0
 18 95  1  0  0  0
 19 20  1  0  0  0
 19 24  1  0  0  0
 20 21  2  0  0  0
 20 96  1  0  0  0
 21 23  1  0  0  0
 22 28  1  0  0  0
 22 32  2  0  0  0
 26 27  1  0  0  0
 28 97  1  0  0  0
 28 98  1  0  0  0
 29 99  1  0  0  0
 29100  1  0  0  0
 33 34  1  0  0  0
 33 66  1  0  0  0
 33 70  2  0  0  0
 34 36  1  0  0  0
 34 59  1  0  0  0
 34101  1  0  0  0
 35 44  2  0  0  0
 35 45  1  0  0  0
 35 68  1  0  0  0
 36 56  1  0  0  0
 36102  1  0  0  0
 37 39  1  0  0  0
 37 47  1  0  0  0
 37 66  1  0  0  0
 37103  1  0  0  0
 38 43  2  0  0  0
 38 46  1  0  0  0
 38 47  1  0  0  0
 39 64  1  0  0  0
 39 67  2  0  0  0
 40 52  1  0  0  0
 40 53  2  0  0  0
 40 58  1  0  0  0
 41104  1  0  0  0
 41105  1  0  0  0
 41106  1  0  0  0
 41 48  1  0  0  0
 42 43  1  0  0  0
 42 66  1  0  0  0
 42107  1  0  0  0
 42108  1  0  0  0
 43 44  1  0  0  0
 44109  1  0  0  0
 45 46  2  0  0  0
 45110  1  0  0  0
 46111  1  0  0  0
 47112  1  0  0  0
 47113  1  0  0  0
 48 56  1  0  0  0
 48 65  1  0  0  0
 48114  1  0  0  0
 49 50  1  0  0  0
 49 53  1  0  0  0
 49 64  1  0  0  0
 49115  1  0  0  0
 50 51  1  0  0  0
 50116  1  0  0  0
 50117  1  0  0  0
 51 52  1  0  0  0
 51118  1  0  0  0
 51119  1  0  0  0
 52120  1  0  0  0
 52121  1  0  0  0
 53 54  1  0  0  0
 54 55  2  0  0  0
 54122  1  0  0  0
 55 57  1  0  0  0
 55123  1  0  0  0
 56 69  2  0  0  0
 57 58  2  0  0  0
 57124  1  0  0  0
 58125  1  0  0  0
 59 60  1  0  0  0
 59 61  1  0  0  0
 59 62  1  0  0  0
 60126  1  0  0  0
 60127  1  0  0  0
 60128  1  0  0  0
 61129  1  0  0  0
 61130  1  0  0  0
 61131  1  0  0  0
 62132  1  0  0  0
 62133  1  0  0  0
 62134  1  0  0  0
 63 65  1  0  0  0
 63135  1  0  0  0
 63136  1  0  0  0
 63137  1  0  0  0
 64138  1  0  0  0
 65139  1  0  0  0
 68 78  1  0  0  0
 71 73  1  0  0  0
 71 74  2  0  0  0
 71140  1  0  0  0
 72 73  2  0  0  0
 72 79  1  0  0  0
 72141  1  0  0  0
 73 76  1  0  0  0
 74 77  1  0  0  0
 74 79  1  0  0  0
 75 79  1  0  0  0
 75142  1  0  0  0
 75143  1  0  0  0
 75144  1  0  0  0
 76 78  1  0  0  0
 76145  1  0  0  0
 76146  1  0  0  0
 77 80  1  0  0  0
 77147  1  0  0  0
 77148  1  0  0  0
 78149  1  0  0  0
 78150  1  0  0  0
 80151  1  0  0  0
M  ISO  4   1 100  68 101  78 101  80 100
M  END
> <chiral flag>
0

> <version>
0

> <s_m_source_file>
/data/baiqing/PycharmProjects/Reinvent-master-3.2/result/LINK_invent/BTK/process_docking_weight1_custom_sum_contain_oxygen_bond_distance_aromatic_linkinvent_7_9_3/rearranged_h_0032.sdf

> <i_m_source_file_index>
30

> <r_mmod_Potential_Energy-OPLS-2005>
604.560852050781

> <r_mmod_Stretch_Energy-OPLS-2005>
308.148590087891

> <r_mmod_Bend_Energy-OPLS-2005>
340.438629150391

> <r_mmod_Torsional_Energy-OPLS-2005>
227.50341796875

> <r_mmod_Improper_Torsional_Energy-OPLS-2005>
8.64114475250244

> <r_mmod_Van_der_Waal_Energy-OPLS-2005>
107.750297546387

> <r_mmod_Electrostatic_Energy-OPLS-2005>
-400.19140625

> <r_mmod_Solvation_Energy-OPLS-2005>
-221.009750366211

> <b_mmod_Minimization_Converged-OPLS-2005>
0

> <r_mmod_RMS_Derivative-OPLS-2005>
1.76686775684357

$$$$
30
                    3D
 Structure written by MMmdl.
153161  0  0  1  0            999 V2000
  -30.6980  -14.5900   20.5227 C   0  0  0  0  0  0
  -30.4199  -12.3714   19.4480 C   0  0  0  0  0  0
  -29.4977  -12.4967   18.2184 C   0  0  0  0  0  0
  -28.0222  -12.3455   18.6346 C   0  0  0  0  0  0
  -27.6503  -13.2244   19.8593 C   0  0  2  0  0  0
  -28.6970  -13.1014   20.9893 C   0  0  0  0  0  0
  -25.2543  -13.8194   20.5685 C   0  0  0  0  0  0
  -24.1820  -13.0445   20.9190 C   0  0  0  0  0  0
  -24.6401  -11.6920   20.8746 C   0  0  0  0  0  0
  -23.9071  -10.4295   21.0407 C   0  0  0  0  0  0
  -24.3621   -9.4210   21.9185 C   0  0  0  0  0  0
  -23.6295   -8.2247   22.0755 C   0  0  0  0  0  0
  -22.4278   -8.0283   21.3545 C   0  0  0  0  0  0
  -21.9914   -9.0258   20.4647 C   0  0  0  0  0  0
  -22.7244  -10.2136   20.3056 C   0  0  0  0  0  0
  -21.6854   -6.0735   22.5277 C   0  0  0  0  0  0
  -21.4016   -6.5638   23.8211 C   0  0  0  0  0  0
  -21.3661   -5.6792   24.9172 C   0  0  0  0  0  0
  -21.6046   -4.3055   24.7225 C   0  0  0  0  0  0
  -21.8819   -3.8146   23.4345 C   0  0  0  0  0  0
  -21.9194   -4.6963   22.3402 C   0  0  0  0  0  0
  -22.7840  -13.5226   21.1854 C   0  0  0  0  0  0
  -22.1660   -4.2147   21.0980 F   0  0  0  0  0  0
  -21.5631   -3.4539   25.7738 F   0  0  0  0  0  0
  -30.0126  -13.4112   20.4133 N   0  0  0  0  0  0
  -26.2982  -12.9394   20.3326 N   0  0  0  0  0  0
  -25.9335  -11.6539   20.5775 N   0  0  0  0  0  0
  -22.0489  -12.8214   22.0410 N   0  0  0  0  0  0
  -25.4236  -15.1913   20.4079 N   0  0  0  0  0  0
  -31.8643  -14.6843   20.1345 O   0  0  0  0  0  0
  -21.6642   -6.8880   21.4239 O   0  0  0  0  0  0
  -22.3517  -14.5531   20.6703 O   0  0  0  0  0  0
  -24.6244  -31.8634   23.2076 C   0  0  0  0  0  0
  -25.9103  -32.4793   23.8385 C   0  0  1  0  0  0
  -27.2149  -27.3399   20.1031 C   0  0  0  0  0  0
  -25.5934  -33.8593   24.2309 N   0  0  0  0  0  0
  -23.4155  -30.4919   21.5504 C   0  0  2  0  0  0
  -24.8590  -28.9591   20.1082 C   0  0  0  0  0  0
  -22.7467  -29.4647   22.4946 C   0  0  0  0  0  0
  -18.0287  -28.1381   22.8482 C   0  0  0  0  0  0
  -24.1491  -36.7298   23.2639 C   0  0  0  0  0  0
  -25.9574  -30.7993   21.3777 C   0  0  0  0  0  0
  -26.0290  -29.4306   20.7169 C   0  0  0  0  0  0
  -27.2089  -28.6305   20.7119 C   0  0  0  0  0  0
  -26.0227  -26.9334   19.4524 C   0  0  0  0  0  0
  -24.8567  -27.7137   19.4691 C   0  0  0  0  0  0
  -23.6276  -29.8366   20.1624 C   0  0  0  0  0  0
  -25.4111  -36.3089   24.0339 C   0  0  1  0  0  0
  -20.5889  -28.3684   23.1284 C   0  0  2  0  0  0
  -20.6779  -26.9407   22.5409 C   0  0  0  0  0  0
  -19.5748  -26.6386   21.5212 C   0  0  0  0  0  0
  -18.1927  -26.7922   22.1625 C   0  0  0  0  0  0
  -19.1540  -28.8848   23.2879 C   0  0  0  0  0  0
  -18.9464  -30.1450   23.8893 C   0  0  0  0  0  0
  -17.6466  -30.6583   24.0563 C   0  0  0  0  0  0
  -25.9052  -34.9459   23.5119 C   0  0  0  0  0  0
  -16.5355  -29.9085   23.6328 C   0  0  0  0  0  0
  -16.7274  -28.6504   23.0342 C   0  0  0  0  0  0
  -26.4494  -31.6589   25.0739 C   0  0  0  0  0  0
  -25.3732  -31.3720   26.1468 C   0  0  0  0  0  0
  -27.0325  -30.3016   24.6166 C   0  0  0  0  0  0
  -27.6060  -32.4315   25.7504 C   0  0  0  0  0  0
  -27.5578  -37.1805   24.8466 C   0  0  0  0  0  0
  -21.4186  -29.3045   22.3682 N   0  0  0  0  0  0
  -26.4289  -37.3783   23.9413 N   0  0  0  0  0  0
  -24.6846  -31.0670   22.1021 N   0  0  0  0  0  0
  -23.4203  -28.8171   23.3003 O   0  0  0  0  0  0
  -28.3228  -26.4787   20.1694 O   0  0  0  0  0  0
  -26.5611  -34.8920   22.4680 O   0  0  0  0  0  0
  -23.5414  -32.1433   23.7414 O   0  0  0  0  0  0
  -28.4047  -20.2427   21.1756 C   0  0  0  0  0  0
  -30.7083  -19.2570   19.9596 C   0  0  0  0  0  0
  -29.0964  -21.1084   20.2864 C   0  0  0  0  0  0
  -30.0165  -18.3897   20.8467 C   0  0  0  0  0  0
  -30.2663  -20.5809   19.6801 C   0  0  0  0  0  0
  -28.8470  -18.9176   21.4543 C   0  0  0  0  0  0
  -28.4625  -22.4735   19.8597 C   0  0  0  0  0  0
  -30.6554  -17.0213   21.2569 C   0  0  0  0  0  0
  -29.0141  -23.8784   20.3428 C   0  0  0  0  0  0
  -28.0620  -25.0551   19.8866 C   0  0  0  0  0  0
  -30.0222  -15.7012   20.9352 N   0  0  0  0  0  0
  -31.1713  -21.5355   18.5607 Cl  0  0  0  0  0  0
  -27.9433  -17.9594   22.5713 Cl  0  0  0  0  0  0
  -31.4643  -12.4626   19.1452 H   0  0  0  0  0  0
  -30.3279  -11.3821   19.8995 H   0  0  0  0  0  0
  -29.7551  -11.7412   17.4750 H   0  0  0  0  0  0
  -29.6490  -13.4645   17.7377 H   0  0  0  0  0  0
  -27.8548  -11.2937   18.8711 H   0  0  0  0  0  0
  -27.3673  -12.5743   17.7930 H   0  0  0  0  0  0
  -27.6646  -14.2572   19.5107 H   0  0  0  0  0  0
  -28.7005  -12.0926   21.4047 H   0  0  0  0  0  0
  -28.4533  -13.7676   21.8182 H   0  0  0  0  0  0
  -25.2766   -9.5686   22.4757 H   0  0  0  0  0  0
  -24.0003   -7.4639   22.7475 H   0  0  0  0  0  0
  -21.0845   -8.8779   19.8951 H   0  0  0  0  0  0
  -22.3705  -10.9676   19.6164 H   0  0  0  0  0  0
  -21.2007   -7.6146   23.9712 H   0  0  0  0  0  0
  -21.1483   -6.0523   25.9075 H   0  0  0  0  0  0
  -22.0598   -2.7609   23.2848 H   0  0  0  0  0  0
  -22.4110  -11.9873   22.4788 H   0  0  0  0  0  0
  -21.1110  -13.1239   22.2624 H   0  0  0  0  0  0
  -24.6590  -15.8471   20.5261 H   0  0  0  0  0  0
  -26.2773  -15.6333   20.0923 H   0  0  0  0  0  0
  -26.7166  -32.5469   23.1135 H   0  0  0  0  0  0
  -25.0078  -33.9743   25.0451 H   0  0  0  0  0  0
  -22.7080  -31.3125   21.4132 H   0  0  0  0  0  0
  -23.3747  -35.9637   23.3311 H   0  0  0  0  0  0
  -24.3583  -36.8902   22.2050 H   0  0  0  0  0  0
  -23.7251  -37.6511   23.6648 H   0  0  0  0  0  0
  -26.0882  -31.5650   20.6115 H   0  0  0  0  0  0
  -26.8389  -30.8446   22.0056 H   0  0  0  0  0  0
  -28.1021  -28.9840   21.2079 H   0  0  0  0  0  0
  -25.9474  -25.9940   18.9256 H   0  0  0  0  0  0
  -23.9627  -27.3504   18.9805 H   0  0  0  0  0  0
  -23.7459  -30.6183   19.4110 H   0  0  0  0  0  0
  -22.7466  -29.2689   19.8570 H   0  0  0  0  0  0
  -25.1287  -36.1950   25.0831 H   0  0  0  0  0  0
  -20.9978  -28.3254   24.1408 H   0  0  0  0  0  0
  -20.5682  -26.2292   23.3611 H   0  0  0  0  0  0
  -21.6644  -26.7444   22.1193 H   0  0  0  0  0  0
  -19.6915  -25.6304   21.1228 H   0  0  0  0  0  0
  -19.6681  -27.3208   20.6749 H   0  0  0  0  0  0
  -17.4197  -26.6673   21.4024 H   0  0  0  0  0  0
  -18.0320  -26.0070   22.9026 H   0  0  0  0  0  0
  -19.7945  -30.7262   24.2259 H   0  0  0  0  0  0
  -17.5026  -31.6264   24.5167 H   0  0  0  0  0  0
  -15.5355  -30.2983   23.7660 H   0  0  0  0  0  0
  -15.8675  -28.0829   22.7046 H   0  0  0  0  0  0
  -24.5907  -30.7070   25.7799 H   0  0  0  0  0  0
  -24.8923  -32.2883   26.4898 H   0  0  0  0  0  0
  -25.8057  -30.8896   27.0239 H   0  0  0  0  0  0
  -26.2890  -29.6783   24.1186 H   0  0  0  0  0  0
  -27.4030  -29.7252   25.4652 H   0  0  0  0  0  0
  -27.8762  -30.4313   23.9382 H   0  0  0  0  0  0
  -27.2673  -33.3607   26.2098 H   0  0  0  0  0  0
  -28.3858  -32.6886   25.0322 H   0  0  0  0  0  0
  -28.0743  -31.8431   26.5404 H   0  0  0  0  0  0
  -28.2596  -38.0100   24.7503 H   0  0  0  0  0  0
  -28.1070  -36.2630   24.6298 H   0  0  0  0  0  0
  -27.2296  -37.1459   25.8869 H   0  0  0  0  0  0
  -20.9352  -29.8801   21.6925 H   0  0  0  0  0  0
  -26.0173  -38.2859   24.1410 H   0  0  0  0  0  0
  -27.4938  -20.5875   21.6429 H   0  0  0  0  0  0
  -31.6177  -18.9117   19.4895 H   0  0  0  0  0  0
  -27.4098  -22.4236   20.1396 H   0  0  0  0  0  0
  -28.4466  -22.4796   18.7691 H   0  0  0  0  0  0
  -30.7604  -17.0482   22.3420 H   0  0  0  0  0  0
  -31.6841  -17.0321   20.8936 H   0  0  0  0  0  0
  -30.0192  -24.0380   19.9523 H   0  0  0  0  0  0
  -29.0945  -23.8849   21.4297 H   0  0  0  0  0  0
  -27.1029  -24.7951   20.3365 H   0  0  0  0  0  0
  -27.9374  -24.9674   18.8063 H   0  0  0  0  0  0
  -29.0504  -15.5860   21.1784 H   0  0  0  0  0  0
  1 25  1  0  0  0
  1 30  2  0  0  0
  1 81  1  0  0  0
  2  3  1  0  0  0
  2 25  1  0  0  0
  2 84  1  0  0  0
  2 85  1  0  0  0
  3  4  1  0  0  0
  3 86  1  0  0  0
  3 87  1  0  0  0
  4  5  1  0  0  0
  4 88  1  0  0  0
  4 89  1  0  0  0
  5  6  1  0  0  0
  5 26  1  0  0  0
  5 90  1  0  0  0
  6 25  1  0  0  0
  6 91  1  0  0  0
  6 92  1  0  0  0
  7  8  2  0  0  0
  7 26  1  0  0  0
  7 29  1  0  0  0
  8  9  1  0  0  0
  8 22  1  0  0  0
  9 10  1  0  0  0
  9 27  2  0  0  0
 10 11  2  0  0  0
 10 15  1  0  0  0
 11 12  1  0  0  0
 11 93  1  0  0  0
 12 13  2  0  0  0
 12 94  1  0  0  0
 13 14  1  0  0  0
 13 31  1  0  0  0
 14 15  2  0  0  0
 14 95  1  0  0  0
 15 96  1  0  0  0
 16 17  2  0  0  0
 16 21  1  0  0  0
 16 31  1  0  0  0
 17 18  1  0  0  0
 17 97  1  0  0  0
 18 19  2  0  0  0
 18 98  1  0  0  0
 19 20  1  0  0  0
 19 24  1  0  0  0
 20 21  2  0  0  0
 20 99  1  0  0  0
 21 23  1  0  0  0
 22 28  1  0  0  0
 22 32  2  0  0  0
 26 27  1  0  0  0
 28100  1  0  0  0
 28101  1  0  0  0
 29102  1  0  0  0
 29103  1  0  0  0
 33 34  1  0  0  0
 33 66  1  0  0  0
 33 70  2  0  0  0
 34 36  1  0  0  0
 34 59  1  0  0  0
 34104  1  0  0  0
 35 44  2  0  0  0
 35 45  1  0  0  0
 35 68  1  0  0  0
 36 56  1  0  0  0
 36105  1  0  0  0
 37 39  1  0  0  0
 37 47  1  0  0  0
 37 66  1  0  0  0
 37106  1  0  0  0
 38 43  2  0  0  0
 38 46  1  0  0  0
 38 47  1  0  0  0
 39 64  1  0  0  0
 39 67  2  0  0  0
 40 52  1  0  0  0
 40 53  2  0  0  0
 40 58  1  0  0  0
 41107  1  0  0  0
 41108  1  0  0  0
 41109  1  0  0  0
 41 48  1  0  0  0
 42 43  1  0  0  0
 42 66  1  0  0  0
 42110  1  0  0  0
 42111  1  0  0  0
 43 44  1  0  0  0
 44112  1  0  0  0
 45 46  2  0  0  0
 45113  1  0  0  0
 46114  1  0  0  0
 47115  1  0  0  0
 47116  1  0  0  0
 48 56  1  0  0  0
 48 65  1  0  0  0
 48117  1  0  0  0
 49 50  1  0  0  0
 49 53  1  0  0  0
 49 64  1  0  0  0
 49118  1  0  0  0
 50 51  1  0  0  0
 50119  1  0  0  0
 50120  1  0  0  0
 51 52  1  0  0  0
 51121  1  0  0  0
 51122  1  0  0  0
 52123  1  0  0  0
 52124  1  0  0  0
 53 54  1  0  0  0
 54 55  2  0  0  0
 54125  1  0  0  0
 55 57  1  0  0  0
 55126  1  0  0  0
 56 69  2  0  0  0
 57 58  2  0  0  0
 57127  1  0  0  0
 58128  1  0  0  0
 59 60  1  0  0  0
 59 61  1  0  0  0
 59 62  1  0  0  0
 60129  1  0  0  0
 60130  1  0  0  0
 60131  1  0  0  0
 61132  1  0  0  0
 61133  1  0  0  0
 61134  1  0  0  0
 62135  1  0  0  0
 62136  1  0  0  0
 62137  1  0  0  0
 63 65  1  0  0  0
 63138  1  0  0  0
 63139  1  0  0  0
 63140  1  0  0  0
 64141  1  0  0  0
 65142  1  0  0  0
 68 80  1  0  0  0
 71 73  2  0  0  0
 71 76  1  0  0  0
 71143  1  0  0  0
 72 74  1  0  0  0
 72 75  2  0  0  0
 72144  1  0  0  0
 73 75  1  0  0  0
 73 77  1  0  0  0
 74 76  2  0  0  0
 74 78  1  0  0  0
 75 82  1  0  0  0
 76 83  1  0  0  0
 77 79  1  0  0  0
 77145  1  0  0  0
 77146  1  0  0  0
 78 81  1  0  0  0
 78147  1  0  0  0
 78148  1  0  0  0
 79 80  1  0  0  0
 79149  1  0  0  0
 79150  1  0  0  0
 80151  1  0  0  0
 80152  1  0  0  0
 81153  1  0  0  0
M  ISO  4   1 100  68 101  80 101  81 100
M  END
> <chiral flag>
0

> <version>
0

> <s_m_source_file>
/data/baiqing/PycharmProjects/Reinvent-master-3.2/result/LINK_invent/BTK/process_docking_weight1_custom_sum_contain_oxygen_bond_distance_aromatic_linkinvent_7_9_3/rearranged_h_0032.sdf

> <i_m_source_file_index>
31

> <r_mmod_Potential_Energy-OPLS-2005>
3.14365649223328

> <r_mmod_Stretch_Energy-OPLS-2005>
66.8105850219727

> <r_mmod_Bend_Energy-OPLS-2005>
137.570220947266

> <r_mmod_Torsional_Energy-OPLS-2005>
203.396560668945

> <r_mmod_Improper_Torsional_Energy-OPLS-2005>
4.8842716217041

> <r_mmod_Van_der_Waal_Energy-OPLS-2005>
150.332794189453

> <r_mmod_Electrostatic_Energy-OPLS-2005>
-399.946563720703

> <r_mmod_Solvation_Energy-OPLS-2005>
-201.608932495117

> <b_mmod_Minimization_Converged-OPLS-2005>
0

> <r_mmod_RMS_Derivative-OPLS-2005>
0.743907630443573

$$$$
31
                    3D
 Structure written by MMmdl.
186194  0  0  1  0            999 V2000
  -30.7604  -14.3506   20.7082 C   0  0  0  0  0  0
  -30.4249  -12.2913   19.3931 C   0  0  0  0  0  0
  -29.4904  -12.5381   18.1934 C   0  0  0  0  0  0
  -28.0129  -12.3898   18.6045 C   0  0  0  0  0  0
  -27.6715  -13.2010   19.8828 C   0  0  2  0  0  0
  -28.7058  -12.9218   20.9968 C   0  0  0  0  0  0
  -25.2639  -13.8153   20.5679 C   0  0  0  0  0  0
  -24.1882  -13.0454   20.9174 C   0  0  0  0  0  0
  -24.6420  -11.6910   20.8726 C   0  0  0  0  0  0
  -23.9075  -10.4305   21.0397 C   0  0  0  0  0  0
  -24.3620   -9.4220   21.9181 C   0  0  0  0  0  0
  -23.6300   -8.2249   22.0745 C   0  0  0  0  0  0
  -22.4286   -8.0285   21.3530 C   0  0  0  0  0  0
  -21.9920   -9.0266   20.4636 C   0  0  0  0  0  0
  -22.7242  -10.2152   20.3045 C   0  0  0  0  0  0
  -21.6860   -6.0743   22.5282 C   0  0  0  0  0  0
  -21.4016   -6.5640   23.8219 C   0  0  0  0  0  0
  -21.3658   -5.6790   24.9177 C   0  0  0  0  0  0
  -21.6046   -4.3053   24.7220 C   0  0  0  0  0  0
  -21.8818   -3.8147   23.4341 C   0  0  0  0  0  0
  -21.9201   -4.6969   22.3404 C   0  0  0  0  0  0
  -22.7898  -13.5255   21.1846 C   0  0  0  0  0  0
  -22.1665   -4.2152   21.0979 F   0  0  0  0  0  0
  -21.5629   -3.4535   25.7728 F   0  0  0  0  0  0
  -30.0540  -13.2165   20.4733 N   0  0  0  0  0  0
  -26.3077  -12.9321   20.3368 N   0  0  0  0  0  0
  -25.9339  -11.6480   20.5726 N   0  0  0  0  0  0
  -22.0526  -12.8260   22.0397 N   0  0  0  0  0  0
  -25.4415  -15.1868   20.4098 N   0  0  0  0  0  0
  -31.7536  -14.6822   20.0534 O   0  0  0  0  0  0
  -21.6643   -6.8883   21.4242 O   0  0  0  0  0  0
  -22.3586  -14.5557   20.6680 O   0  0  0  0  0  0
  -24.6094  -31.8725   23.2127 C   0  0  0  0  0  0
  -25.9039  -32.4819   23.8411 C   0  0  1  0  0  0
  -27.2497  -27.4914   20.1005 C   0  0  0  0  0  0
  -25.5929  -33.8613   24.2374 N   0  0  0  0  0  0
  -23.3905  -30.4946   21.5514 C   0  0  2  0  0  0
  -24.8397  -28.9659   20.1105 C   0  0  0  0  0  0
  -22.7350  -29.4694   22.5012 C   0  0  0  0  0  0
  -18.0263  -28.1378   22.8493 C   0  0  0  0  0  0
  -24.1471  -36.7305   23.2634 C   0  0  0  0  0  0
  -25.9067  -30.8613   21.3476 C   0  0  0  0  0  0
  -25.9883  -29.4941   20.7096 C   0  0  0  0  0  0
  -27.1887  -28.7631   20.7152 C   0  0  0  0  0  0
  -26.0923  -26.9750   19.4820 C   0  0  0  0  0  0
  -24.8833  -27.7003   19.4963 C   0  0  0  0  0  0
  -23.5945  -29.8229   20.1644 C   0  0  0  0  0  0
  -25.4085  -36.3089   24.0339 C   0  0  1  0  0  0
  -20.5843  -28.3657   23.1339 C   0  0  2  0  0  0
  -20.6748  -26.9395   22.5430 C   0  0  0  0  0  0
  -19.5733  -26.6389   21.5211 C   0  0  0  0  0  0
  -18.1915  -26.7933   22.1621 C   0  0  0  0  0  0
  -19.1508  -28.8832   23.2915 C   0  0  0  0  0  0
  -18.9443  -30.1446   23.8904 C   0  0  0  0  0  0
  -17.6444  -30.6577   24.0576 C   0  0  0  0  0  0
  -25.9019  -34.9457   23.5142 C   0  0  0  0  0  0
  -16.5332  -29.9088   23.6317 C   0  0  0  0  0  0
  -16.7252  -28.6514   23.0321 C   0  0  0  0  0  0
  -26.4499  -31.6535   25.0682 C   0  0  0  0  0  0
  -25.3778  -31.3659   26.1440 C   0  0  0  0  0  0
  -27.0312  -30.2983   24.5981 C   0  0  0  0  0  0
  -27.6102  -32.4171   25.7488 C   0  0  0  0  0  0
  -27.5564  -37.1780   24.8453 C   0  0  0  0  0  0
  -21.4083  -29.3025   22.3747 N   0  0  0  0  0  0
  -26.4265  -37.3766   23.9417 N   0  0  0  0  0  0
  -24.6543  -31.0887   22.0987 N   0  0  0  0  0  0
  -23.4154  -28.8249   23.3045 O   0  0  0  0  0  0
  -28.3953  -26.7294   20.0892 O   0  0  0  0  0  0
  -26.5541  -34.8897   22.4680 O   0  0  0  0  0  0
  -23.5306  -32.1464   23.7559 O   0  0  0  0  0  0
  -31.3043  -29.1810   25.3162 C   0  0  0  0  0  0
  -30.5426  -27.3989   23.8545 C   0  0  0  0  0  0
  -30.8824  -27.8477   25.1524 C   0  0  0  0  0  0
  -31.3811  -30.0568   24.2146 C   0  0  0  0  0  0
  -30.6319  -28.2552   22.7324 C   0  0  0  0  0  0
  -31.0502  -29.5973   22.9183 C   0  0  0  0  0  0
  -31.8330  -31.4878   24.4430 C   0  0  0  0  0  0
  -30.2938  -27.7151   21.3382 C   0  0  0  0  0  0
  -30.8043  -26.9509   26.3964 C   0  0  0  0  0  0
  -31.6632  -20.7722   20.4514 C   0  0  0  0  0  0
  -32.3671  -21.4932   21.6174 C   0  0  0  0  0  0
  -31.4040  -19.2679   20.6474 C   0  0  0  0  0  0
  -31.4394  -21.9182   22.7691 C   0  0  0  0  0  0
  -30.2562  -18.9260   21.6151 C   0  0  0  0  0  0
  -32.0659  -22.9976   23.6668 C   0  0  0  0  0  0
  -29.7774  -17.4727   21.4769 C   0  0  0  0  0  0
  -31.0602  -23.5613   24.6835 C   0  0  0  0  0  0
  -30.7455  -16.4372   22.0768 C   0  0  0  0  0  0
  -31.6152  -24.7639   25.4721 C   0  0  0  0  0  0
  -29.1237  -26.7097   21.3187 C   0  0  0  0  0  0
  -30.3104  -15.0872   21.7328 N   0  0  0  0  0  0
  -30.5293  -25.5191   26.1412 N   0  3  0  0  0  0
  -31.1670  -30.6850   21.5744 Cl  0  0  0  0  0  0
  -31.4673  -12.4080   19.0876 H   0  0  0  0  0  0
  -30.3349  -11.2628   19.7452 H   0  0  0  0  0  0
  -29.7282  -11.8436   17.3863 H   0  0  0  0  0  0
  -29.6598  -13.5397   17.7964 H   0  0  0  0  0  0
  -27.8205  -11.3302   18.7753 H   0  0  0  0  0  0
  -27.3613  -12.6872   17.7816 H   0  0  0  0  0  0
  -27.7365  -14.2585   19.6240 H   0  0  0  0  0  0
  -28.6655  -11.8720   21.2912 H   0  0  0  0  0  0
  -28.4442  -13.4786   21.8972 H   0  0  0  0  0  0
  -25.2768   -9.5694   22.4756 H   0  0  0  0  0  0
  -24.0011   -7.4639   22.7463 H   0  0  0  0  0  0
  -21.0848   -8.8785   19.8948 H   0  0  0  0  0  0
  -22.3702  -10.9689   19.6141 H   0  0  0  0  0  0
  -21.1994   -7.6149   23.9722 H   0  0  0  0  0  0
  -21.1486   -6.0518   25.9083 H   0  0  0  0  0  0
  -22.0597   -2.7610   23.2847 H   0  0  0  0  0  0
  -22.4121  -11.9905   22.4771 H   0  0  0  0  0  0
  -21.1130  -13.1275   22.2559 H   0  0  0  0  0  0
  -24.6835  -15.8508   20.5198 H   0  0  0  0  0  0
  -26.3068  -15.6200   20.1109 H   0  0  0  0  0  0
  -26.7128  -32.5573   23.1211 H   0  0  0  0  0  0
  -25.0194  -33.9780   25.0597 H   0  0  0  0  0  0
  -22.6764  -31.3102   21.4143 H   0  0  0  0  0  0
  -23.3717  -35.9649   23.3282 H   0  0  0  0  0  0
  -24.3570  -36.8885   22.2049 H   0  0  0  0  0  0
  -23.7235  -37.6530   23.6614 H   0  0  0  0  0  0
  -25.9875  -31.6186   20.5670 H   0  0  0  0  0  0
  -26.8076  -30.9395   21.9437 H   0  0  0  0  0  0
  -28.0557  -29.1947   21.1916 H   0  0  0  0  0  0
  -26.1252  -26.0051   19.0065 H   0  0  0  0  0  0
  -23.9998  -27.2836   19.0299 H   0  0  0  0  0  0
  -23.6890  -30.5982   19.4024 H   0  0  0  0  0  0
  -22.7223  -29.2350   19.8734 H   0  0  0  0  0  0
  -25.1245  -36.1967   25.0832 H   0  0  0  0  0  0
  -20.9935  -28.3226   24.1464 H   0  0  0  0  0  0
  -20.5658  -26.2255   23.3611 H   0  0  0  0  0  0
  -21.6624  -26.7453   22.1223 H   0  0  0  0  0  0
  -19.6889  -25.6309   21.1216 H   0  0  0  0  0  0
  -19.6682  -27.3225   20.6763 H   0  0  0  0  0  0
  -17.4195  -26.6689   21.4015 H   0  0  0  0  0  0
  -18.0301  -26.0073   22.9009 H   0  0  0  0  0  0
  -19.7915  -30.7270   24.2252 H   0  0  0  0  0  0
  -17.4993  -31.6249   24.5199 H   0  0  0  0  0  0
  -15.5329  -30.2994   23.7634 H   0  0  0  0  0  0
  -15.8654  -28.0857   22.6984 H   0  0  0  0  0  0
  -24.5920  -30.7038   25.7771 H   0  0  0  0  0  0
  -24.8991  -32.2828   26.4887 H   0  0  0  0  0  0
  -25.8124  -30.8806   27.0186 H   0  0  0  0  0  0
  -26.2830  -29.6732   24.1092 H   0  0  0  0  0  0
  -27.4174  -29.7194   25.4386 H   0  0  0  0  0  0
  -27.8638  -30.4294   23.9057 H   0  0  0  0  0  0
  -27.2747  -33.3419   26.2186 H   0  0  0  0  0  0
  -28.3923  -32.6786   25.0341 H   0  0  0  0  0  0
  -28.0761  -31.8187   26.5334 H   0  0  0  0  0  0
  -28.2601  -38.0060   24.7484 H   0  0  0  0  0  0
  -28.1028  -36.2599   24.6266 H   0  0  0  0  0  0
  -27.2286  -37.1410   25.8856 H   0  0  0  0  0  0
  -20.9211  -29.8731   21.6977 H   0  0  0  0  0  0
  -26.0152  -38.2836   24.1447 H   0  0  0  0  0  0
  -31.5743  -29.5363   26.3017 H   0  0  0  0  0  0
  -30.2197  -26.3817   23.6999 H   0  0  0  0  0  0
  -31.7602  -31.7647   25.4949 H   0  0  0  0  0  0
  -31.2112  -32.1859   23.8836 H   0  0  0  0  0  0
  -32.8677  -31.6155   24.1221 H   0  0  0  0  0  0
  -31.1870  -27.2417   20.9283 H   0  0  0  0  0  0
  -30.0666  -28.5282   20.6536 H   0  0  0  0  0  0
  -30.0078  -27.3409   27.0319 H   0  0  0  0  0  0
  -31.7294  -27.0450   26.9686 H   0  0  0  0  0  0
  -32.3081  -20.8700   19.5760 H   0  0  0  0  0  0
  -30.7407  -21.2876   20.1797 H   0  0  0  0  0  0
  -32.8244  -22.3925   21.2020 H   0  0  0  0  0  0
  -33.1925  -20.8898   21.9963 H   0  0  0  0  0  0
  -32.3237  -18.7691   20.9539 H   0  0  0  0  0  0
  -31.1609  -18.8530   19.6673 H   0  0  0  0  0  0
  -31.1759  -21.0601   23.3858 H   0  0  0  0  0  0
  -30.5064  -22.2977   22.3503 H   0  0  0  0  0  0
  -29.4125  -19.5884   21.4156 H   0  0  0  0  0  0
  -30.5525  -19.1097   22.6469 H   0  0  0  0  0  0
  -32.4265  -23.8145   23.0396 H   0  0  0  0  0  0
  -32.9402  -22.5972   24.1833 H   0  0  0  0  0  0
  -29.5951  -17.2543   20.4238 H   0  0  0  0  0  0
  -28.8111  -17.3768   21.9735 H   0  0  0  0  0  0
  -30.7408  -22.7756   25.3703 H   0  0  0  0  0  0
  -30.1665  -23.8697   24.1391 H   0  0  0  0  0  0
  -30.7622  -16.5337   23.1635 H   0  0  0  0  0  0
  -31.7679  -16.6108   21.7375 H   0  0  0  0  0  0
  -32.1586  -25.4179   24.7895 H   0  0  0  0  0  0
  -32.3486  -24.4369   26.2100 H   0  0  0  0  0  0
  -28.4401  -26.8948   22.1514 H   0  0  0  0  0  0
  -29.5070  -25.7014   21.4800 H   0  0  0  0  0  0
  -29.5440  -14.6970   22.2612 H   0  0  0  0  0  0
  -29.6843  -25.4607   25.6000 H   0  0  0  0  0  0
  -30.3329  -25.0798   27.0263 H   0  0  0  0  0  0
  1 25  1  0  0  0
  1 30  2  0  0  0
  1 91  1  0  0  0
  2  3  1  0  0  0
  2 25  1  0  0  0
  2 94  1  0  0  0
  2 95  1  0  0  0
  3  4  1  0  0  0
  3 96  1  0  0  0
  3 97  1  0  0  0
  4  5  1  0  0  0
  4 98  1  0  0  0
  4 99  1  0  0  0
  5  6  1  0  0  0
  5 26  1  0  0  0
  5100  1  0  0  0
  6 25  1  0  0  0
  6101  1  0  0  0
  6102  1  0  0  0
  7  8  2  0  0  0
  7 26  1  0  0  0
  7 29  1  0  0  0
  8  9  1  0  0  0
  8 22  1  0  0  0
  9 10  1  0  0  0
  9 27  2  0  0  0
 10 11  2  0  0  0
 10 15  1  0  0  0
 11 12  1  0  0  0
 11103  1  0  0  0
 12 13  2  0  0  0
 12104  1  0  0  0
 13 14  1  0  0  0
 13 31  1  0  0  0
 14 15  2  0  0  0
 14105  1  0  0  0
 15106  1  0  0  0
 16 17  2  0  0  0
 16 21  1  0  0  0
 16 31  1  0  0  0
 17 18  1  0  0  0
 17107  1  0  0  0
 18 19  2  0  0  0
 18108  1  0  0  0
 19 20  1  0  0  0
 19 24  1  0  0  0
 20 21  2  0  0  0
 20109  1  0  0  0
 21 23  1  0  0  0
 22 28  1  0  0  0
 22 32  2  0  0  0
 26 27  1  0  0  0
 28110  1  0  0  0
 28111  1  0  0  0
 29112  1  0  0  0
 29113  1  0  0  0
 33 34  1  0  0  0
 33 66  1  0  0  0
 33 70  2  0  0  0
 34 36  1  0  0  0
 34 59  1  0  0  0
 34114  1  0  0  0
 35 44  2  0  0  0
 35 45  1  0  0  0
 35 68  1  0  0  0
 36 56  1  0  0  0
 36115  1  0  0  0
 37 39  1  0  0  0
 37 47  1  0  0  0
 37 66  1  0  0  0
 37116  1  0  0  0
 38 43  2  0  0  0
 38 46  1  0  0  0
 38 47  1  0  0  0
 39 64  1  0  0  0
 39 67  2  0  0  0
 40 52  1  0  0  0
 40 53  2  0  0  0
 40 58  1  0  0  0
 41117  1  0  0  0
 41118  1  0  0  0
 41119  1  0  0  0
 41 48  1  0  0  0
 42 43  1  0  0  0
 42 66  1  0  0  0
 42120  1  0  0  0
 42121  1  0  0  0
 43 44  1  0  0  0
 44122  1  0  0  0
 45 46  2  0  0  0
 45123  1  0  0  0
 46124  1  0  0  0
 47125  1  0  0  0
 47126  1  0  0  0
 48 56  1  0  0  0
 48 65  1  0  0  0
 48127  1  0  0  0
 49 50  1  0  0  0
 49 53  1  0  0  0
 49 64  1  0  0  0
 49128  1  0  0  0
 50 51  1  0  0  0
 50129  1  0  0  0
 50130  1  0  0  0
 51 52  1  0  0  0
 51131  1  0  0  0
 51132  1  0  0  0
 52133  1  0  0  0
 52134  1  0  0  0
 53 54  1  0  0  0
 54 55  2  0  0  0
 54135  1  0  0  0
 55 57  1  0  0  0
 55136  1  0  0  0
 56 69  2  0  0  0
 57 58  2  0  0  0
 57137  1  0  0  0
 58138  1  0  0  0
 59 60  1  0  0  0
 59 61  1  0  0  0
 59 62  1  0  0  0
 60139  1  0  0  0
 60140  1  0  0  0
 60141  1  0  0  0
 61142  1  0  0  0
 61143  1  0  0  0
 61144  1  0  0  0
 62145  1  0  0  0
 62146  1  0  0  0
 62147  1  0  0  0
 63 65  1  0  0  0
 63148  1  0  0  0
 63149  1  0  0  0
 63150  1  0  0  0
 64151  1  0  0  0
 65152  1  0  0  0
 68 90  1  0  0  0
 71 73  2  0  0  0
 71 74  1  0  0  0
 71153  1  0  0  0
 72 73  1  0  0  0
 72 75  2  0  0  0
 72154  1  0  0  0
 73 79  1  0  0  0
 74 76  2  0  0  0
 74 77  1  0  0  0
 75 76  1  0  0  0
 75 78  1  0  0  0
 76 93  1  0  0  0
 77155  1  0  0  0
 77156  1  0  0  0
 77157  1  0  0  0
 78 90  1  0  0  0
 78158  1  0  0  0
 78159  1  0  0  0
 79 92  1  0  0  0
 79160  1  0  0  0
 79161  1  0  0  0
 80 81  1  0  0  0
 80 82  1  0  0  0
 80162  1  0  0  0
 80163  1  0  0  0
 81 83  1  0  0  0
 81164  1  0  0  0
 81165  1  0  0  0
 82 84  1  0  0  0
 82166  1  0  0  0
 82167  1  0  0  0
 83 85  1  0  0  0
 83168  1  0  0  0
 83169  1  0  0  0
 84 86  1  0  0  0
 84170  1  0  0  0
 84171  1  0  0  0
 85 87  1  0  0  0
 85172  1  0  0  0
 85173  1  0  0  0
 86 88  1  0  0  0
 86174  1  0  0  0
 86175  1  0  0  0
 87 89  1  0  0  0
 87176  1  0  0  0
 87177  1  0  0  0
 88 91  1  0  0  0
 88178  1  0  0  0
 88179  1  0  0  0
 89 92  1  0  0  0
 89180  1  0  0  0
 89181  1  0  0  0
 90182  1  0  0  0
 90183  1  0  0  0
 91184  1  0  0  0
 92185  1  0  0  0
 92186  1  0  0  0
M  CHG  1  92   1
M  ISO  4   1 100  68 101  90 101  91 100
M  END
> <chiral flag>
0

> <version>
0

> <s_m_source_file>
/data/baiqing/PycharmProjects/Reinvent-master-3.2/result/LINK_invent/BTK/process_docking_weight1_custom_sum_contain_oxygen_bond_distance_aromatic_linkinvent_7_9_3/rearranged_h_0032.sdf

> <i_m_source_file_index>
32

> <r_mmod_Potential_Energy-OPLS-2005>
-243.011810302734

> <r_mmod_Stretch_Energy-OPLS-2005>
34.8325309753418

> <r_mmod_Bend_Energy-OPLS-2005>
97.3178863525391

> <r_mmod_Torsional_Energy-OPLS-2005>
228.081665039062

> <r_mmod_Improper_Torsional_Energy-OPLS-2005>
1.84936439990997

> <r_mmod_Van_der_Waal_Energy-OPLS-2005>
150.236953735352

> <r_mmod_Electrostatic_Energy-OPLS-2005>
-287.181640625

> <r_mmod_Solvation_Energy-OPLS-2005>
-474.645477294922

> <b_mmod_Minimization_Converged-OPLS-2005>
0

> <r_mmod_RMS_Derivative-OPLS-2005>
2.297771692276

$$$$
32
                    3D
 Structure written by MMmdl.
165174  0  0  1  0            999 V2000
  -30.3390  -14.1617   21.1597 C   0  0  0  0  0  0
  -30.5578  -12.4920   19.2394 C   0  0  0  0  0  0
  -29.5804  -12.7250   18.0209 C   0  0  0  0  0  0
  -28.0315  -12.7966   18.2996 C   0  0  0  0  0  0
  -27.7512  -13.5743   19.6398 C   0  0  2  0  0  0
  -28.6940  -12.6070   20.5671 C   0  0  0  0  0  0
  -25.1588  -15.0314   21.4360 C   0  0  0  0  0  0
  -24.4593  -14.6534   21.4974 C   0  0  0  0  0  0
  -25.4009  -13.0982   20.1861 C   0  0  0  0  0  0
  -24.7931  -11.3481   20.1161 C   0  0  0  0  0  0
  -25.1014  -10.1568   21.8210 C   0  0  0  0  0  0
  -23.8401   -8.6589   22.2969 C   0  0  0  0  0  0
  -22.2351   -8.2837   21.2070 C   0  0  0  0  0  0
  -21.8089   -9.4033   19.5643 C   0  0  0  0  0  0
  -23.1947  -10.7744   18.7770 C   0  0  0  0  0  0
  -21.6746   -6.2177   22.5007 C   0  0  0  0  0  0
  -21.4087   -6.6457   23.8226 C   0  0  0  0  0  0
  -21.3839   -5.7291   24.9001 C   0  0  0  0  0  0
  -21.6209   -4.3599   24.6791 C   0  0  0  0  0  0
  -21.8936   -3.9136   23.3747 C   0  0  0  0  0  0
  -21.9179   -4.8275   22.2976 C   0  0  0  0  0  0
  -22.9391  -14.9149   22.1570 C   0  0  0  0  0  0
  -22.1424   -4.3390   21.0538 F   0  0  0  0  0  0
  -21.5783   -3.4805   25.7117 F   0  0  0  0  0  0
  -30.0104  -13.0571   20.4795 N   0  0  0  0  0  0
  -26.1868  -13.8368   20.1650 N   0  0  0  0  0  0
  -26.3495  -12.5420   20.2417 N   0  0  0  0  0  0
  -22.3853  -13.8635   22.8338 N   0  0  0  0  0  0
  -25.1881  -16.2353   22.1763 N   0  0  0  0  0  0
  -31.3277  -14.8095   20.7384 O   0  0  0  0  0  0
  -21.5242   -7.0902   21.4156 O   0  0  0  0  0  0
  -22.1198  -15.4275   21.3866 O   0  0  0  0  0  0
  -24.7926  -31.6135   23.0516 C   0  0  0  0  0  0
  -25.9913  -32.3539   23.7426 C   0  0  1  0  0  0
  -26.3061  -25.1182   20.1875 C   0  0  0  0  0  0
  -25.5961  -33.7481   24.1123 N   0  0  0  0  0  0
  -23.6134  -30.2182   21.4487 C   0  0  2  0  0  0
  -24.8720  -28.2647   20.0683 C   0  0  0  0  0  0
  -22.7952  -29.3446   22.4377 C   0  0  0  0  0  0
  -18.0339  -28.1432   22.8438 C   0  0  0  0  0  0
  -24.1493  -36.6729   23.2706 C   0  0  0  0  0  0
  -26.1520  -29.7409   21.5479 C   0  0  0  0  0  0
  -26.0044  -28.1748   20.8597 C   0  0  0  0  0  0
  -26.6915  -26.6751   20.8597 C   0  0  0  0  0  0
  -25.3875  -25.8205   19.2922 C   0  0  0  0  0  0
  -24.7188  -27.1314   19.2433 C   0  0  0  0  0  0
  -23.8691  -29.4729   20.0898 C   0  0  0  0  0  0
  -25.4186  -36.2345   24.0205 C   0  0  1  0  0  0
  -20.5986  -28.3750   23.1024 C   0  0  2  0  0  0
  -20.6707  -26.9316   22.5482 C   0  0  0  0  0  0
  -19.5712  -26.6296   21.5254 C   0  0  0  0  0  0
  -18.1898  -26.7954   22.1615 C   0  0  0  0  0  0
  -19.1629  -28.8943   23.2699 C   0  0  0  0  0  0
  -18.9548  -30.1526   23.8763 C   0  0  0  0  0  0
  -17.6528  -30.6603   24.0535 C   0  0  0  0  0  0
  -25.9231  -34.8775   23.4627 C   0  0  0  0  0  0
  -16.5408  -29.9084   23.6362 C   0  0  0  0  0  0
  -16.7329  -28.6510   23.0386 C   0  0  0  0  0  0
  -26.4768  -31.6276   25.0600 C   0  0  0  0  0  0
  -25.3594  -31.3914   26.1060 C   0  0  0  0  0  0
  -27.0894  -30.2569   24.7331 C   0  0  0  0  0  0
  -27.5988  -32.4473   25.7415 C   0  0  0  0  0  0
  -27.5505  -37.1497   24.8471 C   0  0  0  0  0  0
  -21.4554  -29.2761   22.3150 N   0  0  0  0  0  0
  -26.4170  -37.3284   23.9446 N   0  0  0  0  0  0
  -24.9167  -30.6086   22.0592 N   0  0  0  0  0  0
  -23.3939  -28.7245   23.3192 O   0  0  0  0  0  0
  -26.5456  -23.1660   20.1208 O   0  0  0  0  0  0
  -26.6100  -34.8650   22.4411 O   0  0  0  0  0  0
  -23.6799  -32.0007   23.4693 O   0  0  0  0  0  0
  -24.9496  -12.7325   22.3451 C   0  0  0  0  0  0
  -24.3085  -15.2965   19.3347 C   0  0  0  0  0  0
  -23.2928  -13.2117   20.4733 C   0  0  0  0  0  0
  -26.1193  -16.3542   19.8598 C   0  0  0  0  0  0
  -26.8266  -13.9196   22.4066 C   0  0  0  0  0  0
  -24.0143  -17.2271   19.2770 C   0  0  0  0  0  0
  -24.5810  -19.1818   19.8156 C   0  0  0  0  0  0
  -26.5363  -18.4878   19.7313 C   0  0  2  0  0  0
  -25.9684  -20.6832   19.9603 C   0  0  1  0  0  0
  -27.3059  -18.5608   18.4061 C   0  0  0  0  0  0
  -22.7807  -10.6089   21.5194 C   0  0  0  0  0  0
  -22.4827  -11.7078   20.6741 C   0  0  0  0  0  0
  -28.2789  -13.8147   23.0874 C   0  0  0  0  0  0
  -23.9176   -9.3282   20.1849 C   0  0  0  0  0  0
  -27.3065  -15.5321   21.2404 N   0  0  0  0  0  0
  -29.5394  -14.4227   22.3097 N   0  0  0  0  0  0
  -31.5367  -12.9211   19.0196 H   0  0  0  0  0  0
  -30.7400  -11.4264   19.3844 H   0  0  0  0  0  0
  -29.7783  -11.9995   17.2299 H   0  0  0  0  0  0
  -29.8679  -13.6817   17.5820 H   0  0  0  0  0  0
  -27.6169  -11.7846   18.2766 H   0  0  0  0  0  0
  -27.5365  -13.3291   17.4862 H   0  0  0  0  0  0
  -28.2296  -14.5254   19.3947 H   0  0  0  0  0  0
  -28.6740  -11.5853   20.1658 H   0  0  0  0  0  0
  -28.3778  -12.1896   21.5067 H   0  0  0  0  0  0
  -25.9349  -10.3637   22.4770 H   0  0  0  0  0  0
  -24.0749   -8.0366   23.1501 H   0  0  0  0  0  0
  -20.9406   -9.1470   18.9708 H   0  0  0  0  0  0
  -22.9602  -11.3578   17.8956 H   0  0  0  0  0  0
  -21.1815   -7.6841   24.0163 H   0  0  0  0  0  0
  -21.1673   -6.0756   25.9007 H   0  0  0  0  0  0
  -22.0727   -2.8667   23.1843 H   0  0  0  0  0  0
  -23.0185  -13.1362   23.1335 H   0  0  0  0  0  0
  -21.3858  -13.7613   22.9171 H   0  0  0  0  0  0
  -24.6143  -16.9448   21.7471 H   0  0  0  0  0  0
  -26.1869  -16.3892   21.9631 H   0  0  0  0  0  0
  -26.8143  -32.3803   23.0256 H   0  0  0  0  0  0
  -24.9788  -33.8297   24.9062 H   0  0  0  0  0  0
  -23.0250  -31.1076   21.2163 H   0  0  0  0  0  0
  -23.3813  -35.8987   23.3153 H   0  0  0  0  0  0
  -24.3526  -36.8682   22.2164 H   0  0  0  0  0  0
  -23.7197  -37.5769   23.7037 H   0  0  0  0  0  0
  -26.6314  -30.3559   20.7848 H   0  0  0  0  0  0
  -26.9162  -29.6500   22.3019 H   0  0  0  0  0  0
  -27.5173  -26.6196   21.5556 H   0  0  0  0  0  0
  -24.9647  -25.1394   18.5690 H   0  0  0  0  0  0
  -23.9438  -27.2082   18.4959 H   0  0  0  0  0  0
  -24.2176  -30.1951   19.3490 H   0  0  0  0  0  0
  -22.9137  -29.1208   19.7040 H   0  0  0  0  0  0
  -25.1461  -36.0887   25.0683 H   0  0  0  0  0  0
  -21.0061  -28.3465   24.1156 H   0  0  0  0  0  0
  -20.5433  -26.2392   23.3820 H   0  0  0  0  0  0
  -21.6563  -26.7058   22.1382 H   0  0  0  0  0  0
  -19.6799  -25.6178   21.1345 H   0  0  0  0  0  0
  -19.6719  -27.3068   20.6760 H   0  0  0  0  0  0
  -17.4191  -26.6794   21.3987 H   0  0  0  0  0  0
  -18.0161  -26.0122   22.9010 H   0  0  0  0  0  0
  -19.8043  -30.7367   24.2073 H   0  0  0  0  0  0
  -17.5088  -31.6269   24.5157 H   0  0  0  0  0  0
  -15.5405  -30.2942   23.7746 H   0  0  0  0  0  0
  -15.8745  -28.0781   22.7159 H   0  0  0  0  0  0
  -24.5886  -30.7124   25.7399 H   0  0  0  0  0  0
  -24.8668  -32.3217   26.3883 H   0  0  0  0  0  0
  -25.7569  -30.9503   27.0208 H   0  0  0  0  0  0
  -26.3460  -29.5531   24.3592 H   0  0  0  0  0  0
  -27.5048  -29.7907   25.6266 H   0  0  0  0  0  0
  -27.9152  -30.3448   24.0276 H   0  0  0  0  0  0
  -27.2376  -33.4000   26.1284 H   0  0  0  0  0  0
  -28.4101  -32.6639   25.0464 H   0  0  0  0  0  0
  -28.0313  -31.9125   26.5878 H   0  0  0  0  0  0
  -28.2354  -37.9936   24.7544 H   0  0  0  0  0  0
  -28.1153  -36.2429   24.6240 H   0  0  0  0  0  0
  -27.2230  -37.1019   25.8872 H   0  0  0  0  0  0
  -21.0032  -29.8291   21.6007 H   0  0  0  0  0  0
  -25.9843  -38.2246   24.1532 H   0  0  0  0  0  0
  -24.8165  -12.0171   23.1386 H   0  0  0  0  0  0
  -22.9605  -17.2413   19.5559 H   0  0  0  0  0  0
  -23.9812  -17.3450   18.1909 H   0  0  0  0  0  0
  -24.2097  -19.2017   20.8417 H   0  0  0  0  0  0
  -23.8089  -19.7345   19.2783 H   0  0  0  0  0  0
  -27.2987  -18.4721   20.5092 H   0  0  0  0  0  0
  -26.0361  -20.7021   21.0490 H   0  0  0  0  0  0
  -27.9403  -17.6878   18.2455 H   0  0  0  0  0  0
  -27.9410  -19.4459   18.3745 H   0  0  0  0  0  0
  -26.6009  -18.6150   17.5755 H   0  0  0  0  0  0
  -23.3177  -10.0265   20.7462 H   0  0  0  0  0  0
  -21.8278  -10.2393   22.0069 H   0  0  0  0  0  0
  -23.1663  -10.8752   22.5351 H   0  0  0  0  0  0
  -21.7239  -11.9243   19.8935 H   0  0  0  0  0  0
  -21.4792  -12.0377   21.1648 H   0  0  0  0  0  0
  -28.1884  -14.4033   24.0019 H   0  0  0  0  0  0
  -28.4797  -12.8122   23.4601 H   0  0  0  0  0  0
  -23.7038   -8.4485   19.5142 H   0  0  0  0  0  0
  -24.9689   -9.2481   19.7861 H   0  0  0  0  0  0
  -29.8055  -15.3057   22.7190 H   0  0  0  0  0  0
  1 25  1  0  0  0
  1 30  2  0  0  0
  1 86  1  0  0  0
  2  3  1  0  0  0
  2 25  1  0  0  0
  2 87  1  0  0  0
  2 88  1  0  0  0
  3  4  1  0  0  0
  3 89  1  0  0  0
  3 90  1  0  0  0
  4  5  1  0  0  0
  4 91  1  0  0  0
  4 92  1  0  0  0
  5  6  1  0  0  0
  5 26  1  0  0  0
  5 93  1  0  0  0
  6 25  1  0  0  0
  6 94  1  0  0  0
  6 95  1  0  0  0
  7  8  2  0  0  0
  7 26  1  0  0  0
  7 29  1  0  0  0
  8  9  1  0  0  0
  8 22  1  0  0  0
  9 10  1  0  0  0
  9 27  2  0  0  0
 10 11  2  0  0  0
 10 15  1  0  0  0
 11 12  1  0  0  0
 11 96  1  0  0  0
 12 13  2  0  0  0
 12 97  1  0  0  0
 13 14  1  0  0  0
 13 31  1  0  0  0
 14 15  2  0  0  0
 14 98  1  0  0  0
 15 99  1  0  0  0
 16 17  2  0  0  0
 16 21  1  0  0  0
 16 31  1  0  0  0
 17 18  1  0  0  0
 17100  1  0  0  0
 18 19  2  0  0  0
 18101  1  0  0  0
 19 20  1  0  0  0
 19 24  1  0  0  0
 20 21  2  0  0  0
 20102  1  0  0  0
 21 23  1  0  0  0
 22 28  1  0  0  0
 22 32  2  0  0  0
 26 27  1  0  0  0
 28103  1  0  0  0
 28104  1  0  0  0
 29105  1  0  0  0
 29106  1  0  0  0
 33 34  1  0  0  0
 33 66  1  0  0  0
 33 70  2  0  0  0
 34 36  1  0  0  0
 34 59  1  0  0  0
 34107  1  0  0  0
 35 44  2  0  0  0
 35 45  1  0  0  0
 35 68  1  0  0  0
 36 56  1  0  0  0
 36108  1  0  0  0
 37 39  1  0  0  0
 37 47  1  0  0  0
 37 66  1  0  0  0
 37109  1  0  0  0
 38 43  2  0  0  0
 38 46  1  0  0  0
 38 47  1  0  0  0
 39 64  1  0  0  0
 39 67  2  0  0  0
 40 52  1  0  0  0
 40 53  2  0  0  0
 40 58  1  0  0  0
 41110  1  0  0  0
 41111  1  0  0  0
 41112  1  0  0  0
 41 48  1  0  0  0
 42 43  1  0  0  0
 42 66  1  0  0  0
 42113  1  0  0  0
 42114  1  0  0  0
 43 44  1  0  0  0
 44115  1  0  0  0
 45 46  2  0  0  0
 45116  1  0  0  0
 46117  1  0  0  0
 47118  1  0  0  0
 47119  1  0  0  0
 48 56  1  0  0  0
 48 65  1  0  0  0
 48120  1  0  0  0
 49 50  1  0  0  0
 49 53  1  0  0  0
 49 64  1  0  0  0
 49121  1  0  0  0
 50 51  1  0  0  0
 50122  1  0  0  0
 50123  1  0  0  0
 51 52  1  0  0  0
 51124  1  0  0  0
 51125  1  0  0  0
 52126  1  0  0  0
 52127  1  0  0  0
 53 54  1  0  0  0
 54 55  2  0  0  0
 54128  1  0  0  0
 55 57  1  0  0  0
 55129  1  0  0  0
 56 69  2  0  0  0
 57 58  2  0  0  0
 57130  1  0  0  0
 58131  1  0  0  0
 59 60  1  0  0  0
 59 61  1  0  0  0
 59 62  1  0  0  0
 60132  1  0  0  0
 60133  1  0  0  0
 60134  1  0  0  0
 61135  1  0  0  0
 61136  1  0  0  0
 61137  1  0  0  0
 62138  1  0  0  0
 62139  1  0  0  0
 62140  1  0  0  0
 63 65  1  0  0  0
 63141  1  0  0  0
 63142  1  0  0  0
 63143  1  0  0  0
 64144  1  0  0  0
 65145  1  0  0  0
 68 79  1  0  0  0
 71 73  2  0  0  0
 71 75  1  0  0  0
 71146  1  0  0  0
 72 73  1  0  0  0
 72 74  2  0  0  0
 72 76  1  0  0  0
 73 82  1  0  0  0
 74 78  1  0  0  0
 74 85  1  0  0  0
 75 83  1  0  0  0
 75 85  2  0  0  0
 76 77  1  0  0  0
 76147  1  0  0  0
 76148  1  0  0  0
 77 79  1  0  0  0
 77149  1  0  0  0
 77150  1  0  0  0
 78 79  1  0  0  0
 78 80  1  0  0  0
 78151  1  0  0  0
 79152  1  0  0  0
 80153  1  0  0  0
 80154  1  0  0  0
 80155  1  0  0  0
 81 84  1  0  0  0
 81156  1  0  0  0
 81157  1  0  0  0
 81158  1  0  0  0
 82 84  1  0  0  0
 82159  1  0  0  0
 82160  1  0  0  0
 83 86  1  0  0  0
 83161  1  0  0  0
 83162  1  0  0  0
 84163  1  0  0  0
 84164  1  0  0  0
 86165  1  0  0  0
M  ISO  4   1 100  68 101  79 101  86 100
M  END
> <chiral flag>
0

> <version>
0

> <s_m_source_file>
/data/baiqing/PycharmProjects/Reinvent-master-3.2/result/LINK_invent/BTK/process_docking_weight1_custom_sum_contain_oxygen_bond_distance_aromatic_linkinvent_7_9_3/rearranged_h_0032.sdf

> <i_m_source_file_index>
33

> <r_mmod_Potential_Energy-OPLS-2005>
45018.3046875

> <r_mmod_Stretch_Energy-OPLS-2005>
25779.59375

> <r_mmod_Bend_Energy-OPLS-2005>
4550.037109375

> <r_mmod_Torsional_Energy-OPLS-2005>
649.214111328125

> <r_mmod_Improper_Torsional_Energy-OPLS-2005>
139.048629760742

> <r_mmod_Van_der_Waal_Energy-OPLS-2005>
8228.8125

> <r_mmod_Electrostatic_Energy-OPLS-2005>
-642.407836914062

> <r_mmod_Solvation_Energy-OPLS-2005>
-217.940734863281

> <b_mmod_Minimization_Converged-OPLS-2005>
0

> <r_mmod_RMS_Derivative-OPLS-2005>
9.78309726715088

$$$$
33
                    3D
 Structure written by MMmdl.
150158  0  0  1  0            999 V2000
  -30.3928  -15.3429   20.3302 C   0  0  0  0  0  0
  -30.4419  -12.8610   19.5340 C   0  0  0  0  0  0
  -29.5356  -12.5667   18.3100 C   0  0  0  0  0  0
  -28.1056  -12.2471   18.7698 C   0  0  0  0  0  0
  -27.6068  -13.2659   19.8185 C   0  0  2  0  0  0
  -28.6295  -13.4950   20.9524 C   0  0  0  0  0  0
  -25.2379  -13.8229   20.5782 C   0  0  0  0  0  0
  -24.1715  -13.0436   20.9281 C   0  0  0  0  0  0
  -24.6340  -11.6912   20.8750 C   0  0  0  0  0  0
  -23.9039  -10.4287   21.0390 C   0  0  0  0  0  0
  -24.3593   -9.4219   21.9179 C   0  0  0  0  0  0
  -23.6275   -8.2256   22.0751 C   0  0  0  0  0  0
  -22.4273   -8.0269   21.3530 C   0  0  0  0  0  0
  -21.9888   -9.0253   20.4654 C   0  0  0  0  0  0
  -22.7205  -10.2136   20.3053 C   0  0  0  0  0  0
  -21.6848   -6.0732   22.5281 C   0  0  0  0  0  0
  -21.4012   -6.5629   23.8220 C   0  0  0  0  0  0
  -21.3649   -5.6783   24.9182 C   0  0  0  0  0  0
  -21.6042   -4.3048   24.7230 C   0  0  0  0  0  0
  -21.8828   -3.8141   23.4348 C   0  0  0  0  0  0
  -21.9203   -4.6959   22.3400 C   0  0  0  0  0  0
  -22.7733  -13.5198   21.1953 C   0  0  0  0  0  0
  -22.1667   -4.2132   21.0983 F   0  0  0  0  0  0
  -21.5621   -3.4541   25.7745 F   0  0  0  0  0  0
  -29.8571  -14.0156   20.3230 N   0  0  0  0  0  0
  -26.2774  -12.9486   20.3207 N   0  0  0  0  0  0
  -25.9273  -11.6596   20.5699 N   0  0  0  0  0  0
  -22.0383  -12.8186   22.0483 N   0  0  0  0  0  0
  -25.4046  -15.1977   20.4246 N   0  0  0  0  0  0
  -31.6140  -15.3370   20.1065 O   0  0  0  0  0  0
  -21.6633   -6.8871   21.4238 O   0  0  0  0  0  0
  -22.3427  -14.5512   20.6794 O   0  0  0  0  0  0
  -24.6667  -31.8219   23.1637 C   0  0  0  0  0  0
  -25.9354  -32.4555   23.8081 C   0  0  1  0  0  0
  -27.2268  -26.9064   20.1585 C   0  0  0  0  0  0
  -25.5998  -33.8372   24.1983 N   0  0  0  0  0  0
  -23.4782  -30.4282   21.5167 C   0  0  2  0  0  0
  -24.9285  -28.8077   20.1018 C   0  0  0  0  0  0
  -22.7628  -29.4439   22.4793 C   0  0  0  0  0  0
  -18.0302  -28.1369   22.8432 C   0  0  0  0  0  0
  -24.1504  -36.7239   23.2664 C   0  0  0  0  0  0
  -26.0441  -30.6121   21.3996 C   0  0  0  0  0  0
  -26.1105  -29.1999   20.7415 C   0  0  0  0  0  0
  -27.2435  -28.2683   20.7550 C   0  0  0  0  0  0
  -26.0210  -26.6755   19.4608 C   0  0  0  0  0  0
  -24.9092  -27.5627   19.4484 C   0  0  0  0  0  0
  -23.7131  -29.7371   20.1447 C   0  0  0  0  0  0
  -25.4133  -36.2972   24.0291 C   0  0  1  0  0  0
  -20.5922  -28.3741   23.1157 C   0  0  2  0  0  0
  -20.6808  -26.9416   22.5383 C   0  0  0  0  0  0
  -19.5797  -26.6366   21.5165 C   0  0  0  0  0  0
  -18.1971  -26.7913   22.1558 C   0  0  0  0  0  0
  -19.1553  -28.8861   23.2784 C   0  0  0  0  0  0
  -18.9491  -30.1450   23.8836 C   0  0  0  0  0  0
  -17.6512  -30.6606   24.0534 C   0  0  0  0  0  0
  -25.9119  -34.9350   23.4977 C   0  0  0  0  0  0
  -16.5394  -29.9094   23.6354 C   0  0  0  0  0  0
  -16.7288  -28.6497   23.0367 C   0  0  0  0  0  0
  -26.4579  -31.6503   25.0632 C   0  0  0  0  0  0
  -25.3669  -31.3767   26.1251 C   0  0  0  0  0  0
  -27.0470  -30.2846   24.6424 C   0  0  0  0  0  0
  -27.6024  -32.4346   25.7455 C   0  0  0  0  0  0
  -27.5568  -37.1741   24.8463 C   0  0  0  0  0  0
  -21.4292  -29.3052   22.3527 N   0  0  0  0  0  0
  -26.4297  -37.3686   23.9404 N   0  0  0  0  0  0
  -24.7497  -30.9795   22.0813 N   0  0  0  0  0  0
  -23.4128  -28.8048   23.3093 O   0  0  0  0  0  0
  -28.2367  -25.8035   20.2773 O   0  0  0  0  0  0
  -26.5767  -34.8936   22.4610 O   0  0  0  0  0  0
  -23.5738  -32.1273   23.6685 O   0  0  0  0  0  0
  -30.9497  -18.5975   19.4372 C   0  0  0  0  0  0
  -31.2499  -19.9368   19.0511 C   0  0  0  0  0  0
  -29.2213  -20.9910   20.0713 C   0  0  0  0  0  0
  -29.7874  -18.2242   20.1457 C   0  0  0  0  0  0
  -30.4195  -21.0664   19.3247 C   0  0  0  0  0  0
  -28.9457  -19.5032   20.4458 C   0  0  0  0  0  0
  -32.5602  -20.1860   18.3306 C   0  0  0  0  0  0
  -28.5084  -22.5535   20.5256 C   0  0  0  0  0  0
  -28.3046  -24.2100   19.7742 C   0  0  0  0  0  0
  -29.6085  -16.6203   20.4340 N   0  0  0  0  0  0
  -30.8292  -22.2836   18.8869 F   0  0  0  0  0  0
  -27.8074  -19.2871   21.1506 F   0  0  0  0  0  0
  -31.4417  -13.0940   19.1727 H   0  0  0  0  0  0
  -30.5564  -11.9745   20.1603 H   0  0  0  0  0  0
  -29.9341  -11.7340   17.7282 H   0  0  0  0  0  0
  -29.5177  -13.4333   17.6474 H   0  0  0  0  0  0
  -28.1320  -11.2558   19.2245 H   0  0  0  0  0  0
  -27.4224  -12.1763   17.9214 H   0  0  0  0  0  0
  -27.5152  -14.2065   19.2741 H   0  0  0  0  0  0
  -28.8079  -12.5827   21.5246 H   0  0  0  0  0  0
  -28.2472  -14.2332   21.6590 H   0  0  0  0  0  0
  -25.2725   -9.5721   22.4768 H   0  0  0  0  0  0
  -23.9988   -7.4653   22.7481 H   0  0  0  0  0  0
  -21.0812   -8.8776   19.8959 H   0  0  0  0  0  0
  -22.3645  -10.9677   19.6187 H   0  0  0  0  0  0
  -21.1998   -7.6143   23.9720 H   0  0  0  0  0  0
  -21.1447   -6.0507   25.9077 H   0  0  0  0  0  0
  -22.0607   -2.7602   23.2863 H   0  0  0  0  0  0
  -22.3988  -11.9837   22.4868 H   0  0  0  0  0  0
  -21.1015  -13.1225   22.2691 H   0  0  0  0  0  0
  -24.6501  -15.8534   20.5994 H   0  0  0  0  0  0
  -26.2423  -15.6429   20.0720 H   0  0  0  0  0  0
  -26.7416  -32.5045   23.0765 H   0  0  0  0  0  0
  -24.9943  -33.9368   24.9995 H   0  0  0  0  0  0
  -22.7950  -31.2632   21.3477 H   0  0  0  0  0  0
  -23.3794  -35.9554   23.3298 H   0  0  0  0  0  0
  -24.3614  -36.8952   22.2101 H   0  0  0  0  0  0
  -23.7230  -37.6387   23.6779 H   0  0  0  0  0  0
  -26.2233  -31.3533   20.6193 H   0  0  0  0  0  0
  -26.9024  -30.6692   22.0562 H   0  0  0  0  0  0
  -28.1271  -28.5638   21.3042 H   0  0  0  0  0  0
  -25.9091  -25.7330   18.9460 H   0  0  0  0  0  0
  -24.0099  -27.2510   18.9339 H   0  0  0  0  0  0
  -23.8590  -30.5094   19.3898 H   0  0  0  0  0  0
  -22.8165  -29.1918   19.8402 H   0  0  0  0  0  0
  -25.1319  -36.1798   25.0779 H   0  0  0  0  0  0
  -20.9935  -28.3424   24.1304 H   0  0  0  0  0  0
  -20.5677  -26.2345   23.3629 H   0  0  0  0  0  0
  -21.6681  -26.7419   22.1185 H   0  0  0  0  0  0
  -19.6988  -25.6248   21.1267 H   0  0  0  0  0  0
  -19.6792  -27.3125   20.6669 H   0  0  0  0  0  0
  -17.4225  -26.6608   21.4009 H   0  0  0  0  0  0
  -18.0397  -26.0052   22.8942 H   0  0  0  0  0  0
  -19.8006  -30.7219   24.2202 H   0  0  0  0  0  0
  -17.5121  -31.6281   24.5142 H   0  0  0  0  0  0
  -15.5400  -30.2996   23.7746 H   0  0  0  0  0  0
  -15.8674  -28.0837   22.7113 H   0  0  0  0  0  0
  -24.5852  -30.7133   25.7529 H   0  0  0  0  0  0
  -24.8841  -32.2967   26.4541 H   0  0  0  0  0  0
  -25.7857  -30.8983   27.0112 H   0  0  0  0  0  0
  -26.3117  -29.6456   24.1497 H   0  0  0  0  0  0
  -27.4030  -29.7292   25.5111 H   0  0  0  0  0  0
  -27.9082  -30.3981   23.9827 H   0  0  0  0  0  0
  -27.2556  -33.3739   26.1787 H   0  0  0  0  0  0
  -28.3942  -32.6744   25.0343 H   0  0  0  0  0  0
  -28.0569  -31.8621   26.5532 H   0  0  0  0  0  0
  -28.2520  -38.0087   24.7493 H   0  0  0  0  0  0
  -28.1102  -36.2588   24.6302 H   0  0  0  0  0  0
  -27.2291  -37.1403   25.8867 H   0  0  0  0  0  0
  -20.9552  -29.8722   21.6644 H   0  0  0  0  0  0
  -26.0182  -38.2781   24.1391 H   0  0  0  0  0  0
  -31.6512  -17.8237   19.1607 H   0  0  0  0  0  0
  -33.1519  -19.2746   18.2311 H   0  0  0  0  0  0
  -33.1589  -20.9102   18.8891 H   0  0  0  0  0  0
  -32.3733  -20.5813   17.3302 H   0  0  0  0  0  0
  -29.0693  -22.7764   21.4330 H   0  0  0  0  0  0
  -27.5199  -22.2967   20.9046 H   0  0  0  0  0  0
  -29.1995  -24.2784   19.1548 H   0  0  0  0  0  0
  -27.5168  -24.1051   19.0273 H   0  0  0  0  0  0
  -28.6672  -16.4067   20.7311 H   0  0  0  0  0  0
  1 25  1  0  0  0
  1 30  2  0  0  0
  1 80  1  0  0  0
  2  3  1  0  0  0
  2 25  1  0  0  0
  2 83  1  0  0  0
  2 84  1  0  0  0
  3  4  1  0  0  0
  3 85  1  0  0  0
  3 86  1  0  0  0
  4  5  1  0  0  0
  4 87  1  0  0  0
  4 88  1  0  0  0
  5  6  1  0  0  0
  5 26  1  0  0  0
  5 89  1  0  0  0
  6 25  1  0  0  0
  6 90  1  0  0  0
  6 91  1  0  0  0
  7  8  2  0  0  0
  7 26  1  0  0  0
  7 29  1  0  0  0
  8  9  1  0  0  0
  8 22  1  0  0  0
  9 10  1  0  0  0
  9 27  2  0  0  0
 10 11  2  0  0  0
 10 15  1  0  0  0
 11 12  1  0  0  0
 11 92  1  0  0  0
 12 13  2  0  0  0
 12 93  1  0  0  0
 13 14  1  0  0  0
 13 31  1  0  0  0
 14 15  2  0  0  0
 14 94  1  0  0  0
 15 95  1  0  0  0
 16 17  2  0  0  0
 16 21  1  0  0  0
 16 31  1  0  0  0
 17 18  1  0  0  0
 17 96  1  0  0  0
 18 19  2  0  0  0
 18 97  1  0  0  0
 19 20  1  0  0  0
 19 24  1  0  0  0
 20 21  2  0  0  0
 20 98  1  0  0  0
 21 23  1  0  0  0
 22 28  1  0  0  0
 22 32  2  0  0  0
 26 27  1  0  0  0
 28 99  1  0  0  0
 28100  1  0  0  0
 29101  1  0  0  0
 29102  1  0  0  0
 33 34  1  0  0  0
 33 66  1  0  0  0
 33 70  2  0  0  0
 34 36  1  0  0  0
 34 59  1  0  0  0
 34103  1  0  0  0
 35 44  2  0  0  0
 35 45  1  0  0  0
 35 68  1  0  0  0
 36 56  1  0  0  0
 36104  1  0  0  0
 37 39  1  0  0  0
 37 47  1  0  0  0
 37 66  1  0  0  0
 37105  1  0  0  0
 38 43  2  0  0  0
 38 46  1  0  0  0
 38 47  1  0  0  0
 39 64  1  0  0  0
 39 67  2  0  0  0
 40 52  1  0  0  0
 40 53  2  0  0  0
 40 58  1  0  0  0
 41106  1  0  0  0
 41107  1  0  0  0
 41108  1  0  0  0
 41 48  1  0  0  0
 42 43  1  0  0  0
 42 66  1  0  0  0
 42109  1  0  0  0
 42110  1  0  0  0
 43 44  1  0  0  0
 44111  1  0  0  0
 45 46  2  0  0  0
 45112  1  0  0  0
 46113  1  0  0  0
 47114  1  0  0  0
 47115  1  0  0  0
 48 56  1  0  0  0
 48 65  1  0  0  0
 48116  1  0  0  0
 49 50  1  0  0  0
 49 53  1  0  0  0
 49 64  1  0  0  0
 49117  1  0  0  0
 50 51  1  0  0  0
 50118  1  0  0  0
 50119  1  0  0  0
 51 52  1  0  0  0
 51120  1  0  0  0
 51121  1  0  0  0
 52122  1  0  0  0
 52123  1  0  0  0
 53 54  1  0  0  0
 54 55  2  0  0  0
 54124  1  0  0  0
 55 57  1  0  0  0
 55125  1  0  0  0
 56 69  2  0  0  0
 57 58  2  0  0  0
 57126  1  0  0  0
 58127  1  0  0  0
 59 60  1  0  0  0
 59 61  1  0  0  0
 59 62  1  0  0  0
 60128  1  0  0  0
 60129  1  0  0  0
 60130  1  0  0  0
 61131  1  0  0  0
 61132  1  0  0  0
 61133  1  0  0  0
 62134  1  0  0  0
 62135  1  0  0  0
 62136  1  0  0  0
 63 65  1  0  0  0
 63137  1  0  0  0
 63138  1  0  0  0
 63139  1  0  0  0
 64140  1  0  0  0
 65141  1  0  0  0
 68 79  1  0  0  0
 71 72  2  0  0  0
 71 74  1  0  0  0
 71142  1  0  0  0
 72 75  1  0  0  0
 72 77  1  0  0  0
 73 75  2  0  0  0
 73 76  1  0  0  0
 73 78  1  0  0  0
 74 76  2  0  0  0
 74 80  1  0  0  0
 75 81  1  0  0  0
 76 82  1  0  0  0
 77143  1  0  0  0
 77144  1  0  0  0
 77145  1  0  0  0
 78 79  1  0  0  0
 78146  1  0  0  0
 78147  1  0  0  0
 79148  1  0  0  0
 79149  1  0  0  0
 80150  1  0  0  0
M  ISO  4   1 100  68 101  79 101  80 100
M  END
> <chiral flag>
0

> <version>
0

> <s_m_source_file>
/data/baiqing/PycharmProjects/Reinvent-master-3.2/result/LINK_invent/BTK/process_docking_weight1_custom_sum_contain_oxygen_bond_distance_aromatic_linkinvent_7_9_3/rearranged_h_0032.sdf

> <i_m_source_file_index>
34

> <r_mmod_Potential_Energy-OPLS-2005>
1365.28503417969

> <r_mmod_Stretch_Energy-OPLS-2005>
653.733032226562

> <r_mmod_Bend_Energy-OPLS-2005>
455.049346923828

> <r_mmod_Torsional_Energy-OPLS-2005>
219.82341003418

> <r_mmod_Improper_Torsional_Energy-OPLS-2005>
3.9272768497467

> <r_mmod_Van_der_Waal_Energy-OPLS-2005>
124.24772644043

> <r_mmod_Electrostatic_Energy-OPLS-2005>
-417.970336914062

> <r_mmod_Solvation_Energy-OPLS-2005>
-199.153533935547

> <b_mmod_Minimization_Converged-OPLS-2005>
0

> <r_mmod_RMS_Derivative-OPLS-2005>
4.94577169418335

$$$$
34
                    3D
 Structure written by MMmdl.
145153  0  0  1  0            999 V2000
  -30.3049  -15.4896   20.3438 C   0  0  0  0  0  0
  -30.4485  -12.9588   19.5520 C   0  0  0  0  0  0
  -29.5583  -12.6297   18.3188 C   0  0  0  0  0  0
  -28.1155  -12.3047   18.7425 C   0  0  0  0  0  0
  -27.6082  -13.2936   19.8173 C   0  0  2  0  0  0
  -28.6285  -13.5390   20.9496 C   0  0  0  0  0  0
  -25.2380  -13.8266   20.5755 C   0  0  0  0  0  0
  -24.1745  -13.0435   20.9251 C   0  0  0  0  0  0
  -24.6423  -11.6939   20.8739 C   0  0  0  0  0  0
  -23.9117  -10.4293   21.0391 C   0  0  0  0  0  0
  -24.3653   -9.4208   21.9176 C   0  0  0  0  0  0
  -23.6313   -8.2250   22.0754 C   0  0  0  0  0  0
  -22.4293   -8.0290   21.3546 C   0  0  0  0  0  0
  -21.9938   -9.0264   20.4645 C   0  0  0  0  0  0
  -22.7282  -10.2135   20.3047 C   0  0  0  0  0  0
  -21.6859   -6.0743   22.5279 C   0  0  0  0  0  0
  -21.4019   -6.5645   23.8212 C   0  0  0  0  0  0
  -21.3660   -5.6796   24.9174 C   0  0  0  0  0  0
  -21.6043   -4.3058   24.7223 C   0  0  0  0  0  0
  -21.8818   -3.8151   23.4344 C   0  0  0  0  0  0
  -21.9194   -4.6970   22.3401 C   0  0  0  0  0  0
  -22.7759  -13.5176   21.1905 C   0  0  0  0  0  0
  -22.1661   -4.2155   21.0979 F   0  0  0  0  0  0
  -21.5627   -3.4540   25.7735 F   0  0  0  0  0  0
  -29.8439  -14.1145   20.3375 N   0  0  0  0  0  0
  -26.2817  -12.9572   20.3187 N   0  0  0  0  0  0
  -25.9366  -11.6658   20.5672 N   0  0  0  0  0  0
  -22.0425  -12.8153   22.0460 N   0  0  0  0  0  0
  -25.4006  -15.2007   20.4237 N   0  0  0  0  0  0
  -31.5258  -15.5028   20.1002 O   0  0  0  0  0  0
  -21.6649   -6.8890   21.4243 O   0  0  0  0  0  0
  -22.3431  -14.5477   20.6750 O   0  0  0  0  0  0
  -24.6767  -31.8082   23.1581 C   0  0  0  0  0  0
  -25.9381  -32.4509   23.8100 C   0  0  1  0  0  0
  -27.2269  -26.7827   20.2037 C   0  0  0  0  0  0
  -25.5990  -33.8331   24.1994 N   0  0  0  0  0  0
  -23.4995  -30.4134   21.5104 C   0  0  2  0  0  0
  -24.9570  -28.7717   20.1159 C   0  0  0  0  0  0
  -22.7736  -29.4358   22.4734 C   0  0  0  0  0  0
  -18.0334  -28.1417   22.8461 C   0  0  0  0  0  0
  -24.1494  -36.7169   23.2651 C   0  0  0  0  0  0
  -26.0768  -30.5674   21.4110 C   0  0  0  0  0  0
  -26.1446  -29.1413   20.7589 C   0  0  0  0  0  0
  -27.2683  -28.1725   20.7732 C   0  0  0  0  0  0
  -26.0074  -26.6042   19.5053 C   0  0  0  0  0  0
  -24.9227  -27.5268   19.4662 C   0  0  0  0  0  0
  -23.7492  -29.7170   20.1427 C   0  0  0  0  0  0
  -25.4140  -36.2919   24.0289 C   0  0  1  0  0  0
  -20.5968  -28.3771   23.1157 C   0  0  2  0  0  0
  -20.6805  -26.9438   22.5402 C   0  0  0  0  0  0
  -19.5779  -26.6373   21.5216 C   0  0  0  0  0  0
  -18.1962  -26.7947   22.1621 C   0  0  0  0  0  0
  -19.1600  -28.8917   23.2793 C   0  0  0  0  0  0
  -18.9507  -30.1504   23.8833 C   0  0  0  0  0  0
  -17.6497  -30.6602   24.0552 C   0  0  0  0  0  0
  -25.9115  -34.9308   23.4972 C   0  0  0  0  0  0
  -16.5387  -29.9085   23.6349 C   0  0  0  0  0  0
  -16.7315  -28.6507   23.0366 C   0  0  0  0  0  0
  -26.4584  -31.6512   25.0689 C   0  0  0  0  0  0
  -25.3669  -31.3808   26.1316 C   0  0  0  0  0  0
  -27.0504  -30.2860   24.6530 C   0  0  0  0  0  0
  -27.6047  -32.4354   25.7502 C   0  0  0  0  0  0
  -27.5565  -37.1741   24.8466 C   0  0  0  0  0  0
  -21.4390  -29.3034   22.3487 N   0  0  0  0  0  0
  -26.4272  -37.3673   23.9411 N   0  0  0  0  0  0
  -24.7736  -30.9604   22.0794 N   0  0  0  0  0  0
  -23.4214  -28.7947   23.3042 O   0  0  0  0  0  0
  -28.1913  -25.5922   20.2837 O   0  0  0  0  0  0
  -26.5745  -34.8871   22.4582 O   0  0  0  0  0  0
  -23.5802  -32.1119   23.6580 O   0  0  0  0  0  0
  -29.1960  -19.8914   21.4602 C   0  0  0  0  0  0
  -28.8054  -21.2396   19.1703 C   0  0  0  0  0  0
  -29.3544  -18.8742   20.3884 C   0  0  0  0  0  0
  -28.6241  -22.2525   20.2421 C   0  0  0  0  0  0
  -29.1210  -19.7521   19.2194 C   0  0  0  0  0  0
  -28.8686  -21.3767   21.4116 C   0  0  0  0  0  0
  -29.3564  -17.0446   20.5483 C   0  0  0  0  0  0
  -27.8624  -23.9176   20.1066 C   0  0  0  0  0  0
  -29.1298  -18.9488   17.6925 Cl  0  0  0  0  0  0
  -28.6745  -22.1345   22.9497 Cl  0  0  0  0  0  0
  -31.4539  -13.2045   19.2085 H   0  0  0  0  0  0
  -30.5690  -12.0789   20.1862 H   0  0  0  0  0  0
  -29.9813  -11.7980   17.7542 H   0  0  0  0  0  0
  -29.5526  -13.4872   17.6444 H   0  0  0  0  0  0
  -28.1074  -11.2916   19.1464 H   0  0  0  0  0  0
  -27.4513  -12.2971   17.8774 H   0  0  0  0  0  0
  -27.5002  -14.2412   19.2881 H   0  0  0  0  0  0
  -28.8386  -12.6240   21.5056 H   0  0  0  0  0  0
  -28.2228  -14.2500   21.6709 H   0  0  0  0  0  0
  -25.2794   -9.5682   22.4757 H   0  0  0  0  0  0
  -24.0014   -7.4645   22.7481 H   0  0  0  0  0  0
  -21.0867   -8.8791   19.8954 H   0  0  0  0  0  0
  -22.3740  -10.9675   19.6157 H   0  0  0  0  0  0
  -21.2014   -7.6153   23.9718 H   0  0  0  0  0  0
  -21.1481   -6.0525   25.9077 H   0  0  0  0  0  0
  -22.0596   -2.7613   23.2842 H   0  0  0  0  0  0
  -22.4064  -11.9823   22.4846 H   0  0  0  0  0  0
  -21.1035  -13.1154   22.2669 H   0  0  0  0  0  0
  -24.6311  -15.8503   20.5441 H   0  0  0  0  0  0
  -26.2476  -15.6470   20.0975 H   0  0  0  0  0  0
  -26.7458  -32.5006   23.0813 H   0  0  0  0  0  0
  -25.0068  -33.9385   25.0100 H   0  0  0  0  0  0
  -22.8206  -31.2489   21.3268 H   0  0  0  0  0  0
  -23.3773  -35.9481   23.3266 H   0  0  0  0  0  0
  -24.3567  -36.8870   22.2075 H   0  0  0  0  0  0
  -23.7234  -37.6332   23.6748 H   0  0  0  0  0  0
  -26.2717  -31.2983   20.6250 H   0  0  0  0  0  0
  -26.9308  -30.6318   22.0730 H   0  0  0  0  0  0
  -28.1619  -28.4579   21.3099 H   0  0  0  0  0  0
  -25.8509  -25.6589   19.0066 H   0  0  0  0  0  0
  -24.0246  -27.2359   18.9387 H   0  0  0  0  0  0
  -23.9170  -30.4802   19.3819 H   0  0  0  0  0  0
  -22.8559  -29.1789   19.8207 H   0  0  0  0  0  0
  -25.1345  -36.1693   25.0779 H   0  0  0  0  0  0
  -21.0054  -28.3388   24.1282 H   0  0  0  0  0  0
  -20.5675  -26.2393   23.3656 H   0  0  0  0  0  0
  -21.6667  -26.7391   22.1216 H   0  0  0  0  0  0
  -19.6936  -25.6267   21.1286 H   0  0  0  0  0  0
  -19.6720  -27.3149   20.6720 H   0  0  0  0  0  0
  -17.4231  -26.6690   21.4026 H   0  0  0  0  0  0
  -18.0352  -26.0106   22.9033 H   0  0  0  0  0  0
  -19.7982  -30.7339   24.2171 H   0  0  0  0  0  0
  -17.5048  -31.6275   24.5166 H   0  0  0  0  0  0
  -15.5385  -30.2966   23.7710 H   0  0  0  0  0  0
  -15.8717  -28.0804   22.7118 H   0  0  0  0  0  0
  -24.5876  -30.7133   25.7620 H   0  0  0  0  0  0
  -24.8833  -32.3024   26.4565 H   0  0  0  0  0  0
  -25.7864  -30.9090   27.0211 H   0  0  0  0  0  0
  -26.3208  -29.6495   24.1514 H   0  0  0  0  0  0
  -27.3957  -29.7277   25.5242 H   0  0  0  0  0  0
  -27.9178  -30.4005   24.0026 H   0  0  0  0  0  0
  -27.2600  -33.3723   26.1891 H   0  0  0  0  0  0
  -28.3955  -32.6805   25.0400 H   0  0  0  0  0  0
  -28.0605  -31.8605   26.5573 H   0  0  0  0  0  0
  -28.2550  -38.0066   24.7521 H   0  0  0  0  0  0
  -28.1092  -36.2589   24.6285 H   0  0  0  0  0  0
  -27.2282  -37.1367   25.8868 H   0  0  0  0  0  0
  -20.9675  -29.8701   21.6576 H   0  0  0  0  0  0
  -26.0104  -38.2721   24.1429 H   0  0  0  0  0  0
  -29.2599  -19.4888   22.4606 H   0  0  0  0  0  0
  -28.6146  -21.6176   18.1767 H   0  0  0  0  0  0
  -28.4684  -16.7983   19.9673 H   0  0  0  0  0  0
  -29.0200  -16.9295   21.5781 H   0  0  0  0  0  0
  -26.9843  -23.8005   20.7418 H   0  0  0  0  0  0
  -27.4534  -23.8801   19.0972 H   0  0  0  0  0  0
  1 25  1  0  0  0
  1 30  2  0  0  0
  1 77  1  0  0  0
  2  3  1  0  0  0
  2 25  1  0  0  0
  2 81  1  0  0  0
  2 82  1  0  0  0
  3  4  1  0  0  0
  3 83  1  0  0  0
  3 84  1  0  0  0
  4  5  1  0  0  0
  4 85  1  0  0  0
  4 86  1  0  0  0
  5  6  1  0  0  0
  5 26  1  0  0  0
  5 87  1  0  0  0
  6 25  1  0  0  0
  6 88  1  0  0  0
  6 89  1  0  0  0
  7  8  2  0  0  0
  7 26  1  0  0  0
  7 29  1  0  0  0
  8  9  1  0  0  0
  8 22  1  0  0  0
  9 10  1  0  0  0
  9 27  2  0  0  0
 10 11  2  0  0  0
 10 15  1  0  0  0
 11 12  1  0  0  0
 11 90  1  0  0  0
 12 13  2  0  0  0
 12 91  1  0  0  0
 13 14  1  0  0  0
 13 31  1  0  0  0
 14 15  2  0  0  0
 14 92  1  0  0  0
 15 93  1  0  0  0
 16 17  2  0  0  0
 16 21  1  0  0  0
 16 31  1  0  0  0
 17 18  1  0  0  0
 17 94  1  0  0  0
 18 19  2  0  0  0
 18 95  1  0  0  0
 19 20  1  0  0  0
 19 24  1  0  0  0
 20 21  2  0  0  0
 20 96  1  0  0  0
 21 23  1  0  0  0
 22 28  1  0  0  0
 22 32  2  0  0  0
 26 27  1  0  0  0
 28 97  1  0  0  0
 28 98  1  0  0  0
 29 99  1  0  0  0
 29100  1  0  0  0
 33 34  1  0  0  0
 33 66  1  0  0  0
 33 70  2  0  0  0
 34 36  1  0  0  0
 34 59  1  0  0  0
 34101  1  0  0  0
 35 44  2  0  0  0
 35 45  1  0  0  0
 35 68  1  0  0  0
 36 56  1  0  0  0
 36102  1  0  0  0
 37 39  1  0  0  0
 37 47  1  0  0  0
 37 66  1  0  0  0
 37103  1  0  0  0
 38 43  2  0  0  0
 38 46  1  0  0  0
 38 47  1  0  0  0
 39 64  1  0  0  0
 39 67  2  0  0  0
 40 52  1  0  0  0
 40 53  2  0  0  0
 40 58  1  0  0  0
 41104  1  0  0  0
 41105  1  0  0  0
 41106  1  0  0  0
 41 48  1  0  0  0
 42 43  1  0  0  0
 42 66  1  0  0  0
 42107  1  0  0  0
 42108  1  0  0  0
 43 44  1  0  0  0
 44109  1  0  0  0
 45 46  2  0  0  0
 45110  1  0  0  0
 46111  1  0  0  0
 47112  1  0  0  0
 47113  1  0  0  0
 48 56  1  0  0  0
 48 65  1  0  0  0
 48114  1  0  0  0
 49 50  1  0  0  0
 49 53  1  0  0  0
 49 64  1  0  0  0
 49115  1  0  0  0
 50 51  1  0  0  0
 50116  1  0  0  0
 50117  1  0  0  0
 51 52  1  0  0  0
 51118  1  0  0  0
 51119  1  0  0  0
 52120  1  0  0  0
 52121  1  0  0  0
 53 54  1  0  0  0
 54 55  2  0  0  0
 54122  1  0  0  0
 55 57  1  0  0  0
 55123  1  0  0  0
 56 69  2  0  0  0
 57 58  2  0  0  0
 57124  1  0  0  0
 58125  1  0  0  0
 59 60  1  0  0  0
 59 61  1  0  0  0
 59 62  1  0  0  0
 60126  1  0  0  0
 60127  1  0  0  0
 60128  1  0  0  0
 61129  1  0  0  0
 61130  1  0  0  0
 61131  1  0  0  0
 62132  1  0  0  0
 62133  1  0  0  0
 62134  1  0  0  0
 63 65  1  0  0  0
 63135  1  0  0  0
 63136  1  0  0  0
 63137  1  0  0  0
 64138  1  0  0  0
 65139  1  0  0  0
 68 78  1  0  0  0
 71 73  2  0  0  0
 71 76  1  0  0  0
 71140  1  0  0  0
 72 74  1  0  0  0
 72 75  2  0  0  0
 72141  1  0  0  0
 73 75  1  0  0  0
 73 77  1  0  0  0
 74 76  2  0  0  0
 74 78  1  0  0  0
 75 79  1  0  0  0
 76 80  1  0  0  0
 77142  1  0  0  0
 77143  1  0  0  0
 78144  1  0  0  0
 78145  1  0  0  0
M  ISO  4   1 100  68 101  77 100  78 101
M  END
> <chiral flag>
0

> <version>
0

> <s_m_source_file>
/data/baiqing/PycharmProjects/Reinvent-master-3.2/result/LINK_invent/BTK/process_docking_weight1_custom_sum_contain_oxygen_bond_distance_aromatic_linkinvent_7_9_3/rearranged_h_0032.sdf

> <i_m_source_file_index>
35

> <r_mmod_Potential_Energy-OPLS-2005>
1979.05126953125

> <r_mmod_Stretch_Energy-OPLS-2005>
815.064270019531

> <r_mmod_Bend_Energy-OPLS-2005>
620.247741699219

> <r_mmod_Torsional_Energy-OPLS-2005>
204.146179199219

> <r_mmod_Improper_Torsional_Energy-OPLS-2005>
10.0311374664307

> <r_mmod_Van_der_Waal_Energy-OPLS-2005>
124.712791442871

> <r_mmod_Electrostatic_Energy-OPLS-2005>
-311.914520263672

> <r_mmod_Solvation_Energy-OPLS-2005>
-204.016799926758

> <b_mmod_Minimization_Converged-OPLS-2005>
0

> <r_mmod_RMS_Derivative-OPLS-2005>
0.223712205886841

$$$$
35
                    3D
 Structure written by MMmdl.
161169  0  0  1  0            999 V2000
  -30.7923  -14.3566   20.6999 C   0  0  0  0  0  0
  -30.4077  -12.2975   19.3964 C   0  0  0  0  0  0
  -29.4788  -12.5485   18.1948 C   0  0  0  0  0  0
  -28.0055  -12.3937   18.6130 C   0  0  0  0  0  0
  -27.6651  -13.2105   19.8863 C   0  0  2  0  0  0
  -28.7062  -12.9606   21.0020 C   0  0  0  0  0  0
  -25.2586  -13.8188   20.5719 C   0  0  0  0  0  0
  -24.1838  -13.0424   20.9181 C   0  0  0  0  0  0
  -24.6402  -11.6903   20.8733 C   0  0  0  0  0  0
  -23.9073  -10.4283   21.0396 C   0  0  0  0  0  0
  -24.3622   -9.4199   21.9175 C   0  0  0  0  0  0
  -23.6293   -8.2230   22.0750 C   0  0  0  0  0  0
  -22.4275   -8.0269   21.3539 C   0  0  0  0  0  0
  -21.9907   -9.0251   20.4645 C   0  0  0  0  0  0
  -22.7239  -10.2121   20.3056 C   0  0  0  0  0  0
  -21.6847   -6.0737   22.5290 C   0  0  0  0  0  0
  -21.4010   -6.5646   23.8225 C   0  0  0  0  0  0
  -21.3660   -5.6801   24.9189 C   0  0  0  0  0  0
  -21.6057   -4.3065   24.7241 C   0  0  0  0  0  0
  -21.8814   -3.8151   23.4363 C   0  0  0  0  0  0
  -21.9192   -4.6967   22.3416 C   0  0  0  0  0  0
  -22.7860  -13.5201   21.1864 C   0  0  0  0  0  0
  -22.1654   -4.2153   21.0985 F   0  0  0  0  0  0
  -21.5637   -3.4548   25.7755 F   0  0  0  0  0  0
  -30.0506  -13.2417   20.4661 N   0  0  0  0  0  0
  -26.3039  -12.9358   20.3448 N   0  0  0  0  0  0
  -25.9337  -11.6507   20.5792 N   0  0  0  0  0  0
  -22.0512  -12.8166   22.0408 N   0  0  0  0  0  0
  -25.4277  -15.1909   20.4137 N   0  0  0  0  0  0
  -31.7788  -14.6619   20.0246 O   0  0  0  0  0  0
  -21.6631   -6.8867   21.4240 O   0  0  0  0  0  0
  -22.3529  -14.5515   20.6739 O   0  0  0  0  0  0
  -24.6154  -31.8687   23.2133 C   0  0  0  0  0  0
  -25.9050  -32.4826   23.8431 C   0  0  1  0  0  0
  -27.2198  -27.4450   20.1051 C   0  0  0  0  0  0
  -25.5893  -33.8632   24.2349 N   0  0  0  0  0  0
  -23.4032  -30.4970   21.5513 C   0  0  2  0  0  0
  -24.8485  -28.9688   20.1099 C   0  0  0  0  0  0
  -22.7425  -29.4698   22.4985 C   0  0  0  0  0  0
  -18.0316  -28.1361   22.8554 C   0  0  0  0  0  0
  -24.1496  -36.7326   23.2638 C   0  0  0  0  0  0
  -25.9322  -30.8393   21.3652 C   0  0  0  0  0  0
  -26.0065  -29.4751   20.7139 C   0  0  0  0  0  0
  -27.1978  -28.7153   20.7186 C   0  0  0  0  0  0
  -26.0601  -26.9659   19.4656 C   0  0  0  0  0  0
  -24.8670  -27.7099   19.4854 C   0  0  0  0  0  0
  -23.6095  -29.8310   20.1645 C   0  0  0  0  0  0
  -25.4113  -36.3115   24.0346 C   0  0  1  0  0  0
  -20.5919  -28.3665   23.1294 C   0  0  2  0  0  0
  -20.6866  -26.9433   22.5308 C   0  0  0  0  0  0
  -19.5725  -26.6307   21.5298 C   0  0  0  0  0  0
  -18.1963  -26.7850   22.1816 C   0  0  0  0  0  0
  -19.1570  -28.8826   23.2920 C   0  0  0  0  0  0
  -18.9509  -30.1447   23.8911 C   0  0  0  0  0  0
  -17.6518  -30.6588   24.0579 C   0  0  0  0  0  0
  -25.9038  -34.9469   23.5145 C   0  0  0  0  0  0
  -16.5405  -29.9100   23.6347 C   0  0  0  0  0  0
  -16.7313  -28.6520   23.0357 C   0  0  0  0  0  0
  -26.4479  -31.6587   25.0758 C   0  0  0  0  0  0
  -25.3752  -31.3671   26.1507 C   0  0  0  0  0  0
  -27.0305  -30.3029   24.6140 C   0  0  0  0  0  0
  -27.6067  -32.4294   25.7503 C   0  0  0  0  0  0
  -27.5587  -37.1811   24.8472 C   0  0  0  0  0  0
  -21.4160  -29.3097   22.3742 N   0  0  0  0  0  0
  -26.4301  -37.3797   23.9416 N   0  0  0  0  0  0
  -24.6686  -31.0816   22.1022 N   0  0  0  0  0  0
  -23.4201  -28.8245   23.3012 O   0  0  0  0  0  0
  -28.3419  -26.6555   20.1368 O   0  0  0  0  0  0
  -26.5601  -34.8918   22.4715 O   0  0  0  0  0  0
  -23.5354  -32.1440   23.7536 O   0  0  0  0  0  0
  -27.8424  -22.3280   22.2892 C   0  0  0  0  0  0
  -26.6368  -23.1279   24.6300 C   0  0  0  0  0  0
  -27.3353  -23.6472   22.3700 C   0  0  0  0  0  0
  -26.6999  -24.0482   23.5693 C   0  0  0  0  0  0
  -27.7032  -21.4698   23.4043 C   0  0  0  0  0  0
  -27.3793  -24.5761   21.1604 C   0  0  0  0  0  0
  -28.1004  -19.9960   23.4024 C   0  0  0  0  0  0
  -29.2027  -19.5487   22.4235 C   0  0  0  0  0  0
  -29.5307  -18.0544   22.6364 C   0  0  0  0  0  0
  -30.7824  -17.5659   21.8905 C   0  0  0  0  0  0
  -31.2488  -16.1655   22.3438 C   0  0  0  0  0  0
  -28.3824  -25.7581   21.2615 C   0  0  0  0  0  0
  -27.1230  -21.8722   24.5548 N   0  0  0  0  0  0
  -30.4518  -15.0698   21.7833 N   0  0  0  0  0  0
  -25.9661  -25.6044   23.7545 Cl  0  0  0  0  0  0
  -31.4525  -12.3871   19.0952 H   0  0  0  0  0  0
  -30.2900  -11.2745   19.7589 H   0  0  0  0  0  0
  -29.7137  -11.8605   17.3815 H   0  0  0  0  0  0
  -29.6448  -13.5540   17.8026 H   0  0  0  0  0  0
  -27.8149  -11.3343   18.7881 H   0  0  0  0  0  0
  -27.3506  -12.6922   17.7931 H   0  0  0  0  0  0
  -27.7188  -14.2647   19.6139 H   0  0  0  0  0  0
  -28.6675  -11.9186   21.3245 H   0  0  0  0  0  0
  -28.4601  -13.5496   21.8862 H   0  0  0  0  0  0
  -25.2764   -9.5681   22.4745 H   0  0  0  0  0  0
  -24.0025   -7.4624   22.7461 H   0  0  0  0  0  0
  -21.0852   -8.8762   19.8939 H   0  0  0  0  0  0
  -22.3705  -10.9662   19.6173 H   0  0  0  0  0  0
  -21.1976   -7.6154   23.9731 H   0  0  0  0  0  0
  -21.1498   -6.0529   25.9094 H   0  0  0  0  0  0
  -22.0590   -2.7614   23.2871 H   0  0  0  0  0  0
  -22.4146  -11.9817   22.4774 H   0  0  0  0  0  0
  -21.1148  -13.1203   22.2668 H   0  0  0  0  0  0
  -24.6633  -15.8483   20.5273 H   0  0  0  0  0  0
  -26.2937  -15.6342   20.1288 H   0  0  0  0  0  0
  -26.7130  -32.5554   23.1201 H   0  0  0  0  0  0
  -25.0027  -33.9796   25.0479 H   0  0  0  0  0  0
  -22.6923  -31.3144   21.4107 H   0  0  0  0  0  0
  -23.3757  -35.9661   23.3332 H   0  0  0  0  0  0
  -24.3602  -36.8933   22.2052 H   0  0  0  0  0  0
  -23.7244  -37.6538   23.6641 H   0  0  0  0  0  0
  -26.0437  -31.6006   20.5915 H   0  0  0  0  0  0
  -26.8225  -30.8972   21.9800 H   0  0  0  0  0  0
  -28.0883  -29.0893   21.2062 H   0  0  0  0  0  0
  -26.0757  -26.0014   18.9779 H   0  0  0  0  0  0
  -23.9759  -27.3129   19.0179 H   0  0  0  0  0  0
  -23.7128  -30.6043   19.4031 H   0  0  0  0  0  0
  -22.7337  -29.2487   19.8714 H   0  0  0  0  0  0
  -25.1276  -36.1988   25.0841 H   0  0  0  0  0  0
  -21.0024  -28.3168   24.1415 H   0  0  0  0  0  0
  -20.6102  -26.2224   23.3470 H   0  0  0  0  0  0
  -21.6622  -26.7647   22.0783 H   0  0  0  0  0  0
  -19.6884  -25.6185   21.1411 H   0  0  0  0  0  0
  -19.6556  -27.3068   20.6788 H   0  0  0  0  0  0
  -17.4167  -26.6508   21.4306 H   0  0  0  0  0  0
  -18.0467  -26.0074   22.9324 H   0  0  0  0  0  0
  -19.8000  -30.7245   24.2263 H   0  0  0  0  0  0
  -17.5117  -31.6276   24.5175 H   0  0  0  0  0  0
  -15.5412  -30.3029   23.7701 H   0  0  0  0  0  0
  -15.8714  -28.0892   22.7008 H   0  0  0  0  0  0
  -24.5937  -30.7010   25.7843 H   0  0  0  0  0  0
  -24.8929  -32.2816   26.4976 H   0  0  0  0  0  0
  -25.8127  -30.8826   27.0250 H   0  0  0  0  0  0
  -26.2857  -29.6776   24.1212 H   0  0  0  0  0  0
  -27.4085  -29.7278   25.4600 H   0  0  0  0  0  0
  -27.8686  -30.4367   23.9302 H   0  0  0  0  0  0
  -27.2715  -33.3593   26.2121 H   0  0  0  0  0  0
  -28.3852  -32.6863   25.0301 H   0  0  0  0  0  0
  -28.0769  -31.8390   26.5387 H   0  0  0  0  0  0
  -28.2593  -38.0112   24.7511 H   0  0  0  0  0  0
  -28.1079  -36.2640   24.6294 H   0  0  0  0  0  0
  -27.2307  -37.1467   25.8874 H   0  0  0  0  0  0
  -20.9300  -29.8838   21.7001 H   0  0  0  0  0  0
  -26.0199  -38.2888   24.1402 H   0  0  0  0  0  0
  -28.2911  -21.9793   21.3696 H   0  0  0  0  0  0
  -26.1545  -23.3992   25.5581 H   0  0  0  0  0  0
  -26.3628  -24.9449   21.0457 H   0  0  0  0  0  0
  -27.5829  -23.9965   20.2611 H   0  0  0  0  0  0
  -27.1982  -19.4083   23.2232 H   0  0  0  0  0  0
  -28.4219  -19.7481   24.4161 H   0  0  0  0  0  0
  -30.0954  -20.1551   22.5859 H   0  0  0  0  0  0
  -28.8883  -19.7177   21.3923 H   0  0  0  0  0  0
  -28.6697  -17.4450   22.3563 H   0  0  0  0  0  0
  -29.6839  -17.8822   23.7032 H   0  0  0  0  0  0
  -31.5940  -18.2671   22.0898 H   0  0  0  0  0  0
  -30.6238  -17.5929   20.8104 H   0  0  0  0  0  0
  -31.2238  -16.0879   23.4323 H   0  0  0  0  0  0
  -32.3000  -16.0356   22.0773 H   0  0  0  0  0  0
  -29.3941  -25.3572   21.3303 H   0  0  0  0  0  0
  -28.2227  -26.3234   22.1833 H   0  0  0  0  0  0
  -29.6593  -14.7449   22.3168 H   0  0  0  0  0  0
  1 25  1  0  0  0
  1 30  2  0  0  0
  1 84  1  0  0  0
  2  3  1  0  0  0
  2 25  1  0  0  0
  2 86  1  0  0  0
  2 87  1  0  0  0
  3  4  1  0  0  0
  3 88  1  0  0  0
  3 89  1  0  0  0
  4  5  1  0  0  0
  4 90  1  0  0  0
  4 91  1  0  0  0
  5  6  1  0  0  0
  5 26  1  0  0  0
  5 92  1  0  0  0
  6 25  1  0  0  0
  6 93  1  0  0  0
  6 94  1  0  0  0
  7  8  2  0  0  0
  7 26  1  0  0  0
  7 29  1  0  0  0
  8  9  1  0  0  0
  8 22  1  0  0  0
  9 10  1  0  0  0
  9 27  2  0  0  0
 10 11  2  0  0  0
 10 15  1  0  0  0
 11 12  1  0  0  0
 11 95  1  0  0  0
 12 13  2  0  0  0
 12 96  1  0  0  0
 13 14  1  0  0  0
 13 31  1  0  0  0
 14 15  2  0  0  0
 14 97  1  0  0  0
 15 98  1  0  0  0
 16 17  2  0  0  0
 16 21  1  0  0  0
 16 31  1  0  0  0
 17 18  1  0  0  0
 17 99  1  0  0  0
 18 19  2  0  0  0
 18100  1  0  0  0
 19 20  1  0  0  0
 19 24  1  0  0  0
 20 21  2  0  0  0
 20101  1  0  0  0
 21 23  1  0  0  0
 22 28  1  0  0  0
 22 32  2  0  0  0
 26 27  1  0  0  0
 28102  1  0  0  0
 28103  1  0  0  0
 29104  1  0  0  0
 29105  1  0  0  0
 33 34  1  0  0  0
 33 66  1  0  0  0
 33 70  2  0  0  0
 34 36  1  0  0  0
 34 59  1  0  0  0
 34106  1  0  0  0
 35 44  2  0  0  0
 35 45  1  0  0  0
 35 68  1  0  0  0
 36 56  1  0  0  0
 36107  1  0  0  0
 37 39  1  0  0  0
 37 47  1  0  0  0
 37 66  1  0  0  0
 37108  1  0  0  0
 38 43  2  0  0  0
 38 46  1  0  0  0
 38 47  1  0  0  0
 39 64  1  0  0  0
 39 67  2  0  0  0
 40 52  1  0  0  0
 40 53  2  0  0  0
 40 58  1  0  0  0
 41109  1  0  0  0
 41110  1  0  0  0
 41111  1  0  0  0
 41 48  1  0  0  0
 42 43  1  0  0  0
 42 66  1  0  0  0
 42112  1  0  0  0
 42113  1  0  0  0
 43 44  1  0  0  0
 44114  1  0  0  0
 45 46  2  0  0  0
 45115  1  0  0  0
 46116  1  0  0  0
 47117  1  0  0  0
 47118  1  0  0  0
 48 56  1  0  0  0
 48 65  1  0  0  0
 48119  1  0  0  0
 49 50  1  0  0  0
 49 53  1  0  0  0
 49 64  1  0  0  0
 49120  1  0  0  0
 50 51  1  0  0  0
 50121  1  0  0  0
 50122  1  0  0  0
 51 52  1  0  0  0
 51123  1  0  0  0
 51124  1  0  0  0
 52125  1  0  0  0
 52126  1  0  0  0
 53 54  1  0  0  0
 54 55  2  0  0  0
 54127  1  0  0  0
 55 57  1  0  0  0
 55128  1  0  0  0
 56 69  2  0  0  0
 57 58  2  0  0  0
 57129  1  0  0  0
 58130  1  0  0  0
 59 60  1  0  0  0
 59 61  1  0  0  0
 59 62  1  0  0  0
 60131  1  0  0  0
 60132  1  0  0  0
 60133  1  0  0  0
 61134  1  0  0  0
 61135  1  0  0  0
 61136  1  0  0  0
 62137  1  0  0  0
 62138  1  0  0  0
 62139  1  0  0  0
 63 65  1  0  0  0
 63140  1  0  0  0
 63141  1  0  0  0
 63142  1  0  0  0
 64143  1  0  0  0
 65144  1  0  0  0
 68 82  1  0  0  0
 71 73  2  0  0  0
 71 75  1  0  0  0
 71145  1  0  0  0
 72 74  2  0  0  0
 72 83  1  0  0  0
 72146  1  0  0  0
 73 74  1  0  0  0
 73 76  1  0  0  0
 74 85  1  0  0  0
 75 77  1  0  0  0
 75 83  2  0  0  0
 76 82  1  0  0  0
 76147  1  0  0  0
 76148  1  0  0  0
 77 78  1  0  0  0
 77149  1  0  0  0
 77150  1  0  0  0
 78 79  1  0  0  0
 78151  1  0  0  0
 78152  1  0  0  0
 79 80  1  0  0  0
 79153  1  0  0  0
 79154  1  0  0  0
 80 81  1  0  0  0
 80155  1  0  0  0
 80156  1  0  0  0
 81 84  1  0  0  0
 81157  1  0  0  0
 81158  1  0  0  0
 82159  1  0  0  0
 82160  1  0  0  0
 84161  1  0  0  0
M  ISO  4   1 100  68 101  82 101  84 100
M  END
> <chiral flag>
0

> <version>
0

> <s_m_source_file>
/data/baiqing/PycharmProjects/Reinvent-master-3.2/result/LINK_invent/BTK/process_docking_weight1_custom_sum_contain_oxygen_bond_distance_aromatic_linkinvent_7_9_3/rearranged_h_0032.sdf

> <i_m_source_file_index>
36

> <r_mmod_Potential_Energy-OPLS-2005>
-153.82063293457

> <r_mmod_Stretch_Energy-OPLS-2005>
34.2905807495117

> <r_mmod_Bend_Energy-OPLS-2005>
92.2498474121094

> <r_mmod_Torsional_Energy-OPLS-2005>
221.770401000977

> <r_mmod_Improper_Torsional_Energy-OPLS-2005>
2.75293707847595

> <r_mmod_Van_der_Waal_Energy-OPLS-2005>
149.09260559082

> <r_mmod_Electrostatic_Energy-OPLS-2005>
-447.310974121094

> <r_mmod_Solvation_Energy-OPLS-2005>
-216.819534301758

> <b_mmod_Minimization_Converged-OPLS-2005>
0

> <r_mmod_RMS_Derivative-OPLS-2005>
3.11450099945068

$$$$
36
                    3D
 Structure written by MMmdl.
156164  0  0  1  0            999 V2000
  -30.7210  -14.4512   20.6159 C   0  0  0  0  0  0
  -30.4182  -12.3152   19.4087 C   0  0  0  0  0  0
  -29.4877  -12.5144   18.1963 C   0  0  0  0  0  0
  -28.0102  -12.3714   18.6111 C   0  0  0  0  0  0
  -27.6589  -13.2075   19.8705 C   0  0  2  0  0  0
  -28.6995  -12.9826   20.9889 C   0  0  0  0  0  0
  -25.2578  -13.8159   20.5671 C   0  0  0  0  0  0
  -24.1828  -13.0437   20.9167 C   0  0  0  0  0  0
  -24.6380  -11.6904   20.8716 C   0  0  0  0  0  0
  -23.9043  -10.4291   21.0392 C   0  0  0  0  0  0
  -24.3602   -9.4210   21.9174 C   0  0  0  0  0  0
  -23.6285   -8.2241   22.0750 C   0  0  0  0  0  0
  -22.4267   -8.0273   21.3542 C   0  0  0  0  0  0
  -21.9897   -9.0237   20.4640 C   0  0  0  0  0  0
  -22.7216  -10.2122   20.3044 C   0  0  0  0  0  0
  -21.6856   -6.0727   22.5280 C   0  0  0  0  0  0
  -21.4012   -6.5632   23.8210 C   0  0  0  0  0  0
  -21.3659   -5.6790   24.9173 C   0  0  0  0  0  0
  -21.6046   -4.3053   24.7229 C   0  0  0  0  0  0
  -21.8819   -3.8140   23.4352 C   0  0  0  0  0  0
  -21.9192   -4.6953   22.3408 C   0  0  0  0  0  0
  -22.7853  -13.5234   21.1839 C   0  0  0  0  0  0
  -22.1663   -4.2139   21.0987 F   0  0  0  0  0  0
  -21.5628   -3.4539   25.7742 F   0  0  0  0  0  0
  -30.0303  -13.2924   20.4383 N   0  0  0  0  0  0
  -26.3005  -12.9327   20.3334 N   0  0  0  0  0  0
  -25.9307  -11.6484   20.5736 N   0  0  0  0  0  0
  -22.0499  -12.8225   22.0397 N   0  0  0  0  0  0
  -25.4330  -15.1876   20.4099 N   0  0  0  0  0  0
  -31.8234  -14.6589   20.1011 O   0  0  0  0  0  0
  -21.6639   -6.8866   21.4240 O   0  0  0  0  0  0
  -22.3541  -14.5544   20.6695 O   0  0  0  0  0  0
  -24.6159  -31.8684   23.2090 C   0  0  0  0  0  0
  -25.9054  -32.4816   23.8381 C   0  0  1  0  0  0
  -27.2285  -27.4212   20.0933 C   0  0  0  0  0  0
  -25.5911  -33.8614   24.2312 N   0  0  0  0  0  0
  -23.4036  -30.4939   21.5510 C   0  0  2  0  0  0
  -24.8468  -28.9603   20.1141 C   0  0  0  0  0  0
  -22.7424  -29.4664   22.4982 C   0  0  0  0  0  0
  -18.0276  -28.1387   22.8483 C   0  0  0  0  0  0
  -24.1490  -36.7304   23.2641 C   0  0  0  0  0  0
  -25.9352  -30.8289   21.3648 C   0  0  0  0  0  0
  -26.0099  -29.4647   20.7085 C   0  0  0  0  0  0
  -27.2039  -28.7041   20.6910 C   0  0  0  0  0  0
  -26.0413  -26.9363   19.4945 C   0  0  0  0  0  0
  -24.8585  -27.6963   19.5044 C   0  0  0  0  0  0
  -23.6110  -29.8297   20.1646 C   0  0  0  0  0  0
  -25.4110  -36.3104   24.0340 C   0  0  1  0  0  0
  -20.5870  -28.3669   23.1321 C   0  0  2  0  0  0
  -20.6766  -26.9406   22.5418 C   0  0  0  0  0  0
  -19.5738  -26.6393   21.5218 C   0  0  0  0  0  0
  -18.1916  -26.7930   22.1627 C   0  0  0  0  0  0
  -19.1528  -28.8842   23.2898 C   0  0  0  0  0  0
  -18.9459  -30.1450   23.8902 C   0  0  0  0  0  0
  -17.6463  -30.6590   24.0568 C   0  0  0  0  0  0
  -25.9043  -34.9475   23.5126 C   0  0  0  0  0  0
  -16.5350  -29.9098   23.6333 C   0  0  0  0  0  0
  -16.7265  -28.6519   23.0339 C   0  0  0  0  0  0
  -26.4468  -31.6603   25.0722 C   0  0  0  0  0  0
  -25.3730  -31.3734   26.1469 C   0  0  0  0  0  0
  -27.0294  -30.3043   24.6105 C   0  0  0  0  0  0
  -27.6029  -32.4334   25.7490 C   0  0  0  0  0  0
  -27.5583  -37.1806   24.8469 C   0  0  0  0  0  0
  -21.4151  -29.3036   22.3727 N   0  0  0  0  0  0
  -26.4293  -37.3797   23.9415 N   0  0  0  0  0  0
  -24.6699  -31.0785   22.0995 N   0  0  0  0  0  0
  -23.4196  -28.8203   23.3031 O   0  0  0  0  0  0
  -28.3955  -26.6764   20.1074 O   0  0  0  0  0  0
  -26.5606  -34.8930   22.4685 O   0  0  0  0  0  0
  -23.5351  -32.1429   23.7486 O   0  0  0  0  0  0
  -29.3175  -21.0067   21.9991 C   0  0  0  0  0  0
  -29.4116  -22.1337   19.4385 C   0  0  0  0  0  0
  -29.2913  -20.1467   20.8781 C   0  0  0  0  0  0
  -29.4477  -22.9931   20.5619 C   0  0  0  0  0  0
  -29.3326  -20.7283   19.5874 C   0  0  0  0  0  0
  -29.3897  -22.4091   21.8518 C   0  0  0  0  0  0
  -29.2015  -18.6272   21.0985 C   0  0  0  0  0  0
  -29.5836  -24.5131   20.3684 C   0  0  0  0  0  0
  -30.5631  -17.8980   20.9916 C   0  0  0  0  0  0
  -30.7295  -16.6265   21.8674 C   0  0  0  0  0  0
  -28.2486  -25.2423   20.1099 C   0  0  0  0  0  0
  -30.1080  -15.3951   21.3544 N   0  0  0  0  0  0
  -29.2926  -19.7406   18.1709 Cl  0  0  0  0  0  0
  -29.4064  -23.3836   23.2789 Cl  0  0  0  0  0  0
  -31.4617  -12.4177   19.1058 H   0  0  0  0  0  0
  -30.3228  -11.3020   19.8021 H   0  0  0  0  0  0
  -29.7279  -11.7928   17.4143 H   0  0  0  0  0  0
  -29.6534  -13.5020   17.7630 H   0  0  0  0  0  0
  -27.8195  -11.3148   18.8021 H   0  0  0  0  0  0
  -27.3591  -12.6503   17.7817 H   0  0  0  0  0  0
  -27.7051  -14.2569   19.5778 H   0  0  0  0  0  0
  -28.6781  -11.9435   21.3201 H   0  0  0  0  0  0
  -28.4517  -13.5718   21.8725 H   0  0  0  0  0  0
  -25.2749   -9.5691   22.4742 H   0  0  0  0  0  0
  -23.9997   -7.4635   22.7475 H   0  0  0  0  0  0
  -21.0826   -8.8739   19.8951 H   0  0  0  0  0  0
  -22.3664  -10.9648   19.6145 H   0  0  0  0  0  0
  -21.2007   -7.6141   23.9709 H   0  0  0  0  0  0
  -21.1482   -6.0523   25.9076 H   0  0  0  0  0  0
  -22.0602   -2.7602   23.2858 H   0  0  0  0  0  0
  -22.4111  -11.9879   22.4772 H   0  0  0  0  0  0
  -21.1114  -13.1240   22.2603 H   0  0  0  0  0  0
  -24.6719  -15.8493   20.5175 H   0  0  0  0  0  0
  -26.2930  -15.6206   20.0965 H   0  0  0  0  0  0
  -26.7119  -32.5512   23.1137 H   0  0  0  0  0  0
  -25.0060  -33.9767   25.0456 H   0  0  0  0  0  0
  -22.6924  -31.3111   21.4129 H   0  0  0  0  0  0
  -23.3756  -35.9638   23.3316 H   0  0  0  0  0  0
  -24.3578  -36.8907   22.2054 H   0  0  0  0  0  0
  -23.7244  -37.6516   23.6642 H   0  0  0  0  0  0
  -26.0566  -31.5967   20.5990 H   0  0  0  0  0  0
  -26.8204  -30.8748   21.9877 H   0  0  0  0  0  0
  -28.1013  -29.0907   21.1527 H   0  0  0  0  0  0
  -26.0043  -25.9729   19.0083 H   0  0  0  0  0  0
  -23.9650  -27.3017   19.0412 H   0  0  0  0  0  0
  -23.7226  -30.6070   19.4078 H   0  0  0  0  0  0
  -22.7323  -29.2556   19.8646 H   0  0  0  0  0  0
  -25.1290  -36.1965   25.0837 H   0  0  0  0  0  0
  -20.9946  -28.3219   24.1448 H   0  0  0  0  0  0
  -20.5687  -26.2266   23.3597 H   0  0  0  0  0  0
  -21.6630  -26.7455   22.1195 H   0  0  0  0  0  0
  -19.6901  -25.6313   21.1225 H   0  0  0  0  0  0
  -19.6682  -27.3218   20.6762 H   0  0  0  0  0  0
  -17.4190  -26.6690   21.4026 H   0  0  0  0  0  0
  -18.0306  -26.0078   22.9026 H   0  0  0  0  0  0
  -19.7943  -30.7269   24.2261 H   0  0  0  0  0  0
  -17.5026  -31.6266   24.5179 H   0  0  0  0  0  0
  -15.5352  -30.3003   23.7662 H   0  0  0  0  0  0
  -15.8663  -28.0853   22.7033 H   0  0  0  0  0  0
  -24.5893  -30.7081   25.7830 H   0  0  0  0  0  0
  -24.8924  -32.2902   26.4900 H   0  0  0  0  0  0
  -25.8077  -30.8928   27.0241 H   0  0  0  0  0  0
  -26.2842  -29.6817   24.1138 H   0  0  0  0  0  0
  -27.4052  -29.7267   25.4563 H   0  0  0  0  0  0
  -27.8684  -30.4370   23.9266 H   0  0  0  0  0  0
  -27.2625  -33.3619   26.2084 H   0  0  0  0  0  0
  -28.3826  -32.6923   25.0315 H   0  0  0  0  0  0
  -28.0706  -31.8456   26.5397 H   0  0  0  0  0  0
  -28.2609  -38.0097   24.7506 H   0  0  0  0  0  0
  -28.1070  -36.2625   24.6300 H   0  0  0  0  0  0
  -27.2297  -37.1466   25.8874 H   0  0  0  0  0  0
  -20.9307  -29.8780   21.6965 H   0  0  0  0  0  0
  -26.0183  -38.2882   24.1404 H   0  0  0  0  0  0
  -29.2780  -20.5902   22.9954 H   0  0  0  0  0  0
  -29.4505  -22.5540   18.4440 H   0  0  0  0  0  0
  -28.4826  -18.1870   20.4067 H   0  0  0  0  0  0
  -28.7810  -18.4615   22.0908 H   0  0  0  0  0  0
  -30.2582  -24.6974   19.5321 H   0  0  0  0  0  0
  -30.0770  -24.9560   21.2326 H   0  0  0  0  0  0
  -31.3250  -18.5968   21.3412 H   0  0  0  0  0  0
  -30.8136  -17.6976   19.9496 H   0  0  0  0  0  0
  -30.3411  -16.8176   22.8684 H   0  0  0  0  0  0
  -31.7967  -16.4435   22.0110 H   0  0  0  0  0  0
  -27.5323  -24.9614   20.8843 H   0  0  0  0  0  0
  -27.8564  -24.8955   19.1536 H   0  0  0  0  0  0
  -29.1916  -15.1600   21.7075 H   0  0  0  0  0  0
  1 25  1  0  0  0
  1 30  2  0  0  0
  1 82  1  0  0  0
  2  3  1  0  0  0
  2 25  1  0  0  0
  2 85  1  0  0  0
  2 86  1  0  0  0
  3  4  1  0  0  0
  3 87  1  0  0  0
  3 88  1  0  0  0
  4  5  1  0  0  0
  4 89  1  0  0  0
  4 90  1  0  0  0
  5  6  1  0  0  0
  5 26  1  0  0  0
  5 91  1  0  0  0
  6 25  1  0  0  0
  6 92  1  0  0  0
  6 93  1  0  0  0
  7  8  2  0  0  0
  7 26  1  0  0  0
  7 29  1  0  0  0
  8  9  1  0  0  0
  8 22  1  0  0  0
  9 10  1  0  0  0
  9 27  2  0  0  0
 10 11  2  0  0  0
 10 15  1  0  0  0
 11 12  1  0  0  0
 11 94  1  0  0  0
 12 13  2  0  0  0
 12 95  1  0  0  0
 13 14  1  0  0  0
 13 31  1  0  0  0
 14 15  2  0  0  0
 14 96  1  0  0  0
 15 97  1  0  0  0
 16 17  2  0  0  0
 16 21  1  0  0  0
 16 31  1  0  0  0
 17 18  1  0  0  0
 17 98  1  0  0  0
 18 19  2  0  0  0
 18 99  1  0  0  0
 19 20  1  0  0  0
 19 24  1  0  0  0
 20 21  2  0  0  0
 20100  1  0  0  0
 21 23  1  0  0  0
 22 28  1  0  0  0
 22 32  2  0  0  0
 26 27  1  0  0  0
 28101  1  0  0  0
 28102  1  0  0  0
 29103  1  0  0  0
 29104  1  0  0  0
 33 34  1  0  0  0
 33 66  1  0  0  0
 33 70  2  0  0  0
 34 36  1  0  0  0
 34 59  1  0  0  0
 34105  1  0  0  0
 35 44  2  0  0  0
 35 45  1  0  0  0
 35 68  1  0  0  0
 36 56  1  0  0  0
 36106  1  0  0  0
 37 39  1  0  0  0
 37 47  1  0  0  0
 37 66  1  0  0  0
 37107  1  0  0  0
 38 43  2  0  0  0
 38 46  1  0  0  0
 38 47  1  0  0  0
 39 64  1  0  0  0
 39 67  2  0  0  0
 40 52  1  0  0  0
 40 53  2  0  0  0
 40 58  1  0  0  0
 41108  1  0  0  0
 41109  1  0  0  0
 41110  1  0  0  0
 41 48  1  0  0  0
 42 43  1  0  0  0
 42 66  1  0  0  0
 42111  1  0  0  0
 42112  1  0  0  0
 43 44  1  0  0  0
 44113  1  0  0  0
 45 46  2  0  0  0
 45114  1  0  0  0
 46115  1  0  0  0
 47116  1  0  0  0
 47117  1  0  0  0
 48 56  1  0  0  0
 48 65  1  0  0  0
 48118  1  0  0  0
 49 50  1  0  0  0
 49 53  1  0  0  0
 49 64  1  0  0  0
 49119  1  0  0  0
 50 51  1  0  0  0
 50120  1  0  0  0
 50121  1  0  0  0
 51 52  1  0  0  0
 51122  1  0  0  0
 51123  1  0  0  0
 52124  1  0  0  0
 52125  1  0  0  0
 53 54  1  0  0  0
 54 55  2  0  0  0
 54126  1  0  0  0
 55 57  1  0  0  0
 55127  1  0  0  0
 56 69  2  0  0  0
 57 58  2  0  0  0
 57128  1  0  0  0
 58129  1  0  0  0
 59 60  1  0  0  0
 59 61  1  0  0  0
 59 62  1  0  0  0
 60130  1  0  0  0
 60131  1  0  0  0
 60132  1  0  0  0
 61133  1  0  0  0
 61134  1  0  0  0
 61135  1  0  0  0
 62136  1  0  0  0
 62137  1  0  0  0
 62138  1  0  0  0
 63 65  1  0  0  0
 63139  1  0  0  0
 63140  1  0  0  0
 63141  1  0  0  0
 64142  1  0  0  0
 65143  1  0  0  0
 68 81  1  0  0  0
 71 73  2  0  0  0
 71 76  1  0  0  0
 71144  1  0  0  0
 72 74  1  0  0  0
 72 75  2  0  0  0
 72145  1  0  0  0
 73 75  1  0  0  0
 73 77  1  0  0  0
 74 76  2  0  0  0
 74 78  1  0  0  0
 75 83  1  0  0  0
 76 84  1  0  0  0
 77 79  1  0  0  0
 77146  1  0  0  0
 77147  1  0  0  0
 78 81  1  0  0  0
 78148  1  0  0  0
 78149  1  0  0  0
 79 80  1  0  0  0
 79150  1  0  0  0
 79151  1  0  0  0
 80 82  1  0  0  0
 80152  1  0  0  0
 80153  1  0  0  0
 81154  1  0  0  0
 81155  1  0  0  0
 82156  1  0  0  0
M  ISO  4   1 100  68 101  81 101  82 100
M  END
> <chiral flag>
0

> <version>
0

> <s_m_source_file>
/data/baiqing/PycharmProjects/Reinvent-master-3.2/result/LINK_invent/BTK/process_docking_weight1_custom_sum_contain_oxygen_bond_distance_aromatic_linkinvent_7_9_3/rearranged_h_0032.sdf

> <i_m_source_file_index>
37

> <r_mmod_Potential_Energy-OPLS-2005>
-74.4281387329102

> <r_mmod_Stretch_Energy-OPLS-2005>
38.4566421508789

> <r_mmod_Bend_Energy-OPLS-2005>
94.031608581543

> <r_mmod_Torsional_Energy-OPLS-2005>
204.330337524414

> <r_mmod_Improper_Torsional_Energy-OPLS-2005>
2.11290121078491

> <r_mmod_Van_der_Waal_Energy-OPLS-2005>
149.972915649414

> <r_mmod_Electrostatic_Energy-OPLS-2005>
-368.871307373047

> <r_mmod_Solvation_Energy-OPLS-2005>
-206.73420715332

> <b_mmod_Minimization_Converged-OPLS-2005>
0

> <r_mmod_RMS_Derivative-OPLS-2005>
1.17438125610352

$$$$
37
                    3D
 Structure written by MMmdl.
159167  0  0  1  0            999 V2000
  -30.6028  -14.7132   20.4674 C   0  0  0  0  0  0
  -30.4297  -12.4373   19.4651 C   0  0  0  0  0  0
  -29.5020  -12.5006   18.2321 C   0  0  0  0  0  0
  -28.0271  -12.3329   18.6460 C   0  0  0  0  0  0
  -27.6395  -13.2270   19.8530 C   0  0  2  0  0  0
  -28.6829  -13.1382   20.9866 C   0  0  0  0  0  0
  -25.2480  -13.8197   20.5690 C   0  0  0  0  0  0
  -24.1767  -13.0443   20.9207 C   0  0  0  0  0  0
  -24.6363  -11.6925   20.8756 C   0  0  0  0  0  0
  -23.9052  -10.4299   21.0416 C   0  0  0  0  0  0
  -24.3615   -9.4210   21.9182 C   0  0  0  0  0  0
  -23.6300   -8.2237   22.0749 C   0  0  0  0  0  0
  -22.4278   -8.0275   21.3552 C   0  0  0  0  0  0
  -21.9910   -9.0239   20.4646 C   0  0  0  0  0  0
  -22.7227  -10.2127   20.3059 C   0  0  0  0  0  0
  -21.6847   -6.0727   22.5282 C   0  0  0  0  0  0
  -21.3996   -6.5635   23.8206 C   0  0  0  0  0  0
  -21.3667   -5.6798   24.9176 C   0  0  0  0  0  0
  -21.6057   -4.3061   24.7236 C   0  0  0  0  0  0
  -21.8816   -3.8143   23.4355 C   0  0  0  0  0  0
  -21.9189   -4.6955   22.3407 C   0  0  0  0  0  0
  -22.7791  -13.5205   21.1887 C   0  0  0  0  0  0
  -22.1657   -4.2136   21.0988 F   0  0  0  0  0  0
  -21.5652   -3.4551   25.7755 F   0  0  0  0  0  0
  -29.9848  -13.4885   20.4063 N   0  0  0  0  0  0
  -26.2908  -12.9396   20.3296 N   0  0  0  0  0  0
  -25.9290  -11.6546   20.5754 N   0  0  0  0  0  0
  -22.0469  -12.8184   22.0457 N   0  0  0  0  0  0
  -25.4201  -15.1917   20.4099 N   0  0  0  0  0  0
  -31.7911  -14.8229   20.1534 O   0  0  0  0  0  0
  -21.6647   -6.8869   21.4241 O   0  0  0  0  0  0
  -22.3483  -14.5526   20.6759 O   0  0  0  0  0  0
  -24.6286  -31.8557   23.1972 C   0  0  0  0  0  0
  -25.9133  -32.4735   23.8329 C   0  0  1  0  0  0
  -27.2262  -27.2830   20.1347 C   0  0  0  0  0  0
  -25.5923  -33.8539   24.2251 N   0  0  0  0  0  0
  -23.4248  -30.4779   21.5397 C   0  0  2  0  0  0
  -24.8716  -28.9109   20.1213 C   0  0  0  0  0  0
  -22.7472  -29.4633   22.4925 C   0  0  0  0  0  0
  -18.0285  -28.1387   22.8488 C   0  0  0  0  0  0
  -24.1470  -36.7288   23.2649 C   0  0  0  0  0  0
  -25.9660  -30.7766   21.3704 C   0  0  0  0  0  0
  -26.0425  -29.3954   20.7214 C   0  0  0  0  0  0
  -27.2248  -28.5940   20.7132 C   0  0  0  0  0  0
  -26.0349  -26.8445   19.5268 C   0  0  0  0  0  0
  -24.8699  -27.6410   19.5183 C   0  0  0  0  0  0
  -23.6426  -29.7992   20.1621 C   0  0  0  0  0  0
  -25.4099  -36.3055   24.0324 C   0  0  1  0  0  0
  -20.5876  -28.3727   23.1247 C   0  0  2  0  0  0
  -20.6760  -26.9443   22.5397 C   0  0  0  0  0  0
  -19.5743  -26.6392   21.5198 C   0  0  0  0  0  0
  -18.1918  -26.7928   22.1621 C   0  0  0  0  0  0
  -19.1530  -28.8872   23.2861 C   0  0  0  0  0  0
  -18.9473  -30.1458   23.8904 C   0  0  0  0  0  0
  -17.6480  -30.6591   24.0561 C   0  0  0  0  0  0
  -25.9050  -34.9429   23.5087 C   0  0  0  0  0  0
  -16.5365  -29.9104   23.6322 C   0  0  0  0  0  0
  -16.7277  -28.6514   23.0362 C   0  0  0  0  0  0
  -26.4494  -31.6579   25.0736 C   0  0  0  0  0  0
  -25.3707  -31.3763   26.1473 C   0  0  0  0  0  0
  -27.0356  -30.2990   24.6230 C   0  0  0  0  0  0
  -27.6039  -32.4351   25.7503 C   0  0  0  0  0  0
  -27.5564  -37.1775   24.8456 C   0  0  0  0  0  0
  -21.4185  -29.3081   22.3647 N   0  0  0  0  0  0
  -26.4264  -37.3759   23.9422 N   0  0  0  0  0  0
  -24.6925  -31.0542   22.0926 N   0  0  0  0  0  0
  -23.4164  -28.8191   23.3049 O   0  0  0  0  0  0
  -28.3559  -26.4537   20.0793 O   0  0  0  0  0  0
  -26.5617  -34.8926   22.4660 O   0  0  0  0  0  0
  -23.5452  -32.1387   23.7285 O   0  0  0  0  0  0
  -30.2816  -22.7702   19.3984 C   0  0  0  0  0  0
  -28.7207  -21.1013   20.2146 C   0  0  0  0  0  0
  -29.0102  -22.4957   19.9238 C   0  0  0  0  0  0
  -31.1910  -21.7406   19.0879 C   0  0  0  0  0  0
  -29.6331  -20.0006   19.9289 C   0  0  0  0  0  0
  -30.8585  -20.3705   19.2921 C   0  0  0  0  0  0
  -32.5234  -22.1535   18.4771 C   0  0  0  0  0  0
  -31.8101  -19.3139   18.7446 C   0  0  0  0  0  0
  -27.9876  -23.7111   19.9936 C   0  0  0  0  0  0
  -29.2235  -18.4598   20.1396 C   0  0  0  0  0  0
  -30.2405  -17.3068   20.6763 C   0  0  0  0  0  0
  -28.3618  -25.1033   20.7205 C   0  0  0  0  0  0
  -29.8213  -15.8372   20.6801 N   0  0  0  0  0  0
  -31.4675  -12.5702   19.1560 H   0  0  0  0  0  0
  -30.3826  -11.4565   19.9396 H   0  0  0  0  0  0
  -29.7761  -11.7293   17.5107 H   0  0  0  0  0  0
  -29.6301  -13.4578   17.7242 H   0  0  0  0  0  0
  -27.8734  -11.2836   18.9001 H   0  0  0  0  0  0
  -27.3709  -12.5393   17.7999 H   0  0  0  0  0  0
  -27.6397  -14.2518   19.4819 H   0  0  0  0  0  0
  -28.7100  -12.1330   21.4095 H   0  0  0  0  0  0
  -28.4229  -13.8069   21.8091 H   0  0  0  0  0  0
  -25.2758   -9.5691   22.4752 H   0  0  0  0  0  0
  -24.0015   -7.4630   22.7462 H   0  0  0  0  0  0
  -21.0846   -8.8756   19.8944 H   0  0  0  0  0  0
  -22.3684  -10.9667   19.6172 H   0  0  0  0  0  0
  -21.1963   -7.6142   23.9700 H   0  0  0  0  0  0
  -21.1503   -6.0539   25.9083 H   0  0  0  0  0  0
  -22.0588   -2.7605   23.2869 H   0  0  0  0  0  0
  -22.4120  -11.9841   22.4810 H   0  0  0  0  0  0
  -21.1081  -13.1172   22.2694 H   0  0  0  0  0  0
  -24.6580  -15.8501   20.5291 H   0  0  0  0  0  0
  -26.2689  -15.6278   20.0749 H   0  0  0  0  0  0
  -26.7226  -32.5390   23.1105 H   0  0  0  0  0  0
  -25.0020  -33.9675   25.0358 H   0  0  0  0  0  0
  -22.7251  -31.3013   21.3859 H   0  0  0  0  0  0
  -23.3720  -35.9623   23.3286 H   0  0  0  0  0  0
  -24.3576  -36.8962   22.2075 H   0  0  0  0  0  0
  -23.7250  -37.6498   23.6691 H   0  0  0  0  0  0
  -26.0949  -31.5345   20.5973 H   0  0  0  0  0  0
  -26.8472  -30.8342   21.9979 H   0  0  0  0  0  0
  -28.1290  -28.9660   21.1744 H   0  0  0  0  0  0
  -26.0069  -25.8721   19.0527 H   0  0  0  0  0  0
  -23.9706  -27.2631   19.0506 H   0  0  0  0  0  0
  -23.7669  -30.5678   19.3987 H   0  0  0  0  0  0
  -22.7605  -29.2319   19.8604 H   0  0  0  0  0  0
  -25.1258  -36.1893   25.0802 H   0  0  0  0  0  0
  -20.9973  -28.3329   24.1368 H   0  0  0  0  0  0
  -20.5637  -26.2356   23.3619 H   0  0  0  0  0  0
  -21.6627  -26.7447   22.1212 H   0  0  0  0  0  0
  -19.6917  -25.6293   21.1262 H   0  0  0  0  0  0
  -19.6665  -27.3158   20.6686 H   0  0  0  0  0  0
  -17.4174  -26.6667   21.4028 H   0  0  0  0  0  0
  -18.0346  -26.0044   22.9003 H   0  0  0  0  0  0
  -19.7954  -30.7239   24.2286 H   0  0  0  0  0  0
  -17.5051  -31.6268   24.5168 H   0  0  0  0  0  0
  -15.5369  -30.3020   23.7645 H   0  0  0  0  0  0
  -15.8670  -28.0837   22.7100 H   0  0  0  0  0  0
  -24.5834  -30.7159   25.7814 H   0  0  0  0  0  0
  -24.8939  -32.2949   26.4893 H   0  0  0  0  0  0
  -25.8010  -30.8944   27.0259 H   0  0  0  0  0  0
  -26.2949  -29.6722   24.1251 H   0  0  0  0  0  0
  -27.4050  -29.7272   25.4752 H   0  0  0  0  0  0
  -27.8796  -30.4270   23.9455 H   0  0  0  0  0  0
  -27.2629  -33.3668   26.2041 H   0  0  0  0  0  0
  -28.3855  -32.6929   25.0334 H   0  0  0  0  0  0
  -28.0687  -31.8520   26.5471 H   0  0  0  0  0  0
  -28.2536  -38.0105   24.7519 H   0  0  0  0  0  0
  -28.1098  -36.2640   24.6227 H   0  0  0  0  0  0
  -27.2295  -37.1367   25.8859 H   0  0  0  0  0  0
  -20.9385  -29.8846   21.6884 H   0  0  0  0  0  0
  -26.0140  -38.2818   24.1457 H   0  0  0  0  0  0
  -30.5463  -23.7943   19.1717 H   0  0  0  0  0  0
  -27.7448  -20.8582   20.6142 H   0  0  0  0  0  0
  -32.6748  -23.2325   18.5267 H   0  0  0  0  0  0
  -32.5704  -21.8694   17.4255 H   0  0  0  0  0  0
  -33.3529  -21.6800   19.0046 H   0  0  0  0  0  0
  -32.4492  -19.6839   17.9470 H   0  0  0  0  0  0
  -31.2597  -18.4907   18.2902 H   0  0  0  0  0  0
  -32.4660  -18.9416   19.5315 H   0  0  0  0  0  0
  -27.0758  -23.3283   20.4547 H   0  0  0  0  0  0
  -27.6983  -23.9365   18.9657 H   0  0  0  0  0  0
  -28.8239  -18.1287   19.1806 H   0  0  0  0  0  0
  -28.3651  -18.4637   20.8120 H   0  0  0  0  0  0
  -30.5258  -17.5691   21.6955 H   0  0  0  0  0  0
  -31.1696  -17.3192   20.1220 H   0  0  0  0  0  0
  -29.3788  -24.9896   21.0993 H   0  0  0  0  0  0
  -27.7560  -25.1742   21.6243 H   0  0  0  0  0  0
  -28.8495  -15.6531   20.8787 H   0  0  0  0  0  0
  1 25  1  0  0  0
  1 30  2  0  0  0
  1 83  1  0  0  0
  2  3  1  0  0  0
  2 25  1  0  0  0
  2 84  1  0  0  0
  2 85  1  0  0  0
  3  4  1  0  0  0
  3 86  1  0  0  0
  3 87  1  0  0  0
  4  5  1  0  0  0
  4 88  1  0  0  0
  4 89  1  0  0  0
  5  6  1  0  0  0
  5 26  1  0  0  0
  5 90  1  0  0  0
  6 25  1  0  0  0
  6 91  1  0  0  0
  6 92  1  0  0  0
  7  8  2  0  0  0
  7 26  1  0  0  0
  7 29  1  0  0  0
  8  9  1  0  0  0
  8 22  1  0  0  0
  9 10  1  0  0  0
  9 27  2  0  0  0
 10 11  2  0  0  0
 10 15  1  0  0  0
 11 12  1  0  0  0
 11 93  1  0  0  0
 12 13  2  0  0  0
 12 94  1  0  0  0
 13 14  1  0  0  0
 13 31  1  0  0  0
 14 15  2  0  0  0
 14 95  1  0  0  0
 15 96  1  0  0  0
 16 17  2  0  0  0
 16 21  1  0  0  0
 16 31  1  0  0  0
 17 18  1  0  0  0
 17 97  1  0  0  0
 18 19  2  0  0  0
 18 98  1  0  0  0
 19 20  1  0  0  0
 19 24  1  0  0  0
 20 21  2  0  0  0
 20 99  1  0  0  0
 21 23  1  0  0  0
 22 28  1  0  0  0
 22 32  2  0  0  0
 26 27  1  0  0  0
 28100  1  0  0  0
 28101  1  0  0  0
 29102  1  0  0  0
 29103  1  0  0  0
 33 34  1  0  0  0
 33 66  1  0  0  0
 33 70  2  0  0  0
 34 36  1  0  0  0
 34 59  1  0  0  0
 34104  1  0  0  0
 35 44  2  0  0  0
 35 45  1  0  0  0
 35 68  1  0  0  0
 36 56  1  0  0  0
 36105  1  0  0  0
 37 39  1  0  0  0
 37 47  1  0  0  0
 37 66  1  0  0  0
 37106  1  0  0  0
 38 43  2  0  0  0
 38 46  1  0  0  0
 38 47  1  0  0  0
 39 64  1  0  0  0
 39 67  2  0  0  0
 40 52  1  0  0  0
 40 53  2  0  0  0
 40 58  1  0  0  0
 41107  1  0  0  0
 41108  1  0  0  0
 41109  1  0  0  0
 41 48  1  0  0  0
 42 43  1  0  0  0
 42 66  1  0  0  0
 42110  1  0  0  0
 42111  1  0  0  0
 43 44  1  0  0  0
 44112  1  0  0  0
 45 46  2  0  0  0
 45113  1  0  0  0
 46114  1  0  0  0
 47115  1  0  0  0
 47116  1  0  0  0
 48 56  1  0  0  0
 48 65  1  0  0  0
 48117  1  0  0  0
 49 50  1  0  0  0
 49 53  1  0  0  0
 49 64  1  0  0  0
 49118  1  0  0  0
 50 51  1  0  0  0
 50119  1  0  0  0
 50120  1  0  0  0
 51 52  1  0  0  0
 51121  1  0  0  0
 51122  1  0  0  0
 52123  1  0  0  0
 52124  1  0  0  0
 53 54  1  0  0  0
 54 55  2  0  0  0
 54125  1  0  0  0
 55 57  1  0  0  0
 55126  1  0  0  0
 56 69  2  0  0  0
 57 58  2  0  0  0
 57127  1  0  0  0
 58128  1  0  0  0
 59 60  1  0  0  0
 59 61  1  0  0  0
 59 62  1  0  0  0
 60129  1  0  0  0
 60130  1  0  0  0
 60131  1  0  0  0
 61132  1  0  0  0
 61133  1  0  0  0
 61134  1  0  0  0
 62135  1  0  0  0
 62136  1  0  0  0
 62137  1  0  0  0
 63 65  1  0  0  0
 63138  1  0  0  0
 63139  1  0  0  0
 63140  1  0  0  0
 64141  1  0  0  0
 65142  1  0  0  0
 68 82  1  0  0  0
 71 73  2  0  0  0
 71 74  1  0  0  0
 71143  1  0  0  0
 72 73  1  0  0  0
 72 75  2  0  0  0
 72144  1  0  0  0
 73 79  1  0  0  0
 74 76  2  0  0  0
 74 77  1  0  0  0
 75 76  1  0  0  0
 75 80  1  0  0  0
 76 78  1  0  0  0
 77145  1  0  0  0
 77146  1  0  0  0
 77147  1  0  0  0
 78148  1  0  0  0
 78149  1  0  0  0
 78150  1  0  0  0
 79 82  1  0  0  0
 79151  1  0  0  0
 79152  1  0  0  0
 80 81  1  0  0  0
 80153  1  0  0  0
 80154  1  0  0  0
 81 83  1  0  0  0
 81155  1  0  0  0
 81156  1  0  0  0
 82157  1  0  0  0
 82158  1  0  0  0
 83159  1  0  0  0
M  ISO  4   1 100  68 101  82 101  83 100
M  END
> <chiral flag>
0

> <version>
0

> <s_m_source_file>
/data/baiqing/PycharmProjects/Reinvent-master-3.2/result/LINK_invent/BTK/process_docking_weight1_custom_sum_contain_oxygen_bond_distance_aromatic_linkinvent_7_9_3/rearranged_h_0032.sdf

> <i_m_source_file_index>
38

> <r_mmod_Potential_Energy-OPLS-2005>
144.016372680664

> <r_mmod_Stretch_Energy-OPLS-2005>
118.457305908203

> <r_mmod_Bend_Energy-OPLS-2005>
171.307907104492

> <r_mmod_Torsional_Energy-OPLS-2005>
237.394515991211

> <r_mmod_Improper_Torsional_Energy-OPLS-2005>
5.95360803604126

> <r_mmod_Van_der_Waal_Energy-OPLS-2005>
144.220794677734

> <r_mmod_Electrostatic_Energy-OPLS-2005>
-391.878662109375

> <r_mmod_Solvation_Energy-OPLS-2005>
-209.603988647461

> <b_mmod_Minimization_Converged-OPLS-2005>
0

> <r_mmod_RMS_Derivative-OPLS-2005>
2.73201584815979

$$$$
38
                    3D
 Structure written by MMmdl.
180188  0  0  1  0            999 V2000
  -30.8042  -14.3172   20.7223 C   0  0  0  0  0  0
  -30.4169  -12.2851   19.3777 C   0  0  0  0  0  0
  -29.4748  -12.5425   18.1876 C   0  0  0  0  0  0
  -28.0049  -12.3822   18.6138 C   0  0  0  0  0  0
  -27.6701  -13.1957   19.8872 C   0  0  2  0  0  0
  -28.7111  -12.9288   20.9980 C   0  0  0  0  0  0
  -25.2608  -13.8126   20.5682 C   0  0  0  0  0  0
  -24.1843  -13.0412   20.9148 C   0  0  0  0  0  0
  -24.6374  -11.6881   20.8703 C   0  0  0  0  0  0
  -23.9028  -10.4267   21.0374 C   0  0  0  0  0  0
  -24.3573   -9.4192   21.9166 C   0  0  0  0  0  0
  -23.6251   -8.2227   22.0741 C   0  0  0  0  0  0
  -22.4243   -8.0251   21.3525 C   0  0  0  0  0  0
  -21.9867   -9.0226   20.4630 C   0  0  0  0  0  0
  -22.7195  -10.2108   20.3031 C   0  0  0  0  0  0
  -21.6845   -6.0701   22.5271 C   0  0  0  0  0  0
  -21.4017   -6.5616   23.8198 C   0  0  0  0  0  0
  -21.3665   -5.6784   24.9172 C   0  0  0  0  0  0
  -21.6054   -4.3045   24.7236 C   0  0  0  0  0  0
  -21.8826   -3.8122   23.4366 C   0  0  0  0  0  0
  -21.9186   -4.6926   22.3408 C   0  0  0  0  0  0
  -22.7872  -13.5228   21.1833 C   0  0  0  0  0  0
  -22.1632   -4.2105   21.0988 F   0  0  0  0  0  0
  -21.5644   -3.4527   25.7752 F   0  0  0  0  0  0
  -30.0618  -13.2067   20.4667 N   0  0  0  0  0  0
  -26.3064  -12.9283   20.3435 N   0  0  0  0  0  0
  -25.9310  -11.6442   20.5769 N   0  0  0  0  0  0
  -22.0547  -12.8200   22.0405 N   0  0  0  0  0  0
  -25.4338  -15.1823   20.4068 N   0  0  0  0  0  0
  -31.7697  -14.6611   20.0307 O   0  0  0  0  0  0
  -21.6628   -6.8834   21.4221 O   0  0  0  0  0  0
  -22.3551  -14.5556   20.6723 O   0  0  0  0  0  0
  -24.6124  -31.8706   23.2152 C   0  0  0  0  0  0
  -25.9044  -32.4826   23.8413 C   0  0  1  0  0  0
  -27.2337  -27.4663   20.0616 C   0  0  0  0  0  0
  -25.5915  -33.8623   24.2344 N   0  0  0  0  0  0
  -23.3971  -30.4978   21.5560 C   0  0  2  0  0  0
  -24.8381  -28.9689   20.1190 C   0  0  0  0  0  0
  -22.7384  -29.4682   22.5016 C   0  0  0  0  0  0
  -18.0267  -28.1390   22.8499 C   0  0  0  0  0  0
  -24.1491  -36.7317   23.2638 C   0  0  0  0  0  0
  -25.9253  -30.8386   21.3687 C   0  0  0  0  0  0
  -25.9976  -29.4739   20.7199 C   0  0  0  0  0  0
  -27.1914  -28.7210   20.7077 C   0  0  0  0  0  0
  -26.0475  -26.9655   19.4758 C   0  0  0  0  0  0
  -24.8543  -27.7068   19.5063 C   0  0  0  0  0  0
  -23.6029  -29.8367   20.1681 C   0  0  0  0  0  0
  -25.4109  -36.3106   24.0340 C   0  0  1  0  0  0
  -20.5856  -28.3658   23.1334 C   0  0  2  0  0  0
  -20.6771  -26.9404   22.5421 C   0  0  0  0  0  0
  -19.5750  -26.6402   21.5217 C   0  0  0  0  0  0
  -18.1921  -26.7940   22.1628 C   0  0  0  0  0  0
  -19.1517  -28.8841   23.2915 C   0  0  0  0  0  0
  -18.9449  -30.1453   23.8924 C   0  0  0  0  0  0
  -17.6449  -30.6592   24.0580 C   0  0  0  0  0  0
  -25.9041  -34.9472   23.5136 C   0  0  0  0  0  0
  -16.5339  -29.9100   23.6333 C   0  0  0  0  0  0
  -16.7257  -28.6521   23.0342 C   0  0  0  0  0  0
  -26.4486  -31.6587   25.0719 C   0  0  0  0  0  0
  -25.3763  -31.3671   26.1470 C   0  0  0  0  0  0
  -27.0303  -30.3030   24.6069 C   0  0  0  0  0  0
  -27.6068  -32.4291   25.7480 C   0  0  0  0  0  0
  -27.5582  -37.1811   24.8466 C   0  0  0  0  0  0
  -21.4116  -29.3033   22.3744 N   0  0  0  0  0  0
  -26.4290  -37.3795   23.9415 N   0  0  0  0  0  0
  -24.6629  -31.0826   22.1051 N   0  0  0  0  0  0
  -23.4166  -28.8231   23.3054 O   0  0  0  0  0  0
  -28.4253  -26.7739   20.0343 O   0  0  0  0  0  0
  -26.5587  -34.8927   22.4688 O   0  0  0  0  0  0
  -23.5324  -32.1448   23.7566 O   0  0  0  0  0  0
  -26.9308  -23.3481   16.9712 C   0  0  0  0  0  0
  -27.9024  -23.9470   19.5304 C   0  0  0  0  0  0
  -27.6521  -24.5429   17.1778 C   0  0  0  0  0  0
  -26.6787  -22.4575   18.0335 C   0  0  0  0  0  0
  -28.1225  -24.8593   18.4775 C   0  0  0  0  0  0
  -27.1823  -22.7566   19.3229 C   0  0  0  0  0  0
  -27.8751  -25.4713   15.9961 C   0  0  0  0  0  0
  -30.6911  -14.6176   23.1370 C   0  0  0  0  0  0
  -25.8701  -21.1990   17.7530 C   0  0  0  0  0  0
  -28.8173  -26.1824   18.7908 C   0  0  0  0  0  0
  -26.6711  -20.1623   16.9507 C   0  0  0  0  0  0
  -26.0562  -18.7557   17.0410 C   0  0  0  0  0  0
  -26.9402  -17.6439   16.4474 C   0  0  0  0  0  0
  -28.3020  -17.4475   17.1495 C   0  0  0  0  0  0
  -28.2008  -17.1586   18.6616 C   0  0  0  0  0  0
  -28.6150  -18.3433   19.5621 C   0  0  0  0  0  0
  -28.3015  -18.1617   21.0600 C   0  0  0  0  0  0
  -28.6828  -16.7931   21.6414 C   0  0  0  0  0  0
  -30.1896  -16.4994   21.6259 C   0  0  0  0  0  0
  -30.3980  -15.0582   21.7727 N   0  0  0  0  0  0
  -26.9272  -21.7053   20.6716 Cl  0  0  0  0  0  0
  -31.4561  -12.3912   19.0600 H   0  0  0  0  0  0
  -30.3183  -11.2559   19.7259 H   0  0  0  0  0  0
  -29.7035  -11.8557   17.3724 H   0  0  0  0  0  0
  -29.6376  -13.5481   17.7959 H   0  0  0  0  0  0
  -27.8225  -11.3223   18.7957 H   0  0  0  0  0  0
  -27.3401  -12.6727   17.7990 H   0  0  0  0  0  0
  -27.7294  -14.2489   19.6167 H   0  0  0  0  0  0
  -28.6658  -11.8872   21.3212 H   0  0  0  0  0  0
  -28.4553  -13.5149   21.8803 H   0  0  0  0  0  0
  -25.2719   -9.5659   22.4732 H   0  0  0  0  0  0
  -23.9949   -7.4618   22.7464 H   0  0  0  0  0  0
  -21.0799   -8.8737   19.8932 H   0  0  0  0  0  0
  -22.3649  -10.9630   19.6125 H   0  0  0  0  0  0
  -21.2000   -7.6125   23.9681 H   0  0  0  0  0  0
  -21.1485   -6.0524   25.9073 H   0  0  0  0  0  0
  -22.0604   -2.7577   23.2895 H   0  0  0  0  0  0
  -22.4158  -11.9841   22.4758 H   0  0  0  0  0  0
  -21.1166  -13.1230   22.2638 H   0  0  0  0  0  0
  -24.6761  -15.8477   20.5141 H   0  0  0  0  0  0
  -26.3057  -15.6136   20.1313 H   0  0  0  0  0  0
  -26.7109  -32.5546   23.1172 H   0  0  0  0  0  0
  -25.0056  -33.9793   25.0478 H   0  0  0  0  0  0
  -22.6865  -31.3155   21.4215 H   0  0  0  0  0  0
  -23.3751  -35.9654   23.3295 H   0  0  0  0  0  0
  -24.3590  -36.8931   22.2053 H   0  0  0  0  0  0
  -23.7245  -37.6525   23.6651 H   0  0  0  0  0  0
  -26.0352  -31.6022   20.5975 H   0  0  0  0  0  0
  -26.8150  -30.8901   21.9836 H   0  0  0  0  0  0
  -28.0878  -29.1090   21.1709 H   0  0  0  0  0  0
  -26.0058  -26.0027   18.9941 H   0  0  0  0  0  0
  -23.9606  -27.3067   19.0475 H   0  0  0  0  0  0
  -23.7164  -30.6148   19.4126 H   0  0  0  0  0  0
  -22.7254  -29.2597   19.8689 H   0  0  0  0  0  0
  -25.1288  -36.1966   25.0832 H   0  0  0  0  0  0
  -20.9940  -28.3224   24.1457 H   0  0  0  0  0  0
  -20.5695  -26.2261   23.3599 H   0  0  0  0  0  0
  -21.6641  -26.7479   22.1199 H   0  0  0  0  0  0
  -19.6913  -25.6316   21.1238 H   0  0  0  0  0  0
  -19.6702  -27.3227   20.6758 H   0  0  0  0  0  0
  -17.4197  -26.6691   21.4025 H   0  0  0  0  0  0
  -18.0324  -26.0072   22.9013 H   0  0  0  0  0  0
  -19.7922  -30.7268   24.2301 H   0  0  0  0  0  0
  -17.5003  -31.6280   24.5169 H   0  0  0  0  0  0
  -15.5341  -30.3013   23.7644 H   0  0  0  0  0  0
  -15.8658  -28.0856   22.7033 H   0  0  0  0  0  0
  -24.5962  -30.6985   25.7820 H   0  0  0  0  0  0
  -24.8925  -32.2805   26.4931 H   0  0  0  0  0  0
  -25.8134  -30.8848   27.0218 H   0  0  0  0  0  0
  -26.2819  -29.6787   24.1167 H   0  0  0  0  0  0
  -27.4123  -29.7275   25.4512 H   0  0  0  0  0  0
  -27.8646  -30.4360   23.9175 H   0  0  0  0  0  0
  -27.2701  -33.3589   26.2081 H   0  0  0  0  0  0
  -28.3873  -32.6835   25.0297 H   0  0  0  0  0  0
  -28.0732  -31.8378   26.5371 H   0  0  0  0  0  0
  -28.2599  -38.0111   24.7512 H   0  0  0  0  0  0
  -28.1075  -36.2637   24.6285 H   0  0  0  0  0  0
  -27.2300  -37.1454   25.8871 H   0  0  0  0  0  0
  -20.9261  -29.8736   21.6960 H   0  0  0  0  0  0
  -26.0176  -38.2872   24.1424 H   0  0  0  0  0  0
  -26.5526  -23.1126   15.9857 H   0  0  0  0  0  0
  -28.2619  -24.1818   20.5221 H   0  0  0  0  0  0
  -27.5549  -25.0096   15.0611 H   0  0  0  0  0  0
  -28.9307  -25.7227   15.8925 H   0  0  0  0  0  0
  -27.3070  -26.3934   16.1208 H   0  0  0  0  0  0
  -29.9629  -15.0283   23.8373 H   0  0  0  0  0  0
  -31.6843  -14.9526   23.4396 H   0  0  0  0  0  0
  -30.6573  -13.5311   23.2299 H   0  0  0  0  0  0
  -24.9703  -21.4684   17.1993 H   0  0  0  0  0  0
  -25.5102  -20.7623   18.6838 H   0  0  0  0  0  0
  -28.6729  -26.9157   17.9969 H   0  0  0  0  0  0
  -29.8904  -25.9932   18.8314 H   0  0  0  0  0  0
  -27.6867  -20.1426   17.3391 H   0  0  0  0  0  0
  -26.7634  -20.4746   15.9097 H   0  0  0  0  0  0
  -25.0935  -18.7563   16.5272 H   0  0  0  0  0  0
  -25.8308  -18.5153   18.0805 H   0  0  0  0  0  0
  -27.1067  -17.8388   15.3868 H   0  0  0  0  0  0
  -26.3873  -16.7027   16.4878 H   0  0  0  0  0  0
  -28.9598  -18.2969   16.9611 H   0  0  0  0  0  0
  -28.7975  -16.6007   16.6710 H   0  0  0  0  0  0
  -28.8497  -16.3106   18.8855 H   0  0  0  0  0  0
  -27.1908  -16.8345   18.9101 H   0  0  0  0  0  0
  -28.1041  -19.2504   19.2492 H   0  0  0  0  0  0
  -29.6775  -18.5470   19.4238 H   0  0  0  0  0  0
  -27.2313  -18.3086   21.2122 H   0  0  0  0  0  0
  -28.7946  -18.9524   21.6280 H   0  0  0  0  0  0
  -28.1418  -16.0173   21.1034 H   0  0  0  0  0  0
  -28.3239  -16.7234   22.6687 H   0  0  0  0  0  0
  -30.6907  -17.0522   22.4217 H   0  0  0  0  0  0
  -30.6362  -16.8551   20.6954 H   0  0  0  0  0  0
  1 25  1  0  0  0
  1 30  2  0  0  0
  1 90  1  0  0  0
  2  3  1  0  0  0
  2 25  1  0  0  0
  2 92  1  0  0  0
  2 93  1  0  0  0
  3  4  1  0  0  0
  3 94  1  0  0  0
  3 95  1  0  0  0
  4  5  1  0  0  0
  4 96  1  0  0  0
  4 97  1  0  0  0
  5  6  1  0  0  0
  5 26  1  0  0  0
  5 98  1  0  0  0
  6 25  1  0  0  0
  6 99  1  0  0  0
  6100  1  0  0  0
  7  8  2  0  0  0
  7 26  1  0  0  0
  7 29  1  0  0  0
  8  9  1  0  0  0
  8 22  1  0  0  0
  9 10  1  0  0  0
  9 27  2  0  0  0
 10 11  2  0  0  0
 10 15  1  0  0  0
 11 12  1  0  0  0
 11101  1  0  0  0
 12 13  2  0  0  0
 12102  1  0  0  0
 13 14  1  0  0  0
 13 31  1  0  0  0
 14 15  2  0  0  0
 14103  1  0  0  0
 15104  1  0  0  0
 16 17  2  0  0  0
 16 21  1  0  0  0
 16 31  1  0  0  0
 17 18  1  0  0  0
 17105  1  0  0  0
 18 19  2  0  0  0
 18106  1  0  0  0
 19 20  1  0  0  0
 19 24  1  0  0  0
 20 21  2  0  0  0
 20107  1  0  0  0
 21 23  1  0  0  0
 22 28  1  0  0  0
 22 32  2  0  0  0
 26 27  1  0  0  0
 28108  1  0  0  0
 28109  1  0  0  0
 29110  1  0  0  0
 29111  1  0  0  0
 33 34  1  0  0  0
 33 66  1  0  0  0
 33 70  2  0  0  0
 34 36  1  0  0  0
 34 59  1  0  0  0
 34112  1  0  0  0
 35 44  2  0  0  0
 35 45  1  0  0  0
 35 68  1  0  0  0
 36 56  1  0  0  0
 36113  1  0  0  0
 37 39  1  0  0  0
 37 47  1  0  0  0
 37 66  1  0  0  0
 37114  1  0  0  0
 38 43  2  0  0  0
 38 46  1  0  0  0
 38 47  1  0  0  0
 39 64  1  0  0  0
 39 67  2  0  0  0
 40 52  1  0  0  0
 40 53  2  0  0  0
 40 58  1  0  0  0
 41115  1  0  0  0
 41116  1  0  0  0
 41117  1  0  0  0
 41 48  1  0  0  0
 42 43  1  0  0  0
 42 66  1  0  0  0
 42118  1  0  0  0
 42119  1  0  0  0
 43 44  1  0  0  0
 44120  1  0  0  0
 45 46  2  0  0  0
 45121  1  0  0  0
 46122  1  0  0  0
 47123  1  0  0  0
 47124  1  0  0  0
 48 56  1  0  0  0
 48 65  1  0  0  0
 48125  1  0  0  0
 49 50  1  0  0  0
 49 53  1  0  0  0
 49 64  1  0  0  0
 49126  1  0  0  0
 50 51  1  0  0  0
 50127  1  0  0  0
 50128  1  0  0  0
 51 52  1  0  0  0
 51129  1  0  0  0
 51130  1  0  0  0
 52131  1  0  0  0
 52132  1  0  0  0
 53 54  1  0  0  0
 54 55  2  0  0  0
 54133  1  0  0  0
 55 57  1  0  0  0
 55134  1  0  0  0
 56 69  2  0  0  0
 57 58  2  0  0  0
 57135  1  0  0  0
 58136  1  0  0  0
 59 60  1  0  0  0
 59 61  1  0  0  0
 59 62  1  0  0  0
 60137  1  0  0  0
 60138  1  0  0  0
 60139  1  0  0  0
 61140  1  0  0  0
 61141  1  0  0  0
 61142  1  0  0  0
 62143  1  0  0  0
 62144  1  0  0  0
 62145  1  0  0  0
 63 65  1  0  0  0
 63146  1  0  0  0
 63147  1  0  0  0
 63148  1  0  0  0
 64149  1  0  0  0
 65150  1  0  0  0
 68 80  1  0  0  0
 71 73  2  0  0  0
 71 74  1  0  0  0
 71151  1  0  0  0
 72 75  2  0  0  0
 72 76  1  0  0  0
 72152  1  0  0  0
 73 75  1  0  0  0
 73 77  1  0  0  0
 74 76  2  0  0  0
 74 79  1  0  0  0
 75 80  1  0  0  0
 76 91  1  0  0  0
 77153  1  0  0  0
 77154  1  0  0  0
 77155  1  0  0  0
 78 90  1  0  0  0
 78156  1  0  0  0
 78157  1  0  0  0
 78158  1  0  0  0
 79 81  1  0  0  0
 79159  1  0  0  0
 79160  1  0  0  0
 80161  1  0  0  0
 80162  1  0  0  0
 81 82  1  0  0  0
 81163  1  0  0  0
 81164  1  0  0  0
 82 83  1  0  0  0
 82165  1  0  0  0
 82166  1  0  0  0
 83 84  1  0  0  0
 83167  1  0  0  0
 83168  1  0  0  0
 84 85  1  0  0  0
 84169  1  0  0  0
 84170  1  0  0  0
 85 86  1  0  0  0
 85171  1  0  0  0
 85172  1  0  0  0
 86 87  1  0  0  0
 86173  1  0  0  0
 86174  1  0  0  0
 87 88  1  0  0  0
 87175  1  0  0  0
 87176  1  0  0  0
 88 89  1  0  0  0
 88177  1  0  0  0
 88178  1  0  0  0
 89 90  1  0  0  0
 89179  1  0  0  0
 89180  1  0  0  0
M  ISO  4   1 100  68 101  80 101  90 100
M  END
> <chiral flag>
0

> <version>
0

> <s_m_source_file>
/data/baiqing/PycharmProjects/Reinvent-master-3.2/result/LINK_invent/BTK/process_docking_weight1_custom_sum_contain_oxygen_bond_distance_aromatic_linkinvent_7_9_3/rearranged_h_0032.sdf

> <i_m_source_file_index>
39

> <r_mmod_Potential_Energy-OPLS-2005>
148.571441650391

> <r_mmod_Stretch_Energy-OPLS-2005>
34.2484359741211

> <r_mmod_Bend_Energy-OPLS-2005>
95.8094787597656

> <r_mmod_Torsional_Energy-OPLS-2005>
319.047790527344

> <r_mmod_Improper_Torsional_Energy-OPLS-2005>
3.33875226974487

> <r_mmod_Van_der_Waal_Energy-OPLS-2005>
141.564117431641

> <r_mmod_Electrostatic_Energy-OPLS-2005>
-283.725738525391

> <r_mmod_Solvation_Energy-OPLS-2005>
-169.85302734375

> <b_mmod_Minimization_Converged-OPLS-2005>
0

> <r_mmod_RMS_Derivative-OPLS-2005>
2.11883568763733

$$$$
39
                    3D
 Structure written by MMmdl.
168176  0  0  1  0            999 V2000
  -30.7108  -14.3823   20.5730 C   0  0  0  0  0  0
  -30.4194  -12.2473   19.4112 C   0  0  0  0  0  0
  -29.4892  -12.4929   18.2025 C   0  0  0  0  0  0
  -28.0025  -12.3952   18.6073 C   0  0  0  0  0  0
  -27.6680  -13.1971   19.8943 C   0  0  2  0  0  0
  -28.7106  -12.9103   21.0037 C   0  0  0  0  0  0
  -25.2596  -13.8179   20.5747 C   0  0  0  0  0  0
  -24.1827  -13.0448   20.9218 C   0  0  0  0  0  0
  -24.6358  -11.6911   20.8735 C   0  0  0  0  0  0
  -23.9070  -10.4276   21.0380 C   0  0  0  0  0  0
  -24.3623   -9.4202   21.9166 C   0  0  0  0  0  0
  -23.6293   -8.2246   22.0742 C   0  0  0  0  0  0
  -22.4281   -8.0271   21.3546 C   0  0  0  0  0  0
  -21.9904   -9.0248   20.4651 C   0  0  0  0  0  0
  -22.7242  -10.2108   20.3056 C   0  0  0  0  0  0
  -21.6855   -6.0732   22.5295 C   0  0  0  0  0  0
  -21.3981   -6.5651   23.8214 C   0  0  0  0  0  0
  -21.3652   -5.6818   24.9193 C   0  0  0  0  0  0
  -21.6047   -4.3089   24.7241 C   0  0  0  0  0  0
  -21.8803   -3.8166   23.4364 C   0  0  0  0  0  0
  -21.9191   -4.6958   22.3414 C   0  0  0  0  0  0
  -22.7841  -13.5241   21.1905 C   0  0  0  0  0  0
  -22.1662   -4.2155   21.0981 F   0  0  0  0  0  0
  -21.5643   -3.4566   25.7740 F   0  0  0  0  0  0
  -30.0559  -13.2002   20.4689 N   0  0  0  0  0  0
  -26.3045  -12.9325   20.3486 N   0  0  0  0  0  0
  -25.9300  -11.6482   20.5779 N   0  0  0  0  0  0
  -22.0474  -12.8205   22.0390 N   0  0  0  0  0  0
  -25.4351  -15.1870   20.4108 N   0  0  0  0  0  0
  -31.8014  -14.6025   20.0401 O   0  0  0  0  0  0
  -21.6671   -6.8863   21.4249 O   0  0  0  0  0  0
  -22.3556  -14.5577   20.6806 O   0  0  0  0  0  0
  -24.6057  -31.8737   23.2105 C   0  0  0  0  0  0
  -25.8982  -32.4843   23.8389 C   0  0  1  0  0  0
  -27.2553  -27.5063   20.1064 C   0  0  0  0  0  0
  -25.5892  -33.8637   24.2339 N   0  0  0  0  0  0
  -23.3864  -30.4942   21.5482 C   0  0  2  0  0  0
  -24.8384  -28.9618   20.1110 C   0  0  0  0  0  0
  -22.7345  -29.4695   22.5021 C   0  0  0  0  0  0
  -18.0274  -28.1385   22.8524 C   0  0  0  0  0  0
  -24.1483  -36.7303   23.2639 C   0  0  0  0  0  0
  -25.9008  -30.8683   21.3406 C   0  0  0  0  0  0
  -25.9856  -29.5010   20.7041 C   0  0  0  0  0  0
  -27.1946  -28.7846   20.6968 C   0  0  0  0  0  0
  -26.1006  -26.9691   19.5013 C   0  0  0  0  0  0
  -24.8876  -27.6916   19.5065 C   0  0  0  0  0  0
  -23.5873  -29.8127   20.1651 C   0  0  0  0  0  0
  -25.4089  -36.3114   24.0364 C   0  0  1  0  0  0
  -20.5866  -28.3639   23.1371 C   0  0  2  0  0  0
  -20.6770  -26.9386   22.5440 C   0  0  0  0  0  0
  -19.5742  -26.6398   21.5236 C   0  0  0  0  0  0
  -18.1912  -26.7943   22.1632 C   0  0  0  0  0  0
  -19.1535  -28.8819   23.2957 C   0  0  0  0  0  0
  -18.9461  -30.1438   23.8910 C   0  0  0  0  0  0
  -17.6476  -30.6601   24.0573 C   0  0  0  0  0  0
  -25.9023  -34.9476   23.5153 C   0  0  0  0  0  0
  -16.5359  -29.9100   23.6351 C   0  0  0  0  0  0
  -16.7270  -28.6531   23.0357 C   0  0  0  0  0  0
  -26.4448  -31.6609   25.0679 C   0  0  0  0  0  0
  -25.3735  -31.3725   26.1452 C   0  0  0  0  0  0
  -27.0289  -30.3082   24.5954 C   0  0  0  0  0  0
  -27.6043  -32.4306   25.7425 C   0  0  0  0  0  0
  -27.5581  -37.1787   24.8459 C   0  0  0  0  0  0
  -21.4089  -29.3034   22.3777 N   0  0  0  0  0  0
  -26.4264  -37.3804   23.9445 N   0  0  0  0  0  0
  -24.6484  -31.0918   22.0937 N   0  0  0  0  0  0
  -23.4174  -28.8273   23.3053 O   0  0  0  0  0  0
  -28.4202  -26.7766   20.0946 O   0  0  0  0  0  0
  -26.5560  -34.8941   22.4687 O   0  0  0  0  0  0
  -23.5282  -32.1416   23.7597 O   0  0  0  0  0  0
  -27.4243  -24.1238   21.6219 C   0  0  0  0  0  0
  -26.5816  -23.2102   20.9556 C   0  0  0  0  0  0
  -29.1955  -23.6309   20.0257 C   0  0  0  0  0  0
  -28.7341  -24.3428   21.1450 C   0  0  0  0  0  0
  -28.3540  -22.7327   19.3467 C   0  0  0  0  0  0
  -27.0333  -22.5240   19.8102 C   0  0  0  0  0  0
  -29.6285  -25.4143   21.7365 C   0  0  0  0  0  0
  -28.9228  -22.0219   18.1360 C   0  0  0  0  0  0
  -29.7892  -20.8360   18.5668 C   0  0  0  0  0  0
  -30.4713  -20.1409   17.3798 C   0  0  0  0  0  0
  -31.2790  -18.9046   17.8009 C   0  0  0  0  0  0
  -30.3875  -17.7891   18.3696 C   0  0  0  0  0  0
  -30.6501  -17.4734   19.8532 C   0  0  0  0  0  0
  -29.5511  -16.5482   20.4218 C   0  0  0  0  0  0
  -29.1895  -26.8238   21.3102 C   0  0  0  0  0  0
  -29.9919  -15.3556   21.1492 N   0  0  0  0  0  0
  -25.9519  -21.4464   18.9962 Cl  0  0  0  0  0  0
  -31.4656  -12.3346   19.1082 H   0  0  0  0  0  0
  -30.3127  -11.2237   19.7768 H   0  0  0  0  0  0
  -29.6963  -11.7715   17.4099 H   0  0  0  0  0  0
  -29.6904  -13.4762   17.7732 H   0  0  0  0  0  0
  -27.7610  -11.3417   18.7525 H   0  0  0  0  0  0
  -27.3694  -12.7434   17.7905 H   0  0  0  0  0  0
  -27.7310  -14.2504   19.6315 H   0  0  0  0  0  0
  -28.6642  -11.8581   21.2985 H   0  0  0  0  0  0
  -28.4839  -13.4686   21.9134 H   0  0  0  0  0  0
  -25.2732   -9.5708   22.4798 H   0  0  0  0  0  0
  -24.0004   -7.4645   22.7464 H   0  0  0  0  0  0
  -21.0842   -8.8809   19.8955 H   0  0  0  0  0  0
  -22.3703  -10.9695   19.6207 H   0  0  0  0  0  0
  -21.1951   -7.6158   23.9707 H   0  0  0  0  0  0
  -21.1496   -6.0559   25.9108 H   0  0  0  0  0  0
  -22.0571   -2.7645   23.2870 H   0  0  0  0  0  0
  -22.4117  -11.9840   22.4726 H   0  0  0  0  0  0
  -21.1123  -13.1271   22.2679 H   0  0  0  0  0  0
  -24.6706  -15.8481   20.5157 H   0  0  0  0  0  0
  -26.3028  -15.6223   20.1205 H   0  0  0  0  0  0
  -26.7030  -32.5590   23.1160 H   0  0  0  0  0  0
  -25.0103  -33.9772   25.0522 H   0  0  0  0  0  0
  -22.6740  -31.3109   21.4099 H   0  0  0  0  0  0
  -23.3756  -35.9625   23.3296 H   0  0  0  0  0  0
  -24.3602  -36.8903   22.2052 H   0  0  0  0  0  0
  -23.7208  -37.6501   23.6636 H   0  0  0  0  0  0
  -25.9815  -31.6293   20.5624 H   0  0  0  0  0  0
  -26.7988  -30.9420   21.9405 H   0  0  0  0  0  0
  -28.0734  -29.2290   21.1422 H   0  0  0  0  0  0
  -26.1413  -25.9944   19.0405 H   0  0  0  0  0  0
  -24.0063  -27.2701   19.0445 H   0  0  0  0  0  0
  -23.6748  -30.5771   19.3932 H   0  0  0  0  0  0
  -22.7170  -29.2160   19.8878 H   0  0  0  0  0  0
  -25.1273  -36.1957   25.0860 H   0  0  0  0  0  0
  -20.9973  -28.3168   24.1488 H   0  0  0  0  0  0
  -20.5691  -26.2227   23.3606 H   0  0  0  0  0  0
  -21.6634  -26.7464   22.1206 H   0  0  0  0  0  0
  -19.6891  -25.6314   21.1240 H   0  0  0  0  0  0
  -19.6687  -27.3232   20.6784 H   0  0  0  0  0  0
  -17.4206  -26.6751   21.3991 H   0  0  0  0  0  0
  -18.0273  -26.0058   22.8999 H   0  0  0  0  0  0
  -19.7935  -30.7285   24.2234 H   0  0  0  0  0  0
  -17.5033  -31.6275   24.5187 H   0  0  0  0  0  0
  -15.5354  -30.3014   23.7678 H   0  0  0  0  0  0
  -15.8678  -28.0875   22.7022 H   0  0  0  0  0  0
  -24.5891  -30.7078   25.7817 H   0  0  0  0  0  0
  -24.8932  -32.2900   26.4876 H   0  0  0  0  0  0
  -25.8117  -30.8915   27.0199 H   0  0  0  0  0  0
  -26.2799  -29.6804   24.1089 H   0  0  0  0  0  0
  -27.4237  -29.7357   25.4358 H   0  0  0  0  0  0
  -27.8563  -30.4507   23.8984 H   0  0  0  0  0  0
  -27.2678  -33.3589   26.2053 H   0  0  0  0  0  0
  -28.3824  -32.6861   25.0223 H   0  0  0  0  0  0
  -28.0718  -31.8361   26.5279 H   0  0  0  0  0  0
  -28.2586  -38.0100   24.7581 H   0  0  0  0  0  0
  -28.1115  -36.2655   24.6208 H   0  0  0  0  0  0
  -27.2345  -37.1328   25.8870 H   0  0  0  0  0  0
  -20.9213  -29.8716   21.6977 H   0  0  0  0  0  0
  -26.0174  -38.2889   24.1462 H   0  0  0  0  0  0
  -27.0525  -24.6801   22.4697 H   0  0  0  0  0  0
  -25.5757  -23.0500   21.3124 H   0  0  0  0  0  0
  -30.1959  -23.8038   19.6526 H   0  0  0  0  0  0
  -30.6569  -25.2387   21.4148 H   0  0  0  0  0  0
  -29.6413  -25.3350   22.8250 H   0  0  0  0  0  0
  -29.5238  -22.7304   17.5663 H   0  0  0  0  0  0
  -28.1335  -21.6964   17.4598 H   0  0  0  0  0  0
  -29.1524  -20.1374   19.1128 H   0  0  0  0  0  0
  -30.5472  -21.1737   19.2769 H   0  0  0  0  0  0
  -31.1315  -20.8479   16.8721 H   0  0  0  0  0  0
  -29.7177  -19.8452   16.6481 H   0  0  0  0  0  0
  -32.0556  -19.1842   18.5139 H   0  0  0  0  0  0
  -31.8082  -18.5281   16.9256 H   0  0  0  0  0  0
  -30.5288  -16.8802   17.7839 H   0  0  0  0  0  0
  -29.3392  -18.0493   18.2226 H   0  0  0  0  0  0
  -30.6795  -18.3922   20.4429 H   0  0  0  0  0  0
  -31.6460  -17.0462   19.9382 H   0  0  0  0  0  0
  -28.9220  -16.1858   19.6068 H   0  0  0  0  0  0
  -28.8738  -17.1231   21.0585 H   0  0  0  0  0  0
  -30.0580  -27.4718   21.1830 H   0  0  0  0  0  0
  -28.6165  -27.2378   22.1425 H   0  0  0  0  0  0
  -29.2903  -14.9928   21.7763 H   0  0  0  0  0  0
  1 25  1  0  0  0
  1 30  2  0  0  0
  1 86  1  0  0  0
  2  3  1  0  0  0
  2 25  1  0  0  0
  2 88  1  0  0  0
  2 89  1  0  0  0
  3  4  1  0  0  0
  3 90  1  0  0  0
  3 91  1  0  0  0
  4  5  1  0  0  0
  4 92  1  0  0  0
  4 93  1  0  0  0
  5  6  1  0  0  0
  5 26  1  0  0  0
  5 94  1  0  0  0
  6 25  1  0  0  0
  6 95  1  0  0  0
  6 96  1  0  0  0
  7  8  2  0  0  0
  7 26  1  0  0  0
  7 29  1  0  0  0
  8  9  1  0  0  0
  8 22  1  0  0  0
  9 10  1  0  0  0
  9 27  2  0  0  0
 10 11  2  0  0  0
 10 15  1  0  0  0
 11 12  1  0  0  0
 11 97  1  0  0  0
 12 13  2  0  0  0
 12 98  1  0  0  0
 13 14  1  0  0  0
 13 31  1  0  0  0
 14 15  2  0  0  0
 14 99  1  0  0  0
 15100  1  0  0  0
 16 17  2  0  0  0
 16 21  1  0  0  0
 16 31  1  0  0  0
 17 18  1  0  0  0
 17101  1  0  0  0
 18 19  2  0  0  0
 18102  1  0  0  0
 19 20  1  0  0  0
 19 24  1  0  0  0
 20 21  2  0  0  0
 20103  1  0  0  0
 21 23  1  0  0  0
 22 28  1  0  0  0
 22 32  2  0  0  0
 26 27  1  0  0  0
 28104  1  0  0  0
 28105  1  0  0  0
 29106  1  0  0  0
 29107  1  0  0  0
 33 34  1  0  0  0
 33 66  1  0  0  0
 33 70  2  0  0  0
 34 36  1  0  0  0
 34 59  1  0  0  0
 34108  1  0  0  0
 35 44  2  0  0  0
 35 45  1  0  0  0
 35 68  1  0  0  0
 36 56  1  0  0  0
 36109  1  0  0  0
 37 39  1  0  0  0
 37 47  1  0  0  0
 37 66  1  0  0  0
 37110  1  0  0  0
 38 43  2  0  0  0
 38 46  1  0  0  0
 38 47  1  0  0  0
 39 64  1  0  0  0
 39 67  2  0  0  0
 40 52  1  0  0  0
 40 53  2  0  0  0
 40 58  1  0  0  0
 41111  1  0  0  0
 41112  1  0  0  0
 41113  1  0  0  0
 41 48  1  0  0  0
 42 43  1  0  0  0
 42 66  1  0  0  0
 42114  1  0  0  0
 42115  1  0  0  0
 43 44  1  0  0  0
 44116  1  0  0  0
 45 46  2  0  0  0
 45117  1  0  0  0
 46118  1  0  0  0
 47119  1  0  0  0
 47120  1  0  0  0
 48 56  1  0  0  0
 48 65  1  0  0  0
 48121  1  0  0  0
 49 50  1  0  0  0
 49 53  1  0  0  0
 49 64  1  0  0  0
 49122  1  0  0  0
 50 51  1  0  0  0
 50123  1  0  0  0
 50124  1  0  0  0
 51 52  1  0  0  0
 51125  1  0  0  0
 51126  1  0  0  0
 52127  1  0  0  0
 52128  1  0  0  0
 53 54  1  0  0  0
 54 55  2  0  0  0
 54129  1  0  0  0
 55 57  1  0  0  0
 55130  1  0  0  0
 56 69  2  0  0  0
 57 58  2  0  0  0
 57131  1  0  0  0
 58132  1  0  0  0
 59 60  1  0  0  0
 59 61  1  0  0  0
 59 62  1  0  0  0
 60133  1  0  0  0
 60134  1  0  0  0
 60135  1  0  0  0
 61136  1  0  0  0
 61137  1  0  0  0
 61138  1  0  0  0
 62139  1  0  0  0
 62140  1  0  0  0
 62141  1  0  0  0
 63 65  1  0  0  0
 63142  1  0  0  0
 63143  1  0  0  0
 63144  1  0  0  0
 64145  1  0  0  0
 65146  1  0  0  0
 68 85  1  0  0  0
 71 72  2  0  0  0
 71 74  1  0  0  0
 71147  1  0  0  0
 72 76  1  0  0  0
 72148  1  0  0  0
 73 74  2  0  0  0
 73 75  1  0  0  0
 73149  1  0  0  0
 74 77  1  0  0  0
 75 76  2  0  0  0
 75 78  1  0  0  0
 76 87  1  0  0  0
 77 85  1  0  0  0
 77150  1  0  0  0
 77151  1  0  0  0
 78 79  1  0  0  0
 78152  1  0  0  0
 78153  1  0  0  0
 79 80  1  0  0  0
 79154  1  0  0  0
 79155  1  0  0  0
 80 81  1  0  0  0
 80156  1  0  0  0
 80157  1  0  0  0
 81 82  1  0  0  0
 81158  1  0  0  0
 81159  1  0  0  0
 82 83  1  0  0  0
 82160  1  0  0  0
 82161  1  0  0  0
 83 84  1  0  0  0
 83162  1  0  0  0
 83163  1  0  0  0
 84 86  1  0  0  0
 84164  1  0  0  0
 84165  1  0  0  0
 85166  1  0  0  0
 85167  1  0  0  0
 86168  1  0  0  0
M  ISO  4   1 100  68 101  85 101  86 100
M  END
> <chiral flag>
0

> <version>
0

> <s_m_source_file>
/data/baiqing/PycharmProjects/Reinvent-master-3.2/result/LINK_invent/BTK/process_docking_weight1_custom_sum_contain_oxygen_bond_distance_aromatic_linkinvent_7_9_3/rearranged_h_0032.sdf

> <i_m_source_file_index>
40

> <r_mmod_Potential_Energy-OPLS-2005>
22.337646484375

> <r_mmod_Stretch_Energy-OPLS-2005>
32.0493583679199

> <r_mmod_Bend_Energy-OPLS-2005>
94.6104354858398

> <r_mmod_Torsional_Energy-OPLS-2005>
275.804809570312

> <r_mmod_Improper_Torsional_Energy-OPLS-2005>
8.03439426422119

> <r_mmod_Van_der_Waal_Energy-OPLS-2005>
156.629638671875

> <r_mmod_Electrostatic_Energy-OPLS-2005>
-348.156463623047

> <r_mmod_Solvation_Energy-OPLS-2005>
-204.976837158203

> <b_mmod_Minimization_Converged-OPLS-2005>
0

> <r_mmod_RMS_Derivative-OPLS-2005>
4.80409336090088

$$$$
40
                    3D
 Structure written by MMmdl.
159167  0  0  1  0            999 V2000
  -30.6857  -14.4978   20.5152 C   0  0  0  0  0  0
  -30.4128  -12.3027   19.4378 C   0  0  0  0  0  0
  -29.4929  -12.4922   18.2131 C   0  0  0  0  0  0
  -28.0128  -12.3586   18.6209 C   0  0  0  0  0  0
  -27.6553  -13.2087   19.8701 C   0  0  2  0  0  0
  -28.6965  -13.0246   20.9984 C   0  0  0  0  0  0
  -25.2566  -13.8169   20.5677 C   0  0  0  0  0  0
  -24.1815  -13.0448   20.9171 C   0  0  0  0  0  0
  -24.6367  -11.6912   20.8734 C   0  0  0  0  0  0
  -23.9038  -10.4302   21.0406 C   0  0  0  0  0  0
  -24.3602   -9.4220   21.9186 C   0  0  0  0  0  0
  -23.6287   -8.2252   22.0753 C   0  0  0  0  0  0
  -22.4275   -8.0277   21.3542 C   0  0  0  0  0  0
  -21.9901   -9.0240   20.4644 C   0  0  0  0  0  0
  -22.7212  -10.2131   20.3052 C   0  0  0  0  0  0
  -21.6854   -6.0730   22.5276 C   0  0  0  0  0  0
  -21.4014   -6.5640   23.8203 C   0  0  0  0  0  0
  -21.3662   -5.6793   24.9165 C   0  0  0  0  0  0
  -21.6046   -4.3056   24.7223 C   0  0  0  0  0  0
  -21.8818   -3.8146   23.4345 C   0  0  0  0  0  0
  -21.9196   -4.6961   22.3397 C   0  0  0  0  0  0
  -22.7846  -13.5249   21.1842 C   0  0  0  0  0  0
  -22.1664   -4.2143   21.0979 F   0  0  0  0  0  0
  -21.5633   -3.4542   25.7737 F   0  0  0  0  0  0
  -30.0261  -13.3103   20.4396 N   0  0  0  0  0  0
  -26.2984  -12.9332   20.3345 N   0  0  0  0  0  0
  -25.9291  -11.6492   20.5762 N   0  0  0  0  0  0
  -22.0497  -12.8226   22.0395 N   0  0  0  0  0  0
  -25.4332  -15.1886   20.4091 N   0  0  0  0  0  0
  -31.8408  -14.6426   20.1060 O   0  0  0  0  0  0
  -21.6644   -6.8873   21.4236 O   0  0  0  0  0  0
  -22.3532  -14.5560   20.6701 O   0  0  0  0  0  0
  -24.6170  -31.8643   23.2072 C   0  0  0  0  0  0
  -25.9044  -32.4799   23.8380 C   0  0  1  0  0  0
  -27.2336  -27.4012   20.1031 C   0  0  0  0  0  0
  -25.5898  -33.8606   24.2312 N   0  0  0  0  0  0
  -23.4064  -30.4866   21.5477 C   0  0  2  0  0  0
  -24.8527  -28.9502   20.1107 C   0  0  0  0  0  0
  -22.7419  -29.4622   22.4966 C   0  0  0  0  0  0
  -18.0263  -28.1361   22.8476 C   0  0  0  0  0  0
  -24.1491  -36.7305   23.2645 C   0  0  0  0  0  0
  -25.9376  -30.8208   21.3639 C   0  0  0  0  0  0
  -26.0124  -29.4529   20.7119 C   0  0  0  0  0  0
  -27.2013  -28.6827   20.7079 C   0  0  0  0  0  0
  -26.0539  -26.9236   19.4876 C   0  0  0  0  0  0
  -24.8700  -27.6866   19.4968 C   0  0  0  0  0  0
  -23.6154  -29.8200   20.1612 C   0  0  0  0  0  0
  -25.4111  -36.3099   24.0344 C   0  0  1  0  0  0
  -20.5855  -28.3639   23.1315 C   0  0  2  0  0  0
  -20.6752  -26.9371   22.5421 C   0  0  0  0  0  0
  -19.5742  -26.6363   21.5209 C   0  0  0  0  0  0
  -18.1910  -26.7901   22.1608 C   0  0  0  0  0  0
  -19.1515  -28.8812   23.2889 C   0  0  0  0  0  0
  -18.9453  -30.1416   23.8896 C   0  0  0  0  0  0
  -17.6459  -30.6569   24.0554 C   0  0  0  0  0  0
  -25.9039  -34.9463   23.5122 C   0  0  0  0  0  0
  -16.5342  -29.9071   23.6330 C   0  0  0  0  0  0
  -16.7255  -28.6490   23.0342 C   0  0  0  0  0  0
  -26.4471  -31.6591   25.0721 C   0  0  0  0  0  0
  -25.3741  -31.3695   26.1471 C   0  0  0  0  0  0
  -27.0310  -30.3046   24.6080 C   0  0  0  0  0  0
  -27.6037  -32.4322   25.7482 C   0  0  0  0  0  0
  -27.5573  -37.1811   24.8464 C   0  0  0  0  0  0
  -21.4138  -29.3013   22.3724 N   0  0  0  0  0  0
  -26.4291  -37.3786   23.9406 N   0  0  0  0  0  0
  -24.6718  -31.0722   22.0981 N   0  0  0  0  0  0
  -23.4187  -28.8155   23.3003 O   0  0  0  0  0  0
  -28.4068  -26.6638   20.1590 O   0  0  0  0  0  0
  -26.5604  -34.8910   22.4681 O   0  0  0  0  0  0
  -23.5354  -32.1402   23.7449 O   0  0  0  0  0  0
  -29.9323  -20.9871   22.2778 C   0  0  0  0  0  0
  -28.7340  -21.8367   20.3390 C   0  0  0  0  0  0
  -29.4339  -20.7773   20.9772 C   0  0  0  0  0  0
  -29.7356  -22.2194   22.9353 C   0  0  0  0  0  0
  -28.5288  -23.0884   20.9844 C   0  0  0  0  0  0
  -29.0414  -23.2719   22.2908 C   0  0  0  0  0  0
  -30.2768  -22.4039   24.3415 C   0  0  0  0  0  0
  -29.7513  -19.4649   20.2407 C   0  0  0  0  0  0
  -27.6996  -24.1973   20.3060 C   0  0  0  0  0  0
  -29.4690  -18.1152   20.9768 C   0  0  0  0  0  0
  -30.2522  -16.9369   20.3282 C   0  0  0  0  0  0
  -28.4878  -25.3373   19.5872 C   0  0  0  0  0  0
  -29.9271  -15.5773   20.8114 N   0  0  0  0  0  0
  -28.8197  -24.7810   23.1117 Cl  0  0  0  0  0  0
  -31.4599  -12.3872   19.1403 H   0  0  0  0  0  0
  -30.2990  -11.2989   19.8506 H   0  0  0  0  0  0
  -29.7338  -11.7593   17.4413 H   0  0  0  0  0  0
  -29.6637  -13.4737   17.7679 H   0  0  0  0  0  0
  -27.8179  -11.3041   18.8214 H   0  0  0  0  0  0
  -27.3665  -12.6318   17.7860 H   0  0  0  0  0  0
  -27.6890  -14.2505   19.5521 H   0  0  0  0  0  0
  -28.6688  -12.0043   21.3830 H   0  0  0  0  0  0
  -28.4642  -13.6681   21.8482 H   0  0  0  0  0  0
  -25.2746   -9.5708   22.4754 H   0  0  0  0  0  0
  -24.0001   -7.4650   22.7475 H   0  0  0  0  0  0
  -21.0835   -8.8747   19.8951 H   0  0  0  0  0  0
  -22.3662  -10.9662   19.6160 H   0  0  0  0  0  0
  -21.2003   -7.6147   23.9701 H   0  0  0  0  0  0
  -21.1488   -6.0528   25.9065 H   0  0  0  0  0  0
  -22.0600   -2.7609   23.2844 H   0  0  0  0  0  0
  -22.4103  -11.9863   22.4742 H   0  0  0  0  0  0
  -21.1123  -13.1257   22.2631 H   0  0  0  0  0  0
  -24.6731  -15.8518   20.5146 H   0  0  0  0  0  0
  -26.2887  -15.6206   20.0841 H   0  0  0  0  0  0
  -26.7110  -32.5501   23.1133 H   0  0  0  0  0  0
  -25.0081  -33.9772   25.0478 H   0  0  0  0  0  0
  -22.6967  -31.3051   21.4070 H   0  0  0  0  0  0
  -23.3751  -35.9637   23.3320 H   0  0  0  0  0  0
  -24.3588  -36.8907   22.2055 H   0  0  0  0  0  0
  -23.7240  -37.6515   23.6647 H   0  0  0  0  0  0
  -26.0530  -31.5851   20.5932 H   0  0  0  0  0  0
  -26.8248  -30.8757   21.9821 H   0  0  0  0  0  0
  -28.0937  -29.0625   21.1847 H   0  0  0  0  0  0
  -26.0210  -25.9589   19.0043 H   0  0  0  0  0  0
  -23.9777  -27.2940   19.0301 H   0  0  0  0  0  0
  -23.7239  -30.5959   19.4028 H   0  0  0  0  0  0
  -22.7393  -29.2410   19.8634 H   0  0  0  0  0  0
  -25.1287  -36.1972   25.0838 H   0  0  0  0  0  0
  -20.9950  -28.3193   24.1434 H   0  0  0  0  0  0
  -20.5654  -26.2230   23.3598 H   0  0  0  0  0  0
  -21.6626  -26.7401   22.1212 H   0  0  0  0  0  0
  -19.6911  -25.6284   21.1213 H   0  0  0  0  0  0
  -19.6697  -27.3193   20.6756 H   0  0  0  0  0  0
  -17.4191  -26.6649   21.4004 H   0  0  0  0  0  0
  -18.0301  -26.0036   22.8992 H   0  0  0  0  0  0
  -19.7935  -30.7221   24.2274 H   0  0  0  0  0  0
  -17.5020  -31.6255   24.5140 H   0  0  0  0  0  0
  -15.5347  -30.2979   23.7658 H   0  0  0  0  0  0
  -15.8644  -28.0821   22.7059 H   0  0  0  0  0  0
  -24.5919  -30.7023   25.7829 H   0  0  0  0  0  0
  -24.8920  -32.2845   26.4929 H   0  0  0  0  0  0
  -25.8110  -30.8879   27.0229 H   0  0  0  0  0  0
  -26.2854  -29.6803   24.1138 H   0  0  0  0  0  0
  -27.4118  -29.7272   25.4515 H   0  0  0  0  0  0
  -27.8659  -30.4397   23.9197 H   0  0  0  0  0  0
  -27.2652  -33.3621   26.2063 H   0  0  0  0  0  0
  -28.3841  -32.6889   25.0307 H   0  0  0  0  0  0
  -28.0697  -31.8445   26.5400 H   0  0  0  0  0  0
  -28.2601  -38.0100   24.7514 H   0  0  0  0  0  0
  -28.1064  -36.2634   24.6295 H   0  0  0  0  0  0
  -27.2289  -37.1465   25.8868 H   0  0  0  0  0  0
  -20.9285  -29.8776   21.6987 H   0  0  0  0  0  0
  -26.0184  -38.2864   24.1416 H   0  0  0  0  0  0
  -30.4893  -20.2028   22.7722 H   0  0  0  0  0  0
  -28.3550  -21.6903   19.3365 H   0  0  0  0  0  0
  -30.7871  -21.5101   24.7003 H   0  0  0  0  0  0
  -29.4616  -22.6199   25.0322 H   0  0  0  0  0  0
  -30.9843  -23.2321   24.3701 H   0  0  0  0  0  0
  -30.8130  -19.5140   19.9964 H   0  0  0  0  0  0
  -29.2326  -19.4560   19.2809 H   0  0  0  0  0  0
  -27.0094  -24.6200   21.0355 H   0  0  0  0  0  0
  -27.0560  -23.7147   19.5710 H   0  0  0  0  0  0
  -28.3962  -17.9177   20.9775 H   0  0  0  0  0  0
  -29.7681  -18.1804   22.0225 H   0  0  0  0  0  0
  -31.3215  -17.1217   20.4485 H   0  0  0  0  0  0
  -30.0673  -16.9428   19.2529 H   0  0  0  0  0  0
  -28.1929  -25.3862   18.5379 H   0  0  0  0  0  0
  -29.5441  -25.0682   19.5600 H   0  0  0  0  0  0
  -28.9838  -15.3985   21.1207 H   0  0  0  0  0  0
  1 25  1  0  0  0
  1 30  2  0  0  0
  1 83  1  0  0  0
  2  3  1  0  0  0
  2 25  1  0  0  0
  2 85  1  0  0  0
  2 86  1  0  0  0
  3  4  1  0  0  0
  3 87  1  0  0  0
  3 88  1  0  0  0
  4  5  1  0  0  0
  4 89  1  0  0  0
  4 90  1  0  0  0
  5  6  1  0  0  0
  5 26  1  0  0  0
  5 91  1  0  0  0
  6 25  1  0  0  0
  6 92  1  0  0  0
  6 93  1  0  0  0
  7  8  2  0  0  0
  7 26  1  0  0  0
  7 29  1  0  0  0
  8  9  1  0  0  0
  8 22  1  0  0  0
  9 10  1  0  0  0
  9 27  2  0  0  0
 10 11  2  0  0  0
 10 15  1  0  0  0
 11 12  1  0  0  0
 11 94  1  0  0  0
 12 13  2  0  0  0
 12 95  1  0  0  0
 13 14  1  0  0  0
 13 31  1  0  0  0
 14 15  2  0  0  0
 14 96  1  0  0  0
 15 97  1  0  0  0
 16 17  2  0  0  0
 16 21  1  0  0  0
 16 31  1  0  0  0
 17 18  1  0  0  0
 17 98  1  0  0  0
 18 19  2  0  0  0
 18 99  1  0  0  0
 19 20  1  0  0  0
 19 24  1  0  0  0
 20 21  2  0  0  0
 20100  1  0  0  0
 21 23  1  0  0  0
 22 28  1  0  0  0
 22 32  2  0  0  0
 26 27  1  0  0  0
 28101  1  0  0  0
 28102  1  0  0  0
 29103  1  0  0  0
 29104  1  0  0  0
 33 34  1  0  0  0
 33 66  1  0  0  0
 33 70  2  0  0  0
 34 36  1  0  0  0
 34 59  1  0  0  0
 34105  1  0  0  0
 35 44  2  0  0  0
 35 45  1  0  0  0
 35 68  1  0  0  0
 36 56  1  0  0  0
 36106  1  0  0  0
 37 39  1  0  0  0
 37 47  1  0  0  0
 37 66  1  0  0  0
 37107  1  0  0  0
 38 43  2  0  0  0
 38 46  1  0  0  0
 38 47  1  0  0  0
 39 64  1  0  0  0
 39 67  2  0  0  0
 40 52  1  0  0  0
 40 53  2  0  0  0
 40 58  1  0  0  0
 41108  1  0  0  0
 41109  1  0  0  0
 41110  1  0  0  0
 41 48  1  0  0  0
 42 43  1  0  0  0
 42 66  1  0  0  0
 42111  1  0  0  0
 42112  1  0  0  0
 43 44  1  0  0  0
 44113  1  0  0  0
 45 46  2  0  0  0
 45114  1  0  0  0
 46115  1  0  0  0
 47116  1  0  0  0
 47117  1  0  0  0
 48 56  1  0  0  0
 48 65  1  0  0  0
 48118  1  0  0  0
 49 50  1  0  0  0
 49 53  1  0  0  0
 49 64  1  0  0  0
 49119  1  0  0  0
 50 51  1  0  0  0
 50120  1  0  0  0
 50121  1  0  0  0
 51 52  1  0  0  0
 51122  1  0  0  0
 51123  1  0  0  0
 52124  1  0  0  0
 52125  1  0  0  0
 53 54  1  0  0  0
 54 55  2  0  0  0
 54126  1  0  0  0
 55 57  1  0  0  0
 55127  1  0  0  0
 56 69  2  0  0  0
 57 58  2  0  0  0
 57128  1  0  0  0
 58129  1  0  0  0
 59 60  1  0  0  0
 59 61  1  0  0  0
 59 62  1  0  0  0
 60130  1  0  0  0
 60131  1  0  0  0
 60132  1  0  0  0
 61133  1  0  0  0
 61134  1  0  0  0
 61135  1  0  0  0
 62136  1  0  0  0
 62137  1  0  0  0
 62138  1  0  0  0
 63 65  1  0  0  0
 63139  1  0  0  0
 63140  1  0  0  0
 63141  1  0  0  0
 64142  1  0  0  0
 65143  1  0  0  0
 68 82  1  0  0  0
 71 73  2  0  0  0
 71 74  1  0  0  0
 71144  1  0  0  0
 72 73  1  0  0  0
 72 75  2  0  0  0
 72145  1  0  0  0
 73 78  1  0  0  0
 74 76  2  0  0  0
 74 77  1  0  0  0
 75 76  1  0  0  0
 75 79  1  0  0  0
 76 84  1  0  0  0
 77146  1  0  0  0
 77147  1  0  0  0
 77148  1  0  0  0
 78 80  1  0  0  0
 78149  1  0  0  0
 78150  1  0  0  0
 79 82  1  0  0  0
 79151  1  0  0  0
 79152  1  0  0  0
 80 81  1  0  0  0
 80153  1  0  0  0
 80154  1  0  0  0
 81 83  1  0  0  0
 81155  1  0  0  0
 81156  1  0  0  0
 82157  1  0  0  0
 82158  1  0  0  0
 83159  1  0  0  0
M  ISO  4   1 100  68 101  82 101  83 100
M  END
> <chiral flag>
0

> <version>
0

> <s_m_source_file>
/data/baiqing/PycharmProjects/Reinvent-master-3.2/result/LINK_invent/BTK/process_docking_weight1_custom_sum_contain_oxygen_bond_distance_aromatic_linkinvent_7_9_3/rearranged_h_0032.sdf

> <i_m_source_file_index>
41

> <r_mmod_Potential_Energy-OPLS-2005>
-43.7250366210938

> <r_mmod_Stretch_Energy-OPLS-2005>
43.6147232055664

> <r_mmod_Bend_Energy-OPLS-2005>
107.465606689453

> <r_mmod_Torsional_Energy-OPLS-2005>
210.496887207031

> <r_mmod_Improper_Torsional_Energy-OPLS-2005>
7.46391916275024

> <r_mmod_Van_der_Waal_Energy-OPLS-2005>
148.9599609375

> <r_mmod_Electrostatic_Energy-OPLS-2005>
-372.862365722656

> <r_mmod_Solvation_Energy-OPLS-2005>
-208.060958862305

> <b_mmod_Minimization_Converged-OPLS-2005>
0

> <r_mmod_RMS_Derivative-OPLS-2005>
1.61792314052582

$$$$
41
                    3D
 Structure written by MMmdl.
159167  0  0  1  0            999 V2000
  -30.7472  -14.4055   20.6334 C   0  0  0  0  0  0
  -30.4163  -12.2806   19.4234 C   0  0  0  0  0  0
  -29.4978  -12.5129   18.2075 C   0  0  0  0  0  0
  -28.0170  -12.3826   18.6141 C   0  0  0  0  0  0
  -27.6696  -13.2034   19.8871 C   0  0  2  0  0  0
  -28.7084  -12.9631   21.0063 C   0  0  0  0  0  0
  -25.2614  -13.8160   20.5685 C   0  0  0  0  0  0
  -24.1839  -13.0453   20.9119 C   0  0  0  0  0  0
  -24.6380  -11.6921   20.8692 C   0  0  0  0  0  0
  -23.9033  -10.4315   21.0370 C   0  0  0  0  0  0
  -24.3590   -9.4239   21.9158 C   0  0  0  0  0  0
  -23.6275   -8.2268   22.0737 C   0  0  0  0  0  0
  -22.4263   -8.0286   21.3524 C   0  0  0  0  0  0
  -21.9886   -9.0254   20.4623 C   0  0  0  0  0  0
  -22.7203  -10.2140   20.3035 C   0  0  0  0  0  0
  -21.6866   -6.0728   22.5282 C   0  0  0  0  0  0
  -21.4012   -6.5625   23.8219 C   0  0  0  0  0  0
  -21.3643   -5.6780   24.9178 C   0  0  0  0  0  0
  -21.6057   -4.3051   24.7231 C   0  0  0  0  0  0
  -21.8827   -3.8133   23.4353 C   0  0  0  0  0  0
  -21.9199   -4.6951   22.3408 C   0  0  0  0  0  0
  -22.7866  -13.5245   21.1806 C   0  0  0  0  0  0
  -22.1671   -4.2144   21.0989 F   0  0  0  0  0  0
  -21.5631   -3.4529   25.7734 F   0  0  0  0  0  0
  -30.0487  -13.2525   20.4627 N   0  0  0  0  0  0
  -26.3066  -12.9326   20.3437 N   0  0  0  0  0  0
  -25.9310  -11.6476   20.5754 N   0  0  0  0  0  0
  -22.0526  -12.8227   22.0376 N   0  0  0  0  0  0
  -25.4386  -15.1878   20.4101 N   0  0  0  0  0  0
  -31.8118  -14.6412   20.0526 O   0  0  0  0  0  0
  -21.6642   -6.8873   21.4242 O   0  0  0  0  0  0
  -22.3547  -14.5575   20.6710 O   0  0  0  0  0  0
  -24.6152  -31.8694   23.2138 C   0  0  0  0  0  0
  -25.9040  -32.4850   23.8440 C   0  0  1  0  0  0
  -27.2648  -27.4594   20.0981 C   0  0  0  0  0  0
  -25.5896  -33.8645   24.2360 N   0  0  0  0  0  0
  -23.4071  -30.4909   21.5515 C   0  0  2  0  0  0
  -24.8615  -28.9504   20.1305 C   0  0  0  0  0  0
  -22.7437  -29.4668   22.5007 C   0  0  0  0  0  0
  -18.0289  -28.1400   22.8486 C   0  0  0  0  0  0
  -24.1478  -36.7350   23.2635 C   0  0  0  0  0  0
  -25.9306  -30.8396   21.3655 C   0  0  0  0  0  0
  -26.0156  -29.4680   20.7313 C   0  0  0  0  0  0
  -27.2176  -28.7252   20.7319 C   0  0  0  0  0  0
  -26.0942  -26.9554   19.4971 C   0  0  0  0  0  0
  -24.8899  -27.6847   19.5200 C   0  0  0  0  0  0
  -23.6246  -29.8198   20.1681 C   0  0  0  0  0  0
  -25.4099  -36.3137   24.0342 C   0  0  1  0  0  0
  -20.5872  -28.3692   23.1321 C   0  0  2  0  0  0
  -20.6794  -26.9433   22.5414 C   0  0  0  0  0  0
  -19.5762  -26.6406   21.5223 C   0  0  0  0  0  0
  -18.1936  -26.7947   22.1617 C   0  0  0  0  0  0
  -19.1529  -28.8865   23.2894 C   0  0  0  0  0  0
  -18.9450  -30.1461   23.8927 C   0  0  0  0  0  0
  -17.6449  -30.6591   24.0578 C   0  0  0  0  0  0
  -25.9017  -34.9499   23.5141 C   0  0  0  0  0  0
  -16.5351  -29.9106   23.6306 C   0  0  0  0  0  0
  -16.7278  -28.6530   23.0320 C   0  0  0  0  0  0
  -26.4466  -31.6620   25.0756 C   0  0  0  0  0  0
  -25.3761  -31.3707   26.1525 C   0  0  0  0  0  0
  -27.0266  -30.3074   24.6075 C   0  0  0  0  0  0
  -27.6032  -32.4359   25.7524 C   0  0  0  0  0  0
  -27.5576  -37.1828   24.8457 C   0  0  0  0  0  0
  -21.4170  -29.3044   22.3729 N   0  0  0  0  0  0
  -26.4293  -37.3814   23.9410 N   0  0  0  0  0  0
  -24.6691  -31.0820   22.1041 N   0  0  0  0  0  0
  -23.4193  -28.8215   23.3067 O   0  0  0  0  0  0
  -28.3878  -26.6685   19.9940 O   0  0  0  0  0  0
  -26.5564  -34.8936   22.4693 O   0  0  0  0  0  0
  -23.5345  -32.1424   23.7544 O   0  0  0  0  0  0
  -29.4780  -22.2415   19.7107 C   0  0  0  0  0  0
  -29.9884  -23.7944   21.9886 C   0  0  0  0  0  0
  -29.3481  -21.6516   20.9874 C   0  0  0  0  0  0
  -30.1234  -24.3829   20.7102 C   0  0  0  0  0  0
  -29.5951  -22.4460   22.1324 C   0  0  0  0  0  0
  -29.8540  -23.5926   19.5656 C   0  0  0  0  0  0
  -28.8967  -20.1937   21.0911 C   0  0  0  0  0  0
  -30.5838  -25.8381   20.5950 C   0  0  0  0  0  0
  -30.0336  -19.1786   21.3499 C   0  0  0  0  0  0
  -29.5357  -17.7155   21.3844 C   0  0  0  0  0  0
  -30.6439  -16.6825   21.6757 C   0  0  0  0  0  0
  -29.4887  -26.8934   20.8651 C   0  0  0  0  0  0
  -30.1750  -15.3106   21.4394 N   0  0  0  0  0  0
  -29.4113  -21.8021   23.7253 Cl  0  0  0  0  0  0
  -29.9647  -24.2392   17.9674 Cl  0  0  0  0  0  0
  -31.4637  -12.3589   19.1320 H   0  0  0  0  0  0
  -30.2940  -11.2663   19.8087 H   0  0  0  0  0  0
  -29.7402  -11.8004   17.4191 H   0  0  0  0  0  0
  -29.6812  -13.5048   17.7893 H   0  0  0  0  0  0
  -27.8193  -11.3243   18.7872 H   0  0  0  0  0  0
  -27.3764  -12.6823   17.7843 H   0  0  0  0  0  0
  -27.7240  -14.2564   19.6087 H   0  0  0  0  0  0
  -28.6783  -11.9260   21.3443 H   0  0  0  0  0  0
  -28.4575  -13.5476   21.8919 H   0  0  0  0  0  0
  -25.2749   -9.5714   22.4681 H   0  0  0  0  0  0
  -23.9999   -7.4661   22.7454 H   0  0  0  0  0  0
  -21.0821   -8.8759   19.8909 H   0  0  0  0  0  0
  -22.3685  -10.9642   19.6112 H   0  0  0  0  0  0
  -21.2013   -7.6134   23.9715 H   0  0  0  0  0  0
  -21.1447   -6.0512   25.9077 H   0  0  0  0  0  0
  -22.0621   -2.7596   23.2859 H   0  0  0  0  0  0
  -22.4169  -11.9857   22.4656 H   0  0  0  0  0  0
  -21.1159  -13.1259   22.2648 H   0  0  0  0  0  0
  -24.6733  -15.8485   20.4898 H   0  0  0  0  0  0
  -26.3160  -15.6243   20.1541 H   0  0  0  0  0  0
  -26.7133  -32.5595   23.1238 H   0  0  0  0  0  0
  -25.0117  -33.9812   25.0553 H   0  0  0  0  0  0
  -22.6955  -31.3056   21.4065 H   0  0  0  0  0  0
  -23.3724  -35.9694   23.3310 H   0  0  0  0  0  0
  -24.3570  -36.8957   22.2044 H   0  0  0  0  0  0
  -23.7239  -37.6569   23.6640 H   0  0  0  0  0  0
  -26.0219  -31.5912   20.5806 H   0  0  0  0  0  0
  -26.8261  -30.9190   21.9694 H   0  0  0  0  0  0
  -28.0978  -29.1410   21.2007 H   0  0  0  0  0  0
  -26.1259  -25.9912   19.0103 H   0  0  0  0  0  0
  -24.0038  -27.2718   19.0598 H   0  0  0  0  0  0
  -23.7521  -30.5942   19.4106 H   0  0  0  0  0  0
  -22.7480  -29.2479   19.8590 H   0  0  0  0  0  0
  -25.1266  -36.2020   25.0832 H   0  0  0  0  0  0
  -20.9954  -28.3260   24.1446 H   0  0  0  0  0  0
  -20.5765  -26.2294   23.3596 H   0  0  0  0  0  0
  -21.6657  -26.7521   22.1153 H   0  0  0  0  0  0
  -19.6932  -25.6316   21.1256 H   0  0  0  0  0  0
  -19.6713  -27.3222   20.6756 H   0  0  0  0  0  0
  -17.4218  -26.6722   21.4004 H   0  0  0  0  0  0
  -18.0315  -26.0090   22.8999 H   0  0  0  0  0  0
  -19.7925  -30.7275   24.2326 H   0  0  0  0  0  0
  -17.4999  -31.6271   24.5193 H   0  0  0  0  0  0
  -15.5349  -30.3015   23.7620 H   0  0  0  0  0  0
  -15.8678  -28.0873   22.6988 H   0  0  0  0  0  0
  -24.5917  -30.7061   25.7887 H   0  0  0  0  0  0
  -24.8972  -32.2852   26.5040 H   0  0  0  0  0  0
  -25.8147  -30.8847   27.0250 H   0  0  0  0  0  0
  -26.2770  -29.6895   24.1121 H   0  0  0  0  0  0
  -27.4032  -29.7251   25.4492 H   0  0  0  0  0  0
  -27.8616  -30.4402   23.9195 H   0  0  0  0  0  0
  -27.2609  -33.3630   26.2143 H   0  0  0  0  0  0
  -28.3817  -32.6992   25.0351 H   0  0  0  0  0  0
  -28.0735  -31.8485   26.5419 H   0  0  0  0  0  0
  -28.2589  -38.0119   24.7503 H   0  0  0  0  0  0
  -28.1060  -36.2662   24.6277 H   0  0  0  0  0  0
  -27.2291  -37.1484   25.8850 H   0  0  0  0  0  0
  -20.9379  -29.8737   21.6898 H   0  0  0  0  0  0
  -26.0188  -38.2900   24.1393 H   0  0  0  0  0  0
  -29.2754  -21.6544   18.8261 H   0  0  0  0  0  0
  -30.1839  -24.3816   22.8729 H   0  0  0  0  0  0
  -28.3891  -19.9297   20.1617 H   0  0  0  0  0  0
  -28.1369  -20.1093   21.8664 H   0  0  0  0  0  0
  -31.0194  -26.0174   19.6120 H   0  0  0  0  0  0
  -31.4063  -25.9904   21.2942 H   0  0  0  0  0  0
  -30.5272  -19.4225   22.2906 H   0  0  0  0  0  0
  -30.7898  -19.2802   20.5698 H   0  0  0  0  0  0
  -29.0669  -17.4783   20.4276 H   0  0  0  0  0  0
  -28.7500  -17.6231   22.1377 H   0  0  0  0  0  0
  -30.9726  -16.7680   22.7122 H   0  0  0  0  0  0
  -31.5127  -16.9087   21.0560 H   0  0  0  0  0  0
  -29.9098  -27.8861   20.7003 H   0  0  0  0  0  0
  -29.1633  -26.8401   21.9056 H   0  0  0  0  0  0
  -29.3164  -15.0280   21.8896 H   0  0  0  0  0  0
  1 25  1  0  0  0
  1 30  2  0  0  0
  1 83  1  0  0  0
  2  3  1  0  0  0
  2 25  1  0  0  0
  2 86  1  0  0  0
  2 87  1  0  0  0
  3  4  1  0  0  0
  3 88  1  0  0  0
  3 89  1  0  0  0
  4  5  1  0  0  0
  4 90  1  0  0  0
  4 91  1  0  0  0
  5  6  1  0  0  0
  5 26  1  0  0  0
  5 92  1  0  0  0
  6 25  1  0  0  0
  6 93  1  0  0  0
  6 94  1  0  0  0
  7  8  2  0  0  0
  7 26  1  0  0  0
  7 29  1  0  0  0
  8  9  1  0  0  0
  8 22  1  0  0  0
  9 10  1  0  0  0
  9 27  2  0  0  0
 10 11  2  0  0  0
 10 15  1  0  0  0
 11 12  1  0  0  0
 11 95  1  0  0  0
 12 13  2  0  0  0
 12 96  1  0  0  0
 13 14  1  0  0  0
 13 31  1  0  0  0
 14 15  2  0  0  0
 14 97  1  0  0  0
 15 98  1  0  0  0
 16 17  2  0  0  0
 16 21  1  0  0  0
 16 31  1  0  0  0
 17 18  1  0  0  0
 17 99  1  0  0  0
 18 19  2  0  0  0
 18100  1  0  0  0
 19 20  1  0  0  0
 19 24  1  0  0  0
 20 21  2  0  0  0
 20101  1  0  0  0
 21 23  1  0  0  0
 22 28  1  0  0  0
 22 32  2  0  0  0
 26 27  1  0  0  0
 28102  1  0  0  0
 28103  1  0  0  0
 29104  1  0  0  0
 29105  1  0  0  0
 33 34  1  0  0  0
 33 66  1  0  0  0
 33 70  2  0  0  0
 34 36  1  0  0  0
 34 59  1  0  0  0
 34106  1  0  0  0
 35 44  2  0  0  0
 35 45  1  0  0  0
 35 68  1  0  0  0
 36 56  1  0  0  0
 36107  1  0  0  0
 37 39  1  0  0  0
 37 47  1  0  0  0
 37 66  1  0  0  0
 37108  1  0  0  0
 38 43  2  0  0  0
 38 46  1  0  0  0
 38 47  1  0  0  0
 39 64  1  0  0  0
 39 67  2  0  0  0
 40 52  1  0  0  0
 40 53  2  0  0  0
 40 58  1  0  0  0
 41109  1  0  0  0
 41110  1  0  0  0
 41111  1  0  0  0
 41 48  1  0  0  0
 42 43  1  0  0  0
 42 66  1  0  0  0
 42112  1  0  0  0
 42113  1  0  0  0
 43 44  1  0  0  0
 44114  1  0  0  0
 45 46  2  0  0  0
 45115  1  0  0  0
 46116  1  0  0  0
 47117  1  0  0  0
 47118  1  0  0  0
 48 56  1  0  0  0
 48 65  1  0  0  0
 48119  1  0  0  0
 49 50  1  0  0  0
 49 53  1  0  0  0
 49 64  1  0  0  0
 49120  1  0  0  0
 50 51  1  0  0  0
 50121  1  0  0  0
 50122  1  0  0  0
 51 52  1  0  0  0
 51123  1  0  0  0
 51124  1  0  0  0
 52125  1  0  0  0
 52126  1  0  0  0
 53 54  1  0  0  0
 54 55  2  0  0  0
 54127  1  0  0  0
 55 57  1  0  0  0
 55128  1  0  0  0
 56 69  2  0  0  0
 57 58  2  0  0  0
 57129  1  0  0  0
 58130  1  0  0  0
 59 60  1  0  0  0
 59 61  1  0  0  0
 59 62  1  0  0  0
 60131  1  0  0  0
 60132  1  0  0  0
 60133  1  0  0  0
 61134  1  0  0  0
 61135  1  0  0  0
 61136  1  0  0  0
 62137  1  0  0  0
 62138  1  0  0  0
 62139  1  0  0  0
 63 65  1  0  0  0
 63140  1  0  0  0
 63141  1  0  0  0
 63142  1  0  0  0
 64143  1  0  0  0
 65144  1  0  0  0
 68 82  1  0  0  0
 71 73  2  0  0  0
 71 76  1  0  0  0
 71145  1  0  0  0
 72 74  1  0  0  0
 72 75  2  0  0  0
 72146  1  0  0  0
 73 75  1  0  0  0
 73 77  1  0  0  0
 74 76  2  0  0  0
 74 78  1  0  0  0
 75 84  1  0  0  0
 76 85  1  0  0  0
 77 79  1  0  0  0
 77147  1  0  0  0
 77148  1  0  0  0
 78 82  1  0  0  0
 78149  1  0  0  0
 78150  1  0  0  0
 79 80  1  0  0  0
 79151  1  0  0  0
 79152  1  0  0  0
 80 81  1  0  0  0
 80153  1  0  0  0
 80154  1  0  0  0
 81 83  1  0  0  0
 81155  1  0  0  0
 81156  1  0  0  0
 82157  1  0  0  0
 82158  1  0  0  0
 83159  1  0  0  0
M  ISO  4   1 100  68 101  82 101  83 100
M  END
> <chiral flag>
0

> <version>
0

> <s_m_source_file>
/data/baiqing/PycharmProjects/Reinvent-master-3.2/result/LINK_invent/BTK/process_docking_weight1_custom_sum_contain_oxygen_bond_distance_aromatic_linkinvent_7_9_3/rearranged_h_0032.sdf

> <i_m_source_file_index>
42

> <r_mmod_Potential_Energy-OPLS-2005>
-105.648025512695

> <r_mmod_Stretch_Energy-OPLS-2005>
34.3340377807617

> <r_mmod_Bend_Energy-OPLS-2005>
96.1046905517578

> <r_mmod_Torsional_Energy-OPLS-2005>
183.017715454102

> <r_mmod_Improper_Torsional_Energy-OPLS-2005>
2.02885627746582

> <r_mmod_Van_der_Waal_Energy-OPLS-2005>
146.548034667969

> <r_mmod_Electrostatic_Energy-OPLS-2005>
-368.615997314453

> <r_mmod_Solvation_Energy-OPLS-2005>
-206.795043945312

> <b_mmod_Minimization_Converged-OPLS-2005>
0

> <r_mmod_RMS_Derivative-OPLS-2005>
3.79941487312317

$$$$
42
                    3D
 Structure written by MMmdl.
156164  0  0  1  0            999 V2000
  -30.5875  -14.8457   20.4177 C   0  0  0  0  0  0
  -30.4292  -12.5187   19.4840 C   0  0  0  0  0  0
  -29.5106  -12.5082   18.2425 C   0  0  0  0  0  0
  -28.0375  -12.3240   18.6553 C   0  0  0  0  0  0
  -27.6295  -13.2428   19.8376 C   0  0  2  0  0  0
  -28.6736  -13.2360   20.9735 C   0  0  0  0  0  0
  -25.2457  -13.8206   20.5703 C   0  0  0  0  0  0
  -24.1767  -13.0442   20.9217 C   0  0  0  0  0  0
  -24.6371  -11.6919   20.8743 C   0  0  0  0  0  0
  -23.9047  -10.4295   21.0399 C   0  0  0  0  0  0
  -24.3604   -9.4214   21.9181 C   0  0  0  0  0  0
  -23.6288   -8.2241   22.0749 C   0  0  0  0  0  0
  -22.4274   -8.0268   21.3534 C   0  0  0  0  0  0
  -21.9901   -9.0237   20.4635 C   0  0  0  0  0  0
  -22.7220  -10.2126   20.3047 C   0  0  0  0  0  0
  -21.6854   -6.0722   22.5273 C   0  0  0  0  0  0
  -21.4013   -6.5630   23.8203 C   0  0  0  0  0  0
  -21.3664   -5.6789   24.9170 C   0  0  0  0  0  0
  -21.6046   -4.3051   24.7224 C   0  0  0  0  0  0
  -21.8821   -3.8136   23.4350 C   0  0  0  0  0  0
  -21.9195   -4.6948   22.3402 C   0  0  0  0  0  0
  -22.7786  -13.5210   21.1876 C   0  0  0  0  0  0
  -22.1664   -4.2134   21.0981 F   0  0  0  0  0  0
  -21.5634   -3.4538   25.7741 F   0  0  0  0  0  0
  -29.9591  -13.6124   20.3745 N   0  0  0  0  0  0
  -26.2874  -12.9435   20.3232 N   0  0  0  0  0  0
  -25.9303  -11.6566   20.5732 N   0  0  0  0  0  0
  -22.0440  -12.8191   22.0436 N   0  0  0  0  0  0
  -25.4133  -15.1935   20.4114 N   0  0  0  0  0  0
  -31.7939  -14.8901   20.1603 O   0  0  0  0  0  0
  -21.6644   -6.8864   21.4232 O   0  0  0  0  0  0
  -22.3466  -14.5517   20.6726 O   0  0  0  0  0  0
  -24.6395  -31.8466   23.1931 C   0  0  0  0  0  0
  -25.9186  -32.4708   23.8292 C   0  0  1  0  0  0
  -27.2145  -27.1874   20.1356 C   0  0  0  0  0  0
  -25.5947  -33.8512   24.2208 N   0  0  0  0  0  0
  -23.4395  -30.4708   21.5368 C   0  0  2  0  0  0
  -24.8871  -28.9066   20.1091 C   0  0  0  0  0  0
  -22.7534  -29.4565   22.4857 C   0  0  0  0  0  0
  -18.0292  -28.1395   22.8458 C   0  0  0  0  0  0
  -24.1486  -36.7255   23.2648 C   0  0  0  0  0  0
  -25.9931  -30.7376   21.3835 C   0  0  0  0  0  0
  -26.0636  -29.3556   20.7211 C   0  0  0  0  0  0
  -27.2321  -28.5123   20.7141 C   0  0  0  0  0  0
  -26.0103  -26.8240   19.4952 C   0  0  0  0  0  0
  -24.8703  -27.6525   19.4822 C   0  0  0  0  0  0
  -23.6616  -29.8024   20.1547 C   0  0  0  0  0  0
  -25.4121  -36.3047   24.0325 C   0  0  1  0  0  0
  -20.5909  -28.3700   23.1235 C   0  0  2  0  0  0
  -20.6779  -26.9404   22.5405 C   0  0  0  0  0  0
  -19.5757  -26.6377   21.5200 C   0  0  0  0  0  0
  -18.1932  -26.7937   22.1610 C   0  0  0  0  0  0
  -19.1555  -28.8859   23.2837 C   0  0  0  0  0  0
  -18.9484  -30.1452   23.8867 C   0  0  0  0  0  0
  -17.6487  -30.6596   24.0548 C   0  0  0  0  0  0
  -25.9069  -34.9416   23.5076 C   0  0  0  0  0  0
  -16.5365  -29.9089   23.6341 C   0  0  0  0  0  0
  -16.7278  -28.6505   23.0349 C   0  0  0  0  0  0
  -26.4510  -31.6570   25.0718 C   0  0  0  0  0  0
  -25.3699  -31.3753   26.1419 C   0  0  0  0  0  0
  -27.0369  -30.2973   24.6278 C   0  0  0  0  0  0
  -27.6048  -32.4326   25.7502 C   0  0  0  0  0  0
  -27.5570  -37.1784   24.8471 C   0  0  0  0  0  0
  -21.4232  -29.3040   22.3606 N   0  0  0  0  0  0
  -26.4282  -37.3758   23.9413 N   0  0  0  0  0  0
  -24.7104  -31.0374   22.0936 N   0  0  0  0  0  0
  -23.4195  -28.8092   23.2979 O   0  0  0  0  0  0
  -28.2886  -26.2425   20.1842 O   0  0  0  0  0  0
  -26.5653  -34.8905   22.4653 O   0  0  0  0  0  0
  -23.5527  -32.1317   23.7180 O   0  0  0  0  0  0
  -29.5043  -21.1954   19.1253 C   0  0  0  0  0  0
  -29.7760  -19.7797   19.1388 C   0  0  0  0  0  0
  -29.1310  -21.9579   20.2747 C   0  0  0  0  0  0
  -29.6939  -18.9488   20.2998 C   0  0  0  0  0  0
  -28.9608  -21.1209   21.4421 C   0  0  0  0  0  0
  -29.2173  -19.6760   21.4423 C   0  0  0  0  0  0
  -27.0553  -22.0008   22.8881 C   0  0  0  0  0  0
  -29.2256  -23.5977   20.2632 C   0  0  0  0  0  0
  -28.5690  -21.8022   22.7534 C   0  0  0  0  0  0
  -30.4175  -17.4796   20.3340 C   0  0  0  0  0  0
  -28.0283  -24.7264   20.1262 C   0  0  0  0  0  0
  -29.8536  -16.0427   20.5143 N   0  0  0  0  0  0
  -29.0269  -18.7594   22.8997 Cl  0  0  0  0  0  0
  -31.4660  -12.6553   19.1727 H   0  0  0  0  0  0
  -30.3988  -11.5595   20.0026 H   0  0  0  0  0  0
  -29.8092  -11.7144   17.5566 H   0  0  0  0  0  0
  -29.6229  -13.4455   17.6953 H   0  0  0  0  0  0
  -27.9047  -11.2786   18.9367 H   0  0  0  0  0  0
  -27.3820  -12.4935   17.8004 H   0  0  0  0  0  0
  -27.6040  -14.2533   19.4287 H   0  0  0  0  0  0
  -28.7338  -12.2532   21.4439 H   0  0  0  0  0  0
  -28.3936  -13.9412   21.7577 H   0  0  0  0  0  0
  -25.2746   -9.5701   22.4759 H   0  0  0  0  0  0
  -24.0000   -7.4635   22.7472 H   0  0  0  0  0  0
  -21.0833   -8.8739   19.8940 H   0  0  0  0  0  0
  -22.3663  -10.9656   19.6153 H   0  0  0  0  0  0
  -21.2000   -7.6138   23.9697 H   0  0  0  0  0  0
  -21.1488   -6.0525   25.9073 H   0  0  0  0  0  0
  -22.0598   -2.7597   23.2854 H   0  0  0  0  0  0
  -22.4076  -11.9860   22.4825 H   0  0  0  0  0  0
  -21.1044  -13.1182   22.2632 H   0  0  0  0  0  0
  -24.6451  -15.8466   20.5202 H   0  0  0  0  0  0
  -26.2560  -15.6303   20.0616 H   0  0  0  0  0  0
  -26.7229  -32.5317   23.1005 H   0  0  0  0  0  0
  -25.0083  -33.9634   25.0349 H   0  0  0  0  0  0
  -22.7414  -31.2968   21.3858 H   0  0  0  0  0  0
  -23.3757  -35.9578   23.3312 H   0  0  0  0  0  0
  -24.3575  -36.8893   22.2061 H   0  0  0  0  0  0
  -23.7230  -37.6451   23.6675 H   0  0  0  0  0  0
  -26.1473  -31.4978   20.6168 H   0  0  0  0  0  0
  -26.8651  -30.7799   22.0243 H   0  0  0  0  0  0
  -28.1332  -28.8550   21.2012 H   0  0  0  0  0  0
  -25.9112  -25.8679   19.0059 H   0  0  0  0  0  0
  -23.9704  -27.3031   18.9943 H   0  0  0  0  0  0
  -23.7934  -30.5790   19.4010 H   0  0  0  0  0  0
  -22.7769  -29.2429   19.8445 H   0  0  0  0  0  0
  -25.1301  -36.1884   25.0817 H   0  0  0  0  0  0
  -20.9985  -28.3296   24.1362 H   0  0  0  0  0  0
  -20.5661  -26.2300   23.3613 H   0  0  0  0  0  0
  -21.6639  -26.7410   22.1204 H   0  0  0  0  0  0
  -19.6922  -25.6283   21.1239 H   0  0  0  0  0  0
  -19.6727  -27.3172   20.6725 H   0  0  0  0  0  0
  -17.4204  -26.6660   21.4014 H   0  0  0  0  0  0
  -18.0335  -26.0094   22.9024 H   0  0  0  0  0  0
  -19.7960  -30.7258   24.2231 H   0  0  0  0  0  0
  -17.5051  -31.6278   24.5139 H   0  0  0  0  0  0
  -15.5362  -30.2978   23.7707 H   0  0  0  0  0  0
  -15.8675  -28.0823   22.7080 H   0  0  0  0  0  0
  -24.5921  -30.7045   25.7758 H   0  0  0  0  0  0
  -24.8826  -32.2919   26.4748 H   0  0  0  0  0  0
  -25.7996  -30.9017   27.0260 H   0  0  0  0  0  0
  -26.2980  -29.6700   24.1283 H   0  0  0  0  0  0
  -27.3995  -29.7272   25.4844 H   0  0  0  0  0  0
  -27.8880  -30.4223   23.9582 H   0  0  0  0  0  0
  -27.2670  -33.3685   26.1971 H   0  0  0  0  0  0
  -28.3916  -32.6794   25.0358 H   0  0  0  0  0  0
  -28.0635  -31.8508   26.5511 H   0  0  0  0  0  0
  -28.2580  -38.0083   24.7515 H   0  0  0  0  0  0
  -28.1069  -36.2615   24.6303 H   0  0  0  0  0  0
  -27.2285  -37.1448   25.8873 H   0  0  0  0  0  0
  -20.9414  -29.8792   21.6836 H   0  0  0  0  0  0
  -26.0155  -38.2828   24.1437 H   0  0  0  0  0  0
  -29.6888  -21.7256   18.2009 H   0  0  0  0  0  0
  -30.1540  -19.3409   18.2260 H   0  0  0  0  0  0
  -26.5247  -21.0486   22.8649 H   0  0  0  0  0  0
  -26.6603  -22.6219   22.0851 H   0  0  0  0  0  0
  -26.8164  -22.4903   23.8329 H   0  0  0  0  0  0
  -29.8941  -23.8128   19.4300 H   0  0  0  0  0  0
  -29.8267  -23.8739   21.1283 H   0  0  0  0  0  0
  -29.0671  -22.7656   22.8392 H   0  0  0  0  0  0
  -28.9431  -21.2461   23.6113 H   0  0  0  0  0  0
  -31.1750  -17.5742   21.1127 H   0  0  0  0  0  0
  -31.0012  -17.4322   19.4129 H   0  0  0  0  0  0
  -27.2871  -24.5168   20.8976 H   0  0  0  0  0  0
  -27.5391  -24.5135   19.1769 H   0  0  0  0  0  0
  -28.8597  -15.9575   20.6618 H   0  0  0  0  0  0
  1 25  1  0  0  0
  1 30  2  0  0  0
  1 82  1  0  0  0
  2  3  1  0  0  0
  2 25  1  0  0  0
  2 84  1  0  0  0
  2 85  1  0  0  0
  3  4  1  0  0  0
  3 86  1  0  0  0
  3 87  1  0  0  0
  4  5  1  0  0  0
  4 88  1  0  0  0
  4 89  1  0  0  0
  5  6  1  0  0  0
  5 26  1  0  0  0
  5 90  1  0  0  0
  6 25  1  0  0  0
  6 91  1  0  0  0
  6 92  1  0  0  0
  7  8  2  0  0  0
  7 26  1  0  0  0
  7 29  1  0  0  0
  8  9  1  0  0  0
  8 22  1  0  0  0
  9 10  1  0  0  0
  9 27  2  0  0  0
 10 11  2  0  0  0
 10 15  1  0  0  0
 11 12  1  0  0  0
 11 93  1  0  0  0
 12 13  2  0  0  0
 12 94  1  0  0  0
 13 14  1  0  0  0
 13 31  1  0  0  0
 14 15  2  0  0  0
 14 95  1  0  0  0
 15 96  1  0  0  0
 16 17  2  0  0  0
 16 21  1  0  0  0
 16 31  1  0  0  0
 17 18  1  0  0  0
 17 97  1  0  0  0
 18 19  2  0  0  0
 18 98  1  0  0  0
 19 20  1  0  0  0
 19 24  1  0  0  0
 20 21  2  0  0  0
 20 99  1  0  0  0
 21 23  1  0  0  0
 22 28  1  0  0  0
 22 32  2  0  0  0
 26 27  1  0  0  0
 28100  1  0  0  0
 28101  1  0  0  0
 29102  1  0  0  0
 29103  1  0  0  0
 33 34  1  0  0  0
 33 66  1  0  0  0
 33 70  2  0  0  0
 34 36  1  0  0  0
 34 59  1  0  0  0
 34104  1  0  0  0
 35 44  2  0  0  0
 35 45  1  0  0  0
 35 68  1  0  0  0
 36 56  1  0  0  0
 36105  1  0  0  0
 37 39  1  0  0  0
 37 47  1  0  0  0
 37 66  1  0  0  0
 37106  1  0  0  0
 38 43  2  0  0  0
 38 46  1  0  0  0
 38 47  1  0  0  0
 39 64  1  0  0  0
 39 67  2  0  0  0
 40 52  1  0  0  0
 40 53  2  0  0  0
 40 58  1  0  0  0
 41107  1  0  0  0
 41108  1  0  0  0
 41109  1  0  0  0
 41 48  1  0  0  0
 42 43  1  0  0  0
 42 66  1  0  0  0
 42110  1  0  0  0
 42111  1  0  0  0
 43 44  1  0  0  0
 44112  1  0  0  0
 45 46  2  0  0  0
 45113  1  0  0  0
 46114  1  0  0  0
 47115  1  0  0  0
 47116  1  0  0  0
 48 56  1  0  0  0
 48 65  1  0  0  0
 48117  1  0  0  0
 49 50  1  0  0  0
 49 53  1  0  0  0
 49 64  1  0  0  0
 49118  1  0  0  0
 50 51  1  0  0  0
 50119  1  0  0  0
 50120  1  0  0  0
 51 52  1  0  0  0
 51121  1  0  0  0
 51122  1  0  0  0
 52123  1  0  0  0
 52124  1  0  0  0
 53 54  1  0  0  0
 54 55  2  0  0  0
 54125  1  0  0  0
 55 57  1  0  0  0
 55126  1  0  0  0
 56 69  2  0  0  0
 57 58  2  0  0  0
 57127  1  0  0  0
 58128  1  0  0  0
 59 60  1  0  0  0
 59 61  1  0  0  0
 59 62  1  0  0  0
 60129  1  0  0  0
 60130  1  0  0  0
 60131  1  0  0  0
 61132  1  0  0  0
 61133  1  0  0  0
 61134  1  0  0  0
 62135  1  0  0  0
 62136  1  0  0  0
 62137  1  0  0  0
 63 65  1  0  0  0
 63138  1  0  0  0
 63139  1  0  0  0
 63140  1  0  0  0
 64141  1  0  0  0
 65142  1  0  0  0
 68 81  1  0  0  0
 71 72  2  0  0  0
 71 73  1  0  0  0
 71143  1  0  0  0
 72 74  1  0  0  0
 72144  1  0  0  0
 73 75  2  0  0  0
 73 78  1  0  0  0
 74 76  2  0  0  0
 74 80  1  0  0  0
 75 76  1  0  0  0
 75 79  1  0  0  0
 76 83  1  0  0  0
 77 79  1  0  0  0
 77145  1  0  0  0
 77146  1  0  0  0
 77147  1  0  0  0
 78 81  1  0  0  0
 78148  1  0  0  0
 78149  1  0  0  0
 79150  1  0  0  0
 79151  1  0  0  0
 80 82  1  0  0  0
 80152  1  0  0  0
 80153  1  0  0  0
 81154  1  0  0  0
 81155  1  0  0  0
 82156  1  0  0  0
M  ISO  4   1 100  68 101  81 101  82 100
M  END
> <chiral flag>
0

> <version>
0

> <s_m_source_file>
/data/baiqing/PycharmProjects/Reinvent-master-3.2/result/LINK_invent/BTK/process_docking_weight1_custom_sum_contain_oxygen_bond_distance_aromatic_linkinvent_7_9_3/rearranged_h_0032.sdf

> <i_m_source_file_index>
43

> <r_mmod_Potential_Energy-OPLS-2005>
350.087921142578

> <r_mmod_Stretch_Energy-OPLS-2005>
185.780181884766

> <r_mmod_Bend_Energy-OPLS-2005>
231.274795532227

> <r_mmod_Torsional_Energy-OPLS-2005>
227.486709594727

> <r_mmod_Improper_Torsional_Energy-OPLS-2005>
9.80929946899414

> <r_mmod_Van_der_Waal_Energy-OPLS-2005>
136.707580566406

> <r_mmod_Electrostatic_Energy-OPLS-2005>
-377.574340820312

> <r_mmod_Solvation_Energy-OPLS-2005>
-200.53662109375

> <b_mmod_Minimization_Converged-OPLS-2005>
0

> <r_mmod_RMS_Derivative-OPLS-2005>
1.96720683574677

$$$$
43
                    3D
 Structure written by MMmdl.
159167  0  0  1  0            999 V2000
  -30.6857  -14.4978   20.5152 C   0  0  0  0  0  0
  -30.4128  -12.3027   19.4378 C   0  0  0  0  0  0
  -29.4929  -12.4922   18.2131 C   0  0  0  0  0  0
  -28.0128  -12.3586   18.6209 C   0  0  0  0  0  0
  -27.6553  -13.2087   19.8701 C   0  0  2  0  0  0
  -28.6965  -13.0246   20.9984 C   0  0  0  0  0  0
  -25.2566  -13.8169   20.5677 C   0  0  0  0  0  0
  -24.1815  -13.0448   20.9171 C   0  0  0  0  0  0
  -24.6367  -11.6912   20.8734 C   0  0  0  0  0  0
  -23.9038  -10.4302   21.0406 C   0  0  0  0  0  0
  -24.3602   -9.4220   21.9186 C   0  0  0  0  0  0
  -23.6287   -8.2252   22.0753 C   0  0  0  0  0  0
  -22.4275   -8.0277   21.3542 C   0  0  0  0  0  0
  -21.9901   -9.0240   20.4644 C   0  0  0  0  0  0
  -22.7212  -10.2131   20.3052 C   0  0  0  0  0  0
  -21.6854   -6.0730   22.5276 C   0  0  0  0  0  0
  -21.4014   -6.5640   23.8203 C   0  0  0  0  0  0
  -21.3662   -5.6793   24.9165 C   0  0  0  0  0  0
  -21.6046   -4.3056   24.7223 C   0  0  0  0  0  0
  -21.8818   -3.8146   23.4345 C   0  0  0  0  0  0
  -21.9196   -4.6961   22.3397 C   0  0  0  0  0  0
  -22.7846  -13.5249   21.1842 C   0  0  0  0  0  0
  -22.1664   -4.2143   21.0979 F   0  0  0  0  0  0
  -21.5633   -3.4542   25.7737 F   0  0  0  0  0  0
  -30.0261  -13.3103   20.4396 N   0  0  0  0  0  0
  -26.2984  -12.9332   20.3345 N   0  0  0  0  0  0
  -25.9291  -11.6492   20.5762 N   0  0  0  0  0  0
  -22.0497  -12.8226   22.0395 N   0  0  0  0  0  0
  -25.4332  -15.1886   20.4091 N   0  0  0  0  0  0
  -31.8408  -14.6426   20.1060 O   0  0  0  0  0  0
  -21.6644   -6.8873   21.4236 O   0  0  0  0  0  0
  -22.3532  -14.5560   20.6701 O   0  0  0  0  0  0
  -24.6170  -31.8643   23.2072 C   0  0  0  0  0  0
  -25.9044  -32.4799   23.8380 C   0  0  1  0  0  0
  -27.2336  -27.4012   20.1031 C   0  0  0  0  0  0
  -25.5898  -33.8606   24.2312 N   0  0  0  0  0  0
  -23.4064  -30.4866   21.5477 C   0  0  2  0  0  0
  -24.8527  -28.9502   20.1107 C   0  0  0  0  0  0
  -22.7419  -29.4622   22.4966 C   0  0  0  0  0  0
  -18.0263  -28.1361   22.8476 C   0  0  0  0  0  0
  -24.1491  -36.7305   23.2645 C   0  0  0  0  0  0
  -25.9376  -30.8208   21.3639 C   0  0  0  0  0  0
  -26.0124  -29.4529   20.7119 C   0  0  0  0  0  0
  -27.2013  -28.6827   20.7079 C   0  0  0  0  0  0
  -26.0539  -26.9236   19.4876 C   0  0  0  0  0  0
  -24.8700  -27.6866   19.4968 C   0  0  0  0  0  0
  -23.6154  -29.8200   20.1612 C   0  0  0  0  0  0
  -25.4111  -36.3099   24.0344 C   0  0  1  0  0  0
  -20.5855  -28.3639   23.1315 C   0  0  2  0  0  0
  -20.6752  -26.9371   22.5421 C   0  0  0  0  0  0
  -19.5742  -26.6363   21.5209 C   0  0  0  0  0  0
  -18.1910  -26.7901   22.1608 C   0  0  0  0  0  0
  -19.1515  -28.8812   23.2889 C   0  0  0  0  0  0
  -18.9453  -30.1416   23.8896 C   0  0  0  0  0  0
  -17.6459  -30.6569   24.0554 C   0  0  0  0  0  0
  -25.9039  -34.9463   23.5122 C   0  0  0  0  0  0
  -16.5342  -29.9071   23.6330 C   0  0  0  0  0  0
  -16.7255  -28.6490   23.0342 C   0  0  0  0  0  0
  -26.4471  -31.6591   25.0721 C   0  0  0  0  0  0
  -25.3741  -31.3695   26.1471 C   0  0  0  0  0  0
  -27.0310  -30.3046   24.6080 C   0  0  0  0  0  0
  -27.6037  -32.4322   25.7482 C   0  0  0  0  0  0
  -27.5573  -37.1811   24.8464 C   0  0  0  0  0  0
  -21.4138  -29.3013   22.3724 N   0  0  0  0  0  0
  -26.4291  -37.3786   23.9406 N   0  0  0  0  0  0
  -24.6718  -31.0722   22.0981 N   0  0  0  0  0  0
  -23.4187  -28.8155   23.3003 O   0  0  0  0  0  0
  -28.4068  -26.6638   20.1590 O   0  0  0  0  0  0
  -26.5604  -34.8910   22.4681 O   0  0  0  0  0  0
  -23.5354  -32.1402   23.7449 O   0  0  0  0  0  0
  -29.9323  -20.9871   22.2778 C   0  0  0  0  0  0
  -28.7340  -21.8367   20.3390 C   0  0  0  0  0  0
  -29.4339  -20.7773   20.9772 C   0  0  0  0  0  0
  -29.7356  -22.2194   22.9353 C   0  0  0  0  0  0
  -28.5288  -23.0884   20.9844 C   0  0  0  0  0  0
  -29.0414  -23.2719   22.2908 C   0  0  0  0  0  0
  -30.2768  -22.4039   24.3415 C   0  0  0  0  0  0
  -29.7513  -19.4649   20.2407 C   0  0  0  0  0  0
  -27.6996  -24.1973   20.3060 C   0  0  0  0  0  0
  -29.4690  -18.1152   20.9768 C   0  0  0  0  0  0
  -30.2522  -16.9369   20.3282 C   0  0  0  0  0  0
  -28.4878  -25.3373   19.5872 C   0  0  0  0  0  0
  -29.9271  -15.5773   20.8114 N   0  0  0  0  0  0
  -28.8197  -24.7810   23.1117 Cl  0  0  0  0  0  0
  -31.4599  -12.3872   19.1403 H   0  0  0  0  0  0
  -30.2990  -11.2989   19.8506 H   0  0  0  0  0  0
  -29.7338  -11.7593   17.4413 H   0  0  0  0  0  0
  -29.6637  -13.4737   17.7679 H   0  0  0  0  0  0
  -27.8179  -11.3041   18.8214 H   0  0  0  0  0  0
  -27.3665  -12.6318   17.7860 H   0  0  0  0  0  0
  -27.6890  -14.2505   19.5521 H   0  0  0  0  0  0
  -28.6688  -12.0043   21.3830 H   0  0  0  0  0  0
  -28.4642  -13.6681   21.8482 H   0  0  0  0  0  0
  -25.2746   -9.5708   22.4754 H   0  0  0  0  0  0
  -24.0001   -7.4650   22.7475 H   0  0  0  0  0  0
  -21.0835   -8.8747   19.8951 H   0  0  0  0  0  0
  -22.3662  -10.9662   19.6160 H   0  0  0  0  0  0
  -21.2003   -7.6147   23.9701 H   0  0  0  0  0  0
  -21.1488   -6.0528   25.9065 H   0  0  0  0  0  0
  -22.0600   -2.7609   23.2844 H   0  0  0  0  0  0
  -22.4103  -11.9863   22.4742 H   0  0  0  0  0  0
  -21.1123  -13.1257   22.2631 H   0  0  0  0  0  0
  -24.6731  -15.8518   20.5146 H   0  0  0  0  0  0
  -26.2887  -15.6206   20.0841 H   0  0  0  0  0  0
  -26.7110  -32.5501   23.1133 H   0  0  0  0  0  0
  -25.0081  -33.9772   25.0478 H   0  0  0  0  0  0
  -22.6967  -31.3051   21.4070 H   0  0  0  0  0  0
  -23.3751  -35.9637   23.3320 H   0  0  0  0  0  0
  -24.3588  -36.8907   22.2055 H   0  0  0  0  0  0
  -23.7240  -37.6515   23.6647 H   0  0  0  0  0  0
  -26.0530  -31.5851   20.5932 H   0  0  0  0  0  0
  -26.8248  -30.8757   21.9821 H   0  0  0  0  0  0
  -28.0937  -29.0625   21.1847 H   0  0  0  0  0  0
  -26.0210  -25.9589   19.0043 H   0  0  0  0  0  0
  -23.9777  -27.2940   19.0301 H   0  0  0  0  0  0
  -23.7239  -30.5959   19.4028 H   0  0  0  0  0  0
  -22.7393  -29.2410   19.8634 H   0  0  0  0  0  0
  -25.1287  -36.1972   25.0838 H   0  0  0  0  0  0
  -20.9950  -28.3193   24.1434 H   0  0  0  0  0  0
  -20.5654  -26.2230   23.3598 H   0  0  0  0  0  0
  -21.6626  -26.7401   22.1212 H   0  0  0  0  0  0
  -19.6911  -25.6284   21.1213 H   0  0  0  0  0  0
  -19.6697  -27.3193   20.6756 H   0  0  0  0  0  0
  -17.4191  -26.6649   21.4004 H   0  0  0  0  0  0
  -18.0301  -26.0036   22.8992 H   0  0  0  0  0  0
  -19.7935  -30.7221   24.2274 H   0  0  0  0  0  0
  -17.5020  -31.6255   24.5140 H   0  0  0  0  0  0
  -15.5347  -30.2979   23.7658 H   0  0  0  0  0  0
  -15.8644  -28.0821   22.7059 H   0  0  0  0  0  0
  -24.5919  -30.7023   25.7829 H   0  0  0  0  0  0
  -24.8920  -32.2845   26.4929 H   0  0  0  0  0  0
  -25.8110  -30.8879   27.0229 H   0  0  0  0  0  0
  -26.2854  -29.6803   24.1138 H   0  0  0  0  0  0
  -27.4118  -29.7272   25.4515 H   0  0  0  0  0  0
  -27.8659  -30.4397   23.9197 H   0  0  0  0  0  0
  -27.2652  -33.3621   26.2063 H   0  0  0  0  0  0
  -28.3841  -32.6889   25.0307 H   0  0  0  0  0  0
  -28.0697  -31.8445   26.5400 H   0  0  0  0  0  0
  -28.2601  -38.0100   24.7514 H   0  0  0  0  0  0
  -28.1064  -36.2634   24.6295 H   0  0  0  0  0  0
  -27.2289  -37.1465   25.8868 H   0  0  0  0  0  0
  -20.9285  -29.8776   21.6987 H   0  0  0  0  0  0
  -26.0184  -38.2864   24.1416 H   0  0  0  0  0  0
  -30.4893  -20.2028   22.7722 H   0  0  0  0  0  0
  -28.3550  -21.6903   19.3365 H   0  0  0  0  0  0
  -30.7871  -21.5101   24.7003 H   0  0  0  0  0  0
  -29.4616  -22.6199   25.0322 H   0  0  0  0  0  0
  -30.9843  -23.2321   24.3701 H   0  0  0  0  0  0
  -30.8130  -19.5140   19.9964 H   0  0  0  0  0  0
  -29.2326  -19.4560   19.2809 H   0  0  0  0  0  0
  -27.0094  -24.6200   21.0355 H   0  0  0  0  0  0
  -27.0560  -23.7147   19.5710 H   0  0  0  0  0  0
  -28.3962  -17.9177   20.9775 H   0  0  0  0  0  0
  -29.7681  -18.1804   22.0225 H   0  0  0  0  0  0
  -31.3215  -17.1217   20.4485 H   0  0  0  0  0  0
  -30.0673  -16.9428   19.2529 H   0  0  0  0  0  0
  -28.1929  -25.3862   18.5379 H   0  0  0  0  0  0
  -29.5441  -25.0682   19.5600 H   0  0  0  0  0  0
  -28.9838  -15.3985   21.1207 H   0  0  0  0  0  0
  1 25  1  0  0  0
  1 30  2  0  0  0
  1 83  1  0  0  0
  2  3  1  0  0  0
  2 25  1  0  0  0
  2 85  1  0  0  0
  2 86  1  0  0  0
  3  4  1  0  0  0
  3 87  1  0  0  0
  3 88  1  0  0  0
  4  5  1  0  0  0
  4 89  1  0  0  0
  4 90  1  0  0  0
  5  6  1  0  0  0
  5 26  1  0  0  0
  5 91  1  0  0  0
  6 25  1  0  0  0
  6 92  1  0  0  0
  6 93  1  0  0  0
  7  8  2  0  0  0
  7 26  1  0  0  0
  7 29  1  0  0  0
  8  9  1  0  0  0
  8 22  1  0  0  0
  9 10  1  0  0  0
  9 27  2  0  0  0
 10 11  2  0  0  0
 10 15  1  0  0  0
 11 12  1  0  0  0
 11 94  1  0  0  0
 12 13  2  0  0  0
 12 95  1  0  0  0
 13 14  1  0  0  0
 13 31  1  0  0  0
 14 15  2  0  0  0
 14 96  1  0  0  0
 15 97  1  0  0  0
 16 17  2  0  0  0
 16 21  1  0  0  0
 16 31  1  0  0  0
 17 18  1  0  0  0
 17 98  1  0  0  0
 18 19  2  0  0  0
 18 99  1  0  0  0
 19 20  1  0  0  0
 19 24  1  0  0  0
 20 21  2  0  0  0
 20100  1  0  0  0
 21 23  1  0  0  0
 22 28  1  0  0  0
 22 32  2  0  0  0
 26 27  1  0  0  0
 28101  1  0  0  0
 28102  1  0  0  0
 29103  1  0  0  0
 29104  1  0  0  0
 33 34  1  0  0  0
 33 66  1  0  0  0
 33 70  2  0  0  0
 34 36  1  0  0  0
 34 59  1  0  0  0
 34105  1  0  0  0
 35 44  2  0  0  0
 35 45  1  0  0  0
 35 68  1  0  0  0
 36 56  1  0  0  0
 36106  1  0  0  0
 37 39  1  0  0  0
 37 47  1  0  0  0
 37 66  1  0  0  0
 37107  1  0  0  0
 38 43  2  0  0  0
 38 46  1  0  0  0
 38 47  1  0  0  0
 39 64  1  0  0  0
 39 67  2  0  0  0
 40 52  1  0  0  0
 40 53  2  0  0  0
 40 58  1  0  0  0
 41108  1  0  0  0
 41109  1  0  0  0
 41110  1  0  0  0
 41 48  1  0  0  0
 42 43  1  0  0  0
 42 66  1  0  0  0
 42111  1  0  0  0
 42112  1  0  0  0
 43 44  1  0  0  0
 44113  1  0  0  0
 45 46  2  0  0  0
 45114  1  0  0  0
 46115  1  0  0  0
 47116  1  0  0  0
 47117  1  0  0  0
 48 56  1  0  0  0
 48 65  1  0  0  0
 48118  1  0  0  0
 49 50  1  0  0  0
 49 53  1  0  0  0
 49 64  1  0  0  0
 49119  1  0  0  0
 50 51  1  0  0  0
 50120  1  0  0  0
 50121  1  0  0  0
 51 52  1  0  0  0
 51122  1  0  0  0
 51123  1  0  0  0
 52124  1  0  0  0
 52125  1  0  0  0
 53 54  1  0  0  0
 54 55  2  0  0  0
 54126  1  0  0  0
 55 57  1  0  0  0
 55127  1  0  0  0
 56 69  2  0  0  0
 57 58  2  0  0  0
 57128  1  0  0  0
 58129  1  0  0  0
 59 60  1  0  0  0
 59 61  1  0  0  0
 59 62  1  0  0  0
 60130  1  0  0  0
 60131  1  0  0  0
 60132  1  0  0  0
 61133  1  0  0  0
 61134  1  0  0  0
 61135  1  0  0  0
 62136  1  0  0  0
 62137  1  0  0  0
 62138  1  0  0  0
 63 65  1  0  0  0
 63139  1  0  0  0
 63140  1  0  0  0
 63141  1  0  0  0
 64142  1  0  0  0
 65143  1  0  0  0
 68 82  1  0  0  0
 71 73  2  0  0  0
 71 74  1  0  0  0
 71144  1  0  0  0
 72 73  1  0  0  0
 72 75  2  0  0  0
 72145  1  0  0  0
 73 78  1  0  0  0
 74 76  2  0  0  0
 74 77  1  0  0  0
 75 76  1  0  0  0
 75 79  1  0  0  0
 76 84  1  0  0  0
 77146  1  0  0  0
 77147  1  0  0  0
 77148  1  0  0  0
 78 80  1  0  0  0
 78149  1  0  0  0
 78150  1  0  0  0
 79 82  1  0  0  0
 79151  1  0  0  0
 79152  1  0  0  0
 80 81  1  0  0  0
 80153  1  0  0  0
 80154  1  0  0  0
 81 83  1  0  0  0
 81155  1  0  0  0
 81156  1  0  0  0
 82157  1  0  0  0
 82158  1  0  0  0
 83159  1  0  0  0
M  ISO  4   1 100  68 101  82 101  83 100
M  END
> <chiral flag>
0

> <version>
0

> <s_m_source_file>
/data/baiqing/PycharmProjects/Reinvent-master-3.2/result/LINK_invent/BTK/process_docking_weight1_custom_sum_contain_oxygen_bond_distance_aromatic_linkinvent_7_9_3/rearranged_h_0032.sdf

> <i_m_source_file_index>
44

> <r_mmod_Potential_Energy-OPLS-2005>
-43.7250366210938

> <r_mmod_Stretch_Energy-OPLS-2005>
43.6147232055664

> <r_mmod_Bend_Energy-OPLS-2005>
107.465606689453

> <r_mmod_Torsional_Energy-OPLS-2005>
210.496887207031

> <r_mmod_Improper_Torsional_Energy-OPLS-2005>
7.46391916275024

> <r_mmod_Van_der_Waal_Energy-OPLS-2005>
148.9599609375

> <r_mmod_Electrostatic_Energy-OPLS-2005>
-372.862365722656

> <r_mmod_Solvation_Energy-OPLS-2005>
-208.060958862305

> <b_mmod_Minimization_Converged-OPLS-2005>
0

> <r_mmod_RMS_Derivative-OPLS-2005>
1.61792314052582

$$$$
44
                    3D
 Structure written by MMmdl.
153161  0  0  1  0            999 V2000
  -30.6477  -14.6712   20.4420 C   0  0  0  0  0  0
  -30.4280  -12.3974   19.4764 C   0  0  0  0  0  0
  -29.5123  -12.4792   18.2361 C   0  0  0  0  0  0
  -28.0339  -12.3284   18.6449 C   0  0  0  0  0  0
  -27.6485  -13.2275   19.8525 C   0  0  2  0  0  0
  -28.6929  -13.1410   20.9886 C   0  0  0  0  0  0
  -25.2514  -13.8196   20.5663 C   0  0  0  0  0  0
  -24.1800  -13.0444   20.9201 C   0  0  0  0  0  0
  -24.6402  -11.6929   20.8759 C   0  0  0  0  0  0
  -23.9066  -10.4303   21.0404 C   0  0  0  0  0  0
  -24.3623   -9.4190   21.9169 C   0  0  0  0  0  0
  -23.6294   -8.2227   22.0742 C   0  0  0  0  0  0
  -22.4266   -8.0273   21.3538 C   0  0  0  0  0  0
  -21.9902   -9.0252   20.4645 C   0  0  0  0  0  0
  -22.7243  -10.2135   20.3051 C   0  0  0  0  0  0
  -21.6854   -6.0713   22.5273 C   0  0  0  0  0  0
  -21.4027   -6.5620   23.8210 C   0  0  0  0  0  0
  -21.3674   -5.6777   24.9173 C   0  0  0  0  0  0
  -21.6051   -4.3037   24.7220 C   0  0  0  0  0  0
  -21.8822   -3.8123   23.4344 C   0  0  0  0  0  0
  -21.9189   -4.6939   22.3396 C   0  0  0  0  0  0
  -22.7809  -13.5208   21.1843 C   0  0  0  0  0  0
  -22.1637   -4.2122   21.0971 F   0  0  0  0  0  0
  -21.5633   -3.4524   25.7736 F   0  0  0  0  0  0
  -30.0092  -13.4577   20.4165 N   0  0  0  0  0  0
  -26.2969  -12.9407   20.3283 N   0  0  0  0  0  0
  -25.9335  -11.6557   20.5768 N   0  0  0  0  0  0
  -22.0441  -12.8251   22.0433 N   0  0  0  0  0  0
  -25.4176  -15.1918   20.4062 N   0  0  0  0  0  0
  -31.8225  -14.7709   20.0818 O   0  0  0  0  0  0
  -21.6640   -6.8862   21.4237 O   0  0  0  0  0  0
  -22.3474  -14.5480   20.6629 O   0  0  0  0  0  0
  -24.6278  -31.8580   23.2005 C   0  0  0  0  0  0
  -25.9104  -32.4767   23.8365 C   0  0  1  0  0  0
  -27.2270  -27.2907   20.1097 C   0  0  0  0  0  0
  -25.5897  -33.8575   24.2256 N   0  0  0  0  0  0
  -23.4254  -30.4848   21.5392 C   0  0  2  0  0  0
  -24.8747  -28.9396   20.1063 C   0  0  0  0  0  0
  -22.7483  -29.4632   22.4847 C   0  0  0  0  0  0
  -18.0302  -28.1376   22.8483 C   0  0  0  0  0  0
  -24.1482  -36.7304   23.2642 C   0  0  0  0  0  0
  -25.9723  -30.7743   21.3862 C   0  0  0  0  0  0
  -26.0452  -29.4040   20.7199 C   0  0  0  0  0  0
  -27.2226  -28.5914   20.7138 C   0  0  0  0  0  0
  -26.0321  -26.8959   19.4625 C   0  0  0  0  0  0
  -24.8717  -27.6899   19.4708 C   0  0  0  0  0  0
  -23.6451  -29.8251   20.1530 C   0  0  0  0  0  0
  -25.4103  -36.3069   24.0324 C   0  0  1  0  0  0
  -20.5908  -28.3697   23.1229 C   0  0  2  0  0  0
  -20.6784  -26.9406   22.5380 C   0  0  0  0  0  0
  -19.5760  -26.6363   21.5180 C   0  0  0  0  0  0
  -18.1946  -26.7925   22.1610 C   0  0  0  0  0  0
  -19.1559  -28.8850   23.2873 C   0  0  0  0  0  0
  -18.9482  -30.1442   23.8904 C   0  0  0  0  0  0
  -17.6483  -30.6583   24.0555 C   0  0  0  0  0  0
  -25.9047  -34.9447   23.5099 C   0  0  0  0  0  0
  -16.5374  -29.9086   23.6317 C   0  0  0  0  0  0
  -16.7296  -28.6495   23.0352 C   0  0  0  0  0  0
  -26.4457  -31.6631   25.0787 C   0  0  0  0  0  0
  -25.3664  -31.3869   26.1507 C   0  0  0  0  0  0
  -27.0295  -30.3018   24.6364 C   0  0  0  0  0  0
  -27.5997  -32.4407   25.7566 C   0  0  0  0  0  0
  -27.5582  -37.1789   24.8444 C   0  0  0  0  0  0
  -21.4193  -29.3064   22.3604 N   0  0  0  0  0  0
  -26.4273  -37.3764   23.9417 N   0  0  0  0  0  0
  -24.6932  -31.0574   22.0966 N   0  0  0  0  0  0
  -23.4191  -28.8149   23.2922 O   0  0  0  0  0  0
  -28.3280  -26.4063   20.1771 O   0  0  0  0  0  0
  -26.5631  -34.8921   22.4676 O   0  0  0  0  0  0
  -23.5429  -32.1397   23.7289 O   0  0  0  0  0  0
  -29.4033  -19.6945   19.9514 C   0  0  0  0  0  0
  -29.9775  -21.0872   21.8544 C   0  0  0  0  0  0
  -30.5068  -18.6793   21.8663 C   0  0  0  0  0  0
  -29.4051  -21.0050   20.5667 C   0  0  0  0  0  0
  -29.9460  -18.5120   20.5839 C   0  0  0  0  0  0
  -30.5177  -19.9471   22.4906 C   0  0  0  0  0  0
  -28.7575  -22.2840   19.8940 C   0  0  0  0  0  0
  -30.0432  -17.1112   19.8667 C   0  0  0  0  0  0
  -29.0739  -23.7853   20.3924 C   0  0  0  0  0  0
  -28.1169  -24.9601   19.8580 C   0  0  0  0  0  0
  -29.8765  -15.7973   20.6021 N   0  0  0  0  0  0
  -31.2043  -20.1122   24.0653 Cl  0  0  0  0  0  0
  -31.4722  -12.4949   19.1741 H   0  0  0  0  0  0
  -30.3460  -11.4224   19.9575 H   0  0  0  0  0  0
  -29.7817  -11.6981   17.5246 H   0  0  0  0  0  0
  -29.6634  -13.4304   17.7239 H   0  0  0  0  0  0
  -27.8772  -11.2803   18.9031 H   0  0  0  0  0  0
  -27.3825  -12.5281   17.7935 H   0  0  0  0  0  0
  -27.6495  -14.2519   19.4811 H   0  0  0  0  0  0
  -28.7044  -12.1427   21.4307 H   0  0  0  0  0  0
  -28.4408  -13.8292   21.7965 H   0  0  0  0  0  0
  -25.2765   -9.5654   22.4728 H   0  0  0  0  0  0
  -23.9991   -7.4623   22.7468 H   0  0  0  0  0  0
  -21.0810   -8.8796   19.8975 H   0  0  0  0  0  0
  -22.3694  -10.9667   19.6157 H   0  0  0  0  0  0
  -21.2032   -7.6129   23.9708 H   0  0  0  0  0  0
  -21.1486   -6.0498   25.9078 H   0  0  0  0  0  0
  -22.0590   -2.7578   23.2854 H   0  0  0  0  0  0
  -22.4063  -11.9967   22.4930 H   0  0  0  0  0  0
  -21.1054  -13.1296   22.2589 H   0  0  0  0  0  0
  -24.6484  -15.8435   20.5205 H   0  0  0  0  0  0
  -26.2590  -15.6363   20.0613 H   0  0  0  0  0  0
  -26.7186  -32.5399   23.1121 H   0  0  0  0  0  0
  -24.9956  -33.9708   25.0339 H   0  0  0  0  0  0
  -22.7221  -31.3074   21.3939 H   0  0  0  0  0  0
  -23.3729  -35.9646   23.3272 H   0  0  0  0  0  0
  -24.3587  -36.8964   22.2065 H   0  0  0  0  0  0
  -23.7244  -37.6503   23.6689 H   0  0  0  0  0  0
  -26.1272  -31.5428   20.6277 H   0  0  0  0  0  0
  -26.8428  -30.8066   22.0318 H   0  0  0  0  0  0
  -28.1181  -28.9435   21.2074 H   0  0  0  0  0  0
  -25.9590  -25.9502   18.9473 H   0  0  0  0  0  0
  -23.9779  -27.3282   18.9822 H   0  0  0  0  0  0
  -23.7743  -30.6051   19.4013 H   0  0  0  0  0  0
  -22.7644  -29.2615   19.8426 H   0  0  0  0  0  0
  -25.1274  -36.1912   25.0811 H   0  0  0  0  0  0
  -21.0048  -28.3289   24.1329 H   0  0  0  0  0  0
  -20.5626  -26.2328   23.3595 H   0  0  0  0  0  0
  -21.6659  -26.7386   22.1201 H   0  0  0  0  0  0
  -19.6910  -25.6260   21.1244 H   0  0  0  0  0  0
  -19.6698  -27.3143   20.6679 H   0  0  0  0  0  0
  -17.4202  -26.6652   21.4028 H   0  0  0  0  0  0
  -18.0381  -26.0061   22.9012 H   0  0  0  0  0  0
  -19.7962  -30.7242   24.2289 H   0  0  0  0  0  0
  -17.5048  -31.6266   24.5148 H   0  0  0  0  0  0
  -15.5383  -30.2994   23.7619 H   0  0  0  0  0  0
  -15.8697  -28.0804   22.7074 H   0  0  0  0  0  0
  -24.5717  -30.7371   25.7829 H   0  0  0  0  0  0
  -24.9010  -32.3100   26.4983 H   0  0  0  0  0  0
  -25.7921  -30.8957   27.0264 H   0  0  0  0  0  0
  -26.2921  -29.6805   24.1267 H   0  0  0  0  0  0
  -27.3760  -29.7276   25.4968 H   0  0  0  0  0  0
  -27.8900  -30.4239   23.9780 H   0  0  0  0  0  0
  -27.2528  -33.3633   26.2249 H   0  0  0  0  0  0
  -28.3749  -32.7125   25.0389 H   0  0  0  0  0  0
  -28.0752  -31.8513   26.5414 H   0  0  0  0  0  0
  -28.2544  -38.0134   24.7505 H   0  0  0  0  0  0
  -28.1120  -36.2655   24.6212 H   0  0  0  0  0  0
  -27.2319  -37.1394   25.8851 H   0  0  0  0  0  0
  -20.9333  -29.8885   21.6912 H   0  0  0  0  0  0
  -26.0144  -38.2830   24.1437 H   0  0  0  0  0  0
  -28.9805  -19.5941   18.9608 H   0  0  0  0  0  0
  -30.0021  -22.0290   22.3837 H   0  0  0  0  0  0
  -30.9565  -17.8364   22.3704 H   0  0  0  0  0  0
  -27.6784  -22.1331   19.9614 H   0  0  0  0  0  0
  -28.9816  -22.2305   18.8272 H   0  0  0  0  0  0
  -31.0044  -17.1012   19.3495 H   0  0  0  0  0  0
  -29.3056  -17.1055   19.0632 H   0  0  0  0  0  0
  -30.1079  -24.0227   20.1425 H   0  0  0  0  0  0
  -29.0165  -23.8121   21.4800 H   0  0  0  0  0  0
  -27.1315  -24.6705   20.2227 H   0  0  0  0  0  0
  -28.0753  -24.8803   18.7711 H   0  0  0  0  0  0
  -28.9463  -15.6223   20.9506 H   0  0  0  0  0  0
  1 25  1  0  0  0
  1 30  2  0  0  0
  1 81  1  0  0  0
  2  3  1  0  0  0
  2 25  1  0  0  0
  2 83  1  0  0  0
  2 84  1  0  0  0
  3  4  1  0  0  0
  3 85  1  0  0  0
  3 86  1  0  0  0
  4  5  1  0  0  0
  4 87  1  0  0  0
  4 88  1  0  0  0
  5  6  1  0  0  0
  5 26  1  0  0  0
  5 89  1  0  0  0
  6 25  1  0  0  0
  6 90  1  0  0  0
  6 91  1  0  0  0
  7  8  2  0  0  0
  7 26  1  0  0  0
  7 29  1  0  0  0
  8  9  1  0  0  0
  8 22  1  0  0  0
  9 10  1  0  0  0
  9 27  2  0  0  0
 10 11  2  0  0  0
 10 15  1  0  0  0
 11 12  1  0  0  0
 11 92  1  0  0  0
 12 13  2  0  0  0
 12 93  1  0  0  0
 13 14  1  0  0  0
 13 31  1  0  0  0
 14 15  2  0  0  0
 14 94  1  0  0  0
 15 95  1  0  0  0
 16 17  2  0  0  0
 16 21  1  0  0  0
 16 31  1  0  0  0
 17 18  1  0  0  0
 17 96  1  0  0  0
 18 19  2  0  0  0
 18 97  1  0  0  0
 19 20  1  0  0  0
 19 24  1  0  0  0
 20 21  2  0  0  0
 20 98  1  0  0  0
 21 23  1  0  0  0
 22 28  1  0  0  0
 22 32  2  0  0  0
 26 27  1  0  0  0
 28 99  1  0  0  0
 28100  1  0  0  0
 29101  1  0  0  0
 29102  1  0  0  0
 33 34  1  0  0  0
 33 66  1  0  0  0
 33 70  2  0  0  0
 34 36  1  0  0  0
 34 59  1  0  0  0
 34103  1  0  0  0
 35 44  2  0  0  0
 35 45  1  0  0  0
 35 68  1  0  0  0
 36 56  1  0  0  0
 36104  1  0  0  0
 37 39  1  0  0  0
 37 47  1  0  0  0
 37 66  1  0  0  0
 37105  1  0  0  0
 38 43  2  0  0  0
 38 46  1  0  0  0
 38 47  1  0  0  0
 39 64  1  0  0  0
 39 67  2  0  0  0
 40 52  1  0  0  0
 40 53  2  0  0  0
 40 58  1  0  0  0
 41106  1  0  0  0
 41107  1  0  0  0
 41108  1  0  0  0
 41 48  1  0  0  0
 42 43  1  0  0  0
 42 66  1  0  0  0
 42109  1  0  0  0
 42110  1  0  0  0
 43 44  1  0  0  0
 44111  1  0  0  0
 45 46  2  0  0  0
 45112  1  0  0  0
 46113  1  0  0  0
 47114  1  0  0  0
 47115  1  0  0  0
 48 56  1  0  0  0
 48 65  1  0  0  0
 48116  1  0  0  0
 49 50  1  0  0  0
 49 53  1  0  0  0
 49 64  1  0  0  0
 49117  1  0  0  0
 50 51  1  0  0  0
 50118  1  0  0  0
 50119  1  0  0  0
 51 52  1  0  0  0
 51120  1  0  0  0
 51121  1  0  0  0
 52122  1  0  0  0
 52123  1  0  0  0
 53 54  1  0  0  0
 54 55  2  0  0  0
 54124  1  0  0  0
 55 57  1  0  0  0
 55125  1  0  0  0
 56 69  2  0  0  0
 57 58  2  0  0  0
 57126  1  0  0  0
 58127  1  0  0  0
 59 60  1  0  0  0
 59 61  1  0  0  0
 59 62  1  0  0  0
 60128  1  0  0  0
 60129  1  0  0  0
 60130  1  0  0  0
 61131  1  0  0  0
 61132  1  0  0  0
 61133  1  0  0  0
 62134  1  0  0  0
 62135  1  0  0  0
 62136  1  0  0  0
 63 65  1  0  0  0
 63137  1  0  0  0
 63138  1  0  0  0
 63139  1  0  0  0
 64140  1  0  0  0
 65141  1  0  0  0
 68 80  1  0  0  0
 71 74  2  0  0  0
 71 75  1  0  0  0
 71142  1  0  0  0
 72 74  1  0  0  0
 72 76  2  0  0  0
 72143  1  0  0  0
 73 75  2  0  0  0
 73 76  1  0  0  0
 73144  1  0  0  0
 74 77  1  0  0  0
 75 78  1  0  0  0
 76 82  1  0  0  0
 77 79  1  0  0  0
 77145  1  0  0  0
 77146  1  0  0  0
 78 81  1  0  0  0
 78147  1  0  0  0
 78148  1  0  0  0
 79 80  1  0  0  0
 79149  1  0  0  0
 79150  1  0  0  0
 80151  1  0  0  0
 80152  1  0  0  0
 81153  1  0  0  0
M  ISO  4   1 100  68 101  80 101  81 100
M  END
> <chiral flag>
0

> <version>
0

> <s_m_source_file>
/data/baiqing/PycharmProjects/Reinvent-master-3.2/result/LINK_invent/BTK/process_docking_weight1_custom_sum_contain_oxygen_bond_distance_aromatic_linkinvent_7_9_3/rearranged_h_0032.sdf

> <i_m_source_file_index>
45

> <r_mmod_Potential_Energy-OPLS-2005>
51.4969711303711

> <r_mmod_Stretch_Energy-OPLS-2005>
97.4971008300781

> <r_mmod_Bend_Energy-OPLS-2005>
144.368850708008

> <r_mmod_Torsional_Energy-OPLS-2005>
210.22998046875

> <r_mmod_Improper_Torsional_Energy-OPLS-2005>
8.64728832244873

> <r_mmod_Van_der_Waal_Energy-OPLS-2005>
140.998229980469

> <r_mmod_Electrostatic_Energy-OPLS-2005>
-404.701263427734

> <r_mmod_Solvation_Energy-OPLS-2005>
-210.818145751953

> <b_mmod_Minimization_Converged-OPLS-2005>
0

> <r_mmod_RMS_Derivative-OPLS-2005>
3.05054998397827

$$$$
45
                    3D
 Structure written by MMmdl.
151159  0  0  1  0            999 V2000
  -30.6522  -14.6527   20.4986 C   0  0  0  0  0  0
  -30.4230  -12.4046   19.4576 C   0  0  0  0  0  0
  -29.5015  -12.5014   18.2238 C   0  0  0  0  0  0
  -28.0266  -12.3374   18.6385 C   0  0  0  0  0  0
  -27.6431  -13.2257   19.8533 C   0  0  2  0  0  0
  -28.6877  -13.1239   20.9858 C   0  0  0  0  0  0
  -25.2511  -13.8189   20.5697 C   0  0  0  0  0  0
  -24.1795  -13.0438   20.9199 C   0  0  0  0  0  0
  -24.6374  -11.6914   20.8729 C   0  0  0  0  0  0
  -23.9052  -10.4291   21.0397 C   0  0  0  0  0  0
  -24.3606   -9.4211   21.9177 C   0  0  0  0  0  0
  -23.6287   -8.2242   22.0748 C   0  0  0  0  0  0
  -22.4271   -8.0273   21.3539 C   0  0  0  0  0  0
  -21.9904   -9.0241   20.4639 C   0  0  0  0  0  0
  -22.7225  -10.2126   20.3046 C   0  0  0  0  0  0
  -21.6855   -6.0727   22.5278 C   0  0  0  0  0  0
  -21.4016   -6.5632   23.8208 C   0  0  0  0  0  0
  -21.3665   -5.6785   24.9173 C   0  0  0  0  0  0
  -21.6047   -4.3049   24.7228 C   0  0  0  0  0  0
  -21.8818   -3.8137   23.4346 C   0  0  0  0  0  0
  -21.9192   -4.6953   22.3402 C   0  0  0  0  0  0
  -22.7818  -13.5218   21.1861 C   0  0  0  0  0  0
  -22.1660   -4.2135   21.0980 F   0  0  0  0  0  0
  -21.5634   -3.4534   25.7741 F   0  0  0  0  0  0
  -29.9948  -13.4535   20.4057 N   0  0  0  0  0  0
  -26.2935  -12.9386   20.3285 N   0  0  0  0  0  0
  -25.9303  -11.6534   20.5744 N   0  0  0  0  0  0
  -22.0466  -12.8198   22.0416 N   0  0  0  0  0  0
  -25.4205  -15.1917   20.4139 N   0  0  0  0  0  0
  -31.8352  -14.7441   20.1628 O   0  0  0  0  0  0
  -21.6640   -6.8868   21.4237 O   0  0  0  0  0  0
  -22.3501  -14.5526   20.6716 O   0  0  0  0  0  0
  -24.6281  -31.8586   23.2005 C   0  0  0  0  0  0
  -25.9130  -32.4775   23.8338 C   0  0  1  0  0  0
  -27.2166  -27.3007   20.1112 C   0  0  0  0  0  0
  -25.5942  -33.8572   24.2276 N   0  0  0  0  0  0
  -23.4210  -30.4849   21.5417 C   0  0  2  0  0  0
  -24.8630  -28.9359   20.1092 C   0  0  0  0  0  0
  -22.7485  -29.4624   22.4901 C   0  0  0  0  0  0
  -18.0296  -28.1388   22.8489 C   0  0  0  0  0  0
  -24.1489  -36.7277   23.2634 C   0  0  0  0  0  0
  -25.9634  -30.7854   21.3708 C   0  0  0  0  0  0
  -26.0330  -29.4109   20.7125 C   0  0  0  0  0  0
  -27.2092  -28.6034   20.7046 C   0  0  0  0  0  0
  -26.0143  -26.8740   19.5017 C   0  0  0  0  0  0
  -24.8555  -27.6745   19.4976 C   0  0  0  0  0  0
  -23.6347  -29.8214   20.1561 C   0  0  0  0  0  0
  -25.4112  -36.3078   24.0335 C   0  0  1  0  0  0
  -20.5903  -28.3694   23.1268 C   0  0  2  0  0  0
  -20.6786  -26.9412   22.5406 C   0  0  0  0  0  0
  -19.5761  -26.6390   21.5208 C   0  0  0  0  0  0
  -18.1939  -26.7934   22.1622 C   0  0  0  0  0  0
  -19.1549  -28.8855   23.2884 C   0  0  0  0  0  0
  -18.9466  -30.1451   23.8912 C   0  0  0  0  0  0
  -17.6469  -30.6590   24.0559 C   0  0  0  0  0  0
  -25.9056  -34.9451   23.5107 C   0  0  0  0  0  0
  -16.5358  -29.9091   23.6320 C   0  0  0  0  0  0
  -16.7285  -28.6505   23.0361 C   0  0  0  0  0  0
  -26.4502  -31.6588   25.0710 C   0  0  0  0  0  0
  -25.3739  -31.3730   26.1442 C   0  0  0  0  0  0
  -27.0326  -30.3010   24.6158 C   0  0  0  0  0  0
  -27.6066  -32.4311   25.7490 C   0  0  0  0  0  0
  -27.5579  -37.1794   24.8465 C   0  0  0  0  0  0
  -21.4199  -29.3048   22.3653 N   0  0  0  0  0  0
  -26.4285  -37.3774   23.9414 N   0  0  0  0  0  0
  -24.6897  -31.0603   22.0949 N   0  0  0  0  0  0
  -23.4211  -28.8157   23.2975 O   0  0  0  0  0  0
  -28.3553  -26.4769   20.1745 O   0  0  0  0  0  0
  -26.5610  -34.8927   22.4667 O   0  0  0  0  0  0
  -23.5449  -32.1377   23.7347 O   0  0  0  0  0  0
  -29.3776  -18.8672   19.4852 C   0  0  0  0  0  0
  -29.3283  -20.9146   21.4006 C   0  0  0  0  0  0
  -29.8064  -18.5226   20.7904 C   0  0  0  0  0  0
  -28.9611  -21.2694   20.0772 C   0  0  0  0  0  0
  -28.9749  -20.1937   19.1402 C   0  0  0  0  0  0
  -29.7460  -19.5890   21.7473 C   0  0  0  0  0  0
  -30.5162  -17.1401   21.0993 C   0  0  0  0  0  0
  -28.4293  -25.1199   19.5669 C   0  0  0  0  0  0
  -28.5449  -23.7844   20.4464 C   0  0  0  0  0  0
  -29.9293  -15.7811   20.8053 N   0  0  0  0  0  0
  -28.6165  -22.5674   19.6220 O   0  0  0  0  0  0
  -28.5287  -20.5047   17.5011 Cl  0  0  0  0  0  0
  -30.2338  -19.3275   23.3853 Cl  0  0  0  0  0  0
  -31.4669  -12.5123   19.1575 H   0  0  0  0  0  0
  -30.3459  -11.4197   19.9216 H   0  0  0  0  0  0
  -29.7711  -11.7424   17.4885 H   0  0  0  0  0  0
  -29.6409  -13.4661   17.7332 H   0  0  0  0  0  0
  -27.8713  -11.2867   18.8873 H   0  0  0  0  0  0
  -27.3697  -12.5483   17.7936 H   0  0  0  0  0  0
  -27.6491  -14.2537   19.4909 H   0  0  0  0  0  0
  -28.7049  -12.1180   21.4079 H   0  0  0  0  0  0
  -28.4361  -13.7953   21.8083 H   0  0  0  0  0  0
  -25.2752   -9.5693   22.4750 H   0  0  0  0  0  0
  -23.9997   -7.4638   22.7468 H   0  0  0  0  0  0
  -21.0837   -8.8749   19.8947 H   0  0  0  0  0  0
  -22.3674  -10.9654   19.6149 H   0  0  0  0  0  0
  -21.2007   -7.6140   23.9706 H   0  0  0  0  0  0
  -21.1495   -6.0519   25.9075 H   0  0  0  0  0  0
  -22.0594   -2.7597   23.2850 H   0  0  0  0  0  0
  -22.4088  -11.9854   22.4794 H   0  0  0  0  0  0
  -21.1079  -13.1209   22.2617 H   0  0  0  0  0  0
  -24.6534  -15.8447   20.5305 H   0  0  0  0  0  0
  -26.2685  -15.6354   20.0854 H   0  0  0  0  0  0
  -26.7199  -32.5426   23.1081 H   0  0  0  0  0  0
  -25.0135  -33.9714   25.0454 H   0  0  0  0  0  0
  -22.7157  -31.3064   21.3994 H   0  0  0  0  0  0
  -23.3755  -35.9608   23.3312 H   0  0  0  0  0  0
  -24.3589  -36.8879   22.2047 H   0  0  0  0  0  0
  -23.7240  -37.6485   23.6639 H   0  0  0  0  0  0
  -26.0992  -31.5482   20.6027 H   0  0  0  0  0  0
  -26.8438  -30.8315   22.0005 H   0  0  0  0  0  0
  -28.1086  -28.9642   21.1837 H   0  0  0  0  0  0
  -25.9100  -25.9043   19.0449 H   0  0  0  0  0  0
  -23.9540  -27.3007   19.0313 H   0  0  0  0  0  0
  -23.7611  -30.5985   19.4013 H   0  0  0  0  0  0
  -22.7520  -29.2575   19.8494 H   0  0  0  0  0  0
  -25.1294  -36.1916   25.0827 H   0  0  0  0  0  0
  -21.0017  -28.3272   24.1384 H   0  0  0  0  0  0
  -20.5669  -26.2309   23.3615 H   0  0  0  0  0  0
  -21.6652  -26.7442   22.1195 H   0  0  0  0  0  0
  -19.6921  -25.6302   21.1232 H   0  0  0  0  0  0
  -19.6690  -27.3204   20.6738 H   0  0  0  0  0  0
  -17.4205  -26.6690   21.4024 H   0  0  0  0  0  0
  -18.0335  -26.0072   22.9015 H   0  0  0  0  0  0
  -19.7938  -30.7257   24.2300 H   0  0  0  0  0  0
  -17.5021  -31.6266   24.5160 H   0  0  0  0  0  0
  -15.5357  -30.2999   23.7631 H   0  0  0  0  0  0
  -15.8693  -28.0820   22.7087 H   0  0  0  0  0  0
  -24.5937  -30.7051   25.7775 H   0  0  0  0  0  0
  -24.8899  -32.2895   26.4825 H   0  0  0  0  0  0
  -25.8069  -30.8947   27.0239 H   0  0  0  0  0  0
  -26.2889  -29.6779   24.1171 H   0  0  0  0  0  0
  -27.4011  -29.7249   25.4653 H   0  0  0  0  0  0
  -27.8778  -30.4293   23.9391 H   0  0  0  0  0  0
  -27.2688  -33.3620   26.2060 H   0  0  0  0  0  0
  -28.3886  -32.6849   25.0321 H   0  0  0  0  0  0
  -28.0723  -31.8431   26.5413 H   0  0  0  0  0  0
  -28.2588  -38.0097   24.7519 H   0  0  0  0  0  0
  -28.1083  -36.2629   24.6275 H   0  0  0  0  0  0
  -27.2308  -37.1427   25.8873 H   0  0  0  0  0  0
  -20.9367  -29.8787   21.6885 H   0  0  0  0  0  0
  -26.0164  -38.2851   24.1423 H   0  0  0  0  0  0
  -29.4174  -18.1160   18.7096 H   0  0  0  0  0  0
  -29.3269  -21.6718   22.1704 H   0  0  0  0  0  0
  -30.7987  -17.1022   22.1500 H   0  0  0  0  0  0
  -31.4706  -17.2083   20.5752 H   0  0  0  0  0  0
  -27.6742  -24.9615   18.8030 H   0  0  0  0  0  0
  -29.3460  -25.1531   18.9782 H   0  0  0  0  0  0
  -27.6788  -23.7047   21.1054 H   0  0  0  0  0  0
  -29.4255  -23.8454   21.0870 H   0  0  0  0  0  0
  -28.9482  -15.6536   21.0006 H   0  0  0  0  0  0
  1 25  1  0  0  0
  1 30  2  0  0  0
  1 80  1  0  0  0
  2  3  1  0  0  0
  2 25  1  0  0  0
  2 84  1  0  0  0
  2 85  1  0  0  0
  3  4  1  0  0  0
  3 86  1  0  0  0
  3 87  1  0  0  0
  4  5  1  0  0  0
  4 88  1  0  0  0
  4 89  1  0  0  0
  5  6  1  0  0  0
  5 26  1  0  0  0
  5 90  1  0  0  0
  6 25  1  0  0  0
  6 91  1  0  0  0
  6 92  1  0  0  0
  7  8  2  0  0  0
  7 26  1  0  0  0
  7 29  1  0  0  0
  8  9  1  0  0  0
  8 22  1  0  0  0
  9 10  1  0  0  0
  9 27  2  0  0  0
 10 11  2  0  0  0
 10 15  1  0  0  0
 11 12  1  0  0  0
 11 93  1  0  0  0
 12 13  2  0  0  0
 12 94  1  0  0  0
 13 14  1  0  0  0
 13 31  1  0  0  0
 14 15  2  0  0  0
 14 95  1  0  0  0
 15 96  1  0  0  0
 16 17  2  0  0  0
 16 21  1  0  0  0
 16 31  1  0  0  0
 17 18  1  0  0  0
 17 97  1  0  0  0
 18 19  2  0  0  0
 18 98  1  0  0  0
 19 20  1  0  0  0
 19 24  1  0  0  0
 20 21  2  0  0  0
 20 99  1  0  0  0
 21 23  1  0  0  0
 22 28  1  0  0  0
 22 32  2  0  0  0
 26 27  1  0  0  0
 28100  1  0  0  0
 28101  1  0  0  0
 29102  1  0  0  0
 29103  1  0  0  0
 33 34  1  0  0  0
 33 66  1  0  0  0
 33 70  2  0  0  0
 34 36  1  0  0  0
 34 59  1  0  0  0
 34104  1  0  0  0
 35 44  2  0  0  0
 35 45  1  0  0  0
 35 68  1  0  0  0
 36 56  1  0  0  0
 36105  1  0  0  0
 37 39  1  0  0  0
 37 47  1  0  0  0
 37 66  1  0  0  0
 37106  1  0  0  0
 38 43  2  0  0  0
 38 46  1  0  0  0
 38 47  1  0  0  0
 39 64  1  0  0  0
 39 67  2  0  0  0
 40 52  1  0  0  0
 40 53  2  0  0  0
 40 58  1  0  0  0
 41107  1  0  0  0
 41108  1  0  0  0
 41109  1  0  0  0
 41 48  1  0  0  0
 42 43  1  0  0  0
 42 66  1  0  0  0
 42110  1  0  0  0
 42111  1  0  0  0
 43 44  1  0  0  0
 44112  1  0  0  0
 45 46  2  0  0  0
 45113  1  0  0  0
 46114  1  0  0  0
 47115  1  0  0  0
 47116  1  0  0  0
 48 56  1  0  0  0
 48 65  1  0  0  0
 48117  1  0  0  0
 49 50  1  0  0  0
 49 53  1  0  0  0
 49 64  1  0  0  0
 49118  1  0  0  0
 50 51  1  0  0  0
 50119  1  0  0  0
 50120  1  0  0  0
 51 52  1  0  0  0
 51121  1  0  0  0
 51122  1  0  0  0
 52123  1  0  0  0
 52124  1  0  0  0
 53 54  1  0  0  0
 54 55  2  0  0  0
 54125  1  0  0  0
 55 57  1  0  0  0
 55126  1  0  0  0
 56 69  2  0  0  0
 57 58  2  0  0  0
 57127  1  0  0  0
 58128  1  0  0  0
 59 60  1  0  0  0
 59 61  1  0  0  0
 59 62  1  0  0  0
 60129  1  0  0  0
 60130  1  0  0  0
 60131  1  0  0  0
 61132  1  0  0  0
 61133  1  0  0  0
 61134  1  0  0  0
 62135  1  0  0  0
 62136  1  0  0  0
 62137  1  0  0  0
 63 65  1  0  0  0
 63138  1  0  0  0
 63139  1  0  0  0
 63140  1  0  0  0
 64141  1  0  0  0
 65142  1  0  0  0
 68 78  1  0  0  0
 71 73  2  0  0  0
 71 75  1  0  0  0
 71143  1  0  0  0
 72 74  1  0  0  0
 72 76  2  0  0  0
 72144  1  0  0  0
 73 76  1  0  0  0
 73 77  1  0  0  0
 74 75  2  0  0  0
 74 81  1  0  0  0
 75 82  1  0  0  0
 76 83  1  0  0  0
 77 80  1  0  0  0
 77145  1  0  0  0
 77146  1  0  0  0
 78 79  1  0  0  0
 78147  1  0  0  0
 78148  1  0  0  0
 79 81  1  0  0  0
 79149  1  0  0  0
 79150  1  0  0  0
 80151  1  0  0  0
M  ISO  4   1 100  68 101  78 101  80 100
M  END
> <chiral flag>
0

> <version>
0

> <s_m_source_file>
/data/baiqing/PycharmProjects/Reinvent-master-3.2/result/LINK_invent/BTK/process_docking_weight1_custom_sum_contain_oxygen_bond_distance_aromatic_linkinvent_7_9_3/rearranged_h_0032.sdf

> <i_m_source_file_index>
46

> <r_mmod_Potential_Energy-OPLS-2005>
65.5778503417969

> <r_mmod_Stretch_Energy-OPLS-2005>
87.4317855834961

> <r_mmod_Bend_Energy-OPLS-2005>
172.503433227539

> <r_mmod_Torsional_Energy-OPLS-2005>
199.819747924805

> <r_mmod_Improper_Torsional_Energy-OPLS-2005>
4.97533559799194

> <r_mmod_Van_der_Waal_Energy-OPLS-2005>
143.940963745117

> <r_mmod_Electrostatic_Energy-OPLS-2005>
-385.896423339844

> <r_mmod_Solvation_Energy-OPLS-2005>
-212.052474975586

> <b_mmod_Minimization_Converged-OPLS-2005>
0

> <r_mmod_RMS_Derivative-OPLS-2005>
1.54160487651825

$$$$
46
                    3D
 Structure written by MMmdl.
160168  0  0  1  0            999 V2000
  -30.7453  -14.4750   20.4927 C   0  0  0  0  0  0
  -30.3961  -12.3007   19.4015 C   0  0  0  0  0  0
  -29.4873  -12.5091   18.1774 C   0  0  0  0  0  0
  -27.9995  -12.4134   18.5759 C   0  0  0  0  0  0
  -27.6514  -13.2330   19.8495 C   0  0  2  0  0  0
  -28.7032  -13.0465   20.9640 C   0  0  0  0  0  0
  -25.2537  -13.8210   20.5650 C   0  0  0  0  0  0
  -24.1830  -13.0438   20.9179 C   0  0  0  0  0  0
  -24.6417  -11.6914   20.8636 C   0  0  0  0  0  0
  -23.9086  -10.4273   21.0287 C   0  0  0  0  0  0
  -24.3643   -9.4202   21.9083 C   0  0  0  0  0  0
  -23.6327   -8.2230   22.0680 C   0  0  0  0  0  0
  -22.4293   -8.0277   21.3522 C   0  0  0  0  0  0
  -21.9921   -9.0232   20.4603 C   0  0  0  0  0  0
  -22.7237  -10.2120   20.2965 C   0  0  0  0  0  0
  -21.6879   -6.0720   22.5261 C   0  0  0  0  0  0
  -21.4018   -6.5616   23.8202 C   0  0  0  0  0  0
  -21.3668   -5.6778   24.9167 C   0  0  0  0  0  0
  -21.6057   -4.3033   24.7216 C   0  0  0  0  0  0
  -21.8827   -3.8129   23.4327 C   0  0  0  0  0  0
  -21.9201   -4.6931   22.3389 C   0  0  0  0  0  0
  -22.7838  -13.5171   21.1888 C   0  0  0  0  0  0
  -22.1671   -4.2112   21.0959 F   0  0  0  0  0  0
  -21.5647   -3.4514   25.7723 F   0  0  0  0  0  0
  -30.0220  -13.3283   20.3836 N   0  0  0  0  0  0
  -26.2987  -12.9427   20.3240 N   0  0  0  0  0  0
  -25.9352  -11.6557   20.5674 N   0  0  0  0  0  0
  -22.0499  -12.8145   22.0435 N   0  0  0  0  0  0
  -25.4222  -15.1940   20.4110 N   0  0  0  0  0  0
  -31.9281  -14.5369   20.1622 O   0  0  0  0  0  0
  -21.6663   -6.8856   21.4233 O   0  0  0  0  0  0
  -22.3481  -14.5474   20.6745 O   0  0  0  0  0  0
  -24.6250  -31.8626   23.2061 C   0  0  0  0  0  0
  -25.9127  -32.4768   23.8366 C   0  0  1  0  0  0
  -27.2576  -27.4129   20.0920 C   0  0  0  0  0  0
  -25.5963  -33.8565   24.2301 N   0  0  0  0  0  0
  -23.4149  -30.4933   21.5405 C   0  0  2  0  0  0
  -24.8611  -28.9507   20.1164 C   0  0  0  0  0  0
  -22.7473  -29.4669   22.4863 C   0  0  0  0  0  0
  -18.0285  -28.1398   22.8448 C   0  0  0  0  0  0
  -24.1487  -36.7309   23.2641 C   0  0  0  0  0  0
  -25.9521  -30.8225   21.3660 C   0  0  0  0  0  0
  -26.0284  -29.4636   20.6953 C   0  0  0  0  0  0
  -27.2304  -28.7146   20.6552 C   0  0  0  0  0  0
  -26.0572  -26.9071   19.5364 C   0  0  0  0  0  0
  -24.8736  -27.6720   19.5336 C   0  0  0  0  0  0
  -23.6334  -29.8336   20.1542 C   0  0  0  0  0  0
  -25.4098  -36.3083   24.0348 C   0  0  1  0  0  0
  -20.5883  -28.3724   23.1226 C   0  0  2  0  0  0
  -20.6742  -26.9422   22.5407 C   0  0  0  0  0  0
  -19.5736  -26.6370   21.5186 C   0  0  0  0  0  0
  -18.1919  -26.7927   22.1580 C   0  0  0  0  0  0
  -19.1543  -28.8853   23.2842 C   0  0  0  0  0  0
  -18.9465  -30.1442   23.8888 C   0  0  0  0  0  0
  -17.6480  -30.6568   24.0573 C   0  0  0  0  0  0
  -25.9054  -34.9455   23.5124 C   0  0  0  0  0  0
  -16.5368  -29.9105   23.6300 C   0  0  0  0  0  0
  -16.7287  -28.6532   23.0285 C   0  0  0  0  0  0
  -26.4503  -31.6586   25.0754 C   0  0  0  0  0  0
  -25.3758  -31.3731   26.1514 C   0  0  0  0  0  0
  -27.0367  -30.2995   24.6261 C   0  0  0  0  0  0
  -27.6014  -32.4384   25.7549 C   0  0  0  0  0  0
  -27.5579  -37.1827   24.8459 C   0  0  0  0  0  0
  -21.4176  -29.3106   22.3632 N   0  0  0  0  0  0
  -26.4275  -37.3794   23.9424 N   0  0  0  0  0  0
  -24.6806  -31.0759   22.0940 N   0  0  0  0  0  0
  -23.4219  -28.8188   23.2887 O   0  0  0  0  0  0
  -28.4427  -26.6821   20.1062 O   0  0  0  0  0  0
  -26.5628  -34.8932   22.4687 O   0  0  0  0  0  0
  -23.5439  -32.1372   23.7471 O   0  0  0  0  0  0
  -30.2762  -20.7696   19.8808 C   0  0  0  0  0  0
  -30.3057  -22.0456   20.5262 C   0  0  0  0  0  0
  -29.7730  -21.0372   18.6230 C   0  0  0  0  0  0
  -29.8508  -23.0501   19.7145 C   0  0  0  0  0  0
  -29.5133  -20.1356   17.4435 C   0  0  0  0  0  0
  -29.0970  -23.1103   17.3048 C   0  0  0  0  0  0
  -30.8118  -19.4573   20.4878 C   0  0  0  0  0  0
  -29.7846  -24.5619   19.9459 C   0  0  0  0  0  0
  -30.0069  -18.1405   20.2980 C   0  0  0  0  0  0
  -30.7445  -16.9266   20.9316 C   0  0  0  0  0  0
  -28.3953  -25.2596   19.8422 C   0  0  0  0  0  0
  -29.5482  -22.4198   18.5082 N   0  0  0  0  0  0
  -30.0753  -15.6122   20.7819 N   0  0  0  0  0  0
  -30.9266  -22.3169   22.1130 Cl  0  0  0  0  0  0
  -31.4450  -12.3543   19.1119 H   0  0  0  0  0  0
  -30.2517  -11.3001   19.8137 H   0  0  0  0  0  0
  -29.7185  -11.7638   17.4139 H   0  0  0  0  0  0
  -29.6880  -13.4814   17.7253 H   0  0  0  0  0  0
  -27.7543  -11.3640   18.7261 H   0  0  0  0  0  0
  -27.3742  -12.7484   17.7428 H   0  0  0  0  0  0
  -27.6831  -14.2805   19.5521 H   0  0  0  0  0  0
  -28.6810  -12.0186   21.3274 H   0  0  0  0  0  0
  -28.4938  -13.6851   21.8235 H   0  0  0  0  0  0
  -25.2774   -9.5717   22.4640 H   0  0  0  0  0  0
  -24.0070   -7.4611   22.7371 H   0  0  0  0  0  0
  -21.0853   -8.8707   19.8922 H   0  0  0  0  0  0
  -22.3636  -10.9629   19.6066 H   0  0  0  0  0  0
  -21.1989   -7.6127   23.9719 H   0  0  0  0  0  0
  -21.1511   -6.0480   25.9088 H   0  0  0  0  0  0
  -22.0603   -2.7593   23.2828 H   0  0  0  0  0  0
  -22.4197  -11.9893   22.4928 H   0  0  0  0  0  0
  -21.1053  -13.1045   22.2528 H   0  0  0  0  0  0
  -24.6552  -15.8469   20.5261 H   0  0  0  0  0  0
  -26.2826  -15.6396   20.1104 H   0  0  0  0  0  0
  -26.7210  -32.5421   23.1124 H   0  0  0  0  0  0
  -25.0128  -33.9679   25.0460 H   0  0  0  0  0  0
  -22.7071  -31.3118   21.3973 H   0  0  0  0  0  0
  -23.3744  -35.9646   23.3289 H   0  0  0  0  0  0
  -24.3605  -36.8934   22.2060 H   0  0  0  0  0  0
  -23.7234  -37.6517   23.6651 H   0  0  0  0  0  0
  -26.1032  -31.6056   20.6217 H   0  0  0  0  0  0
  -26.8236  -30.8380   22.0106 H   0  0  0  0  0  0
  -28.1361  -29.1371   21.0678 H   0  0  0  0  0  0
  -26.0076  -25.9181   19.1055 H   0  0  0  0  0  0
  -23.9740  -27.2613   19.0984 H   0  0  0  0  0  0
  -23.7856  -30.6172   19.4098 H   0  0  0  0  0  0
  -22.7497  -29.2874   19.8228 H   0  0  0  0  0  0
  -25.1261  -36.1945   25.0842 H   0  0  0  0  0  0
  -20.9979  -28.3338   24.1341 H   0  0  0  0  0  0
  -20.5543  -26.2371   23.3650 H   0  0  0  0  0  0
  -21.6614  -26.7377   22.1264 H   0  0  0  0  0  0
  -19.6882  -25.6263   21.1258 H   0  0  0  0  0  0
  -19.6675  -27.3129   20.6672 H   0  0  0  0  0  0
  -17.4192  -26.6682   21.3988 H   0  0  0  0  0  0
  -18.0326  -26.0067   22.8967 H   0  0  0  0  0  0
  -19.7961  -30.7231   24.2266 H   0  0  0  0  0  0
  -17.5052  -31.6232   24.5216 H   0  0  0  0  0  0
  -15.5368  -30.3012   23.7591 H   0  0  0  0  0  0
  -15.8692  -28.0880   22.6928 H   0  0  0  0  0  0
  -24.5906  -30.7086   25.7906 H   0  0  0  0  0  0
  -24.8988  -32.2898   26.4992 H   0  0  0  0  0  0
  -25.8137  -30.8911   27.0264 H   0  0  0  0  0  0
  -26.2977  -29.6745   24.1239 H   0  0  0  0  0  0
  -27.3959  -29.7266   25.4823 H   0  0  0  0  0  0
  -27.8880  -30.4243   23.9565 H   0  0  0  0  0  0
  -27.2505  -33.3615   26.2180 H   0  0  0  0  0  0
  -28.3788  -32.7093   25.0393 H   0  0  0  0  0  0
  -28.0732  -31.8527   26.5451 H   0  0  0  0  0  0
  -28.2590  -38.0134   24.7503 H   0  0  0  0  0  0
  -28.1079  -36.2668   24.6243 H   0  0  0  0  0  0
  -27.2342  -37.1446   25.8879 H   0  0  0  0  0  0
  -20.9356  -29.8923   21.6934 H   0  0  0  0  0  0
  -26.0161  -38.2882   24.1389 H   0  0  0  0  0  0
  -29.1147  -19.1694   17.7378 H   0  0  0  0  0  0
  -30.4132  -19.9763   16.8475 H   0  0  0  0  0  0
  -28.7474  -20.5376   16.7826 H   0  0  0  0  0  0
  -29.3163  -22.5393   16.4027 H   0  0  0  0  0  0
  -29.6127  -24.0639   17.1975 H   0  0  0  0  0  0
  -28.0238  -23.2857   17.3528 H   0  0  0  0  0  0
  -30.9214  -19.6045   21.5626 H   0  0  0  0  0  0
  -31.8261  -19.3110   20.1136 H   0  0  0  0  0  0
  -30.4836  -25.0505   19.2668 H   0  0  0  0  0  0
  -30.1920  -24.7730   20.9332 H   0  0  0  0  0  0
  -29.8844  -17.9357   19.2390 H   0  0  0  0  0  0
  -29.0123  -18.2552   20.7278 H   0  0  0  0  0  0
  -30.9097  -17.0890   21.9963 H   0  0  0  0  0  0
  -31.7424  -16.9016   20.4859 H   0  0  0  0  0  0
  -27.7031  -24.7851   20.5408 H   0  0  0  0  0  0
  -28.0137  -25.1043   18.8358 H   0  0  0  0  0  0
  -29.0763  -15.5609   20.9063 H   0  0  0  0  0  0
  1 25  1  0  0  0
  1 30  2  0  0  0
  1 83  1  0  0  0
  2  3  1  0  0  0
  2 25  1  0  0  0
  2 85  1  0  0  0
  2 86  1  0  0  0
  3  4  1  0  0  0
  3 87  1  0  0  0
  3 88  1  0  0  0
  4  5  1  0  0  0
  4 89  1  0  0  0
  4 90  1  0  0  0
  5  6  1  0  0  0
  5 26  1  0  0  0
  5 91  1  0  0  0
  6 25  1  0  0  0
  6 92  1  0  0  0
  6 93  1  0  0  0
  7  8  2  0  0  0
  7 26  1  0  0  0
  7 29  1  0  0  0
  8  9  1  0  0  0
  8 22  1  0  0  0
  9 10  1  0  0  0
  9 27  2  0  0  0
 10 11  2  0  0  0
 10 15  1  0  0  0
 11 12  1  0  0  0
 11 94  1  0  0  0
 12 13  2  0  0  0
 12 95  1  0  0  0
 13 14  1  0  0  0
 13 31  1  0  0  0
 14 15  2  0  0  0
 14 96  1  0  0  0
 15 97  1  0  0  0
 16 17  2  0  0  0
 16 21  1  0  0  0
 16 31  1  0  0  0
 17 18  1  0  0  0
 17 98  1  0  0  0
 18 19  2  0  0  0
 18 99  1  0  0  0
 19 20  1  0  0  0
 19 24  1  0  0  0
 20 21  2  0  0  0
 20100  1  0  0  0
 21 23  1  0  0  0
 22 28  1  0  0  0
 22 32  2  0  0  0
 26 27  1  0  0  0
 28101  1  0  0  0
 28102  1  0  0  0
 29103  1  0  0  0
 29104  1  0  0  0
 33 34  1  0  0  0
 33 66  1  0  0  0
 33 70  2  0  0  0
 34 36  1  0  0  0
 34 59  1  0  0  0
 34105  1  0  0  0
 35 44  2  0  0  0
 35 45  1  0  0  0
 35 68  1  0  0  0
 36 56  1  0  0  0
 36106  1  0  0  0
 37 39  1  0  0  0
 37 47  1  0  0  0
 37 66  1  0  0  0
 37107  1  0  0  0
 38 43  2  0  0  0
 38 46  1  0  0  0
 38 47  1  0  0  0
 39 64  1  0  0  0
 39 67  2  0  0  0
 40 52  1  0  0  0
 40 53  2  0  0  0
 40 58  1  0  0  0
 41108  1  0  0  0
 41109  1  0  0  0
 41110  1  0  0  0
 41 48  1  0  0  0
 42 43  1  0  0  0
 42 66  1  0  0  0
 42111  1  0  0  0
 42112  1  0  0  0
 43 44  1  0  0  0
 44113  1  0  0  0
 45 46  2  0  0  0
 45114  1  0  0  0
 46115  1  0  0  0
 47116  1  0  0  0
 47117  1  0  0  0
 48 56  1  0  0  0
 48 65  1  0  0  0
 48118  1  0  0  0
 49 50  1  0  0  0
 49 53  1  0  0  0
 49 64  1  0  0  0
 49119  1  0  0  0
 50 51  1  0  0  0
 50120  1  0  0  0
 50121  1  0  0  0
 51 52  1  0  0  0
 51122  1  0  0  0
 51123  1  0  0  0
 52124  1  0  0  0
 52125  1  0  0  0
 53 54  1  0  0  0
 54 55  2  0  0  0
 54126  1  0  0  0
 55 57  1  0  0  0
 55127  1  0  0  0
 56 69  2  0  0  0
 57 58  2  0  0  0
 57128  1  0  0  0
 58129  1  0  0  0
 59 60  1  0  0  0
 59 61  1  0  0  0
 59 62  1  0  0  0
 60130  1  0  0  0
 60131  1  0  0  0
 60132  1  0  0  0
 61133  1  0  0  0
 61134  1  0  0  0
 61135  1  0  0  0
 62136  1  0  0  0
 62137  1  0  0  0
 62138  1  0  0  0
 63 65  1  0  0  0
 63139  1  0  0  0
 63140  1  0  0  0
 63141  1  0  0  0
 64142  1  0  0  0
 65143  1  0  0  0
 68 81  1  0  0  0
 71 72  1  0  0  0
 71 73  2  0  0  0
 71 77  1  0  0  0
 72 74  2  0  0  0
 72 84  1  0  0  0
 73 75  1  0  0  0
 73 82  1  0  0  0
 74 78  1  0  0  0
 74 82  1  0  0  0
 75144  1  0  0  0
 75145  1  0  0  0
 75146  1  0  0  0
 76 82  1  0  0  0
 76147  1  0  0  0
 76148  1  0  0  0
 76149  1  0  0  0
 77 79  1  0  0  0
 77150  1  0  0  0
 77151  1  0  0  0
 78 81  1  0  0  0
 78152  1  0  0  0
 78153  1  0  0  0
 79 80  1  0  0  0
 79154  1  0  0  0
 79155  1  0  0  0
 80 83  1  0  0  0
 80156  1  0  0  0
 80157  1  0  0  0
 81158  1  0  0  0
 81159  1  0  0  0
 83160  1  0  0  0
M  ISO  4   1 100  68 101  81 101  83 100
M  END
> <chiral flag>
0

> <version>
0

> <s_m_source_file>
/data/baiqing/PycharmProjects/Reinvent-master-3.2/result/LINK_invent/BTK/process_docking_weight1_custom_sum_contain_oxygen_bond_distance_aromatic_linkinvent_7_9_3/rearranged_h_0032.sdf

> <i_m_source_file_index>
47

> <r_mmod_Potential_Energy-OPLS-2005>
-71.0118560791016

> <r_mmod_Stretch_Energy-OPLS-2005>
45.2983436584473

> <r_mmod_Bend_Energy-OPLS-2005>
119.953254699707

> <r_mmod_Torsional_Energy-OPLS-2005>
198.288177490234

> <r_mmod_Improper_Torsional_Energy-OPLS-2005>
4.93480825424194

> <r_mmod_Van_der_Waal_Energy-OPLS-2005>
136.200988769531

> <r_mmod_Electrostatic_Energy-OPLS-2005>
-386.724456787109

> <r_mmod_Solvation_Energy-OPLS-2005>
-213.184707641602

> <b_mmod_Minimization_Converged-OPLS-2005>
0

> <r_mmod_RMS_Derivative-OPLS-2005>
6.08088636398315

$$$$
47
                    3D
 Structure written by MMmdl.
180188  0  0  1  0            999 V2000
  -30.2831  -14.9703   20.7644 C   0  0  0  0  0  0
  -30.4387  -12.6729   19.5757 C   0  0  0  0  0  0
  -29.5357  -12.6009   18.3114 C   0  0  0  0  0  0
  -28.0636  -12.3386   18.6846 C   0  0  0  0  0  0
  -27.6164  -13.2209   19.8756 C   0  0  2  0  0  0
  -28.6026  -13.1203   21.0502 C   0  0  0  0  0  0
  -25.2358  -13.8165   20.5684 C   0  0  0  0  0  0
  -24.1660  -13.0405   20.9179 C   0  0  0  0  0  0
  -24.6244  -11.6885   20.8713 C   0  0  0  0  0  0
  -23.8971  -10.4267   21.0420 C   0  0  0  0  0  0
  -24.3571   -9.4195   21.9186 C   0  0  0  0  0  0
  -23.6271   -8.2218   22.0754 C   0  0  0  0  0  0
  -22.4252   -8.0247   21.3546 C   0  0  0  0  0  0
  -21.9859   -9.0203   20.4648 C   0  0  0  0  0  0
  -22.7162  -10.2093   20.3057 C   0  0  0  0  0  0
  -21.6837   -6.0714   22.5286 C   0  0  0  0  0  0
  -21.4000   -6.5634   23.8213 C   0  0  0  0  0  0
  -21.3666   -5.6796   24.9184 C   0  0  0  0  0  0
  -21.6034   -4.3053   24.7236 C   0  0  0  0  0  0
  -21.8826   -3.8137   23.4365 C   0  0  0  0  0  0
  -21.9188   -4.6944   22.3416 C   0  0  0  0  0  0
  -22.7708  -13.5195   21.1887 C   0  0  0  0  0  0
  -22.1662   -4.2137   21.0993 F   0  0  0  0  0  0
  -21.5639   -3.4547   25.7756 F   0  0  0  0  0  0
  -29.8625  -13.6555   20.5568 N   0  0  0  0  0  0
  -26.2681  -12.9306   20.3173 N   0  0  0  0  0  0
  -25.9125  -11.6465   20.5627 N   0  0  0  0  0  0
  -22.0399  -12.8170   22.0479 N   0  0  0  0  0  0
  -25.4128  -15.1894   20.4233 N   0  0  0  0  0  0
  -31.4238  -15.2321   20.3359 O   0  0  0  0  0  0
  -21.6625   -6.8845   21.4243 O   0  0  0  0  0  0
  -22.3388  -14.5502   20.6757 O   0  0  0  0  0  0
  -24.8868  -31.9897   23.2359 C   0  0  0  0  0  0
  -26.1337  -32.5787   23.8973 C   0  0  1  0  0  0
  -25.9403  -27.3648   20.3432 C   0  0  0  0  0  0
  -25.7778  -33.9385   24.2964 N   0  0  0  0  0  0
  -23.9198  -30.2223   21.8989 C   0  0  2  0  0  0
  -25.1184  -29.6269   19.7098 C   0  0  0  0  0  0
  -23.6723  -28.7238   22.7771 C   0  0  0  0  0  0
  -18.0237  -27.8950   22.7966 C   0  0  0  0  0  0
  -24.1573  -36.7396   23.2477 C   0  0  0  0  0  0
  -26.2783  -30.7994   21.5783 C   0  0  0  0  0  0
  -26.1723  -29.6376   20.6206 C   0  0  0  0  0  0
  -26.7676  -28.4057   20.8579 C   0  0  0  0  0  0
  -25.8230  -27.4010   18.9861 C   0  0  0  0  0  0
  -25.0452  -28.5545   18.7512 C   0  0  0  0  0  0
  -23.9765  -30.4358   20.2677 C   0  0  0  0  0  0
  -25.4216  -36.3418   24.0255 C   0  0  1  0  0  0
  -20.7391  -27.6045   22.9270 C   0  0  2  0  0  0
  -20.5435  -26.3198   22.2130 C   0  0  0  0  0  0
  -19.3576  -26.3852   21.2935 C   0  0  0  0  0  0
  -18.0771  -26.5570   22.1217 C   0  0  0  0  0  0
  -19.2547  -28.5653   23.0087 C   0  0  0  0  0  0
  -18.9317  -29.9898   23.2411 C   0  0  0  0  0  0
  -17.6894  -30.5349   23.6488 C   0  0  0  0  0  0
  -25.9500  -34.9975   23.5078 C   0  0  0  0  0  0
  -16.5596  -29.7331   23.5860 C   0  0  0  0  0  0
  -16.7365  -28.4363   23.0849 C   0  0  0  0  0  0
  -26.6424  -31.7518   25.1343 C   0  0  0  0  0  0
  -25.6292  -31.6417   26.2648 C   0  0  0  0  0  0
  -27.1261  -30.3334   24.7509 C   0  0  0  0  0  0
  -27.8451  -32.4748   25.7518 C   0  0  0  0  0  0
  -27.5631  -37.2071   24.8467 C   0  0  0  0  0  0
  -22.4482  -27.8174   22.9830 N   0  0  0  0  0  0
  -26.4301  -37.4172   23.9485 N   0  0  0  0  0  0
  -25.0472  -30.9785   22.3604 N   0  0  0  0  0  0
  -24.6563  -28.3182   23.2958 O   0  0  0  0  0  0
  -24.5194  -27.3388   20.7605 O   0  0  0  0  0  0
  -26.5370  -34.9310   22.4231 O   0  0  0  0  0  0
  -23.7894  -32.4793   23.5271 O   0  0  0  0  0  0
  -21.6579  -28.0438   25.6156 C   0  0  0  0  0  0
  -23.4899  -29.2272   25.4812 C   0  0  0  0  0  0
  -23.0652  -27.8338   25.5588 C   0  0  0  0  0  0
  -21.0132  -29.2147   24.9641 C   0  0  0  0  0  0
  -22.6559  -30.2981   24.7917 C   0  0  0  0  0  0
  -21.5869  -30.0047   23.7551 C   0  0  0  0  0  0
  -19.8061  -29.6328   25.8306 C   0  0  0  0  0  0
  -22.4102  -31.2349   27.2665 C   0  0  0  0  0  0
  -23.9057  -26.3636   25.6901 C   0  0  0  0  0  0
  -22.3160  -31.5042   25.7420 C   0  0  0  0  0  0
  -21.5552  -29.5914   21.6637 C   0  0  0  0  0  0
  -24.5821  -25.3129   24.4711 C   0  0  0  0  0  0
  -25.2015  -23.6875   24.6023 C   0  0  0  0  0  0
  -26.1452  -22.7301   23.4893 C   0  0  0  0  0  0
  -26.5814  -21.0404   23.5158 C   0  0  0  0  0  0
  -27.6834  -20.1286   22.5185 C   0  0  0  0  0  0
  -27.9933  -18.4146   22.4398 C   0  0  0  0  0  0
  -29.2000  -17.5326   21.5433 C   0  0  0  0  0  0
  -22.8009  -28.1652   20.5111 C   0  0  0  0  0  0
  -29.3499  -15.9324   21.3390 N   0  0  0  0  0  0
  -31.4539  -12.9525   19.2911 H   0  0  0  0  0  0
  -30.5227  -11.6898   20.0412 H   0  0  0  0  0  0
  -29.8934  -11.8293   17.6289 H   0  0  0  0  0  0
  -29.6037  -13.5462   17.7688 H   0  0  0  0  0  0
  -27.9658  -11.2852   18.9490 H   0  0  0  0  0  0
  -27.4150  -12.5018   17.8241 H   0  0  0  0  0  0
  -27.6191  -14.2497   19.5116 H   0  0  0  0  0  0
  -28.7192  -12.0878   21.3818 H   0  0  0  0  0  0
  -28.2351  -13.6676   21.9191 H   0  0  0  0  0  0
  -25.2726   -9.5680   22.4741 H   0  0  0  0  0  0
  -24.0003   -7.4601   22.7450 H   0  0  0  0  0  0
  -21.0802   -8.8693   19.8946 H   0  0  0  0  0  0
  -22.3616  -10.9625   19.6156 H   0  0  0  0  0  0
  -21.1992   -7.6146   23.9712 H   0  0  0  0  0  0
  -21.1475   -6.0535   25.9086 H   0  0  0  0  0  0
  -22.0598   -2.7602   23.2874 H   0  0  0  0  0  0
  -22.4050  -11.9822   22.4836 H   0  0  0  0  0  0
  -21.1010  -13.1161   22.2730 H   0  0  0  0  0  0
  -24.6546  -15.8502   20.5514 H   0  0  0  0  0  0
  -26.2615  -15.6279   20.0906 H   0  0  0  0  0  0
  -26.9555  -32.6383   23.1831 H   0  0  0  0  0  0
  -25.2566  -34.0484   25.1526 H   0  0  0  0  0  0
  -23.1789  -30.9486   22.1376 H   0  0  0  0  0  0
  -23.3993  -35.9567   23.3059 H   0  0  0  0  0  0
  -24.3672  -36.9074   22.1904 H   0  0  0  0  0  0
  -23.7127  -37.6510   23.6476 H   0  0  0  0  0  0
  -26.4637  -31.7078   21.0017 H   0  0  0  0  0  0
  -27.1580  -30.6453   22.1915 H   0  0  0  0  0  0
  -27.3349  -28.2766   21.7680 H   0  0  0  0  0  0
  -25.5168  -26.5365   18.4145 H   0  0  0  0  0  0
  -24.3001  -28.5519   17.9694 H   0  0  0  0  0  0
  -24.2234  -31.4845   20.0787 H   0  0  0  0  0  0
  -23.0605  -30.3883   19.6855 H   0  0  0  0  0  0
  -25.1326  -36.2218   25.0727 H   0  0  0  0  0  0
  -20.5267  -27.1131   23.8645 H   0  0  0  0  0  0
  -20.3462  -25.4911   22.9008 H   0  0  0  0  0  0
  -21.4350  -25.9453   21.7192 H   0  0  0  0  0  0
  -19.2976  -25.4508   20.7335 H   0  0  0  0  0  0
  -19.4627  -27.1757   20.5503 H   0  0  0  0  0  0
  -17.2149  -26.4509   21.4620 H   0  0  0  0  0  0
  -17.9887  -25.7665   22.8702 H   0  0  0  0  0  0
  -19.6198  -30.8063   23.1520 H   0  0  0  0  0  0
  -17.5935  -31.5850   23.8918 H   0  0  0  0  0  0
  -15.5769  -30.1217   23.8179 H   0  0  0  0  0  0
  -15.8541  -27.8296   22.9269 H   0  0  0  0  0  0
  -24.7038  -31.3849   25.8342 H   0  0  0  0  0  0
  -25.4750  -32.5991   26.7644 H   0  0  0  0  0  0
  -25.9030  -30.9140   27.0293 H   0  0  0  0  0  0
  -26.3580  -29.7345   24.2802 H   0  0  0  0  0  0
  -27.4334  -29.7788   25.6381 H   0  0  0  0  0  0
  -28.0041  -30.3608   24.1059 H   0  0  0  0  0  0
  -27.5890  -33.4508   26.1656 H   0  0  0  0  0  0
  -28.6295  -32.6422   25.0112 H   0  0  0  0  0  0
  -28.2883  -31.8951   26.5635 H   0  0  0  0  0  0
  -28.2546  -38.0486   24.7769 H   0  0  0  0  0  0
  -28.1281  -36.3051   24.6048 H   0  0  0  0  0  0
  -27.2350  -37.1398   25.8857 H   0  0  0  0  0  0
  -22.7980  -27.0947   23.5938 H   0  0  0  0  0  0
  -26.0122  -38.3155   24.1756 H   0  0  0  0  0  0
  -21.0512  -27.3308   26.1566 H   0  0  0  0  0  0
  -24.4709  -29.4134   25.8773 H   0  0  0  0  0  0
  -19.5253  -30.6786   25.7092 H   0  0  0  0  0  0
  -20.0014  -29.4831   26.8904 H   0  0  0  0  0  0
  -18.9350  -29.0064   25.6352 H   0  0  0  0  0  0
  -22.1229  -32.1270   27.8233 H   0  0  0  0  0  0
  -23.4140  -30.9661   27.5951 H   0  0  0  0  0  0
  -21.7629  -30.4298   27.5971 H   0  0  0  0  0  0
  -23.2210  -25.7311   26.2543 H   0  0  0  0  0  0
  -24.7107  -26.5623   26.3975 H   0  0  0  0  0  0
  -21.3165  -31.8619   25.5072 H   0  0  0  0  0  0
  -22.9028  -32.4000   25.5873 H   0  0  0  0  0  0
  -21.5148  -30.5681   21.1735 H   0  0  0  0  0  0
  -20.5695  -29.3881   21.2625 H   0  0  0  0  0  0
  -25.3798  -25.8859   23.9976 H   0  0  0  0  0  0
  -23.8103  -25.2495   23.7048 H   0  0  0  0  0  0
  -24.3294  -23.0763   24.8349 H   0  0  0  0  0  0
  -25.7742  -23.6788   25.5295 H   0  0  0  0  0  0
  -27.0965  -23.2580   23.4253 H   0  0  0  0  0  0
  -25.6868  -22.8917   22.5119 H   0  0  0  0  0  0
  -25.6345  -20.5028   23.4490 H   0  0  0  0  0  0
  -26.9152  -20.8555   24.5373 H   0  0  0  0  0  0
  -28.6602  -20.5814   22.6925 H   0  0  0  0  0  0
  -27.4473  -20.4145   21.4920 H   0  0  0  0  0  0
  -27.0359  -17.9707   22.1612 H   0  0  0  0  0  0
  -28.1342  -18.1047   23.4769 H   0  0  0  0  0  0
  -30.1642  -17.8606   21.9304 H   0  0  0  0  0  0
  -29.1651  -17.9330   20.5291 H   0  0  0  0  0  0
  -22.6539  -28.3869   19.4541 H   0  0  0  0  0  0
  -22.2031  -27.2714   20.4543 H   0  0  0  0  0  0
  -28.5111  -15.4505   21.6302 H   0  0  0  0  0  0
  1 25  1  0  0  0
  1 30  2  0  0  0
  1 90  1  0  0  0
  2  3  1  0  0  0
  2 25  1  0  0  0
  2 91  1  0  0  0
  2 92  1  0  0  0
  3  4  1  0  0  0
  3 93  1  0  0  0
  3 94  1  0  0  0
  4  5  1  0  0  0
  4 95  1  0  0  0
  4 96  1  0  0  0
  5  6  1  0  0  0
  5 26  1  0  0  0
  5 97  1  0  0  0
  6 25  1  0  0  0
  6 98  1  0  0  0
  6 99  1  0  0  0
  7  8  2  0  0  0
  7 26  1  0  0  0
  7 29  1  0  0  0
  8  9  1  0  0  0
  8 22  1  0  0  0
  9 10  1  0  0  0
  9 27  2  0  0  0
 10 11  2  0  0  0
 10 15  1  0  0  0
 11 12  1  0  0  0
 11100  1  0  0  0
 12 13  2  0  0  0
 12101  1  0  0  0
 13 14  1  0  0  0
 13 31  1  0  0  0
 14 15  2  0  0  0
 14102  1  0  0  0
 15103  1  0  0  0
 16 17  2  0  0  0
 16 21  1  0  0  0
 16 31  1  0  0  0
 17 18  1  0  0  0
 17104  1  0  0  0
 18 19  2  0  0  0
 18105  1  0  0  0
 19 20  1  0  0  0
 19 24  1  0  0  0
 20 21  2  0  0  0
 20106  1  0  0  0
 21 23  1  0  0  0
 22 28  1  0  0  0
 22 32  2  0  0  0
 26 27  1  0  0  0
 28107  1  0  0  0
 28108  1  0  0  0
 29109  1  0  0  0
 29110  1  0  0  0
 33 34  1  0  0  0
 33 66  1  0  0  0
 33 70  2  0  0  0
 34 36  1  0  0  0
 34 59  1  0  0  0
 34111  1  0  0  0
 35 44  2  0  0  0
 35 45  1  0  0  0
 35 68  1  0  0  0
 36 56  1  0  0  0
 36112  1  0  0  0
 37 39  1  0  0  0
 37 47  1  0  0  0
 37 66  1  0  0  0
 37113  1  0  0  0
 38 43  2  0  0  0
 38 46  1  0  0  0
 38 47  1  0  0  0
 39 64  1  0  0  0
 39 67  2  0  0  0
 40 52  1  0  0  0
 40 53  2  0  0  0
 40 58  1  0  0  0
 41114  1  0  0  0
 41115  1  0  0  0
 41116  1  0  0  0
 41 48  1  0  0  0
 42 43  1  0  0  0
 42 66  1  0  0  0
 42117  1  0  0  0
 42118  1  0  0  0
 43 44  1  0  0  0
 44119  1  0  0  0
 45 46  2  0  0  0
 45120  1  0  0  0
 46121  1  0  0  0
 47122  1  0  0  0
 47123  1  0  0  0
 48 56  1  0  0  0
 48 65  1  0  0  0
 48124  1  0  0  0
 49 50  1  0  0  0
 49 53  1  0  0  0
 49 64  1  0  0  0
 49125  1  0  0  0
 50 51  1  0  0  0
 50126  1  0  0  0
 50127  1  0  0  0
 51 52  1  0  0  0
 51128  1  0  0  0
 51129  1  0  0  0
 52130  1  0  0  0
 52131  1  0  0  0
 53 54  1  0  0  0
 54 55  2  0  0  0
 54132  1  0  0  0
 55 57  1  0  0  0
 55133  1  0  0  0
 56 69  2  0  0  0
 57 58  2  0  0  0
 57134  1  0  0  0
 58135  1  0  0  0
 59 60  1  0  0  0
 59 61  1  0  0  0
 59 62  1  0  0  0
 60136  1  0  0  0
 60137  1  0  0  0
 60138  1  0  0  0
 61139  1  0  0  0
 61140  1  0  0  0
 61141  1  0  0  0
 62142  1  0  0  0
 62143  1  0  0  0
 62144  1  0  0  0
 63 65  1  0  0  0
 63145  1  0  0  0
 63146  1  0  0  0
 63147  1  0  0  0
 64148  1  0  0  0
 65149  1  0  0  0
 68 89  1  0  0  0
 71 73  2  0  0  0
 71 74  1  0  0  0
 71150  1  0  0  0
 72 73  1  0  0  0
 72 75  2  0  0  0
 72151  1  0  0  0
 73 79  1  0  0  0
 74 76  2  0  0  0
 74 77  1  0  0  0
 75 76  1  0  0  0
 75 80  1  0  0  0
 76 81  1  0  0  0
 77152  1  0  0  0
 77153  1  0  0  0
 77154  1  0  0  0
 78 80  1  0  0  0
 78155  1  0  0  0
 78156  1  0  0  0
 78157  1  0  0  0
 79 82  1  0  0  0
 79158  1  0  0  0
 79159  1  0  0  0
 80160  1  0  0  0
 80161  1  0  0  0
 81 89  1  0  0  0
 81162  1  0  0  0
 81163  1  0  0  0
 82 83  1  0  0  0
 82164  1  0  0  0
 82165  1  0  0  0
 83 84  1  0  0  0
 83166  1  0  0  0
 83167  1  0  0  0
 84 85  1  0  0  0
 84168  1  0  0  0
 84169  1  0  0  0
 85 86  1  0  0  0
 85170  1  0  0  0
 85171  1  0  0  0
 86 87  1  0  0  0
 86172  1  0  0  0
 86173  1  0  0  0
 87 88  1  0  0  0
 87174  1  0  0  0
 87175  1  0  0  0
 88 90  1  0  0  0
 88176  1  0  0  0
 88177  1  0  0  0
 89178  1  0  0  0
 89179  1  0  0  0
 90180  1  0  0  0
M  ISO  4   1 100  68 101  89 101  90 100
M  END
> <chiral flag>
0

> <version>
0

> <s_m_source_file>
/data/baiqing/PycharmProjects/Reinvent-master-3.2/result/LINK_invent/BTK/process_docking_weight1_custom_sum_contain_oxygen_bond_distance_aromatic_linkinvent_7_9_3/rearranged_h_0032.sdf

> <i_m_source_file_index>
48

> <r_mmod_Potential_Energy-OPLS-2005>
9036.9736328125

> <r_mmod_Stretch_Energy-OPLS-2005>
2463.10375976562

> <r_mmod_Bend_Energy-OPLS-2005>
1259.24340820312

> <r_mmod_Torsional_Energy-OPLS-2005>
874.939086914062

> <r_mmod_Improper_Torsional_Energy-OPLS-2005>
81.3624572753906

> <r_mmod_Van_der_Waal_Energy-OPLS-2005>
1501.95141601562

> <r_mmod_Electrostatic_Energy-OPLS-2005>
-372.771942138672

> <r_mmod_Solvation_Energy-OPLS-2005>
-171.25129699707

> <b_mmod_Minimization_Converged-OPLS-2005>
0

> <r_mmod_RMS_Derivative-OPLS-2005>
4.60701990127563

$$$$
48
                    3D
 Structure written by MMmdl.
153161  0  0  1  0            999 V2000
  -30.5437  -14.9664   20.4244 C   0  0  0  0  0  0
  -30.4379  -12.6008   19.5094 C   0  0  0  0  0  0
  -29.5249  -12.5374   18.2636 C   0  0  0  0  0  0
  -28.0592  -12.3146   18.6799 C   0  0  0  0  0  0
  -27.6282  -13.2506   19.8390 C   0  0  2  0  0  0
  -28.6673  -13.2941   20.9803 C   0  0  0  0  0  0
  -25.2406  -13.8168   20.5628 C   0  0  0  0  0  0
  -24.1764  -13.0404   20.9245 C   0  0  0  0  0  0
  -24.6401  -11.6901   20.8781 C   0  0  0  0  0  0
  -23.9083  -10.4275   21.0424 C   0  0  0  0  0  0
  -24.3625   -9.4189   21.9201 C   0  0  0  0  0  0
  -23.6295   -8.2229   22.0762 C   0  0  0  0  0  0
  -22.4281   -8.0275   21.3545 C   0  0  0  0  0  0
  -21.9918   -9.0253   20.4651 C   0  0  0  0  0  0
  -22.7254  -10.2127   20.3070 C   0  0  0  0  0  0
  -21.6848   -6.0732   22.5277 C   0  0  0  0  0  0
  -21.4011   -6.5640   23.8210 C   0  0  0  0  0  0
  -21.3662   -5.6795   24.9174 C   0  0  0  0  0  0
  -21.6045   -4.3056   24.7226 C   0  0  0  0  0  0
  -21.8819   -3.8147   23.4347 C   0  0  0  0  0  0
  -21.9190   -4.6961   22.3400 C   0  0  0  0  0  0
  -22.7788  -13.5184   21.1886 C   0  0  0  0  0  0
  -22.1662   -4.2149   21.0980 F   0  0  0  0  0  0
  -21.5629   -3.4540   25.7739 F   0  0  0  0  0  0
  -29.9443  -13.7062   20.3832 N   0  0  0  0  0  0
  -26.2870  -12.9434   20.3227 N   0  0  0  0  0  0
  -25.9337  -11.6563   20.5765 N   0  0  0  0  0  0
  -22.0432  -12.8186   22.0445 N   0  0  0  0  0  0
  -25.3945  -15.1861   20.3838 N   0  0  0  0  0  0
  -31.7447  -15.0216   20.1414 O   0  0  0  0  0  0
  -21.6640   -6.8877   21.4242 O   0  0  0  0  0  0
  -22.3474  -14.5484   20.6720 O   0  0  0  0  0  0
  -24.6456  -31.8431   23.1868 C   0  0  0  0  0  0
  -25.9220  -32.4693   23.8262 C   0  0  1  0  0  0
  -27.2171  -27.1208   20.1532 C   0  0  0  0  0  0
  -25.5961  -33.8499   24.2182 N   0  0  0  0  0  0
  -23.4493  -30.4623   21.5333 C   0  0  2  0  0  0
  -24.8987  -28.8867   20.1131 C   0  0  0  0  0  0
  -22.7578  -29.4545   22.4855 C   0  0  0  0  0  0
  -18.0308  -28.1399   22.8476 C   0  0  0  0  0  0
  -24.1495  -36.7256   23.2640 C   0  0  0  0  0  0
  -26.0068  -30.7130   21.3864 C   0  0  0  0  0  0
  -26.0784  -29.3224   20.7295 C   0  0  0  0  0  0
  -27.2392  -28.4575   20.7291 C   0  0  0  0  0  0
  -26.0083  -26.7912   19.4998 C   0  0  0  0  0  0
  -24.8779  -27.6349   19.4826 C   0  0  0  0  0  0
  -23.6766  -29.7911   20.1535 C   0  0  0  0  0  0
  -25.4126  -36.3030   24.0312 C   0  0  1  0  0  0
  -20.5921  -28.3729   23.1237 C   0  0  2  0  0  0
  -20.6797  -26.9432   22.5412 C   0  0  0  0  0  0
  -19.5772  -26.6386   21.5219 C   0  0  0  0  0  0
  -18.1952  -26.7935   22.1631 C   0  0  0  0  0  0
  -19.1563  -28.8884   23.2847 C   0  0  0  0  0  0
  -18.9482  -30.1477   23.8874 C   0  0  0  0  0  0
  -17.6475  -30.6598   24.0556 C   0  0  0  0  0  0
  -25.9077  -34.9407   23.5057 C   0  0  0  0  0  0
  -16.5368  -29.9088   23.6334 C   0  0  0  0  0  0
  -16.7293  -28.6505   23.0355 C   0  0  0  0  0  0
  -26.4531  -31.6559   25.0706 C   0  0  0  0  0  0
  -25.3707  -31.3759   26.1395 C   0  0  0  0  0  0
  -27.0399  -30.2956   24.6292 C   0  0  0  0  0  0
  -27.6058  -32.4322   25.7499 C   0  0  0  0  0  0
  -27.5576  -37.1788   24.8464 C   0  0  0  0  0  0
  -21.4268  -29.3056   22.3608 N   0  0  0  0  0  0
  -26.4289  -37.3742   23.9404 N   0  0  0  0  0  0
  -24.7207  -31.0274   22.0909 N   0  0  0  0  0  0
  -23.4215  -28.8087   23.3011 O   0  0  0  0  0  0
  -28.2716  -26.1302   20.2039 O   0  0  0  0  0  0
  -26.5661  -34.8906   22.4635 O   0  0  0  0  0  0
  -23.5571  -32.1311   23.7081 O   0  0  0  0  0  0
  -29.5209  -20.4636   20.2965 C   0  0  0  0  0  0
  -27.4547  -21.3988   21.1179 C   0  0  0  0  0  0
  -28.6958  -21.6854   20.5255 C   0  0  0  0  0  0
  -29.1672  -19.0540   20.6481 C   0  0  0  0  0  0
  -27.9016  -18.9461   21.2959 C   0  0  0  0  0  0
  -27.0694  -20.0918   21.4947 C   0  0  0  0  0  0
  -27.4369  -17.5912   21.8108 C   0  0  0  0  0  0
  -29.0620  -23.2831   20.2572 C   0  0  0  0  0  0
  -30.1211  -17.7050   20.3946 C   0  0  0  0  0  0
  -27.9776  -24.5895   20.2375 C   0  0  0  0  0  0
  -29.7766  -16.1598   20.5736 N   0  0  0  0  0  0
  -25.5142  -19.9528   22.2419 Cl  0  0  0  0  0  0
  -31.4732  -12.7528   19.2017 H   0  0  0  0  0  0
  -30.4240  -11.6525   20.0481 H   0  0  0  0  0  0
  -29.8515  -11.7420   17.5927 H   0  0  0  0  0  0
  -29.6097  -13.4684   17.7007 H   0  0  0  0  0  0
  -27.9629  -11.2745   18.9932 H   0  0  0  0  0  0
  -27.3967  -12.4376   17.8226 H   0  0  0  0  0  0
  -27.5875  -14.2508   19.4059 H   0  0  0  0  0  0
  -28.7568  -12.3259   21.4747 H   0  0  0  0  0  0
  -28.3595  -14.0062   21.7478 H   0  0  0  0  0  0
  -25.2765   -9.5663   22.4781 H   0  0  0  0  0  0
  -23.9996   -7.4619   22.7483 H   0  0  0  0  0  0
  -21.0850   -8.8781   19.8952 H   0  0  0  0  0  0
  -22.3720  -10.9674   19.6184 H   0  0  0  0  0  0
  -21.2005   -7.6147   23.9712 H   0  0  0  0  0  0
  -21.1482   -6.0527   25.9077 H   0  0  0  0  0  0
  -22.0594   -2.7608   23.2849 H   0  0  0  0  0  0
  -22.4056  -11.9858   22.4845 H   0  0  0  0  0  0
  -21.1048  -13.1218   22.2647 H   0  0  0  0  0  0
  -24.5987  -15.8116   20.4450 H   0  0  0  0  0  0
  -26.1865  -15.5993   19.9119 H   0  0  0  0  0  0
  -26.7284  -32.5298   23.0988 H   0  0  0  0  0  0
  -25.0086  -33.9605   25.0315 H   0  0  0  0  0  0
  -22.7528  -31.2890   21.3781 H   0  0  0  0  0  0
  -23.3761  -35.9584   23.3288 H   0  0  0  0  0  0
  -24.3579  -36.8903   22.2057 H   0  0  0  0  0  0
  -23.7247  -37.6447   23.6686 H   0  0  0  0  0  0
  -26.1611  -31.4655   20.6120 H   0  0  0  0  0  0
  -26.8774  -30.7661   22.0285 H   0  0  0  0  0  0
  -28.1390  -28.7886   21.2278 H   0  0  0  0  0  0
  -25.8989  -25.8413   19.0022 H   0  0  0  0  0  0
  -23.9787  -27.2961   18.9866 H   0  0  0  0  0  0
  -23.8165  -30.5650   19.3980 H   0  0  0  0  0  0
  -22.7905  -29.2353   19.8410 H   0  0  0  0  0  0
  -25.1317  -36.1858   25.0803 H   0  0  0  0  0  0
  -21.0013  -28.3328   24.1359 H   0  0  0  0  0  0
  -20.5689  -26.2346   23.3636 H   0  0  0  0  0  0
  -21.6662  -26.7441   22.1214 H   0  0  0  0  0  0
  -19.6938  -25.6290   21.1270 H   0  0  0  0  0  0
  -19.6710  -27.3183   20.6738 H   0  0  0  0  0  0
  -17.4224  -26.6672   21.4033 H   0  0  0  0  0  0
  -18.0359  -26.0085   22.9037 H   0  0  0  0  0  0
  -19.7953  -30.7300   24.2239 H   0  0  0  0  0  0
  -17.5031  -31.6274   24.5161 H   0  0  0  0  0  0
  -15.5368  -30.2984   23.7667 H   0  0  0  0  0  0
  -15.8696  -28.0811   22.7086 H   0  0  0  0  0  0
  -24.5896  -30.7095   25.7710 H   0  0  0  0  0  0
  -24.8884  -32.2946   26.4745 H   0  0  0  0  0  0
  -25.7980  -30.8980   27.0220 H   0  0  0  0  0  0
  -26.3022  -29.6676   24.1285 H   0  0  0  0  0  0
  -27.3995  -29.7257   25.4868 H   0  0  0  0  0  0
  -27.8932  -30.4189   23.9621 H   0  0  0  0  0  0
  -27.2652  -33.3643   26.2019 H   0  0  0  0  0  0
  -28.3905  -32.6847   25.0354 H   0  0  0  0  0  0
  -28.0685  -31.8482   26.5466 H   0  0  0  0  0  0
  -28.2588  -38.0089   24.7505 H   0  0  0  0  0  0
  -28.1078  -36.2618   24.6302 H   0  0  0  0  0  0
  -27.2290  -37.1446   25.8866 H   0  0  0  0  0  0
  -20.9478  -29.8780   21.6797 H   0  0  0  0  0  0
  -26.0157  -38.2812   24.1402 H   0  0  0  0  0  0
  -30.4905  -20.6143   19.8412 H   0  0  0  0  0  0
  -26.7706  -22.2080   21.3268 H   0  0  0  0  0  0
  -28.1853  -17.1621   22.4764 H   0  0  0  0  0  0
  -27.2802  -16.9206   20.9711 H   0  0  0  0  0  0
  -26.5085  -17.6104   22.3767 H   0  0  0  0  0  0
  -29.6059  -23.3101   19.3130 H   0  0  0  0  0  0
  -29.8117  -23.5239   21.0106 H   0  0  0  0  0  0
  -31.0144  -17.8704   20.9968 H   0  0  0  0  0  0
  -30.4699  -17.7991   19.3655 H   0  0  0  0  0  0
  -27.3350  -24.3735   19.3866 H   0  0  0  0  0  0
  -27.3403  -24.4671   21.1134 H   0  0  0  0  0  0
  -28.8053  -15.9830   20.7716 H   0  0  0  0  0  0
  1 25  1  0  0  0
  1 30  2  0  0  0
  1 81  1  0  0  0
  2  3  1  0  0  0
  2 25  1  0  0  0
  2 83  1  0  0  0
  2 84  1  0  0  0
  3  4  1  0  0  0
  3 85  1  0  0  0
  3 86  1  0  0  0
  4  5  1  0  0  0
  4 87  1  0  0  0
  4 88  1  0  0  0
  5  6  1  0  0  0
  5 26  1  0  0  0
  5 89  1  0  0  0
  6 25  1  0  0  0
  6 90  1  0  0  0
  6 91  1  0  0  0
  7  8  2  0  0  0
  7 26  1  0  0  0
  7 29  1  0  0  0
  8  9  1  0  0  0
  8 22  1  0  0  0
  9 10  1  0  0  0
  9 27  2  0  0  0
 10 11  2  0  0  0
 10 15  1  0  0  0
 11 12  1  0  0  0
 11 92  1  0  0  0
 12 13  2  0  0  0
 12 93  1  0  0  0
 13 14  1  0  0  0
 13 31  1  0  0  0
 14 15  2  0  0  0
 14 94  1  0  0  0
 15 95  1  0  0  0
 16 17  2  0  0  0
 16 21  1  0  0  0
 16 31  1  0  0  0
 17 18  1  0  0  0
 17 96  1  0  0  0
 18 19  2  0  0  0
 18 97  1  0  0  0
 19 20  1  0  0  0
 19 24  1  0  0  0
 20 21  2  0  0  0
 20 98  1  0  0  0
 21 23  1  0  0  0
 22 28  1  0  0  0
 22 32  2  0  0  0
 26 27  1  0  0  0
 28 99  1  0  0  0
 28100  1  0  0  0
 29101  1  0  0  0
 29102  1  0  0  0
 33 34  1  0  0  0
 33 66  1  0  0  0
 33 70  2  0  0  0
 34 36  1  0  0  0
 34 59  1  0  0  0
 34103  1  0  0  0
 35 44  2  0  0  0
 35 45  1  0  0  0
 35 68  1  0  0  0
 36 56  1  0  0  0
 36104  1  0  0  0
 37 39  1  0  0  0
 37 47  1  0  0  0
 37 66  1  0  0  0
 37105  1  0  0  0
 38 43  2  0  0  0
 38 46  1  0  0  0
 38 47  1  0  0  0
 39 64  1  0  0  0
 39 67  2  0  0  0
 40 52  1  0  0  0
 40 53  2  0  0  0
 40 58  1  0  0  0
 41106  1  0  0  0
 41107  1  0  0  0
 41108  1  0  0  0
 41 48  1  0  0  0
 42 43  1  0  0  0
 42 66  1  0  0  0
 42109  1  0  0  0
 42110  1  0  0  0
 43 44  1  0  0  0
 44111  1  0  0  0
 45 46  2  0  0  0
 45112  1  0  0  0
 46113  1  0  0  0
 47114  1  0  0  0
 47115  1  0  0  0
 48 56  1  0  0  0
 48 65  1  0  0  0
 48116  1  0  0  0
 49 50  1  0  0  0
 49 53  1  0  0  0
 49 64  1  0  0  0
 49117  1  0  0  0
 50 51  1  0  0  0
 50118  1  0  0  0
 50119  1  0  0  0
 51 52  1  0  0  0
 51120  1  0  0  0
 51121  1  0  0  0
 52122  1  0  0  0
 52123  1  0  0  0
 53 54  1  0  0  0
 54 55  2  0  0  0
 54124  1  0  0  0
 55 57  1  0  0  0
 55125  1  0  0  0
 56 69  2  0  0  0
 57 58  2  0  0  0
 57126  1  0  0  0
 58127  1  0  0  0
 59 60  1  0  0  0
 59 61  1  0  0  0
 59 62  1  0  0  0
 60128  1  0  0  0
 60129  1  0  0  0
 60130  1  0  0  0
 61131  1  0  0  0
 61132  1  0  0  0
 61133  1  0  0  0
 62134  1  0  0  0
 62135  1  0  0  0
 62136  1  0  0  0
 63 65  1  0  0  0
 63137  1  0  0  0
 63138  1  0  0  0
 63139  1  0  0  0
 64140  1  0  0  0
 65141  1  0  0  0
 68 80  1  0  0  0
 71 73  2  0  0  0
 71 74  1  0  0  0
 71142  1  0  0  0
 72 73  1  0  0  0
 72 76  2  0  0  0
 72143  1  0  0  0
 73 78  1  0  0  0
 74 75  2  0  0  0
 74 79  1  0  0  0
 75 76  1  0  0  0
 75 77  1  0  0  0
 76 82  1  0  0  0
 77144  1  0  0  0
 77145  1  0  0  0
 77146  1  0  0  0
 78 80  1  0  0  0
 78147  1  0  0  0
 78148  1  0  0  0
 79 81  1  0  0  0
 79149  1  0  0  0
 79150  1  0  0  0
 80151  1  0  0  0
 80152  1  0  0  0
 81153  1  0  0  0
M  ISO  4   1 100  68 101  80 101  81 100
M  END
> <chiral flag>
0

> <version>
0

> <s_m_source_file>
/data/baiqing/PycharmProjects/Reinvent-master-3.2/result/LINK_invent/BTK/process_docking_weight1_custom_sum_contain_oxygen_bond_distance_aromatic_linkinvent_7_9_3/rearranged_h_0032.sdf

> <i_m_source_file_index>
49

> <r_mmod_Potential_Energy-OPLS-2005>
481.500457763672

> <r_mmod_Stretch_Energy-OPLS-2005>
279.806518554688

> <r_mmod_Bend_Energy-OPLS-2005>
250.435592651367

> <r_mmod_Torsional_Energy-OPLS-2005>
204.522705078125

> <r_mmod_Improper_Torsional_Energy-OPLS-2005>
5.46194171905518

> <r_mmod_Van_der_Waal_Energy-OPLS-2005>
135.84651184082

> <r_mmod_Electrostatic_Energy-OPLS-2005>
-392.536499023438

> <r_mmod_Solvation_Energy-OPLS-2005>
-206.359924316406

> <b_mmod_Minimization_Converged-OPLS-2005>
0

> <r_mmod_RMS_Derivative-OPLS-2005>
0.949594259262085

$$$$
49
                    3D
 Structure written by MMmdl.
167175  0  0  1  0            999 V2000
  -30.7366  -14.4048   20.6474 C   0  0  0  0  0  0
  -30.4191  -12.3033   19.3996 C   0  0  0  0  0  0
  -29.4884  -12.5278   18.1925 C   0  0  0  0  0  0
  -28.0091  -12.3853   18.6016 C   0  0  0  0  0  0
  -27.6633  -13.2040   19.8733 C   0  0  2  0  0  0
  -28.7005  -12.9511   20.9894 C   0  0  0  0  0  0
  -25.2606  -13.8156   20.5648 C   0  0  0  0  0  0
  -24.1847  -13.0461   20.9134 C   0  0  0  0  0  0
  -24.6377  -11.6913   20.8687 C   0  0  0  0  0  0
  -23.9017  -10.4327   21.0367 C   0  0  0  0  0  0
  -24.3581   -9.4253   21.9146 C   0  0  0  0  0  0
  -23.6277   -8.2276   22.0725 C   0  0  0  0  0  0
  -22.4263   -8.0298   21.3529 C   0  0  0  0  0  0
  -21.9877   -9.0249   20.4612 C   0  0  0  0  0  0
  -22.7183  -10.2146   20.3003 C   0  0  0  0  0  0
  -21.6868   -6.0737   22.5284 C   0  0  0  0  0  0
  -21.4014   -6.5633   23.8220 C   0  0  0  0  0  0
  -21.3649   -5.6770   24.9178 C   0  0  0  0  0  0
  -21.6063   -4.3040   24.7229 C   0  0  0  0  0  0
  -21.8822   -3.8133   23.4348 C   0  0  0  0  0  0
  -21.9186   -4.6955   22.3410 C   0  0  0  0  0  0
  -22.7859  -13.5247   21.1837 C   0  0  0  0  0  0
  -22.1663   -4.2148   21.0994 F   0  0  0  0  0  0
  -21.5624   -3.4520   25.7738 F   0  0  0  0  0  0
  -30.0401  -13.2549   20.4556 N   0  0  0  0  0  0
  -26.3029  -12.9316   20.3310 N   0  0  0  0  0  0
  -25.9304  -11.6475   20.5709 N   0  0  0  0  0  0
  -22.0492  -12.8254   22.0389 N   0  0  0  0  0  0
  -25.4422  -15.1884   20.4100 N   0  0  0  0  0  0
  -31.7971  -14.6540   20.0660 O   0  0  0  0  0  0
  -21.6647   -6.8889   21.4257 O   0  0  0  0  0  0
  -22.3550  -14.5570   20.6709 O   0  0  0  0  0  0
  -24.6119  -31.8723   23.2131 C   0  0  0  0  0  0
  -25.9025  -32.4859   23.8418 C   0  0  1  0  0  0
  -27.2196  -27.4533   20.0712 C   0  0  0  0  0  0
  -25.5898  -33.8657   24.2352 N   0  0  0  0  0  0
  -23.3955  -30.4992   21.5562 C   0  0  2  0  0  0
  -24.8301  -28.9658   20.1187 C   0  0  0  0  0  0
  -22.7382  -29.4693   22.5022 C   0  0  0  0  0  0
  -18.0282  -28.1389   22.8478 C   0  0  0  0  0  0
  -24.1491  -36.7332   23.2639 C   0  0  0  0  0  0
  -25.9219  -30.8421   21.3582 C   0  0  0  0  0  0
  -25.9918  -29.4751   20.7111 C   0  0  0  0  0  0
  -27.1848  -28.7225   20.6898 C   0  0  0  0  0  0
  -26.0294  -26.9492   19.4926 C   0  0  0  0  0  0
  -24.8410  -27.6991   19.5142 C   0  0  0  0  0  0
  -23.5975  -29.8372   20.1685 C   0  0  0  0  0  0
  -25.4116  -36.3139   24.0343 C   0  0  1  0  0  0
  -20.5855  -28.3657   23.1340 C   0  0  2  0  0  0
  -20.6777  -26.9405   22.5419 C   0  0  0  0  0  0
  -19.5770  -26.6396   21.5200 C   0  0  0  0  0  0
  -18.1942  -26.7937   22.1600 C   0  0  0  0  0  0
  -19.1526  -28.8842   23.2904 C   0  0  0  0  0  0
  -18.9455  -30.1444   23.8919 C   0  0  0  0  0  0
  -17.6462  -30.6580   24.0577 C   0  0  0  0  0  0
  -25.9033  -34.9495   23.5133 C   0  0  0  0  0  0
  -16.5353  -29.9093   23.6318 C   0  0  0  0  0  0
  -16.7277  -28.6519   23.0317 C   0  0  0  0  0  0
  -26.4465  -31.6629   25.0729 C   0  0  0  0  0  0
  -25.3745  -31.3710   26.1493 C   0  0  0  0  0  0
  -27.0277  -30.3091   24.6028 C   0  0  0  0  0  0
  -27.6077  -32.4323   25.7472 C   0  0  0  0  0  0
  -27.5589  -37.1825   24.8465 C   0  0  0  0  0  0
  -21.4109  -29.3040   22.3755 N   0  0  0  0  0  0
  -26.4310  -37.3810   23.9401 N   0  0  0  0  0  0
  -24.6629  -31.0840   22.1018 N   0  0  0  0  0  0
  -23.4167  -28.8207   23.3036 O   0  0  0  0  0  0
  -28.4222  -26.7779   20.0598 O   0  0  0  0  0  0
  -26.5585  -34.8945   22.4684 O   0  0  0  0  0  0
  -23.5319  -32.1476   23.7546 O   0  0  0  0  0  0
  -29.1325  -25.5773   15.2242 C   0  0  0  0  0  0
  -28.3095  -26.4682   15.9231 C   0  0  0  0  0  0
  -29.8314  -24.5882   15.9368 C   0  0  0  0  0  0
  -29.6721  -24.5255   17.3431 C   0  0  0  0  0  0
  -28.8133  -25.4717   17.9676 C   0  0  0  0  0  0
  -30.7225  -23.6218   15.1760 C   0  0  0  0  0  0
  -30.4200  -23.4688   18.1568 C   0  0  0  0  0  0
  -28.5252  -25.4722   19.4779 C   0  0  0  0  0  0
  -29.5748  -22.2221   18.4658 C   0  0  0  0  0  0
  -30.2805  -21.3132   19.4870 C   0  0  0  0  0  0
  -29.5720  -19.9697   19.7229 C   0  0  0  0  0  0
  -30.4439  -18.9884   20.5253 C   0  0  0  0  0  0
  -29.7443  -17.6469   20.8091 C   0  0  0  0  0  0
  -30.6068  -16.6827   21.6481 C   0  0  0  0  0  0
  -28.1579  -26.4164   17.2562 N   0  0  0  0  0  0
  -30.1682  -15.2962   21.4729 N   0  0  0  0  0  0
  -31.4615  -12.4064   19.0946 H   0  0  0  0  0  0
  -30.3195  -11.2834   19.7702 H   0  0  0  0  0  0
  -29.7271  -11.8208   17.3957 H   0  0  0  0  0  0
  -29.6565  -13.5228   17.7734 H   0  0  0  0  0  0
  -27.8070  -11.3274   18.7682 H   0  0  0  0  0  0
  -27.3615  -12.6888   17.7791 H   0  0  0  0  0  0
  -27.7134  -14.2569   19.5919 H   0  0  0  0  0  0
  -28.6718  -11.9060   21.2972 H   0  0  0  0  0  0
  -28.4471  -13.5207   21.8831 H   0  0  0  0  0  0
  -25.2725   -9.5739   22.4712 H   0  0  0  0  0  0
  -24.0003   -7.4651   22.7417 H   0  0  0  0  0  0
  -21.0799   -8.8708   19.8937 H   0  0  0  0  0  0
  -22.3577  -10.9657   19.6096 H   0  0  0  0  0  0
  -21.2015   -7.6139   23.9725 H   0  0  0  0  0  0
  -21.1469   -6.0505   25.9079 H   0  0  0  0  0  0
  -22.0618   -2.7593   23.2839 H   0  0  0  0  0  0
  -22.4109  -11.9901   22.4751 H   0  0  0  0  0  0
  -21.1106  -13.1310   22.2604 H   0  0  0  0  0  0
  -24.6894  -15.8589   20.5189 H   0  0  0  0  0  0
  -26.3124  -15.6163   20.1171 H   0  0  0  0  0  0
  -26.7069  -32.5568   23.1165 H   0  0  0  0  0  0
  -25.0076  -33.9828   25.0515 H   0  0  0  0  0  0
  -22.6851  -31.3191   21.4240 H   0  0  0  0  0  0
  -23.3747  -35.9665   23.3316 H   0  0  0  0  0  0
  -24.3577  -36.8918   22.2045 H   0  0  0  0  0  0
  -23.7249  -37.6552   23.6628 H   0  0  0  0  0  0
  -26.0204  -31.6035   20.5841 H   0  0  0  0  0  0
  -26.8181  -30.9045   21.9639 H   0  0  0  0  0  0
  -28.0845  -29.1169   21.1380 H   0  0  0  0  0  0
  -25.9949  -25.9949   18.9897 H   0  0  0  0  0  0
  -23.9466  -27.3022   19.0533 H   0  0  0  0  0  0
  -23.7106  -30.6184   19.4156 H   0  0  0  0  0  0
  -22.7192  -29.2634   19.8658 H   0  0  0  0  0  0
  -25.1281  -36.2006   25.0835 H   0  0  0  0  0  0
  -20.9967  -28.3219   24.1447 H   0  0  0  0  0  0
  -20.5673  -26.2261   23.3584 H   0  0  0  0  0  0
  -21.6651  -26.7453   22.1213 H   0  0  0  0  0  0
  -19.6920  -25.6303   21.1227 H   0  0  0  0  0  0
  -19.6725  -27.3207   20.6730 H   0  0  0  0  0  0
  -17.4208  -26.6686   21.3999 H   0  0  0  0  0  0
  -18.0339  -26.0081   22.9000 H   0  0  0  0  0  0
  -19.7933  -30.7258   24.2291 H   0  0  0  0  0  0
  -17.5019  -31.6262   24.5176 H   0  0  0  0  0  0
  -15.5353  -30.3007   23.7636 H   0  0  0  0  0  0
  -15.8676  -28.0869   22.6988 H   0  0  0  0  0  0
  -24.5930  -30.7039   25.7829 H   0  0  0  0  0  0
  -24.8930  -32.2850   26.4969 H   0  0  0  0  0  0
  -25.8132  -30.8873   27.0223 H   0  0  0  0  0  0
  -26.2768  -29.6878   24.1133 H   0  0  0  0  0  0
  -27.4135  -29.7310   25.4427 H   0  0  0  0  0  0
  -27.8559  -30.4457   23.9082 H   0  0  0  0  0  0
  -27.2730  -33.3603   26.2111 H   0  0  0  0  0  0
  -28.3851  -32.6902   25.0271 H   0  0  0  0  0  0
  -28.0770  -31.8397   26.5325 H   0  0  0  0  0  0
  -28.2629  -38.0110   24.7504 H   0  0  0  0  0  0
  -28.1074  -36.2639   24.6294 H   0  0  0  0  0  0
  -27.2311  -37.1475   25.8877 H   0  0  0  0  0  0
  -20.9242  -29.8795   21.7017 H   0  0  0  0  0  0
  -26.0206  -38.2888   24.1403 H   0  0  0  0  0  0
  -29.2208  -25.6602   14.1497 H   0  0  0  0  0  0
  -27.7556  -27.2383   15.4040 H   0  0  0  0  0  0
  -30.6508  -23.7906   14.1027 H   0  0  0  0  0  0
  -30.4342  -22.5878   15.3719 H   0  0  0  0  0  0
  -31.7693  -23.7518   15.4535 H   0  0  0  0  0  0
  -30.8118  -23.9136   19.0683 H   0  0  0  0  0  0
  -31.3234  -23.1578   17.6353 H   0  0  0  0  0  0
  -29.3377  -25.0041   20.0246 H   0  0  0  0  0  0
  -27.6575  -24.8429   19.6855 H   0  0  0  0  0  0
  -29.3951  -21.6743   17.5392 H   0  0  0  0  0  0
  -28.5932  -22.5069   18.8489 H   0  0  0  0  0  0
  -30.3755  -21.8427   20.4372 H   0  0  0  0  0  0
  -31.2979  -21.1250   19.1455 H   0  0  0  0  0  0
  -28.6332  -20.1444   20.2507 H   0  0  0  0  0  0
  -29.3127  -19.5166   18.7649 H   0  0  0  0  0  0
  -30.7364  -19.4549   21.4668 H   0  0  0  0  0  0
  -31.3747  -18.7988   19.9872 H   0  0  0  0  0  0
  -29.4697  -17.1771   19.8625 H   0  0  0  0  0  0
  -28.8085  -17.8316   21.3365 H   0  0  0  0  0  0
  -30.5322  -16.9439   22.7054 H   0  0  0  0  0  0
  -31.6645  -16.7904   21.3970 H   0  0  0  0  0  0
  -29.3259  -15.0077   21.9457 H   0  0  0  0  0  0
  1 25  1  0  0  0
  1 30  2  0  0  0
  1 86  1  0  0  0
  2  3  1  0  0  0
  2 25  1  0  0  0
  2 87  1  0  0  0
  2 88  1  0  0  0
  3  4  1  0  0  0
  3 89  1  0  0  0
  3 90  1  0  0  0
  4  5  1  0  0  0
  4 91  1  0  0  0
  4 92  1  0  0  0
  5  6  1  0  0  0
  5 26  1  0  0  0
  5 93  1  0  0  0
  6 25  1  0  0  0
  6 94  1  0  0  0
  6 95  1  0  0  0
  7  8  2  0  0  0
  7 26  1  0  0  0
  7 29  1  0  0  0
  8  9  1  0  0  0
  8 22  1  0  0  0
  9 10  1  0  0  0
  9 27  2  0  0  0
 10 11  2  0  0  0
 10 15  1  0  0  0
 11 12  1  0  0  0
 11 96  1  0  0  0
 12 13  2  0  0  0
 12 97  1  0  0  0
 13 14  1  0  0  0
 13 31  1  0  0  0
 14 15  2  0  0  0
 14 98  1  0  0  0
 15 99  1  0  0  0
 16 17  2  0  0  0
 16 21  1  0  0  0
 16 31  1  0  0  0
 17 18  1  0  0  0
 17100  1  0  0  0
 18 19  2  0  0  0
 18101  1  0  0  0
 19 20  1  0  0  0
 19 24  1  0  0  0
 20 21  2  0  0  0
 20102  1  0  0  0
 21 23  1  0  0  0
 22 28  1  0  0  0
 22 32  2  0  0  0
 26 27  1  0  0  0
 28103  1  0  0  0
 28104  1  0  0  0
 29105  1  0  0  0
 29106  1  0  0  0
 33 34  1  0  0  0
 33 66  1  0  0  0
 33 70  2  0  0  0
 34 36  1  0  0  0
 34 59  1  0  0  0
 34107  1  0  0  0
 35 44  2  0  0  0
 35 45  1  0  0  0
 35 68  1  0  0  0
 36 56  1  0  0  0
 36108  1  0  0  0
 37 39  1  0  0  0
 37 47  1  0  0  0
 37 66  1  0  0  0
 37109  1  0  0  0
 38 43  2  0  0  0
 38 46  1  0  0  0
 38 47  1  0  0  0
 39 64  1  0  0  0
 39 67  2  0  0  0
 40 52  1  0  0  0
 40 53  2  0  0  0
 40 58  1  0  0  0
 41110  1  0  0  0
 41111  1  0  0  0
 41112  1  0  0  0
 41 48  1  0  0  0
 42 43  1  0  0  0
 42 66  1  0  0  0
 42113  1  0  0  0
 42114  1  0  0  0
 43 44  1  0  0  0
 44115  1  0  0  0
 45 46  2  0  0  0
 45116  1  0  0  0
 46117  1  0  0  0
 47118  1  0  0  0
 47119  1  0  0  0
 48 56  1  0  0  0
 48 65  1  0  0  0
 48120  1  0  0  0
 49 50  1  0  0  0
 49 53  1  0  0  0
 49 64  1  0  0  0
 49121  1  0  0  0
 50 51  1  0  0  0
 50122  1  0  0  0
 50123  1  0  0  0
 51 52  1  0  0  0
 51124  1  0  0  0
 51125  1  0  0  0
 52126  1  0  0  0
 52127  1  0  0  0
 53 54  1  0  0  0
 54 55  2  0  0  0
 54128  1  0  0  0
 55 57  1  0  0  0
 55129  1  0  0  0
 56 69  2  0  0  0
 57 58  2  0  0  0
 57130  1  0  0  0
 58131  1  0  0  0
 59 60  1  0  0  0
 59 61  1  0  0  0
 59 62  1  0  0  0
 60132  1  0  0  0
 60133  1  0  0  0
 60134  1  0  0  0
 61135  1  0  0  0
 61136  1  0  0  0
 61137  1  0  0  0
 62138  1  0  0  0
 62139  1  0  0  0
 62140  1  0  0  0
 63 65  1  0  0  0
 63141  1  0  0  0
 63142  1  0  0  0
 63143  1  0  0  0
 64144  1  0  0  0
 65145  1  0  0  0
 68 78  1  0  0  0
 71 72  2  0  0  0
 71 73  1  0  0  0
 71146  1  0  0  0
 72 85  1  0  0  0
 72147  1  0  0  0
 73 74  2  0  0  0
 73 76  1  0  0  0
 74 75  1  0  0  0
 74 77  1  0  0  0
 75 78  1  0  0  0
 75 85  2  0  0  0
 76148  1  0  0  0
 76149  1  0  0  0
 76150  1  0  0  0
 77 79  1  0  0  0
 77151  1  0  0  0
 77152  1  0  0  0
 78153  1  0  0  0
 78154  1  0  0  0
 79 80  1  0  0  0
 79155  1  0  0  0
 79156  1  0  0  0
 80 81  1  0  0  0
 80157  1  0  0  0
 80158  1  0  0  0
 81 82  1  0  0  0
 81159  1  0  0  0
 81160  1  0  0  0
 82 83  1  0  0  0
 82161  1  0  0  0
 82162  1  0  0  0
 83 84  1  0  0  0
 83163  1  0  0  0
 83164  1  0  0  0
 84 86  1  0  0  0
 84165  1  0  0  0
 84166  1  0  0  0
 86167  1  0  0  0
M  ISO  4   1 100  68 101  78 101  86 100
M  END
> <chiral flag>
0

> <version>
0

> <s_m_source_file>
/data/baiqing/PycharmProjects/Reinvent-master-3.2/result/LINK_invent/BTK/process_docking_weight1_custom_sum_contain_oxygen_bond_distance_aromatic_linkinvent_7_9_3/rearranged_h_0032.sdf

> <i_m_source_file_index>
50

> <r_mmod_Potential_Energy-OPLS-2005>
-189.563980102539

> <r_mmod_Stretch_Energy-OPLS-2005>
34.3942451477051

> <r_mmod_Bend_Energy-OPLS-2005>
100.125045776367

> <r_mmod_Torsional_Energy-OPLS-2005>
189.933090209961

> <r_mmod_Improper_Torsional_Energy-OPLS-2005>
2.09194707870483

> <r_mmod_Van_der_Waal_Energy-OPLS-2005>
164.564224243164

> <r_mmod_Electrostatic_Energy-OPLS-2005>
-468.652862548828

> <r_mmod_Solvation_Energy-OPLS-2005>
-220.863784790039

> <b_mmod_Minimization_Converged-OPLS-2005>
0

> <r_mmod_RMS_Derivative-OPLS-2005>
4.00532102584839

$$$$
50
                    3D
 Structure written by MMmdl.
147155  0  0  1  0            999 V2000
  -30.4791  -15.1826   20.3806 C   0  0  0  0  0  0
  -30.4374  -12.7511   19.5174 C   0  0  0  0  0  0
  -29.5304  -12.5597   18.2777 C   0  0  0  0  0  0
  -28.0746  -12.3017   18.7043 C   0  0  0  0  0  0
  -27.6147  -13.2695   19.8243 C   0  0  2  0  0  0
  -28.6521  -13.4144   20.9578 C   0  0  0  0  0  0
  -25.2403  -13.8242   20.5744 C   0  0  0  0  0  0
  -24.1747  -13.0438   20.9255 C   0  0  0  0  0  0
  -24.6397  -11.6933   20.8762 C   0  0  0  0  0  0
  -23.9090  -10.4292   21.0408 C   0  0  0  0  0  0
  -24.3634   -9.4206   21.9188 C   0  0  0  0  0  0
  -23.6302   -8.2243   22.0758 C   0  0  0  0  0  0
  -22.4284   -8.0283   21.3547 C   0  0  0  0  0  0
  -21.9926   -9.0258   20.4648 C   0  0  0  0  0  0
  -22.7260  -10.2135   20.3057 C   0  0  0  0  0  0
  -21.6855   -6.0739   22.5280 C   0  0  0  0  0  0
  -21.4015   -6.5641   23.8214 C   0  0  0  0  0  0
  -21.3660   -5.6793   24.9176 C   0  0  0  0  0  0
  -21.6043   -4.3056   24.7224 C   0  0  0  0  0  0
  -21.8818   -3.8149   23.4344 C   0  0  0  0  0  0
  -21.9192   -4.6966   22.3402 C   0  0  0  0  0  0
  -22.7764  -13.5191   21.1900 C   0  0  0  0  0  0
  -22.1661   -4.2151   21.0980 F   0  0  0  0  0  0
  -21.5629   -3.4540   25.7737 F   0  0  0  0  0  0
  -29.8946  -13.8935   20.3334 N   0  0  0  0  0  0
  -26.2830  -12.9510   20.3224 N   0  0  0  0  0  0
  -25.9332  -11.6621   20.5725 N   0  0  0  0  0  0
  -22.0421  -12.8175   22.0454 N   0  0  0  0  0  0
  -25.4042  -15.1976   20.4184 N   0  0  0  0  0  0
  -31.6990  -15.1812   20.1694 O   0  0  0  0  0  0
  -21.6642   -6.8883   21.4241 O   0  0  0  0  0  0
  -22.3442  -14.5490   20.6735 O   0  0  0  0  0  0
  -24.6595  -31.8284   23.1757 C   0  0  0  0  0  0
  -25.9295  -32.4612   23.8203 C   0  0  1  0  0  0
  -27.2147  -26.9745   20.1720 C   0  0  0  0  0  0
  -25.5981  -33.8427   24.2111 N   0  0  0  0  0  0
  -23.4715  -30.4438   21.5242 C   0  0  2  0  0  0
  -24.9239  -28.8441   20.1110 C   0  0  0  0  0  0
  -22.7647  -29.4473   22.4798 C   0  0  0  0  0  0
  -18.0318  -28.1411   22.8470 C   0  0  0  0  0  0
  -24.1495  -36.7220   23.2648 C   0  0  0  0  0  0
  -26.0395  -30.6502   21.3994 C   0  0  0  0  0  0
  -26.1079  -29.2458   20.7421 C   0  0  0  0  0  0
  -27.2506  -28.3313   20.7507 C   0  0  0  0  0  0
  -26.0020  -26.7206   19.4902 C   0  0  0  0  0  0
  -24.8937  -27.6003   19.4655 C   0  0  0  0  0  0
  -23.7081  -29.7659   20.1479 C   0  0  0  0  0  0
  -25.4133  -36.2983   24.0304 C   0  0  1  0  0  0
  -20.5944  -28.3751   23.1196 C   0  0  2  0  0  0
  -20.6801  -26.9436   22.5403 C   0  0  0  0  0  0
  -19.5774  -26.6382   21.5215 C   0  0  0  0  0  0
  -18.1955  -26.7946   22.1623 C   0  0  0  0  0  0
  -19.1580  -28.8899   23.2823 C   0  0  0  0  0  0
  -18.9492  -30.1493   23.8853 C   0  0  0  0  0  0
  -17.6486  -30.6600   24.0557 C   0  0  0  0  0  0
  -25.9094  -34.9361   23.5022 C   0  0  0  0  0  0
  -16.5377  -29.9088   23.6343 C   0  0  0  0  0  0
  -16.7301  -28.6509   23.0359 C   0  0  0  0  0  0
  -26.4558  -31.6538   25.0708 C   0  0  0  0  0  0
  -25.3700  -31.3782   26.1376 C   0  0  0  0  0  0
  -27.0444  -30.2912   24.6409 C   0  0  0  0  0  0
  -27.6065  -32.4333   25.7500 C   0  0  0  0  0  0
  -27.5566  -37.1774   24.8471 C   0  0  0  0  0  0
  -21.4320  -29.3054   22.3547 N   0  0  0  0  0  0
  -26.4286  -37.3710   23.9398 N   0  0  0  0  0  0
  -24.7446  -30.9994   22.0870 N   0  0  0  0  0  0
  -23.4215  -28.8034   23.3017 O   0  0  0  0  0  0
  -28.2052  -25.8717   20.2521 O   0  0  0  0  0  0
  -26.5691  -34.8886   22.4611 O   0  0  0  0  0  0
  -23.5672  -32.1229   23.6875 O   0  0  0  0  0  0
  -29.6797  -20.5790   19.2606 C   0  0  0  0  0  0
  -28.3352  -21.7885   21.2918 C   0  0  0  0  0  0
  -29.4394  -19.6058   20.3190 C   0  0  0  0  0  0
  -28.5770  -22.7597   20.2283 C   0  0  0  0  0  0
  -28.7346  -20.3560   21.3506 C   0  0  0  0  0  0
  -29.2830  -22.0075   19.2009 C   0  0  0  0  0  0
  -30.1803  -18.0349   20.3942 C   0  0  0  0  0  0
  -27.8087  -24.3078   20.0587 C   0  0  0  0  0  0
  -29.7392  -16.4511   20.4584 N   0  0  0  0  0  0
  -28.3440  -19.5028   22.7987 Cl  0  0  0  0  0  0
  -29.6738  -22.8475   17.7439 Cl  0  0  0  0  0  0
  -31.4610  -12.9385   19.1904 H   0  0  0  0  0  0
  -30.4827  -11.8362   20.1105 H   0  0  0  0  0  0
  -29.8939  -11.7350   17.6632 H   0  0  0  0  0  0
  -29.5762  -13.4524   17.6522 H   0  0  0  0  0  0
  -28.0154  -11.2734   19.0633 H   0  0  0  0  0  0
  -27.4065  -12.3641   17.8445 H   0  0  0  0  0  0
  -27.5398  -14.2438   19.3404 H   0  0  0  0  0  0
  -28.8011  -12.4721   21.4872 H   0  0  0  0  0  0
  -28.3083  -14.1382   21.6987 H   0  0  0  0  0  0
  -25.2778   -9.5680   22.4767 H   0  0  0  0  0  0
  -24.0008   -7.4633   22.7477 H   0  0  0  0  0  0
  -21.0859   -8.8777   19.8952 H   0  0  0  0  0  0
  -22.3718  -10.9674   19.6165 H   0  0  0  0  0  0
  -21.2008   -7.6151   23.9717 H   0  0  0  0  0  0
  -21.1483   -6.0525   25.9079 H   0  0  0  0  0  0
  -22.0595   -2.7610   23.2843 H   0  0  0  0  0  0
  -22.4048  -11.9842   22.4845 H   0  0  0  0  0  0
  -21.1033  -13.1183   22.2652 H   0  0  0  0  0  0
  -24.6352  -15.8483   20.5365 H   0  0  0  0  0  0
  -26.2457  -15.6409   20.0744 H   0  0  0  0  0  0
  -26.7357  -32.5161   23.0914 H   0  0  0  0  0  0
  -25.0094  -33.9518   25.0236 H   0  0  0  0  0  0
  -22.7830  -31.2751   21.3583 H   0  0  0  0  0  0
  -23.3757  -35.9553   23.3305 H   0  0  0  0  0  0
  -24.3574  -36.8859   22.2063 H   0  0  0  0  0  0
  -23.7255  -37.6414   23.6697 H   0  0  0  0  0  0
  -26.2149  -31.3940   20.6213 H   0  0  0  0  0  0
  -26.9023  -30.7052   22.0516 H   0  0  0  0  0  0
  -28.1457  -28.6350   21.2749 H   0  0  0  0  0  0
  -25.8632  -25.7756   18.9889 H   0  0  0  0  0  0
  -23.9945  -27.2879   18.9529 H   0  0  0  0  0  0
  -23.8600  -30.5373   19.3918 H   0  0  0  0  0  0
  -22.8183  -29.2192   19.8301 H   0  0  0  0  0  0
  -25.1334  -36.1790   25.0798 H   0  0  0  0  0  0
  -21.0037  -28.3351   24.1318 H   0  0  0  0  0  0
  -20.5688  -26.2367   23.3641 H   0  0  0  0  0  0
  -21.6662  -26.7421   22.1206 H   0  0  0  0  0  0
  -19.6931  -25.6282   21.1270 H   0  0  0  0  0  0
  -19.6708  -27.3170   20.6728 H   0  0  0  0  0  0
  -17.4224  -26.6689   21.4025 H   0  0  0  0  0  0
  -18.0349  -26.0103   22.9033 H   0  0  0  0  0  0
  -19.7968  -30.7326   24.2199 H   0  0  0  0  0  0
  -17.5037  -31.6275   24.5170 H   0  0  0  0  0  0
  -15.5375  -30.2975   23.7700 H   0  0  0  0  0  0
  -15.8702  -28.0817   22.7094 H   0  0  0  0  0  0
  -24.5893  -30.7111   25.7696 H   0  0  0  0  0  0
  -24.8876  -32.2983   26.4689 H   0  0  0  0  0  0
  -25.7952  -30.9027   27.0225 H   0  0  0  0  0  0
  -26.3100  -29.6603   24.1391 H   0  0  0  0  0  0
  -27.3965  -29.7258   25.5048 H   0  0  0  0  0  0
  -27.9047  -30.4106   23.9820 H   0  0  0  0  0  0
  -27.2648  -33.3679   26.1965 H   0  0  0  0  0  0
  -28.3938  -32.6821   25.0368 H   0  0  0  0  0  0
  -28.0667  -31.8529   26.5508 H   0  0  0  0  0  0
  -28.2595  -38.0057   24.7482 H   0  0  0  0  0  0
  -28.1047  -36.2584   24.6345 H   0  0  0  0  0  0
  -27.2277  -37.1473   25.8873 H   0  0  0  0  0  0
  -20.9562  -29.8746   21.6687 H   0  0  0  0  0  0
  -26.0136  -38.2774   24.1389 H   0  0  0  0  0  0
  -30.2365  -20.2145   18.4094 H   0  0  0  0  0  0
  -27.7681  -22.1530   22.1355 H   0  0  0  0  0  0
  -30.8293  -18.1294   21.2654 H   0  0  0  0  0  0
  -30.8813  -18.0540   19.5589 H   0  0  0  0  0  0
  -26.9078  -24.1981   20.6630 H   0  0  0  0  0  0
  -27.4468  -24.2647   19.0323 H   0  0  0  0  0  0
  -28.7457  -16.3168   20.5722 H   0  0  0  0  0  0
  1 25  1  0  0  0
  1 30  2  0  0  0
  1 79  1  0  0  0
  2  3  1  0  0  0
  2 25  1  0  0  0
  2 82  1  0  0  0
  2 83  1  0  0  0
  3  4  1  0  0  0
  3 84  1  0  0  0
  3 85  1  0  0  0
  4  5  1  0  0  0
  4 86  1  0  0  0
  4 87  1  0  0  0
  5  6  1  0  0  0
  5 26  1  0  0  0
  5 88  1  0  0  0
  6 25  1  0  0  0
  6 89  1  0  0  0
  6 90  1  0  0  0
  7  8  2  0  0  0
  7 26  1  0  0  0
  7 29  1  0  0  0
  8  9  1  0  0  0
  8 22  1  0  0  0
  9 10  1  0  0  0
  9 27  2  0  0  0
 10 11  2  0  0  0
 10 15  1  0  0  0
 11 12  1  0  0  0
 11 91  1  0  0  0
 12 13  2  0  0  0
 12 92  1  0  0  0
 13 14  1  0  0  0
 13 31  1  0  0  0
 14 15  2  0  0  0
 14 93  1  0  0  0
 15 94  1  0  0  0
 16 17  2  0  0  0
 16 21  1  0  0  0
 16 31  1  0  0  0
 17 18  1  0  0  0
 17 95  1  0  0  0
 18 19  2  0  0  0
 18 96  1  0  0  0
 19 20  1  0  0  0
 19 24  1  0  0  0
 20 21  2  0  0  0
 20 97  1  0  0  0
 21 23  1  0  0  0
 22 28  1  0  0  0
 22 32  2  0  0  0
 26 27  1  0  0  0
 28 98  1  0  0  0
 28 99  1  0  0  0
 29100  1  0  0  0
 29101  1  0  0  0
 33 34  1  0  0  0
 33 66  1  0  0  0
 33 70  2  0  0  0
 34 36  1  0  0  0
 34 59  1  0  0  0
 34102  1  0  0  0
 35 44  2  0  0  0
 35 45  1  0  0  0
 35 68  1  0  0  0
 36 56  1  0  0  0
 36103  1  0  0  0
 37 39  1  0  0  0
 37 47  1  0  0  0
 37 66  1  0  0  0
 37104  1  0  0  0
 38 43  2  0  0  0
 38 46  1  0  0  0
 38 47  1  0  0  0
 39 64  1  0  0  0
 39 67  2  0  0  0
 40 52  1  0  0  0
 40 53  2  0  0  0
 40 58  1  0  0  0
 41105  1  0  0  0
 41106  1  0  0  0
 41107  1  0  0  0
 41 48  1  0  0  0
 42 43  1  0  0  0
 42 66  1  0  0  0
 42108  1  0  0  0
 42109  1  0  0  0
 43 44  1  0  0  0
 44110  1  0  0  0
 45 46  2  0  0  0
 45111  1  0  0  0
 46112  1  0  0  0
 47113  1  0  0  0
 47114  1  0  0  0
 48 56  1  0  0  0
 48 65  1  0  0  0
 48115  1  0  0  0
 49 50  1  0  0  0
 49 53  1  0  0  0
 49 64  1  0  0  0
 49116  1  0  0  0
 50 51  1  0  0  0
 50117  1  0  0  0
 50118  1  0  0  0
 51 52  1  0  0  0
 51119  1  0  0  0
 51120  1  0  0  0
 52121  1  0  0  0
 52122  1  0  0  0
 53 54  1  0  0  0
 54 55  2  0  0  0
 54123  1  0  0  0
 55 57  1  0  0  0
 55124  1  0  0  0
 56 69  2  0  0  0
 57 58  2  0  0  0
 57125  1  0  0  0
 58126  1  0  0  0
 59 60  1  0  0  0
 59 61  1  0  0  0
 59 62  1  0  0  0
 60127  1  0  0  0
 60128  1  0  0  0
 60129  1  0  0  0
 61130  1  0  0  0
 61131  1  0  0  0
 61132  1  0  0  0
 62133  1  0  0  0
 62134  1  0  0  0
 62135  1  0  0  0
 63 65  1  0  0  0
 63136  1  0  0  0
 63137  1  0  0  0
 63138  1  0  0  0
 64139  1  0  0  0
 65140  1  0  0  0
 68 78  1  0  0  0
 71 73  2  0  0  0
 71 76  1  0  0  0
 71141  1  0  0  0
 72 74  1  0  0  0
 72 75  2  0  0  0
 72142  1  0  0  0
 73 75  1  0  0  0
 73 77  1  0  0  0
 74 76  2  0  0  0
 74 78  1  0  0  0
 75 80  1  0  0  0
 76 81  1  0  0  0
 77 79  1  0  0  0
 77143  1  0  0  0
 77144  1  0  0  0
 78145  1  0  0  0
 78146  1  0  0  0
 79147  1  0  0  0
M  ISO  4   1 100  68 101  78 101  79 100
M  END
> <chiral flag>
0

> <version>
0

> <s_m_source_file>
/data/baiqing/PycharmProjects/Reinvent-master-3.2/result/LINK_invent/BTK/process_docking_weight1_custom_sum_contain_oxygen_bond_distance_aromatic_linkinvent_7_9_3/rearranged_h_0032.sdf

> <i_m_source_file_index>
51

> <r_mmod_Potential_Energy-OPLS-2005>
1006.21594238281

> <r_mmod_Stretch_Energy-OPLS-2005>
445.494445800781

> <r_mmod_Bend_Energy-OPLS-2005>
410.511474609375

> <r_mmod_Torsional_Energy-OPLS-2005>
227.678451538086

> <r_mmod_Improper_Torsional_Energy-OPLS-2005>
9.72424793243408

> <r_mmod_Van_der_Waal_Energy-OPLS-2005>
128.632690429688

> <r_mmod_Electrostatic_Energy-OPLS-2005>
-387.786926269531

> <r_mmod_Solvation_Energy-OPLS-2005>
-213.734100341797

> <b_mmod_Minimization_Converged-OPLS-2005>
0

> <r_mmod_RMS_Derivative-OPLS-2005>
0.687332689762115

$$$$
51
                    3D
 Structure written by MMmdl.
159167  0  0  1  0            999 V2000
  -30.5851  -14.7117   20.4794 C   0  0  0  0  0  0
  -30.4382  -12.4345   19.4383 C   0  0  0  0  0  0
  -29.4990  -12.4881   18.2136 C   0  0  0  0  0  0
  -28.0304  -12.2951   18.6427 C   0  0  0  0  0  0
  -27.6360  -13.2112   19.8343 C   0  0  2  0  0  0
  -28.6829  -13.1327   20.9638 C   0  0  0  0  0  0
  -25.2531  -13.8162   20.5678 C   0  0  0  0  0  0
  -24.1819  -13.0455   20.9168 C   0  0  0  0  0  0
  -24.6357  -11.6900   20.8726 C   0  0  0  0  0  0
  -23.9048  -10.4296   21.0387 C   0  0  0  0  0  0
  -24.3603   -9.4218   21.9177 C   0  0  0  0  0  0
  -23.6287   -8.2250   22.0771 C   0  0  0  0  0  0
  -22.4266   -8.0282   21.3551 C   0  0  0  0  0  0
  -21.9884   -9.0253   20.4653 C   0  0  0  0  0  0
  -22.7214  -10.2124   20.3047 C   0  0  0  0  0  0
  -21.6831   -6.0754   22.5294 C   0  0  0  0  0  0
  -21.4024   -6.5669   23.8240 C   0  0  0  0  0  0
  -21.3651   -5.6808   24.9188 C   0  0  0  0  0  0
  -21.6036   -4.3071   24.7220 C   0  0  0  0  0  0
  -21.8819   -3.8172   23.4337 C   0  0  0  0  0  0
  -21.9199   -4.6993   22.3406 C   0  0  0  0  0  0
  -22.7837  -13.5243   21.1847 C   0  0  0  0  0  0
  -22.1663   -4.2201   21.0968 F   0  0  0  0  0  0
  -21.5614   -3.4536   25.7708 F   0  0  0  0  0  0
  -29.9808  -13.4831   20.3710 N   0  0  0  0  0  0
  -26.2916  -12.9327   20.3199 N   0  0  0  0  0  0
  -25.9271  -11.6491   20.5712 N   0  0  0  0  0  0
  -22.0452  -12.8252   22.0366 N   0  0  0  0  0  0
  -25.4280  -15.1903   20.4140 N   0  0  0  0  0  0
  -31.7958  -14.8372   20.2833 O   0  0  0  0  0  0
  -21.6632   -6.8864   21.4240 O   0  0  0  0  0  0
  -22.3542  -14.5550   20.6664 O   0  0  0  0  0  0
  -24.6245  -31.8608   23.2073 C   0  0  0  0  0  0
  -25.9079  -32.4791   23.8426 C   0  0  1  0  0  0
  -27.2179  -27.2958   20.1357 C   0  0  0  0  0  0
  -25.5918  -33.8609   24.2355 N   0  0  0  0  0  0
  -23.4233  -30.4877   21.5409 C   0  0  2  0  0  0
  -24.8727  -28.9406   20.1063 C   0  0  0  0  0  0
  -22.7509  -29.4608   22.4833 C   0  0  0  0  0  0
  -18.0287  -28.1458   22.8353 C   0  0  0  0  0  0
  -24.1473  -36.7292   23.2644 C   0  0  0  0  0  0
  -25.9659  -30.7808   21.3857 C   0  0  0  0  0  0
  -26.0389  -29.4084   20.7242 C   0  0  0  0  0  0
  -27.2166  -28.5991   20.7283 C   0  0  0  0  0  0
  -26.0254  -26.8920   19.4878 C   0  0  0  0  0  0
  -24.8696  -27.6874   19.4764 C   0  0  0  0  0  0
  -23.6546  -29.8404   20.1491 C   0  0  0  0  0  0
  -25.4109  -36.3113   24.0335 C   0  0  1  0  0  0
  -20.5876  -28.3754   23.1190 C   0  0  2  0  0  0
  -20.6762  -26.9467   22.5352 C   0  0  0  0  0  0
  -19.5774  -26.6402   21.5130 C   0  0  0  0  0  0
  -18.1949  -26.7975   22.1536 C   0  0  0  0  0  0
  -19.1543  -28.8920   23.2744 C   0  0  0  0  0  0
  -18.9500  -30.1508   23.8778 C   0  0  0  0  0  0
  -17.6516  -30.6614   24.0567 C   0  0  0  0  0  0
  -25.9035  -34.9471   23.5157 C   0  0  0  0  0  0
  -16.5386  -29.9142   23.6330 C   0  0  0  0  0  0
  -16.7271  -28.6608   23.0212 C   0  0  0  0  0  0
  -26.4471  -31.6621   25.0807 C   0  0  0  0  0  0
  -25.3734  -31.3725   26.1574 C   0  0  0  0  0  0
  -27.0341  -30.3073   24.6281 C   0  0  0  0  0  0
  -27.6092  -32.4300   25.7543 C   0  0  0  0  0  0
  -27.5558  -37.1811   24.8470 C   0  0  0  0  0  0
  -21.4218  -29.3124   22.3633 N   0  0  0  0  0  0
  -26.4254  -37.3822   23.9445 N   0  0  0  0  0  0
  -24.6896  -31.0620   22.1020 N   0  0  0  0  0  0
  -23.4228  -28.8068   23.2863 O   0  0  0  0  0  0
  -28.3093  -26.4093   20.2061 O   0  0  0  0  0  0
  -26.5560  -34.8909   22.4693 O   0  0  0  0  0  0
  -23.5391  -32.1388   23.7372 O   0  0  0  0  0  0
  -32.0456  -20.1524   20.8487 C   0  0  0  0  0  0
  -29.3291  -19.6722   20.7321 C   0  0  0  0  0  0
  -31.1760  -21.2514   20.7149 C   0  0  0  0  0  0
  -31.6049  -18.8197   20.9166 C   0  0  0  0  0  0
  -29.7656  -21.0602   20.6244 C   0  0  0  0  0  0
  -30.2187  -18.5299   20.9006 C   0  0  0  0  0  0
  -31.8597  -22.6066   20.7158 C   0  0  0  0  0  0
  -32.6902  -17.7648   21.0678 C   0  0  0  0  0  0
  -28.7305  -22.2714   20.4378 C   0  0  0  0  0  0
  -29.7320  -17.0828   21.3485 C   0  0  0  0  0  0
  -29.1206  -23.8447   20.4305 C   0  0  0  0  0  0
  -28.0208  -24.9482   20.0927 C   0  0  0  0  0  0
  -29.7411  -15.8026   20.5330 N   0  0  0  0  0  0
  -31.4741  -12.5826   19.1295 H   0  0  0  0  0  0
  -30.4049  -11.4509   19.9125 H   0  0  0  0  0  0
  -29.7770  -11.7211   17.4907 H   0  0  0  0  0  0
  -29.6125  -13.4451   17.7001 H   0  0  0  0  0  0
  -27.9018  -11.2480   18.9304 H   0  0  0  0  0  0
  -27.3611  -12.4627   17.7987 H   0  0  0  0  0  0
  -27.6320  -14.2272   19.4432 H   0  0  0  0  0  0
  -28.7125  -12.1314   21.3984 H   0  0  0  0  0  0
  -28.4211  -13.8090   21.7788 H   0  0  0  0  0  0
  -25.2728   -9.5731   22.4757 H   0  0  0  0  0  0
  -24.0021   -7.4635   22.7486 H   0  0  0  0  0  0
  -21.0832   -8.8753   19.8921 H   0  0  0  0  0  0
  -22.3678  -10.9663   19.6163 H   0  0  0  0  0  0
  -21.2023   -7.6177   23.9768 H   0  0  0  0  0  0
  -21.1462   -6.0514   25.9095 H   0  0  0  0  0  0
  -22.0593   -2.7638   23.2810 H   0  0  0  0  0  0
  -22.4041  -11.9930   22.4801 H   0  0  0  0  0  0
  -21.1069  -13.1322   22.2521 H   0  0  0  0  0  0
  -24.6634  -15.8429   20.5483 H   0  0  0  0  0  0
  -26.2834  -15.6356   20.1134 H   0  0  0  0  0  0
  -26.7117  -32.5462   23.1135 H   0  0  0  0  0  0
  -25.0198  -33.9792   25.0595 H   0  0  0  0  0  0
  -22.7087  -31.3008   21.3967 H   0  0  0  0  0  0
  -23.3747  -35.9608   23.3320 H   0  0  0  0  0  0
  -24.3557  -36.8895   22.2053 H   0  0  0  0  0  0
  -23.7180  -37.6485   23.6644 H   0  0  0  0  0  0
  -26.0954  -31.5364   20.6116 H   0  0  0  0  0  0
  -26.8461  -30.8306   22.0129 H   0  0  0  0  0  0
  -28.0998  -28.9589   21.2362 H   0  0  0  0  0  0
  -25.9512  -25.9337   18.9960 H   0  0  0  0  0  0
  -23.9805  -27.3193   18.9826 H   0  0  0  0  0  0
  -23.8208  -30.6331   19.4159 H   0  0  0  0  0  0
  -22.7691  -29.3054   19.8035 H   0  0  0  0  0  0
  -25.1259  -36.1971   25.0810 H   0  0  0  0  0  0
  -20.9862  -28.3322   24.1338 H   0  0  0  0  0  0
  -20.5588  -26.2392   23.3556 H   0  0  0  0  0  0
  -21.6657  -26.7447   22.1210 H   0  0  0  0  0  0
  -19.6963  -25.6292   21.1211 H   0  0  0  0  0  0
  -19.6754  -27.3147   20.6599 H   0  0  0  0  0  0
  -17.4189  -26.6538   21.3979 H   0  0  0  0  0  0
  -18.0451  -26.0219   22.9050 H   0  0  0  0  0  0
  -19.8023  -30.7323   24.2054 H   0  0  0  0  0  0
  -17.5128  -31.6259   24.5275 H   0  0  0  0  0  0
  -15.5411  -30.3023   23.7821 H   0  0  0  0  0  0
  -15.8636  -28.1012   22.6834 H   0  0  0  0  0  0
  -24.5967  -30.6982   25.7930 H   0  0  0  0  0  0
  -24.8832  -32.2853   26.4995 H   0  0  0  0  0  0
  -25.8131  -30.8964   27.0358 H   0  0  0  0  0  0
  -26.2962  -29.6812   24.1251 H   0  0  0  0  0  0
  -27.4023  -29.7333   25.4788 H   0  0  0  0  0  0
  -27.8831  -30.4417   23.9560 H   0  0  0  0  0  0
  -27.2837  -33.3657   26.2105 H   0  0  0  0  0  0
  -28.3921  -32.6756   25.0346 H   0  0  0  0  0  0
  -28.0734  -31.8399   26.5448 H   0  0  0  0  0  0
  -28.2579  -38.0106   24.7504 H   0  0  0  0  0  0
  -28.1031  -36.2627   24.6288 H   0  0  0  0  0  0
  -27.2252  -37.1428   25.8863 H   0  0  0  0  0  0
  -20.9393  -29.9090   21.7048 H   0  0  0  0  0  0
  -26.0135  -38.2885   24.1534 H   0  0  0  0  0  0
  -33.1059  -20.3418   20.9370 H   0  0  0  0  0  0
  -28.2626  -19.4779   20.7390 H   0  0  0  0  0  0
  -31.5021  -23.2139   21.5413 H   0  0  0  0  0  0
  -31.7255  -23.1061   19.7588 H   0  0  0  0  0  0
  -32.9368  -22.5273   20.8596 H   0  0  0  0  0  0
  -33.6039  -18.2158   21.4589 H   0  0  0  0  0  0
  -32.9461  -17.3372   20.0970 H   0  0  0  0  0  0
  -32.4290  -16.9623   21.7524 H   0  0  0  0  0  0
  -27.9673  -22.1448   21.2057 H   0  0  0  0  0  0
  -28.2129  -22.0843   19.5002 H   0  0  0  0  0  0
  -28.6990  -17.2044   21.6754 H   0  0  0  0  0  0
  -30.2557  -16.8610   22.2768 H   0  0  0  0  0  0
  -29.8864  -24.0299   19.6861 H   0  0  0  0  0  0
  -29.5259  -24.0987   21.4068 H   0  0  0  0  0  0
  -27.1551  -24.7138   20.7145 H   0  0  0  0  0  0
  -27.7315  -24.7741   19.0559 H   0  0  0  0  0  0
  -28.8033  -15.5277   20.2821 H   0  0  0  0  0  0
  1 25  1  0  0  0
  1 30  2  0  0  0
  1 83  1  0  0  0
  2  3  1  0  0  0
  2 25  1  0  0  0
  2 84  1  0  0  0
  2 85  1  0  0  0
  3  4  1  0  0  0
  3 86  1  0  0  0
  3 87  1  0  0  0
  4  5  1  0  0  0
  4 88  1  0  0  0
  4 89  1  0  0  0
  5  6  1  0  0  0
  5 26  1  0  0  0
  5 90  1  0  0  0
  6 25  1  0  0  0
  6 91  1  0  0  0
  6 92  1  0  0  0
  7  8  2  0  0  0
  7 26  1  0  0  0
  7 29  1  0  0  0
  8  9  1  0  0  0
  8 22  1  0  0  0
  9 10  1  0  0  0
  9 27  2  0  0  0
 10 11  2  0  0  0
 10 15  1  0  0  0
 11 12  1  0  0  0
 11 93  1  0  0  0
 12 13  2  0  0  0
 12 94  1  0  0  0
 13 14  1  0  0  0
 13 31  1  0  0  0
 14 15  2  0  0  0
 14 95  1  0  0  0
 15 96  1  0  0  0
 16 17  2  0  0  0
 16 21  1  0  0  0
 16 31  1  0  0  0
 17 18  1  0  0  0
 17 97  1  0  0  0
 18 19  2  0  0  0
 18 98  1  0  0  0
 19 20  1  0  0  0
 19 24  1  0  0  0
 20 21  2  0  0  0
 20 99  1  0  0  0
 21 23  1  0  0  0
 22 28  1  0  0  0
 22 32  2  0  0  0
 26 27  1  0  0  0
 28100  1  0  0  0
 28101  1  0  0  0
 29102  1  0  0  0
 29103  1  0  0  0
 33 34  1  0  0  0
 33 66  1  0  0  0
 33 70  2  0  0  0
 34 36  1  0  0  0
 34 59  1  0  0  0
 34104  1  0  0  0
 35 44  2  0  0  0
 35 45  1  0  0  0
 35 68  1  0  0  0
 36 56  1  0  0  0
 36105  1  0  0  0
 37 39  1  0  0  0
 37 47  1  0  0  0
 37 66  1  0  0  0
 37106  1  0  0  0
 38 43  2  0  0  0
 38 46  1  0  0  0
 38 47  1  0  0  0
 39 64  1  0  0  0
 39 67  2  0  0  0
 40 52  1  0  0  0
 40 53  2  0  0  0
 40 58  1  0  0  0
 41107  1  0  0  0
 41108  1  0  0  0
 41109  1  0  0  0
 41 48  1  0  0  0
 42 43  1  0  0  0
 42 66  1  0  0  0
 42110  1  0  0  0
 42111  1  0  0  0
 43 44  1  0  0  0
 44112  1  0  0  0
 45 46  2  0  0  0
 45113  1  0  0  0
 46114  1  0  0  0
 47115  1  0  0  0
 47116  1  0  0  0
 48 56  1  0  0  0
 48 65  1  0  0  0
 48117  1  0  0  0
 49 50  1  0  0  0
 49 53  1  0  0  0
 49 64  1  0  0  0
 49118  1  0  0  0
 50 51  1  0  0  0
 50119  1  0  0  0
 50120  1  0  0  0
 51 52  1  0  0  0
 51121  1  0  0  0
 51122  1  0  0  0
 52123  1  0  0  0
 52124  1  0  0  0
 53 54  1  0  0  0
 54 55  2  0  0  0
 54125  1  0  0  0
 55 57  1  0  0  0
 55126  1  0  0  0
 56 69  2  0  0  0
 57 58  2  0  0  0
 57127  1  0  0  0
 58128  1  0  0  0
 59 60  1  0  0  0
 59 61  1  0  0  0
 59 62  1  0  0  0
 60129  1  0  0  0
 60130  1  0  0  0
 60131  1  0  0  0
 61132  1  0  0  0
 61133  1  0  0  0
 61134  1  0  0  0
 62135  1  0  0  0
 62136  1  0  0  0
 62137  1  0  0  0
 63 65  1  0  0  0
 63138  1  0  0  0
 63139  1  0  0  0
 63140  1  0  0  0
 64141  1  0  0  0
 65142  1  0  0  0
 68 82  1  0  0  0
 71 73  2  0  0  0
 71 74  1  0  0  0
 71143  1  0  0  0
 72 75  2  0  0  0
 72 76  1  0  0  0
 72144  1  0  0  0
 73 75  1  0  0  0
 73 77  1  0  0  0
 74 76  2  0  0  0
 74 78  1  0  0  0
 75 79  1  0  0  0
 76 80  1  0  0  0
 77145  1  0  0  0
 77146  1  0  0  0
 77147  1  0  0  0
 78148  1  0  0  0
 78149  1  0  0  0
 78150  1  0  0  0
 79 81  1  0  0  0
 79151  1  0  0  0
 79152  1  0  0  0
 80 83  1  0  0  0
 80153  1  0  0  0
 80154  1  0  0  0
 81 82  1  0  0  0
 81155  1  0  0  0
 81156  1  0  0  0
 82157  1  0  0  0
 82158  1  0  0  0
 83159  1  0  0  0
M  ISO  4   1 100  68 101  82 101  83 100
M  END
> <chiral flag>
0

> <version>
0

> <s_m_source_file>
/data/baiqing/PycharmProjects/Reinvent-master-3.2/result/LINK_invent/BTK/process_docking_weight1_custom_sum_contain_oxygen_bond_distance_aromatic_linkinvent_7_9_3/rearranged_h_0032.sdf

> <i_m_source_file_index>
52

> <r_mmod_Potential_Energy-OPLS-2005>
150.177581787109

> <r_mmod_Stretch_Energy-OPLS-2005>
109.86124420166

> <r_mmod_Bend_Energy-OPLS-2005>
189.168228149414

> <r_mmod_Torsional_Energy-OPLS-2005>
238.478240966797

> <r_mmod_Improper_Torsional_Energy-OPLS-2005>
9.89785003662109

> <r_mmod_Van_der_Waal_Energy-OPLS-2005>
152.182891845703

> <r_mmod_Electrostatic_Energy-OPLS-2005>
-415.654022216797

> <r_mmod_Solvation_Energy-OPLS-2005>
-212.275283813477

> <b_mmod_Minimization_Converged-OPLS-2005>
0

> <r_mmod_RMS_Derivative-OPLS-2005>
6.22225046157837

$$$$
52
                    3D
 Structure written by MMmdl.
188196  0  0  1  0            999 V2000
  -30.7479  -14.3796   20.6401 C   0  0  0  0  0  0
  -30.4148  -12.2773   19.4016 C   0  0  0  0  0  0
  -29.4869  -12.5207   18.1961 C   0  0  0  0  0  0
  -28.0086  -12.3844   18.6097 C   0  0  0  0  0  0
  -27.6665  -13.2034   19.8829 C   0  0  2  0  0  0
  -28.7046  -12.9426   20.9972 C   0  0  0  0  0  0
  -25.2601  -13.8160   20.5676 C   0  0  0  0  0  0
  -24.1845  -13.0439   20.9161 C   0  0  0  0  0  0
  -24.6395  -11.6903   20.8725 C   0  0  0  0  0  0
  -23.9059  -10.4291   21.0398 C   0  0  0  0  0  0
  -24.3612   -9.4208   21.9179 C   0  0  0  0  0  0
  -23.6289   -8.2246   22.0753 C   0  0  0  0  0  0
  -22.4271   -8.0282   21.3542 C   0  0  0  0  0  0
  -21.9902   -9.0254   20.4647 C   0  0  0  0  0  0
  -22.7231  -10.2134   20.3052 C   0  0  0  0  0  0
  -21.6851   -6.0734   22.5279 C   0  0  0  0  0  0
  -21.4015   -6.5638   23.8214 C   0  0  0  0  0  0
  -21.3660   -5.6791   24.9174 C   0  0  0  0  0  0
  -21.6045   -4.3055   24.7226 C   0  0  0  0  0  0
  -21.8819   -3.8145   23.4348 C   0  0  0  0  0  0
  -21.9192   -4.6962   22.3402 C   0  0  0  0  0  0
  -22.7868  -13.5242   21.1837 C   0  0  0  0  0  0
  -22.1660   -4.2148   21.0981 F   0  0  0  0  0  0
  -21.5629   -3.4540   25.7738 F   0  0  0  0  0  0
  -30.0458  -13.2327   20.4557 N   0  0  0  0  0  0
  -26.3045  -12.9325   20.3399 N   0  0  0  0  0  0
  -25.9321  -11.6484   20.5761 N   0  0  0  0  0  0
  -22.0511  -12.8234   22.0394 N   0  0  0  0  0  0
  -25.4338  -15.1876   20.4103 N   0  0  0  0  0  0
  -31.8153  -14.6221   20.0690 O   0  0  0  0  0  0
  -21.6639   -6.8878   21.4242 O   0  0  0  0  0  0
  -22.3551  -14.5550   20.6689 O   0  0  0  0  0  0
  -24.6089  -31.8700   23.2117 C   0  0  0  0  0  0
  -25.8995  -32.4831   23.8407 C   0  0  1  0  0  0
  -27.2477  -27.4784   20.1062 C   0  0  0  0  0  0
  -25.5878  -33.8630   24.2340 N   0  0  0  0  0  0
  -23.3956  -30.4901   21.5511 C   0  0  2  0  0  0
  -24.8454  -28.9555   20.1202 C   0  0  0  0  0  0
  -22.7381  -29.4649   22.5015 C   0  0  0  0  0  0
  -18.0264  -28.1369   22.8485 C   0  0  0  0  0  0
  -24.1489  -36.7326   23.2642 C   0  0  0  0  0  0
  -25.9173  -30.8510   21.3555 C   0  0  0  0  0  0
  -25.9985  -29.4861   20.7109 C   0  0  0  0  0  0
  -27.2036  -28.7587   20.6954 C   0  0  0  0  0  0
  -26.0844  -26.9497   19.5115 C   0  0  0  0  0  0
  -24.8810  -27.6839   19.5160 C   0  0  0  0  0  0
  -23.6032  -29.8155   20.1676 C   0  0  0  0  0  0
  -25.4104  -36.3119   24.0351 C   0  0  1  0  0  0
  -20.5846  -28.3639   23.1339 C   0  0  2  0  0  0
  -20.6749  -26.9385   22.5422 C   0  0  0  0  0  0
  -19.5735  -26.6383   21.5207 C   0  0  0  0  0  0
  -18.1911  -26.7912   22.1616 C   0  0  0  0  0  0
  -19.1512  -28.8822   23.2908 C   0  0  0  0  0  0
  -18.9450  -30.1428   23.8925 C   0  0  0  0  0  0
  -17.6457  -30.6584   24.0566 C   0  0  0  0  0  0
  -25.9026  -34.9481   23.5139 C   0  0  0  0  0  0
  -16.5342  -29.9089   23.6322 C   0  0  0  0  0  0
  -16.7253  -28.6501   23.0343 C   0  0  0  0  0  0
  -26.4444  -31.6613   25.0722 C   0  0  0  0  0  0
  -25.3729  -31.3710   26.1488 C   0  0  0  0  0  0
  -27.0267  -30.3073   24.6043 C   0  0  0  0  0  0
  -27.6035  -32.4324   25.7469 C   0  0  0  0  0  0
  -27.5583  -37.1806   24.8463 C   0  0  0  0  0  0
  -21.4113  -29.3021   22.3767 N   0  0  0  0  0  0
  -26.4294  -37.3799   23.9420 N   0  0  0  0  0  0
  -24.6587  -31.0833   22.0989 N   0  0  0  0  0  0
  -23.4173  -28.8190   23.3041 O   0  0  0  0  0  0
  -28.4165  -26.7628   20.0508 O   0  0  0  0  0  0
  -26.5586  -34.8929   22.4696 O   0  0  0  0  0  0
  -23.5291  -32.1425   23.7538 O   0  0  0  0  0  0
  -33.8639  -25.5918   20.9855 C   0  0  0  0  0  0
  -32.1483  -27.7849   21.3689 C   0  0  0  0  0  0
  -34.1642  -26.8261   20.3684 C   0  0  0  0  0  0
  -31.8340  -26.5412   21.9645 C   0  0  0  0  0  0
  -32.7076  -25.4506   21.7733 C   0  0  0  0  0  0
  -33.3015  -27.9287   20.5713 C   0  0  0  0  0  0
  -28.5130  -27.1467   23.5232 C   0  0  0  0  0  0
  -35.3996  -26.9370   19.4866 C   0  0  0  0  0  0
  -35.1059  -26.8431   17.9740 C   0  0  0  0  0  0
  -34.4014  -25.5446   17.5336 C   0  0  0  0  0  0
  -32.8631  -25.6518   17.4916 C   0  0  0  0  0  0
  -32.1514  -24.3035   17.2907 C   0  0  0  0  0  0
  -32.1510  -23.4315   18.5569 C   0  0  0  0  0  0
  -31.4251  -22.0927   18.3675 C   0  0  0  0  0  0
  -31.4592  -21.2387   19.6444 C   0  0  0  0  0  0
  -30.8084  -19.8599   19.4610 C   0  0  0  0  0  0
  -30.9486  -18.9779   20.7118 C   0  0  0  0  0  0
  -30.3856  -17.5655   20.5032 C   0  0  0  0  0  0
  -30.6687  -16.6302   21.6949 C   0  0  0  0  0  0
  -28.7429  -26.0290   21.2302 C   0  0  0  0  0  0
  -29.4247  -26.9110   22.3108 C   0  0  2  0  0  0
  -30.6923  -26.3402   22.7589 N   0  0  0  0  0  0
  -30.1743  -15.2783   21.4492 N   0  0  0  0  0  0
  -32.4215  -24.2545   22.3442 F   0  0  0  0  0  0
  -33.6275  -29.4675   19.8523 Cl  0  0  0  0  0  0
  -31.4599  -12.3676   19.1000 H   0  0  0  0  0  0
  -30.3017  -11.2567   19.7699 H   0  0  0  0  0  0
  -29.7172  -11.8184   17.3937 H   0  0  0  0  0  0
  -29.6642  -13.5183   17.7900 H   0  0  0  0  0  0
  -27.8082  -11.3266   18.7838 H   0  0  0  0  0  0
  -27.3594  -12.6844   17.7863 H   0  0  0  0  0  0
  -27.7261  -14.2584   19.6136 H   0  0  0  0  0  0
  -28.6643  -11.8990   21.3132 H   0  0  0  0  0  0
  -28.4624  -13.5186   21.8907 H   0  0  0  0  0  0
  -25.2760   -9.5686   22.4747 H   0  0  0  0  0  0
  -24.0001   -7.4638   22.7470 H   0  0  0  0  0  0
  -21.0835   -8.8770   19.8954 H   0  0  0  0  0  0
  -22.3687  -10.9671   19.6158 H   0  0  0  0  0  0
  -21.2007   -7.6146   23.9715 H   0  0  0  0  0  0
  -21.1484   -6.0522   25.9078 H   0  0  0  0  0  0
  -22.0597   -2.7608   23.2848 H   0  0  0  0  0  0
  -22.4124  -11.9891   22.4775 H   0  0  0  0  0  0
  -21.1134  -13.1266   22.2616 H   0  0  0  0  0  0
  -24.6717  -15.8476   20.5221 H   0  0  0  0  0  0
  -26.2971  -15.6260   20.1134 H   0  0  0  0  0  0
  -26.7078  -32.5568   23.1198 H   0  0  0  0  0  0
  -25.0030  -33.9799   25.0477 H   0  0  0  0  0  0
  -22.6832  -31.3054   21.4098 H   0  0  0  0  0  0
  -23.3737  -35.9674   23.3307 H   0  0  0  0  0  0
  -24.3589  -36.8920   22.2054 H   0  0  0  0  0  0
  -23.7248  -37.6545   23.6637 H   0  0  0  0  0  0
  -26.0171  -31.6146   20.5832 H   0  0  0  0  0  0
  -26.8109  -30.9125   21.9649 H   0  0  0  0  0  0
  -28.0937  -29.1885   21.1286 H   0  0  0  0  0  0
  -26.1142  -25.9745   19.0453 H   0  0  0  0  0  0
  -23.9961  -27.2670   19.0546 H   0  0  0  0  0  0
  -23.7071  -30.5887   19.4051 H   0  0  0  0  0  0
  -22.7293  -29.2295   19.8757 H   0  0  0  0  0  0
  -25.1268  -36.1998   25.0842 H   0  0  0  0  0  0
  -20.9932  -28.3199   24.1458 H   0  0  0  0  0  0
  -20.5642  -26.2247   23.3603 H   0  0  0  0  0  0
  -21.6623  -26.7427   22.1225 H   0  0  0  0  0  0
  -19.6904  -25.6299   21.1226 H   0  0  0  0  0  0
  -19.6691  -27.3200   20.6747 H   0  0  0  0  0  0
  -17.4181  -26.6665   21.4019 H   0  0  0  0  0  0
  -18.0317  -26.0049   22.9010 H   0  0  0  0  0  0
  -19.7933  -30.7229   24.2310 H   0  0  0  0  0  0
  -17.5020  -31.6271   24.5157 H   0  0  0  0  0  0
  -15.5342  -30.3011   23.7640 H   0  0  0  0  0  0
  -15.8641  -28.0844   22.7041 H   0  0  0  0  0  0
  -24.5896  -30.7054   25.7837 H   0  0  0  0  0  0
  -24.8921  -32.2865   26.4954 H   0  0  0  0  0  0
  -25.8102  -30.8877   27.0234 H   0  0  0  0  0  0
  -26.2786  -29.6849   24.1120 H   0  0  0  0  0  0
  -27.4087  -29.7288   25.4462 H   0  0  0  0  0  0
  -27.8601  -30.4406   23.9139 H   0  0  0  0  0  0
  -27.2665  -33.3610   26.2089 H   0  0  0  0  0  0
  -28.3824  -32.6905   25.0280 H   0  0  0  0  0  0
  -28.0729  -31.8418   26.5347 H   0  0  0  0  0  0
  -28.2600  -38.0102   24.7507 H   0  0  0  0  0  0
  -28.1077  -36.2634   24.6282 H   0  0  0  0  0  0
  -27.2311  -37.1455   25.8869 H   0  0  0  0  0  0
  -20.9263  -29.8761   21.7012 H   0  0  0  0  0  0
  -26.0188  -38.2879   24.1418 H   0  0  0  0  0  0
  -34.5097  -24.7389   20.8411 H   0  0  0  0  0  0
  -31.5228  -28.6510   21.5184 H   0  0  0  0  0  0
  -27.5655  -27.5977   23.2280 H   0  0  0  0  0  0
  -28.9789  -27.8217   24.2420 H   0  0  0  0  0  0
  -28.2809  -26.2155   24.0410 H   0  0  0  0  0  0
  -36.1085  -26.1561   19.7659 H   0  0  0  0  0  0
  -35.9115  -27.8753   19.7044 H   0  0  0  0  0  0
  -36.0609  -26.9133   17.4518 H   0  0  0  0  0  0
  -34.5326  -27.7094   17.6420 H   0  0  0  0  0  0
  -34.7240  -24.7264   18.1768 H   0  0  0  0  0  0
  -34.7485  -25.2801   16.5337 H   0  0  0  0  0  0
  -32.5869  -26.3214   16.6760 H   0  0  0  0  0  0
  -32.4790  -26.1206   18.3967 H   0  0  0  0  0  0
  -32.6004  -23.7652   16.4548 H   0  0  0  0  0  0
  -31.1168  -24.4973   17.0035 H   0  0  0  0  0  0
  -31.6795  -23.9819   19.3719 H   0  0  0  0  0  0
  -33.1759  -23.2366   18.8732 H   0  0  0  0  0  0
  -31.8897  -21.5436   17.5469 H   0  0  0  0  0  0
  -30.3904  -22.2723   18.0720 H   0  0  0  0  0  0
  -30.9619  -21.7732   20.4555 H   0  0  0  0  0  0
  -32.4963  -21.1070   19.9575 H   0  0  0  0  0  0
  -31.2724  -19.3549   18.6124 H   0  0  0  0  0  0
  -29.7535  -19.9792   19.2088 H   0  0  0  0  0  0
  -30.4484  -19.4518   21.5577 H   0  0  0  0  0  0
  -32.0038  -18.9048   20.9793 H   0  0  0  0  0  0
  -30.8260  -17.1458   19.5976 H   0  0  0  0  0  0
  -29.3112  -17.6232   20.3222 H   0  0  0  0  0  0
  -30.1905  -17.0162   22.5959 H   0  0  0  0  0  0
  -31.7392  -16.5941   21.9046 H   0  0  0  0  0  0
  -27.8592  -25.5252   21.6284 H   0  0  0  0  0  0
  -29.4107  -25.2261   20.9148 H   0  0  0  0  0  0
  -29.6202  -27.8875   21.8759 H   0  0  0  0  0  0
  -30.6284  -25.3782   23.0826 H   0  0  0  0  0  0
  -29.3089  -15.0071   21.8931 H   0  0  0  0  0  0
  1 25  1  0  0  0
  1 30  2  0  0  0
  1 93  1  0  0  0
  2  3  1  0  0  0
  2 25  1  0  0  0
  2 96  1  0  0  0
  2 97  1  0  0  0
  3  4  1  0  0  0
  3 98  1  0  0  0
  3 99  1  0  0  0
  4  5  1  0  0  0
  4100  1  0  0  0
  4101  1  0  0  0
  5  6  1  0  0  0
  5 26  1  0  0  0
  5102  1  0  0  0
  6 25  1  0  0  0
  6103  1  0  0  0
  6104  1  0  0  0
  7  8  2  0  0  0
  7 26  1  0  0  0
  7 29  1  0  0  0
  8  9  1  0  0  0
  8 22  1  0  0  0
  9 10  1  0  0  0
  9 27  2  0  0  0
 10 11  2  0  0  0
 10 15  1  0  0  0
 11 12  1  0  0  0
 11105  1  0  0  0
 12 13  2  0  0  0
 12106  1  0  0  0
 13 14  1  0  0  0
 13 31  1  0  0  0
 14 15  2  0  0  0
 14107  1  0  0  0
 15108  1  0  0  0
 16 17  2  0  0  0
 16 21  1  0  0  0
 16 31  1  0  0  0
 17 18  1  0  0  0
 17109  1  0  0  0
 18 19  2  0  0  0
 18110  1  0  0  0
 19 20  1  0  0  0
 19 24  1  0  0  0
 20 21  2  0  0  0
 20111  1  0  0  0
 21 23  1  0  0  0
 22 28  1  0  0  0
 22 32  2  0  0  0
 26 27  1  0  0  0
 28112  1  0  0  0
 28113  1  0  0  0
 29114  1  0  0  0
 29115  1  0  0  0
 33 34  1  0  0  0
 33 66  1  0  0  0
 33 70  2  0  0  0
 34 36  1  0  0  0
 34 59  1  0  0  0
 34116  1  0  0  0
 35 44  2  0  0  0
 35 45  1  0  0  0
 35 68  1  0  0  0
 36 56  1  0  0  0
 36117  1  0  0  0
 37 39  1  0  0  0
 37 47  1  0  0  0
 37 66  1  0  0  0
 37118  1  0  0  0
 38 43  2  0  0  0
 38 46  1  0  0  0
 38 47  1  0  0  0
 39 64  1  0  0  0
 39 67  2  0  0  0
 40 52  1  0  0  0
 40 53  2  0  0  0
 40 58  1  0  0  0
 41119  1  0  0  0
 41120  1  0  0  0
 41121  1  0  0  0
 41 48  1  0  0  0
 42 43  1  0  0  0
 42 66  1  0  0  0
 42122  1  0  0  0
 42123  1  0  0  0
 43 44  1  0  0  0
 44124  1  0  0  0
 45 46  2  0  0  0
 45125  1  0  0  0
 46126  1  0  0  0
 47127  1  0  0  0
 47128  1  0  0  0
 48 56  1  0  0  0
 48 65  1  0  0  0
 48129  1  0  0  0
 49 50  1  0  0  0
 49 53  1  0  0  0
 49 64  1  0  0  0
 49130  1  0  0  0
 50 51  1  0  0  0
 50131  1  0  0  0
 50132  1  0  0  0
 51 52  1  0  0  0
 51133  1  0  0  0
 51134  1  0  0  0
 52135  1  0  0  0
 52136  1  0  0  0
 53 54  1  0  0  0
 54 55  2  0  0  0
 54137  1  0  0  0
 55 57  1  0  0  0
 55138  1  0  0  0
 56 69  2  0  0  0
 57 58  2  0  0  0
 57139  1  0  0  0
 58140  1  0  0  0
 59 60  1  0  0  0
 59 61  1  0  0  0
 59 62  1  0  0  0
 60141  1  0  0  0
 60142  1  0  0  0
 60143  1  0  0  0
 61144  1  0  0  0
 61145  1  0  0  0
 61146  1  0  0  0
 62147  1  0  0  0
 62148  1  0  0  0
 62149  1  0  0  0
 63 65  1  0  0  0
 63150  1  0  0  0
 63151  1  0  0  0
 63152  1  0  0  0
 64153  1  0  0  0
 65154  1  0  0  0
 68 90  1  0  0  0
 71 73  2  0  0  0
 71 75  1  0  0  0
 71155  1  0  0  0
 72 74  1  0  0  0
 72 76  2  0  0  0
 72156  1  0  0  0
 73 76  1  0  0  0
 73 78  1  0  0  0
 74 75  2  0  0  0
 74 92  1  0  0  0
 75 94  1  0  0  0
 76 95  1  0  0  0
 77157  1  0  0  0
 77158  1  0  0  0
 77159  1  0  0  0
 77 91  1  0  0  0
 78 79  1  0  0  0
 78160  1  0  0  0
 78161  1  0  0  0
 79 80  1  0  0  0
 79162  1  0  0  0
 79163  1  0  0  0
 80 81  1  0  0  0
 80164  1  0  0  0
 80165  1  0  0  0
 81 82  1  0  0  0
 81166  1  0  0  0
 81167  1  0  0  0
 82 83  1  0  0  0
 82168  1  0  0  0
 82169  1  0  0  0
 83 84  1  0  0  0
 83170  1  0  0  0
 83171  1  0  0  0
 84 85  1  0  0  0
 84172  1  0  0  0
 84173  1  0  0  0
 85 86  1  0  0  0
 85174  1  0  0  0
 85175  1  0  0  0
 86 87  1  0  0  0
 86176  1  0  0  0
 86177  1  0  0  0
 87 88  1  0  0  0
 87178  1  0  0  0
 87179  1  0  0  0
 88 89  1  0  0  0
 88180  1  0  0  0
 88181  1  0  0  0
 89 93  1  0  0  0
 89182  1  0  0  0
 89183  1  0  0  0
 90 91  1  0  0  0
 90184  1  0  0  0
 90185  1  0  0  0
 91 92  1  0  0  0
 91186  1  0  0  0
 92187  1  0  0  0
 93188  1  0  0  0
M  ISO  4   1 100  68 101  90 101  93 100
M  END
> <chiral flag>
0

> <version>
0

> <s_m_source_file>
/data/baiqing/PycharmProjects/Reinvent-master-3.2/result/LINK_invent/BTK/process_docking_weight1_custom_sum_contain_oxygen_bond_distance_aromatic_linkinvent_7_9_3/rearranged_h_0032.sdf

> <i_m_source_file_index>
53

> <r_mmod_Potential_Energy-OPLS-2005>
-36.5455131530762

> <r_mmod_Stretch_Energy-OPLS-2005>
33.133171081543

> <r_mmod_Bend_Energy-OPLS-2005>
97.1313247680664

> <r_mmod_Torsional_Energy-OPLS-2005>
237.499908447266

> <r_mmod_Improper_Torsional_Energy-OPLS-2005>
6.13047170639038

> <r_mmod_Van_der_Waal_Energy-OPLS-2005>
134.702850341797

> <r_mmod_Electrostatic_Energy-OPLS-2005>
-352.792694091797

> <r_mmod_Solvation_Energy-OPLS-2005>
-198.640991210938

> <b_mmod_Minimization_Converged-OPLS-2005>
0

> <r_mmod_RMS_Derivative-OPLS-2005>
1.21759212017059

$$$$
53
                    3D
 Structure written by MMmdl.
173181  0  0  1  0            999 V2000
  -30.7981  -14.3360   20.7057 C   0  0  0  0  0  0
  -30.4088  -12.2878   19.3911 C   0  0  0  0  0  0
  -29.4754  -12.5217   18.1918 C   0  0  0  0  0  0
  -28.0028  -12.3686   18.6106 C   0  0  0  0  0  0
  -27.6625  -13.2006   19.8747 C   0  0  2  0  0  0
  -28.7007  -12.9608   20.9931 C   0  0  0  0  0  0
  -25.2587  -13.8162   20.5667 C   0  0  0  0  0  0
  -24.1821  -13.0438   20.9155 C   0  0  0  0  0  0
  -24.6369  -11.6909   20.8724 C   0  0  0  0  0  0
  -23.9035  -10.4289   21.0398 C   0  0  0  0  0  0
  -24.3586   -9.4216   21.9194 C   0  0  0  0  0  0
  -23.6265   -8.2252   22.0774 C   0  0  0  0  0  0
  -22.4255   -8.0279   21.3549 C   0  0  0  0  0  0
  -21.9874   -9.0251   20.4654 C   0  0  0  0  0  0
  -22.7196  -10.2138   20.3060 C   0  0  0  0  0  0
  -21.6861   -6.0720   22.5275 C   0  0  0  0  0  0
  -21.4018   -6.5622   23.8204 C   0  0  0  0  0  0
  -21.3659   -5.6781   24.9170 C   0  0  0  0  0  0
  -21.6052   -4.3048   24.7226 C   0  0  0  0  0  0
  -21.8823   -3.8133   23.4348 C   0  0  0  0  0  0
  -21.9193   -4.6946   22.3399 C   0  0  0  0  0  0
  -22.7848  -13.5257   21.1786 C   0  0  0  0  0  0
  -22.1659   -4.2117   21.0978 F   0  0  0  0  0  0
  -21.5627   -3.4540   25.7746 F   0  0  0  0  0  0
  -30.0479  -13.2328   20.4573 N   0  0  0  0  0  0
  -26.3013  -12.9312   20.3365 N   0  0  0  0  0  0
  -25.9292  -11.6481   20.5761 N   0  0  0  0  0  0
  -22.0472  -12.8285   22.0364 N   0  0  0  0  0  0
  -25.4359  -15.1870   20.4056 N   0  0  0  0  0  0
  -31.7674  -14.6659   20.0153 O   0  0  0  0  0  0
  -21.6645   -6.8861   21.4239 O   0  0  0  0  0  0
  -22.3538  -14.5543   20.6606 O   0  0  0  0  0  0
  -24.6140  -31.8715   23.2118 C   0  0  0  0  0  0
  -25.9025  -32.4852   23.8421 C   0  0  1  0  0  0
  -27.2273  -27.4445   20.0795 C   0  0  0  0  0  0
  -25.5887  -33.8647   24.2363 N   0  0  0  0  0  0
  -23.4021  -30.4976   21.5519 C   0  0  2  0  0  0
  -24.8415  -28.9655   20.1131 C   0  0  0  0  0  0
  -22.7419  -29.4676   22.4974 C   0  0  0  0  0  0
  -18.0292  -28.1408   22.8485 C   0  0  0  0  0  0
  -24.1477  -36.7326   23.2637 C   0  0  0  0  0  0
  -25.9295  -30.8389   21.3612 C   0  0  0  0  0  0
  -26.0026  -29.4736   20.7080 C   0  0  0  0  0  0
  -27.1941  -28.7171   20.6929 C   0  0  0  0  0  0
  -26.0444  -26.9509   19.4781 C   0  0  0  0  0  0
  -24.8556  -27.7028   19.5003 C   0  0  0  0  0  0
  -23.6083  -29.8366   20.1639 C   0  0  0  0  0  0
  -25.4099  -36.3147   24.0351 C   0  0  1  0  0  0
  -20.5883  -28.3683   23.1313 C   0  0  2  0  0  0
  -20.6770  -26.9421   22.5409 C   0  0  0  0  0  0
  -19.5748  -26.6409   21.5205 C   0  0  0  0  0  0
  -18.1933  -26.7957   22.1622 C   0  0  0  0  0  0
  -19.1540  -28.8862   23.2905 C   0  0  0  0  0  0
  -18.9460  -30.1469   23.8920 C   0  0  0  0  0  0
  -17.6455  -30.6599   24.0581 C   0  0  0  0  0  0
  -25.9024  -34.9502   23.5158 C   0  0  0  0  0  0
  -16.5354  -29.9107   23.6318 C   0  0  0  0  0  0
  -16.7277  -28.6536   23.0319 C   0  0  0  0  0  0
  -26.4445  -31.6622   25.0740 C   0  0  0  0  0  0
  -25.3707  -31.3686   26.1482 C   0  0  0  0  0  0
  -27.0249  -30.3084   24.6053 C   0  0  0  0  0  0
  -27.6061  -32.4302   25.7484 C   0  0  0  0  0  0
  -27.5589  -37.1821   24.8473 C   0  0  0  0  0  0
  -21.4151  -29.3053   22.3711 N   0  0  0  0  0  0
  -26.4302  -37.3819   23.9416 N   0  0  0  0  0  0
  -24.6677  -31.0820   22.1015 N   0  0  0  0  0  0
  -23.4196  -28.8218   23.3008 O   0  0  0  0  0  0
  -28.4152  -26.7425   20.1168 O   0  0  0  0  0  0
  -26.5588  -34.8934   22.4718 O   0  0  0  0  0  0
  -23.5335  -32.1463   23.7514 O   0  0  0  0  0  0
  -27.0774  -24.4568   21.3738 C   0  0  0  0  0  0
  -26.2757  -23.4063   21.8548 C   0  0  0  0  0  0
  -26.2342  -22.1973   21.1165 C   0  0  0  0  0  0
  -27.7641  -24.3068   20.1549 C   0  0  0  0  0  0
  -27.0099  -22.1197   19.9350 C   0  0  0  0  0  0
  -25.4463  -23.6340   23.1070 C   0  0  0  0  0  0
  -25.3234  -21.0316   21.5188 C   0  0  0  0  0  0
  -28.5202  -25.4591   19.4860 C   0  0  0  0  0  0
  -26.0251  -19.8834   22.2710 C   0  0  0  0  0  0
  -26.1764  -20.1465   23.7773 C   0  0  0  0  0  0
  -26.6449  -18.9273   24.5921 C   0  0  0  0  0  0
  -28.1148  -19.0094   25.0322 C   0  0  0  0  0  0
  -29.1480  -18.9197   23.8951 C   0  0  0  0  0  0
  -29.4229  -17.4791   23.4274 C   0  0  0  0  0  0
  -30.6138  -17.4034   22.4554 C   0  0  0  0  0  0
  -31.3144  -16.0359   22.4456 C   0  0  0  0  0  0
  -27.7447  -23.1486   19.4663 N   0  0  0  0  0  0
  -30.4986  -14.9826   21.8389 N   0  0  0  0  0  0
  -27.0185  -20.6866   18.9700 Cl  0  0  0  0  0  0
  -31.4511  -12.3821   19.0814 H   0  0  0  0  0  0
  -30.3051  -11.2661   19.7599 H   0  0  0  0  0  0
  -29.7120  -11.8196   17.3914 H   0  0  0  0  0  0
  -29.6386  -13.5217   17.7873 H   0  0  0  0  0  0
  -27.8144  -11.3109   18.8028 H   0  0  0  0  0  0
  -27.3474  -12.6510   17.7859 H   0  0  0  0  0  0
  -27.7161  -14.2503   19.5877 H   0  0  0  0  0  0
  -28.6587  -11.9241   21.3292 H   0  0  0  0  0  0
  -28.4458  -13.5629   21.8655 H   0  0  0  0  0  0
  -25.2724   -9.5713   22.4773 H   0  0  0  0  0  0
  -23.9988   -7.4652   22.7497 H   0  0  0  0  0  0
  -21.0812   -8.8749   19.8955 H   0  0  0  0  0  0
  -22.3639  -10.9672   19.6174 H   0  0  0  0  0  0
  -21.2020   -7.6135   23.9695 H   0  0  0  0  0  0
  -21.1477   -6.0516   25.9064 H   0  0  0  0  0  0
  -22.0607   -2.7596   23.2862 H   0  0  0  0  0  0
  -22.4034  -11.9951   22.4793 H   0  0  0  0  0  0
  -21.1093  -13.1363   22.2514 H   0  0  0  0  0  0
  -24.6861  -15.8565   20.5310 H   0  0  0  0  0  0
  -26.3040  -15.6174   20.1111 H   0  0  0  0  0  0
  -26.7098  -32.5559   23.1192 H   0  0  0  0  0  0
  -25.0041  -33.9818   25.0510 H   0  0  0  0  0  0
  -22.6940  -31.3170   21.4157 H   0  0  0  0  0  0
  -23.3751  -35.9647   23.3327 H   0  0  0  0  0  0
  -24.3579  -36.8901   22.2045 H   0  0  0  0  0  0
  -23.7198  -37.6530   23.6618 H   0  0  0  0  0  0
  -26.0355  -31.6032   20.5904 H   0  0  0  0  0  0
  -26.8226  -30.8995   21.9709 H   0  0  0  0  0  0
  -28.0930  -29.1041   21.1523 H   0  0  0  0  0  0
  -26.0039  -25.9842   18.9991 H   0  0  0  0  0  0
  -23.9589  -27.3074   19.0436 H   0  0  0  0  0  0
  -23.7264  -30.6180   19.4119 H   0  0  0  0  0  0
  -22.7289  -29.2670   19.8575 H   0  0  0  0  0  0
  -25.1263  -36.2049   25.0845 H   0  0  0  0  0  0
  -20.9996  -28.3250   24.1423 H   0  0  0  0  0  0
  -20.5677  -26.2288   23.3589 H   0  0  0  0  0  0
  -21.6635  -26.7453   22.1198 H   0  0  0  0  0  0
  -19.6904  -25.6323   21.1224 H   0  0  0  0  0  0
  -19.6701  -27.3224   20.6739 H   0  0  0  0  0  0
  -17.4196  -26.6718   21.4032 H   0  0  0  0  0  0
  -18.0347  -26.0112   22.9031 H   0  0  0  0  0  0
  -19.7931  -30.7293   24.2296 H   0  0  0  0  0  0
  -17.5003  -31.6270   24.5200 H   0  0  0  0  0  0
  -15.5356  -30.3012   23.7620 H   0  0  0  0  0  0
  -15.8684  -28.0869   22.6984 H   0  0  0  0  0  0
  -24.5953  -30.6951   25.7816 H   0  0  0  0  0  0
  -24.8787  -32.2791   26.4904 H   0  0  0  0  0  0
  -25.8069  -30.8907   27.0261 H   0  0  0  0  0  0
  -26.2776  -29.6921   24.1040 H   0  0  0  0  0  0
  -27.3983  -29.7248   25.4474 H   0  0  0  0  0  0
  -27.8629  -30.4451   23.9216 H   0  0  0  0  0  0
  -27.2764  -33.3636   26.2051 H   0  0  0  0  0  0
  -28.3867  -32.6788   25.0287 H   0  0  0  0  0  0
  -28.0718  -31.8407   26.5388 H   0  0  0  0  0  0
  -28.2623  -38.0108   24.7529 H   0  0  0  0  0  0
  -28.1077  -36.2643   24.6301 H   0  0  0  0  0  0
  -27.2317  -37.1470   25.8881 H   0  0  0  0  0  0
  -20.9318  -29.8793   21.6944 H   0  0  0  0  0  0
  -26.0221  -38.2911   24.1408 H   0  0  0  0  0  0
  -27.1125  -25.3999   21.9013 H   0  0  0  0  0  0
  -25.6687  -24.6014   23.5587 H   0  0  0  0  0  0
  -25.6422  -22.8744   23.8594 H   0  0  0  0  0  0
  -24.3823  -23.6248   22.8728 H   0  0  0  0  0  0
  -24.8753  -20.6244   20.6127 H   0  0  0  0  0  0
  -24.4682  -21.3888   22.0909 H   0  0  0  0  0  0
  -28.2207  -25.5366   18.4397 H   0  0  0  0  0  0
  -29.5783  -25.1985   19.4704 H   0  0  0  0  0  0
  -26.9814  -19.6435   21.8060 H   0  0  0  0  0  0
  -25.4138  -18.9877   22.1547 H   0  0  0  0  0  0
  -25.2041  -20.4558   24.1620 H   0  0  0  0  0  0
  -26.8501  -20.9867   23.9450 H   0  0  0  0  0  0
  -26.4455  -17.9923   24.0666 H   0  0  0  0  0  0
  -26.0367  -18.8819   25.4982 H   0  0  0  0  0  0
  -28.3151  -18.2219   25.7595 H   0  0  0  0  0  0
  -28.2616  -19.9463   25.5745 H   0  0  0  0  0  0
  -30.0805  -19.3392   24.2731 H   0  0  0  0  0  0
  -28.8697  -19.5565   23.0558 H   0  0  0  0  0  0
  -28.5362  -17.0447   22.9655 H   0  0  0  0  0  0
  -29.6420  -16.8679   24.3038 H   0  0  0  0  0  0
  -31.3616  -18.1420   22.7501 H   0  0  0  0  0  0
  -30.3014  -17.6868   21.4485 H   0  0  0  0  0  0
  -31.5701  -15.7328   23.4618 H   0  0  0  0  0  0
  -32.2742  -16.1410   21.9358 H   0  0  0  0  0  0
  -29.7088  -14.6386   22.3625 H   0  0  0  0  0  0
  1 25  1  0  0  0
  1 30  2  0  0  0
  1 88  1  0  0  0
  2  3  1  0  0  0
  2 25  1  0  0  0
  2 90  1  0  0  0
  2 91  1  0  0  0
  3  4  1  0  0  0
  3 92  1  0  0  0
  3 93  1  0  0  0
  4  5  1  0  0  0
  4 94  1  0  0  0
  4 95  1  0  0  0
  5  6  1  0  0  0
  5 26  1  0  0  0
  5 96  1  0  0  0
  6 25  1  0  0  0
  6 97  1  0  0  0
  6 98  1  0  0  0
  7  8  2  0  0  0
  7 26  1  0  0  0
  7 29  1  0  0  0
  8  9  1  0  0  0
  8 22  1  0  0  0
  9 10  1  0  0  0
  9 27  2  0  0  0
 10 11  2  0  0  0
 10 15  1  0  0  0
 11 12  1  0  0  0
 11 99  1  0  0  0
 12 13  2  0  0  0
 12100  1  0  0  0
 13 14  1  0  0  0
 13 31  1  0  0  0
 14 15  2  0  0  0
 14101  1  0  0  0
 15102  1  0  0  0
 16 17  2  0  0  0
 16 21  1  0  0  0
 16 31  1  0  0  0
 17 18  1  0  0  0
 17103  1  0  0  0
 18 19  2  0  0  0
 18104  1  0  0  0
 19 20  1  0  0  0
 19 24  1  0  0  0
 20 21  2  0  0  0
 20105  1  0  0  0
 21 23  1  0  0  0
 22 28  1  0  0  0
 22 32  2  0  0  0
 26 27  1  0  0  0
 28106  1  0  0  0
 28107  1  0  0  0
 29108  1  0  0  0
 29109  1  0  0  0
 33 34  1  0  0  0
 33 66  1  0  0  0
 33 70  2  0  0  0
 34 36  1  0  0  0
 34 59  1  0  0  0
 34110  1  0  0  0
 35 44  2  0  0  0
 35 45  1  0  0  0
 35 68  1  0  0  0
 36 56  1  0  0  0
 36111  1  0  0  0
 37 39  1  0  0  0
 37 47  1  0  0  0
 37 66  1  0  0  0
 37112  1  0  0  0
 38 43  2  0  0  0
 38 46  1  0  0  0
 38 47  1  0  0  0
 39 64  1  0  0  0
 39 67  2  0  0  0
 40 52  1  0  0  0
 40 53  2  0  0  0
 40 58  1  0  0  0
 41113  1  0  0  0
 41114  1  0  0  0
 41115  1  0  0  0
 41 48  1  0  0  0
 42 43  1  0  0  0
 42 66  1  0  0  0
 42116  1  0  0  0
 42117  1  0  0  0
 43 44  1  0  0  0
 44118  1  0  0  0
 45 46  2  0  0  0
 45119  1  0  0  0
 46120  1  0  0  0
 47121  1  0  0  0
 47122  1  0  0  0
 48 56  1  0  0  0
 48 65  1  0  0  0
 48123  1  0  0  0
 49 50  1  0  0  0
 49 53  1  0  0  0
 49 64  1  0  0  0
 49124  1  0  0  0
 50 51  1  0  0  0
 50125  1  0  0  0
 50126  1  0  0  0
 51 52  1  0  0  0
 51127  1  0  0  0
 51128  1  0  0  0
 52129  1  0  0  0
 52130  1  0  0  0
 53 54  1  0  0  0
 54 55  2  0  0  0
 54131  1  0  0  0
 55 57  1  0  0  0
 55132  1  0  0  0
 56 69  2  0  0  0
 57 58  2  0  0  0
 57133  1  0  0  0
 58134  1  0  0  0
 59 60  1  0  0  0
 59 61  1  0  0  0
 59 62  1  0  0  0
 60135  1  0  0  0
 60136  1  0  0  0
 60137  1  0  0  0
 61138  1  0  0  0
 61139  1  0  0  0
 61140  1  0  0  0
 62141  1  0  0  0
 62142  1  0  0  0
 62143  1  0  0  0
 63 65  1  0  0  0
 63144  1  0  0  0
 63145  1  0  0  0
 63146  1  0  0  0
 64147  1  0  0  0
 65148  1  0  0  0
 68 78  1  0  0  0
 71 72  2  0  0  0
 71 74  1  0  0  0
 71149  1  0  0  0
 72 73  1  0  0  0
 72 76  1  0  0  0
 73 75  2  0  0  0
 73 77  1  0  0  0
 74 78  1  0  0  0
 74 87  2  0  0  0
 75 87  1  0  0  0
 75 89  1  0  0  0
 76150  1  0  0  0
 76151  1  0  0  0
 76152  1  0  0  0
 77 79  1  0  0  0
 77153  1  0  0  0
 77154  1  0  0  0
 78155  1  0  0  0
 78156  1  0  0  0
 79 80  1  0  0  0
 79157  1  0  0  0
 79158  1  0  0  0
 80 81  1  0  0  0
 80159  1  0  0  0
 80160  1  0  0  0
 81 82  1  0  0  0
 81161  1  0  0  0
 81162  1  0  0  0
 82 83  1  0  0  0
 82163  1  0  0  0
 82164  1  0  0  0
 83 84  1  0  0  0
 83165  1  0  0  0
 83166  1  0  0  0
 84 85  1  0  0  0
 84167  1  0  0  0
 84168  1  0  0  0
 85 86  1  0  0  0
 85169  1  0  0  0
 85170  1  0  0  0
 86 88  1  0  0  0
 86171  1  0  0  0
 86172  1  0  0  0
 88173  1  0  0  0
M  ISO  4   1 100  68 101  78 101  88 100
M  END
> <chiral flag>
0

> <version>
0

> <s_m_source_file>
/data/baiqing/PycharmProjects/Reinvent-master-3.2/result/LINK_invent/BTK/process_docking_weight1_custom_sum_contain_oxygen_bond_distance_aromatic_linkinvent_7_9_3/rearranged_h_0032.sdf

> <i_m_source_file_index>
54

> <r_mmod_Potential_Energy-OPLS-2005>
-172.92138671875

> <r_mmod_Stretch_Energy-OPLS-2005>
33.9208755493164

> <r_mmod_Bend_Energy-OPLS-2005>
105.711875915527

> <r_mmod_Torsional_Energy-OPLS-2005>
222.005249023438

> <r_mmod_Improper_Torsional_Energy-OPLS-2005>
3.06618785858154

> <r_mmod_Van_der_Waal_Energy-OPLS-2005>
153.934860229492

> <r_mmod_Electrostatic_Energy-OPLS-2005>
-504.420440673828

> <r_mmod_Solvation_Energy-OPLS-2005>
-196.440826416016

> <b_mmod_Minimization_Converged-OPLS-2005>
0

> <r_mmod_RMS_Derivative-OPLS-2005>
2.63884305953979

$$$$
54
                    3D
 Structure written by MMmdl.
165173  0  0  1  0            999 V2000
  -30.6589  -14.4376   20.5787 C   0  0  0  0  0  0
  -30.4269  -12.2960   19.3885 C   0  0  0  0  0  0
  -29.4817  -12.5214   18.1898 C   0  0  0  0  0  0
  -28.0051  -12.3792   18.6069 C   0  0  0  0  0  0
  -27.6624  -13.1921   19.8829 C   0  0  2  0  0  0
  -28.7032  -12.9018   20.9848 C   0  0  0  0  0  0
  -25.2553  -13.8105   20.5653 C   0  0  0  0  0  0
  -24.1843  -13.0408   20.9199 C   0  0  0  0  0  0
  -24.6410  -11.6861   20.8801 C   0  0  0  0  0  0
  -23.9090  -10.4247   21.0447 C   0  0  0  0  0  0
  -24.3637   -9.4149   21.9213 C   0  0  0  0  0  0
  -23.6277   -8.2205   22.0767 C   0  0  0  0  0  0
  -22.4247   -8.0280   21.3573 C   0  0  0  0  0  0
  -21.9920   -9.0258   20.4683 C   0  0  0  0  0  0
  -22.7279  -10.2107   20.3088 C   0  0  0  0  0  0
  -21.6846   -6.0738   22.5273 C   0  0  0  0  0  0
  -21.3990   -6.5645   23.8208 C   0  0  0  0  0  0
  -21.3654   -5.6812   24.9177 C   0  0  0  0  0  0
  -21.6035   -4.3063   24.7226 C   0  0  0  0  0  0
  -21.8838   -3.8160   23.4342 C   0  0  0  0  0  0
  -21.9169   -4.6963   22.3398 C   0  0  0  0  0  0
  -22.7848  -13.5164   21.1851 C   0  0  0  0  0  0
  -22.1644   -4.2157   21.0968 F   0  0  0  0  0  0
  -21.5636   -3.4545   25.7733 F   0  0  0  0  0  0
  -30.0399  -13.2323   20.4520 N   0  0  0  0  0  0
  -26.3017  -12.9274   20.3406 N   0  0  0  0  0  0
  -25.9337  -11.6450   20.5863 N   0  0  0  0  0  0
  -22.0522  -12.8172   22.0412 N   0  0  0  0  0  0
  -25.4270  -15.1843   20.3944 N   0  0  0  0  0  0
  -31.7463  -14.7085   20.0573 O   0  0  0  0  0  0
  -21.6623   -6.8874   21.4237 O   0  0  0  0  0  0
  -22.3500  -14.5440   20.6641 O   0  0  0  0  0  0
  -24.6053  -31.8731   23.2147 C   0  0  0  0  0  0
  -25.8998  -32.4829   23.8374 C   0  0  1  0  0  0
  -27.2157  -27.4696   20.0890 C   0  0  0  0  0  0
  -25.5919  -33.8614   24.2310 N   0  0  0  0  0  0
  -23.3926  -30.4999   21.5458 C   0  0  2  0  0  0
  -24.8397  -28.9753   20.0991 C   0  0  0  0  0  0
  -22.7346  -29.4719   22.4947 C   0  0  0  0  0  0
  -18.0293  -28.1391   22.8448 C   0  0  0  0  0  0
  -24.1515  -36.7324   23.2624 C   0  0  0  0  0  0
  -25.9138  -30.8518   21.3582 C   0  0  0  0  0  0
  -25.9935  -29.4868   20.7099 C   0  0  0  0  0  0
  -27.1869  -28.7329   20.7198 C   0  0  0  0  0  0
  -26.0596  -26.9752   19.4566 C   0  0  0  0  0  0
  -24.8671  -27.7156   19.4764 C   0  0  0  0  0  0
  -23.5941  -29.8277   20.1574 C   0  0  0  0  0  0
  -25.4129  -36.3077   24.0294 C   0  0  1  0  0  0
  -20.5862  -28.3703   23.1335 C   0  0  2  0  0  0
  -20.6769  -26.9438   22.5431 C   0  0  0  0  0  0
  -19.5795  -26.6391   21.5194 C   0  0  0  0  0  0
  -18.1970  -26.7925   22.1603 C   0  0  0  0  0  0
  -19.1525  -28.8849   23.2894 C   0  0  0  0  0  0
  -18.9448  -30.1462   23.8920 C   0  0  0  0  0  0
  -17.6442  -30.6585   24.0582 C   0  0  0  0  0  0
  -25.9029  -34.9457   23.5090 C   0  0  0  0  0  0
  -16.5345  -29.9080   23.6312 C   0  0  0  0  0  0
  -16.7279  -28.6511   23.0287 C   0  0  0  0  0  0
  -26.4469  -31.6579   25.0668 C   0  0  0  0  0  0
  -25.3763  -31.3682   26.1426 C   0  0  0  0  0  0
  -27.0321  -30.3037   24.6003 C   0  0  0  0  0  0
  -27.6058  -32.4267   25.7456 C   0  0  0  0  0  0
  -27.5567  -37.1826   24.8440 C   0  0  0  0  0  0
  -21.4065  -29.3119   22.3706 N   0  0  0  0  0  0
  -26.4300  -37.3757   23.9367 N   0  0  0  0  0  0
  -24.6548  -31.0863   22.1012 N   0  0  0  0  0  0
  -23.4134  -28.8207   23.2925 O   0  0  0  0  0  0
  -28.3390  -26.6933   20.0785 O   0  0  0  0  0  0
  -26.5573  -34.8905   22.4640 O   0  0  0  0  0  0
  -23.5265  -32.1404   23.7615 O   0  0  0  0  0  0
  -27.6746  -21.5481   20.9758 C   0  0  0  0  0  0
  -28.5331  -23.6247   19.2939 C   0  0  0  0  0  0
  -28.3262  -22.6741   21.5216 C   0  0  0  0  0  0
  -27.4014  -21.4701   19.5914 C   0  0  0  0  0  0
  -28.7938  -23.7080   20.6759 C   0  0  0  0  0  0
  -27.8217  -22.5374   18.7558 C   0  0  0  0  0  0
  -28.4538  -22.7963   23.0261 C   0  0  0  0  0  0
  -26.5813  -20.3078   19.0263 C   0  0  0  0  0  0
  -29.5398  -24.9247   21.2281 C   0  0  0  0  0  0
  -26.9527  -18.8807   19.4964 C   0  0  0  0  0  0
  -28.4557  -18.5099   19.4573 C   0  0  0  0  0  0
  -28.7179  -17.0379   19.8342 C   0  0  0  0  0  0
  -29.8461  -16.7972   20.8575 C   0  0  0  0  0  0
  -28.6612  -26.1740   21.3624 C   0  0  0  0  0  0
  -29.8924  -15.3681   21.1679 N   0  0  0  0  0  0
  -27.4303  -22.5862   17.0699 Cl  0  0  0  0  0  0
  -31.4619  -12.4312   19.0760 H   0  0  0  0  0  0
  -30.3512  -11.2668   19.7446 H   0  0  0  0  0  0
  -29.7187  -11.8195   17.3887 H   0  0  0  0  0  0
  -29.6494  -13.5167   17.7759 H   0  0  0  0  0  0
  -27.8100  -11.3197   18.7778 H   0  0  0  0  0  0
  -27.3551  -12.6856   17.7872 H   0  0  0  0  0  0
  -27.7266  -14.2458   19.6137 H   0  0  0  0  0  0
  -28.6806  -11.8425   21.2475 H   0  0  0  0  0  0
  -28.4658  -13.4288   21.9076 H   0  0  0  0  0  0
  -25.2800   -9.5544   22.4789 H   0  0  0  0  0  0
  -23.9965   -7.4555   22.7460 H   0  0  0  0  0  0
  -21.0877   -8.8827   19.8964 H   0  0  0  0  0  0
  -22.3825  -10.9665   19.6182 H   0  0  0  0  0  0
  -21.2002   -7.6165   23.9699 H   0  0  0  0  0  0
  -21.1455   -6.0554   25.9081 H   0  0  0  0  0  0
  -22.0619   -2.7614   23.2855 H   0  0  0  0  0  0
  -22.4149  -11.9811   22.4785 H   0  0  0  0  0  0
  -21.1148  -13.1199   22.2671 H   0  0  0  0  0  0
  -24.6627  -15.8445   20.4890 H   0  0  0  0  0  0
  -26.2802  -15.6099   20.0586 H   0  0  0  0  0  0
  -26.7071  -32.5589   23.1148 H   0  0  0  0  0  0
  -25.0142  -33.9784   25.0489 H   0  0  0  0  0  0
  -22.6768  -31.3149   21.4064 H   0  0  0  0  0  0
  -23.3727  -35.9705   23.3280 H   0  0  0  0  0  0
  -24.3611  -36.8947   22.2037 H   0  0  0  0  0  0
  -23.7335  -37.6552   23.6659 H   0  0  0  0  0  0
  -26.0018  -31.6183   20.5860 H   0  0  0  0  0  0
  -26.8078  -30.9182   21.9637 H   0  0  0  0  0  0
  -28.0756  -29.1123   21.2057 H   0  0  0  0  0  0
  -26.0699  -26.0112   18.9693 H   0  0  0  0  0  0
  -23.9782  -27.3124   19.0068 H   0  0  0  0  0  0
  -23.6811  -30.5941   19.3854 H   0  0  0  0  0  0
  -22.7202  -29.2286   19.8837 H   0  0  0  0  0  0
  -25.1332  -36.1920   25.0779 H   0  0  0  0  0  0
  -21.0018  -28.3319   24.1443 H   0  0  0  0  0  0
  -20.5666  -26.2306   23.3595 H   0  0  0  0  0  0
  -21.6660  -26.7545   22.1273 H   0  0  0  0  0  0
  -19.6966  -25.6293   21.1272 H   0  0  0  0  0  0
  -19.6764  -27.3192   20.6693 H   0  0  0  0  0  0
  -17.4244  -26.6646   21.4003 H   0  0  0  0  0  0
  -18.0394  -26.0068   22.9008 H   0  0  0  0  0  0
  -19.7923  -30.7294   24.2273 H   0  0  0  0  0  0
  -17.4998  -31.6254   24.5222 H   0  0  0  0  0  0
  -15.5330  -30.2987   23.7676 H   0  0  0  0  0  0
  -15.8662  -28.0913   22.6910 H   0  0  0  0  0  0
  -24.5936  -30.7029   25.7744 H   0  0  0  0  0  0
  -24.8986  -32.2869   26.4846 H   0  0  0  0  0  0
  -25.8141  -30.8856   27.0174 H   0  0  0  0  0  0
  -26.2864  -29.6759   24.1112 H   0  0  0  0  0  0
  -27.4164  -29.7295   25.4440 H   0  0  0  0  0  0
  -27.8643  -30.4343   23.9081 H   0  0  0  0  0  0
  -27.2659  -33.3533   26.2080 H   0  0  0  0  0  0
  -28.3882  -32.6844   25.0306 H   0  0  0  0  0  0
  -28.0695  -31.8344   26.5344 H   0  0  0  0  0  0
  -28.2585  -38.0125   24.7462 H   0  0  0  0  0  0
  -28.1081  -36.2652   24.6322 H   0  0  0  0  0  0
  -27.2281  -37.1516   25.8845 H   0  0  0  0  0  0
  -20.9155  -29.8853   21.6982 H   0  0  0  0  0  0
  -26.0167  -38.2818   24.1398 H   0  0  0  0  0  0
  -27.3474  -20.7598   21.6389 H   0  0  0  0  0  0
  -28.8440  -24.4276   18.6426 H   0  0  0  0  0  0
  -28.0885  -21.9222   23.5615 H   0  0  0  0  0  0
  -29.4902  -22.9356   23.3188 H   0  0  0  0  0  0
  -27.8626  -23.6549   23.3497 H   0  0  0  0  0  0
  -26.6379  -20.3101   17.9401 H   0  0  0  0  0  0
  -25.5352  -20.5057   19.2690 H   0  0  0  0  0  0
  -30.4147  -25.1299   20.6140 H   0  0  0  0  0  0
  -29.9431  -24.7126   22.2100 H   0  0  0  0  0  0
  -26.4014  -18.1784   18.8666 H   0  0  0  0  0  0
  -26.5725  -18.7309   20.5078 H   0  0  0  0  0  0
  -28.8366  -18.6850   18.4537 H   0  0  0  0  0  0
  -29.0303  -19.1616   20.1162 H   0  0  0  0  0  0
  -28.9261  -16.4740   18.9234 H   0  0  0  0  0  0
  -27.8054  -16.6138   20.2557 H   0  0  0  0  0  0
  -30.8044  -17.1659   20.4852 H   0  0  0  0  0  0
  -29.6347  -17.3496   21.7775 H   0  0  0  0  0  0
  -29.2005  -26.9291   21.9280 H   0  0  0  0  0  0
  -27.7579  -25.9218   21.9285 H   0  0  0  0  0  0
  -29.0702  -15.0038   21.6271 H   0  0  0  0  0  0
  1 25  1  0  0  0
  1 30  2  0  0  0
  1 85  1  0  0  0
  2  3  1  0  0  0
  2 25  1  0  0  0
  2 87  1  0  0  0
  2 88  1  0  0  0
  3  4  1  0  0  0
  3 89  1  0  0  0
  3 90  1  0  0  0
  4  5  1  0  0  0
  4 91  1  0  0  0
  4 92  1  0  0  0
  5  6  1  0  0  0
  5 26  1  0  0  0
  5 93  1  0  0  0
  6 25  1  0  0  0
  6 94  1  0  0  0
  6 95  1  0  0  0
  7  8  2  0  0  0
  7 26  1  0  0  0
  7 29  1  0  0  0
  8  9  1  0  0  0
  8 22  1  0  0  0
  9 10  1  0  0  0
  9 27  2  0  0  0
 10 11  2  0  0  0
 10 15  1  0  0  0
 11 12  1  0  0  0
 11 96  1  0  0  0
 12 13  2  0  0  0
 12 97  1  0  0  0
 13 14  1  0  0  0
 13 31  1  0  0  0
 14 15  2  0  0  0
 14 98  1  0  0  0
 15 99  1  0  0  0
 16 17  2  0  0  0
 16 21  1  0  0  0
 16 31  1  0  0  0
 17 18  1  0  0  0
 17100  1  0  0  0
 18 19  2  0  0  0
 18101  1  0  0  0
 19 20  1  0  0  0
 19 24  1  0  0  0
 20 21  2  0  0  0
 20102  1  0  0  0
 21 23  1  0  0  0
 22 28  1  0  0  0
 22 32  2  0  0  0
 26 27  1  0  0  0
 28103  1  0  0  0
 28104  1  0  0  0
 29105  1  0  0  0
 29106  1  0  0  0
 33 34  1  0  0  0
 33 66  1  0  0  0
 33 70  2  0  0  0
 34 36  1  0  0  0
 34 59  1  0  0  0
 34107  1  0  0  0
 35 44  2  0  0  0
 35 45  1  0  0  0
 35 68  1  0  0  0
 36 56  1  0  0  0
 36108  1  0  0  0
 37 39  1  0  0  0
 37 47  1  0  0  0
 37 66  1  0  0  0
 37109  1  0  0  0
 38 43  2  0  0  0
 38 46  1  0  0  0
 38 47  1  0  0  0
 39 64  1  0  0  0
 39 67  2  0  0  0
 40 52  1  0  0  0
 40 53  2  0  0  0
 40 58  1  0  0  0
 41110  1  0  0  0
 41111  1  0  0  0
 41112  1  0  0  0
 41 48  1  0  0  0
 42 43  1  0  0  0
 42 66  1  0  0  0
 42113  1  0  0  0
 42114  1  0  0  0
 43 44  1  0  0  0
 44115  1  0  0  0
 45 46  2  0  0  0
 45116  1  0  0  0
 46117  1  0  0  0
 47118  1  0  0  0
 47119  1  0  0  0
 48 56  1  0  0  0
 48 65  1  0  0  0
 48120  1  0  0  0
 49 50  1  0  0  0
 49 53  1  0  0  0
 49 64  1  0  0  0
 49121  1  0  0  0
 50 51  1  0  0  0
 50122  1  0  0  0
 50123  1  0  0  0
 51 52  1  0  0  0
 51124  1  0  0  0
 51125  1  0  0  0
 52126  1  0  0  0
 52127  1  0  0  0
 53 54  1  0  0  0
 54 55  2  0  0  0
 54128  1  0  0  0
 55 57  1  0  0  0
 55129  1  0  0  0
 56 69  2  0  0  0
 57 58  2  0  0  0
 57130  1  0  0  0
 58131  1  0  0  0
 59 60  1  0  0  0
 59 61  1  0  0  0
 59 62  1  0  0  0
 60132  1  0  0  0
 60133  1  0  0  0
 60134  1  0  0  0
 61135  1  0  0  0
 61136  1  0  0  0
 61137  1  0  0  0
 62138  1  0  0  0
 62139  1  0  0  0
 62140  1  0  0  0
 63 65  1  0  0  0
 63141  1  0  0  0
 63142  1  0  0  0
 63143  1  0  0  0
 64144  1  0  0  0
 65145  1  0  0  0
 68 84  1  0  0  0
 71 73  2  0  0  0
 71 74  1  0  0  0
 71146  1  0  0  0
 72 75  2  0  0  0
 72 76  1  0  0  0
 72147  1  0  0  0
 73 75  1  0  0  0
 73 77  1  0  0  0
 74 76  2  0  0  0
 74 78  1  0  0  0
 75 79  1  0  0  0
 76 86  1  0  0  0
 77148  1  0  0  0
 77149  1  0  0  0
 77150  1  0  0  0
 78 80  1  0  0  0
 78151  1  0  0  0
 78152  1  0  0  0
 79 84  1  0  0  0
 79153  1  0  0  0
 79154  1  0  0  0
 80 81  1  0  0  0
 80155  1  0  0  0
 80156  1  0  0  0
 81 82  1  0  0  0
 81157  1  0  0  0
 81158  1  0  0  0
 82 83  1  0  0  0
 82159  1  0  0  0
 82160  1  0  0  0
 83 85  1  0  0  0
 83161  1  0  0  0
 83162  1  0  0  0
 84163  1  0  0  0
 84164  1  0  0  0
 85165  1  0  0  0
M  ISO  4   1 100  68 101  84 101  85 100
M  END
> <chiral flag>
0

> <version>
0

> <s_m_source_file>
/data/baiqing/PycharmProjects/Reinvent-master-3.2/result/LINK_invent/BTK/process_docking_weight1_custom_sum_contain_oxygen_bond_distance_aromatic_linkinvent_7_9_3/rearranged_h_0032.sdf

> <i_m_source_file_index>
55

> <r_mmod_Potential_Energy-OPLS-2005>
-36.546329498291

> <r_mmod_Stretch_Energy-OPLS-2005>
33.711841583252

> <r_mmod_Bend_Energy-OPLS-2005>
91.6776428222656

> <r_mmod_Torsional_Energy-OPLS-2005>
238.661239624023

> <r_mmod_Improper_Torsional_Energy-OPLS-2005>
6.03565263748169

> <r_mmod_Van_der_Waal_Energy-OPLS-2005>
147.757171630859

> <r_mmod_Electrostatic_Energy-OPLS-2005>
-362.870330810547

> <r_mmod_Solvation_Energy-OPLS-2005>
-202.273651123047

> <b_mmod_Minimization_Converged-OPLS-2005>
0

> <r_mmod_RMS_Derivative-OPLS-2005>
7.59305953979492

$$$$
55
                    3D
 Structure written by MMmdl.
189198  0  0  1  0            999 V2000
  -30.4263  -15.1934   20.3726 C   0  0  0  0  0  0
  -30.4542  -12.7452   19.5378 C   0  0  0  0  0  0
  -29.5403  -12.5789   18.2975 C   0  0  0  0  0  0
  -28.0864  -12.3031   18.7112 C   0  0  0  0  0  0
  -27.6229  -13.2670   19.8289 C   0  0  2  0  0  0
  -28.6548  -13.3942   20.9677 C   0  0  0  0  0  0
  -25.2455  -13.8242   20.5729 C   0  0  0  0  0  0
  -24.1782  -13.0434   20.9217 C   0  0  0  0  0  0
  -24.6422  -11.6933   20.8739 C   0  0  0  0  0  0
  -23.9104  -10.4294   21.0398 C   0  0  0  0  0  0
  -24.3650   -9.4212   21.9185 C   0  0  0  0  0  0
  -23.6317   -8.2256   22.0759 C   0  0  0  0  0  0
  -22.4289   -8.0300   21.3556 C   0  0  0  0  0  0
  -21.9930   -9.0270   20.4661 C   0  0  0  0  0  0
  -22.7270  -10.2135   20.3060 C   0  0  0  0  0  0
  -21.6866   -6.0751   22.5289 C   0  0  0  0  0  0
  -21.4028   -6.5653   23.8220 C   0  0  0  0  0  0
  -21.3658   -5.6805   24.9180 C   0  0  0  0  0  0
  -21.6039   -4.3067   24.7236 C   0  0  0  0  0  0
  -21.8819   -3.8161   23.4360 C   0  0  0  0  0  0
  -21.9198   -4.6979   22.3418 C   0  0  0  0  0  0
  -22.7797  -13.5198   21.1873 C   0  0  0  0  0  0
  -22.1656   -4.2156   21.0994 F   0  0  0  0  0  0
  -21.5616   -3.4558   25.7748 F   0  0  0  0  0  0
  -29.9129  -13.8713   20.3746 N   0  0  0  0  0  0
  -26.2870  -12.9499   20.3206 N   0  0  0  0  0  0
  -25.9352  -11.6609   20.5703 N   0  0  0  0  0  0
  -22.0463  -12.8178   22.0430 N   0  0  0  0  0  0
  -25.4146  -15.1973   20.4189 N   0  0  0  0  0  0
  -31.6420  -15.2388   20.1397 O   0  0  0  0  0  0
  -21.6650   -6.8893   21.4245 O   0  0  0  0  0  0
  -22.3470  -14.5503   20.6715 O   0  0  0  0  0  0
  -24.6590  -31.8268   23.1749 C   0  0  0  0  0  0
  -25.9294  -32.4596   23.8190 C   0  0  1  0  0  0
  -27.2202  -26.9718   20.1706 C   0  0  0  0  0  0
  -25.5979  -33.8412   24.2094 N   0  0  0  0  0  0
  -23.4704  -30.4399   21.5222 C   0  0  2  0  0  0
  -24.9240  -28.8373   20.1068 C   0  0  0  0  0  0
  -22.7640  -29.4447   22.4793 C   0  0  0  0  0  0
  -18.0313  -28.1394   22.8468 C   0  0  0  0  0  0
  -24.1493  -36.7209   23.2644 C   0  0  0  0  0  0
  -26.0362  -30.6464   21.3996 C   0  0  0  0  0  0
  -26.1042  -29.2412   20.7422 C   0  0  0  0  0  0
  -27.2443  -28.3260   20.7565 C   0  0  0  0  0  0
  -26.0173  -26.7160   19.4744 C   0  0  0  0  0  0
  -24.9038  -27.5941   19.4544 C   0  0  0  0  0  0
  -23.7067  -29.7586   20.1459 C   0  0  0  0  0  0
  -25.4134  -36.2967   24.0296 C   0  0  1  0  0  0
  -20.5936  -28.3736   23.1202 C   0  0  2  0  0  0
  -20.6785  -26.9420   22.5406 C   0  0  0  0  0  0
  -19.5758  -26.6371   21.5214 C   0  0  0  0  0  0
  -18.1942  -26.7932   22.1620 C   0  0  0  0  0  0
  -19.1574  -28.8887   23.2823 C   0  0  0  0  0  0
  -18.9484  -30.1482   23.8851 C   0  0  0  0  0  0
  -17.6478  -30.6588   24.0554 C   0  0  0  0  0  0
  -25.9100  -34.9350   23.5012 C   0  0  0  0  0  0
  -16.5372  -29.9074   23.6339 C   0  0  0  0  0  0
  -16.7296  -28.6491   23.0364 C   0  0  0  0  0  0
  -26.4564  -31.6527   25.0702 C   0  0  0  0  0  0
  -25.3710  -31.3773   26.1372 C   0  0  0  0  0  0
  -27.0447  -30.2889   24.6417 C   0  0  0  0  0  0
  -27.6054  -32.4339   25.7514 C   0  0  0  0  0  0
  -27.5570  -37.1760   24.8463 C   0  0  0  0  0  0
  -21.4312  -29.3038   22.3556 N   0  0  0  0  0  0
  -26.4277  -37.3705   23.9409 N   0  0  0  0  0  0
  -24.7420  -30.9976   22.0855 N   0  0  0  0  0  0
  -23.4206  -28.8016   23.3020 O   0  0  0  0  0  0
  -28.2335  -25.8955   20.2909 O   0  0  0  0  0  0
  -26.5707  -34.8882   22.4606 O   0  0  0  0  0  0
  -23.5669  -32.1225   23.6866 O   0  0  0  0  0  0
  -29.9837  -20.5536   17.6339 C   0  0  0  0  0  0
  -32.7752  -14.1761   14.0898 C   0  0  0  0  0  0
  -30.0139  -21.5213   18.6543 C   0  0  0  0  0  0
  -29.2397  -21.2893   19.8278 C   0  0  0  0  0  0
  -29.1353  -19.4488   17.7678 C   0  0  0  0  0  0
  -32.0485  -14.3462   15.2413 C   0  0  0  0  0  0
  -28.9561  -19.7675   20.0389 C   0  0  0  0  0  0
  -31.7752  -12.0991   14.9381 C   0  0  0  0  0  0
  -30.3490   -8.7418   17.5039 C   0  0  0  0  0  0
  -32.7387   -8.2591   18.0270 C   0  0  0  0  0  0
  -31.8318   -7.6578   15.7738 C   0  0  0  0  0  0
  -28.6976  -22.7628   20.5608 C   0  0  0  0  0  0
  -29.1337  -18.3570   16.7091 C   0  0  0  0  0  0
  -31.8906  -15.6017   16.0492 C   0  0  0  0  0  0
  -29.9298  -18.4076   20.4644 C   0  0  0  0  0  0
  -31.3508  -10.7082   15.2759 C   0  0  0  0  0  0
  -29.5166  -16.6724   20.4389 C   0  0  0  0  0  0
  -30.4080  -17.4975   16.8416 C   0  0  0  0  0  0
  -30.5324  -16.3098   15.8717 C   0  0  0  0  0  0
  -32.2090  -10.0930   16.4028 C   0  0  0  0  0  0
  -28.1492  -24.3193   19.8625 C   0  0  0  0  0  0
  -30.8243  -22.7902   18.3931 C   0  0  0  0  0  0
  -31.7710   -8.6955   16.9112 C   0  0  0  0  0  0
  -28.4727  -19.1952   18.9146 N   0  0  0  0  0  0
  -31.4714  -13.1584   15.6935 N   0  0  0  0  0  0
  -31.9226  -22.5000   17.6921 F   0  0  0  0  0  0
  -31.2121  -23.4028   19.5115 F   0  0  0  0  0  0
  -32.7921  -12.5119   13.5631 S   0  0  0  0  0  0
  -31.4774  -12.9456   19.2160 H   0  0  0  0  0  0
  -30.4991  -11.8190   20.1125 H   0  0  0  0  0  0
  -29.9065  -11.7769   17.6595 H   0  0  0  0  0  0
  -29.5771  -13.4922   17.7014 H   0  0  0  0  0  0
  -28.0296  -11.2710   19.0624 H   0  0  0  0  0  0
  -27.4242  -12.3695   17.8477 H   0  0  0  0  0  0
  -27.5573  -14.2452   19.3512 H   0  0  0  0  0  0
  -28.7901  -12.4447   21.4881 H   0  0  0  0  0  0
  -28.3086  -14.1106   21.7137 H   0  0  0  0  0  0
  -25.2790   -9.5688   22.4757 H   0  0  0  0  0  0
  -24.0034   -7.4650   22.7464 H   0  0  0  0  0  0
  -21.0865   -8.8789   19.8973 H   0  0  0  0  0  0
  -22.3725  -10.9677   19.6171 H   0  0  0  0  0  0
  -21.2019   -7.6160   23.9721 H   0  0  0  0  0  0
  -21.1470   -6.0539   25.9075 H   0  0  0  0  0  0
  -22.0591   -2.7621   23.2866 H   0  0  0  0  0  0
  -22.4075  -11.9844   22.4833 H   0  0  0  0  0  0
  -21.1082  -13.1191   22.2621 H   0  0  0  0  0  0
  -24.6538  -15.8560   20.5449 H   0  0  0  0  0  0
  -26.2701  -15.6394   20.1067 H   0  0  0  0  0  0
  -26.7364  -32.5146   23.0906 H   0  0  0  0  0  0
  -25.0074  -33.9498   25.0207 H   0  0  0  0  0  0
  -22.7811  -31.2698   21.3550 H   0  0  0  0  0  0
  -23.3763  -35.9532   23.3271 H   0  0  0  0  0  0
  -24.3572  -36.8892   22.2066 H   0  0  0  0  0  0
  -23.7245  -37.6383   23.6727 H   0  0  0  0  0  0
  -26.2136  -31.3901   20.6218 H   0  0  0  0  0  0
  -26.8979  -30.6998   22.0529 H   0  0  0  0  0  0
  -28.1335  -28.6278   21.2923 H   0  0  0  0  0  0
  -25.8944  -25.7728   18.9654 H   0  0  0  0  0  0
  -24.0084  -27.2819   18.9349 H   0  0  0  0  0  0
  -23.8542  -30.5285   19.3873 H   0  0  0  0  0  0
  -22.8180  -29.2076   19.8326 H   0  0  0  0  0  0
  -25.1333  -36.1755   25.0787 H   0  0  0  0  0  0
  -21.0024  -28.3335   24.1326 H   0  0  0  0  0  0
  -20.5649  -26.2356   23.3644 H   0  0  0  0  0  0
  -21.6649  -26.7388   22.1221 H   0  0  0  0  0  0
  -19.6916  -25.6271   21.1267 H   0  0  0  0  0  0
  -19.6700  -27.3163   20.6730 H   0  0  0  0  0  0
  -17.4215  -26.6685   21.4024 H   0  0  0  0  0  0
  -18.0332  -26.0079   22.9018 H   0  0  0  0  0  0
  -19.7962  -30.7313   24.2196 H   0  0  0  0  0  0
  -17.5028  -31.6263   24.5158 H   0  0  0  0  0  0
  -15.5367  -30.2960   23.7688 H   0  0  0  0  0  0
  -15.8696  -28.0795   22.7109 H   0  0  0  0  0  0
  -24.5906  -30.7101   25.7697 H   0  0  0  0  0  0
  -24.8892  -32.2974   26.4690 H   0  0  0  0  0  0
  -25.7966  -30.9019   27.0219 H   0  0  0  0  0  0
  -26.3102  -29.6577   24.1405 H   0  0  0  0  0  0
  -27.3952  -29.7243   25.5069 H   0  0  0  0  0  0
  -27.9060  -30.4057   23.9838 H   0  0  0  0  0  0
  -27.2608  -33.3680   26.1968 H   0  0  0  0  0  0
  -28.3940  -32.6834   25.0403 H   0  0  0  0  0  0
  -28.0637  -31.8548   26.5540 H   0  0  0  0  0  0
  -28.2556  -38.0083   24.7513 H   0  0  0  0  0  0
  -28.1091  -36.2607   24.6278 H   0  0  0  0  0  0
  -27.2286  -37.1388   25.8864 H   0  0  0  0  0  0
  -20.9552  -29.8742   21.6707 H   0  0  0  0  0  0
  -26.0114  -38.2756   24.1426 H   0  0  0  0  0  0
  -30.5550  -20.6877   16.7252 H   0  0  0  0  0  0
  -33.3315  -14.9214   13.5349 H   0  0  0  0  0  0
  -30.0706   -7.7874   17.9530 H   0  0  0  0  0  0
  -29.5958   -8.9660   16.7489 H   0  0  0  0  0  0
  -30.2696   -9.4982   18.2857 H   0  0  0  0  0  0
  -32.4763   -7.2775   18.4239 H   0  0  0  0  0  0
  -32.7253   -8.9598   18.8635 H   0  0  0  0  0  0
  -33.7669   -8.2004   17.6680 H   0  0  0  0  0  0
  -31.5817   -6.6583   16.1318 H   0  0  0  0  0  0
  -32.8291   -7.6053   15.3355 H   0  0  0  0  0  0
  -31.1336   -7.8890   14.9691 H   0  0  0  0  0  0
  -29.4994  -23.0237   21.2530 H   0  0  0  0  0  0
  -27.8925  -22.4502   21.2263 H   0  0  0  0  0  0
  -29.0873  -18.8156   15.7206 H   0  0  0  0  0  0
  -28.2405  -17.7400   16.8147 H   0  0  0  0  0  0
  -32.6918  -16.3003   15.8041 H   0  0  0  0  0  0
  -32.0312  -15.3621   17.1043 H   0  0  0  0  0  0
  -30.2404  -18.6154   21.4873 H   0  0  0  0  0  0
  -30.8510  -18.5115   19.8905 H   0  0  0  0  0  0
  -31.4220  -10.1033   14.3725 H   0  0  0  0  0  0
  -30.2966  -10.7361   15.5504 H   0  0  0  0  0  0
  -28.8927  -16.5677   19.5521 H   0  0  0  0  0  0
  -28.8140  -16.5263   21.2579 H   0  0  0  0  0  0
  -30.4732  -17.1145   17.8581 H   0  0  0  0  0  0
  -31.2767  -18.1451   16.7206 H   0  0  0  0  0  0
  -29.7207  -15.6034   16.0539 H   0  0  0  0  0  0
  -30.4301  -16.6500   14.8410 H   0  0  0  0  0  0
  -32.2125  -10.7850   17.2480 H   0  0  0  0  0  0
  -33.2439  -10.0459   16.0603 H   0  0  0  0  0  0
  -27.1015  -24.1343   19.6383 H   0  0  0  0  0  0
  -28.5983  -24.3549   18.8741 H   0  0  0  0  0  0
  -30.2615  -23.4986   17.7867 H   0  0  0  0  0  0
  1 25  1  0  0  0
  1 30  2  0  0  0
  1 87  1  0  0  0
  2  3  1  0  0  0
  2 25  1  0  0  0
  2 99  1  0  0  0
  2100  1  0  0  0
  3  4  1  0  0  0
  3101  1  0  0  0
  3102  1  0  0  0
  4  5  1  0  0  0
  4103  1  0  0  0
  4104  1  0  0  0
  5  6  1  0  0  0
  5 26  1  0  0  0
  5105  1  0  0  0
  6 25  1  0  0  0
  6106  1  0  0  0
  6107  1  0  0  0
  7  8  2  0  0  0
  7 26  1  0  0  0
  7 29  1  0  0  0
  8  9  1  0  0  0
  8 22  1  0  0  0
  9 10  1  0  0  0
  9 27  2  0  0  0
 10 11  2  0  0  0
 10 15  1  0  0  0
 11 12  1  0  0  0
 11108  1  0  0  0
 12 13  2  0  0  0
 12109  1  0  0  0
 13 14  1  0  0  0
 13 31  1  0  0  0
 14 15  2  0  0  0
 14110  1  0  0  0
 15111  1  0  0  0
 16 17  2  0  0  0
 16 21  1  0  0  0
 16 31  1  0  0  0
 17 18  1  0  0  0
 17112  1  0  0  0
 18 19  2  0  0  0
 18113  1  0  0  0
 19 20  1  0  0  0
 19 24  1  0  0  0
 20 21  2  0  0  0
 20114  1  0  0  0
 21 23  1  0  0  0
 22 28  1  0  0  0
 22 32  2  0  0  0
 26 27  1  0  0  0
 28115  1  0  0  0
 28116  1  0  0  0
 29117  1  0  0  0
 29118  1  0  0  0
 33 34  1  0  0  0
 33 66  1  0  0  0
 33 70  2  0  0  0
 34 36  1  0  0  0
 34 59  1  0  0  0
 34119  1  0  0  0
 35 44  2  0  0  0
 35 45  1  0  0  0
 35 68  1  0  0  0
 36 56  1  0  0  0
 36120  1  0  0  0
 37 39  1  0  0  0
 37 47  1  0  0  0
 37 66  1  0  0  0
 37121  1  0  0  0
 38 43  2  0  0  0
 38 46  1  0  0  0
 38 47  1  0  0  0
 39 64  1  0  0  0
 39 67  2  0  0  0
 40 52  1  0  0  0
 40 53  2  0  0  0
 40 58  1  0  0  0
 41122  1  0  0  0
 41123  1  0  0  0
 41124  1  0  0  0
 41 48  1  0  0  0
 42 43  1  0  0  0
 42 66  1  0  0  0
 42125  1  0  0  0
 42126  1  0  0  0
 43 44  1  0  0  0
 44127  1  0  0  0
 45 46  2  0  0  0
 45128  1  0  0  0
 46129  1  0  0  0
 47130  1  0  0  0
 47131  1  0  0  0
 48 56  1  0  0  0
 48 65  1  0  0  0
 48132  1  0  0  0
 49 50  1  0  0  0
 49 53  1  0  0  0
 49 64  1  0  0  0
 49133  1  0  0  0
 50 51  1  0  0  0
 50134  1  0  0  0
 50135  1  0  0  0
 51 52  1  0  0  0
 51136  1  0  0  0
 51137  1  0  0  0
 52138  1  0  0  0
 52139  1  0  0  0
 53 54  1  0  0  0
 54 55  2  0  0  0
 54140  1  0  0  0
 55 57  1  0  0  0
 55141  1  0  0  0
 56 69  2  0  0  0
 57 58  2  0  0  0
 57142  1  0  0  0
 58143  1  0  0  0
 59 60  1  0  0  0
 59 61  1  0  0  0
 59 62  1  0  0  0
 60144  1  0  0  0
 60145  1  0  0  0
 60146  1  0  0  0
 61147  1  0  0  0
 61148  1  0  0  0
 61149  1  0  0  0
 62150  1  0  0  0
 62151  1  0  0  0
 62152  1  0  0  0
 63 65  1  0  0  0
 63153  1  0  0  0
 63154  1  0  0  0
 63155  1  0  0  0
 64156  1  0  0  0
 65157  1  0  0  0
 68 91  1  0  0  0
 71 73  2  0  0  0
 71 75  1  0  0  0
 71158  1  0  0  0
 72 76  2  0  0  0
 72 98  1  0  0  0
 72159  1  0  0  0
 73 74  1  0  0  0
 73 92  1  0  0  0
 74 77  2  0  0  0
 74 82  1  0  0  0
 75 83  1  0  0  0
 75 94  2  0  0  0
 76 84  1  0  0  0
 76 95  1  0  0  0
 77 85  1  0  0  0
 77 94  1  0  0  0
 78 86  1  0  0  0
 78 95  2  0  0  0
 78 98  1  0  0  0
 79160  1  0  0  0
 79161  1  0  0  0
 79162  1  0  0  0
 79 93  1  0  0  0
 80 93  1  0  0  0
 80163  1  0  0  0
 80164  1  0  0  0
 80165  1  0  0  0
 81 93  1  0  0  0
 81166  1  0  0  0
 81167  1  0  0  0
 81168  1  0  0  0
 82 91  1  0  0  0
 82169  1  0  0  0
 82170  1  0  0  0
 83 88  1  0  0  0
 83171  1  0  0  0
 83172  1  0  0  0
 84 89  1  0  0  0
 84173  1  0  0  0
 84174  1  0  0  0
 85 87  1  0  0  0
 85175  1  0  0  0
 85176  1  0  0  0
 86 90  1  0  0  0
 86177  1  0  0  0
 86178  1  0  0  0
 87179  1  0  0  0
 87180  1  0  0  0
 88 89  1  0  0  0
 88181  1  0  0  0
 88182  1  0  0  0
 89183  1  0  0  0
 89184  1  0  0  0
 90 93  1  0  0  0
 90185  1  0  0  0
 90186  1  0  0  0
 91187  1  0  0  0
 91188  1  0  0  0
 92 96  1  0  0  0
 92 97  1  0  0  0
 92189  1  0  0  0
M  ISO  4   1 100  68 101  87 100  91 101
M  END
> <chiral flag>
0

> <version>
0

> <s_m_source_file>
/data/baiqing/PycharmProjects/Reinvent-master-3.2/result/LINK_invent/BTK/process_docking_weight1_custom_sum_contain_oxygen_bond_distance_aromatic_linkinvent_7_9_3/rearranged_h_0032.sdf

> <i_m_source_file_index>
56

> <r_mmod_Potential_Energy-OPLS-2005>
1107.60888671875

> <r_mmod_Stretch_Energy-OPLS-2005>
562.686767578125

> <r_mmod_Bend_Energy-OPLS-2005>
468.477905273438

> <r_mmod_Torsional_Energy-OPLS-2005>
339.852233886719

> <r_mmod_Improper_Torsional_Energy-OPLS-2005>
19.5045261383057

> <r_mmod_Van_der_Waal_Energy-OPLS-2005>
110.075202941895

> <r_mmod_Electrostatic_Energy-OPLS-2005>
-572.323364257812

> <r_mmod_Solvation_Energy-OPLS-2005>
-211.768432617188

> <b_mmod_Minimization_Converged-OPLS-2005>
0

> <r_mmod_RMS_Derivative-OPLS-2005>
1.90849566459656

$$$$
56
                    3D
 Structure written by MMmdl.
157165  0  0  1  0            999 V2000
  -30.5271  -14.9378   20.4173 C   0  0  0  0  0  0
  -30.4388  -12.5776   19.5036 C   0  0  0  0  0  0
  -29.5216  -12.5355   18.2587 C   0  0  0  0  0  0
  -28.0513  -12.3249   18.6701 C   0  0  0  0  0  0
  -27.6295  -13.2479   19.8438 C   0  0  2  0  0  0
  -28.6695  -13.2608   20.9843 C   0  0  0  0  0  0
  -25.2444  -13.8219   20.5713 C   0  0  0  0  0  0
  -24.1767  -13.0447   20.9231 C   0  0  0  0  0  0
  -24.6379  -11.6928   20.8750 C   0  0  0  0  0  0
  -23.9070  -10.4298   21.0401 C   0  0  0  0  0  0
  -24.3623   -9.4214   21.9179 C   0  0  0  0  0  0
  -23.6300   -8.2249   22.0746 C   0  0  0  0  0  0
  -22.4280   -8.0286   21.3545 C   0  0  0  0  0  0
  -21.9919   -9.0254   20.4642 C   0  0  0  0  0  0
  -22.7242  -10.2135   20.3049 C   0  0  0  0  0  0
  -21.6857   -6.0736   22.5277 C   0  0  0  0  0  0
  -21.4016   -6.5638   23.8211 C   0  0  0  0  0  0
  -21.3662   -5.6789   24.9173 C   0  0  0  0  0  0
  -21.6044   -4.3052   24.7222 C   0  0  0  0  0  0
  -21.8815   -3.8145   23.4342 C   0  0  0  0  0  0
  -21.9193   -4.6964   22.3400 C   0  0  0  0  0  0
  -22.7782  -13.5207   21.1894 C   0  0  0  0  0  0
  -22.1659   -4.2152   21.0979 F   0  0  0  0  0  0
  -21.5638   -3.4534   25.7734 F   0  0  0  0  0  0
  -29.9505  -13.6697   20.3933 N   0  0  0  0  0  0
  -26.2871  -12.9450   20.3257 N   0  0  0  0  0  0
  -25.9310  -11.6576   20.5738 N   0  0  0  0  0  0
  -22.0430  -12.8191   22.0446 N   0  0  0  0  0  0
  -25.4092  -15.1949   20.4127 N   0  0  0  0  0  0
  -31.7221  -15.0231   20.1150 O   0  0  0  0  0  0
  -21.6647   -6.8880   21.4240 O   0  0  0  0  0  0
  -22.3462  -14.5512   20.6735 O   0  0  0  0  0  0
  -24.6439  -31.8419   23.1869 C   0  0  0  0  0  0
  -25.9205  -32.4683   23.8263 C   0  0  1  0  0  0
  -27.2156  -27.1225   20.1526 C   0  0  0  0  0  0
  -25.5950  -33.8494   24.2179 N   0  0  0  0  0  0
  -23.4477  -30.4614   21.5319 C   0  0  2  0  0  0
  -24.8965  -28.8853   20.1068 C   0  0  0  0  0  0
  -22.7571  -29.4538   22.4854 C   0  0  0  0  0  0
  -18.0300  -28.1400   22.8463 C   0  0  0  0  0  0
  -24.1497  -36.7260   23.2645 C   0  0  0  0  0  0
  -26.0048  -30.7115   21.3884 C   0  0  0  0  0  0
  -26.0719  -29.3218   20.7287 C   0  0  0  0  0  0
  -27.2279  -28.4548   20.7360 C   0  0  0  0  0  0
  -26.0148  -26.7926   19.4840 C   0  0  0  0  0  0
  -24.8820  -27.6360   19.4689 C   0  0  0  0  0  0
  -23.6732  -29.7879   20.1512 C   0  0  0  0  0  0
  -25.4134  -36.3031   24.0309 C   0  0  1  0  0  0
  -20.5909  -28.3722   23.1234 C   0  0  2  0  0  0
  -20.6779  -26.9427   22.5404 C   0  0  0  0  0  0
  -19.5758  -26.6377   21.5211 C   0  0  0  0  0  0
  -18.1938  -26.7937   22.1615 C   0  0  0  0  0  0
  -19.1559  -28.8880   23.2835 C   0  0  0  0  0  0
  -18.9478  -30.1475   23.8866 C   0  0  0  0  0  0
  -17.6470  -30.6590   24.0558 C   0  0  0  0  0  0
  -25.9082  -34.9397   23.5057 C   0  0  0  0  0  0
  -16.5360  -29.9081   23.6339 C   0  0  0  0  0  0
  -16.7286  -28.6506   23.0354 C   0  0  0  0  0  0
  -26.4523  -31.6569   25.0720 C   0  0  0  0  0  0
  -25.3697  -31.3746   26.1407 C   0  0  0  0  0  0
  -27.0397  -30.2961   24.6332 C   0  0  0  0  0  0
  -27.6058  -32.4341   25.7495 C   0  0  0  0  0  0
  -27.5580  -37.1789   24.8466 C   0  0  0  0  0  0
  -21.4262  -29.3043   22.3605 N   0  0  0  0  0  0
  -26.4297  -37.3745   23.9402 N   0  0  0  0  0  0
  -24.7189  -31.0272   22.0901 N   0  0  0  0  0  0
  -23.4213  -28.8096   23.3013 O   0  0  0  0  0  0
  -28.2847  -26.1573   20.2685 O   0  0  0  0  0  0
  -26.5677  -34.8883   22.4642 O   0  0  0  0  0  0
  -23.5555  -32.1293   23.7085 O   0  0  0  0  0  0
  -28.9909  -18.3198   22.4298 C   0  0  0  0  0  0
  -29.2625  -18.8208   21.1919 C   0  0  0  0  0  0
  -28.8855  -20.3205   21.2613 C   0  0  0  0  0  0
  -28.4314  -20.4744   22.5695 C   0  0  0  0  0  0
  -27.8948  -21.6675   23.3157 C   0  0  0  0  0  0
  -28.0947  -19.0067   24.6322 C   0  0  0  0  0  0
  -28.8505  -21.6659   20.2684 C   0  0  0  0  0  0
  -29.8746  -17.6398   20.2296 C   0  0  0  0  0  0
  -28.5638  -23.2826   20.7592 C   0  0  0  0  0  0
  -28.2807  -24.6565   19.8211 C   0  0  0  0  0  0
  -28.4901  -19.2746   23.2553 N   0  0  0  0  0  0
  -29.7164  -16.0950   20.5653 N   0  0  0  0  0  0
  -31.4742  -12.7353   19.1976 H   0  0  0  0  0  0
  -30.4253  -11.6207   20.0283 H   0  0  0  0  0  0
  -29.8379  -11.7428   17.5792 H   0  0  0  0  0  0
  -29.6160  -13.4714   17.7051 H   0  0  0  0  0  0
  -27.9341  -11.2800   18.9613 H   0  0  0  0  0  0
  -27.3918  -12.4762   17.8143 H   0  0  0  0  0  0
  -27.5965  -14.2543   19.4257 H   0  0  0  0  0  0
  -28.7476  -12.2794   21.4544 H   0  0  0  0  0  0
  -28.3675  -13.9565   21.7690 H   0  0  0  0  0  0
  -25.2756   -9.5694   22.4769 H   0  0  0  0  0  0
  -24.0006   -7.4632   22.7454 H   0  0  0  0  0  0
  -21.0856   -8.8760   19.8943 H   0  0  0  0  0  0
  -22.3683  -10.9675   19.6165 H   0  0  0  0  0  0
  -21.2004   -7.6143   23.9719 H   0  0  0  0  0  0
  -21.1494   -6.0516   25.9078 H   0  0  0  0  0  0
  -22.0592   -2.7607   23.2839 H   0  0  0  0  0  0
  -22.4052  -11.9863   22.4852 H   0  0  0  0  0  0
  -21.1037  -13.1195   22.2642 H   0  0  0  0  0  0
  -24.6359  -15.8415   20.5239 H   0  0  0  0  0  0
  -26.2479  -15.6413   20.0663 H   0  0  0  0  0  0
  -26.7262  -32.5271   23.0981 H   0  0  0  0  0  0
  -25.0077  -33.9618   25.0311 H   0  0  0  0  0  0
  -22.7507  -31.2873   21.3751 H   0  0  0  0  0  0
  -23.3754  -35.9594   23.3295 H   0  0  0  0  0  0
  -24.3591  -36.8913   22.2065 H   0  0  0  0  0  0
  -23.7236  -37.6444   23.6697 H   0  0  0  0  0  0
  -26.1680  -31.4651   20.6163 H   0  0  0  0  0  0
  -26.8738  -30.7581   22.0341 H   0  0  0  0  0  0
  -28.1216  -28.7824   21.2478 H   0  0  0  0  0  0
  -25.9003  -25.8430   18.9883 H   0  0  0  0  0  0
  -23.9831  -27.3003   18.9703 H   0  0  0  0  0  0
  -23.8072  -30.5611   19.3938 H   0  0  0  0  0  0
  -22.7876  -29.2293   19.8426 H   0  0  0  0  0  0
  -25.1312  -36.1874   25.0797 H   0  0  0  0  0  0
  -20.9989  -28.3311   24.1362 H   0  0  0  0  0  0
  -20.5676  -26.2339   23.3623 H   0  0  0  0  0  0
  -21.6643  -26.7440   22.1202 H   0  0  0  0  0  0
  -19.6926  -25.6281   21.1264 H   0  0  0  0  0  0
  -19.6695  -27.3165   20.6721 H   0  0  0  0  0  0
  -17.4206  -26.6674   21.4017 H   0  0  0  0  0  0
  -18.0334  -26.0096   22.9028 H   0  0  0  0  0  0
  -19.7957  -30.7295   24.2219 H   0  0  0  0  0  0
  -17.5030  -31.6269   24.5161 H   0  0  0  0  0  0
  -15.5361  -30.2973   23.7687 H   0  0  0  0  0  0
  -15.8685  -28.0814   22.7086 H   0  0  0  0  0  0
  -24.5897  -30.7082   25.7708 H   0  0  0  0  0  0
  -24.8860  -32.2915   26.4779 H   0  0  0  0  0  0
  -25.7968  -30.8946   27.0222 H   0  0  0  0  0  0
  -26.3020  -29.6671   24.1342 H   0  0  0  0  0  0
  -27.3987  -29.7285   25.4927 H   0  0  0  0  0  0
  -27.8932  -30.4180   23.9664 H   0  0  0  0  0  0
  -27.2670  -33.3677   26.1992 H   0  0  0  0  0  0
  -28.3898  -32.6852   25.0340 H   0  0  0  0  0  0
  -28.0693  -31.8524   26.5470 H   0  0  0  0  0  0
  -28.2582  -38.0101   24.7518 H   0  0  0  0  0  0
  -28.1085  -36.2625   24.6283 H   0  0  0  0  0  0
  -27.2301  -37.1423   25.8871 H   0  0  0  0  0  0
  -20.9483  -29.8767   21.6787 H   0  0  0  0  0  0
  -26.0162  -38.2813   24.1396 H   0  0  0  0  0  0
  -29.1212  -17.3138   22.8091 H   0  0  0  0  0  0
  -26.9343  -21.9790   22.9073 H   0  0  0  0  0  0
  -28.5942  -22.5010   23.2903 H   0  0  0  0  0  0
  -27.7167  -21.4828   24.3726 H   0  0  0  0  0  0
  -28.2935  -17.9675   24.8962 H   0  0  0  0  0  0
  -27.0280  -19.1971   24.7582 H   0  0  0  0  0  0
  -28.6621  -19.6382   25.3151 H   0  0  0  0  0  0
  -28.0979  -21.4339   19.5140 H   0  0  0  0  0  0
  -29.7945  -21.6576   19.7230 H   0  0  0  0  0  0
  -29.4616  -17.7937   19.2326 H   0  0  0  0  0  0
  -30.9417  -17.8375   20.1279 H   0  0  0  0  0  0
  -29.3762  -23.5441   21.4366 H   0  0  0  0  0  0
  -27.6639  -23.2687   21.3631 H   0  0  0  0  0  0
  -27.3746  -24.4449   19.2609 H   0  0  0  0  0  0
  -29.0570  -24.6312   19.0568 H   0  0  0  0  0  0
  -28.7663  -15.8547   20.8029 H   0  0  0  0  0  0
  1 25  1  0  0  0
  1 30  2  0  0  0
  1 82  1  0  0  0
  2  3  1  0  0  0
  2 25  1  0  0  0
  2 83  1  0  0  0
  2 84  1  0  0  0
  3  4  1  0  0  0
  3 85  1  0  0  0
  3 86  1  0  0  0
  4  5  1  0  0  0
  4 87  1  0  0  0
  4 88  1  0  0  0
  5  6  1  0  0  0
  5 26  1  0  0  0
  5 89  1  0  0  0
  6 25  1  0  0  0
  6 90  1  0  0  0
  6 91  1  0  0  0
  7  8  2  0  0  0
  7 26  1  0  0  0
  7 29  1  0  0  0
  8  9  1  0  0  0
  8 22  1  0  0  0
  9 10  1  0  0  0
  9 27  2  0  0  0
 10 11  2  0  0  0
 10 15  1  0  0  0
 11 12  1  0  0  0
 11 92  1  0  0  0
 12 13  2  0  0  0
 12 93  1  0  0  0
 13 14  1  0  0  0
 13 31  1  0  0  0
 14 15  2  0  0  0
 14 94  1  0  0  0
 15 95  1  0  0  0
 16 17  2  0  0  0
 16 21  1  0  0  0
 16 31  1  0  0  0
 17 18  1  0  0  0
 17 96  1  0  0  0
 18 19  2  0  0  0
 18 97  1  0  0  0
 19 20  1  0  0  0
 19 24  1  0  0  0
 20 21  2  0  0  0
 20 98  1  0  0  0
 21 23  1  0  0  0
 22 28  1  0  0  0
 22 32  2  0  0  0
 26 27  1  0  0  0
 28 99  1  0  0  0
 28100  1  0  0  0
 29101  1  0  0  0
 29102  1  0  0  0
 33 34  1  0  0  0
 33 66  1  0  0  0
 33 70  2  0  0  0
 34 36  1  0  0  0
 34 59  1  0  0  0
 34103  1  0  0  0
 35 44  2  0  0  0
 35 45  1  0  0  0
 35 68  1  0  0  0
 36 56  1  0  0  0
 36104  1  0  0  0
 37 39  1  0  0  0
 37 47  1  0  0  0
 37 66  1  0  0  0
 37105  1  0  0  0
 38 43  2  0  0  0
 38 46  1  0  0  0
 38 47  1  0  0  0
 39 64  1  0  0  0
 39 67  2  0  0  0
 40 52  1  0  0  0
 40 53  2  0  0  0
 40 58  1  0  0  0
 41106  1  0  0  0
 41107  1  0  0  0
 41108  1  0  0  0
 41 48  1  0  0  0
 42 43  1  0  0  0
 42 66  1  0  0  0
 42109  1  0  0  0
 42110  1  0  0  0
 43 44  1  0  0  0
 44111  1  0  0  0
 45 46  2  0  0  0
 45112  1  0  0  0
 46113  1  0  0  0
 47114  1  0  0  0
 47115  1  0  0  0
 48 56  1  0  0  0
 48 65  1  0  0  0
 48116  1  0  0  0
 49 50  1  0  0  0
 49 53  1  0  0  0
 49 64  1  0  0  0
 49117  1  0  0  0
 50 51  1  0  0  0
 50118  1  0  0  0
 50119  1  0  0  0
 51 52  1  0  0  0
 51120  1  0  0  0
 51121  1  0  0  0
 52122  1  0  0  0
 52123  1  0  0  0
 53 54  1  0  0  0
 54 55  2  0  0  0
 54124  1  0  0  0
 55 57  1  0  0  0
 55125  1  0  0  0
 56 69  2  0  0  0
 57 58  2  0  0  0
 57126  1  0  0  0
 58127  1  0  0  0
 59 60  1  0  0  0
 59 61  1  0  0  0
 59 62  1  0  0  0
 60128  1  0  0  0
 60129  1  0  0  0
 60130  1  0  0  0
 61131  1  0  0  0
 61132  1  0  0  0
 61133  1  0  0  0
 62134  1  0  0  0
 62135  1  0  0  0
 62136  1  0  0  0
 63 65  1  0  0  0
 63137  1  0  0  0
 63138  1  0  0  0
 63139  1  0  0  0
 64140  1  0  0  0
 65141  1  0  0  0
 68 80  1  0  0  0
 71 72  2  0  0  0
 71 81  1  0  0  0
 71142  1  0  0  0
 72 73  1  0  0  0
 72 78  1  0  0  0
 73 74  2  0  0  0
 73 77  1  0  0  0
 74 75  1  0  0  0
 74 81  1  0  0  0
 75143  1  0  0  0
 75144  1  0  0  0
 75145  1  0  0  0
 76 81  1  0  0  0
 76146  1  0  0  0
 76147  1  0  0  0
 76148  1  0  0  0
 77 79  1  0  0  0
 77149  1  0  0  0
 77150  1  0  0  0
 78 82  1  0  0  0
 78151  1  0  0  0
 78152  1  0  0  0
 79 80  1  0  0  0
 79153  1  0  0  0
 79154  1  0  0  0
 80155  1  0  0  0
 80156  1  0  0  0
 82157  1  0  0  0
M  ISO  4   1 100  68 101  80 101  82 100
M  END
> <chiral flag>
0

> <version>
0

> <s_m_source_file>
/data/baiqing/PycharmProjects/Reinvent-master-3.2/result/LINK_invent/BTK/process_docking_weight1_custom_sum_contain_oxygen_bond_distance_aromatic_linkinvent_7_9_3/rearranged_h_0032.sdf

> <i_m_source_file_index>
57

> <r_mmod_Potential_Energy-OPLS-2005>
473.492523193359

> <r_mmod_Stretch_Energy-OPLS-2005>
295.526763916016

> <r_mmod_Bend_Energy-OPLS-2005>
311.395050048828

> <r_mmod_Torsional_Energy-OPLS-2005>
198.284378051758

> <r_mmod_Improper_Torsional_Energy-OPLS-2005>
5.22817659378052

> <r_mmod_Van_der_Waal_Energy-OPLS-2005>
126.326629638672

> <r_mmod_Electrostatic_Energy-OPLS-2005>
-436.26025390625

> <r_mmod_Solvation_Energy-OPLS-2005>
-219.895065307617

> <b_mmod_Minimization_Converged-OPLS-2005>
0

> <r_mmod_RMS_Derivative-OPLS-2005>
1.35224580764771

$$$$
57
                    3D
 Structure written by MMmdl.
160168  0  0  1  0            999 V2000
  -29.6241  -16.5565   20.5914 C   0  0  0  0  0  0
  -30.2353  -13.8554   19.6592 C   0  0  0  0  0  0
  -29.5594  -12.9992   18.4983 C   0  0  0  0  0  0
  -28.2276  -12.3863   18.9277 C   0  0  0  0  0  0
  -27.5393  -13.3940   19.8572 C   0  0  2  0  0  0
  -28.4139  -14.0155   20.9889 C   0  0  0  0  0  0
  -25.1944  -13.8362   20.5860 C   0  0  0  0  0  0
  -24.1468  -13.0396   20.9281 C   0  0  0  0  0  0
  -24.6308  -11.6944   20.8746 C   0  0  0  0  0  0
  -23.9092  -10.4271   21.0389 C   0  0  0  0  0  0
  -24.3654   -9.4202   21.9181 C   0  0  0  0  0  0
  -23.6315   -8.2243   22.0761 C   0  0  0  0  0  0
  -22.4293   -8.0282   21.3542 C   0  0  0  0  0  0
  -21.9930   -9.0250   20.4638 C   0  0  0  0  0  0
  -22.7267  -10.2113   20.3039 C   0  0  0  0  0  0
  -21.6866   -6.0744   22.5284 C   0  0  0  0  0  0
  -21.4020   -6.5646   23.8218 C   0  0  0  0  0  0
  -21.3653   -5.6797   24.9178 C   0  0  0  0  0  0
  -21.6040   -4.3061   24.7227 C   0  0  0  0  0  0
  -21.8818   -3.8151   23.4350 C   0  0  0  0  0  0
  -21.9190   -4.6967   22.3405 C   0  0  0  0  0  0
  -22.7494  -13.5074   21.1922 C   0  0  0  0  0  0
  -22.1661   -4.2150   21.0982 F   0  0  0  0  0  0
  -21.5622   -3.4551   25.7741 F   0  0  0  0  0  0
  -29.3546  -15.0119   20.3669 N   0  0  0  0  0  0
  -26.2440  -12.9824   20.3362 N   0  0  0  0  0  0
  -25.9274  -11.6802   20.5666 N   0  0  0  0  0  0
  -22.0203  -12.8072   22.0516 N   0  0  0  0  0  0
  -25.3439  -15.2133   20.4317 N   0  0  0  0  0  0
  -30.8909  -16.4240   20.4651 O   0  0  0  0  0  0
  -21.6652   -6.8885   21.4246 O   0  0  0  0  0  0
  -22.3189  -14.5396   20.6769 O   0  0  0  0  0  0
  -24.7324  -31.4427   23.2906 C   0  0  0  0  0  0
  -25.9253  -32.3175   23.8368 C   0  0  1  0  0  0
  -27.7159  -27.2214   19.5041 C   0  0  0  0  0  0
  -25.5277  -33.7321   24.1400 N   0  0  0  0  0  0
  -23.5164  -29.5875   21.8837 C   0  0  2  0  0  0
  -25.2621  -28.3084   19.5593 C   0  0  0  0  0  0
  -22.6451  -29.0593   22.8641 C   0  0  0  0  0  0
  -17.9499  -28.1271   22.8396 C   0  0  0  0  0  0
  -24.1458  -36.6766   23.2687 C   0  0  0  0  0  0
  -26.4373  -29.8233   21.9387 C   0  0  0  0  0  0
  -26.6068  -28.8978   20.3907 C   0  0  0  0  0  0
  -27.7883  -28.3391   20.2852 C   0  0  0  0  0  0
  -26.6464  -26.8971   18.6040 C   0  0  0  0  0  0
  -25.3779  -27.4360   18.5914 C   0  0  0  0  0  0
  -23.5889  -28.5617   20.3106 C   0  0  0  0  0  0
  -25.4105  -36.2320   24.0251 C   0  0  1  0  0  0
  -20.4566  -28.2361   23.2523 C   0  0  2  0  0  0
  -20.5537  -26.8338   22.6084 C   0  0  0  0  0  0
  -19.5020  -26.6126   21.5283 C   0  0  0  0  0  0
  -18.1070  -26.7895   22.1348 C   0  0  0  0  0  0
  -19.0708  -28.8385   23.3212 C   0  0  0  0  0  0
  -18.9010  -30.1114   23.9082 C   0  0  0  0  0  0
  -17.6146  -30.6582   24.0519 C   0  0  0  0  0  0
  -25.8965  -34.8551   23.4881 C   0  0  0  0  0  0
  -16.4941  -29.9282   23.6170 C   0  0  0  0  0  0
  -16.6622  -28.6703   23.0087 C   0  0  0  0  0  0
  -26.4930  -31.6626   25.1526 C   0  0  0  0  0  0
  -25.4025  -31.4236   26.2252 C   0  0  0  0  0  0
  -27.1556  -30.3015   24.8859 C   0  0  0  0  0  0
  -27.6021  -32.5446   25.7657 C   0  0  0  0  0  0
  -27.5499  -37.1450   24.8455 C   0  0  0  0  0  0
  -21.3550  -29.1157   22.5792 N   0  0  0  0  0  0
  -26.4224  -37.3149   23.9330 N   0  0  0  0  0  0
  -24.9203  -30.2146   22.6068 N   0  0  0  0  0  0
  -23.1721  -28.5264   23.8244 O   0  0  0  0  0  0
  -28.7753  -26.4205   19.7081 O   0  0  0  0  0  0
  -26.6055  -34.8267   22.4807 O   0  0  0  0  0  0
  -23.6055  -31.8942   23.5675 O   0  0  0  0  0  0
  -26.8339  -23.7655   21.7845 C   0  0  0  0  0  0
  -26.8885  -22.3946   19.7591 C   0  0  0  0  0  0
  -27.2899  -22.1093   21.0982 C   0  0  0  0  0  0
  -26.1010  -25.3800   21.2978 C   0  0  0  0  0  0
  -26.8395  -23.7723   19.3393 C   0  0  0  0  0  0
  -25.8974  -24.6965   20.0240 C   0  0  0  0  0  0
  -24.9342  -30.4264   20.2598 C   0  0  0  0  0  0
  -25.2985  -27.5206   21.7090 C   0  0  0  0  0  0
  -28.3513  -24.0701   19.0907 C   0  0  0  0  0  0
  -28.1988  -20.0872   21.3171 C   0  0  0  0  0  0
  -24.4731  -24.6790   19.4832 C   0  0  0  0  0  0
  -28.9849  -25.4207   18.7294 C   0  0  0  0  0  0
  -28.7405  -18.1197   20.7097 N   0  0  0  0  0  0
  -23.7845  -23.4604   19.7105 O   0  0  0  0  0  0
  -31.1054  -14.3328   19.2089 H   0  0  0  0  0  0
  -30.6754  -13.1972   20.4100 H   0  0  0  0  0  0
  -30.2404  -12.2236   18.1447 H   0  0  0  0  0  0
  -29.3811  -13.6585   17.6480 H   0  0  0  0  0  0
  -28.4197  -11.4609   19.4703 H   0  0  0  0  0  0
  -27.6048  -12.1357   18.0674 H   0  0  0  0  0  0
  -27.3207  -14.2200   19.1778 H   0  0  0  0  0  0
  -28.9002  -13.2569   21.6072 H   0  0  0  0  0  0
  -27.7829  -14.5760   21.6810 H   0  0  0  0  0  0
  -25.2781   -9.5705   22.4785 H   0  0  0  0  0  0
  -24.0010   -7.4650   22.7503 H   0  0  0  0  0  0
  -21.0859   -8.8770   19.8967 H   0  0  0  0  0  0
  -22.3706  -10.9663   19.6172 H   0  0  0  0  0  0
  -21.2027   -7.6159   23.9726 H   0  0  0  0  0  0
  -21.1472   -6.0527   25.9078 H   0  0  0  0  0  0
  -22.0598   -2.7616   23.2853 H   0  0  0  0  0  0
  -22.3860  -11.9746   22.4889 H   0  0  0  0  0  0
  -21.0818  -13.1089   22.2744 H   0  0  0  0  0  0
  -24.5755  -15.8615   20.5554 H   0  0  0  0  0  0
  -26.1948  -15.6667   20.1224 H   0  0  0  0  0  0
  -26.7182  -32.3522   23.0920 H   0  0  0  0  0  0
  -24.8869  -33.8402   24.9128 H   0  0  0  0  0  0
  -22.9162  -30.4622   21.6055 H   0  0  0  0  0  0
  -23.3698  -35.9111   23.3231 H   0  0  0  0  0  0
  -24.3496  -36.8576   22.2113 H   0  0  0  0  0  0
  -23.7234  -37.5900   23.6903 H   0  0  0  0  0  0
  -27.0382  -30.7217   21.8023 H   0  0  0  0  0  0
  -27.0301  -29.2414   22.6328 H   0  0  0  0  0  0
  -28.6132  -28.5422   20.9563 H   0  0  0  0  0  0
  -26.7376  -26.0690   17.9169 H   0  0  0  0  0  0
  -24.5560  -27.0699   17.9888 H   0  0  0  0  0  0
  -22.9336  -29.0072   19.5579 H   0  0  0  0  0  0
  -23.0886  -27.6006   20.4415 H   0  0  0  0  0  0
  -25.1349  -36.1079   25.0751 H   0  0  0  0  0  0
  -20.7601  -28.1378   24.2992 H   0  0  0  0  0  0
  -20.3763  -26.0924   23.3892 H   0  0  0  0  0  0
  -21.5512  -26.6055   22.2329 H   0  0  0  0  0  0
  -19.6008  -25.6158   21.0987 H   0  0  0  0  0  0
  -19.6537  -27.3231   20.7152 H   0  0  0  0  0  0
  -17.3562  -26.7009   21.3481 H   0  0  0  0  0  0
  -17.8997  -25.9931   22.8509 H   0  0  0  0  0  0
  -19.7580  -30.6619   24.2708 H   0  0  0  0  0  0
  -17.4822  -31.6285   24.5099 H   0  0  0  0  0  0
  -15.4996  -30.3386   23.7393 H   0  0  0  0  0  0
  -15.7922  -28.1313   22.6576 H   0  0  0  0  0  0
  -24.6679  -30.6750   25.9282 H   0  0  0  0  0  0
  -24.8603  -32.3391   26.4634 H   0  0  0  0  0  0
  -25.8425  -31.0690   27.1580 H   0  0  0  0  0  0
  -26.4364  -29.5223   24.6402 H   0  0  0  0  0  0
  -27.6403  -29.9334   25.7913 H   0  0  0  0  0  0
  -27.9465  -30.3779   24.1411 H   0  0  0  0  0  0
  -27.2158  -33.4988   26.1257 H   0  0  0  0  0  0
  -28.3819  -32.7675   25.0370 H   0  0  0  0  0  0
  -28.0845  -32.0685   26.6199 H   0  0  0  0  0  0
  -28.2477  -37.9773   24.7406 H   0  0  0  0  0  0
  -28.1035  -36.2265   24.6438 H   0  0  0  0  0  0
  -27.2178  -37.1246   25.8850 H   0  0  0  0  0  0
  -21.0303  -29.6027   21.7560 H   0  0  0  0  0  0
  -26.0018  -38.2227   24.1136 H   0  0  0  0  0  0
  -27.0988  -23.7959   22.8310 H   0  0  0  0  0  0
  -27.2460  -21.6602   19.0507 H   0  0  0  0  0  0
  -24.4364  -31.3195   20.6465 H   0  0  0  0  0  0
  -24.4621  -30.4680   19.2658 H   0  0  0  0  0  0
  -25.8288  -30.9917   19.9421 H   0  0  0  0  0  0
  -25.7193  -27.6532   22.7069 H   0  0  0  0  0  0
  -24.3395  -27.1566   22.0727 H   0  0  0  0  0  0
  -28.6512  -23.3963   18.2884 H   0  0  0  0  0  0
  -28.9139  -23.7435   19.9634 H   0  0  0  0  0  0
  -27.6942  -19.8173   22.2432 H   0  0  0  0  0  0
  -29.1792  -20.4156   21.6588 H   0  0  0  0  0  0
  -24.5238  -24.8431   18.4079 H   0  0  0  0  0  0
  -23.8991  -25.4934   19.9224 H   0  0  0  0  0  0
  -28.7428  -25.7462   17.7189 H   0  0  0  0  0  0
  -30.0639  -25.2583   18.6929 H   0  0  0  0  0  0
  -29.3695  -18.4963   20.0102 H   0  0  0  0  0  0
  -22.9486  -23.5139   19.2567 H   0  0  0  0  0  0
  1 25  1  0  0  0
  1 30  2  0  0  0
  1 83  1  0  0  0
  2  3  1  0  0  0
  2 25  1  0  0  0
  2 85  1  0  0  0
  2 86  1  0  0  0
  3  4  1  0  0  0
  3 87  1  0  0  0
  3 88  1  0  0  0
  4  5  1  0  0  0
  4 89  1  0  0  0
  4 90  1  0  0  0
  5  6  1  0  0  0
  5 26  1  0  0  0
  5 91  1  0  0  0
  6 25  1  0  0  0
  6 92  1  0  0  0
  6 93  1  0  0  0
  7  8  2  0  0  0
  7 26  1  0  0  0
  7 29  1  0  0  0
  8  9  1  0  0  0
  8 22  1  0  0  0
  9 10  1  0  0  0
  9 27  2  0  0  0
 10 11  2  0  0  0
 10 15  1  0  0  0
 11 12  1  0  0  0
 11 94  1  0  0  0
 12 13  2  0  0  0
 12 95  1  0  0  0
 13 14  1  0  0  0
 13 31  1  0  0  0
 14 15  2  0  0  0
 14 96  1  0  0  0
 15 97  1  0  0  0
 16 17  2  0  0  0
 16 21  1  0  0  0
 16 31  1  0  0  0
 17 18  1  0  0  0
 17 98  1  0  0  0
 18 19  2  0  0  0
 18 99  1  0  0  0
 19 20  1  0  0  0
 19 24  1  0  0  0
 20 21  2  0  0  0
 20100  1  0  0  0
 21 23  1  0  0  0
 22 28  1  0  0  0
 22 32  2  0  0  0
 26 27  1  0  0  0
 28101  1  0  0  0
 28102  1  0  0  0
 29103  1  0  0  0
 29104  1  0  0  0
 33 34  1  0  0  0
 33 66  1  0  0  0
 33 70  2  0  0  0
 34 36  1  0  0  0
 34 59  1  0  0  0
 34105  1  0  0  0
 35 44  2  0  0  0
 35 45  1  0  0  0
 35 68  1  0  0  0
 36 56  1  0  0  0
 36106  1  0  0  0
 37 39  1  0  0  0
 37 47  1  0  0  0
 37 66  1  0  0  0
 37107  1  0  0  0
 38 43  2  0  0  0
 38 46  1  0  0  0
 38 47  1  0  0  0
 39 64  1  0  0  0
 39 67  2  0  0  0
 40 52  1  0  0  0
 40 53  2  0  0  0
 40 58  1  0  0  0
 41108  1  0  0  0
 41109  1  0  0  0
 41110  1  0  0  0
 41 48  1  0  0  0
 42 43  1  0  0  0
 42 66  1  0  0  0
 42111  1  0  0  0
 42112  1  0  0  0
 43 44  1  0  0  0
 44113  1  0  0  0
 45 46  2  0  0  0
 45114  1  0  0  0
 46115  1  0  0  0
 47116  1  0  0  0
 47117  1  0  0  0
 48 56  1  0  0  0
 48 65  1  0  0  0
 48118  1  0  0  0
 49 50  1  0  0  0
 49 53  1  0  0  0
 49 64  1  0  0  0
 49119  1  0  0  0
 50 51  1  0  0  0
 50120  1  0  0  0
 50121  1  0  0  0
 51 52  1  0  0  0
 51122  1  0  0  0
 51123  1  0  0  0
 52124  1  0  0  0
 52125  1  0  0  0
 53 54  1  0  0  0
 54 55  2  0  0  0
 54126  1  0  0  0
 55 57  1  0  0  0
 55127  1  0  0  0
 56 69  2  0  0  0
 57 58  2  0  0  0
 57128  1  0  0  0
 58129  1  0  0  0
 59 60  1  0  0  0
 59 61  1  0  0  0
 59 62  1  0  0  0
 60130  1  0  0  0
 60131  1  0  0  0
 60132  1  0  0  0
 61133  1  0  0  0
 61134  1  0  0  0
 61135  1  0  0  0
 62136  1  0  0  0
 62137  1  0  0  0
 62138  1  0  0  0
 63 65  1  0  0  0
 63139  1  0  0  0
 63140  1  0  0  0
 63141  1  0  0  0
 64142  1  0  0  0
 65143  1  0  0  0
 68 82  1  0  0  0
 71 73  2  0  0  0
 71 74  1  0  0  0
 71144  1  0  0  0
 72 73  1  0  0  0
 72 75  2  0  0  0
 72145  1  0  0  0
 73 80  1  0  0  0
 74 76  2  0  0  0
 74 78  1  0  0  0
 75 76  1  0  0  0
 75 79  1  0  0  0
 76 81  1  0  0  0
 77 78  1  0  0  0
 77146  1  0  0  0
 77147  1  0  0  0
 77148  1  0  0  0
 78149  1  0  0  0
 78150  1  0  0  0
 79 82  1  0  0  0
 79151  1  0  0  0
 79152  1  0  0  0
 80 83  1  0  0  0
 80153  1  0  0  0
 80154  1  0  0  0
 81 84  1  0  0  0
 81155  1  0  0  0
 81156  1  0  0  0
 82157  1  0  0  0
 82158  1  0  0  0
 83159  1  0  0  0
 84160  1  0  0  0
M  ISO  4   1 100  68 101  82 101  83 100
M  END
> <chiral flag>
0

> <version>
0

> <s_m_source_file>
/data/baiqing/PycharmProjects/Reinvent-master-3.2/result/LINK_invent/BTK/process_docking_weight1_custom_sum_contain_oxygen_bond_distance_aromatic_linkinvent_7_9_3/rearranged_h_0032.sdf

> <i_m_source_file_index>
58

> <r_mmod_Potential_Energy-OPLS-2005>
14260.3251953125

> <r_mmod_Stretch_Energy-OPLS-2005>
7876.18994140625

> <r_mmod_Bend_Energy-OPLS-2005>
1445.38220214844

> <r_mmod_Torsional_Energy-OPLS-2005>
565.330993652344

> <r_mmod_Improper_Torsional_Energy-OPLS-2005>
49.1977310180664

> <r_mmod_Van_der_Waal_Energy-OPLS-2005>
1836.66638183594

> <r_mmod_Electrostatic_Energy-OPLS-2005>
-375.323028564453

> <r_mmod_Solvation_Energy-OPLS-2005>
-233.687026977539

> <b_mmod_Minimization_Converged-OPLS-2005>
0

> <r_mmod_RMS_Derivative-OPLS-2005>
6.78282785415649

$$$$
58
                    3D
 Structure written by MMmdl.
170178  0  0  1  0            999 V2000
  -30.7884  -14.3447   20.7122 C   0  0  0  0  0  0
  -30.4147  -12.2954   19.3879 C   0  0  0  0  0  0
  -29.4802  -12.5319   18.1887 C   0  0  0  0  0  0
  -28.0074  -12.3800   18.6093 C   0  0  0  0  0  0
  -27.6657  -13.2038   19.8777 C   0  0  2  0  0  0
  -28.7029  -12.9510   20.9930 C   0  0  0  0  0  0
  -25.2602  -13.8159   20.5668 C   0  0  0  0  0  0
  -24.1845  -13.0441   20.9160 C   0  0  0  0  0  0
  -24.6392  -11.6905   20.8723 C   0  0  0  0  0  0
  -23.9056  -10.4294   21.0398 C   0  0  0  0  0  0
  -24.3610   -9.4212   21.9180 C   0  0  0  0  0  0
  -23.6288   -8.2247   22.0754 C   0  0  0  0  0  0
  -22.4270   -8.0283   21.3544 C   0  0  0  0  0  0
  -21.9902   -9.0255   20.4648 C   0  0  0  0  0  0
  -22.7229  -10.2134   20.3051 C   0  0  0  0  0  0
  -21.6853   -6.0733   22.5279 C   0  0  0  0  0  0
  -21.4013   -6.5638   23.8212 C   0  0  0  0  0  0
  -21.3660   -5.6792   24.9175 C   0  0  0  0  0  0
  -21.6045   -4.3053   24.7226 C   0  0  0  0  0  0
  -21.8820   -3.8144   23.4347 C   0  0  0  0  0  0
  -21.9193   -4.6961   22.3403 C   0  0  0  0  0  0
  -22.7869  -13.5243   21.1832 C   0  0  0  0  0  0
  -22.1662   -4.2146   21.0980 F   0  0  0  0  0  0
  -21.5629   -3.4539   25.7738 F   0  0  0  0  0  0
  -30.0485  -13.2352   20.4574 N   0  0  0  0  0  0
  -26.3040  -12.9326   20.3370 N   0  0  0  0  0  0
  -25.9318  -11.6484   20.5751 N   0  0  0  0  0  0
  -22.0510  -12.8240   22.0390 N   0  0  0  0  0  0
  -25.4339  -15.1877   20.4085 N   0  0  0  0  0  0
  -31.7875  -14.6616   20.0590 O   0  0  0  0  0  0
  -21.6640   -6.8877   21.4239 O   0  0  0  0  0  0
  -22.3558  -14.5553   20.6687 O   0  0  0  0  0  0
  -24.6123  -31.8697   23.2146 C   0  0  0  0  0  0
  -25.9032  -32.4824   23.8424 C   0  0  1  0  0  0
  -27.2303  -27.4572   20.0613 C   0  0  0  0  0  0
  -25.5900  -33.8626   24.2349 N   0  0  0  0  0  0
  -23.3974  -30.4964   21.5559 C   0  0  2  0  0  0
  -24.8390  -28.9716   20.1121 C   0  0  0  0  0  0
  -22.7398  -29.4659   22.5016 C   0  0  0  0  0  0
  -18.0269  -28.1366   22.8491 C   0  0  0  0  0  0
  -24.1484  -36.7325   23.2635 C   0  0  0  0  0  0
  -25.9265  -30.8372   21.3690 C   0  0  0  0  0  0
  -25.9993  -29.4753   20.7117 C   0  0  0  0  0  0
  -27.1911  -28.7187   20.6970 C   0  0  0  0  0  0
  -26.0442  -26.9636   19.4734 C   0  0  0  0  0  0
  -24.8541  -27.7097   19.4988 C   0  0  0  0  0  0
  -23.6017  -29.8356   20.1675 C   0  0  0  0  0  0
  -25.4100  -36.3117   24.0339 C   0  0  1  0  0  0
  -20.5855  -28.3644   23.1326 C   0  0  2  0  0  0
  -20.6756  -26.9381   22.5421 C   0  0  0  0  0  0
  -19.5740  -26.6372   21.5209 C   0  0  0  0  0  0
  -18.1919  -26.7912   22.1618 C   0  0  0  0  0  0
  -19.1518  -28.8823   23.2904 C   0  0  0  0  0  0
  -18.9445  -30.1432   23.8910 C   0  0  0  0  0  0
  -17.6448  -30.6575   24.0559 C   0  0  0  0  0  0
  -25.9028  -34.9478   23.5138 C   0  0  0  0  0  0
  -16.5339  -29.9080   23.6320 C   0  0  0  0  0  0
  -16.7258  -28.6494   23.0345 C   0  0  0  0  0  0
  -26.4465  -31.6596   25.0749 C   0  0  0  0  0  0
  -25.3743  -31.3708   26.1513 C   0  0  0  0  0  0
  -27.0272  -30.3026   24.6132 C   0  0  0  0  0  0
  -27.6057  -32.4310   25.7499 C   0  0  0  0  0  0
  -27.5580  -37.1810   24.8458 C   0  0  0  0  0  0
  -21.4130  -29.3021   22.3749 N   0  0  0  0  0  0
  -26.4287  -37.3800   23.9409 N   0  0  0  0  0  0
  -24.6636  -31.0817   22.1042 N   0  0  0  0  0  0
  -23.4183  -28.8201   23.3045 O   0  0  0  0  0  0
  -28.4139  -26.7497   20.0860 O   0  0  0  0  0  0
  -26.5586  -34.8923   22.4699 O   0  0  0  0  0  0
  -23.5322  -32.1456   23.7545 O   0  0  0  0  0  0
  -27.8260  -21.4698   21.2854 C   0  0  0  0  0  0
  -28.1494  -22.2033   20.1082 C   0  0  0  0  0  0
  -27.3197  -22.1739   22.4006 C   0  0  0  0  0  0
  -27.9502  -23.6114   20.1124 C   0  0  0  0  0  0
  -27.1337  -23.5652   22.2944 C   0  0  0  0  0  0
  -28.6593  -21.5062   18.8474 C   0  0  0  0  0  0
  -25.1845  -24.9601   23.1617 C   0  0  0  0  0  0
  -27.9679  -19.9508   21.3806 C   0  0  0  0  0  0
  -28.1212  -24.4731   18.8557 C   0  0  0  0  0  0
  -26.5843  -24.3924   23.4465 C   0  0  0  0  0  0
  -29.4250  -19.4753   21.5201 C   0  0  0  0  0  0
  -29.5329  -17.9683   21.8163 C   0  0  0  0  0  0
  -30.9903  -17.4781   21.8201 C   0  0  0  0  0  0
  -31.1897  -16.0878   22.4526 C   0  0  0  0  0  0
  -28.7753  -25.8788   19.0027 C   0  0  0  0  0  0
  -27.4301  -24.2535   21.1767 N   0  0  0  0  0  0
  -30.4195  -15.0288   21.8022 N   0  0  0  0  0  0
  -27.0041  -21.5240   23.5489 F   0  0  0  0  0  0
  -31.4570  -12.3982   19.0803 H   0  0  0  0  0  0
  -30.3153  -11.2713   19.7509 H   0  0  0  0  0  0
  -29.7133  -11.8314   17.3854 H   0  0  0  0  0  0
  -29.6469  -13.5313   17.7831 H   0  0  0  0  0  0
  -27.8204  -11.3213   18.7928 H   0  0  0  0  0  0
  -27.3500  -12.6660   17.7876 H   0  0  0  0  0  0
  -27.7230  -14.2578   19.6038 H   0  0  0  0  0  0
  -28.6622  -11.9106   21.3188 H   0  0  0  0  0  0
  -28.4448  -13.5388   21.8738 H   0  0  0  0  0  0
  -25.2757   -9.5691   22.4753 H   0  0  0  0  0  0
  -24.0000   -7.4638   22.7473 H   0  0  0  0  0  0
  -21.0834   -8.8771   19.8957 H   0  0  0  0  0  0
  -22.3688  -10.9669   19.6159 H   0  0  0  0  0  0
  -21.2005   -7.6147   23.9713 H   0  0  0  0  0  0
  -21.1482   -6.0523   25.9077 H   0  0  0  0  0  0
  -22.0598   -2.7607   23.2849 H   0  0  0  0  0  0
  -22.4117  -11.9895   22.4772 H   0  0  0  0  0  0
  -21.1131  -13.1277   22.2597 H   0  0  0  0  0  0
  -24.6732  -15.8484   20.5219 H   0  0  0  0  0  0
  -26.2974  -15.6239   20.1094 H   0  0  0  0  0  0
  -26.7103  -32.5534   23.1187 H   0  0  0  0  0  0
  -25.0068  -33.9802   25.0505 H   0  0  0  0  0  0
  -22.6850  -31.3129   21.4227 H   0  0  0  0  0  0
  -23.3739  -35.9665   23.3308 H   0  0  0  0  0  0
  -24.3586  -36.8931   22.2047 H   0  0  0  0  0  0
  -23.7244  -37.6539   23.6639 H   0  0  0  0  0  0
  -26.0426  -31.6062   20.6041 H   0  0  0  0  0  0
  -26.8129  -30.8824   21.9897 H   0  0  0  0  0  0
  -28.0861  -29.1030   21.1661 H   0  0  0  0  0  0
  -25.9894  -25.9963   19.0150 H   0  0  0  0  0  0
  -23.9579  -27.3073   19.0471 H   0  0  0  0  0  0
  -23.7069  -30.6139   19.4110 H   0  0  0  0  0  0
  -22.7248  -29.2563   19.8723 H   0  0  0  0  0  0
  -25.1270  -36.1986   25.0829 H   0  0  0  0  0  0
  -20.9940  -28.3194   24.1447 H   0  0  0  0  0  0
  -20.5636  -26.2252   23.3604 H   0  0  0  0  0  0
  -21.6634  -26.7415   22.1228 H   0  0  0  0  0  0
  -19.6900  -25.6286   21.1233 H   0  0  0  0  0  0
  -19.6683  -27.3185   20.6742 H   0  0  0  0  0  0
  -17.4185  -26.6655   21.4025 H   0  0  0  0  0  0
  -18.0324  -26.0052   22.9011 H   0  0  0  0  0  0
  -19.7923  -30.7239   24.2292 H   0  0  0  0  0  0
  -17.5004  -31.6258   24.5155 H   0  0  0  0  0  0
  -15.5339  -30.2981   23.7646 H   0  0  0  0  0  0
  -15.8655  -28.0817   22.7059 H   0  0  0  0  0  0
  -24.5934  -30.7019   25.7875 H   0  0  0  0  0  0
  -24.8912  -32.2856   26.4953 H   0  0  0  0  0  0
  -25.8121  -30.8909   27.0276 H   0  0  0  0  0  0
  -26.2810  -29.6808   24.1167 H   0  0  0  0  0  0
  -27.3998  -29.7247   25.4601 H   0  0  0  0  0  0
  -27.8672  -30.4327   23.9305 H   0  0  0  0  0  0
  -27.2691  -33.3603   26.2107 H   0  0  0  0  0  0
  -28.3846  -32.6876   25.0307 H   0  0  0  0  0  0
  -28.0740  -31.8411   26.5388 H   0  0  0  0  0  0
  -28.2595  -38.0112   24.7512 H   0  0  0  0  0  0
  -28.1080  -36.2645   24.6264 H   0  0  0  0  0  0
  -27.2309  -37.1442   25.8865 H   0  0  0  0  0  0
  -20.9284  -29.8783   21.7012 H   0  0  0  0  0  0
  -26.0182  -38.2879   24.1415 H   0  0  0  0  0  0
  -28.6296  -20.4204   18.8938 H   0  0  0  0  0  0
  -29.6930  -21.7940   18.6515 H   0  0  0  0  0  0
  -28.0567  -21.7865   17.9831 H   0  0  0  0  0  0
  -24.8194  -25.5369   24.0112 H   0  0  0  0  0  0
  -24.4682  -24.1627   22.9641 H   0  0  0  0  0  0
  -25.1971  -25.6221   22.2946 H   0  0  0  0  0  0
  -27.4885  -19.4828   20.5211 H   0  0  0  0  0  0
  -27.3982  -19.5928   22.2382 H   0  0  0  0  0  0
  -27.1676  -24.5125   18.3382 H   0  0  0  0  0  0
  -28.7596  -23.9505   18.1464 H   0  0  0  0  0  0
  -27.2786  -25.2079   23.6513 H   0  0  0  0  0  0
  -26.5546  -23.7878   24.3531 H   0  0  0  0  0  0
  -29.9022  -20.0300   22.3291 H   0  0  0  0  0  0
  -29.9865  -19.7167   20.6180 H   0  0  0  0  0  0
  -28.9615  -17.4004   21.0805 H   0  0  0  0  0  0
  -29.0741  -17.7639   22.7848 H   0  0  0  0  0  0
  -31.6048  -18.1884   22.3747 H   0  0  0  0  0  0
  -31.3802  -17.4839   20.8012 H   0  0  0  0  0  0
  -30.8993  -16.1193   23.5036 H   0  0  0  0  0  0
  -32.2505  -15.8295   22.4456 H   0  0  0  0  0  0
  -28.6775  -26.4224   18.0617 H   0  0  0  0  0  0
  -29.8464  -25.7183   19.1292 H   0  0  0  0  0  0
  -29.6029  -14.6878   22.2882 H   0  0  0  0  0  0
  1 25  1  0  0  0
  1 30  2  0  0  0
  1 87  1  0  0  0
  2  3  1  0  0  0
  2 25  1  0  0  0
  2 89  1  0  0  0
  2 90  1  0  0  0
  3  4  1  0  0  0
  3 91  1  0  0  0
  3 92  1  0  0  0
  4  5  1  0  0  0
  4 93  1  0  0  0
  4 94  1  0  0  0
  5  6  1  0  0  0
  5 26  1  0  0  0
  5 95  1  0  0  0
  6 25  1  0  0  0
  6 96  1  0  0  0
  6 97  1  0  0  0
  7  8  2  0  0  0
  7 26  1  0  0  0
  7 29  1  0  0  0
  8  9  1  0  0  0
  8 22  1  0  0  0
  9 10  1  0  0  0
  9 27  2  0  0  0
 10 11  2  0  0  0
 10 15  1  0  0  0
 11 12  1  0  0  0
 11 98  1  0  0  0
 12 13  2  0  0  0
 12 99  1  0  0  0
 13 14  1  0  0  0
 13 31  1  0  0  0
 14 15  2  0  0  0
 14100  1  0  0  0
 15101  1  0  0  0
 16 17  2  0  0  0
 16 21  1  0  0  0
 16 31  1  0  0  0
 17 18  1  0  0  0
 17102  1  0  0  0
 18 19  2  0  0  0
 18103  1  0  0  0
 19 20  1  0  0  0
 19 24  1  0  0  0
 20 21  2  0  0  0
 20104  1  0  0  0
 21 23  1  0  0  0
 22 28  1  0  0  0
 22 32  2  0  0  0
 26 27  1  0  0  0
 28105  1  0  0  0
 28106  1  0  0  0
 29107  1  0  0  0
 29108  1  0  0  0
 33 34  1  0  0  0
 33 66  1  0  0  0
 33 70  2  0  0  0
 34 36  1  0  0  0
 34 59  1  0  0  0
 34109  1  0  0  0
 35 44  2  0  0  0
 35 45  1  0  0  0
 35 68  1  0  0  0
 36 56  1  0  0  0
 36110  1  0  0  0
 37 39  1  0  0  0
 37 47  1  0  0  0
 37 66  1  0  0  0
 37111  1  0  0  0
 38 43  2  0  0  0
 38 46  1  0  0  0
 38 47  1  0  0  0
 39 64  1  0  0  0
 39 67  2  0  0  0
 40 52  1  0  0  0
 40 53  2  0  0  0
 40 58  1  0  0  0
 41112  1  0  0  0
 41113  1  0  0  0
 41114  1  0  0  0
 41 48  1  0  0  0
 42 43  1  0  0  0
 42 66  1  0  0  0
 42115  1  0  0  0
 42116  1  0  0  0
 43 44  1  0  0  0
 44117  1  0  0  0
 45 46  2  0  0  0
 45118  1  0  0  0
 46119  1  0  0  0
 47120  1  0  0  0
 47121  1  0  0  0
 48 56  1  0  0  0
 48 65  1  0  0  0
 48122  1  0  0  0
 49 50  1  0  0  0
 49 53  1  0  0  0
 49 64  1  0  0  0
 49123  1  0  0  0
 50 51  1  0  0  0
 50124  1  0  0  0
 50125  1  0  0  0
 51 52  1  0  0  0
 51126  1  0  0  0
 51127  1  0  0  0
 52128  1  0  0  0
 52129  1  0  0  0
 53 54  1  0  0  0
 54 55  2  0  0  0
 54130  1  0  0  0
 55 57  1  0  0  0
 55131  1  0  0  0
 56 69  2  0  0  0
 57 58  2  0  0  0
 57132  1  0  0  0
 58133  1  0  0  0
 59 60  1  0  0  0
 59 61  1  0  0  0
 59 62  1  0  0  0
 60134  1  0  0  0
 60135  1  0  0  0
 60136  1  0  0  0
 61137  1  0  0  0
 61138  1  0  0  0
 61139  1  0  0  0
 62140  1  0  0  0
 62141  1  0  0  0
 62142  1  0  0  0
 63 65  1  0  0  0
 63143  1  0  0  0
 63144  1  0  0  0
 63145  1  0  0  0
 64146  1  0  0  0
 65147  1  0  0  0
 68 85  1  0  0  0
 71 72  2  0  0  0
 71 73  1  0  0  0
 71 78  1  0  0  0
 72 74  1  0  0  0
 72 76  1  0  0  0
 73 75  2  0  0  0
 73 88  1  0  0  0
 74 79  1  0  0  0
 74 86  2  0  0  0
 75 80  1  0  0  0
 75 86  1  0  0  0
 76148  1  0  0  0
 76149  1  0  0  0
 76150  1  0  0  0
 77 80  1  0  0  0
 77151  1  0  0  0
 77152  1  0  0  0
 77153  1  0  0  0
 78 81  1  0  0  0
 78154  1  0  0  0
 78155  1  0  0  0
 79 85  1  0  0  0
 79156  1  0  0  0
 79157  1  0  0  0
 80158  1  0  0  0
 80159  1  0  0  0
 81 82  1  0  0  0
 81160  1  0  0  0
 81161  1  0  0  0
 82 83  1  0  0  0
 82162  1  0  0  0
 82163  1  0  0  0
 83 84  1  0  0  0
 83164  1  0  0  0
 83165  1  0  0  0
 84 87  1  0  0  0
 84166  1  0  0  0
 84167  1  0  0  0
 85168  1  0  0  0
 85169  1  0  0  0
 87170  1  0  0  0
M  ISO  4   1 100  68 101  85 101  87 100
M  END
> <chiral flag>
0

> <version>
0

> <s_m_source_file>
/data/baiqing/PycharmProjects/Reinvent-master-3.2/result/LINK_invent/BTK/process_docking_weight1_custom_sum_contain_oxygen_bond_distance_aromatic_linkinvent_7_9_3/rearranged_h_0032.sdf

> <i_m_source_file_index>
59

> <r_mmod_Potential_Energy-OPLS-2005>
-145.32209777832

> <r_mmod_Stretch_Energy-OPLS-2005>
36.0151863098145

> <r_mmod_Bend_Energy-OPLS-2005>
114.464294433594

> <r_mmod_Torsional_Energy-OPLS-2005>
185.124664306641

> <r_mmod_Improper_Torsional_Energy-OPLS-2005>
3.18587279319763

> <r_mmod_Van_der_Waal_Energy-OPLS-2005>
152.883880615234

> <r_mmod_Electrostatic_Energy-OPLS-2005>
-432.80859375

> <r_mmod_Solvation_Energy-OPLS-2005>
-212.560577392578

> <b_mmod_Minimization_Converged-OPLS-2005>
0

> <r_mmod_RMS_Derivative-OPLS-2005>
0.77675324678421

$$$$
59
                    3D
 Structure written by MMmdl.
147155  0  0  1  0            999 V2000
  -30.4306  -15.1834   20.3818 C   0  0  0  0  0  0
  -30.4502  -12.7472   19.5206 C   0  0  0  0  0  0
  -29.5367  -12.5669   18.2812 C   0  0  0  0  0  0
  -28.0797  -12.3049   18.7044 C   0  0  0  0  0  0
  -27.6213  -13.2632   19.8320 C   0  0  2  0  0  0
  -28.6583  -13.3772   20.9698 C   0  0  0  0  0  0
  -25.2430  -13.8229   20.5726 C   0  0  0  0  0  0
  -24.1767  -13.0437   20.9251 C   0  0  0  0  0  0
  -24.6402  -11.6928   20.8761 C   0  0  0  0  0  0
  -23.9089  -10.4294   21.0409 C   0  0  0  0  0  0
  -24.3633   -9.4206   21.9187 C   0  0  0  0  0  0
  -23.6301   -8.2245   22.0756 C   0  0  0  0  0  0
  -22.4283   -8.0284   21.3545 C   0  0  0  0  0  0
  -21.9924   -9.0260   20.4647 C   0  0  0  0  0  0
  -22.7259  -10.2136   20.3057 C   0  0  0  0  0  0
  -21.6854   -6.0737   22.5278 C   0  0  0  0  0  0
  -21.4016   -6.5640   23.8212 C   0  0  0  0  0  0
  -21.3660   -5.6793   24.9174 C   0  0  0  0  0  0
  -21.6044   -4.3056   24.7224 C   0  0  0  0  0  0
  -21.8819   -3.8147   23.4346 C   0  0  0  0  0  0
  -21.9194   -4.6965   22.3402 C   0  0  0  0  0  0
  -22.7785  -13.5201   21.1898 C   0  0  0  0  0  0
  -22.1661   -4.2150   21.0979 F   0  0  0  0  0  0
  -21.5628   -3.4539   25.7737 F   0  0  0  0  0  0
  -29.9047  -13.8683   20.3610 N   0  0  0  0  0  0
  -26.2855  -12.9481   20.3226 N   0  0  0  0  0  0
  -25.9337  -11.6599   20.5726 N   0  0  0  0  0  0
  -22.0436  -12.8186   22.0448 N   0  0  0  0  0  0
  -25.4073  -15.1961   20.4129 N   0  0  0  0  0  0
  -31.6395  -15.2512   20.1168 O   0  0  0  0  0  0
  -21.6643   -6.8882   21.4241 O   0  0  0  0  0  0
  -22.3469  -14.5504   20.6737 O   0  0  0  0  0  0
  -24.6580  -31.8280   23.1732 C   0  0  0  0  0  0
  -25.9285  -32.4608   23.8180 C   0  0  1  0  0  0
  -27.2234  -26.9808   20.1771 C   0  0  0  0  0  0
  -25.5973  -33.8421   24.2089 N   0  0  0  0  0  0
  -23.4702  -30.4399   21.5216 C   0  0  2  0  0  0
  -24.9235  -28.8342   20.1111 C   0  0  0  0  0  0
  -22.7641  -29.4462   22.4800 C   0  0  0  0  0  0
  -18.0318  -28.1404   22.8464 C   0  0  0  0  0  0
  -24.1496  -36.7217   23.2646 C   0  0  0  0  0  0
  -26.0355  -30.6518   21.3949 C   0  0  0  0  0  0
  -26.1054  -29.2465   20.7392 C   0  0  0  0  0  0
  -27.2514  -28.3401   20.7470 C   0  0  0  0  0  0
  -26.0122  -26.7043   19.5053 C   0  0  0  0  0  0
  -24.8990  -27.5823   19.4747 C   0  0  0  0  0  0
  -23.7066  -29.7556   20.1470 C   0  0  0  0  0  0
  -25.4134  -36.2976   24.0300 C   0  0  1  0  0  0
  -20.5938  -28.3744   23.1197 C   0  0  2  0  0  0
  -20.6797  -26.9430   22.5402 C   0  0  0  0  0  0
  -19.5774  -26.6376   21.5210 C   0  0  0  0  0  0
  -18.1954  -26.7938   22.1617 C   0  0  0  0  0  0
  -19.1578  -28.8895   23.2816 C   0  0  0  0  0  0
  -18.9492  -30.1485   23.8850 C   0  0  0  0  0  0
  -17.6485  -30.6595   24.0554 C   0  0  0  0  0  0
  -25.9097  -34.9360   23.5013 C   0  0  0  0  0  0
  -16.5376  -29.9083   23.6342 C   0  0  0  0  0  0
  -16.7301  -28.6504   23.0358 C   0  0  0  0  0  0
  -26.4555  -31.6539   25.0691 C   0  0  0  0  0  0
  -25.3696  -31.3775   26.1357 C   0  0  0  0  0  0
  -27.0450  -30.2911   24.6393 C   0  0  0  0  0  0
  -27.6048  -32.4346   25.7495 C   0  0  0  0  0  0
  -27.5570  -37.1763   24.8464 C   0  0  0  0  0  0
  -21.4317  -29.3040   22.3550 N   0  0  0  0  0  0
  -26.4280  -37.3708   23.9406 N   0  0  0  0  0  0
  -24.7421  -30.9991   22.0839 N   0  0  0  0  0  0
  -23.4209  -28.8034   23.3028 O   0  0  0  0  0  0
  -28.2483  -25.9164   20.2567 O   0  0  0  0  0  0
  -26.5702  -34.8890   22.4606 O   0  0  0  0  0  0
  -23.5663  -32.1228   23.6858 O   0  0  0  0  0  0
  -30.2862  -20.4219   19.9240 C   0  0  0  0  0  0
  -30.4759  -18.9484   19.9689 C   0  0  0  0  0  0
  -28.3509  -18.7573   20.8361 C   0  0  0  0  0  0
  -29.1233  -21.2111   20.3338 C   0  0  0  0  0  0
  -29.5180  -17.9672   20.4440 C   0  0  0  0  0  0
  -28.1598  -20.2309   20.8022 C   0  0  0  0  0  0
  -29.1138  -22.9471   20.4515 C   0  0  0  0  0  0
  -28.0329  -24.3065   20.0987 C   0  0  0  0  0  0
  -29.5735  -16.3634   20.5403 N   0  0  0  0  0  0
  -26.6662  -20.8427   21.4136 Cl  0  0  0  0  0  0
  -31.4701  -12.9543   19.1937 H   0  0  0  0  0  0
  -30.5087  -11.8235   20.0986 H   0  0  0  0  0  0
  -29.8999  -11.7494   17.6571 H   0  0  0  0  0  0
  -29.5805  -13.4661   17.6648 H   0  0  0  0  0  0
  -28.0191  -11.2737   19.0547 H   0  0  0  0  0  0
  -27.4125  -12.3757   17.8446 H   0  0  0  0  0  0
  -27.5556  -14.2446   19.3612 H   0  0  0  0  0  0
  -28.8043  -12.4197   21.4719 H   0  0  0  0  0  0
  -28.3135  -14.0765   21.7329 H   0  0  0  0  0  0
  -25.2774   -9.5681   22.4766 H   0  0  0  0  0  0
  -24.0006   -7.4635   22.7476 H   0  0  0  0  0  0
  -21.0854   -8.8785   19.8951 H   0  0  0  0  0  0
  -22.3719  -10.9678   19.6169 H   0  0  0  0  0  0
  -21.2009   -7.6149   23.9715 H   0  0  0  0  0  0
  -21.1481   -6.0523   25.9077 H   0  0  0  0  0  0
  -22.0597   -2.7609   23.2846 H   0  0  0  0  0  0
  -22.4062  -11.9855   22.4842 H   0  0  0  0  0  0
  -21.1049  -13.1200   22.2648 H   0  0  0  0  0  0
  -24.6298  -15.8396   20.5123 H   0  0  0  0  0  0
  -26.2298  -15.6304   20.0163 H   0  0  0  0  0  0
  -26.7353  -32.5162   23.0896 H   0  0  0  0  0  0
  -25.0075  -33.9506   25.0208 H   0  0  0  0  0  0
  -22.7806  -31.2696   21.3534 H   0  0  0  0  0  0
  -23.3767  -35.9538   23.3282 H   0  0  0  0  0  0
  -24.3572  -36.8891   22.2065 H   0  0  0  0  0  0
  -23.7248  -37.6396   23.6720 H   0  0  0  0  0  0
  -26.2094  -31.3965   20.6171 H   0  0  0  0  0  0
  -26.8979  -30.7069   22.0473 H   0  0  0  0  0  0
  -28.1486  -28.6537   21.2621 H   0  0  0  0  0  0
  -25.8958  -25.7450   19.0221 H   0  0  0  0  0  0
  -23.9991  -27.2610   18.9681 H   0  0  0  0  0  0
  -23.8556  -30.5241   19.3877 H   0  0  0  0  0  0
  -22.8180  -29.2051   19.8332 H   0  0  0  0  0  0
  -25.1332  -36.1774   25.0791 H   0  0  0  0  0  0
  -21.0023  -28.3354   24.1321 H   0  0  0  0  0  0
  -20.5685  -26.2361   23.3638 H   0  0  0  0  0  0
  -21.6662  -26.7417   22.1205 H   0  0  0  0  0  0
  -19.6937  -25.6275   21.1269 H   0  0  0  0  0  0
  -19.6718  -27.3160   20.6720 H   0  0  0  0  0  0
  -17.4224  -26.6676   21.4021 H   0  0  0  0  0  0
  -18.0353  -26.0090   22.9025 H   0  0  0  0  0  0
  -19.7969  -30.7309   24.2201 H   0  0  0  0  0  0
  -17.5042  -31.6272   24.5163 H   0  0  0  0  0  0
  -15.5375  -30.2970   23.7697 H   0  0  0  0  0  0
  -15.8700  -28.0811   22.7097 H   0  0  0  0  0  0
  -24.5888  -30.7114   25.7668 H   0  0  0  0  0  0
  -24.8876  -32.2974   26.4675 H   0  0  0  0  0  0
  -25.7939  -30.9013   27.0205 H   0  0  0  0  0  0
  -26.3106  -29.6592   24.1387 H   0  0  0  0  0  0
  -27.3986  -29.7266   25.5032 H   0  0  0  0  0  0
  -27.9044  -30.4103   23.9793 H   0  0  0  0  0  0
  -27.2610  -33.3684   26.1956 H   0  0  0  0  0  0
  -28.3920  -32.6849   25.0372 H   0  0  0  0  0  0
  -28.0649  -31.8554   26.5512 H   0  0  0  0  0  0
  -28.2565  -38.0078   24.7510 H   0  0  0  0  0  0
  -28.1087  -36.2604   24.6294 H   0  0  0  0  0  0
  -27.2284  -37.1406   25.8865 H   0  0  0  0  0  0
  -20.9566  -29.8722   21.6676 H   0  0  0  0  0  0
  -26.0131  -38.2767   24.1419 H   0  0  0  0  0  0
  -31.1364  -20.9869   19.5685 H   0  0  0  0  0  0
  -31.4266  -18.5703   19.6192 H   0  0  0  0  0  0
  -27.5123  -18.1966   21.2224 H   0  0  0  0  0  0
  -30.0277  -23.2161   19.9227 H   0  0  0  0  0  0
  -29.3729  -23.0984   21.4993 H   0  0  0  0  0  0
  -27.1187  -24.0998   20.6554 H   0  0  0  0  0  0
  -27.7483  -24.1794   19.0541 H   0  0  0  0  0  0
  -28.6632  -16.0084   20.7910 H   0  0  0  0  0  0
  1 25  1  0  0  0
  1 30  2  0  0  0
  1 79  1  0  0  0
  2  3  1  0  0  0
  2 25  1  0  0  0
  2 81  1  0  0  0
  2 82  1  0  0  0
  3  4  1  0  0  0
  3 83  1  0  0  0
  3 84  1  0  0  0
  4  5  1  0  0  0
  4 85  1  0  0  0
  4 86  1  0  0  0
  5  6  1  0  0  0
  5 26  1  0  0  0
  5 87  1  0  0  0
  6 25  1  0  0  0
  6 88  1  0  0  0
  6 89  1  0  0  0
  7  8  2  0  0  0
  7 26  1  0  0  0
  7 29  1  0  0  0
  8  9  1  0  0  0
  8 22  1  0  0  0
  9 10  1  0  0  0
  9 27  2  0  0  0
 10 11  2  0  0  0
 10 15  1  0  0  0
 11 12  1  0  0  0
 11 90  1  0  0  0
 12 13  2  0  0  0
 12 91  1  0  0  0
 13 14  1  0  0  0
 13 31  1  0  0  0
 14 15  2  0  0  0
 14 92  1  0  0  0
 15 93  1  0  0  0
 16 17  2  0  0  0
 16 21  1  0  0  0
 16 31  1  0  0  0
 17 18  1  0  0  0
 17 94  1  0  0  0
 18 19  2  0  0  0
 18 95  1  0  0  0
 19 20  1  0  0  0
 19 24  1  0  0  0
 20 21  2  0  0  0
 20 96  1  0  0  0
 21 23  1  0  0  0
 22 28  1  0  0  0
 22 32  2  0  0  0
 26 27  1  0  0  0
 28 97  1  0  0  0
 28 98  1  0  0  0
 29 99  1  0  0  0
 29100  1  0  0  0
 33 34  1  0  0  0
 33 66  1  0  0  0
 33 70  2  0  0  0
 34 36  1  0  0  0
 34 59  1  0  0  0
 34101  1  0  0  0
 35 44  2  0  0  0
 35 45  1  0  0  0
 35 68  1  0  0  0
 36 56  1  0  0  0
 36102  1  0  0  0
 37 39  1  0  0  0
 37 47  1  0  0  0
 37 66  1  0  0  0
 37103  1  0  0  0
 38 43  2  0  0  0
 38 46  1  0  0  0
 38 47  1  0  0  0
 39 64  1  0  0  0
 39 67  2  0  0  0
 40 52  1  0  0  0
 40 53  2  0  0  0
 40 58  1  0  0  0
 41104  1  0  0  0
 41105  1  0  0  0
 41106  1  0  0  0
 41 48  1  0  0  0
 42 43  1  0  0  0
 42 66  1  0  0  0
 42107  1  0  0  0
 42108  1  0  0  0
 43 44  1  0  0  0
 44109  1  0  0  0
 45 46  2  0  0  0
 45110  1  0  0  0
 46111  1  0  0  0
 47112  1  0  0  0
 47113  1  0  0  0
 48 56  1  0  0  0
 48 65  1  0  0  0
 48114  1  0  0  0
 49 50  1  0  0  0
 49 53  1  0  0  0
 49 64  1  0  0  0
 49115  1  0  0  0
 50 51  1  0  0  0
 50116  1  0  0  0
 50117  1  0  0  0
 51 52  1  0  0  0
 51118  1  0  0  0
 51119  1  0  0  0
 52120  1  0  0  0
 52121  1  0  0  0
 53 54  1  0  0  0
 54 55  2  0  0  0
 54122  1  0  0  0
 55 57  1  0  0  0
 55123  1  0  0  0
 56 69  2  0  0  0
 57 58  2  0  0  0
 57124  1  0  0  0
 58125  1  0  0  0
 59 60  1  0  0  0
 59 61  1  0  0  0
 59 62  1  0  0  0
 60126  1  0  0  0
 60127  1  0  0  0
 60128  1  0  0  0
 61129  1  0  0  0
 61130  1  0  0  0
 61131  1  0  0  0
 62132  1  0  0  0
 62133  1  0  0  0
 62134  1  0  0  0
 63 65  1  0  0  0
 63135  1  0  0  0
 63136  1  0  0  0
 63137  1  0  0  0
 64138  1  0  0  0
 65139  1  0  0  0
 68 78  1  0  0  0
 71 72  2  0  0  0
 71 74  1  0  0  0
 71140  1  0  0  0
 72 75  1  0  0  0
 72141  1  0  0  0
 73 75  2  0  0  0
 73 76  1  0  0  0
 73142  1  0  0  0
 74 76  2  0  0  0
 74 77  1  0  0  0
 75 79  1  0  0  0
 76 80  1  0  0  0
 77 78  1  0  0  0
 77143  1  0  0  0
 77144  1  0  0  0
 78145  1  0  0  0
 78146  1  0  0  0
 79147  1  0  0  0
M  ISO  4   1 100  68 101  78 101  79 100
M  END
> <chiral flag>
0

> <version>
0

> <s_m_source_file>
/data/baiqing/PycharmProjects/Reinvent-master-3.2/result/LINK_invent/BTK/process_docking_weight1_custom_sum_contain_oxygen_bond_distance_aromatic_linkinvent_7_9_3/rearranged_h_0032.sdf

> <i_m_source_file_index>
60

> <r_mmod_Potential_Energy-OPLS-2005>
1022.49212646484

> <r_mmod_Stretch_Energy-OPLS-2005>
452.273864746094

> <r_mmod_Bend_Energy-OPLS-2005>
409.340667724609

> <r_mmod_Torsional_Energy-OPLS-2005>
213.253677368164

> <r_mmod_Improper_Torsional_Energy-OPLS-2005>
4.95393753051758

> <r_mmod_Van_der_Waal_Energy-OPLS-2005>
123.804595947266

> <r_mmod_Electrostatic_Energy-OPLS-2005>
-350.033020019531

> <r_mmod_Solvation_Energy-OPLS-2005>
-210.575622558594

> <b_mmod_Minimization_Converged-OPLS-2005>
0

> <r_mmod_RMS_Derivative-OPLS-2005>
0.356446892023087

$$$$
60
                    3D
 Structure written by MMmdl.
190198  0  0  1  0            999 V2000
  -30.7588  -14.3593   20.6804 C   0  0  0  0  0  0
  -30.4181  -12.2849   19.3895 C   0  0  0  0  0  0
  -29.4875  -12.5422   18.1910 C   0  0  0  0  0  0
  -28.0071  -12.4090   18.6025 C   0  0  0  0  0  0
  -27.6714  -13.2028   19.8938 C   0  0  2  0  0  0
  -28.7124  -12.9058   20.9961 C   0  0  0  0  0  0
  -25.2611  -13.8149   20.5697 C   0  0  0  0  0  0
  -24.1844  -13.0429   20.9160 C   0  0  0  0  0  0
  -24.6381  -11.6902   20.8705 C   0  0  0  0  0  0
  -23.9043  -10.4286   21.0374 C   0  0  0  0  0  0
  -24.3599   -9.4214   21.9163 C   0  0  0  0  0  0
  -23.6278   -8.2249   22.0751 C   0  0  0  0  0  0
  -22.4257   -8.0267   21.3546 C   0  0  0  0  0  0
  -21.9892   -9.0232   20.4640 C   0  0  0  0  0  0
  -22.7217  -10.2116   20.3034 C   0  0  0  0  0  0
  -21.6855   -6.0728   22.5280 C   0  0  0  0  0  0
  -21.4009   -6.5633   23.8208 C   0  0  0  0  0  0
  -21.3663   -5.6793   24.9177 C   0  0  0  0  0  0
  -21.6055   -4.3051   24.7232 C   0  0  0  0  0  0
  -21.8818   -3.8139   23.4346 C   0  0  0  0  0  0
  -21.9190   -4.6956   22.3404 C   0  0  0  0  0  0
  -22.7861  -13.5226   21.1814 C   0  0  0  0  0  0
  -22.1661   -4.2137   21.0982 F   0  0  0  0  0  0
  -21.5635   -3.4534   25.7742 F   0  0  0  0  0  0
  -30.0457  -13.2235   20.4574 N   0  0  0  0  0  0
  -26.3061  -12.9321   20.3438 N   0  0  0  0  0  0
  -25.9316  -11.6468   20.5764 N   0  0  0  0  0  0
  -22.0501  -12.8216   22.0366 N   0  0  0  0  0  0
  -25.4306  -15.1878   20.4121 N   0  0  0  0  0  0
  -31.7887  -14.6218   20.0493 O   0  0  0  0  0  0
  -21.6636   -6.8863   21.4236 O   0  0  0  0  0  0
  -22.3558  -14.5549   20.6685 O   0  0  0  0  0  0
  -24.6043  -31.8747   23.2107 C   0  0  0  0  0  0
  -25.8964  -32.4873   23.8402 C   0  0  1  0  0  0
  -27.2265  -27.4958   20.0809 C   0  0  0  0  0  0
  -25.5855  -33.8665   24.2372 N   0  0  0  0  0  0
  -23.3922  -30.5022   21.5472 C   0  0  2  0  0  0
  -24.8436  -28.9922   20.0841 C   0  0  0  0  0  0
  -22.7393  -29.4686   22.4934 C   0  0  0  0  0  0
  -18.0294  -28.1378   22.8558 C   0  0  0  0  0  0
  -24.1450  -36.7276   23.2662 C   0  0  0  0  0  0
  -25.9200  -30.8613   21.3608 C   0  0  0  0  0  0
  -25.9981  -29.5114   20.6830 C   0  0  0  0  0  0
  -27.1964  -28.7725   20.6766 C   0  0  0  0  0  0
  -26.0687  -26.9875   19.4552 C   0  0  0  0  0  0
  -24.8729  -27.7305   19.4598 C   0  0  0  0  0  0
  -23.5955  -29.8441   20.1531 C   0  0  0  0  0  0
  -25.4098  -36.3150   24.0369 C   0  0  1  0  0  0
  -20.5892  -28.3638   23.1341 C   0  0  2  0  0  0
  -20.6771  -26.9380   22.5399 C   0  0  0  0  0  0
  -19.5730  -26.6397   21.5202 C   0  0  0  0  0  0
  -18.1920  -26.7948   22.1623 C   0  0  0  0  0  0
  -19.1559  -28.8822   23.2955 C   0  0  0  0  0  0
  -18.9480  -30.1458   23.8938 C   0  0  0  0  0  0
  -17.6477  -30.6599   24.0583 C   0  0  0  0  0  0
  -25.9022  -34.9522   23.5159 C   0  0  0  0  0  0
  -16.5366  -29.9113   23.6327 C   0  0  0  0  0  0
  -16.7277  -28.6513   23.0377 C   0  0  0  0  0  0
  -26.4431  -31.6631   25.0731 C   0  0  0  0  0  0
  -25.3703  -31.3707   26.1474 C   0  0  0  0  0  0
  -27.0312  -30.3106   24.6098 C   0  0  0  0  0  0
  -27.6019  -32.4353   25.7489 C   0  0  0  0  0  0
  -27.5570  -37.1820   24.8502 C   0  0  0  0  0  0
  -21.4138  -29.3023   22.3748 N   0  0  0  0  0  0
  -26.4287  -37.3847   23.9449 N   0  0  0  0  0  0
  -24.6562  -31.0945   22.0951 N   0  0  0  0  0  0
  -23.4227  -28.8196   23.2899 O   0  0  0  0  0  0
  -28.2765  -26.6482   20.3195 O   0  0  0  0  0  0
  -26.5600  -34.8973   22.4747 O   0  0  0  0  0  0
  -23.5263  -32.1476   23.7540 O   0  0  0  0  0  0
  -29.2611  -23.4212   25.6776 C   0  0  0  0  0  0
  -27.4450  -24.9745   24.2409 C   0  0  0  0  0  0
  -28.0674  -23.8332   26.2972 C   0  0  0  0  0  0
  -27.1481  -24.6187   25.5717 C   0  0  0  0  0  0
  -29.5479  -23.7482   24.3332 C   0  0  0  0  0  0
  -28.6465  -24.5708   23.6055 C   0  0  0  0  0  0
  -27.7805  -23.4097   27.7271 C   0  0  0  0  0  0
  -25.8581  -25.1212   26.2015 C   0  0  0  0  0  0
  -30.8139  -23.1810   23.7014 C   0  0  0  0  0  0
  -28.9820  -25.0313   22.1722 C   0  0  0  0  0  0
  -30.3293  -15.3856   21.7401 C   0  0  0  0  0  0
  -30.5929  -21.8056   23.0252 C   0  0  0  0  0  0
  -31.3849  -15.5285   22.8542 C   0  0  0  0  0  0
  -30.8018  -15.5027   24.2718 C   0  0  0  0  0  0
  -31.8819  -15.7963   25.3214 C   0  0  0  0  0  0
  -31.3003  -15.9162   26.7366 C   0  0  0  0  0  0
  -32.2360  -16.6304   27.7252 C   0  0  0  0  0  0
  -31.8586  -18.0968   28.0133 C   0  0  0  0  0  0
  -32.1192  -19.0730   26.8503 C   0  0  0  0  0  0
  -30.1528  -20.6765   23.9773 C   0  0  0  0  0  0
  -30.9259  -19.2884   25.9017 C   0  0  0  0  0  0
  -27.9810  -26.0341   21.5875 C   0  0  0  0  0  0
  -31.2601  -20.2939   24.8750 N   0  3  0  0  0  0
  -31.4625  -12.3825   19.0868 H   0  0  0  0  0  0
  -30.3141  -11.2582   19.7411 H   0  0  0  0  0  0
  -29.7175  -11.8518   17.3776 H   0  0  0  0  0  0
  -29.6701  -13.5462   17.8033 H   0  0  0  0  0  0
  -27.7953  -11.3493   18.7505 H   0  0  0  0  0  0
  -27.3626  -12.7369   17.7858 H   0  0  0  0  0  0
  -27.7395  -14.2648   19.6526 H   0  0  0  0  0  0
  -28.6797  -11.8476   21.2574 H   0  0  0  0  0  0
  -28.4568  -13.4119   21.9225 H   0  0  0  0  0  0
  -25.2744   -9.5706   22.4732 H   0  0  0  0  0  0
  -23.9991   -7.4656   22.7481 H   0  0  0  0  0  0
  -21.0825   -8.8741   19.8944 H   0  0  0  0  0  0
  -22.3665  -10.9642   19.6131 H   0  0  0  0  0  0
  -21.1992   -7.6134   23.9709 H   0  0  0  0  0  0
  -21.1495   -6.0519   25.9083 H   0  0  0  0  0  0
  -22.0590   -2.7592   23.2854 H   0  0  0  0  0  0
  -22.4088  -11.9849   22.4724 H   0  0  0  0  0  0
  -21.1109  -13.1232   22.2552 H   0  0  0  0  0  0
  -24.6614  -15.8400   20.5195 H   0  0  0  0  0  0
  -26.2902  -15.6328   20.1136 H   0  0  0  0  0  0
  -26.7049  -32.5611   23.1203 H   0  0  0  0  0  0
  -25.0057  -33.9836   25.0553 H   0  0  0  0  0  0
  -22.6770  -31.3185   21.4206 H   0  0  0  0  0  0
  -23.3765  -35.9549   23.3370 H   0  0  0  0  0  0
  -24.3542  -36.8826   22.2062 H   0  0  0  0  0  0
  -23.7115  -37.6473   23.6633 H   0  0  0  0  0  0
  -26.0623  -31.6424   20.6132 H   0  0  0  0  0  0
  -26.7960  -30.8858   21.9971 H   0  0  0  0  0  0
  -28.0725  -29.1519   21.1880 H   0  0  0  0  0  0
  -26.0811  -25.9931   19.0337 H   0  0  0  0  0  0
  -23.9810  -27.3297   19.0001 H   0  0  0  0  0  0
  -23.6893  -30.6292   19.4016 H   0  0  0  0  0  0
  -22.7238  -29.2572   19.8520 H   0  0  0  0  0  0
  -25.1265  -36.2038   25.0856 H   0  0  0  0  0  0
  -21.0060  -28.3167   24.1429 H   0  0  0  0  0  0
  -20.5696  -26.2217   23.3572 H   0  0  0  0  0  0
  -21.6641  -26.7419   22.1169 H   0  0  0  0  0  0
  -19.6875  -25.6324   21.1188 H   0  0  0  0  0  0
  -19.6685  -27.3257   20.6783 H   0  0  0  0  0  0
  -17.4198  -26.6786   21.3994 H   0  0  0  0  0  0
  -18.0296  -26.0059   22.8975 H   0  0  0  0  0  0
  -19.7949  -30.7314   24.2277 H   0  0  0  0  0  0
  -17.5019  -31.6285   24.5188 H   0  0  0  0  0  0
  -15.5385  -30.3033   23.7614 H   0  0  0  0  0  0
  -15.8676  -28.0838   22.7087 H   0  0  0  0  0  0
  -24.5868  -30.7093   25.7771 H   0  0  0  0  0  0
  -24.8908  -32.2854   26.4964 H   0  0  0  0  0  0
  -25.8036  -30.8834   27.0204 H   0  0  0  0  0  0
  -26.2876  -29.6827   24.1170 H   0  0  0  0  0  0
  -27.4182  -29.7371   25.4518 H   0  0  0  0  0  0
  -27.8652  -30.4511   23.9217 H   0  0  0  0  0  0
  -27.2668  -33.3671   26.2062 H   0  0  0  0  0  0
  -28.3822  -32.6875   25.0283 H   0  0  0  0  0  0
  -28.0697  -31.8482   26.5392 H   0  0  0  0  0  0
  -28.2655  -38.0068   24.7585 H   0  0  0  0  0  0
  -28.1012  -36.2625   24.6313 H   0  0  0  0  0  0
  -27.2309  -37.1430   25.8912 H   0  0  0  0  0  0
  -20.9251  -29.8767   21.7035 H   0  0  0  0  0  0
  -26.0179  -38.2932   24.1450 H   0  0  0  0  0  0
  -29.9609  -22.8226   26.2441 H   0  0  0  0  0  0
  -26.7146  -25.5845   23.7299 H   0  0  0  0  0  0
  -26.9006  -22.7654   27.7583 H   0  0  0  0  0  0
  -27.5970  -24.2813   28.3527 H   0  0  0  0  0  0
  -28.6121  -22.8614   28.1673 H   0  0  0  0  0  0
  -25.1368  -25.4548   25.4567 H   0  0  0  0  0  0
  -26.0787  -25.9631   26.8588 H   0  0  0  0  0  0
  -25.3733  -24.3468   26.7956 H   0  0  0  0  0  0
  -31.5917  -23.1081   24.4643 H   0  0  0  0  0  0
  -31.2236  -23.8801   22.9758 H   0  0  0  0  0  0
  -29.0547  -24.1609   21.5217 H   0  0  0  0  0  0
  -29.9547  -25.5219   22.1832 H   0  0  0  0  0  0
  -30.2285  -16.3427   21.2274 H   0  0  0  0  0  0
  -29.3423  -15.2156   22.1576 H   0  0  0  0  0  0
  -31.5105  -21.4983   22.5251 H   0  0  0  0  0  0
  -29.8509  -21.9026   22.2313 H   0  0  0  0  0  0
  -31.9236  -16.4631   22.6959 H   0  0  0  0  0  0
  -32.1391  -14.7427   22.7889 H   0  0  0  0  0  0
  -30.3449  -14.5329   24.4767 H   0  0  0  0  0  0
  -30.0059  -16.2430   24.3482 H   0  0  0  0  0  0
  -32.3967  -16.7167   25.0499 H   0  0  0  0  0  0
  -32.6394  -15.0102   25.3013 H   0  0  0  0  0  0
  -31.0865  -14.9142   27.1067 H   0  0  0  0  0  0
  -30.3333  -16.4207   26.7119 H   0  0  0  0  0  0
  -33.2797  -16.5586   27.4107 H   0  0  0  0  0  0
  -32.1883  -16.0944   28.6727 H   0  0  0  0  0  0
  -32.4497  -18.4268   28.8708 H   0  0  0  0  0  0
  -30.8225  -18.1637   28.3466 H   0  0  0  0  0  0
  -32.9947  -18.7513   26.2858 H   0  0  0  0  0  0
  -32.3810  -20.0417   27.2768 H   0  0  0  0  0  0
  -29.8409  -19.8059   23.3990 H   0  0  0  0  0  0
  -29.2772  -20.9711   24.5540 H   0  0  0  0  0  0
  -30.0511  -19.6116   26.4662 H   0  0  0  0  0  0
  -30.6566  -18.3580   25.4094 H   0  0  0  0  0  0
  -27.8785  -26.8283   22.3297 H   0  0  0  0  0  0
  -27.0118  -25.5374   21.5281 H   0  0  0  0  0  0
  -31.5901  -21.1208   25.3453 H   0  0  0  0  0  0
  -32.0106  -19.9399   24.3053 H   0  0  0  0  0  0
  1 25  1  0  0  0
  1 30  2  0  0  0
  1 81  1  0  0  0
  2  3  1  0  0  0
  2 25  1  0  0  0
  2 94  1  0  0  0
  2 95  1  0  0  0
  3  4  1  0  0  0
  3 96  1  0  0  0
  3 97  1  0  0  0
  4  5  1  0  0  0
  4 98  1  0  0  0
  4 99  1  0  0  0
  5  6  1  0  0  0
  5 26  1  0  0  0
  5100  1  0  0  0
  6 25  1  0  0  0
  6101  1  0  0  0
  6102  1  0  0  0
  7  8  2  0  0  0
  7 26  1  0  0  0
  7 29  1  0  0  0
  8  9  1  0  0  0
  8 22  1  0  0  0
  9 10  1  0  0  0
  9 27  2  0  0  0
 10 11  2  0  0  0
 10 15  1  0  0  0
 11 12  1  0  0  0
 11103  1  0  0  0
 12 13  2  0  0  0
 12104  1  0  0  0
 13 14  1  0  0  0
 13 31  1  0  0  0
 14 15  2  0  0  0
 14105  1  0  0  0
 15106  1  0  0  0
 16 17  2  0  0  0
 16 21  1  0  0  0
 16 31  1  0  0  0
 17 18  1  0  0  0
 17107  1  0  0  0
 18 19  2  0  0  0
 18108  1  0  0  0
 19 20  1  0  0  0
 19 24  1  0  0  0
 20 21  2  0  0  0
 20109  1  0  0  0
 21 23  1  0  0  0
 22 28  1  0  0  0
 22 32  2  0  0  0
 26 27  1  0  0  0
 28110  1  0  0  0
 28111  1  0  0  0
 29112  1  0  0  0
 29113  1  0  0  0
 33 34  1  0  0  0
 33 66  1  0  0  0
 33 70  2  0  0  0
 34 36  1  0  0  0
 34 59  1  0  0  0
 34114  1  0  0  0
 35 44  2  0  0  0
 35 45  1  0  0  0
 35 68  1  0  0  0
 36 56  1  0  0  0
 36115  1  0  0  0
 37 39  1  0  0  0
 37 47  1  0  0  0
 37 66  1  0  0  0
 37116  1  0  0  0
 38 43  2  0  0  0
 38 46  1  0  0  0
 38 47  1  0  0  0
 39 64  1  0  0  0
 39 67  2  0  0  0
 40 52  1  0  0  0
 40 53  2  0  0  0
 40 58  1  0  0  0
 41117  1  0  0  0
 41118  1  0  0  0
 41119  1  0  0  0
 41 48  1  0  0  0
 42 43  1  0  0  0
 42 66  1  0  0  0
 42120  1  0  0  0
 42121  1  0  0  0
 43 44  1  0  0  0
 44122  1  0  0  0
 45 46  2  0  0  0
 45123  1  0  0  0
 46124  1  0  0  0
 47125  1  0  0  0
 47126  1  0  0  0
 48 56  1  0  0  0
 48 65  1  0  0  0
 48127  1  0  0  0
 49 50  1  0  0  0
 49 53  1  0  0  0
 49 64  1  0  0  0
 49128  1  0  0  0
 50 51  1  0  0  0
 50129  1  0  0  0
 50130  1  0  0  0
 51 52  1  0  0  0
 51131  1  0  0  0
 51132  1  0  0  0
 52133  1  0  0  0
 52134  1  0  0  0
 53 54  1  0  0  0
 54 55  2  0  0  0
 54135  1  0  0  0
 55 57  1  0  0  0
 55136  1  0  0  0
 56 69  2  0  0  0
 57 58  2  0  0  0
 57137  1  0  0  0
 58138  1  0  0  0
 59 60  1  0  0  0
 59 61  1  0  0  0
 59 62  1  0  0  0
 60139  1  0  0  0
 60140  1  0  0  0
 60141  1  0  0  0
 61142  1  0  0  0
 61143  1  0  0  0
 61144  1  0  0  0
 62145  1  0  0  0
 62146  1  0  0  0
 62147  1  0  0  0
 63 65  1  0  0  0
 63148  1  0  0  0
 63149  1  0  0  0
 63150  1  0  0  0
 64151  1  0  0  0
 65152  1  0  0  0
 68 92  1  0  0  0
 71 73  2  0  0  0
 71 75  1  0  0  0
 71153  1  0  0  0
 72 74  2  0  0  0
 72 76  1  0  0  0
 72154  1  0  0  0
 73 74  1  0  0  0
 73 77  1  0  0  0
 74 78  1  0  0  0
 75 76  2  0  0  0
 75 79  1  0  0  0
 76 80  1  0  0  0
 77155  1  0  0  0
 77156  1  0  0  0
 77157  1  0  0  0
 78158  1  0  0  0
 78159  1  0  0  0
 78160  1  0  0  0
 79 82  1  0  0  0
 79161  1  0  0  0
 79162  1  0  0  0
 80 92  1  0  0  0
 80163  1  0  0  0
 80164  1  0  0  0
 81 83  1  0  0  0
 81165  1  0  0  0
 81166  1  0  0  0
 82 90  1  0  0  0
 82167  1  0  0  0
 82168  1  0  0  0
 83 84  1  0  0  0
 83169  1  0  0  0
 83170  1  0  0  0
 84 85  1  0  0  0
 84171  1  0  0  0
 84172  1  0  0  0
 85 86  1  0  0  0
 85173  1  0  0  0
 85174  1  0  0  0
 86 87  1  0  0  0
 86175  1  0  0  0
 86176  1  0  0  0
 87 88  1  0  0  0
 87177  1  0  0  0
 87178  1  0  0  0
 88 89  1  0  0  0
 88179  1  0  0  0
 88180  1  0  0  0
 89 91  1  0  0  0
 89181  1  0  0  0
 89182  1  0  0  0
 90 93  1  0  0  0
 90183  1  0  0  0
 90184  1  0  0  0
 91 93  1  0  0  0
 91185  1  0  0  0
 91186  1  0  0  0
 92187  1  0  0  0
 92188  1  0  0  0
 93189  1  0  0  0
 93190  1  0  0  0
M  CHG  1  93   1
M  ISO  4   1 100  68 101  81 100  92 101
M  END
> <chiral flag>
0

> <version>
0

> <s_m_source_file>
/data/baiqing/PycharmProjects/Reinvent-master-3.2/result/LINK_invent/BTK/process_docking_weight1_custom_sum_contain_oxygen_bond_distance_aromatic_linkinvent_7_9_3/rearranged_h_0032.sdf

> <i_m_source_file_index>
61

> <r_mmod_Potential_Energy-OPLS-2005>
-107.098709106445

> <r_mmod_Stretch_Energy-OPLS-2005>
36.2922821044922

> <r_mmod_Bend_Energy-OPLS-2005>
108.370979309082

> <r_mmod_Torsional_Energy-OPLS-2005>
238.754684448242

> <r_mmod_Improper_Torsional_Energy-OPLS-2005>
3.33139681816101

> <r_mmod_Van_der_Waal_Energy-OPLS-2005>
157.936584472656

> <r_mmod_Electrostatic_Energy-OPLS-2005>
-244.716903686523

> <r_mmod_Solvation_Energy-OPLS-2005>
-426.955780029297

> <b_mmod_Minimization_Converged-OPLS-2005>
0

> <r_mmod_RMS_Derivative-OPLS-2005>
5.00036764144897

$$$$
61
                    3D
 Structure written by MMmdl.
158166  0  0  1  0            999 V2000
  -30.0417  -16.3387   20.0187 C   0  0  0  0  0  0
  -30.3917  -13.5422   19.4555 C   0  0  0  0  0  0
  -29.5730  -12.7406   18.3744 C   0  0  0  0  0  0
  -28.2203  -12.2617   18.9074 C   0  0  0  0  0  0
  -27.6059  -13.3199   19.8337 C   0  0  2  0  0  0
  -28.6066  -14.0040   20.8214 C   0  0  0  0  0  0
  -25.2415  -13.8273   20.6100 C   0  0  0  0  0  0
  -24.1762  -13.0389   20.9332 C   0  0  0  0  0  0
  -24.6482  -11.6908   20.8761 C   0  0  0  0  0  0
  -23.9149  -10.4254   21.0377 C   0  0  0  0  0  0
  -24.3665   -9.4155   21.9177 C   0  0  0  0  0  0
  -23.6307   -8.2218   22.0751 C   0  0  0  0  0  0
  -22.4274   -8.0270   21.3539 C   0  0  0  0  0  0
  -21.9949   -9.0244   20.4636 C   0  0  0  0  0  0
  -22.7318  -10.2118   20.3043 C   0  0  0  0  0  0
  -21.6836   -6.0724   22.5284 C   0  0  0  0  0  0
  -21.3993   -6.5625   23.8211 C   0  0  0  0  0  0
  -21.3662   -5.6779   24.9175 C   0  0  0  0  0  0
  -21.6050   -4.3056   24.7237 C   0  0  0  0  0  0
  -21.8814   -3.8139   23.4353 C   0  0  0  0  0  0
  -21.9183   -4.6942   22.3408 C   0  0  0  0  0  0
  -22.7750  -13.5110   21.1907 C   0  0  0  0  0  0
  -22.1655   -4.2134   21.0989 F   0  0  0  0  0  0
  -21.5649   -3.4539   25.7750 F   0  0  0  0  0  0
  -29.6360  -14.8037   20.0227 N   0  0  0  0  0  0
  -26.2972  -12.9645   20.3721 N   0  0  0  0  0  0
  -25.9457  -11.6671   20.5801 N   0  0  0  0  0  0
  -22.0388  -12.8075   22.0439 N   0  0  0  0  0  0
  -25.3960  -15.2038   20.4723 N   0  0  0  0  0  0
  -31.1192  -16.0048   20.6388 O   0  0  0  0  0  0
  -21.6623   -6.8879   21.4249 O   0  0  0  0  0  0
  -22.3431  -14.5409   20.6756 O   0  0  0  0  0  0
  -24.7188  -31.7566   23.1195 C   0  0  0  0  0  0
  -25.9592  -32.4245   23.7865 C   0  0  1  0  0  0
  -27.2507  -26.3248   20.2560 C   0  0  0  0  0  0
  -25.6030  -33.8097   24.1730 N   0  0  0  0  0  0
  -23.5617  -30.3396   21.4827 C   0  0  2  0  0  0
  -25.0245  -28.6005   20.1288 C   0  0  0  0  0  0
  -22.7914  -29.4078   22.4609 C   0  0  0  0  0  0
  -18.0356  -28.1444   22.8429 C   0  0  0  0  0  0
  -24.1500  -36.7056   23.2645 C   0  0  0  0  0  0
  -26.1564  -30.3641   21.4412 C   0  0  0  0  0  0
  -26.2195  -28.8871   20.7998 C   0  0  0  0  0  0
  -27.2950  -27.7918   20.8192 C   0  0  0  0  0  0
  -26.0176  -26.3461   19.5198 C   0  0  0  0  0  0
  -24.9863  -27.3593   19.4634 C   0  0  0  0  0  0
  -23.8366  -29.6002   20.1352 C   0  0  0  0  0  0
  -25.4154  -36.2767   24.0256 C   0  0  1  0  0  0
  -20.6008  -28.3821   23.1086 C   0  0  2  0  0  0
  -20.6818  -26.9453   22.5417 C   0  0  0  0  0  0
  -19.5794  -26.6370   21.5227 C   0  0  0  0  0  0
  -18.1973  -26.7962   22.1615 C   0  0  0  0  0  0
  -19.1629  -28.8964   23.2722 C   0  0  0  0  0  0
  -18.9530  -30.1544   23.8781 C   0  0  0  0  0  0
  -17.6518  -30.6621   24.0545 C   0  0  0  0  0  0
  -25.9180  -34.9168   23.4857 C   0  0  0  0  0  0
  -16.5406  -29.9098   23.6365 C   0  0  0  0  0  0
  -16.7334  -28.6523   23.0372 C   0  0  0  0  0  0
  -26.4659  -31.6434   25.0641 C   0  0  0  0  0  0
  -25.3627  -31.3849   26.1185 C   0  0  0  0  0  0
  -27.0663  -30.2739   24.6804 C   0  0  0  0  0  0
  -27.6034  -32.4381   25.7483 C   0  0  0  0  0  0
  -27.5585  -37.1625   24.8421 C   0  0  0  0  0  0
  -21.4546  -29.2983   22.3355 N   0  0  0  0  0  0
  -26.4216  -37.3601   23.9476 N   0  0  0  0  0  0
  -24.8406  -30.8630   22.0650 N   0  0  0  0  0  0
  -23.4199  -28.7749   23.3127 O   0  0  0  0  0  0
  -28.1840  -24.9475   20.3314 O   0  0  0  0  0  0
  -26.5873  -34.8822   22.4515 O   0  0  0  0  0  0
  -23.6134  -32.0808   23.5911 O   0  0  0  0  0  0
  -30.1081  -15.9579   17.6725 C   0  0  0  0  0  0
  -31.6601  -16.9910   18.4026 C   0  0  0  0  0  0
  -31.2775  -18.4475   19.7661 C   0  0  0  0  0  0
  -29.4463  -19.0116   20.2550 C   0  0  0  0  0  0
  -28.2805  -16.4035   18.3889 C   0  0  0  0  0  0
  -33.0446  -16.8262   17.8055 C   0  0  0  0  0  0
  -32.1289  -19.6147   19.4521 C   0  0  0  0  0  0
  -29.1775  -21.0724   20.4404 C   0  0  0  0  0  0
  -31.7339  -19.8486   17.9704 C   0  0  0  0  0  0
  -30.3351  -19.2496   17.5098 C   0  0  0  0  0  0
  -28.1571  -22.9901   20.2126 C   0  0  0  0  0  0
  -28.0888  -17.8052   19.7026 N   0  0  0  0  0  0
  -29.7274  -18.0472   18.2527 N   0  0  0  0  0  0
  -26.8801  -15.8832   17.5188 Cl  0  0  0  0  0  0
  -31.3110  -13.8905   18.9841 H   0  0  0  0  0  0
  -30.7416  -12.8861   20.2542 H   0  0  0  0  0  0
  -30.1544  -11.8936   18.0070 H   0  0  0  0  0  0
  -29.3858  -13.3627   17.5029 H   0  0  0  0  0  0
  -28.3849  -11.3505   19.4836 H   0  0  0  0  0  0
  -27.5481  -12.0017   18.0898 H   0  0  0  0  0  0
  -27.3492  -14.0891   19.1339 H   0  0  0  0  0  0
  -29.0478  -13.2909   21.5200 H   0  0  0  0  0  0
  -28.0613  -14.7125   21.4451 H   0  0  0  0  0  0
  -25.2799   -9.5610   22.4772 H   0  0  0  0  0  0
  -23.9998   -7.4594   22.7465 H   0  0  0  0  0  0
  -21.0895   -8.8780   19.8920 H   0  0  0  0  0  0
  -22.3790  -10.9665   19.6166 H   0  0  0  0  0  0
  -21.1966   -7.6132   23.9711 H   0  0  0  0  0  0
  -21.1500   -6.0519   25.9087 H   0  0  0  0  0  0
  -22.0594   -2.7596   23.2857 H   0  0  0  0  0  0
  -22.4044  -11.9780   22.4889 H   0  0  0  0  0  0
  -21.0985  -13.1088   22.2601 H   0  0  0  0  0  0
  -24.6223  -15.8465   20.5965 H   0  0  0  0  0  0
  -26.2628  -15.6768   20.2623 H   0  0  0  0  0  0
  -26.7699  -32.4639   23.0584 H   0  0  0  0  0  0
  -25.0022  -33.9067   24.9777 H   0  0  0  0  0  0
  -22.9069  -31.1860   21.2609 H   0  0  0  0  0  0
  -23.3860  -35.9272   23.3042 H   0  0  0  0  0  0
  -24.3604  -36.9015   22.2120 H   0  0  0  0  0  0
  -23.7122  -37.6077   23.6929 H   0  0  0  0  0  0
  -26.3968  -31.0630   20.6390 H   0  0  0  0  0  0
  -26.9935  -30.4464   22.1216 H   0  0  0  0  0  0
  -28.1827  -28.0361   21.3852 H   0  0  0  0  0  0
  -25.7862  -25.4349   18.9864 H   0  0  0  0  0  0
  -24.0950  -27.1237   18.8979 H   0  0  0  0  0  0
  -24.0408  -30.3452   19.3659 H   0  0  0  0  0  0
  -22.9342  -29.0852   19.8021 H   0  0  0  0  0  0
  -25.1355  -36.1432   25.0733 H   0  0  0  0  0  0
  -21.0057  -28.3477   24.1226 H   0  0  0  0  0  0
  -20.5686  -26.2447   23.3702 H   0  0  0  0  0  0
  -21.6674  -26.7374   22.1230 H   0  0  0  0  0  0
  -19.6965  -25.6253   21.1324 H   0  0  0  0  0  0
  -19.6759  -27.3124   20.6708 H   0  0  0  0  0  0
  -17.4257  -26.6694   21.4013 H   0  0  0  0  0  0
  -18.0356  -26.0137   22.9038 H   0  0  0  0  0  0
  -19.8011  -30.7383   24.2101 H   0  0  0  0  0  0
  -17.5075  -31.6287   24.5173 H   0  0  0  0  0  0
  -15.5404  -30.2973   23.7763 H   0  0  0  0  0  0
  -15.8727  -28.0820   22.7153 H   0  0  0  0  0  0
  -24.5848  -30.7173   25.7458 H   0  0  0  0  0  0
  -24.8791  -32.3105   26.4313 H   0  0  0  0  0  0
  -25.7719  -30.9190   27.0155 H   0  0  0  0  0  0
  -26.3454  -29.6226   24.1858 H   0  0  0  0  0  0
  -27.4012  -29.7339   25.5670 H   0  0  0  0  0  0
  -27.9452  -30.3795   24.0441 H   0  0  0  0  0  0
  -27.2518  -33.3778   26.1742 H   0  0  0  0  0  0
  -28.3999  -32.6784   25.0433 H   0  0  0  0  0  0
  -28.0522  -31.8731   26.5659 H   0  0  0  0  0  0
  -28.2360  -38.0150   24.7780 H   0  0  0  0  0  0
  -28.1324  -36.2712   24.5850 H   0  0  0  0  0  0
  -27.2362  -37.0736   25.8808 H   0  0  0  0  0  0
  -20.9935  -29.8560   21.6291 H   0  0  0  0  0  0
  -25.9998  -38.2575   24.1702 H   0  0  0  0  0  0
  -30.2414  -15.2705   16.8509 H   0  0  0  0  0  0
  -33.3379  -15.7794   17.7538 H   0  0  0  0  0  0
  -33.7800  -17.3611   18.4073 H   0  0  0  0  0  0
  -33.0594  -17.2338   16.7923 H   0  0  0  0  0  0
  -33.1890  -19.4058   19.5950 H   0  0  0  0  0  0
  -31.8825  -20.4559   20.0984 H   0  0  0  0  0  0
  -29.9839  -21.3360   19.7586 H   0  0  0  0  0  0
  -29.6136  -21.2010   21.4365 H   0  0  0  0  0  0
  -32.5001  -19.3845   17.3502 H   0  0  0  0  0  0
  -31.8147  -20.9051   17.7121 H   0  0  0  0  0  0
  -30.3725  -19.0068   16.4487 H   0  0  0  0  0  0
  -29.5902  -20.0466   17.5819 H   0  0  0  0  0  0
  -27.2988  -22.8157   20.8654 H   0  0  0  0  0  0
  -27.7449  -22.8888   19.2072 H   0  0  0  0  0  0
  -28.7221  -18.1985   18.3328 H   0  0  0  0  0  0
  1 25  1  0  0  0
  1 30  2  0  0  0
  1 83  1  0  0  0
  2  3  1  0  0  0
  2 25  1  0  0  0
  2 85  1  0  0  0
  2 86  1  0  0  0
  3  4  1  0  0  0
  3 87  1  0  0  0
  3 88  1  0  0  0
  4  5  1  0  0  0
  4 89  1  0  0  0
  4 90  1  0  0  0
  5  6  1  0  0  0
  5 26  1  0  0  0
  5 91  1  0  0  0
  6 25  1  0  0  0
  6 92  1  0  0  0
  6 93  1  0  0  0
  7  8  2  0  0  0
  7 26  1  0  0  0
  7 29  1  0  0  0
  8  9  1  0  0  0
  8 22  1  0  0  0
  9 10  1  0  0  0
  9 27  2  0  0  0
 10 11  2  0  0  0
 10 15  1  0  0  0
 11 12  1  0  0  0
 11 94  1  0  0  0
 12 13  2  0  0  0
 12 95  1  0  0  0
 13 14  1  0  0  0
 13 31  1  0  0  0
 14 15  2  0  0  0
 14 96  1  0  0  0
 15 97  1  0  0  0
 16 17  2  0  0  0
 16 21  1  0  0  0
 16 31  1  0  0  0
 17 18  1  0  0  0
 17 98  1  0  0  0
 18 19  2  0  0  0
 18 99  1  0  0  0
 19 20  1  0  0  0
 19 24  1  0  0  0
 20 21  2  0  0  0
 20100  1  0  0  0
 21 23  1  0  0  0
 22 28  1  0  0  0
 22 32  2  0  0  0
 26 27  1  0  0  0
 28101  1  0  0  0
 28102  1  0  0  0
 29103  1  0  0  0
 29104  1  0  0  0
 33 34  1  0  0  0
 33 66  1  0  0  0
 33 70  2  0  0  0
 34 36  1  0  0  0
 34 59  1  0  0  0
 34105  1  0  0  0
 35 44  2  0  0  0
 35 45  1  0  0  0
 35 68  1  0  0  0
 36 56  1  0  0  0
 36106  1  0  0  0
 37 39  1  0  0  0
 37 47  1  0  0  0
 37 66  1  0  0  0
 37107  1  0  0  0
 38 43  2  0  0  0
 38 46  1  0  0  0
 38 47  1  0  0  0
 39 64  1  0  0  0
 39 67  2  0  0  0
 40 52  1  0  0  0
 40 53  2  0  0  0
 40 58  1  0  0  0
 41108  1  0  0  0
 41109  1  0  0  0
 41110  1  0  0  0
 41 48  1  0  0  0
 42 43  1  0  0  0
 42 66  1  0  0  0
 42111  1  0  0  0
 42112  1  0  0  0
 43 44  1  0  0  0
 44113  1  0  0  0
 45 46  2  0  0  0
 45114  1  0  0  0
 46115  1  0  0  0
 47116  1  0  0  0
 47117  1  0  0  0
 48 56  1  0  0  0
 48 65  1  0  0  0
 48118  1  0  0  0
 49 50  1  0  0  0
 49 53  1  0  0  0
 49 64  1  0  0  0
 49119  1  0  0  0
 50 51  1  0  0  0
 50120  1  0  0  0
 50121  1  0  0  0
 51 52  1  0  0  0
 51122  1  0  0  0
 51123  1  0  0  0
 52124  1  0  0  0
 52125  1  0  0  0
 53 54  1  0  0  0
 54 55  2  0  0  0
 54126  1  0  0  0
 55 57  1  0  0  0
 55127  1  0  0  0
 56 69  2  0  0  0
 57 58  2  0  0  0
 57128  1  0  0  0
 58129  1  0  0  0
 59 60  1  0  0  0
 59 61  1  0  0  0
 59 62  1  0  0  0
 60130  1  0  0  0
 60131  1  0  0  0
 60132  1  0  0  0
 61133  1  0  0  0
 61134  1  0  0  0
 61135  1  0  0  0
 62136  1  0  0  0
 62137  1  0  0  0
 62138  1  0  0  0
 63 65  1  0  0  0
 63139  1  0  0  0
 63140  1  0  0  0
 63141  1  0  0  0
 64142  1  0  0  0
 65143  1  0  0  0
 68 81  1  0  0  0
 71 72  2  0  0  0
 71 75  1  0  0  0
 71144  1  0  0  0
 72 73  1  0  0  0
 72 76  1  0  0  0
 73 74  2  0  0  0
 73 77  1  0  0  0
 74 78  1  0  0  0
 74 82  1  0  0  0
 75 82  2  0  0  0
 75 84  1  0  0  0
 76145  1  0  0  0
 76146  1  0  0  0
 76147  1  0  0  0
 77 79  1  0  0  0
 77148  1  0  0  0
 77149  1  0  0  0
 78 81  1  0  0  0
 78150  1  0  0  0
 78151  1  0  0  0
 79 80  1  0  0  0
 79152  1  0  0  0
 79153  1  0  0  0
 80 83  1  0  0  0
 80154  1  0  0  0
 80155  1  0  0  0
 81156  1  0  0  0
 81157  1  0  0  0
 83158  1  0  0  0
M  ISO  4   1 100  68 101  81 101  83 100
M  END
> <chiral flag>
0

> <version>
0

> <s_m_source_file>
/data/baiqing/PycharmProjects/Reinvent-master-3.2/result/LINK_invent/BTK/process_docking_weight1_custom_sum_contain_oxygen_bond_distance_aromatic_linkinvent_7_9_3/rearranged_h_0032.sdf

> <i_m_source_file_index>
62

> <r_mmod_Potential_Energy-OPLS-2005>
14605.8056640625

> <r_mmod_Stretch_Energy-OPLS-2005>
8751.662109375

> <r_mmod_Bend_Energy-OPLS-2005>
987.062194824219

> <r_mmod_Torsional_Energy-OPLS-2005>
371.650573730469

> <r_mmod_Improper_Torsional_Energy-OPLS-2005>
88.1430740356445

> <r_mmod_Van_der_Waal_Energy-OPLS-2005>
2977.42114257812

> <r_mmod_Electrostatic_Energy-OPLS-2005>
-461.646331787109

> <r_mmod_Solvation_Energy-OPLS-2005>
-211.936630249023

> <b_mmod_Minimization_Converged-OPLS-2005>
0

> <r_mmod_RMS_Derivative-OPLS-2005>
6.97645473480225

$$$$
62
                    3D
 Structure written by MMmdl.
179188  0  0  1  0            999 V2000
  -30.7094  -14.4682   20.5852 C   0  0  0  0  0  0
  -30.4190  -12.3134   19.4110 C   0  0  0  0  0  0
  -29.4867  -12.5032   18.1979 C   0  0  0  0  0  0
  -28.0102  -12.3591   18.6163 C   0  0  0  0  0  0
  -27.6577  -13.2062   19.8681 C   0  0  2  0  0  0
  -28.7002  -12.9937   20.9861 C   0  0  0  0  0  0
  -25.2575  -13.8170   20.5658 C   0  0  0  0  0  0
  -24.1827  -13.0449   20.9186 C   0  0  0  0  0  0
  -24.6378  -11.6920   20.8745 C   0  0  0  0  0  0
  -23.9049  -10.4302   21.0412 C   0  0  0  0  0  0
  -24.3604   -9.4217   21.9186 C   0  0  0  0  0  0
  -23.6289   -8.2249   22.0757 C   0  0  0  0  0  0
  -22.4279   -8.0280   21.3539 C   0  0  0  0  0  0
  -21.9910   -9.0250   20.4636 C   0  0  0  0  0  0
  -22.7231  -10.2132   20.3051 C   0  0  0  0  0  0
  -21.6850   -6.0737   22.5275 C   0  0  0  0  0  0
  -21.4005   -6.5642   23.8210 C   0  0  0  0  0  0
  -21.3661   -5.6798   24.9172 C   0  0  0  0  0  0
  -21.6053   -4.3059   24.7225 C   0  0  0  0  0  0
  -21.8816   -3.8151   23.4344 C   0  0  0  0  0  0
  -21.9193   -4.6969   22.3399 C   0  0  0  0  0  0
  -22.7854  -13.5252   21.1862 C   0  0  0  0  0  0
  -22.1663   -4.2154   21.0979 F   0  0  0  0  0  0
  -21.5636   -3.4548   25.7742 F   0  0  0  0  0  0
  -30.0282  -13.3018   20.4287 N   0  0  0  0  0  0
  -26.3000  -12.9335   20.3339 N   0  0  0  0  0  0
  -25.9301  -11.6501   20.5760 N   0  0  0  0  0  0
  -22.0500  -12.8230   22.0401 N   0  0  0  0  0  0
  -25.4314  -15.1865   20.4021 N   0  0  0  0  0  0
  -31.8359  -14.6545   20.1176 O   0  0  0  0  0  0
  -21.6636   -6.8881   21.4240 O   0  0  0  0  0  0
  -22.3547  -14.5575   20.6738 O   0  0  0  0  0  0
  -24.6150  -31.8664   23.2094 C   0  0  0  0  0  0
  -25.9045  -32.4804   23.8398 C   0  0  1  0  0  0
  -27.2377  -27.4323   20.1016 C   0  0  0  0  0  0
  -25.5913  -33.8605   24.2338 N   0  0  0  0  0  0
  -23.4039  -30.4878   21.5495 C   0  0  2  0  0  0
  -24.8527  -28.9469   20.1228 C   0  0  0  0  0  0
  -22.7417  -29.4640   22.4990 C   0  0  0  0  0  0
  -18.0263  -28.1376   22.8485 C   0  0  0  0  0  0
  -24.1488  -36.7296   23.2639 C   0  0  0  0  0  0
  -25.9319  -30.8283   21.3655 C   0  0  0  0  0  0
  -26.0108  -29.4585   20.7229 C   0  0  0  0  0  0
  -27.2082  -28.7064   20.7136 C   0  0  0  0  0  0
  -26.0669  -26.9309   19.4997 C   0  0  0  0  0  0
  -24.8743  -27.6800   19.5121 C   0  0  0  0  0  0
  -23.6147  -29.8152   20.1661 C   0  0  0  0  0  0
  -25.4112  -36.3103   24.0340 C   0  0  1  0  0  0
  -20.5854  -28.3659   23.1314 C   0  0  2  0  0  0
  -20.6757  -26.9392   22.5420 C   0  0  0  0  0  0
  -19.5731  -26.6376   21.5214 C   0  0  0  0  0  0
  -18.1904  -26.7923   22.1610 C   0  0  0  0  0  0
  -19.1513  -28.8834   23.2892 C   0  0  0  0  0  0
  -18.9449  -30.1443   23.8902 C   0  0  0  0  0  0
  -17.6456  -30.6587   24.0562 C   0  0  0  0  0  0
  -25.9039  -34.9462   23.5130 C   0  0  0  0  0  0
  -16.5344  -29.9091   23.6336 C   0  0  0  0  0  0
  -16.7256  -28.6508   23.0355 C   0  0  0  0  0  0
  -26.4489  -31.6583   25.0719 C   0  0  0  0  0  0
  -25.3770  -31.3677   26.1478 C   0  0  0  0  0  0
  -27.0308  -30.3030   24.6072 C   0  0  0  0  0  0
  -27.6088  -32.4292   25.7458 C   0  0  0  0  0  0
  -27.5580  -37.1806   24.8472 C   0  0  0  0  0  0
  -21.4144  -29.3025   22.3730 N   0  0  0  0  0  0
  -26.4297  -37.3790   23.9410 N   0  0  0  0  0  0
  -24.6680  -31.0764   22.0996 N   0  0  0  0  0  0
  -23.4183  -28.8193   23.3043 O   0  0  0  0  0  0
  -28.4025  -26.7069   20.0032 O   0  0  0  0  0  0
  -26.5586  -34.8907   22.4682 O   0  0  0  0  0  0
  -23.5346  -32.1420   23.7489 O   0  0  0  0  0  0
  -28.6551  -23.4226   20.2203 C   0  0  0  0  0  0
  -26.9983  -24.1390   21.8489 C   0  0  0  0  0  0
  -26.9771  -21.8347   21.0202 C   0  0  0  0  0  0
  -28.1004  -24.4444   21.0307 C   0  0  0  0  0  0
  -28.1106  -22.1099   20.2111 C   0  0  0  0  0  0
  -26.4348  -22.8508   21.8498 C   0  0  0  0  0  0
  -26.3207  -20.4597   21.0188 C   0  0  0  0  0  0
  -24.6227  -21.4412   22.5173 C   0  0  0  0  0  0
  -25.4998  -20.1905   22.2916 C   0  0  1  0  0  0
  -24.6029  -18.9598   22.0495 C   0  0  0  0  0  0
  -26.8967  -19.4334   25.9297 C   0  0  0  0  0  0
  -28.7049  -21.0450   19.2747 C   0  0  0  0  0  0
  -28.7172  -25.8453   21.1011 C   0  0  0  0  0  0
  -26.4744  -19.9112   23.4710 C   0  0  0  0  0  0
  -25.8430  -19.7651   24.8665 C   0  0  0  0  0  0
  -29.8714  -20.1735   19.8265 C   0  0  0  0  0  0
  -29.5187  -18.8333   20.5376 C   0  0  0  0  0  0
  -30.7343  -17.8774   20.6569 C   0  0  0  0  0  0
  -30.6214  -16.7248   21.6943 C   0  0  0  0  0  0
  -30.0455  -15.4580   21.2131 N   0  0  0  0  0  0
  -25.3865  -22.6261   22.7126 O   0  0  0  0  0  0
  -31.4618  -12.4146   19.1057 H   0  0  0  0  0  0
  -30.3252  -11.3032   19.8137 H   0  0  0  0  0  0
  -29.7248  -11.7750   17.4210 H   0  0  0  0  0  0
  -29.6486  -13.4882   17.7568 H   0  0  0  0  0  0
  -27.8270  -11.3038   18.8216 H   0  0  0  0  0  0
  -27.3549  -12.6239   17.7863 H   0  0  0  0  0  0
  -27.7015  -14.2525   19.5656 H   0  0  0  0  0  0
  -28.6784  -11.9575   21.3265 H   0  0  0  0  0  0
  -28.4592  -13.5946   21.8644 H   0  0  0  0  0  0
  -25.2745   -9.5696   22.4763 H   0  0  0  0  0  0
  -24.0005   -7.4642   22.7475 H   0  0  0  0  0  0
  -21.0850   -8.8751   19.8931 H   0  0  0  0  0  0
  -22.3689  -10.9667   19.6152 H   0  0  0  0  0  0
  -21.1981   -7.6147   23.9711 H   0  0  0  0  0  0
  -21.1490   -6.0523   25.9075 H   0  0  0  0  0  0
  -22.0592   -2.7611   23.2839 H   0  0  0  0  0  0
  -22.4106  -11.9868   22.4762 H   0  0  0  0  0  0
  -21.1114  -13.1251   22.2603 H   0  0  0  0  0  0
  -24.6678  -15.8450   20.5064 H   0  0  0  0  0  0
  -26.2820  -15.6149   20.0597 H   0  0  0  0  0  0
  -26.7111  -32.5527   23.1158 H   0  0  0  0  0  0
  -25.0148  -33.9779   25.0544 H   0  0  0  0  0  0
  -22.6929  -31.3039   21.4064 H   0  0  0  0  0  0
  -23.3764  -35.9614   23.3295 H   0  0  0  0  0  0
  -24.3595  -36.8920   22.2056 H   0  0  0  0  0  0
  -23.7215  -37.6483   23.6670 H   0  0  0  0  0  0
  -26.0418  -31.5887   20.5912 H   0  0  0  0  0  0
  -26.8207  -30.8880   21.9816 H   0  0  0  0  0  0
  -28.1087  -29.1038   21.1600 H   0  0  0  0  0  0
  -26.0842  -25.9648   19.0145 H   0  0  0  0  0  0
  -23.9846  -27.2810   19.0452 H   0  0  0  0  0  0
  -23.7224  -30.5868   19.4023 H   0  0  0  0  0  0
  -22.7401  -29.2329   19.8693 H   0  0  0  0  0  0
  -25.1284  -36.1974   25.0834 H   0  0  0  0  0  0
  -20.9922  -28.3219   24.1439 H   0  0  0  0  0  0
  -20.5662  -26.2264   23.3609 H   0  0  0  0  0  0
  -21.6634  -26.7430   22.1212 H   0  0  0  0  0  0
  -19.6903  -25.6287   21.1238 H   0  0  0  0  0  0
  -19.6687  -27.3198   20.6752 H   0  0  0  0  0  0
  -17.4186  -26.6686   21.4001 H   0  0  0  0  0  0
  -18.0286  -26.0061   22.8990 H   0  0  0  0  0  0
  -19.7924  -30.7253   24.2285 H   0  0  0  0  0  0
  -17.5010  -31.6269   24.5146 H   0  0  0  0  0  0
  -15.5347  -30.2993   23.7671 H   0  0  0  0  0  0
  -15.8648  -28.0835   22.7076 H   0  0  0  0  0  0
  -24.5936  -30.7027   25.7825 H   0  0  0  0  0  0
  -24.8971  -32.2822   26.4973 H   0  0  0  0  0  0
  -25.8140  -30.8816   27.0208 H   0  0  0  0  0  0
  -26.2826  -29.6779   24.1176 H   0  0  0  0  0  0
  -27.4147  -29.7275   25.4506 H   0  0  0  0  0  0
  -27.8639  -30.4362   23.9163 H   0  0  0  0  0  0
  -27.2763  -33.3633   26.1996 H   0  0  0  0  0  0
  -28.3912  -32.6764   25.0270 H   0  0  0  0  0  0
  -28.0724  -31.8416   26.5391 H   0  0  0  0  0  0
  -28.2609  -38.0092   24.7513 H   0  0  0  0  0  0
  -28.1060  -36.2621   24.6313 H   0  0  0  0  0  0
  -27.2291  -37.1474   25.8873 H   0  0  0  0  0  0
  -20.9325  -29.8756   21.6950 H   0  0  0  0  0  0
  -26.0180  -38.2864   24.1423 H   0  0  0  0  0  0
  -29.5088  -23.6532   19.5991 H   0  0  0  0  0  0
  -26.5806  -24.9008   22.4936 H   0  0  0  0  0  0
  -27.0466  -19.6661   20.8847 H   0  0  0  0  0  0
  -25.6732  -20.4231   20.1411 H   0  0  0  0  0  0
  -23.9687  -21.3076   23.3782 H   0  0  0  0  0  0
  -23.9624  -21.6006   21.6625 H   0  0  0  0  0  0
  -23.9800  -19.0904   21.1640 H   0  0  0  0  0  0
  -23.9318  -18.7769   22.8877 H   0  0  0  0  0  0
  -25.1988  -18.0586   21.8981 H   0  0  0  0  0  0
  -26.4476  -19.3769   26.9214 H   0  0  0  0  0  0
  -27.6781  -20.1942   25.9617 H   0  0  0  0  0  0
  -27.3727  -18.4735   25.7257 H   0  0  0  0  0  0
  -29.0888  -21.5890   18.4098 H   0  0  0  0  0  0
  -27.9200  -20.4126   18.8586 H   0  0  0  0  0  0
  -29.8009  -25.7342   21.1347 H   0  0  0  0  0  0
  -28.4451  -26.3221   22.0446 H   0  0  0  0  0  0
  -27.2152  -20.7095   23.5246 H   0  0  0  0  0  0
  -27.0447  -19.0078   23.2492 H   0  0  0  0  0  0
  -25.3423  -20.6925   25.1474 H   0  0  0  0  0  0
  -25.0804  -18.9860   24.8665 H   0  0  0  0  0  0
  -30.5316  -20.7790   20.4487 H   0  0  0  0  0  0
  -30.4721  -19.9031   18.9564 H   0  0  0  0  0  0
  -28.7192  -18.3161   20.0040 H   0  0  0  0  0  0
  -29.1406  -19.0567   21.5358 H   0  0  0  0  0  0
  -31.5870  -18.4856   20.9624 H   0  0  0  0  0  0
  -31.0043  -17.4842   19.6761 H   0  0  0  0  0  0
  -30.0588  -17.0598   22.5665 H   0  0  0  0  0  0
  -31.6225  -16.5051   22.0720 H   0  0  0  0  0  0
  -29.1029  -15.2437   21.5063 H   0  0  0  0  0  0
  1 25  1  0  0  0
  1 30  2  0  0  0
  1 90  1  0  0  0
  2  3  1  0  0  0
  2 25  1  0  0  0
  2 92  1  0  0  0
  2 93  1  0  0  0
  3  4  1  0  0  0
  3 94  1  0  0  0
  3 95  1  0  0  0
  4  5  1  0  0  0
  4 96  1  0  0  0
  4 97  1  0  0  0
  5  6  1  0  0  0
  5 26  1  0  0  0
  5 98  1  0  0  0
  6 25  1  0  0  0
  6 99  1  0  0  0
  6100  1  0  0  0
  7  8  2  0  0  0
  7 26  1  0  0  0
  7 29  1  0  0  0
  8  9  1  0  0  0
  8 22  1  0  0  0
  9 10  1  0  0  0
  9 27  2  0  0  0
 10 11  2  0  0  0
 10 15  1  0  0  0
 11 12  1  0  0  0
 11101  1  0  0  0
 12 13  2  0  0  0
 12102  1  0  0  0
 13 14  1  0  0  0
 13 31  1  0  0  0
 14 15  2  0  0  0
 14103  1  0  0  0
 15104  1  0  0  0
 16 17  2  0  0  0
 16 21  1  0  0  0
 16 31  1  0  0  0
 17 18  1  0  0  0
 17105  1  0  0  0
 18 19  2  0  0  0
 18106  1  0  0  0
 19 20  1  0  0  0
 19 24  1  0  0  0
 20 21  2  0  0  0
 20107  1  0  0  0
 21 23  1  0  0  0
 22 28  1  0  0  0
 22 32  2  0  0  0
 26 27  1  0  0  0
 28108  1  0  0  0
 28109  1  0  0  0
 29110  1  0  0  0
 29111  1  0  0  0
 33 34  1  0  0  0
 33 66  1  0  0  0
 33 70  2  0  0  0
 34 36  1  0  0  0
 34 59  1  0  0  0
 34112  1  0  0  0
 35 44  2  0  0  0
 35 45  1  0  0  0
 35 68  1  0  0  0
 36 56  1  0  0  0
 36113  1  0  0  0
 37 39  1  0  0  0
 37 47  1  0  0  0
 37 66  1  0  0  0
 37114  1  0  0  0
 38 43  2  0  0  0
 38 46  1  0  0  0
 38 47  1  0  0  0
 39 64  1  0  0  0
 39 67  2  0  0  0
 40 52  1  0  0  0
 40 53  2  0  0  0
 40 58  1  0  0  0
 41115  1  0  0  0
 41116  1  0  0  0
 41117  1  0  0  0
 41 48  1  0  0  0
 42 43  1  0  0  0
 42 66  1  0  0  0
 42118  1  0  0  0
 42119  1  0  0  0
 43 44  1  0  0  0
 44120  1  0  0  0
 45 46  2  0  0  0
 45121  1  0  0  0
 46122  1  0  0  0
 47123  1  0  0  0
 47124  1  0  0  0
 48 56  1  0  0  0
 48 65  1  0  0  0
 48125  1  0  0  0
 49 50  1  0  0  0
 49 53  1  0  0  0
 49 64  1  0  0  0
 49126  1  0  0  0
 50 51  1  0  0  0
 50127  1  0  0  0
 50128  1  0  0  0
 51 52  1  0  0  0
 51129  1  0  0  0
 51130  1  0  0  0
 52131  1  0  0  0
 52132  1  0  0  0
 53 54  1  0  0  0
 54 55  2  0  0  0
 54133  1  0  0  0
 55 57  1  0  0  0
 55134  1  0  0  0
 56 69  2  0  0  0
 57 58  2  0  0  0
 57135  1  0  0  0
 58136  1  0  0  0
 59 60  1  0  0  0
 59 61  1  0  0  0
 59 62  1  0  0  0
 60137  1  0  0  0
 60138  1  0  0  0
 60139  1  0  0  0
 61140  1  0  0  0
 61141  1  0  0  0
 61142  1  0  0  0
 62143  1  0  0  0
 62144  1  0  0  0
 62145  1  0  0  0
 63 65  1  0  0  0
 63146  1  0  0  0
 63147  1  0  0  0
 63148  1  0  0  0
 64149  1  0  0  0
 65150  1  0  0  0
 68 83  1  0  0  0
 71 74  2  0  0  0
 71 75  1  0  0  0
 71151  1  0  0  0
 72 74  1  0  0  0
 72 76  2  0  0  0
 72152  1  0  0  0
 73 75  2  0  0  0
 73 76  1  0  0  0
 73 77  1  0  0  0
 74 83  1  0  0  0
 75 82  1  0  0  0
 76 91  1  0  0  0
 77 79  1  0  0  0
 77153  1  0  0  0
 77154  1  0  0  0
 78 79  1  0  0  0
 78 91  1  0  0  0
 78155  1  0  0  0
 78156  1  0  0  0
 79 80  1  0  0  0
 79 84  1  0  0  0
 80157  1  0  0  0
 80158  1  0  0  0
 80159  1  0  0  0
 81 85  1  0  0  0
 81160  1  0  0  0
 81161  1  0  0  0
 81162  1  0  0  0
 82 86  1  0  0  0
 82163  1  0  0  0
 82164  1  0  0  0
 83165  1  0  0  0
 83166  1  0  0  0
 84 85  1  0  0  0
 84167  1  0  0  0
 84168  1  0  0  0
 85169  1  0  0  0
 85170  1  0  0  0
 86 87  1  0  0  0
 86171  1  0  0  0
 86172  1  0  0  0
 87 88  1  0  0  0
 87173  1  0  0  0
 87174  1  0  0  0
 88 89  1  0  0  0
 88175  1  0  0  0
 88176  1  0  0  0
 89 90  1  0  0  0
 89177  1  0  0  0
 89178  1  0  0  0
 90179  1  0  0  0
M  ISO  4   1 100  68 101  83 101  90 100
M  END
> <chiral flag>
0

> <version>
0

> <s_m_source_file>
/data/baiqing/PycharmProjects/Reinvent-master-3.2/result/LINK_invent/BTK/process_docking_weight1_custom_sum_contain_oxygen_bond_distance_aromatic_linkinvent_7_9_3/rearranged_h_0032.sdf

> <i_m_source_file_index>
63

> <r_mmod_Potential_Energy-OPLS-2005>
-1.04543721675873

> <r_mmod_Stretch_Energy-OPLS-2005>
40.8440628051758

> <r_mmod_Bend_Energy-OPLS-2005>
118.626373291016

> <r_mmod_Torsional_Energy-OPLS-2005>
258.981231689453

> <r_mmod_Improper_Torsional_Energy-OPLS-2005>
2.9652099609375

> <r_mmod_Van_der_Waal_Energy-OPLS-2005>
143.720504760742

> <r_mmod_Electrostatic_Energy-OPLS-2005>
-376.955596923828

> <r_mmod_Solvation_Energy-OPLS-2005>
-200.993515014648

> <b_mmod_Minimization_Converged-OPLS-2005>
0

> <r_mmod_RMS_Derivative-OPLS-2005>
1.66872251033783

$$$$
63
                    3D
 Structure written by MMmdl.
153161  0  0  1  0            999 V2000
  -30.5543  -14.9342   20.3999 C   0  0  0  0  0  0
  -30.4402  -12.5688   19.5015 C   0  0  0  0  0  0
  -29.5227  -12.5258   18.2574 C   0  0  0  0  0  0
  -28.0487  -12.3333   18.6616 C   0  0  0  0  0  0
  -27.6303  -13.2556   19.8343 C   0  0  2  0  0  0
  -28.6760  -13.2739   20.9708 C   0  0  0  0  0  0
  -25.2450  -13.8208   20.5708 C   0  0  0  0  0  0
  -24.1794  -13.0452   20.9250 C   0  0  0  0  0  0
  -24.6400  -11.6915   20.8743 C   0  0  0  0  0  0
  -23.9065  -10.4296   21.0400 C   0  0  0  0  0  0
  -24.3631   -9.4209   21.9170 C   0  0  0  0  0  0
  -23.6317   -8.2240   22.0729 C   0  0  0  0  0  0
  -22.4283   -8.0293   21.3557 C   0  0  0  0  0  0
  -21.9938   -9.0237   20.4633 C   0  0  0  0  0  0
  -22.7241  -10.2115   20.3049 C   0  0  0  0  0  0
  -21.6881   -6.0747   22.5270 C   0  0  0  0  0  0
  -21.4015   -6.5642   23.8198 C   0  0  0  0  0  0
  -21.3676   -5.6803   24.9171 C   0  0  0  0  0  0
  -21.6067   -4.3063   24.7232 C   0  0  0  0  0  0
  -21.8818   -3.8150   23.4345 C   0  0  0  0  0  0
  -21.9185   -4.6972   22.3397 C   0  0  0  0  0  0
  -22.7788  -13.5171   21.1885 C   0  0  0  0  0  0
  -22.1676   -4.2152   21.0981 F   0  0  0  0  0  0
  -21.5617   -3.4539   25.7737 F   0  0  0  0  0  0
  -29.9586  -13.6743   20.3775 N   0  0  0  0  0  0
  -26.2888  -12.9464   20.3208 N   0  0  0  0  0  0
  -25.9343  -11.6579   20.5727 N   0  0  0  0  0  0
  -22.0485  -12.8180   22.0441 N   0  0  0  0  0  0
  -25.4104  -15.1951   20.4066 N   0  0  0  0  0  0
  -31.7570  -14.9916   20.1243 O   0  0  0  0  0  0
  -21.6671   -6.8884   21.4229 O   0  0  0  0  0  0
  -22.3476  -14.5470   20.6704 O   0  0  0  0  0  0
  -24.6511  -31.8375   23.1853 C   0  0  0  0  0  0
  -25.9216  -32.4680   23.8261 C   0  0  1  0  0  0
  -27.2347  -27.1055   20.1562 C   0  0  0  0  0  0
  -25.5930  -33.8482   24.2160 N   0  0  0  0  0  0
  -23.4572  -30.4555   21.5292 C   0  0  2  0  0  0
  -24.9110  -28.8671   20.1211 C   0  0  0  0  0  0
  -22.7586  -29.4493   22.4825 C   0  0  0  0  0  0
  -18.0314  -28.1382   22.8453 C   0  0  0  0  0  0
  -24.1439  -36.7230   23.2644 C   0  0  0  0  0  0
  -26.0178  -30.6970   21.3942 C   0  0  0  0  0  0
  -26.0921  -29.3068   20.7358 C   0  0  0  0  0  0
  -27.2562  -28.4430   20.7321 C   0  0  0  0  0  0
  -26.0234  -26.7730   19.5094 C   0  0  0  0  0  0
  -24.8908  -27.6111   19.4960 C   0  0  0  0  0  0
  -23.6911  -29.7750   20.1552 C   0  0  0  0  0  0
  -25.4096  -36.3031   24.0322 C   0  0  1  0  0  0
  -20.5927  -28.3712   23.1229 C   0  0  2  0  0  0
  -20.6773  -26.9406   22.5424 C   0  0  0  0  0  0
  -19.5756  -26.6350   21.5219 C   0  0  0  0  0  0
  -18.1934  -26.7909   22.1624 C   0  0  0  0  0  0
  -19.1569  -28.8866   23.2817 C   0  0  0  0  0  0
  -18.9471  -30.1423   23.8874 C   0  0  0  0  0  0
  -17.6489  -30.6570   24.0555 C   0  0  0  0  0  0
  -25.9053  -34.9417   23.5062 C   0  0  0  0  0  0
  -16.5369  -29.9078   23.6369 C   0  0  0  0  0  0
  -16.7310  -28.6505   23.0381 C   0  0  0  0  0  0
  -26.4524  -31.6609   25.0744 C   0  0  0  0  0  0
  -25.3675  -31.3839   26.1414 C   0  0  0  0  0  0
  -27.0407  -30.2998   24.6382 C   0  0  0  0  0  0
  -27.6037  -32.4398   25.7520 C   0  0  0  0  0  0
  -27.5555  -37.1749   24.8472 C   0  0  0  0  0  0
  -21.4265  -29.3029   22.3549 N   0  0  0  0  0  0
  -26.4265  -37.3760   23.9423 N   0  0  0  0  0  0
  -24.7275  -31.0182   22.0912 N   0  0  0  0  0  0
  -23.4185  -28.8023   23.2993 O   0  0  0  0  0  0
  -28.2932  -26.1128   20.1879 O   0  0  0  0  0  0
  -26.5674  -34.8936   22.4638 O   0  0  0  0  0  0
  -23.5639  -32.1261   23.7066 O   0  0  0  0  0  0
  -29.4504  -20.4190   20.1302 C   0  0  0  0  0  0
  -28.6512  -18.9180   21.8605 C   0  0  0  0  0  0
  -29.3660  -19.0202   20.6581 C   0  0  0  0  0  0
  -28.9210  -21.6567   20.7831 C   0  0  0  0  0  0
  -28.3424  -21.3822   22.0582 C   0  0  0  0  0  0
  -28.1561  -20.0506   22.5396 C   0  0  0  0  0  0
  -27.9990  -22.5400   22.9800 C   0  0  0  0  0  0
  -29.1106  -23.2504   20.2931 C   0  0  0  0  0  0
  -30.0467  -17.6280   20.0655 C   0  0  0  0  0  0
  -28.0135  -24.5701   20.3413 C   0  0  0  0  0  0
  -29.7768  -16.1232   20.5026 N   0  0  0  0  0  0
  -27.3300  -19.7393   24.0304 Cl  0  0  0  0  0  0
  -31.4735  -12.7096   19.1917 H   0  0  0  0  0  0
  -30.4262  -11.6152   20.0311 H   0  0  0  0  0  0
  -29.8262  -11.7236   17.5817 H   0  0  0  0  0  0
  -29.6355  -13.4566   17.6991 H   0  0  0  0  0  0
  -27.9101  -11.2869   18.9391 H   0  0  0  0  0  0
  -27.4013  -12.5136   17.8025 H   0  0  0  0  0  0
  -27.5960  -14.2626   19.4162 H   0  0  0  0  0  0
  -28.7478  -12.2975   21.4524 H   0  0  0  0  0  0
  -28.3830  -13.9811   21.7487 H   0  0  0  0  0  0
  -25.2772   -9.5693   22.4757 H   0  0  0  0  0  0
  -24.0041   -7.4629   22.7438 H   0  0  0  0  0  0
  -21.0883   -8.8752   19.8934 H   0  0  0  0  0  0
  -22.3707  -10.9661   19.6175 H   0  0  0  0  0  0
  -21.2027   -7.6152   23.9707 H   0  0  0  0  0  0
  -21.1507   -6.0536   25.9078 H   0  0  0  0  0  0
  -22.0583   -2.7603   23.2838 H   0  0  0  0  0  0
  -22.4188  -11.9897   22.4885 H   0  0  0  0  0  0
  -21.1081  -13.1123   22.2596 H   0  0  0  0  0  0
  -24.6254  -15.8346   20.4836 H   0  0  0  0  0  0
  -26.2359  -15.6276   20.0129 H   0  0  0  0  0  0
  -26.7249  -32.5238   23.0962 H   0  0  0  0  0  0
  -25.0030  -33.9540   25.0298 H   0  0  0  0  0  0
  -22.7671  -31.2845   21.3670 H   0  0  0  0  0  0
  -23.3751  -35.9492   23.3314 H   0  0  0  0  0  0
  -24.3540  -36.8869   22.2052 H   0  0  0  0  0  0
  -23.7138  -37.6400   23.6715 H   0  0  0  0  0  0
  -26.1828  -31.4380   20.6144 H   0  0  0  0  0  0
  -26.8860  -30.7462   22.0410 H   0  0  0  0  0  0
  -28.1597  -28.7867   21.2210 H   0  0  0  0  0  0
  -25.9165  -25.8181   19.0215 H   0  0  0  0  0  0
  -23.9857  -27.2554   19.0213 H   0  0  0  0  0  0
  -23.8427  -30.5444   19.3987 H   0  0  0  0  0  0
  -22.8062  -29.2182   19.8433 H   0  0  0  0  0  0
  -25.1271  -36.1860   25.0825 H   0  0  0  0  0  0
  -21.0020  -28.3287   24.1350 H   0  0  0  0  0  0
  -20.5638  -26.2298   23.3626 H   0  0  0  0  0  0
  -21.6620  -26.7343   22.1211 H   0  0  0  0  0  0
  -19.6892  -25.6251   21.1251 H   0  0  0  0  0  0
  -19.6715  -27.3130   20.6738 H   0  0  0  0  0  0
  -17.4191  -26.6660   21.4031 H   0  0  0  0  0  0
  -18.0320  -26.0040   22.9033 H   0  0  0  0  0  0
  -19.7943  -30.7221   24.2251 H   0  0  0  0  0  0
  -17.5066  -31.6276   24.5068 H   0  0  0  0  0  0
  -15.5363  -30.2994   23.7705 H   0  0  0  0  0  0
  -15.8699  -28.0820   22.7184 H   0  0  0  0  0  0
  -24.5809  -30.7262   25.7744 H   0  0  0  0  0  0
  -24.8912  -32.3028   26.4822 H   0  0  0  0  0  0
  -25.7871  -30.9011   27.0238 H   0  0  0  0  0  0
  -26.3055  -29.6691   24.1356 H   0  0  0  0  0  0
  -27.3974  -29.7346   25.5016 H   0  0  0  0  0  0
  -27.9004  -30.4267   23.9763 H   0  0  0  0  0  0
  -27.2648  -33.3781   26.1961 H   0  0  0  0  0  0
  -28.3924  -32.6821   25.0366 H   0  0  0  0  0  0
  -28.0624  -31.8594   26.5548 H   0  0  0  0  0  0
  -28.2561  -38.0062   24.7575 H   0  0  0  0  0  0
  -28.1047  -36.2592   24.6233 H   0  0  0  0  0  0
  -27.2278  -37.1342   25.8877 H   0  0  0  0  0  0
  -20.9493  -29.8800   21.6762 H   0  0  0  0  0  0
  -26.0126  -38.2800   24.1537 H   0  0  0  0  0  0
  -29.9904  -20.5556   19.2000 H   0  0  0  0  0  0
  -28.5154  -17.9442   22.3092 H   0  0  0  0  0  0
  -27.8053  -22.2479   24.0075 H   0  0  0  0  0  0
  -27.1010  -23.0464   22.6420 H   0  0  0  0  0  0
  -28.8436  -23.2285   23.0382 H   0  0  0  0  0  0
  -29.4823  -23.1857   19.2717 H   0  0  0  0  0  0
  -29.9760  -23.5817   20.8647 H   0  0  0  0  0  0
  -31.1289  -17.7697   20.1273 H   0  0  0  0  0  0
  -29.8160  -17.6401   18.9993 H   0  0  0  0  0  0
  -27.5176  -24.5699   21.3038 H   0  0  0  0  0  0
  -27.2320  -24.2897   19.6372 H   0  0  0  0  0  0
  -28.8097  -15.9250   20.7058 H   0  0  0  0  0  0
  1 25  1  0  0  0
  1 30  2  0  0  0
  1 81  1  0  0  0
  2  3  1  0  0  0
  2 25  1  0  0  0
  2 83  1  0  0  0
  2 84  1  0  0  0
  3  4  1  0  0  0
  3 85  1  0  0  0
  3 86  1  0  0  0
  4  5  1  0  0  0
  4 87  1  0  0  0
  4 88  1  0  0  0
  5  6  1  0  0  0
  5 26  1  0  0  0
  5 89  1  0  0  0
  6 25  1  0  0  0
  6 90  1  0  0  0
  6 91  1  0  0  0
  7  8  2  0  0  0
  7 26  1  0  0  0
  7 29  1  0  0  0
  8  9  1  0  0  0
  8 22  1  0  0  0
  9 10  1  0  0  0
  9 27  2  0  0  0
 10 11  2  0  0  0
 10 15  1  0  0  0
 11 12  1  0  0  0
 11 92  1  0  0  0
 12 13  2  0  0  0
 12 93  1  0  0  0
 13 14  1  0  0  0
 13 31  1  0  0  0
 14 15  2  0  0  0
 14 94  1  0  0  0
 15 95  1  0  0  0
 16 17  2  0  0  0
 16 21  1  0  0  0
 16 31  1  0  0  0
 17 18  1  0  0  0
 17 96  1  0  0  0
 18 19  2  0  0  0
 18 97  1  0  0  0
 19 20  1  0  0  0
 19 24  1  0  0  0
 20 21  2  0  0  0
 20 98  1  0  0  0
 21 23  1  0  0  0
 22 28  1  0  0  0
 22 32  2  0  0  0
 26 27  1  0  0  0
 28 99  1  0  0  0
 28100  1  0  0  0
 29101  1  0  0  0
 29102  1  0  0  0
 33 34  1  0  0  0
 33 66  1  0  0  0
 33 70  2  0  0  0
 34 36  1  0  0  0
 34 59  1  0  0  0
 34103  1  0  0  0
 35 44  2  0  0  0
 35 45  1  0  0  0
 35 68  1  0  0  0
 36 56  1  0  0  0
 36104  1  0  0  0
 37 39  1  0  0  0
 37 47  1  0  0  0
 37 66  1  0  0  0
 37105  1  0  0  0
 38 43  2  0  0  0
 38 46  1  0  0  0
 38 47  1  0  0  0
 39 64  1  0  0  0
 39 67  2  0  0  0
 40 52  1  0  0  0
 40 53  2  0  0  0
 40 58  1  0  0  0
 41106  1  0  0  0
 41107  1  0  0  0
 41108  1  0  0  0
 41 48  1  0  0  0
 42 43  1  0  0  0
 42 66  1  0  0  0
 42109  1  0  0  0
 42110  1  0  0  0
 43 44  1  0  0  0
 44111  1  0  0  0
 45 46  2  0  0  0
 45112  1  0  0  0
 46113  1  0  0  0
 47114  1  0  0  0
 47115  1  0  0  0
 48 56  1  0  0  0
 48 65  1  0  0  0
 48116  1  0  0  0
 49 50  1  0  0  0
 49 53  1  0  0  0
 49 64  1  0  0  0
 49117  1  0  0  0
 50 51  1  0  0  0
 50118  1  0  0  0
 50119  1  0  0  0
 51 52  1  0  0  0
 51120  1  0  0  0
 51121  1  0  0  0
 52122  1  0  0  0
 52123  1  0  0  0
 53 54  1  0  0  0
 54 55  2  0  0  0
 54124  1  0  0  0
 55 57  1  0  0  0
 55125  1  0  0  0
 56 69  2  0  0  0
 57 58  2  0  0  0
 57126  1  0  0  0
 58127  1  0  0  0
 59 60  1  0  0  0
 59 61  1  0  0  0
 59 62  1  0  0  0
 60128  1  0  0  0
 60129  1  0  0  0
 60130  1  0  0  0
 61131  1  0  0  0
 61132  1  0  0  0
 61133  1  0  0  0
 62134  1  0  0  0
 62135  1  0  0  0
 62136  1  0  0  0
 63 65  1  0  0  0
 63137  1  0  0  0
 63138  1  0  0  0
 63139  1  0  0  0
 64140  1  0  0  0
 65141  1  0  0  0
 68 80  1  0  0  0
 71 73  2  0  0  0
 71 74  1  0  0  0
 71142  1  0  0  0
 72 73  1  0  0  0
 72 76  2  0  0  0
 72143  1  0  0  0
 73 79  1  0  0  0
 74 75  2  0  0  0
 74 78  1  0  0  0
 75 76  1  0  0  0
 75 77  1  0  0  0
 76 82  1  0  0  0
 77144  1  0  0  0
 77145  1  0  0  0
 77146  1  0  0  0
 78 80  1  0  0  0
 78147  1  0  0  0
 78148  1  0  0  0
 79 81  1  0  0  0
 79149  1  0  0  0
 79150  1  0  0  0
 80151  1  0  0  0
 80152  1  0  0  0
 81153  1  0  0  0
M  ISO  4   1 100  68 101  80 101  81 100
M  END
> <chiral flag>
0

> <version>
0

> <s_m_source_file>
/data/baiqing/PycharmProjects/Reinvent-master-3.2/result/LINK_invent/BTK/process_docking_weight1_custom_sum_contain_oxygen_bond_distance_aromatic_linkinvent_7_9_3/rearranged_h_0032.sdf

> <i_m_source_file_index>
64

> <r_mmod_Potential_Energy-OPLS-2005>
506.781982421875

> <r_mmod_Stretch_Energy-OPLS-2005>
294.247985839844

> <r_mmod_Bend_Energy-OPLS-2005>
263.129699707031

> <r_mmod_Torsional_Energy-OPLS-2005>
216.806045532227

> <r_mmod_Improper_Torsional_Energy-OPLS-2005>
7.14227724075317

> <r_mmod_Van_der_Waal_Energy-OPLS-2005>
137.734756469727

> <r_mmod_Electrostatic_Energy-OPLS-2005>
-401.149810791016

> <r_mmod_Solvation_Energy-OPLS-2005>
-209.635650634766

> <b_mmod_Minimization_Converged-OPLS-2005>
0

> <r_mmod_RMS_Derivative-OPLS-2005>
6.05747890472412

$$$$
64
                    3D
 Structure written by MMmdl.
165173  0  0  1  0            999 V2000
  -30.7237  -14.3975   20.6557 C   0  0  0  0  0  0
  -30.4317  -12.3049   19.3757 C   0  0  0  0  0  0
  -29.4799  -12.5120   18.1819 C   0  0  0  0  0  0
  -28.0030  -12.3837   18.6058 C   0  0  0  0  0  0
  -27.6690  -13.1974   19.8835 C   0  0  2  0  0  0
  -28.7123  -12.9129   20.9829 C   0  0  0  0  0  0
  -25.2635  -13.8149   20.5702 C   0  0  0  0  0  0
  -24.1874  -13.0460   20.9181 C   0  0  0  0  0  0
  -24.6411  -11.6912   20.8765 C   0  0  0  0  0  0
  -23.9077  -10.4306   21.0440 C   0  0  0  0  0  0
  -24.3616   -9.4207   21.9217 C   0  0  0  0  0  0
  -23.6293   -8.2258   22.0763 C   0  0  0  0  0  0
  -22.4282   -8.0296   21.3555 C   0  0  0  0  0  0
  -21.9924   -9.0285   20.4651 C   0  0  0  0  0  0
  -22.7260  -10.2159   20.3083 C   0  0  0  0  0  0
  -21.6853   -6.0751   22.5277 C   0  0  0  0  0  0
  -21.4005   -6.5645   23.8214 C   0  0  0  0  0  0
  -21.3650   -5.6798   24.9163 C   0  0  0  0  0  0
  -21.6048   -4.3061   24.7219 C   0  0  0  0  0  0
  -21.8819   -3.8161   23.4343 C   0  0  0  0  0  0
  -21.9192   -4.6983   22.3400 C   0  0  0  0  0  0
  -22.7885  -13.5269   21.1831 C   0  0  0  0  0  0
  -22.1663   -4.2169   21.0976 F   0  0  0  0  0  0
  -21.5633   -3.4543   25.7735 F   0  0  0  0  0  0
  -30.0421  -13.2422   20.4374 N   0  0  0  0  0  0
  -26.3072  -12.9309   20.3424 N   0  0  0  0  0  0
  -25.9340  -11.6474   20.5800 N   0  0  0  0  0  0
  -22.0483  -12.8277   22.0363 N   0  0  0  0  0  0
  -25.4395  -15.1864   20.4079 N   0  0  0  0  0  0
  -31.8017  -14.6648   20.1160 O   0  0  0  0  0  0
  -21.6628   -6.8902   21.4245 O   0  0  0  0  0  0
  -22.3588  -14.5584   20.6677 O   0  0  0  0  0  0
  -24.6136  -31.8772   23.2187 C   0  0  0  0  0  0
  -25.9090  -32.4842   23.8445 C   0  0  1  0  0  0
  -27.2085  -27.4782   20.0739 C   0  0  0  0  0  0
  -25.6004  -33.8659   24.2361 N   0  0  0  0  0  0
  -23.3903  -30.5182   21.5572 C   0  0  2  0  0  0
  -24.8224  -28.9934   20.1193 C   0  0  0  0  0  0
  -22.7364  -29.4743   22.4918 C   0  0  0  0  0  0
  -18.0287  -28.1361   22.8412 C   0  0  0  0  0  0
  -24.1512  -36.7330   23.2614 C   0  0  0  0  0  0
  -25.9209  -30.8616   21.3625 C   0  0  0  0  0  0
  -25.9883  -29.5035   20.6994 C   0  0  0  0  0  0
  -27.1833  -28.7541   20.6698 C   0  0  0  0  0  0
  -26.0041  -26.9490   19.5474 C   0  0  0  0  0  0
  -24.8194  -27.7071   19.5564 C   0  0  0  0  0  0
  -23.5949  -29.8767   20.1625 C   0  0  0  0  0  0
  -25.4137  -36.3118   24.0300 C   0  0  1  0  0  0
  -20.5869  -28.3700   23.1216 C   0  0  2  0  0  0
  -20.6810  -26.9416   22.5370 C   0  0  0  0  0  0
  -19.5801  -26.6368   21.5146 C   0  0  0  0  0  0
  -18.1947  -26.7907   22.1506 C   0  0  0  0  0  0
  -19.1527  -28.8837   23.2828 C   0  0  0  0  0  0
  -18.9468  -30.1427   23.8867 C   0  0  0  0  0  0
  -17.6506  -30.6553   24.0574 C   0  0  0  0  0  0
  -25.9087  -34.9490   23.5094 C   0  0  0  0  0  0
  -16.5386  -29.9055   23.6334 C   0  0  0  0  0  0
  -16.7279  -28.6486   23.0305 C   0  0  0  0  0  0
  -26.4524  -31.6603   25.0774 C   0  0  0  0  0  0
  -25.3758  -31.3761   26.1502 C   0  0  0  0  0  0
  -27.0384  -30.3036   24.6204 C   0  0  0  0  0  0
  -27.6121  -32.4319   25.7533 C   0  0  0  0  0  0
  -27.5606  -37.1801   24.8419 C   0  0  0  0  0  0
  -21.4102  -29.3087   22.3630 N   0  0  0  0  0  0
  -26.4287  -37.3824   23.9409 N   0  0  0  0  0  0
  -24.6599  -31.0971   22.1048 N   0  0  0  0  0  0
  -23.4167  -28.8242   23.2906 O   0  0  0  0  0  0
  -28.4104  -26.8092   20.0572 O   0  0  0  0  0  0
  -26.5591  -34.8924   22.4623 O   0  0  0  0  0  0
  -23.5348  -32.1500   23.7637 O   0  0  0  0  0  0
  -29.2415  -20.5973   21.7927 C   0  0  0  0  0  0
  -28.9269  -21.9563   21.6258 C   0  0  0  0  0  0
  -27.5008  -20.0160   20.1955 C   0  0  0  0  0  0
  -28.5394  -19.6141   21.0665 C   0  0  0  0  0  0
  -27.9124  -22.3604   20.7323 C   0  0  0  0  0  0
  -27.1665  -21.3827   20.0155 C   0  0  0  0  0  0
  -25.0088  -20.7022   18.7118 C   0  0  0  0  0  0
  -28.8486  -18.1284   21.2553 C   0  0  0  0  0  0
  -27.7223  -23.8606   20.5362 C   0  0  0  0  0  0
  -26.0442  -21.7877   19.0458 C   0  0  0  0  0  0
  -30.3495  -17.7470   21.2207 C   0  0  0  0  0  0
  -28.9147  -24.4631   19.7695 C   0  0  0  0  0  0
  -30.6836  -16.4839   22.0422 C   0  0  0  0  0  0
  -28.6312  -25.7989   19.0768 C   0  0  0  0  0  0
  -30.1210  -15.2508   21.4942 N   0  0  0  0  0  0
  -31.4638  -12.4495   19.0524 H   0  0  0  0  0  0
  -30.3770  -11.2788   19.7417 H   0  0  0  0  0  0
  -29.7015  -11.7883   17.3963 H   0  0  0  0  0  0
  -29.6498  -13.4967   17.7431 H   0  0  0  0  0  0
  -27.7966  -11.3261   18.7754 H   0  0  0  0  0  0
  -27.3518  -12.6931   17.7868 H   0  0  0  0  0  0
  -27.7350  -14.2545   19.6261 H   0  0  0  0  0  0
  -28.6911  -11.8552   21.2499 H   0  0  0  0  0  0
  -28.4697  -13.4404   21.9053 H   0  0  0  0  0  0
  -25.2762   -9.5683   22.4796 H   0  0  0  0  0  0
  -24.0000   -7.4640   22.7489 H   0  0  0  0  0  0
  -21.0858   -8.8830   19.8955 H   0  0  0  0  0  0
  -22.3745  -10.9716   19.6200 H   0  0  0  0  0  0
  -21.1989   -7.6147   23.9719 H   0  0  0  0  0  0
  -21.1466   -6.0519   25.9066 H   0  0  0  0  0  0
  -22.0608   -2.7634   23.2834 H   0  0  0  0  0  0
  -22.4058  -11.9931   22.4763 H   0  0  0  0  0  0
  -21.1114  -13.1341   22.2539 H   0  0  0  0  0  0
  -24.6815  -15.8496   20.5244 H   0  0  0  0  0  0
  -26.2949  -15.6171   20.0820 H   0  0  0  0  0  0
  -26.7165  -32.5580   23.1217 H   0  0  0  0  0  0
  -25.0290  -33.9847   25.0590 H   0  0  0  0  0  0
  -22.6783  -31.3395   21.4372 H   0  0  0  0  0  0
  -23.3785  -35.9633   23.3198 H   0  0  0  0  0  0
  -24.3631  -36.9074   22.2051 H   0  0  0  0  0  0
  -23.7263  -37.6497   23.6719 H   0  0  0  0  0  0
  -26.0439  -31.6431   20.6103 H   0  0  0  0  0  0
  -26.8003  -30.8897   21.9937 H   0  0  0  0  0  0
  -28.0912  -29.1637   21.0871 H   0  0  0  0  0  0
  -25.9399  -25.9529   19.1441 H   0  0  0  0  0  0
  -23.9041  -27.2937   19.1529 H   0  0  0  0  0  0
  -23.7309  -30.6744   19.4298 H   0  0  0  0  0  0
  -22.7074  -29.3358   19.8324 H   0  0  0  0  0  0
  -25.1299  -36.1960   25.0784 H   0  0  0  0  0  0
  -20.9987  -28.3332   24.1329 H   0  0  0  0  0  0
  -20.5692  -26.2328   23.3589 H   0  0  0  0  0  0
  -21.6703  -26.7432   22.1202 H   0  0  0  0  0  0
  -19.7011  -25.6264   21.1234 H   0  0  0  0  0  0
  -19.6776  -27.3157   20.6668 H   0  0  0  0  0  0
  -17.4245  -26.6648   21.3872 H   0  0  0  0  0  0
  -18.0327  -26.0007   22.8855 H   0  0  0  0  0  0
  -19.7974  -30.7241   24.2184 H   0  0  0  0  0  0
  -17.5071  -31.6226   24.5185 H   0  0  0  0  0  0
  -15.5397  -30.3000   23.7652 H   0  0  0  0  0  0
  -15.8659  -28.0880   22.6963 H   0  0  0  0  0  0
  -24.5975  -30.7042   25.7870 H   0  0  0  0  0  0
  -24.8889  -32.2936   26.4812 H   0  0  0  0  0  0
  -25.8065  -30.9066   27.0357 H   0  0  0  0  0  0
  -26.2979  -29.6759   24.1247 H   0  0  0  0  0  0
  -27.4143  -29.7305   25.4708 H   0  0  0  0  0  0
  -27.8792  -30.4308   23.9373 H   0  0  0  0  0  0
  -27.2761  -33.3629   26.2090 H   0  0  0  0  0  0
  -28.3931  -32.6862   25.0354 H   0  0  0  0  0  0
  -28.0786  -31.8474   26.5464 H   0  0  0  0  0  0
  -28.2503  -38.0210   24.7616 H   0  0  0  0  0  0
  -28.1225  -36.2756   24.6040 H   0  0  0  0  0  0
  -27.2363  -37.1249   25.8825 H   0  0  0  0  0  0
  -20.9254  -29.8881   21.6922 H   0  0  0  0  0  0
  -26.0153  -38.2855   24.1554 H   0  0  0  0  0  0
  -30.0340  -20.3287   22.4783 H   0  0  0  0  0  0
  -29.4910  -22.7003   22.1716 H   0  0  0  0  0  0
  -26.9588  -19.2539   19.6563 H   0  0  0  0  0  0
  -24.1823  -21.1382   18.1474 H   0  0  0  0  0  0
  -24.5856  -20.2593   19.6138 H   0  0  0  0  0  0
  -25.4289  -19.9057   18.0973 H   0  0  0  0  0  0
  -28.3281  -17.5543   20.4900 H   0  0  0  0  0  0
  -28.4041  -17.8269   22.2031 H   0  0  0  0  0  0
  -27.6284  -24.3398   21.5123 H   0  0  0  0  0  0
  -26.7929  -24.0905   20.0282 H   0  0  0  0  0  0
  -26.4979  -22.1488   18.1210 H   0  0  0  0  0  0
  -25.4672  -22.6138   19.4585 H   0  0  0  0  0  0
  -30.9612  -18.5443   21.6404 H   0  0  0  0  0  0
  -30.6958  -17.6448   20.1913 H   0  0  0  0  0  0
  -29.2237  -23.7564   18.9991 H   0  0  0  0  0  0
  -29.7686  -24.5662   20.4381 H   0  0  0  0  0  0
  -30.2955  -16.6034   23.0545 H   0  0  0  0  0  0
  -31.7652  -16.3828   22.1521 H   0  0  0  0  0  0
  -27.8441  -25.6901   18.3341 H   0  0  0  0  0  0
  -29.5105  -26.1018   18.5065 H   0  0  0  0  0  0
  -29.2246  -14.9559   21.8517 H   0  0  0  0  0  0
  1 25  1  0  0  0
  1 30  2  0  0  0
  1 85  1  0  0  0
  2  3  1  0  0  0
  2 25  1  0  0  0
  2 86  1  0  0  0
  2 87  1  0  0  0
  3  4  1  0  0  0
  3 88  1  0  0  0
  3 89  1  0  0  0
  4  5  1  0  0  0
  4 90  1  0  0  0
  4 91  1  0  0  0
  5  6  1  0  0  0
  5 26  1  0  0  0
  5 92  1  0  0  0
  6 25  1  0  0  0
  6 93  1  0  0  0
  6 94  1  0  0  0
  7  8  2  0  0  0
  7 26  1  0  0  0
  7 29  1  0  0  0
  8  9  1  0  0  0
  8 22  1  0  0  0
  9 10  1  0  0  0
  9 27  2  0  0  0
 10 11  2  0  0  0
 10 15  1  0  0  0
 11 12  1  0  0  0
 11 95  1  0  0  0
 12 13  2  0  0  0
 12 96  1  0  0  0
 13 14  1  0  0  0
 13 31  1  0  0  0
 14 15  2  0  0  0
 14 97  1  0  0  0
 15 98  1  0  0  0
 16 17  2  0  0  0
 16 21  1  0  0  0
 16 31  1  0  0  0
 17 18  1  0  0  0
 17 99  1  0  0  0
 18 19  2  0  0  0
 18100  1  0  0  0
 19 20  1  0  0  0
 19 24  1  0  0  0
 20 21  2  0  0  0
 20101  1  0  0  0
 21 23  1  0  0  0
 22 28  1  0  0  0
 22 32  2  0  0  0
 26 27  1  0  0  0
 28102  1  0  0  0
 28103  1  0  0  0
 29104  1  0  0  0
 29105  1  0  0  0
 33 34  1  0  0  0
 33 66  1  0  0  0
 33 70  2  0  0  0
 34 36  1  0  0  0
 34 59  1  0  0  0
 34106  1  0  0  0
 35 44  2  0  0  0
 35 45  1  0  0  0
 35 68  1  0  0  0
 36 56  1  0  0  0
 36107  1  0  0  0
 37 39  1  0  0  0
 37 47  1  0  0  0
 37 66  1  0  0  0
 37108  1  0  0  0
 38 43  2  0  0  0
 38 46  1  0  0  0
 38 47  1  0  0  0
 39 64  1  0  0  0
 39 67  2  0  0  0
 40 52  1  0  0  0
 40 53  2  0  0  0
 40 58  1  0  0  0
 41109  1  0  0  0
 41110  1  0  0  0
 41111  1  0  0  0
 41 48  1  0  0  0
 42 43  1  0  0  0
 42 66  1  0  0  0
 42112  1  0  0  0
 42113  1  0  0  0
 43 44  1  0  0  0
 44114  1  0  0  0
 45 46  2  0  0  0
 45115  1  0  0  0
 46116  1  0  0  0
 47117  1  0  0  0
 47118  1  0  0  0
 48 56  1  0  0  0
 48 65  1  0  0  0
 48119  1  0  0  0
 49 50  1  0  0  0
 49 53  1  0  0  0
 49 64  1  0  0  0
 49120  1  0  0  0
 50 51  1  0  0  0
 50121  1  0  0  0
 50122  1  0  0  0
 51 52  1  0  0  0
 51123  1  0  0  0
 51124  1  0  0  0
 52125  1  0  0  0
 52126  1  0  0  0
 53 54  1  0  0  0
 54 55  2  0  0  0
 54127  1  0  0  0
 55 57  1  0  0  0
 55128  1  0  0  0
 56 69  2  0  0  0
 57 58  2  0  0  0
 57129  1  0  0  0
 58130  1  0  0  0
 59 60  1  0  0  0
 59 61  1  0  0  0
 59 62  1  0  0  0
 60131  1  0  0  0
 60132  1  0  0  0
 60133  1  0  0  0
 61134  1  0  0  0
 61135  1  0  0  0
 61136  1  0  0  0
 62137  1  0  0  0
 62138  1  0  0  0
 62139  1  0  0  0
 63 65  1  0  0  0
 63140  1  0  0  0
 63141  1  0  0  0
 63142  1  0  0  0
 64143  1  0  0  0
 65144  1  0  0  0
 68 84  1  0  0  0
 71 72  2  0  0  0
 71 74  1  0  0  0
 71145  1  0  0  0
 72 75  1  0  0  0
 72146  1  0  0  0
 73 74  2  0  0  0
 73 76  1  0  0  0
 73147  1  0  0  0
 74 78  1  0  0  0
 75 76  2  0  0  0
 75 79  1  0  0  0
 76 80  1  0  0  0
 77 80  1  0  0  0
 77148  1  0  0  0
 77149  1  0  0  0
 77150  1  0  0  0
 78 81  1  0  0  0
 78151  1  0  0  0
 78152  1  0  0  0
 79 82  1  0  0  0
 79153  1  0  0  0
 79154  1  0  0  0
 80155  1  0  0  0
 80156  1  0  0  0
 81 83  1  0  0  0
 81157  1  0  0  0
 81158  1  0  0  0
 82 84  1  0  0  0
 82159  1  0  0  0
 82160  1  0  0  0
 83 85  1  0  0  0
 83161  1  0  0  0
 83162  1  0  0  0
 84163  1  0  0  0
 84164  1  0  0  0
 85165  1  0  0  0
M  ISO  4   1 100  68 101  84 101  85 100
M  END
> <chiral flag>
0

> <version>
0

> <s_m_source_file>
/data/baiqing/PycharmProjects/Reinvent-master-3.2/result/LINK_invent/BTK/process_docking_weight1_custom_sum_contain_oxygen_bond_distance_aromatic_linkinvent_7_9_3/rearranged_h_0032.sdf

> <i_m_source_file_index>
65

> <r_mmod_Potential_Energy-OPLS-2005>
-75.0420455932617

> <r_mmod_Stretch_Energy-OPLS-2005>
34.3797950744629

> <r_mmod_Bend_Energy-OPLS-2005>
102.860626220703

> <r_mmod_Torsional_Energy-OPLS-2005>
205.971527099609

> <r_mmod_Improper_Torsional_Energy-OPLS-2005>
2.01324415206909

> <r_mmod_Van_der_Waal_Energy-OPLS-2005>
160.690689086914

> <r_mmod_Electrostatic_Energy-OPLS-2005>
-390.813629150391

> <r_mmod_Solvation_Energy-OPLS-2005>
-201.299118041992

> <b_mmod_Minimization_Converged-OPLS-2005>
0

> <r_mmod_RMS_Derivative-OPLS-2005>
4.72567224502563

$$$$
65
                    3D
 Structure written by MMmdl.
157165  0  0  1  0            999 V2000
  -30.7122  -14.4795   20.5018 C   0  0  0  0  0  0
  -30.4117  -12.2874   19.4448 C   0  0  0  0  0  0
  -29.4989  -12.4905   18.2171 C   0  0  0  0  0  0
  -28.0191  -12.3562   18.6262 C   0  0  0  0  0  0
  -27.6551  -13.2157   19.8684 C   0  0  2  0  0  0
  -28.6968  -13.0427   20.9992 C   0  0  0  0  0  0
  -25.2550  -13.8182   20.5703 C   0  0  0  0  0  0
  -24.1807  -13.0442   20.9198 C   0  0  0  0  0  0
  -24.6385  -11.6912   20.8736 C   0  0  0  0  0  0
  -23.9051  -10.4283   21.0387 C   0  0  0  0  0  0
  -24.3597   -9.4194   21.9166 C   0  0  0  0  0  0
  -23.6266   -8.2232   22.0741 C   0  0  0  0  0  0
  -22.4255   -8.0259   21.3531 C   0  0  0  0  0  0
  -21.9891   -9.0232   20.4639 C   0  0  0  0  0  0
  -22.7220  -10.2113   20.3041 C   0  0  0  0  0  0
  -21.6848   -6.0701   22.5266 C   0  0  0  0  0  0
  -21.4013   -6.5614   23.8196 C   0  0  0  0  0  0
  -21.3664   -5.6781   24.9170 C   0  0  0  0  0  0
  -21.6057   -4.3045   24.7233 C   0  0  0  0  0  0
  -21.8817   -3.8120   23.4360 C   0  0  0  0  0  0
  -21.9189   -4.6922   22.3404 C   0  0  0  0  0  0
  -22.7826  -13.5209   21.1861 C   0  0  0  0  0  0
  -22.1653   -4.2101   21.0979 F   0  0  0  0  0  0
  -21.5635   -3.4544   25.7757 F   0  0  0  0  0  0
  -30.0300  -13.3055   20.4384 N   0  0  0  0  0  0
  -26.2988  -12.9369   20.3340 N   0  0  0  0  0  0
  -25.9319  -11.6523   20.5758 N   0  0  0  0  0  0
  -22.0474  -12.8178   22.0418 N   0  0  0  0  0  0
  -25.4228  -15.1908   20.4122 N   0  0  0  0  0  0
  -31.8833  -14.5798   20.1247 O   0  0  0  0  0  0
  -21.6628   -6.8847   21.4229 O   0  0  0  0  0  0
  -22.3488  -14.5501   20.6697 O   0  0  0  0  0  0
  -24.6147  -31.8645   23.2068 C   0  0  0  0  0  0
  -25.9037  -32.4816   23.8359 C   0  0  1  0  0  0
  -27.2385  -27.4163   20.1155 C   0  0  0  0  0  0
  -25.5878  -33.8611   24.2294 N   0  0  0  0  0  0
  -23.4066  -30.4883   21.5453 C   0  0  2  0  0  0
  -24.8548  -28.9426   20.1252 C   0  0  0  0  0  0
  -22.7397  -29.4673   22.4948 C   0  0  0  0  0  0
  -18.0278  -28.1351   22.8474 C   0  0  0  0  0  0
  -24.1494  -36.7324   23.2643 C   0  0  0  0  0  0
  -25.9373  -30.8267   21.3640 C   0  0  0  0  0  0
  -26.0154  -29.4574   20.7170 C   0  0  0  0  0  0
  -27.2144  -28.7036   20.7034 C   0  0  0  0  0  0
  -26.0630  -26.9149   19.5226 C   0  0  0  0  0  0
  -24.8736  -27.6703   19.5240 C   0  0  0  0  0  0
  -23.6193  -29.8143   20.1635 C   0  0  0  0  0  0
  -25.4108  -36.3111   24.0337 C   0  0  1  0  0  0
  -20.5854  -28.3672   23.1288 C   0  0  2  0  0  0
  -20.6774  -26.9391   22.5406 C   0  0  0  0  0  0
  -19.5764  -26.6368   21.5189 C   0  0  0  0  0  0
  -18.1948  -26.7896   22.1594 C   0  0  0  0  0  0
  -19.1512  -28.8823   23.2888 C   0  0  0  0  0  0
  -18.9425  -30.1436   23.8893 C   0  0  0  0  0  0
  -17.6416  -30.6567   24.0538 C   0  0  0  0  0  0
  -25.9031  -34.9474   23.5119 C   0  0  0  0  0  0
  -16.5317  -29.9049   23.6311 C   0  0  0  0  0  0
  -16.7258  -28.6466   23.0333 C   0  0  0  0  0  0
  -26.4464  -31.6613   25.0701 C   0  0  0  0  0  0
  -25.3731  -31.3715   26.1451 C   0  0  0  0  0  0
  -27.0292  -30.3046   24.6107 C   0  0  0  0  0  0
  -27.6033  -32.4342   25.7465 C   0  0  0  0  0  0
  -27.5584  -37.1814   24.8457 C   0  0  0  0  0  0
  -21.4128  -29.3050   22.3688 N   0  0  0  0  0  0
  -26.4299  -37.3797   23.9400 N   0  0  0  0  0  0
  -24.6706  -31.0749   22.0965 N   0  0  0  0  0  0
  -23.4137  -28.8208   23.3012 O   0  0  0  0  0  0
  -28.4097  -26.6882   20.0523 O   0  0  0  0  0  0
  -26.5622  -34.8921   22.4697 O   0  0  0  0  0  0
  -23.5341  -32.1390   23.7479 O   0  0  0  0  0  0
  -29.5833  -20.0231   21.8442 C   0  0  0  0  0  0
  -28.8348  -20.2705   20.7219 C   0  0  0  0  0  0
  -28.9315  -19.0608   19.9692 C   0  0  0  0  0  0
  -29.7708  -18.1556   20.5656 C   0  0  0  0  0  0
  -31.1215  -18.2292   22.7145 C   0  0  0  0  0  0
  -28.0790  -21.5401   20.3255 C   0  0  0  0  0  0
  -30.3522  -16.8591   20.0407 C   0  0  0  0  0  0
  -28.6690  -22.8809   20.8535 C   0  0  0  0  0  0
  -28.1315  -24.1630   20.1425 C   0  0  0  0  0  0
  -28.4994  -25.4949   20.8565 C   0  0  0  0  0  0
  -30.1774  -18.7650   21.7482 N   0  0  0  0  0  0
  -29.9743  -15.5908   20.6966 N   0  0  0  0  0  0
  -28.1696  -18.8101   18.4407 Cl  0  0  0  0  0  0
  -31.4614  -12.3496   19.1528 H   0  0  0  0  0  0
  -30.2812  -11.2870   19.8607 H   0  0  0  0  0  0
  -29.7417  -11.7668   17.4383 H   0  0  0  0  0  0
  -29.6749  -13.4748   17.7791 H   0  0  0  0  0  0
  -27.8362  -11.3040   18.8461 H   0  0  0  0  0  0
  -27.3688  -12.6084   17.7883 H   0  0  0  0  0  0
  -27.6803  -14.2542   19.5411 H   0  0  0  0  0  0
  -28.6586  -12.0280   21.3960 H   0  0  0  0  0  0
  -28.4760  -13.7021   21.8402 H   0  0  0  0  0  0
  -25.2736   -9.5670   22.4747 H   0  0  0  0  0  0
  -23.9972   -7.4635   22.7475 H   0  0  0  0  0  0
  -21.0817   -8.8752   19.8958 H   0  0  0  0  0  0
  -22.3657  -10.9648   19.6155 H   0  0  0  0  0  0
  -21.1990   -7.6126   23.9685 H   0  0  0  0  0  0
  -21.1504   -6.0519   25.9072 H   0  0  0  0  0  0
  -22.0595   -2.7579   23.2890 H   0  0  0  0  0  0
  -22.4092  -11.9842   22.4813 H   0  0  0  0  0  0
  -21.1098  -13.1199   22.2647 H   0  0  0  0  0  0
  -24.6515  -15.8420   20.5131 H   0  0  0  0  0  0
  -26.2707  -15.6345   20.0851 H   0  0  0  0  0  0
  -26.7117  -32.5524   23.1130 H   0  0  0  0  0  0
  -24.9985  -33.9752   25.0407 H   0  0  0  0  0  0
  -22.6989  -31.3072   21.4025 H   0  0  0  0  0  0
  -23.3751  -35.9668   23.3318 H   0  0  0  0  0  0
  -24.3577  -36.8918   22.2055 H   0  0  0  0  0  0
  -23.7259  -37.6534   23.6647 H   0  0  0  0  0  0
  -26.0596  -31.5931   20.5976 H   0  0  0  0  0  0
  -26.8209  -30.8742   21.9879 H   0  0  0  0  0  0
  -28.1185  -29.1044   21.1424 H   0  0  0  0  0  0
  -26.0731  -25.9466   19.0443 H   0  0  0  0  0  0
  -23.9846  -27.2671   19.0614 H   0  0  0  0  0  0
  -23.7399  -30.5850   19.4007 H   0  0  0  0  0  0
  -22.7420  -29.2382   19.8641 H   0  0  0  0  0  0
  -25.1306  -36.1976   25.0838 H   0  0  0  0  0  0
  -20.9948  -28.3264   24.1409 H   0  0  0  0  0  0
  -20.5694  -26.2260   23.3591 H   0  0  0  0  0  0
  -21.6648  -26.7448   22.1203 H   0  0  0  0  0  0
  -19.6939  -25.6298   21.1188 H   0  0  0  0  0  0
  -19.6730  -27.3198   20.6736 H   0  0  0  0  0  0
  -17.4219  -26.6643   21.3994 H   0  0  0  0  0  0
  -18.0384  -26.0012   22.8970 H   0  0  0  0  0  0
  -19.7889  -30.7257   24.2253 H   0  0  0  0  0  0
  -17.4967  -31.6251   24.5111 H   0  0  0  0  0  0
  -15.5316  -30.2953   23.7619 H   0  0  0  0  0  0
  -15.8665  -28.0784   22.7027 H   0  0  0  0  0  0
  -24.5881  -30.7102   25.7769 H   0  0  0  0  0  0
  -24.8964  -32.2883   26.4933 H   0  0  0  0  0  0
  -25.8076  -30.8831   27.0187 H   0  0  0  0  0  0
  -26.2832  -29.6806   24.1182 H   0  0  0  0  0  0
  -27.4058  -29.7297   25.4580 H   0  0  0  0  0  0
  -27.8678  -30.4347   23.9263 H   0  0  0  0  0  0
  -27.2630  -33.3606   26.2100 H   0  0  0  0  0  0
  -28.3809  -32.6961   25.0281 H   0  0  0  0  0  0
  -28.0749  -31.8443   26.5330 H   0  0  0  0  0  0
  -28.2624  -38.0097   24.7496 H   0  0  0  0  0  0
  -28.1068  -36.2628   24.6313 H   0  0  0  0  0  0
  -27.2290  -37.1494   25.8858 H   0  0  0  0  0  0
  -20.9292  -29.8680   21.6835 H   0  0  0  0  0  0
  -26.0193  -38.2888   24.1372 H   0  0  0  0  0  0
  -29.7876  -20.6630   22.6931 H   0  0  0  0  0  0
  -30.9150  -18.6308   23.7060 H   0  0  0  0  0  0
  -32.1349  -18.5129   22.4275 H   0  0  0  0  0  0
  -31.0551  -17.1431   22.7673 H   0  0  0  0  0  0
  -27.0436  -21.4353   20.6485 H   0  0  0  0  0  0
  -28.0502  -21.5644   19.2361 H   0  0  0  0  0  0
  -30.0796  -16.7558   18.9877 H   0  0  0  0  0  0
  -31.4372  -16.9715   20.0336 H   0  0  0  0  0  0
  -29.7523  -22.8566   20.7233 H   0  0  0  0  0  0
  -28.4933  -22.9439   21.9290 H   0  0  0  0  0  0
  -27.0475  -24.1033   20.0530 H   0  0  0  0  0  0
  -28.5228  -24.1824   19.1242 H   0  0  0  0  0  0
  -29.5393  -25.4320   21.1781 H   0  0  0  0  0  0
  -27.9159  -25.5987   21.7723 H   0  0  0  0  0  0
  -29.0140  -15.4786   20.9825 H   0  0  0  0  0  0
  1 25  1  0  0  0
  1 30  2  0  0  0
  1 82  1  0  0  0
  2  3  1  0  0  0
  2 25  1  0  0  0
  2 84  1  0  0  0
  2 85  1  0  0  0
  3  4  1  0  0  0
  3 86  1  0  0  0
  3 87  1  0  0  0
  4  5  1  0  0  0
  4 88  1  0  0  0
  4 89  1  0  0  0
  5  6  1  0  0  0
  5 26  1  0  0  0
  5 90  1  0  0  0
  6 25  1  0  0  0
  6 91  1  0  0  0
  6 92  1  0  0  0
  7  8  2  0  0  0
  7 26  1  0  0  0
  7 29  1  0  0  0
  8  9  1  0  0  0
  8 22  1  0  0  0
  9 10  1  0  0  0
  9 27  2  0  0  0
 10 11  2  0  0  0
 10 15  1  0  0  0
 11 12  1  0  0  0
 11 93  1  0  0  0
 12 13  2  0  0  0
 12 94  1  0  0  0
 13 14  1  0  0  0
 13 31  1  0  0  0
 14 15  2  0  0  0
 14 95  1  0  0  0
 15 96  1  0  0  0
 16 17  2  0  0  0
 16 21  1  0  0  0
 16 31  1  0  0  0
 17 18  1  0  0  0
 17 97  1  0  0  0
 18 19  2  0  0  0
 18 98  1  0  0  0
 19 20  1  0  0  0
 19 24  1  0  0  0
 20 21  2  0  0  0
 20 99  1  0  0  0
 21 23  1  0  0  0
 22 28  1  0  0  0
 22 32  2  0  0  0
 26 27  1  0  0  0
 28100  1  0  0  0
 28101  1  0  0  0
 29102  1  0  0  0
 29103  1  0  0  0
 33 34  1  0  0  0
 33 66  1  0  0  0
 33 70  2  0  0  0
 34 36  1  0  0  0
 34 59  1  0  0  0
 34104  1  0  0  0
 35 44  2  0  0  0
 35 45  1  0  0  0
 35 68  1  0  0  0
 36 56  1  0  0  0
 36105  1  0  0  0
 37 39  1  0  0  0
 37 47  1  0  0  0
 37 66  1  0  0  0
 37106  1  0  0  0
 38 43  2  0  0  0
 38 46  1  0  0  0
 38 47  1  0  0  0
 39 64  1  0  0  0
 39 67  2  0  0  0
 40 52  1  0  0  0
 40 53  2  0  0  0
 40 58  1  0  0  0
 41107  1  0  0  0
 41108  1  0  0  0
 41109  1  0  0  0
 41 48  1  0  0  0
 42 43  1  0  0  0
 42 66  1  0  0  0
 42110  1  0  0  0
 42111  1  0  0  0
 43 44  1  0  0  0
 44112  1  0  0  0
 45 46  2  0  0  0
 45113  1  0  0  0
 46114  1  0  0  0
 47115  1  0  0  0
 47116  1  0  0  0
 48 56  1  0  0  0
 48 65  1  0  0  0
 48117  1  0  0  0
 49 50  1  0  0  0
 49 53  1  0  0  0
 49 64  1  0  0  0
 49118  1  0  0  0
 50 51  1  0  0  0
 50119  1  0  0  0
 50120  1  0  0  0
 51 52  1  0  0  0
 51121  1  0  0  0
 51122  1  0  0  0
 52123  1  0  0  0
 52124  1  0  0  0
 53 54  1  0  0  0
 54 55  2  0  0  0
 54125  1  0  0  0
 55 57  1  0  0  0
 55126  1  0  0  0
 56 69  2  0  0  0
 57 58  2  0  0  0
 57127  1  0  0  0
 58128  1  0  0  0
 59 60  1  0  0  0
 59 61  1  0  0  0
 59 62  1  0  0  0
 60129  1  0  0  0
 60130  1  0  0  0
 60131  1  0  0  0
 61132  1  0  0  0
 61133  1  0  0  0
 61134  1  0  0  0
 62135  1  0  0  0
 62136  1  0  0  0
 62137  1  0  0  0
 63 65  1  0  0  0
 63138  1  0  0  0
 63139  1  0  0  0
 63140  1  0  0  0
 64141  1  0  0  0
 65142  1  0  0  0
 68 80  1  0  0  0
 71 72  2  0  0  0
 71 81  1  0  0  0
 71143  1  0  0  0
 72 73  1  0  0  0
 72 76  1  0  0  0
 73 74  2  0  0  0
 73 83  1  0  0  0
 74 77  1  0  0  0
 74 81  1  0  0  0
 75 81  1  0  0  0
 75144  1  0  0  0
 75145  1  0  0  0
 75146  1  0  0  0
 76 78  1  0  0  0
 76147  1  0  0  0
 76148  1  0  0  0
 77 82  1  0  0  0
 77149  1  0  0  0
 77150  1  0  0  0
 78 79  1  0  0  0
 78151  1  0  0  0
 78152  1  0  0  0
 79 80  1  0  0  0
 79153  1  0  0  0
 79154  1  0  0  0
 80155  1  0  0  0
 80156  1  0  0  0
 82157  1  0  0  0
M  ISO  4   1 100  68 101  80 101  82 100
M  END
> <chiral flag>
0

> <version>
0

> <s_m_source_file>
/data/baiqing/PycharmProjects/Reinvent-master-3.2/result/LINK_invent/BTK/process_docking_weight1_custom_sum_contain_oxygen_bond_distance_aromatic_linkinvent_7_9_3/rearranged_h_0032.sdf

> <i_m_source_file_index>
66

> <r_mmod_Potential_Energy-OPLS-2005>
-76.8969345092773

> <r_mmod_Stretch_Energy-OPLS-2005>
38.3256568908691

> <r_mmod_Bend_Energy-OPLS-2005>
107.651733398438

> <r_mmod_Torsional_Energy-OPLS-2005>
238.222503662109

> <r_mmod_Improper_Torsional_Energy-OPLS-2005>
10.0967493057251

> <r_mmod_Van_der_Waal_Energy-OPLS-2005>
119.36287689209

> <r_mmod_Electrostatic_Energy-OPLS-2005>
-406.706848144531

> <r_mmod_Solvation_Energy-OPLS-2005>
-201.454971313477

> <b_mmod_Minimization_Converged-OPLS-2005>
0

> <r_mmod_RMS_Derivative-OPLS-2005>
3.20470428466797

$$$$
66
                    3D
 Structure written by MMmdl.
162170  0  0  1  0            999 V2000
  -30.6804  -14.4366   20.5747 C   0  0  0  0  0  0
  -30.4378  -12.2806   19.4194 C   0  0  0  0  0  0
  -29.5103  -12.4958   18.2061 C   0  0  0  0  0  0
  -28.0263  -12.3600   18.6091 C   0  0  0  0  0  0
  -27.6681  -13.1943   19.8703 C   0  0  2  0  0  0
  -28.7028  -12.9427   20.9898 C   0  0  0  0  0  0
  -25.2630  -13.8140   20.5763 C   0  0  0  0  0  0
  -24.1856  -13.0425   20.9178 C   0  0  0  0  0  0
  -24.6379  -11.6876   20.8643 C   0  0  0  0  0  0
  -23.9022  -10.4274   21.0346 C   0  0  0  0  0  0
  -24.3583   -9.4204   21.9163 C   0  0  0  0  0  0
  -23.6262   -8.2233   22.0750 C   0  0  0  0  0  0
  -22.4246   -8.0268   21.3533 C   0  0  0  0  0  0
  -21.9861   -9.0248   20.4646 C   0  0  0  0  0  0
  -22.7174  -10.2122   20.3015 C   0  0  0  0  0  0
  -21.6868   -6.0702   22.5291 C   0  0  0  0  0  0
  -21.4026   -6.5601   23.8217 C   0  0  0  0  0  0
  -21.3668   -5.6751   24.9199 C   0  0  0  0  0  0
  -21.6042   -4.3013   24.7247 C   0  0  0  0  0  0
  -21.8829   -3.8106   23.4365 C   0  0  0  0  0  0
  -21.9192   -4.6930   22.3408 C   0  0  0  0  0  0
  -22.7871  -13.5243   21.1827 C   0  0  0  0  0  0
  -22.1660   -4.2090   21.0991 F   0  0  0  0  0  0
  -21.5649   -3.4514   25.7772 F   0  0  0  0  0  0
  -30.0434  -13.2484   20.4508 N   0  0  0  0  0  0
  -26.3047  -12.9276   20.3287 N   0  0  0  0  0  0
  -25.9276  -11.6436   20.5598 N   0  0  0  0  0  0
  -22.0440  -12.8304   22.0381 N   0  0  0  0  0  0
  -25.4431  -15.1895   20.4607 N   0  0  0  0  0  0
  -31.7972  -14.6708   20.0895 O   0  0  0  0  0  0
  -21.6633   -6.8856   21.4233 O   0  0  0  0  0  0
  -22.3583  -14.5565   20.6678 O   0  0  0  0  0  0
  -24.6190  -31.8650   23.2080 C   0  0  0  0  0  0
  -25.9117  -32.4787   23.8376 C   0  0  1  0  0  0
  -27.2391  -27.4403   20.1327 C   0  0  0  0  0  0
  -25.5990  -33.8573   24.2341 N   0  0  0  0  0  0
  -23.4066  -30.4873   21.5449 C   0  0  2  0  0  0
  -24.8574  -28.9435   20.1247 C   0  0  0  0  0  0
  -22.7410  -29.4682   22.4990 C   0  0  0  0  0  0
  -18.0231  -28.1379   22.8479 C   0  0  0  0  0  0
  -24.1487  -36.7274   23.2606 C   0  0  0  0  0  0
  -25.9313  -30.8375   21.3601 C   0  0  0  0  0  0
  -26.0135  -29.4643   20.7268 C   0  0  0  0  0  0
  -27.2078  -28.7148   20.7409 C   0  0  0  0  0  0
  -26.0817  -26.9321   19.5175 C   0  0  0  0  0  0
  -24.8840  -27.6732   19.5171 C   0  0  0  0  0  0
  -23.6190  -29.8063   20.1649 C   0  0  0  0  0  0
  -25.4099  -36.3061   24.0313 C   0  0  1  0  0  0
  -20.5819  -28.3699   23.1266 C   0  0  2  0  0  0
  -20.6751  -26.9470   22.5376 C   0  0  0  0  0  0
  -19.5733  -26.6457   21.5167 C   0  0  0  0  0  0
  -18.1891  -26.7925   22.1536 C   0  0  0  0  0  0
  -19.1484  -28.8860   23.2888 C   0  0  0  0  0  0
  -18.9381  -30.1444   23.8909 C   0  0  0  0  0  0
  -17.6373  -30.6572   24.0556 C   0  0  0  0  0  0
  -25.9044  -34.9443   23.5102 C   0  0  0  0  0  0
  -16.5283  -29.9070   23.6305 C   0  0  0  0  0  0
  -16.7224  -28.6477   23.0355 C   0  0  0  0  0  0
  -26.4509  -31.6575   25.0708 C   0  0  0  0  0  0
  -25.3761  -31.3773   26.1445 C   0  0  0  0  0  0
  -27.0292  -30.3013   24.6072 C   0  0  0  0  0  0
  -27.6108  -32.4257   25.7479 C   0  0  0  0  0  0
  -27.5589  -37.1801   24.8470 C   0  0  0  0  0  0
  -21.4135  -29.3068   22.3725 N   0  0  0  0  0  0
  -26.4301  -37.3750   23.9383 N   0  0  0  0  0  0
  -24.6699  -31.0790   22.0969 N   0  0  0  0  0  0
  -23.4162  -28.8244   23.3066 O   0  0  0  0  0  0
  -28.3812  -26.6828   20.1032 O   0  0  0  0  0  0
  -26.5566  -34.8893   22.4635 O   0  0  0  0  0  0
  -23.5396  -32.1410   23.7490 O   0  0  0  0  0  0
  -28.1430  -20.1979   21.1666 C   0  0  0  0  0  0
  -27.3800  -20.3700   22.3645 C   0  0  0  0  0  0
  -28.2641  -21.4705   20.6712 C   0  0  0  0  0  0
  -26.9460  -19.3363   23.3754 C   0  0  0  0  0  0
  -28.9748  -21.9167   19.4387 C   0  0  0  0  0  0
  -28.7424  -18.9707   20.5037 C   0  0  0  0  0  0
  -28.9896  -17.7315   21.3804 C   0  0  0  0  0  0
  -28.8204  -24.5565   21.2119 C   0  0  0  0  0  0
  -27.4735  -23.8026   21.4704 C   0  0  0  0  0  0
  -30.0660  -16.8254   20.7342 C   0  0  0  0  0  0
  -28.7538  -26.0937   21.3538 C   0  0  0  0  0  0
  -27.0661  -21.6472   22.5630 N   0  0  0  0  0  0
  -27.6283  -22.3389   21.5420 N   0  0  0  0  0  0
  -29.9188  -15.4159   21.0803 N   0  0  0  0  0  0
  -31.4845  -12.3849   19.1217 H   0  0  0  0  0  0
  -30.3499  -11.2645   19.8049 H   0  0  0  0  0  0
  -29.7512  -11.7725   17.4258 H   0  0  0  0  0  0
  -29.6929  -13.4838   17.7768 H   0  0  0  0  0  0
  -27.8335  -11.3052   18.8052 H   0  0  0  0  0  0
  -27.3848  -12.6396   17.7704 H   0  0  0  0  0  0
  -27.7237  -14.2418   19.5737 H   0  0  0  0  0  0
  -28.6652  -11.9012   21.3091 H   0  0  0  0  0  0
  -28.4575  -13.5251   21.8812 H   0  0  0  0  0  0
  -25.2739   -9.5722   22.4739 H   0  0  0  0  0  0
  -23.9976   -7.4634   22.7492 H   0  0  0  0  0  0
  -21.0775   -8.8773   19.8969 H   0  0  0  0  0  0
  -22.3631  -10.9672   19.6124 H   0  0  0  0  0  0
  -21.2002   -7.6109   23.9722 H   0  0  0  0  0  0
  -21.1496   -6.0484   25.9099 H   0  0  0  0  0  0
  -22.0592   -2.7562   23.2905 H   0  0  0  0  0  0
  -22.3992  -11.9994   22.4872 H   0  0  0  0  0  0
  -21.1061  -13.1396   22.2471 H   0  0  0  0  0  0
  -24.6959  -15.8424   20.6724 H   0  0  0  0  0  0
  -26.3273  -15.6506   20.2886 H   0  0  0  0  0  0
  -26.7210  -32.5473   23.1156 H   0  0  0  0  0  0
  -25.0289  -33.9707   25.0593 H   0  0  0  0  0  0
  -22.7016  -31.3071   21.3951 H   0  0  0  0  0  0
  -23.3722  -35.9660   23.3274 H   0  0  0  0  0  0
  -24.3627  -36.8876   22.2045 H   0  0  0  0  0  0
  -23.7288  -37.6486   23.6617 H   0  0  0  0  0  0
  -26.0385  -31.5947   20.5820 H   0  0  0  0  0  0
  -26.8238  -30.9048   21.9715 H   0  0  0  0  0  0
  -28.1010  -29.0985   21.2131 H   0  0  0  0  0  0
  -26.1124  -25.9583   19.0487 H   0  0  0  0  0  0
  -24.0009  -27.2648   19.0450 H   0  0  0  0  0  0
  -23.7294  -30.5676   19.3909 H   0  0  0  0  0  0
  -22.7464  -29.2193   19.8708 H   0  0  0  0  0  0
  -25.1288  -36.1906   25.0827 H   0  0  0  0  0  0
  -20.9920  -28.3220   24.1387 H   0  0  0  0  0  0
  -20.5648  -26.2318   23.3547 H   0  0  0  0  0  0
  -21.6641  -26.7502   22.1192 H   0  0  0  0  0  0
  -19.6908  -25.6385   21.1173 H   0  0  0  0  0  0
  -19.6691  -27.3213   20.6673 H   0  0  0  0  0  0
  -17.4228  -26.6813   21.3848 H   0  0  0  0  0  0
  -18.0244  -25.9954   22.8834 H   0  0  0  0  0  0
  -19.7827  -30.7247   24.2341 H   0  0  0  0  0  0
  -17.4879  -31.6266   24.5114 H   0  0  0  0  0  0
  -15.5275  -30.2980   23.7505 H   0  0  0  0  0  0
  -15.8629  -28.0771   22.7051 H   0  0  0  0  0  0
  -24.5953  -30.7062   25.7864 H   0  0  0  0  0  0
  -24.8898  -32.2943   26.4797 H   0  0  0  0  0  0
  -25.8089  -30.9075   27.0276 H   0  0  0  0  0  0
  -26.2860  -29.6847   24.1002 H   0  0  0  0  0  0
  -27.3929  -29.7183   25.4545 H   0  0  0  0  0  0
  -27.8735  -30.4303   23.9293 H   0  0  0  0  0  0
  -27.2778  -33.3585   26.2026 H   0  0  0  0  0  0
  -28.3933  -32.6760   25.0309 H   0  0  0  0  0  0
  -28.0702  -31.8359   26.5413 H   0  0  0  0  0  0
  -28.2600  -38.0108   24.7471 H   0  0  0  0  0  0
  -28.1060  -36.2612   24.6293 H   0  0  0  0  0  0
  -27.2288  -37.1478   25.8879 H   0  0  0  0  0  0
  -20.9322  -29.8754   21.6901 H   0  0  0  0  0  0
  -26.0136  -38.2816   24.1387 H   0  0  0  0  0  0
  -27.8075  -18.9169   23.8999 H   0  0  0  0  0  0
  -26.4181  -18.5081   22.9016 H   0  0  0  0  0  0
  -26.2868  -19.7535   24.1368 H   0  0  0  0  0  0
  -29.3261  -21.0793   18.8428 H   0  0  0  0  0  0
  -29.8667  -22.4855   19.6940 H   0  0  0  0  0  0
  -28.3235  -22.5207   18.8055 H   0  0  0  0  0  0
  -29.7099  -19.2409   20.0838 H   0  0  0  0  0  0
  -28.1364  -18.6706   19.6459 H   0  0  0  0  0  0
  -28.0499  -17.2008   21.5307 H   0  0  0  0  0  0
  -29.3582  -18.0309   22.3611 H   0  0  0  0  0  0
  -29.2139  -24.3813   20.2103 H   0  0  0  0  0  0
  -29.5783  -24.1653   21.8989 H   0  0  0  0  0  0
  -26.7255  -24.0401   20.7034 H   0  0  0  0  0  0
  -27.0376  -24.1377   22.4210 H   0  0  0  0  0  0
  -31.0653  -17.1782   20.9932 H   0  0  0  0  0  0
  -29.9886  -16.8965   19.6492 H   0  0  0  0  0  0
  -29.7415  -26.4754   21.6087 H   0  0  0  0  0  0
  -28.1053  -26.3752   22.1889 H   0  0  0  0  0  0
  -29.0294  -15.1199   21.4520 H   0  0  0  0  0  0
  1 25  1  0  0  0
  1 30  2  0  0  0
  1 84  1  0  0  0
  2  3  1  0  0  0
  2 25  1  0  0  0
  2 85  1  0  0  0
  2 86  1  0  0  0
  3  4  1  0  0  0
  3 87  1  0  0  0
  3 88  1  0  0  0
  4  5  1  0  0  0
  4 89  1  0  0  0
  4 90  1  0  0  0
  5  6  1  0  0  0
  5 26  1  0  0  0
  5 91  1  0  0  0
  6 25  1  0  0  0
  6 92  1  0  0  0
  6 93  1  0  0  0
  7  8  2  0  0  0
  7 26  1  0  0  0
  7 29  1  0  0  0
  8  9  1  0  0  0
  8 22  1  0  0  0
  9 10  1  0  0  0
  9 27  2  0  0  0
 10 11  2  0  0  0
 10 15  1  0  0  0
 11 12  1  0  0  0
 11 94  1  0  0  0
 12 13  2  0  0  0
 12 95  1  0  0  0
 13 14  1  0  0  0
 13 31  1  0  0  0
 14 15  2  0  0  0
 14 96  1  0  0  0
 15 97  1  0  0  0
 16 17  2  0  0  0
 16 21  1  0  0  0
 16 31  1  0  0  0
 17 18  1  0  0  0
 17 98  1  0  0  0
 18 19  2  0  0  0
 18 99  1  0  0  0
 19 20  1  0  0  0
 19 24  1  0  0  0
 20 21  2  0  0  0
 20100  1  0  0  0
 21 23  1  0  0  0
 22 28  1  0  0  0
 22 32  2  0  0  0
 26 27  1  0  0  0
 28101  1  0  0  0
 28102  1  0  0  0
 29103  1  0  0  0
 29104  1  0  0  0
 33 34  1  0  0  0
 33 66  1  0  0  0
 33 70  2  0  0  0
 34 36  1  0  0  0
 34 59  1  0  0  0
 34105  1  0  0  0
 35 44  2  0  0  0
 35 45  1  0  0  0
 35 68  1  0  0  0
 36 56  1  0  0  0
 36106  1  0  0  0
 37 39  1  0  0  0
 37 47  1  0  0  0
 37 66  1  0  0  0
 37107  1  0  0  0
 38 43  2  0  0  0
 38 46  1  0  0  0
 38 47  1  0  0  0
 39 64  1  0  0  0
 39 67  2  0  0  0
 40 52  1  0  0  0
 40 53  2  0  0  0
 40 58  1  0  0  0
 41108  1  0  0  0
 41109  1  0  0  0
 41110  1  0  0  0
 41 48  1  0  0  0
 42 43  1  0  0  0
 42 66  1  0  0  0
 42111  1  0  0  0
 42112  1  0  0  0
 43 44  1  0  0  0
 44113  1  0  0  0
 45 46  2  0  0  0
 45114  1  0  0  0
 46115  1  0  0  0
 47116  1  0  0  0
 47117  1  0  0  0
 48 56  1  0  0  0
 48 65  1  0  0  0
 48118  1  0  0  0
 49 50  1  0  0  0
 49 53  1  0  0  0
 49 64  1  0  0  0
 49119  1  0  0  0
 50 51  1  0  0  0
 50120  1  0  0  0
 50121  1  0  0  0
 51 52  1  0  0  0
 51122  1  0  0  0
 51123  1  0  0  0
 52124  1  0  0  0
 52125  1  0  0  0
 53 54  1  0  0  0
 54 55  2  0  0  0
 54126  1  0  0  0
 55 57  1  0  0  0
 55127  1  0  0  0
 56 69  2  0  0  0
 57 58  2  0  0  0
 57128  1  0  0  0
 58129  1  0  0  0
 59 60  1  0  0  0
 59 61  1  0  0  0
 59 62  1  0  0  0
 60130  1  0  0  0
 60131  1  0  0  0
 60132  1  0  0  0
 61133  1  0  0  0
 61134  1  0  0  0
 61135  1  0  0  0
 62136  1  0  0  0
 62137  1  0  0  0
 62138  1  0  0  0
 63 65  1  0  0  0
 63139  1  0  0  0
 63140  1  0  0  0
 63141  1  0  0  0
 64142  1  0  0  0
 65143  1  0  0  0
 68 81  1  0  0  0
 71 72  1  0  0  0
 71 73  2  0  0  0
 71 76  1  0  0  0
 72 74  1  0  0  0
 72 82  2  0  0  0
 73 75  1  0  0  0
 73 83  1  0  0  0
 74144  1  0  0  0
 74145  1  0  0  0
 74146  1  0  0  0
 75147  1  0  0  0
 75148  1  0  0  0
 75149  1  0  0  0
 76 77  1  0  0  0
 76150  1  0  0  0
 76151  1  0  0  0
 77 80  1  0  0  0
 77152  1  0  0  0
 77153  1  0  0  0
 78 79  1  0  0  0
 78 81  1  0  0  0
 78154  1  0  0  0
 78155  1  0  0  0
 79 83  1  0  0  0
 79156  1  0  0  0
 79157  1  0  0  0
 80 84  1  0  0  0
 80158  1  0  0  0
 80159  1  0  0  0
 81160  1  0  0  0
 81161  1  0  0  0
 82 83  1  0  0  0
 84162  1  0  0  0
M  ISO  4   1 100  68 101  81 101  84 100
M  END
> <chiral flag>
0

> <version>
0

> <s_m_source_file>
/data/baiqing/PycharmProjects/Reinvent-master-3.2/result/LINK_invent/BTK/process_docking_weight1_custom_sum_contain_oxygen_bond_distance_aromatic_linkinvent_7_9_3/rearranged_h_0032.sdf

> <i_m_source_file_index>
67

> <r_mmod_Potential_Energy-OPLS-2005>
-116.23860168457

> <r_mmod_Stretch_Energy-OPLS-2005>
34.9965286254883

> <r_mmod_Bend_Energy-OPLS-2005>
97.8351440429688

> <r_mmod_Torsional_Energy-OPLS-2005>
250.741485595703

> <r_mmod_Improper_Torsional_Energy-OPLS-2005>
6.03379344940186

> <r_mmod_Van_der_Waal_Energy-OPLS-2005>
127.57689666748

> <r_mmod_Electrostatic_Energy-OPLS-2005>
-421.936920166016

> <r_mmod_Solvation_Energy-OPLS-2005>
-222.839340209961

> <b_mmod_Minimization_Converged-OPLS-2005>
0

> <r_mmod_RMS_Derivative-OPLS-2005>
8.08786773681641

$$$$
67
                    3D
 Structure written by MMmdl.
153161  0  0  1  0            999 V2000
  -30.4588  -15.2257   20.3263 C   0  0  0  0  0  0
  -30.4370  -12.7741   19.5057 C   0  0  0  0  0  0
  -29.5243  -12.5440   18.2760 C   0  0  0  0  0  0
  -28.0733  -12.2680   18.7156 C   0  0  0  0  0  0
  -27.6018  -13.2387   19.8266 C   0  0  2  0  0  0
  -28.6494  -13.4406   20.9435 C   0  0  0  0  0  0
  -25.2393  -13.8131   20.5840 C   0  0  0  0  0  0
  -24.1701  -13.0369   20.9290 C   0  0  0  0  0  0
  -24.6322  -11.6855   20.8808 C   0  0  0  0  0  0
  -23.9021  -10.4246   21.0426 C   0  0  0  0  0  0
  -24.3592   -9.4162   21.9194 C   0  0  0  0  0  0
  -23.6273   -8.2198   22.0755 C   0  0  0  0  0  0
  -22.4254   -8.0246   21.3532 C   0  0  0  0  0  0
  -21.9884   -9.0217   20.4636 C   0  0  0  0  0  0
  -22.7209  -10.2098   20.3052 C   0  0  0  0  0  0
  -21.6837   -6.0716   22.5271 C   0  0  0  0  0  0
  -21.4002   -6.5628   23.8205 C   0  0  0  0  0  0
  -21.3660   -5.6784   24.9173 C   0  0  0  0  0  0
  -21.6046   -4.3046   24.7224 C   0  0  0  0  0  0
  -21.8823   -3.8132   23.4349 C   0  0  0  0  0  0
  -21.9196   -4.6947   22.3403 C   0  0  0  0  0  0
  -22.7734  -13.5165   21.1923 C   0  0  0  0  0  0
  -22.1657   -4.2137   21.0980 F   0  0  0  0  0  0
  -21.5640   -3.4525   25.7738 F   0  0  0  0  0  0
  -29.8817  -13.9256   20.2970 N   0  0  0  0  0  0
  -26.2776  -12.9312   20.3351 N   0  0  0  0  0  0
  -25.9248  -11.6464   20.5813 N   0  0  0  0  0  0
  -22.0387  -12.8160   22.0487 N   0  0  0  0  0  0
  -25.4094  -15.1858   20.4315 N   0  0  0  0  0  0
  -31.6965  -15.2078   20.2522 O   0  0  0  0  0  0
  -21.6620   -6.8841   21.4224 O   0  0  0  0  0  0
  -22.3448  -14.5484   20.6766 O   0  0  0  0  0  0
  -24.6572  -31.8287   23.1732 C   0  0  0  0  0  0
  -25.9271  -32.4617   23.8188 C   0  0  1  0  0  0
  -27.2257  -26.9855   20.1737 C   0  0  0  0  0  0
  -25.5967  -33.8432   24.2117 N   0  0  0  0  0  0
  -23.4696  -30.4392   21.5213 C   0  0  2  0  0  0
  -24.9230  -28.8353   20.1067 C   0  0  0  0  0  0
  -22.7638  -29.4462   22.4807 C   0  0  0  0  0  0
  -18.0316  -28.1414   22.8475 C   0  0  0  0  0  0
  -24.1490  -36.7219   23.2649 C   0  0  0  0  0  0
  -26.0325  -30.6535   21.3928 C   0  0  0  0  0  0
  -26.1012  -29.2480   20.7395 C   0  0  0  0  0  0
  -27.2441  -28.3400   20.7534 C   0  0  0  0  0  0
  -26.0220  -26.7101   19.4880 C   0  0  0  0  0  0
  -24.9055  -27.5865   19.4637 C   0  0  0  0  0  0
  -23.7045  -29.7551   20.1456 C   0  0  0  0  0  0
  -25.4130  -36.2985   24.0311 C   0  0  1  0  0  0
  -20.5936  -28.3757   23.1210 C   0  0  2  0  0  0
  -20.6798  -26.9448   22.5408 C   0  0  0  0  0  0
  -19.5772  -26.6385   21.5221 C   0  0  0  0  0  0
  -18.1951  -26.7954   22.1622 C   0  0  0  0  0  0
  -19.1576  -28.8908   23.2830 C   0  0  0  0  0  0
  -18.9487  -30.1503   23.8863 C   0  0  0  0  0  0
  -17.6479  -30.6606   24.0564 C   0  0  0  0  0  0
  -25.9093  -34.9364   23.5030 C   0  0  0  0  0  0
  -16.5378  -29.9099   23.6345 C   0  0  0  0  0  0
  -16.7293  -28.6516   23.0362 C   0  0  0  0  0  0
  -26.4552  -31.6534   25.0687 C   0  0  0  0  0  0
  -25.3699  -31.3747   26.1357 C   0  0  0  0  0  0
  -27.0444  -30.2912   24.6366 C   0  0  0  0  0  0
  -27.6064  -32.4329   25.7477 C   0  0  0  0  0  0
  -27.5568  -37.1767   24.8474 C   0  0  0  0  0  0
  -21.4310  -29.3053   22.3560 N   0  0  0  0  0  0
  -26.4281  -37.3715   23.9414 N   0  0  0  0  0  0
  -24.7407  -30.9994   22.0843 N   0  0  0  0  0  0
  -23.4203  -28.8033   23.3037 O   0  0  0  0  0  0
  -28.2587  -25.9357   20.3114 O   0  0  0  0  0  0
  -26.5693  -34.8886   22.4620 O   0  0  0  0  0  0
  -23.5651  -32.1229   23.6862 O   0  0  0  0  0  0
  -29.0182  -17.5650   18.0766 C   0  0  0  0  0  0
  -30.2431  -18.2750   18.6179 C   0  0  0  0  0  0
  -28.7280  -16.4344   19.0746 C   0  0  0  0  0  0
  -30.0486  -18.1176   20.1160 C   0  0  1  0  0  0
  -29.1108  -19.5601   20.5768 C   0  0  0  0  0  0
  -29.2039  -21.2523   20.0189 C   0  0  0  0  0  0
  -28.5159  -22.7952   20.5843 C   0  0  0  0  0  0
  -28.3225  -24.3862   19.8140 C   0  0  0  0  0  0
  -29.6946  -16.4987   20.1889 N   0  0  0  0  0  0
  -31.4555  -12.9741   19.1692 H   0  0  0  0  0  0
  -30.4993  -11.8717   20.1171 H   0  0  0  0  0  0
  -29.8960  -11.7102   17.6784 H   0  0  0  0  0  0
  -29.5537  -13.4208   17.6271 H   0  0  0  0  0  0
  -28.0343  -11.2451   19.0906 H   0  0  0  0  0  0
  -27.3981  -12.3059   17.8599 H   0  0  0  0  0  0
  -27.4686  -14.1801   19.3145 H   0  0  0  0  0  0
  -28.8188  -12.5180   21.5022 H   0  0  0  0  0  0
  -28.2972  -14.1825   21.6625 H   0  0  0  0  0  0
  -25.2726   -9.5660   22.4782 H   0  0  0  0  0  0
  -23.9980   -7.4594   22.7477 H   0  0  0  0  0  0
  -21.0813   -8.8729   19.8948 H   0  0  0  0  0  0
  -22.3651  -10.9646   19.6174 H   0  0  0  0  0  0
  -21.1977   -7.6134   23.9705 H   0  0  0  0  0  0
  -21.1478   -6.0513   25.9080 H   0  0  0  0  0  0
  -22.0608   -2.7594   23.2848 H   0  0  0  0  0  0
  -22.3992  -11.9795   22.4834 H   0  0  0  0  0  0
  -21.1014  -13.1190   22.2732 H   0  0  0  0  0  0
  -24.6485  -15.8440   20.5588 H   0  0  0  0  0  0
  -26.2786  -15.6282   20.1658 H   0  0  0  0  0  0
  -26.7342  -32.5168   23.0909 H   0  0  0  0  0  0
  -25.0086  -33.9536   25.0246 H   0  0  0  0  0  0
  -22.7807  -31.2691   21.3524 H   0  0  0  0  0  0
  -23.3761  -35.9539   23.3299 H   0  0  0  0  0  0
  -24.3566  -36.8867   22.2064 H   0  0  0  0  0  0
  -23.7233  -37.6401   23.6709 H   0  0  0  0  0  0
  -26.2023  -31.3963   20.6121 H   0  0  0  0  0  0
  -26.8984  -30.7129   22.0404 H   0  0  0  0  0  0
  -28.1350  -28.6502   21.2809 H   0  0  0  0  0  0
  -25.9018  -25.7527   19.0042 H   0  0  0  0  0  0
  -24.0068  -27.2650   18.9556 H   0  0  0  0  0  0
  -23.8506  -30.5241   19.3858 H   0  0  0  0  0  0
  -22.8173  -29.2028   19.8317 H   0  0  0  0  0  0
  -25.1318  -36.1797   25.0802 H   0  0  0  0  0  0
  -21.0026  -28.3354   24.1335 H   0  0  0  0  0  0
  -20.5707  -26.2371   23.3639 H   0  0  0  0  0  0
  -21.6654  -26.7442   22.1200 H   0  0  0  0  0  0
  -19.6937  -25.6285   21.1282 H   0  0  0  0  0  0
  -19.6712  -27.3175   20.6736 H   0  0  0  0  0  0
  -17.4225  -26.6717   21.4023 H   0  0  0  0  0  0
  -18.0333  -26.0103   22.9021 H   0  0  0  0  0  0
  -19.7961  -30.7326   24.2222 H   0  0  0  0  0  0
  -17.5030  -31.6285   24.5173 H   0  0  0  0  0  0
  -15.5376  -30.2986   23.7694 H   0  0  0  0  0  0
  -15.8692  -28.0815   22.7114 H   0  0  0  0  0  0
  -24.5921  -30.7058   25.7660 H   0  0  0  0  0  0
  -24.8840  -32.2927   26.4668 H   0  0  0  0  0  0
  -25.7942  -30.8988   27.0206 H   0  0  0  0  0  0
  -26.3088  -29.6604   24.1369 H   0  0  0  0  0  0
  -27.4008  -29.7253   25.4984 H   0  0  0  0  0  0
  -27.9011  -30.4123   23.9737 H   0  0  0  0  0  0
  -27.2666  -33.3696   26.1909 H   0  0  0  0  0  0
  -28.3938  -32.6785   25.0340 H   0  0  0  0  0  0
  -28.0668  -31.8546   26.5500 H   0  0  0  0  0  0
  -28.2573  -38.0073   24.7498 H   0  0  0  0  0  0
  -28.1066  -36.2591   24.6319 H   0  0  0  0  0  0
  -27.2279  -37.1428   25.8874 H   0  0  0  0  0  0
  -20.9569  -29.8722   21.6668 H   0  0  0  0  0  0
  -26.0131  -38.2777   24.1399 H   0  0  0  0  0  0
  -29.1895  -17.1906   17.0663 H   0  0  0  0  0  0
  -28.1682  -18.2470   18.0283 H   0  0  0  0  0  0
  -30.3167  -19.3112   18.2866 H   0  0  0  0  0  0
  -31.1540  -17.7631   18.3011 H   0  0  0  0  0  0
  -28.8039  -15.5156   18.4946 H   0  0  0  0  0  0
  -27.7132  -16.5156   19.4618 H   0  0  0  0  0  0
  -31.0231  -18.2293   20.5934 H   0  0  0  0  0  0
  -29.2024  -19.6112   21.6627 H   0  0  0  0  0  0
  -28.0675  -19.2815   20.4246 H   0  0  0  0  0  0
  -28.9072  -21.1974   18.9714 H   0  0  0  0  0  0
  -30.2740  -21.4558   19.9686 H   0  0  0  0  0  0
  -29.0397  -23.0006   21.5173 H   0  0  0  0  0  0
  -27.5065  -22.5437   20.9108 H   0  0  0  0  0  0
  -27.5121  -24.2646   19.0971 H   0  0  0  0  0  0
  -29.2005  -24.4334   19.1691 H   0  0  0  0  0  0
  1 25  1  0  0  0
  1 30  2  0  0  0
  1 79  1  0  0  0
  2  3  1  0  0  0
  2 25  1  0  0  0
  2 80  1  0  0  0
  2 81  1  0  0  0
  3  4  1  0  0  0
  3 82  1  0  0  0
  3 83  1  0  0  0
  4  5  1  0  0  0
  4 84  1  0  0  0
  4 85  1  0  0  0
  5  6  1  0  0  0
  5 26  1  0  0  0
  5 86  1  0  0  0
  6 25  1  0  0  0
  6 87  1  0  0  0
  6 88  1  0  0  0
  7  8  2  0  0  0
  7 26  1  0  0  0
  7 29  1  0  0  0
  8  9  1  0  0  0
  8 22  1  0  0  0
  9 10  1  0  0  0
  9 27  2  0  0  0
 10 11  2  0  0  0
 10 15  1  0  0  0
 11 12  1  0  0  0
 11 89  1  0  0  0
 12 13  2  0  0  0
 12 90  1  0  0  0
 13 14  1  0  0  0
 13 31  1  0  0  0
 14 15  2  0  0  0
 14 91  1  0  0  0
 15 92  1  0  0  0
 16 17  2  0  0  0
 16 21  1  0  0  0
 16 31  1  0  0  0
 17 18  1  0  0  0
 17 93  1  0  0  0
 18 19  2  0  0  0
 18 94  1  0  0  0
 19 20  1  0  0  0
 19 24  1  0  0  0
 20 21  2  0  0  0
 20 95  1  0  0  0
 21 23  1  0  0  0
 22 28  1  0  0  0
 22 32  2  0  0  0
 26 27  1  0  0  0
 28 96  1  0  0  0
 28 97  1  0  0  0
 29 98  1  0  0  0
 29 99  1  0  0  0
 33 34  1  0  0  0
 33 66  1  0  0  0
 33 70  2  0  0  0
 34 36  1  0  0  0
 34 59  1  0  0  0
 34100  1  0  0  0
 35 44  2  0  0  0
 35 45  1  0  0  0
 35 68  1  0  0  0
 36 56  1  0  0  0
 36101  1  0  0  0
 37 39  1  0  0  0
 37 47  1  0  0  0
 37 66  1  0  0  0
 37102  1  0  0  0
 38 43  2  0  0  0
 38 46  1  0  0  0
 38 47  1  0  0  0
 39 64  1  0  0  0
 39 67  2  0  0  0
 40 52  1  0  0  0
 40 53  2  0  0  0
 40 58  1  0  0  0
 41103  1  0  0  0
 41104  1  0  0  0
 41105  1  0  0  0
 41 48  1  0  0  0
 42 43  1  0  0  0
 42 66  1  0  0  0
 42106  1  0  0  0
 42107  1  0  0  0
 43 44  1  0  0  0
 44108  1  0  0  0
 45 46  2  0  0  0
 45109  1  0  0  0
 46110  1  0  0  0
 47111  1  0  0  0
 47112  1  0  0  0
 48 56  1  0  0  0
 48 65  1  0  0  0
 48113  1  0  0  0
 49 50  1  0  0  0
 49 53  1  0  0  0
 49 64  1  0  0  0
 49114  1  0  0  0
 50 51  1  0  0  0
 50115  1  0  0  0
 50116  1  0  0  0
 51 52  1  0  0  0
 51117  1  0  0  0
 51118  1  0  0  0
 52119  1  0  0  0
 52120  1  0  0  0
 53 54  1  0  0  0
 54 55  2  0  0  0
 54121  1  0  0  0
 55 57  1  0  0  0
 55122  1  0  0  0
 56 69  2  0  0  0
 57 58  2  0  0  0
 57123  1  0  0  0
 58124  1  0  0  0
 59 60  1  0  0  0
 59 61  1  0  0  0
 59 62  1  0  0  0
 60125  1  0  0  0
 60126  1  0  0  0
 60127  1  0  0  0
 61128  1  0  0  0
 61129  1  0  0  0
 61130  1  0  0  0
 62131  1  0  0  0
 62132  1  0  0  0
 62133  1  0  0  0
 63 65  1  0  0  0
 63134  1  0  0  0
 63135  1  0  0  0
 63136  1  0  0  0
 64137  1  0  0  0
 65138  1  0  0  0
 68 78  1  0  0  0
 71 72  1  0  0  0
 71 73  1  0  0  0
 71139  1  0  0  0
 71140  1  0  0  0
 72 74  1  0  0  0
 72141  1  0  0  0
 72142  1  0  0  0
 73 79  1  0  0  0
 73143  1  0  0  0
 73144  1  0  0  0
 74 75  1  0  0  0
 74 79  1  0  0  0
 74145  1  0  0  0
 75 76  1  0  0  0
 75146  1  0  0  0
 75147  1  0  0  0
 76 77  1  0  0  0
 76148  1  0  0  0
 76149  1  0  0  0
 77 78  1  0  0  0
 77150  1  0  0  0
 77151  1  0  0  0
 78152  1  0  0  0
 78153  1  0  0  0
M  ISO  4   1 100  68 101  78 101  79 100
M  END
> <chiral flag>
0

> <version>
0

> <s_m_source_file>
/data/baiqing/PycharmProjects/Reinvent-master-3.2/result/LINK_invent/BTK/process_docking_weight1_custom_sum_contain_oxygen_bond_distance_aromatic_linkinvent_7_9_3/rearranged_h_0032.sdf

> <i_m_source_file_index>
68

> <r_mmod_Potential_Energy-OPLS-2005>
1462.07702636719

> <r_mmod_Stretch_Energy-OPLS-2005>
560.348022460938

> <r_mmod_Bend_Energy-OPLS-2005>
469.381195068359

> <r_mmod_Torsional_Energy-OPLS-2005>
352.710632324219

> <r_mmod_Improper_Torsional_Energy-OPLS-2005>
10.2421970367432

> <r_mmod_Van_der_Waal_Energy-OPLS-2005>
111.522254943848

> <r_mmod_Electrostatic_Energy-OPLS-2005>
-249.125625610352

> <r_mmod_Solvation_Energy-OPLS-2005>
-196.246170043945

> <b_mmod_Minimization_Converged-OPLS-2005>
0

> <r_mmod_RMS_Derivative-OPLS-2005>
1.90987062454224

$$$$
68
                    3D
 Structure written by MMmdl.
174182  0  0  1  0            999 V2000
  -30.5873  -14.8871   20.4310 C   0  0  0  0  0  0
  -30.4335  -12.5480   19.4942 C   0  0  0  0  0  0
  -29.5098  -12.5170   18.2553 C   0  0  0  0  0  0
  -28.0466  -12.3053   18.6845 C   0  0  0  0  0  0
  -27.6348  -13.2418   19.8507 C   0  0  2  0  0  0
  -28.6824  -13.2615   20.9859 C   0  0  0  0  0  0
  -25.2496  -13.8214   20.5751 C   0  0  0  0  0  0
  -24.1803  -13.0440   20.9223 C   0  0  0  0  0  0
  -24.6398  -11.6915   20.8759 C   0  0  0  0  0  0
  -23.9067  -10.4290   21.0408 C   0  0  0  0  0  0
  -24.3616   -9.4207   21.9197 C   0  0  0  0  0  0
  -23.6297   -8.2240   22.0759 C   0  0  0  0  0  0
  -22.4275   -8.0280   21.3556 C   0  0  0  0  0  0
  -21.9915   -9.0245   20.4651 C   0  0  0  0  0  0
  -22.7224  -10.2132   20.3065 C   0  0  0  0  0  0
  -21.6858   -6.0730   22.5265 C   0  0  0  0  0  0
  -21.4001   -6.5635   23.8191 C   0  0  0  0  0  0
  -21.3672   -5.6794   24.9170 C   0  0  0  0  0  0
  -21.6056   -4.3058   24.7223 C   0  0  0  0  0  0
  -21.8814   -3.8144   23.4342 C   0  0  0  0  0  0
  -21.9183   -4.6956   22.3391 C   0  0  0  0  0  0
  -22.7826  -13.5220   21.1888 C   0  0  0  0  0  0
  -22.1665   -4.2144   21.0972 F   0  0  0  0  0  0
  -21.5640   -3.4541   25.7740 F   0  0  0  0  0  0
  -29.9641  -13.6456   20.3823 N   0  0  0  0  0  0
  -26.2924  -12.9434   20.3356 N   0  0  0  0  0  0
  -25.9335  -11.6565   20.5822 N   0  0  0  0  0  0
  -22.0492  -12.8176   22.0438 N   0  0  0  0  0  0
  -25.4198  -15.1935   20.4173 N   0  0  0  0  0  0
  -31.7894  -14.9436   20.1542 O   0  0  0  0  0  0
  -21.6648   -6.8874   21.4237 O   0  0  0  0  0  0
  -22.3484  -14.5522   20.6729 O   0  0  0  0  0  0
  -24.6412  -31.8449   23.1879 C   0  0  0  0  0  0
  -25.9193  -32.4701   23.8271 C   0  0  1  0  0  0
  -27.2202  -27.1584   20.1154 C   0  0  0  0  0  0
  -25.5944  -33.8496   24.2190 N   0  0  0  0  0  0
  -23.4423  -30.4628   21.5378 C   0  0  2  0  0  0
  -24.8888  -28.8942   20.1061 C   0  0  0  0  0  0
  -22.7566  -29.4518   22.4912 C   0  0  0  0  0  0
  -18.0293  -28.1350   22.8425 C   0  0  0  0  0  0
  -24.1481  -36.7270   23.2644 C   0  0  0  0  0  0
  -25.9972  -30.7199   21.3838 C   0  0  0  0  0  0
  -26.0669  -29.3329   20.7231 C   0  0  0  0  0  0
  -27.2302  -28.4791   20.7196 C   0  0  0  0  0  0
  -26.0183  -26.8212   19.4546 C   0  0  0  0  0  0
  -24.8754  -27.6462   19.4631 C   0  0  0  0  0  0
  -23.6638  -29.7920   20.1559 C   0  0  0  0  0  0
  -25.4107  -36.3036   24.0321 C   0  0  1  0  0  0
  -20.5907  -28.3666   23.1238 C   0  0  2  0  0  0
  -20.6751  -26.9363   22.5393 C   0  0  0  0  0  0
  -19.5740  -26.6341   21.5177 C   0  0  0  0  0  0
  -18.1925  -26.7887   22.1584 C   0  0  0  0  0  0
  -19.1540  -28.8821   23.2809 C   0  0  0  0  0  0
  -18.9493  -30.1440   23.8822 C   0  0  0  0  0  0
  -17.6487  -30.6557   24.0533 C   0  0  0  0  0  0
  -25.9072  -34.9407   23.5056 C   0  0  0  0  0  0
  -16.5372  -29.9045   23.6330 C   0  0  0  0  0  0
  -16.7279  -28.6469   23.0328 C   0  0  0  0  0  0
  -26.4490  -31.6573   25.0728 C   0  0  0  0  0  0
  -25.3656  -31.3782   26.1431 C   0  0  0  0  0  0
  -27.0349  -30.2966   24.6315 C   0  0  0  0  0  0
  -27.6018  -32.4369   25.7487 C   0  0  0  0  0  0
  -27.5563  -37.1783   24.8455 C   0  0  0  0  0  0
  -21.4254  -29.3022   22.3665 N   0  0  0  0  0  0
  -26.4265  -37.3737   23.9410 N   0  0  0  0  0  0
  -24.7140  -31.0290   22.0925 N   0  0  0  0  0  0
  -23.4220  -28.8036   23.3019 O   0  0  0  0  0  0
  -28.2858  -26.1929   20.1877 O   0  0  0  0  0  0
  -26.5653  -34.8897   22.4643 O   0  0  0  0  0  0
  -23.5551  -32.1338   23.7131 O   0  0  0  0  0  0
  -27.9214  -21.5545   16.3860 C   0  0  0  0  0  0
  -27.7248  -20.7566   17.6748 C   0  0  2  0  0  0
  -27.1842  -20.4344   15.6289 C   0  0  0  0  0  0
  -26.5065  -20.0988   16.9978 C   0  0  0  0  0  0
  -26.2700  -20.8922   14.4825 C   0  0  0  0  0  0
  -28.0810  -19.3407   15.0218 C   0  0  0  0  0  0
  -26.3121  -18.6198   17.3564 C   0  0  0  0  0  0
  -25.1556  -20.7884   17.2497 C   0  0  0  0  0  0
  -27.5798  -21.4446   19.0469 C   0  0  0  0  0  0
  -29.2651  -18.8732   20.2251 C   0  0  0  0  0  0
  -29.7259  -20.4883   20.2970 C   0  0  0  0  0  0
  -28.9306  -23.3669   20.3667 C   0  0  0  0  0  0
  -30.2655  -17.5851   20.5911 C   0  0  0  0  0  0
  -28.1072  -24.7060   19.7865 C   0  0  0  0  0  0
  -28.9391  -21.8375   19.6643 C   0  0  2  0  0  0
  -29.8362  -16.0740   20.5844 N   0  0  0  0  0  0
  -31.4688  -12.6881   19.1826 H   0  0  0  0  0  0
  -30.4111  -11.5938   20.0207 H   0  0  0  0  0  0
  -29.8188  -11.7274   17.5703 H   0  0  0  0  0  0
  -29.5961  -13.4533   17.7013 H   0  0  0  0  0  0
  -27.9449  -11.2658   19.0005 H   0  0  0  0  0  0
  -27.3734  -12.4285   17.8363 H   0  0  0  0  0  0
  -27.6037  -14.2462   19.4282 H   0  0  0  0  0  0
  -28.7604  -12.2890   21.4718 H   0  0  0  0  0  0
  -28.3973  -13.9699   21.7655 H   0  0  0  0  0  0
  -25.2752   -9.5692   22.4777 H   0  0  0  0  0  0
  -24.0011   -7.4630   22.7454 H   0  0  0  0  0  0
  -21.0862   -8.8740   19.8939 H   0  0  0  0  0  0
  -22.3667  -10.9681   19.6181 H   0  0  0  0  0  0
  -21.1981   -7.6145   23.9688 H   0  0  0  0  0  0
  -21.1520   -6.0544   25.9081 H   0  0  0  0  0  0
  -22.0587   -2.7605   23.2832 H   0  0  0  0  0  0
  -22.4147  -11.9826   22.4779 H   0  0  0  0  0  0
  -21.1118  -13.1200   22.2713 H   0  0  0  0  0  0
  -24.6461  -15.8427   20.5090 H   0  0  0  0  0  0
  -26.2681  -15.6331   20.0842 H   0  0  0  0  0  0
  -26.7276  -32.5315   23.1002 H   0  0  0  0  0  0
  -25.0065  -33.9589   25.0327 H   0  0  0  0  0  0
  -22.7438  -31.2886   21.3872 H   0  0  0  0  0  0
  -23.3744  -35.9600   23.3286 H   0  0  0  0  0  0
  -24.3570  -36.8915   22.2066 H   0  0  0  0  0  0
  -23.7238  -37.6458   23.6694 H   0  0  0  0  0  0
  -26.1504  -31.4735   20.6121 H   0  0  0  0  0  0
  -26.8704  -30.7701   22.0217 H   0  0  0  0  0  0
  -28.1296  -28.8085   21.2229 H   0  0  0  0  0  0
  -25.9220  -25.8810   18.9314 H   0  0  0  0  0  0
  -23.9791  -27.3049   18.9645 H   0  0  0  0  0  0
  -23.7927  -30.5682   19.4028 H   0  0  0  0  0  0
  -22.7780  -29.2328   19.8492 H   0  0  0  0  0  0
  -25.1280  -36.1856   25.0809 H   0  0  0  0  0  0
  -20.9980  -28.3237   24.1366 H   0  0  0  0  0  0
  -20.5579  -26.2287   23.3607 H   0  0  0  0  0  0
  -21.6629  -26.7300   22.1237 H   0  0  0  0  0  0
  -19.6901  -25.6237   21.1233 H   0  0  0  0  0  0
  -19.6702  -27.3125   20.6687 H   0  0  0  0  0  0
  -17.4191  -26.6627   21.3998 H   0  0  0  0  0  0
  -18.0317  -26.0008   22.8965 H   0  0  0  0  0  0
  -19.7975  -30.7265   24.2142 H   0  0  0  0  0  0
  -17.5048  -31.6219   24.5168 H   0  0  0  0  0  0
  -15.5374  -30.2935   23.7690 H   0  0  0  0  0  0
  -15.8671  -28.0796   22.7055 H   0  0  0  0  0  0
  -24.5893  -30.7031   25.7794 H   0  0  0  0  0  0
  -24.8773  -32.2970   26.4707 H   0  0  0  0  0  0
  -25.7961  -30.9104   27.0304 H   0  0  0  0  0  0
  -26.2974  -29.6714   24.1292 H   0  0  0  0  0  0
  -27.3913  -29.7227   25.4876 H   0  0  0  0  0  0
  -27.8865  -30.4185   23.9625 H   0  0  0  0  0  0
  -27.2609  -33.3729   26.1907 H   0  0  0  0  0  0
  -28.3880  -32.6858   25.0350 H   0  0  0  0  0  0
  -28.0620  -31.8629   26.5534 H   0  0  0  0  0  0
  -28.2556  -38.0103   24.7521 H   0  0  0  0  0  0
  -28.1097  -36.2641   24.6255 H   0  0  0  0  0  0
  -27.2307  -37.1380   25.8864 H   0  0  0  0  0  0
  -20.9493  -29.8831   21.6908 H   0  0  0  0  0  0
  -26.0144  -38.2795   24.1465 H   0  0  0  0  0  0
  -28.9675  -21.6829   16.0990 H   0  0  0  0  0  0
  -27.3911  -22.5086   16.3802 H   0  0  0  0  0  0
  -28.5422  -20.0380   17.7032 H   0  0  0  0  0  0
  -25.6822  -21.7701   14.7487 H   0  0  0  0  0  0
  -25.5712  -20.1078   14.1932 H   0  0  0  0  0  0
  -26.8411  -21.1648   13.5933 H   0  0  0  0  0  0
  -28.8439  -18.9862   15.7150 H   0  0  0  0  0  0
  -28.6085  -19.6967   14.1370 H   0  0  0  0  0  0
  -27.4964  -18.4718   14.7188 H   0  0  0  0  0  0
  -27.2366  -18.0480   17.2704 H   0  0  0  0  0  0
  -25.5714  -18.1361   16.7187 H   0  0  0  0  0  0
  -25.9884  -18.5060   18.3916 H   0  0  0  0  0  0
  -25.2024  -21.8644   17.0754 H   0  0  0  0  0  0
  -24.8152  -20.6502   18.2764 H   0  0  0  0  0  0
  -24.3781  -20.3914   16.5929 H   0  0  0  0  0  0
  -27.0414  -20.8008   19.7426 H   0  0  0  0  0  0
  -26.9581  -22.3291   18.9327 H   0  0  0  0  0  0
  -28.8827  -18.6597   19.2319 H   0  0  0  0  0  0
  -28.3857  -18.7866   20.8639 H   0  0  0  0  0  0
  -30.7111  -20.5054   19.8288 H   0  0  0  0  0  0
  -29.9436  -20.7078   21.3428 H   0  0  0  0  0  0
  -28.6090  -23.2368   21.3996 H   0  0  0  0  0  0
  -29.9751  -23.6640   20.4510 H   0  0  0  0  0  0
  -30.6489  -17.7737   21.5954 H   0  0  0  0  0  0
  -31.1416  -17.6641   19.9472 H   0  0  0  0  0  0
  -27.0655  -24.4551   19.9790 H   0  0  0  0  0  0
  -28.2115  -24.6928   18.7018 H   0  0  0  0  0  0
  -29.5395  -22.0573   18.7815 H   0  0  0  0  0  0
  -28.8565  -15.9101   20.7665 H   0  0  0  0  0  0
  1 25  1  0  0  0
  1 30  2  0  0  0
  1 86  1  0  0  0
  2  3  1  0  0  0
  2 25  1  0  0  0
  2 87  1  0  0  0
  2 88  1  0  0  0
  3  4  1  0  0  0
  3 89  1  0  0  0
  3 90  1  0  0  0
  4  5  1  0  0  0
  4 91  1  0  0  0
  4 92  1  0  0  0
  5  6  1  0  0  0
  5 26  1  0  0  0
  5 93  1  0  0  0
  6 25  1  0  0  0
  6 94  1  0  0  0
  6 95  1  0  0  0
  7  8  2  0  0  0
  7 26  1  0  0  0
  7 29  1  0  0  0
  8  9  1  0  0  0
  8 22  1  0  0  0
  9 10  1  0  0  0
  9 27  2  0  0  0
 10 11  2  0  0  0
 10 15  1  0  0  0
 11 12  1  0  0  0
 11 96  1  0  0  0
 12 13  2  0  0  0
 12 97  1  0  0  0
 13 14  1  0  0  0
 13 31  1  0  0  0
 14 15  2  0  0  0
 14 98  1  0  0  0
 15 99  1  0  0  0
 16 17  2  0  0  0
 16 21  1  0  0  0
 16 31  1  0  0  0
 17 18  1  0  0  0
 17100  1  0  0  0
 18 19  2  0  0  0
 18101  1  0  0  0
 19 20  1  0  0  0
 19 24  1  0  0  0
 20 21  2  0  0  0
 20102  1  0  0  0
 21 23  1  0  0  0
 22 28  1  0  0  0
 22 32  2  0  0  0
 26 27  1  0  0  0
 28103  1  0  0  0
 28104  1  0  0  0
 29105  1  0  0  0
 29106  1  0  0  0
 33 34  1  0  0  0
 33 66  1  0  0  0
 33 70  2  0  0  0
 34 36  1  0  0  0
 34 59  1  0  0  0
 34107  1  0  0  0
 35 44  2  0  0  0
 35 45  1  0  0  0
 35 68  1  0  0  0
 36 56  1  0  0  0
 36108  1  0  0  0
 37 39  1  0  0  0
 37 47  1  0  0  0
 37 66  1  0  0  0
 37109  1  0  0  0
 38 43  2  0  0  0
 38 46  1  0  0  0
 38 47  1  0  0  0
 39 64  1  0  0  0
 39 67  2  0  0  0
 40 52  1  0  0  0
 40 53  2  0  0  0
 40 58  1  0  0  0
 41110  1  0  0  0
 41111  1  0  0  0
 41112  1  0  0  0
 41 48  1  0  0  0
 42 43  1  0  0  0
 42 66  1  0  0  0
 42113  1  0  0  0
 42114  1  0  0  0
 43 44  1  0  0  0
 44115  1  0  0  0
 45 46  2  0  0  0
 45116  1  0  0  0
 46117  1  0  0  0
 47118  1  0  0  0
 47119  1  0  0  0
 48 56  1  0  0  0
 48 65  1  0  0  0
 48120  1  0  0  0
 49 50  1  0  0  0
 49 53  1  0  0  0
 49 64  1  0  0  0
 49121  1  0  0  0
 50 51  1  0  0  0
 50122  1  0  0  0
 50123  1  0  0  0
 51 52  1  0  0  0
 51124  1  0  0  0
 51125  1  0  0  0
 52126  1  0  0  0
 52127  1  0  0  0
 53 54  1  0  0  0
 54 55  2  0  0  0
 54128  1  0  0  0
 55 57  1  0  0  0
 55129  1  0  0  0
 56 69  2  0  0  0
 57 58  2  0  0  0
 57130  1  0  0  0
 58131  1  0  0  0
 59 60  1  0  0  0
 59 61  1  0  0  0
 59 62  1  0  0  0
 60132  1  0  0  0
 60133  1  0  0  0
 60134  1  0  0  0
 61135  1  0  0  0
 61136  1  0  0  0
 61137  1  0  0  0
 62138  1  0  0  0
 62139  1  0  0  0
 62140  1  0  0  0
 63 65  1  0  0  0
 63141  1  0  0  0
 63142  1  0  0  0
 63143  1  0  0  0
 64144  1  0  0  0
 65145  1  0  0  0
 68 84  1  0  0  0
 71 72  1  0  0  0
 71 73  1  0  0  0
 71146  1  0  0  0
 71147  1  0  0  0
 72 74  1  0  0  0
 72 79  1  0  0  0
 72148  1  0  0  0
 73 74  1  0  0  0
 73 75  1  0  0  0
 73 76  1  0  0  0
 74 77  1  0  0  0
 74 78  1  0  0  0
 75149  1  0  0  0
 75150  1  0  0  0
 75151  1  0  0  0
 76152  1  0  0  0
 76153  1  0  0  0
 76154  1  0  0  0
 77155  1  0  0  0
 77156  1  0  0  0
 77157  1  0  0  0
 78158  1  0  0  0
 78159  1  0  0  0
 78160  1  0  0  0
 79161  1  0  0  0
 79162  1  0  0  0
 79 85  1  0  0  0
 80 81  1  0  0  0
 80 83  1  0  0  0
 80163  1  0  0  0
 80164  1  0  0  0
 81 85  1  0  0  0
 81165  1  0  0  0
 81166  1  0  0  0
 82 84  1  0  0  0
 82 85  1  0  0  0
 82167  1  0  0  0
 82168  1  0  0  0
 83 86  1  0  0  0
 83169  1  0  0  0
 83170  1  0  0  0
 84171  1  0  0  0
 84172  1  0  0  0
 85173  1  0  0  0
 86174  1  0  0  0
M  ISO  4   1 100  68 101  84 101  86 100
M  END
> <chiral flag>
0

> <version>
0

> <s_m_source_file>
/data/baiqing/PycharmProjects/Reinvent-master-3.2/result/LINK_invent/BTK/process_docking_weight1_custom_sum_contain_oxygen_bond_distance_aromatic_linkinvent_7_9_3/rearranged_h_0032.sdf

> <i_m_source_file_index>
69

> <r_mmod_Potential_Energy-OPLS-2005>
494.697235107422

> <r_mmod_Stretch_Energy-OPLS-2005>
248.789886474609

> <r_mmod_Bend_Energy-OPLS-2005>
283.537353515625

> <r_mmod_Torsional_Energy-OPLS-2005>
272.282836914062

> <r_mmod_Improper_Torsional_Energy-OPLS-2005>
4.25255632400513

> <r_mmod_Van_der_Waal_Energy-OPLS-2005>
120.608337402344

> <r_mmod_Electrostatic_Energy-OPLS-2005>
-402.7783203125

> <r_mmod_Solvation_Energy-OPLS-2005>
-193.192092895508

> <b_mmod_Minimization_Converged-OPLS-2005>
0

> <r_mmod_RMS_Derivative-OPLS-2005>
4.32244443893433

$$$$
69
                    3D
 Structure written by MMmdl.
163171  0  0  1  0            999 V2000
  -30.7803  -14.3753   20.6801 C   0  0  0  0  0  0
  -30.4146  -12.2978   19.3960 C   0  0  0  0  0  0
  -29.4818  -12.5249   18.1931 C   0  0  0  0  0  0
  -28.0084  -12.3770   18.6127 C   0  0  0  0  0  0
  -27.6643  -13.2065   19.8775 C   0  0  2  0  0  0
  -28.7039  -12.9664   20.9946 C   0  0  0  0  0  0
  -25.2595  -13.8162   20.5678 C   0  0  0  0  0  0
  -24.1844  -13.0444   20.9163 C   0  0  0  0  0  0
  -24.6393  -11.6905   20.8724 C   0  0  0  0  0  0
  -23.9057  -10.4294   21.0404 C   0  0  0  0  0  0
  -24.3608   -9.4214   21.9194 C   0  0  0  0  0  0
  -23.6285   -8.2248   22.0763 C   0  0  0  0  0  0
  -22.4272   -8.0280   21.3544 C   0  0  0  0  0  0
  -21.9909   -9.0251   20.4640 C   0  0  0  0  0  0
  -22.7232  -10.2133   20.3049 C   0  0  0  0  0  0
  -21.6853   -6.0736   22.5277 C   0  0  0  0  0  0
  -21.4014   -6.5638   23.8211 C   0  0  0  0  0  0
  -21.3654   -5.6790   24.9177 C   0  0  0  0  0  0
  -21.6050   -4.3056   24.7229 C   0  0  0  0  0  0
  -21.8816   -3.8142   23.4350 C   0  0  0  0  0  0
  -21.9190   -4.6962   22.3402 C   0  0  0  0  0  0
  -22.7863  -13.5243   21.1828 C   0  0  0  0  0  0
  -22.1659   -4.2146   21.0980 F   0  0  0  0  0  0
  -21.5630   -3.4540   25.7741 F   0  0  0  0  0  0
  -30.0465  -13.2536   20.4522 N   0  0  0  0  0  0
  -26.3039  -12.9339   20.3379 N   0  0  0  0  0  0
  -25.9320  -11.6494   20.5756 N   0  0  0  0  0  0
  -22.0492  -12.8232   22.0367 N   0  0  0  0  0  0
  -25.4334  -15.1887   20.4097 N   0  0  0  0  0  0
  -31.8149  -14.6443   20.0644 O   0  0  0  0  0  0
  -21.6635   -6.8881   21.4238 O   0  0  0  0  0  0
  -22.3553  -14.5556   20.6685 O   0  0  0  0  0  0
  -24.6117  -31.8713   23.2117 C   0  0  0  0  0  0
  -25.9024  -32.4848   23.8402 C   0  0  1  0  0  0
  -27.2410  -27.4659   20.0937 C   0  0  0  0  0  0
  -25.5909  -33.8637   24.2359 N   0  0  0  0  0  0
  -23.3972  -30.4930   21.5516 C   0  0  2  0  0  0
  -24.8455  -28.9568   20.1178 C   0  0  0  0  0  0
  -22.7381  -29.4689   22.5019 C   0  0  0  0  0  0
  -18.0261  -28.1380   22.8499 C   0  0  0  0  0  0
  -24.1481  -36.7315   23.2644 C   0  0  0  0  0  0
  -25.9200  -30.8476   21.3541 C   0  0  0  0  0  0
  -26.0021  -29.4787   20.7123 C   0  0  0  0  0  0
  -27.2047  -28.7402   20.6994 C   0  0  0  0  0  0
  -26.0754  -26.9511   19.4912 C   0  0  0  0  0  0
  -24.8748  -27.6887   19.5084 C   0  0  0  0  0  0
  -23.6024  -29.8178   20.1689 C   0  0  0  0  0  0
  -25.4100  -36.3121   24.0344 C   0  0  1  0  0  0
  -20.5841  -28.3672   23.1323 C   0  0  2  0  0  0
  -20.6755  -26.9415   22.5408 C   0  0  0  0  0  0
  -19.5738  -26.6389   21.5205 C   0  0  0  0  0  0
  -18.1908  -26.7936   22.1604 C   0  0  0  0  0  0
  -19.1509  -28.8837   23.2907 C   0  0  0  0  0  0
  -18.9446  -30.1437   23.8920 C   0  0  0  0  0  0
  -17.6454  -30.6592   24.0565 C   0  0  0  0  0  0
  -25.9016  -34.9480   23.5136 C   0  0  0  0  0  0
  -16.5336  -29.9097   23.6341 C   0  0  0  0  0  0
  -16.7249  -28.6506   23.0369 C   0  0  0  0  0  0
  -26.4469  -31.6617   25.0713 C   0  0  0  0  0  0
  -25.3748  -31.3653   26.1457 C   0  0  0  0  0  0
  -27.0360  -30.3099   24.6041 C   0  0  0  0  0  0
  -27.6021  -32.4350   25.7516 C   0  0  0  0  0  0
  -27.5573  -37.1818   24.8473 C   0  0  0  0  0  0
  -21.4109  -29.3052   22.3747 N   0  0  0  0  0  0
  -26.4293  -37.3794   23.9406 N   0  0  0  0  0  0
  -24.6618  -31.0840   22.0999 N   0  0  0  0  0  0
  -23.4168  -28.8229   23.3054 O   0  0  0  0  0  0
  -28.4162  -26.7593   20.0485 O   0  0  0  0  0  0
  -26.5556  -34.8940   22.4681 O   0  0  0  0  0  0
  -23.5316  -32.1442   23.7541 O   0  0  0  0  0  0
  -28.8421  -23.4002   19.8533 C   0  0  0  0  0  0
  -26.8318  -23.8384   20.7164 C   0  0  0  0  0  0
  -28.0768  -24.3782   20.5560 C   0  0  0  0  0  0
  -28.0476  -22.3196   19.5767 C   0  0  0  0  0  0
  -25.6169  -21.7432   20.0856 C   0  0  0  0  0  0
  -28.5464  -25.7361   21.0357 C   0  0  0  0  0  0
  -28.3501  -21.0792   18.7774 C   0  0  0  0  0  0
  -28.3551  -19.7380   19.5430 C   0  0  0  0  0  0
  -29.6260  -19.4576   20.3640 C   0  0  0  0  0  0
  -29.6380  -18.0362   20.9655 C   0  0  0  0  0  0
  -31.0363  -17.5898   21.4293 C   0  0  0  0  0  0
  -31.0570  -16.2901   22.2646 C   0  0  0  0  0  0
  -26.7966  -22.5908   20.1199 N   0  0  0  0  0  0
  -30.3349  -15.1642   21.6666 N   0  0  0  0  0  0
  -31.4576  -12.3953   19.0877 H   0  0  0  0  0  0
  -30.3124  -11.2790   19.7703 H   0  0  0  0  0  0
  -29.7153  -11.8180   17.3960 H   0  0  0  0  0  0
  -29.6475  -13.5211   17.7794 H   0  0  0  0  0  0
  -27.8199  -11.3187   18.8006 H   0  0  0  0  0  0
  -27.3511  -12.6587   17.7893 H   0  0  0  0  0  0
  -27.7175  -14.2583   19.5961 H   0  0  0  0  0  0
  -28.6669  -11.9277   21.3257 H   0  0  0  0  0  0
  -28.4493  -13.5577   21.8753 H   0  0  0  0  0  0
  -25.2751   -9.5696   22.4773 H   0  0  0  0  0  0
  -23.9992   -7.4645   22.7493 H   0  0  0  0  0  0
  -21.0846   -8.8765   19.8941 H   0  0  0  0  0  0
  -22.3700  -10.9667   19.6150 H   0  0  0  0  0  0
  -21.2004   -7.6145   23.9715 H   0  0  0  0  0  0
  -21.1481   -6.0522   25.9079 H   0  0  0  0  0  0
  -22.0597   -2.7605   23.2848 H   0  0  0  0  0  0
  -22.4082  -11.9862   22.4716 H   0  0  0  0  0  0
  -21.1112  -13.1260   22.2572 H   0  0  0  0  0  0
  -24.6726  -15.8498   20.5279 H   0  0  0  0  0  0
  -26.2981  -15.6249   20.1136 H   0  0  0  0  0  0
  -26.7097  -32.5583   23.1178 H   0  0  0  0  0  0
  -25.0189  -33.9816   25.0592 H   0  0  0  0  0  0
  -22.6836  -31.3068   21.4117 H   0  0  0  0  0  0
  -23.3740  -35.9648   23.3316 H   0  0  0  0  0  0
  -24.3577  -36.8923   22.2062 H   0  0  0  0  0  0
  -23.7241  -37.6522   23.6655 H   0  0  0  0  0  0
  -26.0096  -31.6055   20.5743 H   0  0  0  0  0  0
  -26.8150  -30.9180   21.9599 H   0  0  0  0  0  0
  -28.1017  -29.1463   21.1459 H   0  0  0  0  0  0
  -26.0970  -25.9868   19.0039 H   0  0  0  0  0  0
  -23.9862  -27.2823   19.0442 H   0  0  0  0  0  0
  -23.6997  -30.5875   19.4034 H   0  0  0  0  0  0
  -22.7281  -29.2290   19.8850 H   0  0  0  0  0  0
  -25.1274  -36.1989   25.0836 H   0  0  0  0  0  0
  -20.9921  -28.3243   24.1448 H   0  0  0  0  0  0
  -20.5671  -26.2282   23.3594 H   0  0  0  0  0  0
  -21.6629  -26.7484   22.1195 H   0  0  0  0  0  0
  -19.6909  -25.6297   21.1249 H   0  0  0  0  0  0
  -19.6692  -27.3194   20.6726 H   0  0  0  0  0  0
  -17.4193  -26.6708   21.3994 H   0  0  0  0  0  0
  -18.0286  -26.0056   22.8972 H   0  0  0  0  0  0
  -19.7915  -30.7238   24.2319 H   0  0  0  0  0  0
  -17.5016  -31.6290   24.5142 H   0  0  0  0  0  0
  -15.5340  -30.3014   23.7664 H   0  0  0  0  0  0
  -15.8638  -28.0833   22.7103 H   0  0  0  0  0  0
  -24.5983  -30.6935   25.7793 H   0  0  0  0  0  0
  -24.8855  -32.2770   26.4890 H   0  0  0  0  0  0
  -25.8123  -30.8872   27.0228 H   0  0  0  0  0  0
  -26.2926  -29.6821   24.1118 H   0  0  0  0  0  0
  -27.4237  -29.7358   25.4466 H   0  0  0  0  0  0
  -27.8682  -30.4496   23.9132 H   0  0  0  0  0  0
  -27.2632  -33.3674   26.2041 H   0  0  0  0  0  0
  -28.3876  -32.6864   25.0380 H   0  0  0  0  0  0
  -28.0628  -31.8503   26.5494 H   0  0  0  0  0  0
  -28.2572  -38.0134   24.7529 H   0  0  0  0  0  0
  -28.1090  -36.2659   24.6286 H   0  0  0  0  0  0
  -27.2287  -37.1448   25.8877 H   0  0  0  0  0  0
  -20.9262  -29.8788   21.6985 H   0  0  0  0  0  0
  -26.0184  -38.2879   24.1376 H   0  0  0  0  0  0
  -29.8776  -23.4938   19.5540 H   0  0  0  0  0  0
  -25.9500  -24.2455   21.1969 H   0  0  0  0  0  0
  -24.7188  -22.3489   20.2071 H   0  0  0  0  0  0
  -25.6580  -21.0238   20.9027 H   0  0  0  0  0  0
  -25.5494  -21.2105   19.1378 H   0  0  0  0  0  0
  -29.6009  -25.6598   21.3041 H   0  0  0  0  0  0
  -28.0208  -26.0028   21.9547 H   0  0  0  0  0  0
  -29.3032  -21.2041   18.2610 H   0  0  0  0  0  0
  -27.6175  -21.0084   17.9733 H   0  0  0  0  0  0
  -28.2769  -18.9489   18.7933 H   0  0  0  0  0  0
  -27.4676  -19.6382   20.1661 H   0  0  0  0  0  0
  -29.7239  -20.1964   21.1607 H   0  0  0  0  0  0
  -30.4978  -19.5839   19.7207 H   0  0  0  0  0  0
  -29.2826  -17.3220   20.2229 H   0  0  0  0  0  0
  -28.9341  -17.9877   21.7977 H   0  0  0  0  0  0
  -31.4913  -18.3836   22.0254 H   0  0  0  0  0  0
  -31.6824  -17.4726   20.5572 H   0  0  0  0  0  0
  -30.6160  -16.4834   23.2425 H   0  0  0  0  0  0
  -32.0909  -15.9962   22.4567 H   0  0  0  0  0  0
  -29.4778  -14.8768   22.1156 H   0  0  0  0  0  0
  1 25  1  0  0  0
  1 30  2  0  0  0
  1 84  1  0  0  0
  2  3  1  0  0  0
  2 25  1  0  0  0
  2 85  1  0  0  0
  2 86  1  0  0  0
  3  4  1  0  0  0
  3 87  1  0  0  0
  3 88  1  0  0  0
  4  5  1  0  0  0
  4 89  1  0  0  0
  4 90  1  0  0  0
  5  6  1  0  0  0
  5 26  1  0  0  0
  5 91  1  0  0  0
  6 25  1  0  0  0
  6 92  1  0  0  0
  6 93  1  0  0  0
  7  8  2  0  0  0
  7 26  1  0  0  0
  7 29  1  0  0  0
  8  9  1  0  0  0
  8 22  1  0  0  0
  9 10  1  0  0  0
  9 27  2  0  0  0
 10 11  2  0  0  0
 10 15  1  0  0  0
 11 12  1  0  0  0
 11 94  1  0  0  0
 12 13  2  0  0  0
 12 95  1  0  0  0
 13 14  1  0  0  0
 13 31  1  0  0  0
 14 15  2  0  0  0
 14 96  1  0  0  0
 15 97  1  0  0  0
 16 17  2  0  0  0
 16 21  1  0  0  0
 16 31  1  0  0  0
 17 18  1  0  0  0
 17 98  1  0  0  0
 18 19  2  0  0  0
 18 99  1  0  0  0
 19 20  1  0  0  0
 19 24  1  0  0  0
 20 21  2  0  0  0
 20100  1  0  0  0
 21 23  1  0  0  0
 22 28  1  0  0  0
 22 32  2  0  0  0
 26 27  1  0  0  0
 28101  1  0  0  0
 28102  1  0  0  0
 29103  1  0  0  0
 29104  1  0  0  0
 33 34  1  0  0  0
 33 66  1  0  0  0
 33 70  2  0  0  0
 34 36  1  0  0  0
 34 59  1  0  0  0
 34105  1  0  0  0
 35 44  2  0  0  0
 35 45  1  0  0  0
 35 68  1  0  0  0
 36 56  1  0  0  0
 36106  1  0  0  0
 37 39  1  0  0  0
 37 47  1  0  0  0
 37 66  1  0  0  0
 37107  1  0  0  0
 38 43  2  0  0  0
 38 46  1  0  0  0
 38 47  1  0  0  0
 39 64  1  0  0  0
 39 67  2  0  0  0
 40 52  1  0  0  0
 40 53  2  0  0  0
 40 58  1  0  0  0
 41108  1  0  0  0
 41109  1  0  0  0
 41110  1  0  0  0
 41 48  1  0  0  0
 42 43  1  0  0  0
 42 66  1  0  0  0
 42111  1  0  0  0
 42112  1  0  0  0
 43 44  1  0  0  0
 44113  1  0  0  0
 45 46  2  0  0  0
 45114  1  0  0  0
 46115  1  0  0  0
 47116  1  0  0  0
 47117  1  0  0  0
 48 56  1  0  0  0
 48 65  1  0  0  0
 48118  1  0  0  0
 49 50  1  0  0  0
 49 53  1  0  0  0
 49 64  1  0  0  0
 49119  1  0  0  0
 50 51  1  0  0  0
 50120  1  0  0  0
 50121  1  0  0  0
 51 52  1  0  0  0
 51122  1  0  0  0
 51123  1  0  0  0
 52124  1  0  0  0
 52125  1  0  0  0
 53 54  1  0  0  0
 54 55  2  0  0  0
 54126  1  0  0  0
 55 57  1  0  0  0
 55127  1  0  0  0
 56 69  2  0  0  0
 57 58  2  0  0  0
 57128  1  0  0  0
 58129  1  0  0  0
 59 60  1  0  0  0
 59 61  1  0  0  0
 59 62  1  0  0  0
 60130  1  0  0  0
 60131  1  0  0  0
 60132  1  0  0  0
 61133  1  0  0  0
 61134  1  0  0  0
 61135  1  0  0  0
 62136  1  0  0  0
 62137  1  0  0  0
 62138  1  0  0  0
 63 65  1  0  0  0
 63139  1  0  0  0
 63140  1  0  0  0
 63141  1  0  0  0
 64142  1  0  0  0
 65143  1  0  0  0
 68 76  1  0  0  0
 71 73  1  0  0  0
 71 74  2  0  0  0
 71144  1  0  0  0
 72 73  2  0  0  0
 72 83  1  0  0  0
 72145  1  0  0  0
 73 76  1  0  0  0
 74 77  1  0  0  0
 74 83  1  0  0  0
 75 83  1  0  0  0
 75146  1  0  0  0
 75147  1  0  0  0
 75148  1  0  0  0
 76149  1  0  0  0
 76150  1  0  0  0
 77 78  1  0  0  0
 77151  1  0  0  0
 77152  1  0  0  0
 78 79  1  0  0  0
 78153  1  0  0  0
 78154  1  0  0  0
 79 80  1  0  0  0
 79155  1  0  0  0
 79156  1  0  0  0
 80 81  1  0  0  0
 80157  1  0  0  0
 80158  1  0  0  0
 81 82  1  0  0  0
 81159  1  0  0  0
 81160  1  0  0  0
 82 84  1  0  0  0
 82161  1  0  0  0
 82162  1  0  0  0
 84163  1  0  0  0
M  ISO  4   1 100  68 101  76 101  84 100
M  END
> <chiral flag>
0

> <version>
0

> <s_m_source_file>
/data/baiqing/PycharmProjects/Reinvent-master-3.2/result/LINK_invent/BTK/process_docking_weight1_custom_sum_contain_oxygen_bond_distance_aromatic_linkinvent_7_9_3/rearranged_h_0032.sdf

> <i_m_source_file_index>
70

> <r_mmod_Potential_Energy-OPLS-2005>
-81.4949188232422

> <r_mmod_Stretch_Energy-OPLS-2005>
31.6251411437988

> <r_mmod_Bend_Energy-OPLS-2005>
93.6381607055664

> <r_mmod_Torsional_Energy-OPLS-2005>
238.133377075195

> <r_mmod_Improper_Torsional_Energy-OPLS-2005>
2.03641581535339

> <r_mmod_Van_der_Waal_Energy-OPLS-2005>
118.180816650391

> <r_mmod_Electrostatic_Energy-OPLS-2005>
-363.728363037109

> <r_mmod_Solvation_Energy-OPLS-2005>
-207.970581054688

> <b_mmod_Minimization_Converged-OPLS-2005>
0

> <r_mmod_RMS_Derivative-OPLS-2005>
2.11757874488831

$$$$
70
                    3D
 Structure written by MMmdl.
160168  0  0  1  0            999 V2000
  -30.7184  -14.4436   20.6260 C   0  0  0  0  0  0
  -30.4239  -12.3093   19.4029 C   0  0  0  0  0  0
  -29.4894  -12.5272   18.1965 C   0  0  0  0  0  0
  -28.0129  -12.3837   18.6152 C   0  0  0  0  0  0
  -27.6681  -13.2046   19.8862 C   0  0  2  0  0  0
  -28.7178  -12.9572   20.9959 C   0  0  0  0  0  0
  -25.2597  -13.8156   20.5710 C   0  0  0  0  0  0
  -24.1848  -13.0429   20.9197 C   0  0  0  0  0  0
  -24.6410  -11.6902   20.8769 C   0  0  0  0  0  0
  -23.9077  -10.4289   21.0426 C   0  0  0  0  0  0
  -24.3614   -9.4203   21.9197 C   0  0  0  0  0  0
  -23.6279   -8.2252   22.0767 C   0  0  0  0  0  0
  -22.4268   -8.0289   21.3560 C   0  0  0  0  0  0
  -21.9918   -9.0268   20.4661 C   0  0  0  0  0  0
  -22.7252  -10.2138   20.3071 C   0  0  0  0  0  0
  -21.6850   -6.0736   22.5294 C   0  0  0  0  0  0
  -21.4008   -6.5646   23.8217 C   0  0  0  0  0  0
  -21.3662   -5.6805   24.9190 C   0  0  0  0  0  0
  -21.6039   -4.3062   24.7242 C   0  0  0  0  0  0
  -21.8812   -3.8156   23.4367 C   0  0  0  0  0  0
  -21.9181   -4.6965   22.3414 C   0  0  0  0  0  0
  -22.7861  -13.5216   21.1865 C   0  0  0  0  0  0
  -22.1647   -4.2151   21.0998 F   0  0  0  0  0  0
  -21.5649   -3.4534   25.7746 F   0  0  0  0  0  0
  -30.0452  -13.2733   20.4448 N   0  0  0  0  0  0
  -26.3060  -12.9328   20.3442 N   0  0  0  0  0  0
  -25.9340  -11.6489   20.5811 N   0  0  0  0  0  0
  -22.0508  -12.8195   22.0421 N   0  0  0  0  0  0
  -25.4289  -15.1888   20.4129 N   0  0  0  0  0  0
  -31.7882  -14.6798   20.0564 O   0  0  0  0  0  0
  -21.6633   -6.8883   21.4251 O   0  0  0  0  0  0
  -22.3547  -14.5528   20.6721 O   0  0  0  0  0  0
  -24.6153  -31.8656   23.2089 C   0  0  0  0  0  0
  -25.9040  -32.4799   23.8384 C   0  0  1  0  0  0
  -27.2393  -27.4248   20.0690 C   0  0  0  0  0  0
  -25.5903  -33.8602   24.2302 N   0  0  0  0  0  0
  -23.4031  -30.4903   21.5503 C   0  0  2  0  0  0
  -24.8491  -28.9532   20.1137 C   0  0  0  0  0  0
  -22.7393  -29.4653   22.4986 C   0  0  0  0  0  0
  -18.0250  -28.1379   22.8487 C   0  0  0  0  0  0
  -24.1491  -36.7303   23.2633 C   0  0  0  0  0  0
  -25.9363  -30.8222   21.3687 C   0  0  0  0  0  0
  -26.0108  -29.4573   20.7107 C   0  0  0  0  0  0
  -27.2042  -28.6952   20.6953 C   0  0  0  0  0  0
  -26.0492  -26.9315   19.4875 C   0  0  0  0  0  0
  -24.8625  -27.6872   19.5042 C   0  0  0  0  0  0
  -23.6117  -29.8203   20.1668 C   0  0  0  0  0  0
  -25.4110  -36.3096   24.0334 C   0  0  1  0  0  0
  -20.5846  -28.3668   23.1322 C   0  0  2  0  0  0
  -20.6732  -26.9400   22.5429 C   0  0  0  0  0  0
  -19.5734  -26.6384   21.5211 C   0  0  0  0  0  0
  -18.1906  -26.7933   22.1608 C   0  0  0  0  0  0
  -19.1502  -28.8839   23.2898 C   0  0  0  0  0  0
  -18.9437  -30.1455   23.8897 C   0  0  0  0  0  0
  -17.6441  -30.6601   24.0555 C   0  0  0  0  0  0
  -25.9053  -34.9462   23.5117 C   0  0  0  0  0  0
  -16.5326  -29.9100   23.6320 C   0  0  0  0  0  0
  -16.7229  -28.6506   23.0337 C   0  0  0  0  0  0
  -26.4463  -31.6575   25.0720 C   0  0  0  0  0  0
  -25.3715  -31.3653   26.1447 C   0  0  0  0  0  0
  -27.0303  -30.3017   24.6119 C   0  0  0  0  0  0
  -27.6033  -32.4294   25.7493 C   0  0  0  0  0  0
  -27.5607  -37.1769   24.8424 C   0  0  0  0  0  0
  -21.4121  -29.3031   22.3718 N   0  0  0  0  0  0
  -26.4270  -37.3811   23.9449 N   0  0  0  0  0  0
  -24.6696  -31.0747   22.1000 N   0  0  0  0  0  0
  -23.4156  -28.8183   23.3027 O   0  0  0  0  0  0
  -28.4118  -26.6888   20.0739 O   0  0  0  0  0  0
  -26.5621  -34.8924   22.4681 O   0  0  0  0  0  0
  -23.5345  -32.1410   23.7472 O   0  0  0  0  0  0
  -30.4835  -22.6022   20.1762 C   0  0  0  0  0  0
  -30.0880  -23.9590   20.0835 C   0  0  0  0  0  0
  -29.8098  -21.5892   19.4605 C   0  0  0  0  0  0
  -28.9823  -24.3359   19.2720 C   0  0  0  0  0  0
  -28.6562  -21.9466   18.7200 C   0  0  0  0  0  0
  -28.2413  -23.3027   18.6307 C   0  0  0  0  0  0
  -30.9134  -25.0017   20.8185 C   0  0  0  0  0  0
  -30.4139  -20.1726   19.3823 C   0  0  0  0  0  0
  -28.7036  -25.8263   18.9559 C   0  0  0  0  0  0
  -30.1164  -15.5367   21.5371 C   0  0  0  0  0  0
  -30.7024  -16.9759   21.4210 C   0  0  0  0  0  0
  -30.3169  -17.7854   20.1509 C   0  0  0  0  0  0
  -29.9803  -19.2142   20.4308 N   0  3  0  0  0  0
  -27.7736  -20.7244   17.8630 Cl  0  0  0  0  0  0
  -26.8421  -23.6782   17.6769 Cl  0  0  0  0  0  0
  -31.4674  -12.4097   19.0991 H   0  0  0  0  0  0
  -30.3225  -11.2920   19.7854 H   0  0  0  0  0  0
  -29.7230  -11.8195   17.4001 H   0  0  0  0  0  0
  -29.6585  -13.5213   17.7822 H   0  0  0  0  0  0
  -27.8238  -11.3269   18.7983 H   0  0  0  0  0  0
  -27.3578  -12.6696   17.7918 H   0  0  0  0  0  0
  -27.7208  -14.2585   19.6126 H   0  0  0  0  0  0
  -28.6965  -11.9110   21.3097 H   0  0  0  0  0  0
  -28.4827  -13.5253   21.8957 H   0  0  0  0  0  0
  -25.2761   -9.5666   22.4758 H   0  0  0  0  0  0
  -23.9990   -7.4645   22.7485 H   0  0  0  0  0  0
  -21.0857   -8.8789   19.8958 H   0  0  0  0  0  0
  -22.3727  -10.9677   19.6175 H   0  0  0  0  0  0
  -21.2000   -7.6150   23.9713 H   0  0  0  0  0  0
  -21.1493   -6.0548   25.9089 H   0  0  0  0  0  0
  -22.0589   -2.7623   23.2872 H   0  0  0  0  0  0
  -22.4095  -11.9797   22.4741 H   0  0  0  0  0  0
  -21.1155  -13.1252   22.2686 H   0  0  0  0  0  0
  -24.6619  -15.8423   20.5276 H   0  0  0  0  0  0
  -26.2850  -15.6360   20.1096 H   0  0  0  0  0  0
  -26.7104  -32.5508   23.1138 H   0  0  0  0  0  0
  -25.0028  -33.9759   25.0429 H   0  0  0  0  0  0
  -22.6914  -31.3074   21.4113 H   0  0  0  0  0  0
  -23.3800  -35.9576   23.3173 H   0  0  0  0  0  0
  -24.3613  -36.9052   22.2076 H   0  0  0  0  0  0
  -23.7175  -37.6434   23.6743 H   0  0  0  0  0  0
  -26.0574  -31.5892   20.6031 H   0  0  0  0  0  0
  -26.8207  -30.8673   21.9921 H   0  0  0  0  0  0
  -28.1037  -29.0826   21.1540 H   0  0  0  0  0  0
  -26.0182  -25.9556   19.0285 H   0  0  0  0  0  0
  -23.9664  -27.2884   19.0499 H   0  0  0  0  0  0
  -23.7111  -30.5915   19.4022 H   0  0  0  0  0  0
  -22.7357  -29.2355   19.8791 H   0  0  0  0  0  0
  -25.1266  -36.1934   25.0820 H   0  0  0  0  0  0
  -20.9933  -28.3245   24.1445 H   0  0  0  0  0  0
  -20.5625  -26.2263   23.3608 H   0  0  0  0  0  0
  -21.6613  -26.7437   22.1249 H   0  0  0  0  0  0
  -19.6896  -25.6294   21.1238 H   0  0  0  0  0  0
  -19.6701  -27.3171   20.6724 H   0  0  0  0  0  0
  -17.4193  -26.6690   21.3985 H   0  0  0  0  0  0
  -18.0277  -26.0065   22.8983 H   0  0  0  0  0  0
  -19.7927  -30.7263   24.2259 H   0  0  0  0  0  0
  -17.5009  -31.6273   24.5161 H   0  0  0  0  0  0
  -15.5329  -30.3002   23.7670 H   0  0  0  0  0  0
  -15.8621  -28.0843   22.7047 H   0  0  0  0  0  0
  -24.5965  -30.6908   25.7781 H   0  0  0  0  0  0
  -24.8802  -32.2776   26.4837 H   0  0  0  0  0  0
  -25.8085  -30.8898   27.0238 H   0  0  0  0  0  0
  -26.2858  -29.6792   24.1141 H   0  0  0  0  0  0
  -27.4011  -29.7253   25.4606 H   0  0  0  0  0  0
  -27.8725  -30.4326   23.9316 H   0  0  0  0  0  0
  -27.2643  -33.3574   26.2113 H   0  0  0  0  0  0
  -28.3822  -32.6880   25.0304 H   0  0  0  0  0  0
  -28.0720  -31.8378   26.5366 H   0  0  0  0  0  0
  -28.2494  -38.0199   24.7696 H   0  0  0  0  0  0
  -28.1247  -36.2751   24.5977 H   0  0  0  0  0  0
  -27.2361  -37.1076   25.8821 H   0  0  0  0  0  0
  -20.9262  -29.8781   21.6982 H   0  0  0  0  0  0
  -26.0147  -38.2851   24.1588 H   0  0  0  0  0  0
  -31.3603  -22.3424   20.7556 H   0  0  0  0  0  0
  -31.6837  -24.5413   21.4377 H   0  0  0  0  0  0
  -30.2846  -25.6013   21.4759 H   0  0  0  0  0  0
  -31.4104  -25.6664   20.1123 H   0  0  0  0  0  0
  -31.5011  -20.2611   19.4338 H   0  0  0  0  0  0
  -30.2153  -19.7528   18.3956 H   0  0  0  0  0  0
  -28.0147  -25.9536   18.1243 H   0  0  0  0  0  0
  -29.6328  -26.2110   18.5373 H   0  0  0  0  0  0
  -29.0393  -15.5993   21.3857 H   0  0  0  0  0  0
  -30.2635  -15.1909   22.5610 H   0  0  0  0  0  0
  -31.7907  -16.9369   21.4975 H   0  0  0  0  0  0
  -30.3781  -17.5198   22.3073 H   0  0  0  0  0  0
  -29.4650  -17.3281   19.6455 H   0  0  0  0  0  0
  -31.1474  -17.7243   19.4449 H   0  0  0  0  0  0
  -28.9822  -19.2822   20.5506 H   0  0  0  0  0  0
  -30.4076  -19.4938   21.2992 H   0  0  0  0  0  0
  1 25  1  0  0  0
  1 30  2  0  0  0
  1 80  1  0  0  0
  2  3  1  0  0  0
  2 25  1  0  0  0
  2 86  1  0  0  0
  2 87  1  0  0  0
  3  4  1  0  0  0
  3 88  1  0  0  0
  3 89  1  0  0  0
  4  5  1  0  0  0
  4 90  1  0  0  0
  4 91  1  0  0  0
  5  6  1  0  0  0
  5 26  1  0  0  0
  5 92  1  0  0  0
  6 25  1  0  0  0
  6 93  1  0  0  0
  6 94  1  0  0  0
  7  8  2  0  0  0
  7 26  1  0  0  0
  7 29  1  0  0  0
  8  9  1  0  0  0
  8 22  1  0  0  0
  9 10  1  0  0  0
  9 27  2  0  0  0
 10 11  2  0  0  0
 10 15  1  0  0  0
 11 12  1  0  0  0
 11 95  1  0  0  0
 12 13  2  0  0  0
 12 96  1  0  0  0
 13 14  1  0  0  0
 13 31  1  0  0  0
 14 15  2  0  0  0
 14 97  1  0  0  0
 15 98  1  0  0  0
 16 17  2  0  0  0
 16 21  1  0  0  0
 16 31  1  0  0  0
 17 18  1  0  0  0
 17 99  1  0  0  0
 18 19  2  0  0  0
 18100  1  0  0  0
 19 20  1  0  0  0
 19 24  1  0  0  0
 20 21  2  0  0  0
 20101  1  0  0  0
 21 23  1  0  0  0
 22 28  1  0  0  0
 22 32  2  0  0  0
 26 27  1  0  0  0
 28102  1  0  0  0
 28103  1  0  0  0
 29104  1  0  0  0
 29105  1  0  0  0
 33 34  1  0  0  0
 33 66  1  0  0  0
 33 70  2  0  0  0
 34 36  1  0  0  0
 34 59  1  0  0  0
 34106  1  0  0  0
 35 44  2  0  0  0
 35 45  1  0  0  0
 35 68  1  0  0  0
 36 56  1  0  0  0
 36107  1  0  0  0
 37 39  1  0  0  0
 37 47  1  0  0  0
 37 66  1  0  0  0
 37108  1  0  0  0
 38 43  2  0  0  0
 38 46  1  0  0  0
 38 47  1  0  0  0
 39 64  1  0  0  0
 39 67  2  0  0  0
 40 52  1  0  0  0
 40 53  2  0  0  0
 40 58  1  0  0  0
 41109  1  0  0  0
 41110  1  0  0  0
 41111  1  0  0  0
 41 48  1  0  0  0
 42 43  1  0  0  0
 42 66  1  0  0  0
 42112  1  0  0  0
 42113  1  0  0  0
 43 44  1  0  0  0
 44114  1  0  0  0
 45 46  2  0  0  0
 45115  1  0  0  0
 46116  1  0  0  0
 47117  1  0  0  0
 47118  1  0  0  0
 48 56  1  0  0  0
 48 65  1  0  0  0
 48119  1  0  0  0
 49 50  1  0  0  0
 49 53  1  0  0  0
 49 64  1  0  0  0
 49120  1  0  0  0
 50 51  1  0  0  0
 50121  1  0  0  0
 50122  1  0  0  0
 51 52  1  0  0  0
 51123  1  0  0  0
 51124  1  0  0  0
 52125  1  0  0  0
 52126  1  0  0  0
 53 54  1  0  0  0
 54 55  2  0  0  0
 54127  1  0  0  0
 55 57  1  0  0  0
 55128  1  0  0  0
 56 69  2  0  0  0
 57 58  2  0  0  0
 57129  1  0  0  0
 58130  1  0  0  0
 59 60  1  0  0  0
 59 61  1  0  0  0
 59 62  1  0  0  0
 60131  1  0  0  0
 60132  1  0  0  0
 60133  1  0  0  0
 61134  1  0  0  0
 61135  1  0  0  0
 61136  1  0  0  0
 62137  1  0  0  0
 62138  1  0  0  0
 62139  1  0  0  0
 63 65  1  0  0  0
 63140  1  0  0  0
 63141  1  0  0  0
 63142  1  0  0  0
 64143  1  0  0  0
 65144  1  0  0  0
 68 79  1  0  0  0
 71 72  2  0  0  0
 71 73  1  0  0  0
 71145  1  0  0  0
 72 74  1  0  0  0
 72 77  1  0  0  0
 73 75  2  0  0  0
 73 78  1  0  0  0
 74 76  2  0  0  0
 74 79  1  0  0  0
 75 76  1  0  0  0
 75 84  1  0  0  0
 76 85  1  0  0  0
 77146  1  0  0  0
 77147  1  0  0  0
 77148  1  0  0  0
 78 83  1  0  0  0
 78149  1  0  0  0
 78150  1  0  0  0
 79151  1  0  0  0
 79152  1  0  0  0
 80 81  1  0  0  0
 80153  1  0  0  0
 80154  1  0  0  0
 81 82  1  0  0  0
 81155  1  0  0  0
 81156  1  0  0  0
 82 83  1  0  0  0
 82157  1  0  0  0
 82158  1  0  0  0
 83159  1  0  0  0
 83160  1  0  0  0
M  CHG  1  83   1
M  ISO  4   1 100  68 101  79 101  80 100
M  END
> <chiral flag>
0

> <version>
0

> <s_m_source_file>
/data/baiqing/PycharmProjects/Reinvent-master-3.2/result/LINK_invent/BTK/process_docking_weight1_custom_sum_contain_oxygen_bond_distance_aromatic_linkinvent_7_9_3/rearranged_h_0032.sdf

> <i_m_source_file_index>
71

> <r_mmod_Potential_Energy-OPLS-2005>
-205.671340942383

> <r_mmod_Stretch_Energy-OPLS-2005>
43.4761276245117

> <r_mmod_Bend_Energy-OPLS-2005>
104.635444641113

> <r_mmod_Torsional_Energy-OPLS-2005>
192.331069946289

> <r_mmod_Improper_Torsional_Energy-OPLS-2005>
3.09722709655762

> <r_mmod_Van_der_Waal_Energy-OPLS-2005>
153.322769165039

> <r_mmod_Electrostatic_Energy-OPLS-2005>
-255.219696044922

> <r_mmod_Solvation_Energy-OPLS-2005>
-458.024353027344

> <b_mmod_Minimization_Converged-OPLS-2005>
0

> <r_mmod_RMS_Derivative-OPLS-2005>
2.69594287872314

$$$$
71
                    3D
 Structure written by MMmdl.
168176  0  0  1  0            999 V2000
  -30.4211  -15.2807   20.3648 C   0  0  0  0  0  0
  -30.4368  -12.8228   19.5125 C   0  0  0  0  0  0
  -29.5353  -12.5855   18.2766 C   0  0  0  0  0  0
  -28.0868  -12.2933   18.7127 C   0  0  0  0  0  0
  -27.6077  -13.2726   19.8147 C   0  0  2  0  0  0
  -28.6434  -13.4657   20.9416 C   0  0  0  0  0  0
  -25.2384  -13.8240   20.5746 C   0  0  0  0  0  0
  -24.1744  -13.0438   20.9277 C   0  0  0  0  0  0
  -24.6401  -11.6933   20.8789 C   0  0  0  0  0  0
  -23.9110  -10.4290   21.0434 C   0  0  0  0  0  0
  -24.3672   -9.4199   21.9209 C   0  0  0  0  0  0
  -23.6341   -8.2231   22.0770 C   0  0  0  0  0  0
  -22.4315   -8.0284   21.3557 C   0  0  0  0  0  0
  -21.9957   -9.0255   20.4662 C   0  0  0  0  0  0
  -22.7279  -10.2135   20.3074 C   0  0  0  0  0  0
  -21.6843   -6.0771   22.5282 C   0  0  0  0  0  0
  -21.4008   -6.5679   23.8221 C   0  0  0  0  0  0
  -21.3660   -5.6825   24.9180 C   0  0  0  0  0  0
  -21.6034   -4.3084   24.7218 C   0  0  0  0  0  0
  -21.8816   -3.8180   23.4338 C   0  0  0  0  0  0
  -21.9194   -4.7005   22.3398 C   0  0  0  0  0  0
  -22.7769  -13.5189   21.1906 C   0  0  0  0  0  0
  -22.1650   -4.2210   21.0963 F   0  0  0  0  0  0
  -21.5639   -3.4548   25.7723 F   0  0  0  0  0  0
  -29.8687  -13.9724   20.3021 N   0  0  0  0  0  0
  -26.2798  -12.9515   20.3199 N   0  0  0  0  0  0
  -25.9334  -11.6618   20.5722 N   0  0  0  0  0  0
  -22.0424  -12.8163   22.0457 N   0  0  0  0  0  0
  -25.4016  -15.1974   20.4196 N   0  0  0  0  0  0
  -31.6533  -15.2880   20.2292 O   0  0  0  0  0  0
  -21.6648   -6.8903   21.4247 O   0  0  0  0  0  0
  -22.3445  -14.5485   20.6742 O   0  0  0  0  0  0
  -24.6627  -31.8242   23.1703 C   0  0  0  0  0  0
  -25.9307  -32.4595   23.8177 C   0  0  1  0  0  0
  -27.2153  -26.9234   20.1775 C   0  0  0  0  0  0
  -25.5984  -33.8404   24.2084 N   0  0  0  0  0  0
  -23.4764  -30.4358   21.5228 C   0  0  2  0  0  0
  -24.9280  -28.8228   20.1128 C   0  0  0  0  0  0
  -22.7651  -29.4454   22.4821 C   0  0  0  0  0  0
  -18.0323  -28.1402   22.8505 C   0  0  0  0  0  0
  -24.1497  -36.7187   23.2650 C   0  0  0  0  0  0
  -26.0466  -30.6280   21.4013 C   0  0  0  0  0  0
  -26.1139  -29.2195   20.7435 C   0  0  0  0  0  0
  -27.2512  -28.2905   20.7514 C   0  0  0  0  0  0
  -25.9986  -26.6808   19.5009 C   0  0  0  0  0  0
  -24.8950  -27.5735   19.4734 C   0  0  0  0  0  0
  -23.7132  -29.7503   20.1497 C   0  0  0  0  0  0
  -25.4138  -36.2964   24.0306 C   0  0  1  0  0  0
  -20.5949  -28.3751   23.1203 C   0  0  2  0  0  0
  -20.6809  -26.9431   22.5425 C   0  0  0  0  0  0
  -19.5782  -26.6372   21.5247 C   0  0  0  0  0  0
  -18.1954  -26.7946   22.1631 C   0  0  0  0  0  0
  -19.1585  -28.8899   23.2844 C   0  0  0  0  0  0
  -18.9495  -30.1492   23.8868 C   0  0  0  0  0  0
  -17.6488  -30.6596   24.0561 C   0  0  0  0  0  0
  -25.9108  -34.9357   23.5016 C   0  0  0  0  0  0
  -16.5377  -29.9082   23.6339 C   0  0  0  0  0  0
  -16.7303  -28.6494   23.0388 C   0  0  0  0  0  0
  -26.4564  -31.6542   25.0708 C   0  0  0  0  0  0
  -25.3669  -31.3820   26.1353 C   0  0  0  0  0  0
  -27.0432  -30.2896   24.6447 C   0  0  0  0  0  0
  -27.6094  -32.4336   25.7472 C   0  0  0  0  0  0
  -27.5580  -37.1731   24.8450 C   0  0  0  0  0  0
  -21.4329  -29.3033   22.3538 N   0  0  0  0  0  0
  -26.4281  -37.3706   23.9431 N   0  0  0  0  0  0
  -24.7508  -30.9905   22.0840 N   0  0  0  0  0  0
  -23.4204  -28.8029   23.3067 O   0  0  0  0  0  0
  -28.2170  -25.8158   20.2491 O   0  0  0  0  0  0
  -26.5725  -34.8882   22.4608 O   0  0  0  0  0  0
  -23.5703  -32.1221   23.6778 O   0  0  0  0  0  0
  -28.6463  -19.7586   17.4676 C   0  0  0  0  0  0
  -27.4526  -20.3868   17.8659 C   0  0  0  0  0  0
  -29.5998  -19.3794   18.4301 C   0  0  0  0  0  0
  -27.3555  -20.9488   19.1614 C   0  0  0  0  0  0
  -28.4964  -20.9472   20.0085 C   0  0  0  0  0  0
  -29.3294  -19.6229   19.7985 C   0  0  0  0  0  0
  -26.3315  -20.5429   16.8480 C   0  0  0  0  0  0
  -26.0868  -21.6857   19.5626 C   0  0  0  0  0  0
  -34.6586  -18.9845   18.8433 C   0  0  0  0  0  0
  -30.8343  -18.5931   17.9894 C   0  0  0  0  0  0
  -28.8778  -22.6321   20.3356 C   0  0  0  0  0  0
  -29.7192  -18.1795   20.7043 C   0  0  0  0  0  0
  -33.3927  -18.3632   18.2400 C   0  0  0  0  0  0
  -32.1411  -19.1989   18.5425 C   0  0  0  0  0  0
  -27.9590  -24.1875   20.0723 C   0  0  0  0  0  0
  -29.6202  -16.5333   20.3810 N   0  0  0  0  0  0
  -31.4552  -13.0353   19.1846 H   0  0  0  0  0  0
  -30.5013  -11.9216   20.1255 H   0  0  0  0  0  0
  -29.9258  -11.7691   17.6676 H   0  0  0  0  0  0
  -29.5527  -13.4750   17.6432 H   0  0  0  0  0  0
  -28.0604  -11.2725   19.0974 H   0  0  0  0  0  0
  -27.4151  -12.3136   17.8537 H   0  0  0  0  0  0
  -27.5128  -14.2351   19.3113 H   0  0  0  0  0  0
  -28.8243  -12.5408   21.4900 H   0  0  0  0  0  0
  -28.2831  -14.1985   21.6670 H   0  0  0  0  0  0
  -25.2816   -9.5685   22.4801 H   0  0  0  0  0  0
  -24.0067   -7.4622   22.7480 H   0  0  0  0  0  0
  -21.0887   -8.8756   19.8982 H   0  0  0  0  0  0
  -22.3712  -10.9692   19.6209 H   0  0  0  0  0  0
  -21.1967   -7.6178   23.9736 H   0  0  0  0  0  0
  -21.1499   -6.0548   25.9087 H   0  0  0  0  0  0
  -22.0595   -2.7643   23.2793 H   0  0  0  0  0  0
  -22.4059  -11.9827   22.4812 H   0  0  0  0  0  0
  -21.1046  -13.1186   22.2711 H   0  0  0  0  0  0
  -24.6310  -15.8463   20.5406 H   0  0  0  0  0  0
  -26.2322  -15.6378   20.0504 H   0  0  0  0  0  0
  -26.7379  -32.5125   23.0901 H   0  0  0  0  0  0
  -25.0088  -33.9516   25.0207 H   0  0  0  0  0  0
  -22.7922  -31.2701   21.3555 H   0  0  0  0  0  0
  -23.3801  -35.9471   23.3239 H   0  0  0  0  0  0
  -24.3596  -36.8899   22.2079 H   0  0  0  0  0  0
  -23.7192  -37.6330   23.6745 H   0  0  0  0  0  0
  -26.2332  -31.3691   20.6235 H   0  0  0  0  0  0
  -26.9036  -30.6808   22.0602 H   0  0  0  0  0  0
  -28.1471  -28.5937   21.2759 H   0  0  0  0  0  0
  -25.8655  -25.7270   19.0106 H   0  0  0  0  0  0
  -23.9915  -27.2621   18.9683 H   0  0  0  0  0  0
  -23.8595  -30.5203   19.3915 H   0  0  0  0  0  0
  -22.8237  -29.2043   19.8337 H   0  0  0  0  0  0
  -25.1328  -36.1770   25.0799 H   0  0  0  0  0  0
  -21.0063  -28.3361   24.1322 H   0  0  0  0  0  0
  -20.5726  -26.2361   23.3663 H   0  0  0  0  0  0
  -21.6662  -26.7428   22.1205 H   0  0  0  0  0  0
  -19.6939  -25.6278   21.1284 H   0  0  0  0  0  0
  -19.6720  -27.3183   20.6775 H   0  0  0  0  0  0
  -17.4243  -26.6749   21.4005 H   0  0  0  0  0  0
  -18.0306  -26.0082   22.9001 H   0  0  0  0  0  0
  -19.7972  -30.7323   24.2221 H   0  0  0  0  0  0
  -17.5028  -31.6275   24.5159 H   0  0  0  0  0  0
  -15.5372  -30.2967   23.7666 H   0  0  0  0  0  0
  -15.8711  -28.0761   22.7155 H   0  0  0  0  0  0
  -24.5893  -30.7140   25.7637 H   0  0  0  0  0  0
  -24.8820  -32.3029   26.4597 H   0  0  0  0  0  0
  -25.7857  -30.9094   27.0240 H   0  0  0  0  0  0
  -26.3078  -29.6605   24.1424 H   0  0  0  0  0  0
  -27.3917  -29.7254   25.5107 H   0  0  0  0  0  0
  -27.9054  -30.4080   23.9882 H   0  0  0  0  0  0
  -27.2728  -33.3716   26.1900 H   0  0  0  0  0  0
  -28.3949  -32.6759   25.0298 H   0  0  0  0  0  0
  -28.0714  -31.8555   26.5489 H   0  0  0  0  0  0
  -28.2532  -38.0092   24.7567 H   0  0  0  0  0  0
  -28.1136  -36.2617   24.6169 H   0  0  0  0  0  0
  -27.2314  -37.1235   25.8854 H   0  0  0  0  0  0
  -20.9585  -29.8655   21.6609 H   0  0  0  0  0  0
  -26.0118  -38.2753   24.1479 H   0  0  0  0  0  0
  -28.7783  -19.4613   16.4350 H   0  0  0  0  0  0
  -26.5096  -19.9259   15.9651 H   0  0  0  0  0  0
  -26.2493  -21.5815   16.5237 H   0  0  0  0  0  0
  -25.3731  -20.2347   17.2651 H   0  0  0  0  0  0
  -25.2322  -21.0101   19.5302 H   0  0  0  0  0  0
  -25.8770  -22.5183   18.8903 H   0  0  0  0  0  0
  -26.1397  -22.0540   20.5852 H   0  0  0  0  0  0
  -35.5326  -18.3610   18.6500 H   0  0  0  0  0  0
  -34.5645  -19.0972   19.9248 H   0  0  0  0  0  0
  -34.8541  -19.9711   18.4216 H   0  0  0  0  0  0
  -30.8909  -18.5876   16.8997 H   0  0  0  0  0  0
  -30.7392  -17.5479   18.2751 H   0  0  0  0  0  0
  -29.8182  -22.7728   19.8039 H   0  0  0  0  0  0
  -29.1616  -22.6360   21.3860 H   0  0  0  0  0  0
  -29.1439  -18.2892   21.6235 H   0  0  0  0  0  0
  -30.7451  -18.3173   21.0441 H   0  0  0  0  0  0
  -33.2679  -17.3562   18.6417 H   0  0  0  0  0  0
  -33.5169  -18.2538   17.1630 H   0  0  0  0  0  0
  -32.0783  -19.3188   19.6221 H   0  0  0  0  0  0
  -32.2653  -20.2064   18.1452 H   0  0  0  0  0  0
  -27.0512  -24.0595   20.6583 H   0  0  0  0  0  0
  -27.6372  -24.1228   19.0324 H   0  0  0  0  0  0
  -28.6471  -16.2801   20.3016 H   0  0  0  0  0  0
  1 25  1  0  0  0
  1 30  2  0  0  0
  1 86  1  0  0  0
  2  3  1  0  0  0
  2 25  1  0  0  0
  2 87  1  0  0  0
  2 88  1  0  0  0
  3  4  1  0  0  0
  3 89  1  0  0  0
  3 90  1  0  0  0
  4  5  1  0  0  0
  4 91  1  0  0  0
  4 92  1  0  0  0
  5  6  1  0  0  0
  5 26  1  0  0  0
  5 93  1  0  0  0
  6 25  1  0  0  0
  6 94  1  0  0  0
  6 95  1  0  0  0
  7  8  2  0  0  0
  7 26  1  0  0  0
  7 29  1  0  0  0
  8  9  1  0  0  0
  8 22  1  0  0  0
  9 10  1  0  0  0
  9 27  2  0  0  0
 10 11  2  0  0  0
 10 15  1  0  0  0
 11 12  1  0  0  0
 11 96  1  0  0  0
 12 13  2  0  0  0
 12 97  1  0  0  0
 13 14  1  0  0  0
 13 31  1  0  0  0
 14 15  2  0  0  0
 14 98  1  0  0  0
 15 99  1  0  0  0
 16 17  2  0  0  0
 16 21  1  0  0  0
 16 31  1  0  0  0
 17 18  1  0  0  0
 17100  1  0  0  0
 18 19  2  0  0  0
 18101  1  0  0  0
 19 20  1  0  0  0
 19 24  1  0  0  0
 20 21  2  0  0  0
 20102  1  0  0  0
 21 23  1  0  0  0
 22 28  1  0  0  0
 22 32  2  0  0  0
 26 27  1  0  0  0
 28103  1  0  0  0
 28104  1  0  0  0
 29105  1  0  0  0
 29106  1  0  0  0
 33 34  1  0  0  0
 33 66  1  0  0  0
 33 70  2  0  0  0
 34 36  1  0  0  0
 34 59  1  0  0  0
 34107  1  0  0  0
 35 44  2  0  0  0
 35 45  1  0  0  0
 35 68  1  0  0  0
 36 56  1  0  0  0
 36108  1  0  0  0
 37 39  1  0  0  0
 37 47  1  0  0  0
 37 66  1  0  0  0
 37109  1  0  0  0
 38 43  2  0  0  0
 38 46  1  0  0  0
 38 47  1  0  0  0
 39 64  1  0  0  0
 39 67  2  0  0  0
 40 52  1  0  0  0
 40 53  2  0  0  0
 40 58  1  0  0  0
 41110  1  0  0  0
 41111  1  0  0  0
 41112  1  0  0  0
 41 48  1  0  0  0
 42 43  1  0  0  0
 42 66  1  0  0  0
 42113  1  0  0  0
 42114  1  0  0  0
 43 44  1  0  0  0
 44115  1  0  0  0
 45 46  2  0  0  0
 45116  1  0  0  0
 46117  1  0  0  0
 47118  1  0  0  0
 47119  1  0  0  0
 48 56  1  0  0  0
 48 65  1  0  0  0
 48120  1  0  0  0
 49 50  1  0  0  0
 49 53  1  0  0  0
 49 64  1  0  0  0
 49121  1  0  0  0
 50 51  1  0  0  0
 50122  1  0  0  0
 50123  1  0  0  0
 51 52  1  0  0  0
 51124  1  0  0  0
 51125  1  0  0  0
 52126  1  0  0  0
 52127  1  0  0  0
 53 54  1  0  0  0
 54 55  2  0  0  0
 54128  1  0  0  0
 55 57  1  0  0  0
 55129  1  0  0  0
 56 69  2  0  0  0
 57 58  2  0  0  0
 57130  1  0  0  0
 58131  1  0  0  0
 59 60  1  0  0  0
 59 61  1  0  0  0
 59 62  1  0  0  0
 60132  1  0  0  0
 60133  1  0  0  0
 60134  1  0  0  0
 61135  1  0  0  0
 61136  1  0  0  0
 61137  1  0  0  0
 62138  1  0  0  0
 62139  1  0  0  0
 62140  1  0  0  0
 63 65  1  0  0  0
 63141  1  0  0  0
 63142  1  0  0  0
 63143  1  0  0  0
 64144  1  0  0  0
 65145  1  0  0  0
 68 85  1  0  0  0
 71 72  2  0  0  0
 71 73  1  0  0  0
 71146  1  0  0  0
 72 74  1  0  0  0
 72 77  1  0  0  0
 73 76  2  0  0  0
 73 80  1  0  0  0
 74 75  2  0  0  0
 74 78  1  0  0  0
 75 76  1  0  0  0
 75 81  1  0  0  0
 76 82  1  0  0  0
 77147  1  0  0  0
 77148  1  0  0  0
 77149  1  0  0  0
 78150  1  0  0  0
 78151  1  0  0  0
 78152  1  0  0  0
 79 83  1  0  0  0
 79153  1  0  0  0
 79154  1  0  0  0
 79155  1  0  0  0
 80 84  1  0  0  0
 80156  1  0  0  0
 80157  1  0  0  0
 81 85  1  0  0  0
 81158  1  0  0  0
 81159  1  0  0  0
 82 86  1  0  0  0
 82160  1  0  0  0
 82161  1  0  0  0
 83 84  1  0  0  0
 83162  1  0  0  0
 83163  1  0  0  0
 84164  1  0  0  0
 84165  1  0  0  0
 85166  1  0  0  0
 85167  1  0  0  0
 86168  1  0  0  0
M  ISO  4   1 100  68 101  85 101  86 100
M  END
> <chiral flag>
0

> <version>
0

> <s_m_source_file>
/data/baiqing/PycharmProjects/Reinvent-master-3.2/result/LINK_invent/BTK/process_docking_weight1_custom_sum_contain_oxygen_bond_distance_aromatic_linkinvent_7_9_3/rearranged_h_0032.sdf

> <i_m_source_file_index>
72

> <r_mmod_Potential_Energy-OPLS-2005>
1531.42443847656

> <r_mmod_Stretch_Energy-OPLS-2005>
637.781066894531

> <r_mmod_Bend_Energy-OPLS-2005>
463.402160644531

> <r_mmod_Torsional_Energy-OPLS-2005>
425.379180908203

> <r_mmod_Improper_Torsional_Energy-OPLS-2005>
19.7821826934814

> <r_mmod_Van_der_Waal_Energy-OPLS-2005>
128.82258605957

> <r_mmod_Electrostatic_Energy-OPLS-2005>
-414.869262695312

> <r_mmod_Solvation_Energy-OPLS-2005>
-204.438018798828

> <b_mmod_Minimization_Converged-OPLS-2005>
0

> <r_mmod_RMS_Derivative-OPLS-2005>
3.40759897232056

$$$$
72
                    3D
 Structure written by MMmdl.
156165  0  0  1  0            999 V2000
  -30.6157  -14.7138   20.4668 C   0  0  0  0  0  0
  -30.4340  -12.4399   19.4543 C   0  0  0  0  0  0
  -29.5037  -12.4988   18.2234 C   0  0  0  0  0  0
  -28.0320  -12.3237   18.6460 C   0  0  0  0  0  0
  -27.6421  -13.2248   19.8490 C   0  0  2  0  0  0
  -28.6902  -13.1465   20.9793 C   0  0  0  0  0  0
  -25.2524  -13.8181   20.5699 C   0  0  0  0  0  0
  -24.1809  -13.0437   20.9226 C   0  0  0  0  0  0
  -24.6395  -11.6911   20.8763 C   0  0  0  0  0  0
  -23.9072  -10.4292   21.0429 C   0  0  0  0  0  0
  -24.3629   -9.4207   21.9197 C   0  0  0  0  0  0
  -23.6305   -8.2237   22.0760 C   0  0  0  0  0  0
  -22.4288   -8.0282   21.3548 C   0  0  0  0  0  0
  -21.9929   -9.0257   20.4649 C   0  0  0  0  0  0
  -22.7254  -10.2135   20.3065 C   0  0  0  0  0  0
  -21.6857   -6.0745   22.5288 C   0  0  0  0  0  0
  -21.4003   -6.5649   23.8220 C   0  0  0  0  0  0
  -21.3652   -5.6804   24.9179 C   0  0  0  0  0  0
  -21.6042   -4.3065   24.7228 C   0  0  0  0  0  0
  -21.8817   -3.8158   23.4352 C   0  0  0  0  0  0
  -21.9190   -4.6975   22.3409 C   0  0  0  0  0  0
  -22.7829  -13.5223   21.1889 C   0  0  0  0  0  0
  -22.1664   -4.2156   21.0987 F   0  0  0  0  0  0
  -21.5631   -3.4549   25.7741 F   0  0  0  0  0  0
  -29.9887  -13.4944   20.3892 N   0  0  0  0  0  0
  -26.2942  -12.9375   20.3279 N   0  0  0  0  0  0
  -25.9321  -11.6526   20.5762 N   0  0  0  0  0  0
  -22.0474  -12.8200   22.0434 N   0  0  0  0  0  0
  -25.4224  -15.1906   20.4108 N   0  0  0  0  0  0
  -31.8114  -14.8178   20.1816 O   0  0  0  0  0  0
  -21.6645   -6.8885   21.4248 O   0  0  0  0  0  0
  -22.3519  -14.5543   20.6750 O   0  0  0  0  0  0
  -24.6287  -31.8549   23.1986 C   0  0  0  0  0  0
  -25.9116  -32.4759   23.8316 C   0  0  1  0  0  0
  -27.2286  -27.2882   20.1360 C   0  0  0  0  0  0
  -25.5929  -33.8568   24.2251 N   0  0  0  0  0  0
  -23.4239  -30.4764   21.5411 C   0  0  2  0  0  0
  -24.8717  -28.9157   20.1191 C   0  0  0  0  0  0
  -22.7475  -29.4603   22.4920 C   0  0  0  0  0  0
  -18.0275  -28.1393   22.8480 C   0  0  0  0  0  0
  -24.1484  -36.7261   23.2647 C   0  0  0  0  0  0
  -25.9659  -30.7771   21.3712 C   0  0  0  0  0  0
  -26.0409  -29.3991   20.7196 C   0  0  0  0  0  0
  -27.2247  -28.5999   20.7106 C   0  0  0  0  0  0
  -26.0367  -26.8494   19.5277 C   0  0  0  0  0  0
  -24.8720  -27.6457   19.5147 C   0  0  0  0  0  0
  -23.6409  -29.8013   20.1605 C   0  0  0  0  0  0
  -25.4105  -36.3065   24.0334 C   0  0  1  0  0  0
  -20.5885  -28.3691   23.1286 C   0  0  2  0  0  0
  -20.6771  -26.9409   22.5424 C   0  0  0  0  0  0
  -19.5758  -26.6382   21.5224 C   0  0  0  0  0  0
  -18.1923  -26.7942   22.1606 C   0  0  0  0  0  0
  -19.1537  -28.8857   23.2884 C   0  0  0  0  0  0
  -18.9469  -30.1454   23.8908 C   0  0  0  0  0  0
  -17.6466  -30.6598   24.0568 C   0  0  0  0  0  0
  -25.9052  -34.9440   23.5089 C   0  0  0  0  0  0
  -16.5353  -29.9098   23.6351 C   0  0  0  0  0  0
  -16.7266  -28.6516   23.0360 C   0  0  0  0  0  0
  -26.4497  -31.6584   25.0696 C   0  0  0  0  0  0
  -25.3726  -31.3742   26.1428 C   0  0  0  0  0  0
  -27.0341  -30.3003   24.6170 C   0  0  0  0  0  0
  -27.6060  -32.4319   25.7460 C   0  0  0  0  0  0
  -27.5569  -37.1775   24.8465 C   0  0  0  0  0  0
  -21.4191  -29.3037   22.3665 N   0  0  0  0  0  0
  -26.4271  -37.3769   23.9429 N   0  0  0  0  0  0
  -24.6917  -31.0545   22.0933 N   0  0  0  0  0  0
  -23.4197  -28.8174   23.3028 O   0  0  0  0  0  0
  -28.3550  -26.4510   20.0920 O   0  0  0  0  0  0
  -26.5626  -34.8919   22.4663 O   0  0  0  0  0  0
  -23.5448  -32.1334   23.7313 O   0  0  0  0  0  0
  -29.8381  -18.7201   18.9094 C   0  0  0  0  0  0
  -29.0898  -21.0408   20.2831 C   0  0  0  0  0  0
  -29.7353  -18.5874   20.3081 C   0  0  0  0  0  0
  -29.3307  -19.8003   20.9898 C   0  0  0  0  0  0
  -29.3095  -21.0128   18.8956 C   0  0  0  0  0  0
  -28.6550  -22.4032   20.9610 C   0  0  0  0  0  0
  -29.2066  -22.2913   18.0569 C   0  0  0  0  0  0
  -29.3775  -23.6093   18.8602 C   0  0  0  0  0  0
  -28.3931  -23.6944   20.0390 C   0  0  2  0  0  0
  -30.2619  -17.2589   21.0251 C   0  0  0  0  0  0
  -28.3416  -25.1312   20.7847 C   0  0  0  0  0  0
  -29.6428  -19.8797   18.2320 N   0  0  0  0  0  0
  -29.8360  -15.8364   20.6808 N   0  0  0  0  0  0
  -29.1765  -19.8013   22.7111 Cl  0  0  0  0  0  0
  -31.4733  -12.5709   19.1476 H   0  0  0  0  0  0
  -30.3818  -11.4606   19.9327 H   0  0  0  0  0  0
  -29.7798  -11.7255   17.5048 H   0  0  0  0  0  0
  -29.6268  -13.4527   17.7101 H   0  0  0  0  0  0
  -27.8942  -11.2753   18.9123 H   0  0  0  0  0  0
  -27.3684  -12.5119   17.8008 H   0  0  0  0  0  0
  -27.6386  -14.2461   19.4699 H   0  0  0  0  0  0
  -28.7241  -12.1450   21.4114 H   0  0  0  0  0  0
  -28.4324  -13.8219   21.7971 H   0  0  0  0  0  0
  -25.2767   -9.5684   22.4780 H   0  0  0  0  0  0
  -24.0009   -7.4623   22.7473 H   0  0  0  0  0  0
  -21.0866   -8.8780   19.8949 H   0  0  0  0  0  0
  -22.3723  -10.9681   19.6180 H   0  0  0  0  0  0
  -21.1988   -7.6154   23.9729 H   0  0  0  0  0  0
  -21.1472   -6.0530   25.9080 H   0  0  0  0  0  0
  -22.0598   -2.7619   23.2856 H   0  0  0  0  0  0
  -22.4085  -11.9838   22.4780 H   0  0  0  0  0  0
  -21.1086  -13.1199   22.2635 H   0  0  0  0  0  0
  -24.6536  -15.8434   20.5189 H   0  0  0  0  0  0
  -26.2674  -15.6326   20.0730 H   0  0  0  0  0  0
  -26.7181  -32.5420   23.1058 H   0  0  0  0  0  0
  -25.0108  -33.9723   25.0421 H   0  0  0  0  0  0
  -22.7180  -31.2957   21.3906 H   0  0  0  0  0  0
  -23.3771  -35.9575   23.3303 H   0  0  0  0  0  0
  -24.3567  -36.8880   22.2062 H   0  0  0  0  0  0
  -23.7210  -37.6450   23.6665 H   0  0  0  0  0  0
  -26.0937  -31.5352   20.5977 H   0  0  0  0  0  0
  -26.8475  -30.8324   21.9976 H   0  0  0  0  0  0
  -28.1275  -28.9743   21.1713 H   0  0  0  0  0  0
  -26.0069  -25.8729   19.0641 H   0  0  0  0  0  0
  -23.9730  -27.2667   19.0476 H   0  0  0  0  0  0
  -23.7624  -30.5728   19.4002 H   0  0  0  0  0  0
  -22.7609  -29.2306   19.8583 H   0  0  0  0  0  0
  -25.1287  -36.1894   25.0827 H   0  0  0  0  0  0
  -20.9958  -28.3274   24.1413 H   0  0  0  0  0  0
  -20.5670  -26.2307   23.3629 H   0  0  0  0  0  0
  -21.6636  -26.7435   22.1208 H   0  0  0  0  0  0
  -19.6937  -25.6305   21.1234 H   0  0  0  0  0  0
  -19.6726  -27.3206   20.6772 H   0  0  0  0  0  0
  -17.4200  -26.6721   21.3982 H   0  0  0  0  0  0
  -18.0288  -26.0067   22.8980 H   0  0  0  0  0  0
  -19.7950  -30.7258   24.2276 H   0  0  0  0  0  0
  -17.5031  -31.6281   24.5161 H   0  0  0  0  0  0
  -15.5358  -30.3012   23.7694 H   0  0  0  0  0  0
  -15.8650  -28.0843   22.7090 H   0  0  0  0  0  0
  -24.5991  -30.6964   25.7799 H   0  0  0  0  0  0
  -24.8811  -32.2905   26.4711 H   0  0  0  0  0  0
  -25.8068  -30.9079   27.0285 H   0  0  0  0  0  0
  -26.2910  -29.6747   24.1214 H   0  0  0  0  0  0
  -27.4063  -29.7263   25.4668 H   0  0  0  0  0  0
  -27.8766  -30.4285   23.9370 H   0  0  0  0  0  0
  -27.2688  -33.3670   26.1945 H   0  0  0  0  0  0
  -28.3923  -32.6784   25.0310 H   0  0  0  0  0  0
  -28.0659  -31.8482   26.5446 H   0  0  0  0  0  0
  -28.2581  -38.0079   24.7512 H   0  0  0  0  0  0
  -28.1065  -36.2605   24.6271 H   0  0  0  0  0  0
  -27.2290  -37.1381   25.8870 H   0  0  0  0  0  0
  -20.9359  -29.8739   21.6857 H   0  0  0  0  0  0
  -26.0147  -38.2837   24.1477 H   0  0  0  0  0  0
  -30.1611  -17.8807   18.3124 H   0  0  0  0  0  0
  -29.4398  -22.6563   21.6752 H   0  0  0  0  0  0
  -27.7654  -22.2166   21.5636 H   0  0  0  0  0  0
  -28.2350  -22.2914   17.5610 H   0  0  0  0  0  0
  -29.9537  -22.2619   17.2622 H   0  0  0  0  0  0
  -29.2342  -24.4616   18.1951 H   0  0  0  0  0  0
  -30.4000  -23.6775   19.2341 H   0  0  0  0  0  0
  -27.4046  -23.5678   19.5929 H   0  0  0  0  0  0
  -30.0948  -17.3581   22.0970 H   0  0  0  0  0  0
  -31.3481  -17.3002   20.9230 H   0  0  0  0  0  0
  -29.2110  -25.1665   21.4421 H   0  0  0  0  0  0
  -27.4926  -25.1187   21.4691 H   0  0  0  0  0  0
  -28.8573  -15.6368   20.8194 H   0  0  0  0  0  0
  1 25  1  0  0  0
  1 30  2  0  0  0
  1 83  1  0  0  0
  2  3  1  0  0  0
  2 25  1  0  0  0
  2 85  1  0  0  0
  2 86  1  0  0  0
  3  4  1  0  0  0
  3 87  1  0  0  0
  3 88  1  0  0  0
  4  5  1  0  0  0
  4 89  1  0  0  0
  4 90  1  0  0  0
  5  6  1  0  0  0
  5 26  1  0  0  0
  5 91  1  0  0  0
  6 25  1  0  0  0
  6 92  1  0  0  0
  6 93  1  0  0  0
  7  8  2  0  0  0
  7 26  1  0  0  0
  7 29  1  0  0  0
  8  9  1  0  0  0
  8 22  1  0  0  0
  9 10  1  0  0  0
  9 27  2  0  0  0
 10 11  2  0  0  0
 10 15  1  0  0  0
 11 12  1  0  0  0
 11 94  1  0  0  0
 12 13  2  0  0  0
 12 95  1  0  0  0
 13 14  1  0  0  0
 13 31  1  0  0  0
 14 15  2  0  0  0
 14 96  1  0  0  0
 15 97  1  0  0  0
 16 17  2  0  0  0
 16 21  1  0  0  0
 16 31  1  0  0  0
 17 18  1  0  0  0
 17 98  1  0  0  0
 18 19  2  0  0  0
 18 99  1  0  0  0
 19 20  1  0  0  0
 19 24  1  0  0  0
 20 21  2  0  0  0
 20100  1  0  0  0
 21 23  1  0  0  0
 22 28  1  0  0  0
 22 32  2  0  0  0
 26 27  1  0  0  0
 28101  1  0  0  0
 28102  1  0  0  0
 29103  1  0  0  0
 29104  1  0  0  0
 33 34  1  0  0  0
 33 66  1  0  0  0
 33 70  2  0  0  0
 34 36  1  0  0  0
 34 59  1  0  0  0
 34105  1  0  0  0
 35 44  2  0  0  0
 35 45  1  0  0  0
 35 68  1  0  0  0
 36 56  1  0  0  0
 36106  1  0  0  0
 37 39  1  0  0  0
 37 47  1  0  0  0
 37 66  1  0  0  0
 37107  1  0  0  0
 38 43  2  0  0  0
 38 46  1  0  0  0
 38 47  1  0  0  0
 39 64  1  0  0  0
 39 67  2  0  0  0
 40 52  1  0  0  0
 40 53  2  0  0  0
 40 58  1  0  0  0
 41108  1  0  0  0
 41109  1  0  0  0
 41110  1  0  0  0
 41 48  1  0  0  0
 42 43  1  0  0  0
 42 66  1  0  0  0
 42111  1  0  0  0
 42112  1  0  0  0
 43 44  1  0  0  0
 44113  1  0  0  0
 45 46  2  0  0  0
 45114  1  0  0  0
 46115  1  0  0  0
 47116  1  0  0  0
 47117  1  0  0  0
 48 56  1  0  0  0
 48 65  1  0  0  0
 48118  1  0  0  0
 49 50  1  0  0  0
 49 53  1  0  0  0
 49 64  1  0  0  0
 49119  1  0  0  0
 50 51  1  0  0  0
 50120  1  0  0  0
 50121  1  0  0  0
 51 52  1  0  0  0
 51122  1  0  0  0
 51123  1  0  0  0
 52124  1  0  0  0
 52125  1  0  0  0
 53 54  1  0  0  0
 54 55  2  0  0  0
 54126  1  0  0  0
 55 57  1  0  0  0
 55127  1  0  0  0
 56 69  2  0  0  0
 57 58  2  0  0  0
 57128  1  0  0  0
 58129  1  0  0  0
 59 60  1  0  0  0
 59 61  1  0  0  0
 59 62  1  0  0  0
 60130  1  0  0  0
 60131  1  0  0  0
 60132  1  0  0  0
 61133  1  0  0  0
 61134  1  0  0  0
 61135  1  0  0  0
 62136  1  0  0  0
 62137  1  0  0  0
 62138  1  0  0  0
 63 65  1  0  0  0
 63139  1  0  0  0
 63140  1  0  0  0
 63141  1  0  0  0
 64142  1  0  0  0
 65143  1  0  0  0
 68 81  1  0  0  0
 71 73  2  0  0  0
 71 82  1  0  0  0
 71144  1  0  0  0
 72 74  2  0  0  0
 72 75  1  0  0  0
 72 76  1  0  0  0
 73 74  1  0  0  0
 73 80  1  0  0  0
 74 84  1  0  0  0
 75 77  1  0  0  0
 75 82  2  0  0  0
 76 79  1  0  0  0
 76145  1  0  0  0
 76146  1  0  0  0
 77 78  1  0  0  0
 77147  1  0  0  0
 77148  1  0  0  0
 78 79  1  0  0  0
 78149  1  0  0  0
 78150  1  0  0  0
 79 81  1  0  0  0
 79151  1  0  0  0
 80 83  1  0  0  0
 80152  1  0  0  0
 80153  1  0  0  0
 81154  1  0  0  0
 81155  1  0  0  0
 83156  1  0  0  0
M  ISO  4   1 100  68 101  81 101  83 100
M  END
> <chiral flag>
0

> <version>
0

> <s_m_source_file>
/data/baiqing/PycharmProjects/Reinvent-master-3.2/result/LINK_invent/BTK/process_docking_weight1_custom_sum_contain_oxygen_bond_distance_aromatic_linkinvent_7_9_3/rearranged_h_0032.sdf

> <i_m_source_file_index>
73

> <r_mmod_Potential_Energy-OPLS-2005>
-12.9644985198975

> <r_mmod_Stretch_Energy-OPLS-2005>
105.722694396973

> <r_mmod_Bend_Energy-OPLS-2005>
163.105834960938

> <r_mmod_Torsional_Energy-OPLS-2005>
239.253036499023

> <r_mmod_Improper_Torsional_Energy-OPLS-2005>
5.72929334640503

> <r_mmod_Van_der_Waal_Energy-OPLS-2005>
135.835678100586

> <r_mmod_Electrostatic_Energy-OPLS-2005>
-511.728515625

> <r_mmod_Solvation_Energy-OPLS-2005>
-219.562408447266

> <b_mmod_Minimization_Converged-OPLS-2005>
0

> <r_mmod_RMS_Derivative-OPLS-2005>
2.05479121208191

$$$$
73
                    3D
 Structure written by MMmdl.
161170  0  0  1  0            999 V2000
  -30.6696  -14.6215   20.4813 C   0  0  0  0  0  0
  -30.4291  -12.3801   19.4622 C   0  0  0  0  0  0
  -29.5039  -12.4874   18.2305 C   0  0  0  0  0  0
  -28.0300  -12.3316   18.6479 C   0  0  0  0  0  0
  -27.6544  -13.2176   19.8645 C   0  0  2  0  0  0
  -28.7008  -13.1110   20.9980 C   0  0  0  0  0  0
  -25.2615  -13.8203   20.5734 C   0  0  0  0  0  0
  -24.1851  -13.0450   20.9199 C   0  0  0  0  0  0
  -24.6417  -11.6926   20.8761 C   0  0  0  0  0  0
  -23.9062  -10.4296   21.0419 C   0  0  0  0  0  0
  -24.3614   -9.4220   21.9194 C   0  0  0  0  0  0
  -23.6292   -8.2268   22.0771 C   0  0  0  0  0  0
  -22.4295   -8.0295   21.3545 C   0  0  0  0  0  0
  -21.9914   -9.0269   20.4653 C   0  0  0  0  0  0
  -22.7242  -10.2148   20.3061 C   0  0  0  0  0  0
  -21.6827   -6.0734   22.5263 C   0  0  0  0  0  0
  -21.4007   -6.5652   23.8198 C   0  0  0  0  0  0
  -21.3673   -5.6812   24.9169 C   0  0  0  0  0  0
  -21.6032   -4.3064   24.7223 C   0  0  0  0  0  0
  -21.8822   -3.8154   23.4338 C   0  0  0  0  0  0
  -21.9208   -4.6966   22.3393 C   0  0  0  0  0  0
  -22.7882  -13.5258   21.1828 C   0  0  0  0  0  0
  -22.1660   -4.2159   21.0969 F   0  0  0  0  0  0
  -21.5639   -3.4557   25.7735 F   0  0  0  0  0  0
  -30.0151  -13.4224   20.4223 N   0  0  0  0  0  0
  -26.3012  -12.9352   20.3355 N   0  0  0  0  0  0
  -25.9335  -11.6520   20.5793 N   0  0  0  0  0  0
  -22.0512  -12.8229   22.0380 N   0  0  0  0  0  0
  -25.4421  -15.1908   20.4187 N   0  0  0  0  0  0
  -31.8399  -14.7251   20.1073 O   0  0  0  0  0  0
  -21.6646   -6.8901   21.4234 O   0  0  0  0  0  0
  -22.3601  -14.5592   20.6724 O   0  0  0  0  0  0
  -24.6249  -31.8588   23.2041 C   0  0  0  0  0  0
  -25.9100  -32.4780   23.8369 C   0  0  1  0  0  0
  -27.2299  -27.3310   20.1299 C   0  0  0  0  0  0
  -25.5898  -33.8580   24.2293 N   0  0  0  0  0  0
  -23.4172  -30.4808   21.5486 C   0  0  2  0  0  0
  -24.8648  -28.9333   20.1183 C   0  0  0  0  0  0
  -22.7458  -29.4615   22.4964 C   0  0  0  0  0  0
  -18.0253  -28.1397   22.8505 C   0  0  0  0  0  0
  -24.1464  -36.7310   23.2644 C   0  0  0  0  0  0
  -25.9558  -30.7954   21.3685 C   0  0  0  0  0  0
  -26.0320  -29.4213   20.7176 C   0  0  0  0  0  0
  -27.2161  -28.6309   20.7162 C   0  0  0  0  0  0
  -26.0377  -26.8801   19.5192 C   0  0  0  0  0  0
  -24.8669  -27.6656   19.5118 C   0  0  0  0  0  0
  -23.6287  -29.8105   20.1651 C   0  0  0  0  0  0
  -25.4086  -36.3084   24.0323 C   0  0  1  0  0  0
  -20.5870  -28.3697   23.1309 C   0  0  2  0  0  0
  -20.6756  -26.9440   22.5425 C   0  0  0  0  0  0
  -19.5731  -26.6420   21.5223 C   0  0  0  0  0  0
  -18.1894  -26.7950   22.1603 C   0  0  0  0  0  0
  -19.1521  -28.8864   23.2883 C   0  0  0  0  0  0
  -18.9444  -30.1461   23.8915 C   0  0  0  0  0  0
  -17.6455  -30.6618   24.0599 C   0  0  0  0  0  0
  -25.9018  -34.9454   23.5115 C   0  0  0  0  0  0
  -16.5335  -29.9126   23.6375 C   0  0  0  0  0  0
  -16.7247  -28.6527   23.0410 C   0  0  0  0  0  0
  -26.4488  -31.6613   25.0765 C   0  0  0  0  0  0
  -25.3750  -31.3760   26.1546 C   0  0  0  0  0  0
  -27.0329  -30.3024   24.6235 C   0  0  0  0  0  0
  -27.6118  -32.4339   25.7471 C   0  0  0  0  0  0
  -27.5563  -37.1793   24.8474 C   0  0  0  0  0  0
  -21.4187  -29.3041   22.3711 N   0  0  0  0  0  0
  -26.4278  -37.3771   23.9424 N   0  0  0  0  0  0
  -24.6880  -31.0602   22.0992 N   0  0  0  0  0  0
  -23.4189  -28.8166   23.3061 O   0  0  0  0  0  0
  -28.3872  -26.5440   20.1749 O   0  0  0  0  0  0
  -26.5611  -34.8930   22.4701 O   0  0  0  0  0  0
  -23.5426  -32.1387   23.7372 O   0  0  0  0  0  0
  -29.2588  -18.7776   21.9889 C   0  0  0  0  0  0
  -29.6607  -18.4001   20.7267 C   0  0  0  0  0  0
  -29.0024  -20.5981   20.6953 C   0  0  0  0  0  0
  -29.9664  -23.0071   20.3725 C   0  0  0  0  0  0
  -27.4872  -22.7796   20.9521 C   0  0  0  0  0  0
  -29.7532  -24.4658   19.8306 C   0  0  0  0  0  0
  -27.6414  -24.3192   21.2103 C   0  0  0  0  0  0
  -28.7230  -22.0764   20.2791 C   0  0  2  0  0  0
  -28.3268  -25.0769   20.0348 C   0  0  1  0  0  0
  -29.8416  -19.6718   18.5256 C   0  0  0  0  0  0
  -30.2963  -17.1004   20.1796 C   0  0  0  0  0  0
  -29.4934  -19.5590   19.9567 N   0  0  0  0  0  0
  -28.8789  -20.0997   21.9350 N   0  3  0  0  0  0
  -29.9246  -15.7456   20.7103 N   0  0  0  0  0  0
  -31.4709  -12.4861   19.1513 H   0  0  0  0  0  0
  -30.3537  -11.3922   19.9211 H   0  0  0  0  0  0
  -29.7630  -11.7221   17.4972 H   0  0  0  0  0  0
  -29.6491  -13.4493   17.7337 H   0  0  0  0  0  0
  -27.8719  -11.2829   18.8947 H   0  0  0  0  0  0
  -27.3700  -12.5477   17.8060 H   0  0  0  0  0  0
  -27.6692  -14.2454   19.5037 H   0  0  0  0  0  0
  -28.7130  -12.1065   21.4290 H   0  0  0  0  0  0
  -28.4604  -13.7897   21.8178 H   0  0  0  0  0  0
  -25.2739   -9.5714   22.4790 H   0  0  0  0  0  0
  -23.9994   -7.4670   22.7498 H   0  0  0  0  0  0
  -21.0846   -8.8780   19.8956 H   0  0  0  0  0  0
  -22.3686  -10.9691   19.6193 H   0  0  0  0  0  0
  -21.1989   -7.6163   23.9697 H   0  0  0  0  0  0
  -21.1477   -6.0544   25.9071 H   0  0  0  0  0  0
  -22.0598   -2.7616   23.2827 H   0  0  0  0  0  0
  -22.4108  -11.9839   22.4671 H   0  0  0  0  0  0
  -21.1144  -13.1281   22.2606 H   0  0  0  0  0  0
  -24.6952  -15.8625   20.5631 H   0  0  0  0  0  0
  -26.3058  -15.6175   20.1060 H   0  0  0  0  0  0
  -26.7176  -32.5467   23.1142 H   0  0  0  0  0  0
  -25.0049  -33.9715   25.0442 H   0  0  0  0  0  0
  -22.7119  -31.3013   21.4049 H   0  0  0  0  0  0
  -23.3752  -35.9596   23.3211 H   0  0  0  0  0  0
  -24.3563  -36.9093   22.2090 H   0  0  0  0  0  0
  -23.7203  -37.6462   23.6772 H   0  0  0  0  0  0
  -26.0707  -31.5490   20.5891 H   0  0  0  0  0  0
  -26.8415  -30.8603   21.9871 H   0  0  0  0  0  0
  -28.1132  -28.9924   21.1965 H   0  0  0  0  0  0
  -25.9716  -25.9072   19.0551 H   0  0  0  0  0  0
  -23.9707  -27.2841   19.0437 H   0  0  0  0  0  0
  -23.7380  -30.5847   19.4061 H   0  0  0  0  0  0
  -22.7486  -29.2324   19.8774 H   0  0  0  0  0  0
  -25.1263  -36.1918   25.0814 H   0  0  0  0  0  0
  -20.9917  -28.3287   24.1455 H   0  0  0  0  0  0
  -20.5700  -26.2311   23.3599 H   0  0  0  0  0  0
  -21.6618  -26.7499   22.1206 H   0  0  0  0  0  0
  -19.6917  -25.6330   21.1265 H   0  0  0  0  0  0
  -19.6712  -27.3209   20.6740 H   0  0  0  0  0  0
  -17.4202  -26.6775   21.3969 H   0  0  0  0  0  0
  -18.0219  -26.0048   22.8941 H   0  0  0  0  0  0
  -19.7914  -30.7260   24.2320 H   0  0  0  0  0  0
  -17.5021  -31.6317   24.5169 H   0  0  0  0  0  0
  -15.5332  -30.3062   23.7684 H   0  0  0  0  0  0
  -15.8626  -28.0859   22.7176 H   0  0  0  0  0  0
  -24.5834  -30.7216   25.7893 H   0  0  0  0  0  0
  -24.9031  -32.2918   26.5089 H   0  0  0  0  0  0
  -25.8064  -30.8846   27.0280 H   0  0  0  0  0  0
  -26.2879  -29.6731   24.1344 H   0  0  0  0  0  0
  -27.4132  -29.7345   25.4744 H   0  0  0  0  0  0
  -27.8705  -30.4317   23.9369 H   0  0  0  0  0  0
  -27.2897  -33.3839   26.1750 H   0  0  0  0  0  0
  -28.4031  -32.6566   25.0294 H   0  0  0  0  0  0
  -28.0617  -31.8621   26.5612 H   0  0  0  0  0  0
  -28.2587  -38.0084   24.7518 H   0  0  0  0  0  0
  -28.1067  -36.2632   24.6293 H   0  0  0  0  0  0
  -27.2291  -37.1436   25.8880 H   0  0  0  0  0  0
  -20.9350  -29.8782   21.6942 H   0  0  0  0  0  0
  -26.0164  -38.2855   24.1419 H   0  0  0  0  0  0
  -29.2558  -18.2281   22.9192 H   0  0  0  0  0  0
  -30.2906  -23.0691   21.4147 H   0  0  0  0  0  0
  -30.8144  -22.5576   19.8483 H   0  0  0  0  0  0
  -26.6064  -22.6175   20.3245 H   0  0  0  0  0  0
  -27.2232  -22.3059   21.8980 H   0  0  0  0  0  0
  -29.9909  -24.4861   18.7651 H   0  0  0  0  0  0
  -30.5074  -25.1077   20.2936 H   0  0  0  0  0  0
  -28.2248  -24.4761   22.1231 H   0  0  0  0  0  0
  -26.6570  -24.7401   21.4302 H   0  0  0  0  0  0
  -28.4525  -22.0213   19.2247 H   0  0  0  0  0  0
  -27.7823  -24.8403   19.1218 H   0  0  0  0  0  0
  -30.8974  -19.4284   18.3846 H   0  0  0  0  0  0
  -29.6740  -20.6706   18.1361 H   0  0  0  0  0  0
  -29.2368  -18.9711   17.9470 H   0  0  0  0  0  0
  -31.3751  -17.2336   20.2653 H   0  0  0  0  0  0
  -30.1083  -17.0520   19.1073 H   0  0  0  0  0  0
  -28.5806  -20.6352   22.7422 H   0  0  0  0  0  0
  -28.9700  -15.6124   21.0072 H   0  0  0  0  0  0
  1 25  1  0  0  0
  1 30  2  0  0  0
  1 84  1  0  0  0
  2  3  1  0  0  0
  2 25  1  0  0  0
  2 85  1  0  0  0
  2 86  1  0  0  0
  3  4  1  0  0  0
  3 87  1  0  0  0
  3 88  1  0  0  0
  4  5  1  0  0  0
  4 89  1  0  0  0
  4 90  1  0  0  0
  5  6  1  0  0  0
  5 26  1  0  0  0
  5 91  1  0  0  0
  6 25  1  0  0  0
  6 92  1  0  0  0
  6 93  1  0  0  0
  7  8  2  0  0  0
  7 26  1  0  0  0
  7 29  1  0  0  0
  8  9  1  0  0  0
  8 22  1  0  0  0
  9 10  1  0  0  0
  9 27  2  0  0  0
 10 11  2  0  0  0
 10 15  1  0  0  0
 11 12  1  0  0  0
 11 94  1  0  0  0
 12 13  2  0  0  0
 12 95  1  0  0  0
 13 14  1  0  0  0
 13 31  1  0  0  0
 14 15  2  0  0  0
 14 96  1  0  0  0
 15 97  1  0  0  0
 16 17  2  0  0  0
 16 21  1  0  0  0
 16 31  1  0  0  0
 17 18  1  0  0  0
 17 98  1  0  0  0
 18 19  2  0  0  0
 18 99  1  0  0  0
 19 20  1  0  0  0
 19 24  1  0  0  0
 20 21  2  0  0  0
 20100  1  0  0  0
 21 23  1  0  0  0
 22 28  1  0  0  0
 22 32  2  0  0  0
 26 27  1  0  0  0
 28101  1  0  0  0
 28102  1  0  0  0
 29103  1  0  0  0
 29104  1  0  0  0
 33 34  1  0  0  0
 33 66  1  0  0  0
 33 70  2  0  0  0
 34 36  1  0  0  0
 34 59  1  0  0  0
 34105  1  0  0  0
 35 44  2  0  0  0
 35 45  1  0  0  0
 35 68  1  0  0  0
 36 56  1  0  0  0
 36106  1  0  0  0
 37 39  1  0  0  0
 37 47  1  0  0  0
 37 66  1  0  0  0
 37107  1  0  0  0
 38 43  2  0  0  0
 38 46  1  0  0  0
 38 47  1  0  0  0
 39 64  1  0  0  0
 39 67  2  0  0  0
 40 52  1  0  0  0
 40 53  2  0  0  0
 40 58  1  0  0  0
 41108  1  0  0  0
 41109  1  0  0  0
 41110  1  0  0  0
 41 48  1  0  0  0
 42 43  1  0  0  0
 42 66  1  0  0  0
 42111  1  0  0  0
 42112  1  0  0  0
 43 44  1  0  0  0
 44113  1  0  0  0
 45 46  2  0  0  0
 45114  1  0  0  0
 46115  1  0  0  0
 47116  1  0  0  0
 47117  1  0  0  0
 48 56  1  0  0  0
 48 65  1  0  0  0
 48118  1  0  0  0
 49 50  1  0  0  0
 49 53  1  0  0  0
 49 64  1  0  0  0
 49119  1  0  0  0
 50 51  1  0  0  0
 50120  1  0  0  0
 50121  1  0  0  0
 51 52  1  0  0  0
 51122  1  0  0  0
 51123  1  0  0  0
 52124  1  0  0  0
 52125  1  0  0  0
 53 54  1  0  0  0
 54 55  2  0  0  0
 54126  1  0  0  0
 55 57  1  0  0  0
 55127  1  0  0  0
 56 69  2  0  0  0
 57 58  2  0  0  0
 57128  1  0  0  0
 58129  1  0  0  0
 59 60  1  0  0  0
 59 61  1  0  0  0
 59 62  1  0  0  0
 60130  1  0  0  0
 60131  1  0  0  0
 60132  1  0  0  0
 61133  1  0  0  0
 61134  1  0  0  0
 61135  1  0  0  0
 62136  1  0  0  0
 62137  1  0  0  0
 62138  1  0  0  0
 63 65  1  0  0  0
 63139  1  0  0  0
 63140  1  0  0  0
 63141  1  0  0  0
 64142  1  0  0  0
 65143  1  0  0  0
 68 79  1  0  0  0
 71 72  2  0  0  0
 71 83  1  0  0  0
 71144  1  0  0  0
 72 81  1  0  0  0
 72 82  1  0  0  0
 73 82  1  0  0  0
 73 83  2  0  0  0
 73 78  1  0  0  0
 74 76  1  0  0  0
 74 78  1  0  0  0
 74145  1  0  0  0
 74146  1  0  0  0
 75 77  1  0  0  0
 75 78  1  0  0  0
 75147  1  0  0  0
 75148  1  0  0  0
 76 79  1  0  0  0
 76149  1  0  0  0
 76150  1  0  0  0
 77 79  1  0  0  0
 77151  1  0  0  0
 77152  1  0  0  0
 78153  1  0  0  0
 79154  1  0  0  0
 80 82  1  0  0  0
 80155  1  0  0  0
 80156  1  0  0  0
 80157  1  0  0  0
 81 84  1  0  0  0
 81158  1  0  0  0
 81159  1  0  0  0
 83160  1  0  0  0
 84161  1  0  0  0
M  CHG  1  83   1
M  ISO  4   1 100  68 101  79 101  84 100
M  END
> <chiral flag>
0

> <version>
0

> <s_m_source_file>
/data/baiqing/PycharmProjects/Reinvent-master-3.2/result/LINK_invent/BTK/process_docking_weight1_custom_sum_contain_oxygen_bond_distance_aromatic_linkinvent_7_9_3/rearranged_h_0032.sdf

> <i_m_source_file_index>
74

> <r_mmod_Potential_Energy-OPLS-2005>
-46.0899887084961

> <r_mmod_Stretch_Energy-OPLS-2005>
72.0326080322266

> <r_mmod_Bend_Energy-OPLS-2005>
130.528213500977

> <r_mmod_Torsional_Energy-OPLS-2005>
257.575256347656

> <r_mmod_Improper_Torsional_Energy-OPLS-2005>
7.31080341339111

> <r_mmod_Van_der_Waal_Energy-OPLS-2005>
127.585548400879

> <r_mmod_Electrostatic_Energy-OPLS-2005>
-249.58708190918

> <r_mmod_Solvation_Energy-OPLS-2005>
-434.721832275391

> <b_mmod_Minimization_Converged-OPLS-2005>
0

> <r_mmod_RMS_Derivative-OPLS-2005>
6.43822002410889

$$$$
74
                    3D
 Structure written by MMmdl.
190198  0  0  1  0            999 V2000
  -30.0945  -14.9112   20.6866 C   0  0  0  0  0  0
  -30.4457  -12.6322   19.5398 C   0  0  0  0  0  0
  -29.5266  -12.5742   18.2832 C   0  0  0  0  0  0
  -28.0478  -12.2991   18.6512 C   0  0  0  0  0  0
  -27.6058  -13.1541   19.8597 C   0  0  2  0  0  0
  -28.6008  -12.9716   21.0174 C   0  0  0  0  0  0
  -25.2347  -13.7988   20.5537 C   0  0  0  0  0  0
  -24.1625  -13.0339   20.9161 C   0  0  0  0  0  0
  -24.6133  -11.6786   20.8740 C   0  0  0  0  0  0
  -23.8849  -10.4221   21.0448 C   0  0  0  0  0  0
  -24.3481   -9.4176   21.9215 C   0  0  0  0  0  0
  -23.6213   -8.2194   22.0767 C   0  0  0  0  0  0
  -22.4216   -8.0208   21.3535 C   0  0  0  0  0  0
  -21.9787   -9.0162   20.4653 C   0  0  0  0  0  0
  -22.7053  -10.2064   20.3073 C   0  0  0  0  0  0
  -21.6828   -6.0683   22.5273 C   0  0  0  0  0  0
  -21.4007   -6.5612   23.8197 C   0  0  0  0  0  0
  -21.3656   -5.6783   24.9169 C   0  0  0  0  0  0
  -21.6037   -4.3042   24.7237 C   0  0  0  0  0  0
  -21.8826   -3.8116   23.4367 C   0  0  0  0  0  0
  -21.9191   -4.6916   22.3410 C   0  0  0  0  0  0
  -22.7710  -13.5226   21.1880 C   0  0  0  0  0  0
  -22.1659   -4.2096   21.0988 F   0  0  0  0  0  0
  -21.5633   -3.4535   25.7758 F   0  0  0  0  0  0
  -29.8373  -13.5572   20.5446 N   0  0  0  0  0  0
  -26.2578  -12.8980   20.3058 N   0  0  0  0  0  0
  -25.8972  -11.6220   20.5614 N   0  0  0  0  0  0
  -22.0357  -12.8248   22.0465 N   0  0  0  0  0  0
  -25.4160  -15.1693   20.3925 N   0  0  0  0  0  0
  -31.2529  -15.2578   20.3708 O   0  0  0  0  0  0
  -21.6610   -6.8801   21.4227 O   0  0  0  0  0  0
  -22.3433  -14.5547   20.6729 O   0  0  0  0  0  0
  -24.6706  -31.9666   23.2822 C   0  0  0  0  0  0
  -25.9552  -32.5382   23.9043 C   0  0  1  0  0  0
  -27.0435  -27.5261   19.9001 C   0  0  0  0  0  0
  -25.6410  -33.9099   24.2920 N   0  0  0  0  0  0
  -23.4849  -30.5341   21.7911 C   0  0  2  0  0  0
  -24.8735  -28.8333   20.6645 C   0  0  0  0  0  0
  -22.9337  -29.4851   22.7282 C   0  0  0  0  0  0
  -18.2172  -27.5711   22.3393 C   0  0  0  0  0  0
  -24.1508  -36.7445   23.2536 C   0  0  0  0  0  0
  -25.9977  -30.8880   21.4283 C   0  0  0  0  0  0
  -26.0720  -29.4656   20.9018 C   0  0  0  0  0  0
  -27.2321  -28.7523   20.5771 C   0  0  0  0  0  0
  -25.9403  -26.7362   20.1532 C   0  0  0  0  0  0
  -24.7735  -27.4482   20.4224 C   0  0  0  0  0  0
  -23.7403  -29.7377   20.5798 C   0  0  0  0  0  0
  -25.4128  -36.3342   24.0302 C   0  0  1  0  0  0
  -21.0824  -27.9834   22.9520 C   0  0  2  0  0  0
  -21.0318  -26.7768   22.0243 C   0  0  0  0  0  0
  -19.8089  -26.4487   21.1103 C   0  0  0  0  0  0
  -18.4188  -26.3110   21.7028 C   0  0  0  0  0  0
  -19.8235  -28.5147   23.1034 C   0  0  0  0  0  0
  -19.5780  -30.2353   24.0835 C   0  0  0  0  0  0
  -17.7668  -30.9572   24.2988 C   0  0  0  0  0  0
  -25.9130  -34.9754   23.5286 C   0  0  0  0  0  0
  -16.2272  -29.9979   23.6157 C   0  0  0  0  0  0
  -16.4235  -28.3208   22.6370 C   0  0  0  0  0  0
  -26.4737  -31.6735   25.1130 C   0  0  0  0  0  0
  -25.3870  -31.3795   26.1698 C   0  0  0  0  0  0
  -27.0384  -30.3175   24.6171 C   0  0  0  0  0  0
  -27.6370  -32.4103   25.8090 C   0  0  0  0  0  0
  -27.5607  -37.1914   24.8467 C   0  0  0  0  0  0
  -21.7232  -29.1052   22.4162 N   0  0  0  0  0  0
  -26.4328  -37.3997   23.9403 N   0  0  0  0  0  0
  -24.7503  -31.1486   22.2147 N   0  0  0  0  0  0
  -23.6204  -28.9103   23.5608 O   0  0  0  0  0  0
  -26.8106  -27.6628   18.5609 O   0  0  0  0  0  0
  -26.5438  -34.9020   22.4688 O   0  0  0  0  0  0
  -23.5762  -32.2541   23.7969 O   0  0  0  0  0  0
  -21.6416  -32.4280   18.4863 C   0  0  0  0  0  0
  -23.0448  -30.8665   17.3067 C   0  0  0  0  0  0
  -22.5873  -29.7675   18.1319 C   0  0  0  0  0  0
  -22.5780  -32.1822   17.4986 C   0  0  0  0  0  0
  -21.3690  -30.1463   19.0682 C   0  0  0  0  0  0
  -24.1544  -30.7619   16.2694 C   0  0  0  0  0  0
  -23.7120  -28.4670   18.0029 C   0  0  0  0  0  0
  -28.7718  -15.9777   20.9509 C   0  0  0  0  0  0
  -28.4361  -17.4674   21.7249 C   0  0  0  0  0  0
  -26.8533  -18.1387   21.9335 C   0  0  0  0  0  0
  -26.3508  -19.6935   22.4787 C   0  0  0  0  0  0
  -24.7515  -20.2600   22.7774 C   0  0  0  0  0  0
  -24.2047  -21.8162   23.2668 C   0  0  0  0  0  0
  -22.5921  -22.3480   23.5452 C   0  0  0  0  0  0
  -22.0360  -23.8453   24.1907 C   0  0  0  0  0  0
  -20.4246  -24.4773   24.2942 C   0  0  0  0  0  0
  -19.8701  -25.9740   24.9879 C   0  0  0  0  0  0
  -18.4195  -26.9267   24.8387 C   0  0  0  0  0  0
  -17.9640  -28.6603   24.3499 C   0  0  0  0  0  0
  -18.1215  -29.8201   22.3143 C   0  0  0  0  0  0
  -25.5267  -28.4958   17.9750 C   0  0  0  0  0  0
  -19.4630  -30.2247   21.0988 C   0  0  0  0  0  0
  -21.0521  -31.4580   19.1898 N   0  0  0  0  0  0
  -20.4850  -29.4807   20.0786 O   0  0  0  0  0  0
  -23.1894  -33.5171   16.5744 Cl  0  0  0  0  0  0
  -31.4451  -12.9631   19.2526 H   0  0  0  0  0  0
  -30.5723  -11.6355   19.9685 H   0  0  0  0  0  0
  -29.8857  -11.8193   17.5824 H   0  0  0  0  0  0
  -29.5891  -13.5295   17.7583 H   0  0  0  0  0  0
  -27.9446  -11.2403   18.8956 H   0  0  0  0  0  0
  -27.3981  -12.4810   17.7938 H   0  0  0  0  0  0
  -27.6103  -14.1726   19.4855 H   0  0  0  0  0  0
  -28.7266  -11.9126   21.2514 H   0  0  0  0  0  0
  -28.2631  -13.4165   21.9519 H   0  0  0  0  0  0
  -25.2624   -9.5697   22.4774 H   0  0  0  0  0  0
  -23.9941   -7.4592   22.7474 H   0  0  0  0  0  0
  -21.0724   -8.8643   19.8958 H   0  0  0  0  0  0
  -22.3493  -10.9602   19.6185 H   0  0  0  0  0  0
  -21.2001   -7.6120   23.9680 H   0  0  0  0  0  0
  -21.1474   -6.0521   25.9065 H   0  0  0  0  0  0
  -22.0613   -2.7574   23.2885 H   0  0  0  0  0  0
  -22.3955  -11.9890   22.4837 H   0  0  0  0  0  0
  -21.0993  -13.1315   22.2711 H   0  0  0  0  0  0
  -24.6624  -15.8348   20.5175 H   0  0  0  0  0  0
  -26.2695  -15.5990   20.0643 H   0  0  0  0  0  0
  -26.7651  -32.6135   23.1861 H   0  0  0  0  0  0
  -25.0553  -34.0423   25.1033 H   0  0  0  0  0  0
  -22.7258  -31.2940   21.5953 H   0  0  0  0  0  0
  -23.3775  -35.9769   23.3245 H   0  0  0  0  0  0
  -24.3593  -36.9003   22.1935 H   0  0  0  0  0  0
  -23.7236  -37.6661   23.6496 H   0  0  0  0  0  0
  -26.0318  -31.5732   20.5799 H   0  0  0  0  0  0
  -26.9220  -31.0182   21.9793 H   0  0  0  0  0  0
  -28.1977  -29.2432   20.6126 H   0  0  0  0  0  0
  -25.8313  -25.7237   19.7881 H   0  0  0  0  0  0
  -23.8197  -26.9588   20.3700 H   0  0  0  0  0  0
  -24.0251  -30.4510   19.8135 H   0  0  0  0  0  0
  -22.9414  -29.0423   20.3568 H   0  0  0  0  0  0
  -25.1229  -36.2274   25.0779 H   0  0  0  0  0  0
  -21.5561  -27.7270   23.8902 H   0  0  0  0  0  0
  -21.2919  -25.9116   22.5916 H   0  0  0  0  0  0
  -21.8805  -26.8438   21.3465 H   0  0  0  0  0  0
  -20.0313  -25.5261   20.5631 H   0  0  0  0  0  0
  -19.7674  -27.2029   20.3281 H   0  0  0  0  0  0
  -17.6703  -26.1835   20.9179 H   0  0  0  0  0  0
  -18.3215  -25.4724   22.3928 H   0  0  0  0  0  0
  -20.4279  -30.7381   24.5241 H   0  0  0  0  0  0
  -17.6214  -31.8912   24.8289 H   0  0  0  0  0  0
  -15.2439  -30.4242   23.7235 H   0  0  0  0  0  0
  -15.5590  -27.8085   22.2439 H   0  0  0  0  0  0
  -24.6004  -30.7283   25.7868 H   0  0  0  0  0  0
  -24.9182  -32.2985   26.5208 H   0  0  0  0  0  0
  -25.8087  -30.8816   27.0428 H   0  0  0  0  0  0
  -26.2886  -29.7126   24.1053 H   0  0  0  0  0  0
  -27.4042  -29.7111   25.4464 H   0  0  0  0  0  0
  -27.8825  -30.4511   23.9397 H   0  0  0  0  0  0
  -27.3139  -33.3324   26.2913 H   0  0  0  0  0  0
  -28.4320  -32.6647   25.1083 H   0  0  0  0  0  0
  -28.0829  -31.7929   26.5885 H   0  0  0  0  0  0
  -28.2603  -38.0245   24.7633 H   0  0  0  0  0  0
  -28.1139  -36.2784   24.6191 H   0  0  0  0  0  0
  -27.2327  -37.1444   25.8872 H   0  0  0  0  0  0
  -21.2461  -29.5409   21.6397 H   0  0  0  0  0  0
  -26.0211  -38.3039   24.1521 H   0  0  0  0  0  0
  -21.3523  -33.4504   18.6942 H   0  0  0  0  0  0
  -24.4021  -29.7788   15.8837 H   0  0  0  0  0  0
  -25.0492  -31.2090   16.6992 H   0  0  0  0  0  0
  -23.8806  -31.3543   15.3955 H   0  0  0  0  0  0
  -23.5133  -28.1508   16.9826 H   0  0  0  0  0  0
  -23.2875  -27.5780   18.4755 H   0  0  0  0  0  0
  -28.4378  -16.1643   19.9326 H   0  0  0  0  0  0
  -27.9818  -15.3818   21.3846 H   0  0  0  0  0  0
  -29.0277  -18.2212   21.2055 H   0  0  0  0  0  0
  -28.8803  -17.4045   22.7186 H   0  0  0  0  0  0
  -26.3379  -17.4351   22.5902 H   0  0  0  0  0  0
  -26.3566  -18.0095   20.9706 H   0  0  0  0  0  0
  -26.7881  -20.4042   21.7757 H   0  0  0  0  0  0
  -26.8965  -19.8707   23.4042 H   0  0  0  0  0  0
  -24.3478  -19.5791   23.5254 H   0  0  0  0  0  0
  -24.1884  -20.0252   21.8746 H   0  0  0  0  0  0
  -24.5941  -22.4959   22.5083 H   0  0  0  0  0  0
  -24.7705  -22.0817   24.1604 H   0  0  0  0  0  0
  -22.1200  -21.5669   24.1435 H   0  0  0  0  0  0
  -22.1082  -22.2611   22.5730 H   0  0  0  0  0  0
  -22.6331  -24.5887   23.6603 H   0  0  0  0  0  0
  -22.4199  -23.8771   25.2140 H   0  0  0  0  0  0
  -19.8495  -23.7081   24.8126 H   0  0  0  0  0  0
  -20.0094  -24.3995   23.2931 H   0  0  0  0  0  0
  -20.7029  -26.6076   25.2524 H   0  0  0  0  0  0
  -19.7036  -25.5963   25.9984 H   0  0  0  0  0  0
  -18.0902  -26.9415   25.8797 H   0  0  0  0  0  0
  -17.6560  -26.2571   24.4377 H   0  0  0  0  0  0
  -18.2083  -29.6773   22.7922 H   0  0  0  0  0  0
  -18.0069  -29.1014   25.4705 H   0  0  0  0  0  0
  -17.8824  -28.8069   23.8730 H   0  0  0  0  0  0
  -17.2194  -30.1797   21.5928 H   0  0  0  0  0  0
  -25.7430  -28.4119   16.9086 H   0  0  0  0  0  0
  -25.8143  -29.5239   18.1852 H   0  0  0  0  0  0
  -20.0934  -30.9528   21.6187 H   0  0  0  0  0  0
  -18.9121  -30.8638   20.4084 H   0  0  0  0  0  0
  1 25  1  0  0  0
  1 30  2  0  0  0
  1 78  1  0  0  0
  2  3  1  0  0  0
  2 25  1  0  0  0
  2 96  1  0  0  0
  2 97  1  0  0  0
  3  4  1  0  0  0
  3 98  1  0  0  0
  3 99  1  0  0  0
  4  5  1  0  0  0
  4100  1  0  0  0
  4101  1  0  0  0
  5  6  1  0  0  0
  5 26  1  0  0  0
  5102  1  0  0  0
  6 25  1  0  0  0
  6103  1  0  0  0
  6104  1  0  0  0
  7  8  2  0  0  0
  7 26  1  0  0  0
  7 29  1  0  0  0
  8  9  1  0  0  0
  8 22  1  0  0  0
  9 10  1  0  0  0
  9 27  2  0  0  0
 10 11  2  0  0  0
 10 15  1  0  0  0
 11 12  1  0  0  0
 11105  1  0  0  0
 12 13  2  0  0  0
 12106  1  0  0  0
 13 14  1  0  0  0
 13 31  1  0  0  0
 14 15  2  0  0  0
 14107  1  0  0  0
 15108  1  0  0  0
 16 17  2  0  0  0
 16 21  1  0  0  0
 16 31  1  0  0  0
 17 18  1  0  0  0
 17109  1  0  0  0
 18 19  2  0  0  0
 18110  1  0  0  0
 19 20  1  0  0  0
 19 24  1  0  0  0
 20 21  2  0  0  0
 20111  1  0  0  0
 21 23  1  0  0  0
 22 28  1  0  0  0
 22 32  2  0  0  0
 26 27  1  0  0  0
 28112  1  0  0  0
 28113  1  0  0  0
 29114  1  0  0  0
 29115  1  0  0  0
 33 34  1  0  0  0
 33 66  1  0  0  0
 33 70  2  0  0  0
 34 36  1  0  0  0
 34 59  1  0  0  0
 34116  1  0  0  0
 35 44  2  0  0  0
 35 45  1  0  0  0
 35 68  1  0  0  0
 36 56  1  0  0  0
 36117  1  0  0  0
 37 39  1  0  0  0
 37 47  1  0  0  0
 37 66  1  0  0  0
 37118  1  0  0  0
 38 43  2  0  0  0
 38 46  1  0  0  0
 38 47  1  0  0  0
 39 64  1  0  0  0
 39 67  2  0  0  0
 40 52  1  0  0  0
 40 53  2  0  0  0
 40 58  1  0  0  0
 41119  1  0  0  0
 41120  1  0  0  0
 41121  1  0  0  0
 41 48  1  0  0  0
 42 43  1  0  0  0
 42 66  1  0  0  0
 42122  1  0  0  0
 42123  1  0  0  0
 43 44  1  0  0  0
 44124  1  0  0  0
 45 46  2  0  0  0
 45125  1  0  0  0
 46126  1  0  0  0
 47127  1  0  0  0
 47128  1  0  0  0
 48 56  1  0  0  0
 48 65  1  0  0  0
 48129  1  0  0  0
 49 50  1  0  0  0
 49 53  1  0  0  0
 49 64  1  0  0  0
 49130  1  0  0  0
 50 51  1  0  0  0
 50131  1  0  0  0
 50132  1  0  0  0
 51 52  1  0  0  0
 51133  1  0  0  0
 51134  1  0  0  0
 52135  1  0  0  0
 52136  1  0  0  0
 53 54  1  0  0  0
 54 55  2  0  0  0
 54137  1  0  0  0
 55 57  1  0  0  0
 55138  1  0  0  0
 56 69  2  0  0  0
 57 58  2  0  0  0
 57139  1  0  0  0
 58140  1  0  0  0
 59 60  1  0  0  0
 59 61  1  0  0  0
 59 62  1  0  0  0
 60141  1  0  0  0
 60142  1  0  0  0
 60143  1  0  0  0
 61144  1  0  0  0
 61145  1  0  0  0
 61146  1  0  0  0
 62147  1  0  0  0
 62148  1  0  0  0
 62149  1  0  0  0
 63 65  1  0  0  0
 63150  1  0  0  0
 63151  1  0  0  0
 63152  1  0  0  0
 64153  1  0  0  0
 65154  1  0  0  0
 68 91  1  0  0  0
 71 74  2  0  0  0
 71 93  1  0  0  0
 71155  1  0  0  0
 72 73  2  0  0  0
 72 74  1  0  0  0
 72 76  1  0  0  0
 73 75  1  0  0  0
 73 77  1  0  0  0
 74 95  1  0  0  0
 75 93  2  0  0  0
 75 94  1  0  0  0
 76156  1  0  0  0
 76157  1  0  0  0
 76158  1  0  0  0
 77 91  1  0  0  0
 77159  1  0  0  0
 77160  1  0  0  0
 78 79  1  0  0  0
 78161  1  0  0  0
 78162  1  0  0  0
 79 80  1  0  0  0
 79163  1  0  0  0
 79164  1  0  0  0
 80 81  1  0  0  0
 80165  1  0  0  0
 80166  1  0  0  0
 81 82  1  0  0  0
 81167  1  0  0  0
 81168  1  0  0  0
 82 83  1  0  0  0
 82169  1  0  0  0
 82170  1  0  0  0
 83 84  1  0  0  0
 83171  1  0  0  0
 83172  1  0  0  0
 84 85  1  0  0  0
 84173  1  0  0  0
 84174  1  0  0  0
 85 86  1  0  0  0
 85175  1  0  0  0
 85176  1  0  0  0
 86 87  1  0  0  0
 86177  1  0  0  0
 86178  1  0  0  0
 87 88  1  0  0  0
 87179  1  0  0  0
 87180  1  0  0  0
 88 89  1  0  0  0
 88181  1  0  0  0
 88182  1  0  0  0
 89 90  1  0  0  0
 89183  1  0  0  0
 89184  1  0  0  0
 90 92  1  0  0  0
 90185  1  0  0  0
 90186  1  0  0  0
 91187  1  0  0  0
 91188  1  0  0  0
 92 94  1  0  0  0
 92189  1  0  0  0
 92190  1  0  0  0
M  ISO  4   1 100  68 101  78 100  91 101
M  END
> <chiral flag>
0

> <version>
0

> <s_m_source_file>
/data/baiqing/PycharmProjects/Reinvent-master-3.2/result/LINK_invent/BTK/process_docking_weight1_custom_sum_contain_oxygen_bond_distance_aromatic_linkinvent_7_9_3/rearranged_h_0032.sdf

> <i_m_source_file_index>
75

> <r_mmod_Potential_Energy-OPLS-2005>
14749.1416015625

> <r_mmod_Stretch_Energy-OPLS-2005>
7594.37646484375

> <r_mmod_Bend_Energy-OPLS-2005>
2239.72412109375

> <r_mmod_Torsional_Energy-OPLS-2005>
417.468200683594

> <r_mmod_Improper_Torsional_Energy-OPLS-2005>
37.8103866577148

> <r_mmod_Van_der_Waal_Energy-OPLS-2005>
3675.72973632812

> <r_mmod_Electrostatic_Energy-OPLS-2005>
-448.697662353516

> <r_mmod_Solvation_Energy-OPLS-2005>
-167.014984130859

> <b_mmod_Minimization_Converged-OPLS-2005>
0

> <r_mmod_RMS_Derivative-OPLS-2005>
19.7441082000732

$$$$
75
                    3D
 Structure written by MMmdl.
169177  0  0  1  0            999 V2000
  -30.7068  -14.4150   20.6592 C   0  0  0  0  0  0
  -30.4319  -12.3074   19.3928 C   0  0  0  0  0  0
  -29.4914  -12.5360   18.1923 C   0  0  0  0  0  0
  -28.0124  -12.3950   18.6081 C   0  0  0  0  0  0
  -27.6719  -13.1974   19.8931 C   0  0  2  0  0  0
  -28.7139  -12.8916   20.9913 C   0  0  0  0  0  0
  -25.2636  -13.8134   20.5694 C   0  0  0  0  0  0
  -24.1855  -13.0413   20.9150 C   0  0  0  0  0  0
  -24.6400  -11.6890   20.8721 C   0  0  0  0  0  0
  -23.9058  -10.4285   21.0397 C   0  0  0  0  0  0
  -24.3609   -9.4207   21.9176 C   0  0  0  0  0  0
  -23.6282   -8.2243   22.0754 C   0  0  0  0  0  0
  -22.4267   -8.0280   21.3536 C   0  0  0  0  0  0
  -21.9897   -9.0263   20.4645 C   0  0  0  0  0  0
  -22.7233  -10.2137   20.3051 C   0  0  0  0  0  0
  -21.6853   -6.0725   22.5279 C   0  0  0  0  0  0
  -21.4016   -6.5627   23.8213 C   0  0  0  0  0  0
  -21.3665   -5.6782   24.9177 C   0  0  0  0  0  0
  -21.6050   -4.3047   24.7230 C   0  0  0  0  0  0
  -21.8819   -3.8137   23.4352 C   0  0  0  0  0  0
  -21.9194   -4.6952   22.3403 C   0  0  0  0  0  0
  -22.7887  -13.5237   21.1816 C   0  0  0  0  0  0
  -22.1664   -4.2138   21.0984 F   0  0  0  0  0  0
  -21.5640   -3.4532   25.7744 F   0  0  0  0  0  0
  -30.0409  -13.2439   20.4574 N   0  0  0  0  0  0
  -26.3082  -12.9285   20.3438 N   0  0  0  0  0  0
  -25.9328  -11.6452   20.5759 N   0  0  0  0  0  0
  -22.0511  -12.8245   22.0381 N   0  0  0  0  0  0
  -25.4349  -15.1845   20.4128 N   0  0  0  0  0  0
  -31.7695  -14.6669   20.0807 O   0  0  0  0  0  0
  -21.6637   -6.8873   21.4237 O   0  0  0  0  0  0
  -22.3581  -14.5542   20.6670 O   0  0  0  0  0  0
  -24.6117  -31.8706   23.2120 C   0  0  0  0  0  0
  -25.9028  -32.4833   23.8391 C   0  0  1  0  0  0
  -27.2341  -27.4420   20.1011 C   0  0  0  0  0  0
  -25.5893  -33.8630   24.2326 N   0  0  0  0  0  0
  -23.3970  -30.4959   21.5531 C   0  0  2  0  0  0
  -24.8416  -28.9649   20.1147 C   0  0  0  0  0  0
  -22.7377  -29.4681   22.5002 C   0  0  0  0  0  0
  -18.0267  -28.1378   22.8514 C   0  0  0  0  0  0
  -24.1480  -36.7311   23.2635 C   0  0  0  0  0  0
  -25.9244  -30.8387   21.3646 C   0  0  0  0  0  0
  -25.9988  -29.4731   20.7147 C   0  0  0  0  0  0
  -27.1919  -28.7172   20.7099 C   0  0  0  0  0  0
  -26.0566  -26.9572   19.4801 C   0  0  0  0  0  0
  -24.8647  -27.7042   19.4966 C   0  0  0  0  0  0
  -23.6034  -29.8296   20.1660 C   0  0  0  0  0  0
  -25.4107  -36.3120   24.0337 C   0  0  1  0  0  0
  -20.5855  -28.3670   23.1327 C   0  0  2  0  0  0
  -20.6766  -26.9410   22.5425 C   0  0  0  0  0  0
  -19.5744  -26.6393   21.5223 C   0  0  0  0  0  0
  -18.1921  -26.7929   22.1632 C   0  0  0  0  0  0
  -19.1516  -28.8840   23.2923 C   0  0  0  0  0  0
  -18.9442  -30.1448   23.8934 C   0  0  0  0  0  0
  -17.6449  -30.6591   24.0574 C   0  0  0  0  0  0
  -25.9035  -34.9489   23.5129 C   0  0  0  0  0  0
  -16.5341  -29.9097   23.6326 C   0  0  0  0  0  0
  -16.7257  -28.6507   23.0360 C   0  0  0  0  0  0
  -26.4463  -31.6599   25.0712 C   0  0  0  0  0  0
  -25.3735  -31.3719   26.1462 C   0  0  0  0  0  0
  -27.0289  -30.3040   24.6083 C   0  0  0  0  0  0
  -27.6037  -32.4312   25.7476 C   0  0  0  0  0  0
  -27.5579  -37.1817   24.8467 C   0  0  0  0  0  0
  -21.4108  -29.3043   22.3733 N   0  0  0  0  0  0
  -26.4293  -37.3802   23.9412 N   0  0  0  0  0  0
  -24.6626  -31.0823   22.1019 N   0  0  0  0  0  0
  -23.4166  -28.8217   23.3035 O   0  0  0  0  0  0
  -28.4341  -26.7560   20.1336 O   0  0  0  0  0  0
  -26.5596  -34.8945   22.4689 O   0  0  0  0  0  0
  -23.5318  -32.1452   23.7526 O   0  0  0  0  0  0
  -28.3266  -23.4032   23.2442 C   0  0  0  0  0  0
  -30.1360  -23.8950   21.1801 C   0  0  0  0  0  0
  -29.5842  -22.7688   23.2752 C   0  0  0  0  0  0
  -27.9560  -24.2682   22.1944 C   0  0  0  0  0  0
  -30.5119  -23.0202   22.2280 C   0  0  0  0  0  0
  -28.8651  -24.5109   21.1337 C   0  0  0  0  0  0
  -29.8459  -21.8400   24.4560 C   0  0  0  0  0  0
  -26.5715  -24.8912   22.2384 C   0  0  0  0  0  0
  -31.9284  -22.4395   22.1929 C   0  0  0  0  0  0
  -28.4893  -25.3408   19.9014 C   0  0  0  0  0  0
  -30.1319  -15.4913   21.6097 C   0  0  0  0  0  0
  -32.2698  -21.6077   20.9341 C   0  0  0  0  0  0
  -30.1277  -16.9404   21.0615 C   0  0  0  0  0  0
  -32.4824  -20.0971   21.1730 C   0  0  0  0  0  0
  -31.4121  -17.7557   21.3061 C   0  0  0  0  0  0
  -31.1924  -19.2670   21.0826 C   0  0  0  0  0  0
  -31.4722  -12.4300   19.0865 H   0  0  0  0  0  0
  -30.3529  -11.2798   19.7492 H   0  0  0  0  0  0
  -29.7253  -11.8350   17.3903 H   0  0  0  0  0  0
  -29.6588  -13.5336   17.7835 H   0  0  0  0  0  0
  -27.8131  -11.3351   18.7710 H   0  0  0  0  0  0
  -27.3613  -12.7029   17.7895 H   0  0  0  0  0  0
  -27.7403  -14.2584   19.6504 H   0  0  0  0  0  0
  -28.6933  -11.8250   21.2212 H   0  0  0  0  0  0
  -28.4640  -13.3611   21.9400 H   0  0  0  0  0  0
  -25.2758   -9.5688   22.4739 H   0  0  0  0  0  0
  -24.0004   -7.4635   22.7474 H   0  0  0  0  0  0
  -21.0831   -8.8790   19.8945 H   0  0  0  0  0  0
  -22.3704  -10.9678   19.6161 H   0  0  0  0  0  0
  -21.2000   -7.6136   23.9712 H   0  0  0  0  0  0
  -21.1488   -6.0512   25.9078 H   0  0  0  0  0  0
  -22.0590   -2.7598   23.2854 H   0  0  0  0  0  0
  -22.4125  -11.9926   22.4800 H   0  0  0  0  0  0
  -21.1127  -13.1288   22.2559 H   0  0  0  0  0  0
  -24.6678  -15.8391   20.5258 H   0  0  0  0  0  0
  -26.2978  -15.6276   20.1205 H   0  0  0  0  0  0
  -26.7112  -32.5560   23.1167 H   0  0  0  0  0  0
  -25.0088  -33.9792   25.0500 H   0  0  0  0  0  0
  -22.6867  -31.3140   21.4170 H   0  0  0  0  0  0
  -23.3740  -35.9641   23.3304 H   0  0  0  0  0  0
  -24.3580  -36.8921   22.2047 H   0  0  0  0  0  0
  -23.7234  -37.6523   23.6642 H   0  0  0  0  0  0
  -26.0328  -31.6026   20.5935 H   0  0  0  0  0  0
  -26.8148  -30.8933   21.9787 H   0  0  0  0  0  0
  -28.0831  -29.1058   21.1833 H   0  0  0  0  0  0
  -26.0158  -26.0148   18.9615 H   0  0  0  0  0  0
  -23.9794  -27.3097   19.0167 H   0  0  0  0  0  0
  -23.7050  -30.6044   19.4065 H   0  0  0  0  0  0
  -22.7281  -29.2489   19.8711 H   0  0  0  0  0  0
  -25.1281  -36.1975   25.0832 H   0  0  0  0  0  0
  -20.9971  -28.3240   24.1434 H   0  0  0  0  0  0
  -20.5683  -26.2278   23.3614 H   0  0  0  0  0  0
  -21.6640  -26.7472   22.1214 H   0  0  0  0  0  0
  -19.6906  -25.6307   21.1247 H   0  0  0  0  0  0
  -19.6671  -27.3208   20.6762 H   0  0  0  0  0  0
  -17.4193  -26.6682   21.4031 H   0  0  0  0  0  0
  -18.0315  -26.0058   22.9018 H   0  0  0  0  0  0
  -19.7923  -30.7258   24.2310 H   0  0  0  0  0  0
  -17.5008  -31.6276   24.5160 H   0  0  0  0  0  0
  -15.5348  -30.3014   23.7633 H   0  0  0  0  0  0
  -15.8655  -28.0844   22.7058 H   0  0  0  0  0  0
  -24.5882  -30.7090   25.7807 H   0  0  0  0  0  0
  -24.8949  -32.2887   26.4916 H   0  0  0  0  0  0
  -25.8076  -30.8879   27.0220 H   0  0  0  0  0  0
  -26.2840  -29.6821   24.1109 H   0  0  0  0  0  0
  -27.4032  -29.7249   25.4536 H   0  0  0  0  0  0
  -27.8682  -30.4353   23.9248 H   0  0  0  0  0  0
  -27.2644  -33.3584   26.2104 H   0  0  0  0  0  0
  -28.3821  -32.6924   25.0295 H   0  0  0  0  0  0
  -28.0737  -31.8416   26.5357 H   0  0  0  0  0  0
  -28.2611  -38.0105   24.7527 H   0  0  0  0  0  0
  -28.1063  -36.2642   24.6265 H   0  0  0  0  0  0
  -27.2312  -37.1447   25.8877 H   0  0  0  0  0  0
  -20.9237  -29.8752   21.6964 H   0  0  0  0  0  0
  -26.0170  -38.2882   24.1404 H   0  0  0  0  0  0
  -27.6288  -23.2118   24.0485 H   0  0  0  0  0  0
  -30.8393  -24.0850   20.3809 H   0  0  0  0  0  0
  -29.2638  -20.9251   24.3433 H   0  0  0  0  0  0
  -29.5205  -22.3160   25.3817 H   0  0  0  0  0  0
  -30.8806  -21.5528   24.6085 H   0  0  0  0  0  0
  -26.0105  -24.6748   21.3294 H   0  0  0  0  0  0
  -26.6331  -25.9712   22.3708 H   0  0  0  0  0  0
  -25.9938  -24.5053   23.0790 H   0  0  0  0  0  0
  -32.1880  -21.8839   23.0856 H   0  0  0  0  0  0
  -32.6010  -23.2980   22.2238 H   0  0  0  0  0  0
  -27.5958  -24.8952   19.4793 H   0  0  0  0  0  0
  -29.2466  -25.1930   19.1303 H   0  0  0  0  0  0
  -30.6713  -15.4410   22.5548 H   0  0  0  0  0  0
  -29.0962  -15.2878   21.8563 H   0  0  0  0  0  0
  -33.2139  -22.0004   20.5542 H   0  0  0  0  0  0
  -31.5571  -21.7758   20.1259 H   0  0  0  0  0  0
  -29.2998  -17.4690   21.5359 H   0  0  0  0  0  0
  -29.8893  -16.9384   19.9969 H   0  0  0  0  0  0
  -33.1741  -19.7287   20.4134 H   0  0  0  0  0  0
  -32.9795  -19.9295   22.1301 H   0  0  0  0  0  0
  -32.2029  -17.3859   20.6518 H   0  0  0  0  0  0
  -31.7566  -17.5989   22.3290 H   0  0  0  0  0  0
  -30.7382  -19.4233   20.1031 H   0  0  0  0  0  0
  -30.4731  -19.6446   21.8102 H   0  0  0  0  0  0
  1 25  1  0  0  0
  1 30  2  0  0  0
  1 81  1  0  0  0
  2  3  1  0  0  0
  2 25  1  0  0  0
  2 87  1  0  0  0
  2 88  1  0  0  0
  3  4  1  0  0  0
  3 89  1  0  0  0
  3 90  1  0  0  0
  4  5  1  0  0  0
  4 91  1  0  0  0
  4 92  1  0  0  0
  5  6  1  0  0  0
  5 26  1  0  0  0
  5 93  1  0  0  0
  6 25  1  0  0  0
  6 94  1  0  0  0
  6 95  1  0  0  0
  7  8  2  0  0  0
  7 26  1  0  0  0
  7 29  1  0  0  0
  8  9  1  0  0  0
  8 22  1  0  0  0
  9 10  1  0  0  0
  9 27  2  0  0  0
 10 11  2  0  0  0
 10 15  1  0  0  0
 11 12  1  0  0  0
 11 96  1  0  0  0
 12 13  2  0  0  0
 12 97  1  0  0  0
 13 14  1  0  0  0
 13 31  1  0  0  0
 14 15  2  0  0  0
 14 98  1  0  0  0
 15 99  1  0  0  0
 16 17  2  0  0  0
 16 21  1  0  0  0
 16 31  1  0  0  0
 17 18  1  0  0  0
 17100  1  0  0  0
 18 19  2  0  0  0
 18101  1  0  0  0
 19 20  1  0  0  0
 19 24  1  0  0  0
 20 21  2  0  0  0
 20102  1  0  0  0
 21 23  1  0  0  0
 22 28  1  0  0  0
 22 32  2  0  0  0
 26 27  1  0  0  0
 28103  1  0  0  0
 28104  1  0  0  0
 29105  1  0  0  0
 29106  1  0  0  0
 33 34  1  0  0  0
 33 66  1  0  0  0
 33 70  2  0  0  0
 34 36  1  0  0  0
 34 59  1  0  0  0
 34107  1  0  0  0
 35 44  2  0  0  0
 35 45  1  0  0  0
 35 68  1  0  0  0
 36 56  1  0  0  0
 36108  1  0  0  0
 37 39  1  0  0  0
 37 47  1  0  0  0
 37 66  1  0  0  0
 37109  1  0  0  0
 38 43  2  0  0  0
 38 46  1  0  0  0
 38 47  1  0  0  0
 39 64  1  0  0  0
 39 67  2  0  0  0
 40 52  1  0  0  0
 40 53  2  0  0  0
 40 58  1  0  0  0
 41110  1  0  0  0
 41111  1  0  0  0
 41112  1  0  0  0
 41 48  1  0  0  0
 42 43  1  0  0  0
 42 66  1  0  0  0
 42113  1  0  0  0
 42114  1  0  0  0
 43 44  1  0  0  0
 44115  1  0  0  0
 45 46  2  0  0  0
 45116  1  0  0  0
 46117  1  0  0  0
 47118  1  0  0  0
 47119  1  0  0  0
 48 56  1  0  0  0
 48 65  1  0  0  0
 48120  1  0  0  0
 49 50  1  0  0  0
 49 53  1  0  0  0
 49 64  1  0  0  0
 49121  1  0  0  0
 50 51  1  0  0  0
 50122  1  0  0  0
 50123  1  0  0  0
 51 52  1  0  0  0
 51124  1  0  0  0
 51125  1  0  0  0
 52126  1  0  0  0
 52127  1  0  0  0
 53 54  1  0  0  0
 54 55  2  0  0  0
 54128  1  0  0  0
 55 57  1  0  0  0
 55129  1  0  0  0
 56 69  2  0  0  0
 57 58  2  0  0  0
 57130  1  0  0  0
 58131  1  0  0  0
 59 60  1  0  0  0
 59 61  1  0  0  0
 59 62  1  0  0  0
 60132  1  0  0  0
 60133  1  0  0  0
 60134  1  0  0  0
 61135  1  0  0  0
 61136  1  0  0  0
 61137  1  0  0  0
 62138  1  0  0  0
 62139  1  0  0  0
 62140  1  0  0  0
 63 65  1  0  0  0
 63141  1  0  0  0
 63142  1  0  0  0
 63143  1  0  0  0
 64144  1  0  0  0
 65145  1  0  0  0
 68 80  1  0  0  0
 71 73  2  0  0  0
 71 74  1  0  0  0
 71146  1  0  0  0
 72 75  2  0  0  0
 72 76  1  0  0  0
 72147  1  0  0  0
 73 75  1  0  0  0
 73 77  1  0  0  0
 74 76  2  0  0  0
 74 78  1  0  0  0
 75 79  1  0  0  0
 76 80  1  0  0  0
 77148  1  0  0  0
 77149  1  0  0  0
 77150  1  0  0  0
 78151  1  0  0  0
 78152  1  0  0  0
 78153  1  0  0  0
 79 82  1  0  0  0
 79154  1  0  0  0
 79155  1  0  0  0
 80156  1  0  0  0
 80157  1  0  0  0
 81 83  1  0  0  0
 81158  1  0  0  0
 81159  1  0  0  0
 82 84  1  0  0  0
 82160  1  0  0  0
 82161  1  0  0  0
 83 85  1  0  0  0
 83162  1  0  0  0
 83163  1  0  0  0
 84 86  1  0  0  0
 84164  1  0  0  0
 84165  1  0  0  0
 85 86  1  0  0  0
 85166  1  0  0  0
 85167  1  0  0  0
 86168  1  0  0  0
 86169  1  0  0  0
M  ISO  4   1 100  68 101  80 101  81 100
M  END
> <chiral flag>
0

> <version>
0

> <s_m_source_file>
/data/baiqing/PycharmProjects/Reinvent-master-3.2/result/LINK_invent/BTK/process_docking_weight1_custom_sum_contain_oxygen_bond_distance_aromatic_linkinvent_7_9_3/rearranged_h_0032.sdf

> <i_m_source_file_index>
76

> <r_mmod_Potential_Energy-OPLS-2005>
24.2164001464844

> <r_mmod_Stretch_Energy-OPLS-2005>
37.5577125549316

> <r_mmod_Bend_Energy-OPLS-2005>
120.136497497559

> <r_mmod_Torsional_Energy-OPLS-2005>
191.368057250977

> <r_mmod_Improper_Torsional_Energy-OPLS-2005>
1.97237503528595

> <r_mmod_Van_der_Waal_Energy-OPLS-2005>
154.552886962891

> <r_mmod_Electrostatic_Energy-OPLS-2005>
-308.937255859375

> <r_mmod_Solvation_Energy-OPLS-2005>
-182.450958251953

> <b_mmod_Minimization_Converged-OPLS-2005>
0

> <r_mmod_RMS_Derivative-OPLS-2005>
2.19360566139221

$$$$
76
                    3D
 Structure written by MMmdl.
157165  0  0  1  0            999 V2000
  -30.6993  -14.4811   20.5215 C   0  0  0  0  0  0
  -30.4159  -12.2936   19.4403 C   0  0  0  0  0  0
  -29.4970  -12.4858   18.2158 C   0  0  0  0  0  0
  -28.0169  -12.3542   18.6256 C   0  0  0  0  0  0
  -27.6590  -13.2083   19.8721 C   0  0  2  0  0  0
  -28.6993  -13.0213   21.0002 C   0  0  0  0  0  0
  -25.2584  -13.8167   20.5693 C   0  0  0  0  0  0
  -24.1833  -13.0436   20.9182 C   0  0  0  0  0  0
  -24.6381  -11.6903   20.8725 C   0  0  0  0  0  0
  -23.9043  -10.4292   21.0395 C   0  0  0  0  0  0
  -24.3605   -9.4214   21.9176 C   0  0  0  0  0  0
  -23.6285   -8.2245   22.0752 C   0  0  0  0  0  0
  -22.4268   -8.0278   21.3543 C   0  0  0  0  0  0
  -21.9895   -9.0248   20.4644 C   0  0  0  0  0  0
  -22.7215  -10.2133   20.3048 C   0  0  0  0  0  0
  -21.6854   -6.0731   22.5276 C   0  0  0  0  0  0
  -21.4011   -6.5634   23.8209 C   0  0  0  0  0  0
  -21.3660   -5.6788   24.9171 C   0  0  0  0  0  0
  -21.6049   -4.3053   24.7222 C   0  0  0  0  0  0
  -21.8818   -3.8141   23.4342 C   0  0  0  0  0  0
  -21.9194   -4.6959   22.3399 C   0  0  0  0  0  0
  -22.7860  -13.5235   21.1848 C   0  0  0  0  0  0
  -22.1666   -4.2148   21.0976 F   0  0  0  0  0  0
  -21.5634   -3.4535   25.7735 F   0  0  0  0  0  0
  -30.0301  -13.3011   20.4417 N   0  0  0  0  0  0
  -26.3012  -12.9336   20.3357 N   0  0  0  0  0  0
  -25.9312  -11.6493   20.5772 N   0  0  0  0  0  0
  -22.0501  -12.8229   22.0407 N   0  0  0  0  0  0
  -25.4304  -15.1884   20.4117 N   0  0  0  0  0  0
  -31.8532  -14.6176   20.1076 O   0  0  0  0  0  0
  -21.6638   -6.8874   21.4239 O   0  0  0  0  0  0
  -22.3543  -14.5537   20.6695 O   0  0  0  0  0  0
  -24.6145  -31.8686   23.2091 C   0  0  0  0  0  0
  -25.9038  -32.4828   23.8394 C   0  0  1  0  0  0
  -27.2318  -27.4382   20.0997 C   0  0  0  0  0  0
  -25.5887  -33.8624   24.2327 N   0  0  0  0  0  0
  -23.4022  -30.4910   21.5497 C   0  0  2  0  0  0
  -24.8494  -28.9558   20.1146 C   0  0  0  0  0  0
  -22.7412  -29.4661   22.4989 C   0  0  0  0  0  0
  -18.0288  -28.1374   22.8488 C   0  0  0  0  0  0
  -24.1485  -36.7312   23.2637 C   0  0  0  0  0  0
  -25.9302  -30.8372   21.3603 C   0  0  0  0  0  0
  -26.0095  -29.4708   20.7081 C   0  0  0  0  0  0
  -27.2076  -28.7203   20.6948 C   0  0  0  0  0  0
  -26.0591  -26.9349   19.5003 C   0  0  0  0  0  0
  -24.8681  -27.6868   19.5076 C   0  0  0  0  0  0
  -23.6105  -29.8218   20.1648 C   0  0  0  0  0  0
  -25.4109  -36.3118   24.0337 C   0  0  1  0  0  0
  -20.5877  -28.3657   23.1326 C   0  0  2  0  0  0
  -20.6793  -26.9407   22.5389 C   0  0  0  0  0  0
  -19.5760  -26.6378   21.5204 C   0  0  0  0  0  0
  -18.1931  -26.7934   22.1590 C   0  0  0  0  0  0
  -19.1535  -28.8825   23.2919 C   0  0  0  0  0  0
  -18.9459  -30.1428   23.8939 C   0  0  0  0  0  0
  -17.6456  -30.6566   24.0584 C   0  0  0  0  0  0
  -25.9038  -34.9481   23.5133 C   0  0  0  0  0  0
  -16.5352  -29.9079   23.6318 C   0  0  0  0  0  0
  -16.7275  -28.6499   23.0334 C   0  0  0  0  0  0
  -26.4476  -31.6601   25.0714 C   0  0  0  0  0  0
  -25.3745  -31.3694   26.1461 C   0  0  0  0  0  0
  -27.0300  -30.3048   24.6074 C   0  0  0  0  0  0
  -27.6065  -32.4306   25.7471 C   0  0  0  0  0  0
  -27.5578  -37.1810   24.8465 C   0  0  0  0  0  0
  -21.4136  -29.3048   22.3753 N   0  0  0  0  0  0
  -26.4294  -37.3798   23.9401 N   0  0  0  0  0  0
  -24.6672  -31.0793   22.0989 N   0  0  0  0  0  0
  -23.4196  -28.8186   23.3006 O   0  0  0  0  0  0
  -28.3792  -26.6780   20.1042 O   0  0  0  0  0  0
  -26.5596  -34.8933   22.4696 O   0  0  0  0  0  0
  -23.5338  -32.1430   23.7495 O   0  0  0  0  0  0
  -29.2297  -18.0220   22.3486 C   0  0  0  0  0  0
  -28.6381  -20.3896   22.3628 C   0  0  0  0  0  0
  -29.6577  -18.1229   21.0094 C   0  0  0  0  0  0
  -29.5637  -19.3837   20.3441 C   0  0  0  0  0  0
  -29.0582  -20.5320   21.0172 C   0  0  0  0  0  0
  -28.7203  -19.1480   23.0188 C   0  0  0  0  0  0
  -30.0179  -19.5129   18.8939 C   0  0  0  0  0  0
  -30.2871  -16.9049   20.3159 C   0  0  0  0  0  0
  -28.6705  -24.1900   20.1391 C   0  0  0  0  0  0
  -28.2976  -25.4837   20.9036 C   0  0  0  0  0  0
  -28.6141  -22.9293   21.0383 C   0  0  0  0  0  0
  -29.9532  -15.5614   20.8254 N   0  0  0  0  0  0
  -29.0041  -21.7416   20.3334 O   0  0  0  0  0  0
  -28.2094  -19.0102   24.6618 Cl  0  0  0  0  0  0
  -31.4643  -12.3693   19.1467 H   0  0  0  0  0  0
  -30.2981  -11.2904   19.8543 H   0  0  0  0  0  0
  -29.7380  -11.7508   17.4465 H   0  0  0  0  0  0
  -29.6723  -13.4660   17.7701 H   0  0  0  0  0  0
  -27.8238  -11.3003   18.8308 H   0  0  0  0  0  0
  -27.3689  -12.6219   17.7904 H   0  0  0  0  0  0
  -27.6926  -14.2497   19.5535 H   0  0  0  0  0  0
  -28.6691  -11.9980   21.3777 H   0  0  0  0  0  0
  -28.4715  -13.6599   21.8552 H   0  0  0  0  0  0
  -25.2755   -9.5698   22.4744 H   0  0  0  0  0  0
  -24.0006   -7.4633   22.7457 H   0  0  0  0  0  0
  -21.0835   -8.8745   19.8943 H   0  0  0  0  0  0
  -22.3662  -10.9663   19.6152 H   0  0  0  0  0  0
  -21.1998   -7.6143   23.9711 H   0  0  0  0  0  0
  -21.1491   -6.0520   25.9077 H   0  0  0  0  0  0
  -22.0600   -2.7605   23.2838 H   0  0  0  0  0  0
  -22.4119  -11.9888   22.4798 H   0  0  0  0  0  0
  -21.1113  -13.1249   22.2606 H   0  0  0  0  0  0
  -24.6639  -15.8419   20.5278 H   0  0  0  0  0  0
  -26.2833  -15.6327   20.0964 H   0  0  0  0  0  0
  -26.7106  -32.5555   23.1157 H   0  0  0  0  0  0
  -25.0063  -33.9796   25.0491 H   0  0  0  0  0  0
  -22.6903  -31.3079   21.4095 H   0  0  0  0  0  0
  -23.3748  -35.9642   23.3320 H   0  0  0  0  0  0
  -24.3585  -36.8916   22.2046 H   0  0  0  0  0  0
  -23.7236  -37.6523   23.6643 H   0  0  0  0  0  0
  -26.0413  -31.6033   20.5914 H   0  0  0  0  0  0
  -26.8182  -30.8924   21.9779 H   0  0  0  0  0  0
  -28.1041  -29.1119   21.1549 H   0  0  0  0  0  0
  -26.0665  -25.9610   19.0311 H   0  0  0  0  0  0
  -23.9748  -27.2853   19.0487 H   0  0  0  0  0  0
  -23.7160  -30.5966   19.4048 H   0  0  0  0  0  0
  -22.7348  -29.2408   19.8694 H   0  0  0  0  0  0
  -25.1285  -36.1989   25.0828 H   0  0  0  0  0  0
  -20.9990  -28.3202   24.1434 H   0  0  0  0  0  0
  -20.5748  -26.2234   23.3546 H   0  0  0  0  0  0
  -21.6655  -26.7503   22.1125 H   0  0  0  0  0  0
  -19.6923  -25.6282   21.1247 H   0  0  0  0  0  0
  -19.6708  -27.3171   20.6720 H   0  0  0  0  0  0
  -17.4236  -26.6739   21.3945 H   0  0  0  0  0  0
  -18.0274  -26.0056   22.8946 H   0  0  0  0  0  0
  -19.7934  -30.7238   24.2334 H   0  0  0  0  0  0
  -17.5006  -31.6241   24.5191 H   0  0  0  0  0  0
  -15.5352  -30.2983   23.7615 H   0  0  0  0  0  0
  -15.8679  -28.0832   22.7014 H   0  0  0  0  0  0
  -24.5927  -30.7030   25.7793 H   0  0  0  0  0  0
  -24.8919  -32.2838   26.4914 H   0  0  0  0  0  0
  -25.8108  -30.8860   27.0212 H   0  0  0  0  0  0
  -26.2832  -29.6809   24.1145 H   0  0  0  0  0  0
  -27.4099  -29.7283   25.4521 H   0  0  0  0  0  0
  -27.8655  -30.4374   23.9199 H   0  0  0  0  0  0
  -27.2705  -33.3600   26.2082 H   0  0  0  0  0  0
  -28.3859  -32.6879   25.0284 H   0  0  0  0  0  0
  -28.0749  -31.8403   26.5357 H   0  0  0  0  0  0
  -28.2613  -38.0095   24.7513 H   0  0  0  0  0  0
  -28.1068  -36.2628   24.6298 H   0  0  0  0  0  0
  -27.2297  -37.1465   25.8872 H   0  0  0  0  0  0
  -20.9276  -29.8797   21.7014 H   0  0  0  0  0  0
  -26.0194  -38.2880   24.1407 H   0  0  0  0  0  0
  -29.3084  -17.0864   22.8826 H   0  0  0  0  0  0
  -28.2489  -21.2243   22.9251 H   0  0  0  0  0  0
  -31.0051  -19.0737   18.7531 H   0  0  0  0  0  0
  -30.0854  -20.5470   18.5584 H   0  0  0  0  0  0
  -29.3167  -19.0013   18.2340 H   0  0  0  0  0  0
  -31.3667  -17.0604   20.3520 H   0  0  0  0  0  0
  -30.0104  -16.9085   19.2610 H   0  0  0  0  0  0
  -29.6733  -24.2932   19.7242 H   0  0  0  0  0  0
  -27.9953  -24.0595   19.2933 H   0  0  0  0  0  0
  -28.9834  -25.6118   21.7417 H   0  0  0  0  0  0
  -27.3108  -25.3606   21.3548 H   0  0  0  0  0  0
  -27.5981  -22.8115   21.4171 H   0  0  0  0  0  0
  -29.2731  -23.0757   21.8968 H   0  0  0  0  0  0
  -29.0068  -15.3980   21.1307 H   0  0  0  0  0  0
  1 25  1  0  0  0
  1 30  2  0  0  0
  1 82  1  0  0  0
  2  3  1  0  0  0
  2 25  1  0  0  0
  2 85  1  0  0  0
  2 86  1  0  0  0
  3  4  1  0  0  0
  3 87  1  0  0  0
  3 88  1  0  0  0
  4  5  1  0  0  0
  4 89  1  0  0  0
  4 90  1  0  0  0
  5  6  1  0  0  0
  5 26  1  0  0  0
  5 91  1  0  0  0
  6 25  1  0  0  0
  6 92  1  0  0  0
  6 93  1  0  0  0
  7  8  2  0  0  0
  7 26  1  0  0  0
  7 29  1  0  0  0
  8  9  1  0  0  0
  8 22  1  0  0  0
  9 10  1  0  0  0
  9 27  2  0  0  0
 10 11  2  0  0  0
 10 15  1  0  0  0
 11 12  1  0  0  0
 11 94  1  0  0  0
 12 13  2  0  0  0
 12 95  1  0  0  0
 13 14  1  0  0  0
 13 31  1  0  0  0
 14 15  2  0  0  0
 14 96  1  0  0  0
 15 97  1  0  0  0
 16 17  2  0  0  0
 16 21  1  0  0  0
 16 31  1  0  0  0
 17 18  1  0  0  0
 17 98  1  0  0  0
 18 19  2  0  0  0
 18 99  1  0  0  0
 19 20  1  0  0  0
 19 24  1  0  0  0
 20 21  2  0  0  0
 20100  1  0  0  0
 21 23  1  0  0  0
 22 28  1  0  0  0
 22 32  2  0  0  0
 26 27  1  0  0  0
 28101  1  0  0  0
 28102  1  0  0  0
 29103  1  0  0  0
 29104  1  0  0  0
 33 34  1  0  0  0
 33 66  1  0  0  0
 33 70  2  0  0  0
 34 36  1  0  0  0
 34 59  1  0  0  0
 34105  1  0  0  0
 35 44  2  0  0  0
 35 45  1  0  0  0
 35 68  1  0  0  0
 36 56  1  0  0  0
 36106  1  0  0  0
 37 39  1  0  0  0
 37 47  1  0  0  0
 37 66  1  0  0  0
 37107  1  0  0  0
 38 43  2  0  0  0
 38 46  1  0  0  0
 38 47  1  0  0  0
 39 64  1  0  0  0
 39 67  2  0  0  0
 40 52  1  0  0  0
 40 53  2  0  0  0
 40 58  1  0  0  0
 41108  1  0  0  0
 41109  1  0  0  0
 41110  1  0  0  0
 41 48  1  0  0  0
 42 43  1  0  0  0
 42 66  1  0  0  0
 42111  1  0  0  0
 42112  1  0  0  0
 43 44  1  0  0  0
 44113  1  0  0  0
 45 46  2  0  0  0
 45114  1  0  0  0
 46115  1  0  0  0
 47116  1  0  0  0
 47117  1  0  0  0
 48 56  1  0  0  0
 48 65  1  0  0  0
 48118  1  0  0  0
 49 50  1  0  0  0
 49 53  1  0  0  0
 49 64  1  0  0  0
 49119  1  0  0  0
 50 51  1  0  0  0
 50120  1  0  0  0
 50121  1  0  0  0
 51 52  1  0  0  0
 51122  1  0  0  0
 51123  1  0  0  0
 52124  1  0  0  0
 52125  1  0  0  0
 53 54  1  0  0  0
 54 55  2  0  0  0
 54126  1  0  0  0
 55 57  1  0  0  0
 55127  1  0  0  0
 56 69  2  0  0  0
 57 58  2  0  0  0
 57128  1  0  0  0
 58129  1  0  0  0
 59 60  1  0  0  0
 59 61  1  0  0  0
 59 62  1  0  0  0
 60130  1  0  0  0
 60131  1  0  0  0
 60132  1  0  0  0
 61133  1  0  0  0
 61134  1  0  0  0
 61135  1  0  0  0
 62136  1  0  0  0
 62137  1  0  0  0
 62138  1  0  0  0
 63 65  1  0  0  0
 63139  1  0  0  0
 63140  1  0  0  0
 63141  1  0  0  0
 64142  1  0  0  0
 65143  1  0  0  0
 68 80  1  0  0  0
 71 73  2  0  0  0
 71 76  1  0  0  0
 71144  1  0  0  0
 72 75  1  0  0  0
 72 76  2  0  0  0
 72145  1  0  0  0
 73 74  1  0  0  0
 73 78  1  0  0  0
 74 75  2  0  0  0
 74 77  1  0  0  0
 75 83  1  0  0  0
 76 84  1  0  0  0
 77146  1  0  0  0
 77147  1  0  0  0
 77148  1  0  0  0
 78 82  1  0  0  0
 78149  1  0  0  0
 78150  1  0  0  0
 79 80  1  0  0  0
 79 81  1  0  0  0
 79151  1  0  0  0
 79152  1  0  0  0
 80153  1  0  0  0
 80154  1  0  0  0
 81 83  1  0  0  0
 81155  1  0  0  0
 81156  1  0  0  0
 82157  1  0  0  0
M  ISO  4   1 100  68 101  80 101  82 100
M  END
> <chiral flag>
0

> <version>
0

> <s_m_source_file>
/data/baiqing/PycharmProjects/Reinvent-master-3.2/result/LINK_invent/BTK/process_docking_weight1_custom_sum_contain_oxygen_bond_distance_aromatic_linkinvent_7_9_3/rearranged_h_0032.sdf

> <i_m_source_file_index>
77

> <r_mmod_Potential_Energy-OPLS-2005>
-105.417236328125

> <r_mmod_Stretch_Energy-OPLS-2005>
39.4671325683594

> <r_mmod_Bend_Energy-OPLS-2005>
95.7234573364258

> <r_mmod_Torsional_Energy-OPLS-2005>
224.5732421875

> <r_mmod_Improper_Torsional_Energy-OPLS-2005>
7.37743330001831

> <r_mmod_Van_der_Waal_Energy-OPLS-2005>
158.102005004883

> <r_mmod_Electrostatic_Energy-OPLS-2005>
-439.318389892578

> <r_mmod_Solvation_Energy-OPLS-2005>
-206.721237182617

> <b_mmod_Minimization_Converged-OPLS-2005>
0

> <r_mmod_RMS_Derivative-OPLS-2005>
1.31410050392151

$$$$
77
                    3D
 Structure written by MMmdl.
169177  0  0  1  0            999 V2000
  -30.7530  -14.4151   20.6234 C   0  0  0  0  0  0
  -30.4199  -12.2926   19.4156 C   0  0  0  0  0  0
  -29.4914  -12.5066   18.2051 C   0  0  0  0  0  0
  -28.0152  -12.3653   18.6236 C   0  0  0  0  0  0
  -27.6673  -13.2076   19.8807 C   0  0  2  0  0  0
  -28.7091  -12.9793   21.0007 C   0  0  0  0  0  0
  -25.2611  -13.8156   20.5696 C   0  0  0  0  0  0
  -24.1863  -13.0424   20.9184 C   0  0  0  0  0  0
  -24.6423  -11.6901   20.8746 C   0  0  0  0  0  0
  -23.9097  -10.4274   21.0414 C   0  0  0  0  0  0
  -24.3627   -9.4177   21.9181 C   0  0  0  0  0  0
  -23.6273   -8.2235   22.0755 C   0  0  0  0  0  0
  -22.4252   -8.0289   21.3556 C   0  0  0  0  0  0
  -21.9909   -9.0269   20.4663 C   0  0  0  0  0  0
  -22.7271  -10.2131   20.3064 C   0  0  0  0  0  0
  -21.6833   -6.0755   22.5309 C   0  0  0  0  0  0
  -21.3993   -6.5647   23.8248 C   0  0  0  0  0  0
  -21.3653   -5.6793   24.9202 C   0  0  0  0  0  0
  -21.6038   -4.3054   24.7251 C   0  0  0  0  0  0
  -21.8810   -3.8169   23.4365 C   0  0  0  0  0  0
  -21.9165   -4.6984   22.3425 C   0  0  0  0  0  0
  -22.7873  -13.5217   21.1831 C   0  0  0  0  0  0
  -22.1636   -4.2173   21.1001 F   0  0  0  0  0  0
  -21.5623   -3.4539   25.7763 F   0  0  0  0  0  0
  -30.0463  -13.2667   20.4533 N   0  0  0  0  0  0
  -26.3062  -12.9333   20.3407 N   0  0  0  0  0  0
  -25.9354  -11.6495   20.5818 N   0  0  0  0  0  0
  -22.0497  -12.8243   22.0399 N   0  0  0  0  0  0
  -25.4300  -15.1870   20.4076 N   0  0  0  0  0  0
  -31.8265  -14.6313   20.0552 O   0  0  0  0  0  0
  -21.6604   -6.8892   21.4267 O   0  0  0  0  0  0
  -22.3558  -14.5506   20.6654 O   0  0  0  0  0  0
  -24.6127  -31.8682   23.2115 C   0  0  0  0  0  0
  -25.9035  -32.4820   23.8405 C   0  0  1  0  0  0
  -27.2306  -27.4582   20.0928 C   0  0  0  0  0  0
  -25.5905  -33.8618   24.2335 N   0  0  0  0  0  0
  -23.4000  -30.4920   21.5505 C   0  0  2  0  0  0
  -24.8477  -28.9626   20.1101 C   0  0  0  0  0  0
  -22.7403  -29.4659   22.4990 C   0  0  0  0  0  0
  -18.0275  -28.1388   22.8489 C   0  0  0  0  0  0
  -24.1489  -36.7311   23.2635 C   0  0  0  0  0  0
  -25.9263  -30.8422   21.3603 C   0  0  0  0  0  0
  -26.0057  -29.4785   20.7074 C   0  0  0  0  0  0
  -27.2040  -28.7326   20.6975 C   0  0  0  0  0  0
  -26.0642  -26.9508   19.4866 C   0  0  0  0  0  0
  -24.8715  -27.6980   19.4941 C   0  0  0  0  0  0
  -23.6064  -29.8253   20.1637 C   0  0  0  0  0  0
  -25.4102  -36.3104   24.0341 C   0  0  1  0  0  0
  -20.5860  -28.3666   23.1327 C   0  0  2  0  0  0
  -20.6763  -26.9401   22.5423 C   0  0  0  0  0  0
  -19.5742  -26.6391   21.5218 C   0  0  0  0  0  0
  -18.1922  -26.7935   22.1625 C   0  0  0  0  0  0
  -19.1527  -28.8846   23.2906 C   0  0  0  0  0  0
  -18.9449  -30.1452   23.8911 C   0  0  0  0  0  0
  -17.6451  -30.6587   24.0576 C   0  0  0  0  0  0
  -25.9033  -34.9470   23.5131 C   0  0  0  0  0  0
  -16.5342  -29.9090   23.6326 C   0  0  0  0  0  0
  -16.7261  -28.6516   23.0324 C   0  0  0  0  0  0
  -26.4468  -31.6590   25.0720 C   0  0  0  0  0  0
  -25.3747  -31.3687   26.1480 C   0  0  0  0  0  0
  -27.0290  -30.3041   24.6064 C   0  0  0  0  0  0
  -27.6055  -32.4302   25.7469 C   0  0  0  0  0  0
  -27.5585  -37.1797   24.8460 C   0  0  0  0  0  0
  -21.4137  -29.3033   22.3739 N   0  0  0  0  0  0
  -26.4286  -37.3789   23.9421 N   0  0  0  0  0  0
  -24.6644  -31.0813   22.0997 N   0  0  0  0  0  0
  -23.4190  -28.8199   23.3010 O   0  0  0  0  0  0
  -28.3686  -26.6950   20.1039 O   0  0  0  0  0  0
  -26.5580  -34.8916   22.4684 O   0  0  0  0  0  0
  -23.5327  -32.1423   23.7528 O   0  0  0  0  0  0
  -29.3595  -23.9881   18.6612 C   0  0  0  0  0  0
  -29.4371  -22.3009   20.4137 C   0  0  0  0  0  0
  -29.4249  -23.6592   20.0292 C   0  0  0  0  0  0
  -29.3258  -22.9771   17.6778 C   0  0  0  0  0  0
  -29.3681  -21.6125   18.0661 C   0  0  0  0  0  0
  -29.4125  -21.2798   19.4411 C   0  0  0  0  0  0
  -29.2641  -23.3872   16.2144 C   0  0  0  0  0  0
  -27.9359  -19.9898   16.7356 C   0  0  0  0  0  0
  -29.5355  -24.7509   21.0866 C   0  0  0  0  0  0
  -29.3549  -20.4917   17.0296 C   0  0  0  0  0  0
  -29.7432  -17.7620   21.9564 C   0  0  0  0  0  0
  -28.6904  -17.9652   20.8492 C   0  0  0  0  0  0
  -30.7818  -16.6644   21.6622 C   0  0  0  0  0  0
  -28.3388  -25.7170   21.1459 C   0  0  0  0  0  0
  -28.4041  -19.4493   20.5569 C   0  0  0  0  0  0
  -30.1965  -15.3445   21.4143 N   0  0  0  0  0  0
  -29.5029  -19.9615   19.8137 O   0  0  0  0  0  0
  -31.4650  -12.3824   19.1107 H   0  0  0  0  0  0
  -30.3159  -11.2768   19.8036 H   0  0  0  0  0  0
  -29.7283  -11.7835   17.4242 H   0  0  0  0  0  0
  -29.6662  -13.4933   17.7729 H   0  0  0  0  0  0
  -27.8284  -11.3086   18.8243 H   0  0  0  0  0  0
  -27.3572  -12.6371   17.7980 H   0  0  0  0  0  0
  -27.7155  -14.2567   19.5859 H   0  0  0  0  0  0
  -28.6799  -11.9431   21.3387 H   0  0  0  0  0  0
  -28.4700  -13.5759   21.8809 H   0  0  0  0  0  0
  -25.2776   -9.5621   22.4761 H   0  0  0  0  0  0
  -23.9981   -7.4607   22.7452 H   0  0  0  0  0  0
  -21.0850   -8.8801   19.8961 H   0  0  0  0  0  0
  -22.3744  -10.9668   19.6175 H   0  0  0  0  0  0
  -21.1979   -7.6156   23.9765 H   0  0  0  0  0  0
  -21.1477   -6.0524   25.9104 H   0  0  0  0  0  0
  -22.0585   -2.7639   23.2874 H   0  0  0  0  0  0
  -22.4080  -11.9933   22.4876 H   0  0  0  0  0  0
  -21.1119  -13.1303   22.2573 H   0  0  0  0  0  0
  -24.6603  -15.8382   20.5159 H   0  0  0  0  0  0
  -26.2729  -15.6221   20.0553 H   0  0  0  0  0  0
  -26.7106  -32.5542   23.1167 H   0  0  0  0  0  0
  -25.0105  -33.9779   25.0517 H   0  0  0  0  0  0
  -22.6884  -31.3085   21.4131 H   0  0  0  0  0  0
  -23.3747  -35.9649   23.3292 H   0  0  0  0  0  0
  -24.3601  -36.8924   22.2055 H   0  0  0  0  0  0
  -23.7243  -37.6515   23.6648 H   0  0  0  0  0  0
  -26.0341  -31.6089   20.5925 H   0  0  0  0  0  0
  -26.8155  -30.8966   21.9760 H   0  0  0  0  0  0
  -28.0986  -29.1216   21.1623 H   0  0  0  0  0  0
  -26.0803  -25.9767   19.0182 H   0  0  0  0  0  0
  -23.9828  -27.2972   19.0260 H   0  0  0  0  0  0
  -23.7084  -30.6005   19.4033 H   0  0  0  0  0  0
  -22.7317  -29.2415   19.8716 H   0  0  0  0  0  0
  -25.1277  -36.1962   25.0833 H   0  0  0  0  0  0
  -20.9958  -28.3224   24.1447 H   0  0  0  0  0  0
  -20.5680  -26.2264   23.3600 H   0  0  0  0  0  0
  -21.6632  -26.7453   22.1206 H   0  0  0  0  0  0
  -19.6901  -25.6307   21.1234 H   0  0  0  0  0  0
  -19.6686  -27.3214   20.6759 H   0  0  0  0  0  0
  -17.4192  -26.6687   21.4025 H   0  0  0  0  0  0
  -18.0317  -26.0077   22.9023 H   0  0  0  0  0  0
  -19.7920  -30.7278   24.2272 H   0  0  0  0  0  0
  -17.4998  -31.6261   24.5184 H   0  0  0  0  0  0
  -15.5342  -30.2992   23.7645 H   0  0  0  0  0  0
  -15.8663  -28.0859   22.6993 H   0  0  0  0  0  0
  -24.5930  -30.7015   25.7830 H   0  0  0  0  0  0
  -24.8925  -32.2834   26.4935 H   0  0  0  0  0  0
  -25.8121  -30.8865   27.0230 H   0  0  0  0  0  0
  -26.2815  -29.6806   24.1143 H   0  0  0  0  0  0
  -27.4105  -29.7268   25.4496 H   0  0  0  0  0  0
  -27.8630  -30.4374   23.9169 H   0  0  0  0  0  0
  -27.2695  -33.3604   26.2060 H   0  0  0  0  0  0
  -28.3853  -32.6856   25.0281 H   0  0  0  0  0  0
  -28.0734  -31.8415   26.5367 H   0  0  0  0  0  0
  -28.2577  -38.0115   24.7540 H   0  0  0  0  0  0
  -28.1100  -36.2653   24.6237 H   0  0  0  0  0  0
  -27.2316  -37.1393   25.8861 H   0  0  0  0  0  0
  -20.9285  -29.8769   21.6977 H   0  0  0  0  0  0
  -26.0174  -38.2859   24.1437 H   0  0  0  0  0  0
  -29.3529  -25.0284   18.3649 H   0  0  0  0  0  0
  -29.5038  -22.0334   21.4586 H   0  0  0  0  0  0
  -29.0357  -24.4478   16.1056 H   0  0  0  0  0  0
  -28.4919  -22.8312   15.6830 H   0  0  0  0  0  0
  -30.2218  -23.2017   15.7261 H   0  0  0  0  0  0
  -27.9569  -19.1928   15.9925 H   0  0  0  0  0  0
  -27.3011  -20.7892   16.3534 H   0  0  0  0  0  0
  -27.4633  -19.5901   17.6318 H   0  0  0  0  0  0
  -30.4577  -25.3099   20.9301 H   0  0  0  0  0  0
  -29.6386  -24.2756   22.0633 H   0  0  0  0  0  0
  -29.9674  -19.6624   17.3841 H   0  0  0  0  0  0
  -29.8335  -20.8165   16.1059 H   0  0  0  0  0  0
  -29.2431  -17.5684   22.9071 H   0  0  0  0  0  0
  -30.2919  -18.6951   22.1005 H   0  0  0  0  0  0
  -27.7690  -17.4653   21.1485 H   0  0  0  0  0  0
  -29.0025  -17.4815   19.9231 H   0  0  0  0  0  0
  -31.4758  -16.5818   22.4996 H   0  0  0  0  0  0
  -31.3778  -16.9866   20.8049 H   0  0  0  0  0  0
  -28.3660  -26.2457   22.1007 H   0  0  0  0  0  0
  -27.4108  -25.1425   21.1351 H   0  0  0  0  0  0
  -28.2392  -20.0026   21.4826 H   0  0  0  0  0  0
  -27.4943  -19.5409   19.9625 H   0  0  0  0  0  0
  -29.3293  -15.1099   21.8733 H   0  0  0  0  0  0
  1 25  1  0  0  0
  1 30  2  0  0  0
  1 86  1  0  0  0
  2  3  1  0  0  0
  2 25  1  0  0  0
  2 88  1  0  0  0
  2 89  1  0  0  0
  3  4  1  0  0  0
  3 90  1  0  0  0
  3 91  1  0  0  0
  4  5  1  0  0  0
  4 92  1  0  0  0
  4 93  1  0  0  0
  5  6  1  0  0  0
  5 26  1  0  0  0
  5 94  1  0  0  0
  6 25  1  0  0  0
  6 95  1  0  0  0
  6 96  1  0  0  0
  7  8  2  0  0  0
  7 26  1  0  0  0
  7 29  1  0  0  0
  8  9  1  0  0  0
  8 22  1  0  0  0
  9 10  1  0  0  0
  9 27  2  0  0  0
 10 11  2  0  0  0
 10 15  1  0  0  0
 11 12  1  0  0  0
 11 97  1  0  0  0
 12 13  2  0  0  0
 12 98  1  0  0  0
 13 14  1  0  0  0
 13 31  1  0  0  0
 14 15  2  0  0  0
 14 99  1  0  0  0
 15100  1  0  0  0
 16 17  2  0  0  0
 16 21  1  0  0  0
 16 31  1  0  0  0
 17 18  1  0  0  0
 17101  1  0  0  0
 18 19  2  0  0  0
 18102  1  0  0  0
 19 20  1  0  0  0
 19 24  1  0  0  0
 20 21  2  0  0  0
 20103  1  0  0  0
 21 23  1  0  0  0
 22 28  1  0  0  0
 22 32  2  0  0  0
 26 27  1  0  0  0
 28104  1  0  0  0
 28105  1  0  0  0
 29106  1  0  0  0
 29107  1  0  0  0
 33 34  1  0  0  0
 33 66  1  0  0  0
 33 70  2  0  0  0
 34 36  1  0  0  0
 34 59  1  0  0  0
 34108  1  0  0  0
 35 44  2  0  0  0
 35 45  1  0  0  0
 35 68  1  0  0  0
 36 56  1  0  0  0
 36109  1  0  0  0
 37 39  1  0  0  0
 37 47  1  0  0  0
 37 66  1  0  0  0
 37110  1  0  0  0
 38 43  2  0  0  0
 38 46  1  0  0  0
 38 47  1  0  0  0
 39 64  1  0  0  0
 39 67  2  0  0  0
 40 52  1  0  0  0
 40 53  2  0  0  0
 40 58  1  0  0  0
 41111  1  0  0  0
 41112  1  0  0  0
 41113  1  0  0  0
 41 48  1  0  0  0
 42 43  1  0  0  0
 42 66  1  0  0  0
 42114  1  0  0  0
 42115  1  0  0  0
 43 44  1  0  0  0
 44116  1  0  0  0
 45 46  2  0  0  0
 45117  1  0  0  0
 46118  1  0  0  0
 47119  1  0  0  0
 47120  1  0  0  0
 48 56  1  0  0  0
 48 65  1  0  0  0
 48121  1  0  0  0
 49 50  1  0  0  0
 49 53  1  0  0  0
 49 64  1  0  0  0
 49122  1  0  0  0
 50 51  1  0  0  0
 50123  1  0  0  0
 50124  1  0  0  0
 51 52  1  0  0  0
 51125  1  0  0  0
 51126  1  0  0  0
 52127  1  0  0  0
 52128  1  0  0  0
 53 54  1  0  0  0
 54 55  2  0  0  0
 54129  1  0  0  0
 55 57  1  0  0  0
 55130  1  0  0  0
 56 69  2  0  0  0
 57 58  2  0  0  0
 57131  1  0  0  0
 58132  1  0  0  0
 59 60  1  0  0  0
 59 61  1  0  0  0
 59 62  1  0  0  0
 60133  1  0  0  0
 60134  1  0  0  0
 60135  1  0  0  0
 61136  1  0  0  0
 61137  1  0  0  0
 61138  1  0  0  0
 62139  1  0  0  0
 62140  1  0  0  0
 62141  1  0  0  0
 63 65  1  0  0  0
 63142  1  0  0  0
 63143  1  0  0  0
 63144  1  0  0  0
 64145  1  0  0  0
 65146  1  0  0  0
 68 84  1  0  0  0
 71 73  2  0  0  0
 71 74  1  0  0  0
 71147  1  0  0  0
 72 73  1  0  0  0
 72 76  2  0  0  0
 72148  1  0  0  0
 73 79  1  0  0  0
 74 75  2  0  0  0
 74 77  1  0  0  0
 75 76  1  0  0  0
 75 80  1  0  0  0
 76 87  1  0  0  0
 77149  1  0  0  0
 77150  1  0  0  0
 77151  1  0  0  0
 78 80  1  0  0  0
 78152  1  0  0  0
 78153  1  0  0  0
 78154  1  0  0  0
 79 84  1  0  0  0
 79155  1  0  0  0
 79156  1  0  0  0
 80157  1  0  0  0
 80158  1  0  0  0
 81 82  1  0  0  0
 81 83  1  0  0  0
 81159  1  0  0  0
 81160  1  0  0  0
 82 85  1  0  0  0
 82161  1  0  0  0
 82162  1  0  0  0
 83 86  1  0  0  0
 83163  1  0  0  0
 83164  1  0  0  0
 84165  1  0  0  0
 84166  1  0  0  0
 85 87  1  0  0  0
 85167  1  0  0  0
 85168  1  0  0  0
 86169  1  0  0  0
M  ISO  4   1 100  68 101  84 101  86 100
M  END
> <chiral flag>
0

> <version>
0

> <s_m_source_file>
/data/baiqing/PycharmProjects/Reinvent-master-3.2/result/LINK_invent/BTK/process_docking_weight1_custom_sum_contain_oxygen_bond_distance_aromatic_linkinvent_7_9_3/rearranged_h_0032.sdf

> <i_m_source_file_index>
78

> <r_mmod_Potential_Energy-OPLS-2005>
-61.685718536377

> <r_mmod_Stretch_Energy-OPLS-2005>
33.217357635498

> <r_mmod_Bend_Energy-OPLS-2005>
88.0459899902344

> <r_mmod_Torsional_Energy-OPLS-2005>
259.570739746094

> <r_mmod_Improper_Torsional_Energy-OPLS-2005>
2.21533131599426

> <r_mmod_Van_der_Waal_Energy-OPLS-2005>
146.187850952148

> <r_mmod_Electrostatic_Energy-OPLS-2005>
-393.882293701172

> <r_mmod_Solvation_Energy-OPLS-2005>
-206.137985229492

> <b_mmod_Minimization_Converged-OPLS-2005>
0

> <r_mmod_RMS_Derivative-OPLS-2005>
2.42899131774902

$$$$
78
                    3D
 Structure written by MMmdl.
159167  0  0  1  0            999 V2000
  -30.5279  -14.9788   20.4296 C   0  0  0  0  0  0
  -30.4408  -12.6117   19.5033 C   0  0  0  0  0  0
  -29.5245  -12.5419   18.2595 C   0  0  0  0  0  0
  -28.0588  -12.3191   18.6762 C   0  0  0  0  0  0
  -27.6292  -13.2506   19.8399 C   0  0  2  0  0  0
  -28.6698  -13.2883   20.9788 C   0  0  0  0  0  0
  -25.2461  -13.8217   20.5704 C   0  0  0  0  0  0
  -24.1782  -13.0435   20.9223 C   0  0  0  0  0  0
  -24.6402  -11.6922   20.8746 C   0  0  0  0  0  0
  -23.9085  -10.4292   21.0398 C   0  0  0  0  0  0
  -24.3632   -9.4214   21.9180 C   0  0  0  0  0  0
  -23.6301   -8.2254   22.0761 C   0  0  0  0  0  0
  -22.4283   -8.0290   21.3553 C   0  0  0  0  0  0
  -21.9919   -9.0261   20.4653 C   0  0  0  0  0  0
  -22.7251  -10.2136   20.3055 C   0  0  0  0  0  0
  -21.6859   -6.0742   22.5278 C   0  0  0  0  0  0
  -21.4015   -6.5641   23.8211 C   0  0  0  0  0  0
  -21.3661   -5.6793   24.9171 C   0  0  0  0  0  0
  -21.6051   -4.3058   24.7220 C   0  0  0  0  0  0
  -21.8819   -3.8150   23.4338 C   0  0  0  0  0  0
  -21.9193   -4.6969   22.3396 C   0  0  0  0  0  0
  -22.7804  -13.5213   21.1861 C   0  0  0  0  0  0
  -22.1662   -4.2153   21.0975 F   0  0  0  0  0  0
  -21.5629   -3.4543   25.7733 F   0  0  0  0  0  0
  -29.9404  -13.7124   20.3791 N   0  0  0  0  0  0
  -26.2884  -12.9452   20.3238 N   0  0  0  0  0  0
  -25.9336  -11.6578   20.5734 N   0  0  0  0  0  0
  -22.0446  -12.8217   22.0419 N   0  0  0  0  0  0
  -25.4117  -15.1949   20.4129 N   0  0  0  0  0  0
  -31.7325  -15.0418   20.1609 O   0  0  0  0  0  0
  -21.6649   -6.8886   21.4243 O   0  0  0  0  0  0
  -22.3493  -14.5513   20.6694 O   0  0  0  0  0  0
  -24.6460  -31.8421   23.1856 C   0  0  0  0  0  0
  -25.9219  -32.4682   23.8261 C   0  0  1  0  0  0
  -27.2059  -27.0891   20.1894 C   0  0  0  0  0  0
  -25.5970  -33.8492   24.2180 N   0  0  0  0  0  0
  -23.4506  -30.4597   21.5321 C   0  0  2  0  0  0
  -24.8992  -28.8741   20.1204 C   0  0  0  0  0  0
  -22.7579  -29.4527   22.4847 C   0  0  0  0  0  0
  -18.0306  -28.1395   22.8476 C   0  0  0  0  0  0
  -24.1494  -36.7252   23.2639 C   0  0  0  0  0  0
  -26.0081  -30.7024   21.3912 C   0  0  0  0  0  0
  -26.0744  -29.3030   20.7499 C   0  0  0  0  0  0
  -27.2283  -28.4270   20.7655 C   0  0  0  0  0  0
  -26.0237  -26.7934   19.4784 C   0  0  0  0  0  0
  -24.8871  -27.6321   19.4685 C   0  0  0  0  0  0
  -23.6797  -29.7832   20.1542 C   0  0  0  0  0  0
  -25.4124  -36.3021   24.0308 C   0  0  1  0  0  0
  -20.5925  -28.3715   23.1233 C   0  0  2  0  0  0
  -20.6793  -26.9414   22.5401 C   0  0  0  0  0  0
  -19.5762  -26.6377   21.5215 C   0  0  0  0  0  0
  -18.1943  -26.7935   22.1623 C   0  0  0  0  0  0
  -19.1566  -28.8875   23.2848 C   0  0  0  0  0  0
  -18.9477  -30.1474   23.8869 C   0  0  0  0  0  0
  -17.6472  -30.6590   24.0558 C   0  0  0  0  0  0
  -25.9074  -34.9398   23.5048 C   0  0  0  0  0  0
  -16.5364  -29.9080   23.6334 C   0  0  0  0  0  0
  -16.7289  -28.6502   23.0352 C   0  0  0  0  0  0
  -26.4526  -31.6558   25.0714 C   0  0  0  0  0  0
  -25.3699  -31.3756   26.1400 C   0  0  0  0  0  0
  -27.0391  -30.2947   24.6311 C   0  0  0  0  0  0
  -27.6051  -32.4323   25.7509 C   0  0  0  0  0  0
  -27.5571  -37.1782   24.8461 C   0  0  0  0  0  0
  -21.4271  -29.3042   22.3603 N   0  0  0  0  0  0
  -26.4282  -37.3737   23.9405 N   0  0  0  0  0  0
  -24.7218  -31.0246   22.0908 N   0  0  0  0  0  0
  -23.4214  -28.8070   23.3000 O   0  0  0  0  0  0
  -28.3006  -26.1433   20.1170 O   0  0  0  0  0  0
  -26.5652  -34.8899   22.4621 O   0  0  0  0  0  0
  -23.5571  -32.1312   23.7052 O   0  0  0  0  0  0
  -26.7101  -21.0167   20.0490 C   0  0  0  0  0  0
  -26.2835  -23.7005   20.4994 C   0  0  0  0  0  0
  -25.4008  -21.5177   20.0050 C   0  0  0  0  0  0
  -25.1796  -22.8692   20.2806 C   0  0  0  0  0  0
  -27.8805  -21.7829   20.3128 C   0  0  0  0  0  0
  -27.6374  -23.3004   20.4253 C   0  0  0  0  0  0
  -24.2437  -20.5743   19.7170 C   0  0  0  0  0  0
  -23.7761  -23.4500   20.3463 C   0  0  0  0  0  0
  -29.1534  -20.7187   20.4478 C   0  0  0  0  0  0
  -28.5258  -24.6656   20.6618 C   0  0  0  0  0  0
  -28.9567  -18.9983   20.4270 C   0  0  0  0  0  0
  -30.0871  -17.7299   20.5458 C   0  0  0  0  0  0
  -29.7477  -16.1691   20.5804 N   0  0  0  0  0  0
  -31.4732  -12.7780   19.1921 H   0  0  0  0  0  0
  -30.4427  -11.6613   20.0392 H   0  0  0  0  0  0
  -29.8516  -11.7467   17.5885 H   0  0  0  0  0  0
  -29.6062  -13.4728   17.6963 H   0  0  0  0  0  0
  -27.9590  -11.2769   18.9824 H   0  0  0  0  0  0
  -27.3969  -12.4523   17.8196 H   0  0  0  0  0  0
  -27.5890  -14.2518   19.4100 H   0  0  0  0  0  0
  -28.7663  -12.3148   21.4616 H   0  0  0  0  0  0
  -28.3639  -13.9907   21.7562 H   0  0  0  0  0  0
  -25.2773   -9.5698   22.4758 H   0  0  0  0  0  0
  -24.0015   -7.4656   22.7489 H   0  0  0  0  0  0
  -21.0851   -8.8777   19.8960 H   0  0  0  0  0  0
  -22.3706  -10.9678   19.6168 H   0  0  0  0  0  0
  -21.2007   -7.6151   23.9712 H   0  0  0  0  0  0
  -21.1484   -6.0524   25.9075 H   0  0  0  0  0  0
  -22.0598   -2.7614   23.2832 H   0  0  0  0  0  0
  -22.4064  -11.9893   22.4830 H   0  0  0  0  0  0
  -21.1061  -13.1256   22.2596 H   0  0  0  0  0  0
  -24.6376  -15.8419   20.5168 H   0  0  0  0  0  0
  -26.2499  -15.6367   20.0584 H   0  0  0  0  0  0
  -26.7288  -32.5279   23.0994 H   0  0  0  0  0  0
  -25.0135  -33.9606   25.0341 H   0  0  0  0  0  0
  -22.7542  -31.2858   21.3730 H   0  0  0  0  0  0
  -23.3758  -35.9582   23.3283 H   0  0  0  0  0  0
  -24.3580  -36.8904   22.2057 H   0  0  0  0  0  0
  -23.7252  -37.6442   23.6694 H   0  0  0  0  0  0
  -26.1631  -31.4455   20.6073 H   0  0  0  0  0  0
  -26.8806  -30.7631   22.0301 H   0  0  0  0  0  0
  -28.1330  -28.7612   21.2531 H   0  0  0  0  0  0
  -25.9662  -25.8700   18.9204 H   0  0  0  0  0  0
  -24.0007  -27.3106   18.9393 H   0  0  0  0  0  0
  -23.8206  -30.5540   19.3956 H   0  0  0  0  0  0
  -22.7943  -29.2259   19.8434 H   0  0  0  0  0  0
  -25.1315  -36.1840   25.0799 H   0  0  0  0  0  0
  -21.0020  -28.3306   24.1353 H   0  0  0  0  0  0
  -20.5693  -26.2320   23.3616 H   0  0  0  0  0  0
  -21.6654  -26.7417   22.1187 H   0  0  0  0  0  0
  -19.6917  -25.6282   21.1254 H   0  0  0  0  0  0
  -19.6705  -27.3178   20.6739 H   0  0  0  0  0  0
  -17.4210  -26.6685   21.4025 H   0  0  0  0  0  0
  -18.0332  -26.0088   22.9027 H   0  0  0  0  0  0
  -19.7951  -30.7307   24.2222 H   0  0  0  0  0  0
  -17.5016  -31.6264   24.5170 H   0  0  0  0  0  0
  -15.5360  -30.2967   23.7672 H   0  0  0  0  0  0
  -15.8692  -28.0812   22.7075 H   0  0  0  0  0  0
  -24.5898  -30.7081   25.7724 H   0  0  0  0  0  0
  -24.8865  -32.2939   26.4746 H   0  0  0  0  0  0
  -25.7973  -30.8990   27.0231 H   0  0  0  0  0  0
  -26.3016  -29.6670   24.1298 H   0  0  0  0  0  0
  -27.3968  -29.7251   25.4899 H   0  0  0  0  0  0
  -27.8938  -30.4172   23.9655 H   0  0  0  0  0  0
  -27.2646  -33.3650   26.2019 H   0  0  0  0  0  0
  -28.3906  -32.6837   25.0370 H   0  0  0  0  0  0
  -28.0669  -31.8489   26.5484 H   0  0  0  0  0  0
  -28.2569  -38.0095   24.7511 H   0  0  0  0  0  0
  -28.1084  -36.2621   24.6284 H   0  0  0  0  0  0
  -27.2286  -37.1421   25.8863 H   0  0  0  0  0  0
  -20.9477  -29.8757   21.6787 H   0  0  0  0  0  0
  -26.0141  -38.2799   24.1421 H   0  0  0  0  0  0
  -26.7739  -19.9555   19.8930 H   0  0  0  0  0  0
  -26.0687  -24.7162   20.7764 H   0  0  0  0  0  0
  -23.5596  -21.0056   18.9859 H   0  0  0  0  0  0
  -23.6854  -20.3680   20.6301 H   0  0  0  0  0  0
  -24.5913  -19.6229   19.3134 H   0  0  0  0  0  0
  -23.7828  -24.4770   20.7149 H   0  0  0  0  0  0
  -23.1434  -22.8645   21.0141 H   0  0  0  0  0  0
  -23.3196  -23.4548   19.3558 H   0  0  0  0  0  0
  -29.6638  -20.9747   21.3764 H   0  0  0  0  0  0
  -29.8571  -20.9848   19.6584 H   0  0  0  0  0  0
  -29.5332  -24.4007   20.3406 H   0  0  0  0  0  0
  -28.6086  -24.7697   21.7442 H   0  0  0  0  0  0
  -28.4522  -18.7737   19.4873 H   0  0  0  0  0  0
  -28.2261  -18.7858   21.2080 H   0  0  0  0  0  0
  -30.6750  -17.9164   21.4459 H   0  0  0  0  0  0
  -30.7941  -17.8594   19.7258 H   0  0  0  0  0  0
  -28.7737  -15.9700   20.7547 H   0  0  0  0  0  0
  1 25  1  0  0  0
  1 30  2  0  0  0
  1 83  1  0  0  0
  2  3  1  0  0  0
  2 25  1  0  0  0
  2 84  1  0  0  0
  2 85  1  0  0  0
  3  4  1  0  0  0
  3 86  1  0  0  0
  3 87  1  0  0  0
  4  5  1  0  0  0
  4 88  1  0  0  0
  4 89  1  0  0  0
  5  6  1  0  0  0
  5 26  1  0  0  0
  5 90  1  0  0  0
  6 25  1  0  0  0
  6 91  1  0  0  0
  6 92  1  0  0  0
  7  8  2  0  0  0
  7 26  1  0  0  0
  7 29  1  0  0  0
  8  9  1  0  0  0
  8 22  1  0  0  0
  9 10  1  0  0  0
  9 27  2  0  0  0
 10 11  2  0  0  0
 10 15  1  0  0  0
 11 12  1  0  0  0
 11 93  1  0  0  0
 12 13  2  0  0  0
 12 94  1  0  0  0
 13 14  1  0  0  0
 13 31  1  0  0  0
 14 15  2  0  0  0
 14 95  1  0  0  0
 15 96  1  0  0  0
 16 17  2  0  0  0
 16 21  1  0  0  0
 16 31  1  0  0  0
 17 18  1  0  0  0
 17 97  1  0  0  0
 18 19  2  0  0  0
 18 98  1  0  0  0
 19 20  1  0  0  0
 19 24  1  0  0  0
 20 21  2  0  0  0
 20 99  1  0  0  0
 21 23  1  0  0  0
 22 28  1  0  0  0
 22 32  2  0  0  0
 26 27  1  0  0  0
 28100  1  0  0  0
 28101  1  0  0  0
 29102  1  0  0  0
 29103  1  0  0  0
 33 34  1  0  0  0
 33 66  1  0  0  0
 33 70  2  0  0  0
 34 36  1  0  0  0
 34 59  1  0  0  0
 34104  1  0  0  0
 35 44  2  0  0  0
 35 45  1  0  0  0
 35 68  1  0  0  0
 36 56  1  0  0  0
 36105  1  0  0  0
 37 39  1  0  0  0
 37 47  1  0  0  0
 37 66  1  0  0  0
 37106  1  0  0  0
 38 43  2  0  0  0
 38 46  1  0  0  0
 38 47  1  0  0  0
 39 64  1  0  0  0
 39 67  2  0  0  0
 40 52  1  0  0  0
 40 53  2  0  0  0
 40 58  1  0  0  0
 41107  1  0  0  0
 41108  1  0  0  0
 41109  1  0  0  0
 41 48  1  0  0  0
 42 43  1  0  0  0
 42 66  1  0  0  0
 42110  1  0  0  0
 42111  1  0  0  0
 43 44  1  0  0  0
 44112  1  0  0  0
 45 46  2  0  0  0
 45113  1  0  0  0
 46114  1  0  0  0
 47115  1  0  0  0
 47116  1  0  0  0
 48 56  1  0  0  0
 48 65  1  0  0  0
 48117  1  0  0  0
 49 50  1  0  0  0
 49 53  1  0  0  0
 49 64  1  0  0  0
 49118  1  0  0  0
 50 51  1  0  0  0
 50119  1  0  0  0
 50120  1  0  0  0
 51 52  1  0  0  0
 51121  1  0  0  0
 51122  1  0  0  0
 52123  1  0  0  0
 52124  1  0  0  0
 53 54  1  0  0  0
 54 55  2  0  0  0
 54125  1  0  0  0
 55 57  1  0  0  0
 55126  1  0  0  0
 56 69  2  0  0  0
 57 58  2  0  0  0
 57127  1  0  0  0
 58128  1  0  0  0
 59 60  1  0  0  0
 59 61  1  0  0  0
 59 62  1  0  0  0
 60129  1  0  0  0
 60130  1  0  0  0
 60131  1  0  0  0
 61132  1  0  0  0
 61133  1  0  0  0
 61134  1  0  0  0
 62135  1  0  0  0
 62136  1  0  0  0
 62137  1  0  0  0
 63 65  1  0  0  0
 63138  1  0  0  0
 63139  1  0  0  0
 63140  1  0  0  0
 64141  1  0  0  0
 65142  1  0  0  0
 68 80  1  0  0  0
 71 73  2  0  0  0
 71 75  1  0  0  0
 71143  1  0  0  0
 72 74  2  0  0  0
 72 76  1  0  0  0
 72144  1  0  0  0
 73 74  1  0  0  0
 73 77  1  0  0  0
 74 78  1  0  0  0
 75 76  2  0  0  0
 75 79  1  0  0  0
 76 80  1  0  0  0
 77145  1  0  0  0
 77146  1  0  0  0
 77147  1  0  0  0
 78148  1  0  0  0
 78149  1  0  0  0
 78150  1  0  0  0
 79 81  1  0  0  0
 79151  1  0  0  0
 79152  1  0  0  0
 80153  1  0  0  0
 80154  1  0  0  0
 81 82  1  0  0  0
 81155  1  0  0  0
 81156  1  0  0  0
 82 83  1  0  0  0
 82157  1  0  0  0
 82158  1  0  0  0
 83159  1  0  0  0
M  ISO  4   1 100  68 101  80 101  83 100
M  END
> <chiral flag>
0

> <version>
0

> <s_m_source_file>
/data/baiqing/PycharmProjects/Reinvent-master-3.2/result/LINK_invent/BTK/process_docking_weight1_custom_sum_contain_oxygen_bond_distance_aromatic_linkinvent_7_9_3/rearranged_h_0032.sdf

> <i_m_source_file_index>
79

> <r_mmod_Potential_Energy-OPLS-2005>
728.576171875

> <r_mmod_Stretch_Energy-OPLS-2005>
336.929809570312

> <r_mmod_Bend_Energy-OPLS-2005>
386.453430175781

> <r_mmod_Torsional_Energy-OPLS-2005>
231.665451049805

> <r_mmod_Improper_Torsional_Energy-OPLS-2005>
5.80523109436035

> <r_mmod_Van_der_Waal_Energy-OPLS-2005>
137.387420654297

> <r_mmod_Electrostatic_Energy-OPLS-2005>
-370.890594482422

> <r_mmod_Solvation_Energy-OPLS-2005>
-209.393814086914

> <b_mmod_Minimization_Converged-OPLS-2005>
0

> <r_mmod_RMS_Derivative-OPLS-2005>
1.0506340265274

$$$$
79
                    3D
 Structure written by MMmdl.
151159  0  0  1  0            999 V2000
  -30.5520  -14.8024   20.5104 C   0  0  0  0  0  0
  -30.4514  -12.5019   19.4725 C   0  0  0  0  0  0
  -29.5192  -12.5420   18.2394 C   0  0  0  0  0  0
  -28.0444  -12.3507   18.6481 C   0  0  0  0  0  0
  -27.6493  -13.2297   19.8637 C   0  0  2  0  0  0
  -28.6955  -13.1214   20.9942 C   0  0  0  0  0  0
  -25.2530  -13.8176   20.5695 C   0  0  0  0  0  0
  -24.1815  -13.0434   20.9207 C   0  0  0  0  0  0
  -24.6406  -11.6906   20.8740 C   0  0  0  0  0  0
  -23.9085  -10.4284   21.0404 C   0  0  0  0  0  0
  -24.3629   -9.4197   21.9184 C   0  0  0  0  0  0
  -23.6288   -8.2240   22.0761 C   0  0  0  0  0  0
  -22.4271   -8.0282   21.3553 C   0  0  0  0  0  0
  -21.9913   -9.0265   20.4662 C   0  0  0  0  0  0
  -22.7249  -10.2134   20.3065 C   0  0  0  0  0  0
  -21.6859   -6.0731   22.5272 C   0  0  0  0  0  0
  -21.4019   -6.5634   23.8209 C   0  0  0  0  0  0
  -21.3667   -5.6782   24.9167 C   0  0  0  0  0  0
  -21.6049   -4.3043   24.7225 C   0  0  0  0  0  0
  -21.8817   -3.8147   23.4345 C   0  0  0  0  0  0
  -21.9198   -4.6960   22.3396 C   0  0  0  0  0  0
  -22.7829  -13.5216   21.1855 C   0  0  0  0  0  0
  -22.1655   -4.2145   21.0975 F   0  0  0  0  0  0
  -21.5642   -3.4530   25.7740 F   0  0  0  0  0  0
  -29.9878  -13.5382   20.4298 N   0  0  0  0  0  0
  -26.2981  -12.9385   20.3336 N   0  0  0  0  0  0
  -25.9347  -11.6532   20.5773 N   0  0  0  0  0  0
  -22.0487  -12.8222   22.0420 N   0  0  0  0  0  0
  -25.4219  -15.1901   20.4042 N   0  0  0  0  0  0
  -31.6925  -14.9559   20.0575 O   0  0  0  0  0  0
  -21.6642   -6.8875   21.4233 O   0  0  0  0  0  0
  -22.3506  -14.5516   20.6693 O   0  0  0  0  0  0
  -24.6371  -31.8501   23.1955 C   0  0  0  0  0  0
  -25.9169  -32.4731   23.8314 C   0  0  1  0  0  0
  -27.2074  -27.2069   20.1204 C   0  0  0  0  0  0
  -25.5944  -33.8528   24.2233 N   0  0  0  0  0  0
  -23.4372  -30.4746   21.5408 C   0  0  2  0  0  0
  -24.8819  -28.9185   20.1077 C   0  0  0  0  0  0
  -22.7532  -29.4582   22.4894 C   0  0  0  0  0  0
  -18.0299  -28.1391   22.8497 C   0  0  0  0  0  0
  -24.1491  -36.7281   23.2639 C   0  0  0  0  0  0
  -25.9895  -30.7440   21.3856 C   0  0  0  0  0  0
  -26.0581  -29.3638   20.7238 C   0  0  0  0  0  0
  -27.2236  -28.5199   20.7216 C   0  0  0  0  0  0
  -26.0081  -26.8553   19.4610 C   0  0  0  0  0  0
  -24.8650  -27.6750   19.4638 C   0  0  0  0  0  0
  -23.6575  -29.8119   20.1576 C   0  0  0  0  0  0
  -25.4121  -36.3057   24.0321 C   0  0  1  0  0  0
  -20.5904  -28.3711   23.1257 C   0  0  2  0  0  0
  -20.6783  -26.9427   22.5400 C   0  0  0  0  0  0
  -19.5756  -26.6385   21.5215 C   0  0  0  0  0  0
  -18.1943  -26.7930   22.1632 C   0  0  0  0  0  0
  -19.1553  -28.8870   23.2871 C   0  0  0  0  0  0
  -18.9471  -30.1468   23.8893 C   0  0  0  0  0  0
  -17.6466  -30.6591   24.0563 C   0  0  0  0  0  0
  -25.9066  -34.9429   23.5083 C   0  0  0  0  0  0
  -16.5361  -29.9088   23.6333 C   0  0  0  0  0  0
  -16.7282  -28.6500   23.0369 C   0  0  0  0  0  0
  -26.4507  -31.6571   25.0732 C   0  0  0  0  0  0
  -25.3715  -31.3741   26.1449 C   0  0  0  0  0  0
  -27.0352  -30.2975   24.6265 C   0  0  0  0  0  0
  -27.6060  -32.4321   25.7501 C   0  0  0  0  0  0
  -27.5584  -37.1797   24.8464 C   0  0  0  0  0  0
  -21.4230  -29.3050   22.3634 N   0  0  0  0  0  0
  -26.4297  -37.3761   23.9406 N   0  0  0  0  0  0
  -24.7079  -31.0414   22.0962 N   0  0  0  0  0  0
  -23.4206  -28.8130   23.3021 O   0  0  0  0  0  0
  -28.2683  -26.2515   20.1877 O   0  0  0  0  0  0
  -26.5644  -34.8905   22.4662 O   0  0  0  0  0  0
  -23.5512  -32.1337   23.7233 O   0  0  0  0  0  0
  -28.5047  -18.0005   19.8712 C   0  0  0  0  0  0
  -30.0394  -20.1029   20.8704 C   0  0  0  0  0  0
  -29.6415  -17.5966   20.6298 C   0  0  0  0  0  0
  -28.8615  -20.4929   20.1615 C   0  0  0  0  0  0
  -28.1305  -19.3711   19.6545 C   0  0  0  0  0  0
  -30.4088  -18.7187   21.1045 C   0  0  0  0  0  0
  -29.7925  -16.0759   21.1797 C   0  0  0  0  0  0
  -28.2562  -21.9810   19.9365 C   0  0  0  0  0  0
  -28.8782  -23.4543   20.2932 C   0  0  0  0  0  0
  -27.9640  -24.7764   19.9279 C   0  0  0  0  0  0
  -26.9869  -19.6057   18.9666 F   0  0  0  0  0  0
  -31.8047  -18.4240   22.0764 Cl  0  0  0  0  0  0
  -31.4862  -12.6606   19.1641 H   0  0  0  0  0  0
  -30.4323  -11.5157   19.9389 H   0  0  0  0  0  0
  -29.8123  -11.7780   17.5179 H   0  0  0  0  0  0
  -29.6343  -13.5022   17.7330 H   0  0  0  0  0  0
  -27.9027  -11.2975   18.8924 H   0  0  0  0  0  0
  -27.3883  -12.5578   17.8019 H   0  0  0  0  0  0
  -27.6543  -14.2615   19.5106 H   0  0  0  0  0  0
  -28.7537  -12.0970   21.3656 H   0  0  0  0  0  0
  -28.4107  -13.7195   21.8585 H   0  0  0  0  0  0
  -25.2785   -9.5652   22.4749 H   0  0  0  0  0  0
  -24.0008   -7.4622   22.7471 H   0  0  0  0  0  0
  -21.0856   -8.8789   19.8955 H   0  0  0  0  0  0
  -22.3729  -10.9678   19.6177 H   0  0  0  0  0  0
  -21.2000   -7.6138   23.9703 H   0  0  0  0  0  0
  -21.1499   -6.0519   25.9069 H   0  0  0  0  0  0
  -22.0596   -2.7610   23.2848 H   0  0  0  0  0  0
  -22.4107  -11.9888   22.4820 H   0  0  0  0  0  0
  -21.1113  -13.1262   22.2629 H   0  0  0  0  0  0
  -24.6514  -15.8431   20.4958 H   0  0  0  0  0  0
  -26.2635  -15.6218   20.0484 H   0  0  0  0  0  0
  -26.7249  -32.5352   23.1055 H   0  0  0  0  0  0
  -25.0043  -33.9645   25.0351 H   0  0  0  0  0  0
  -22.7378  -31.3003   21.3935 H   0  0  0  0  0  0
  -23.3748  -35.9618   23.3286 H   0  0  0  0  0  0
  -24.3585  -36.8918   22.2057 H   0  0  0  0  0  0
  -23.7244  -37.6477   23.6678 H   0  0  0  0  0  0
  -26.1369  -31.5034   20.6170 H   0  0  0  0  0  0
  -26.8631  -30.7907   22.0236 H   0  0  0  0  0  0
  -28.1197  -28.8504   21.2271 H   0  0  0  0  0  0
  -25.9105  -25.9123   18.9456 H   0  0  0  0  0  0
  -23.9669  -27.3342   18.9666 H   0  0  0  0  0  0
  -23.7871  -30.5869   19.4011 H   0  0  0  0  0  0
  -22.7745  -29.2483   19.8508 H   0  0  0  0  0  0
  -25.1307  -36.1893   25.0816 H   0  0  0  0  0  0
  -20.9999  -28.3290   24.1376 H   0  0  0  0  0  0
  -20.5694  -26.2326   23.3612 H   0  0  0  0  0  0
  -21.6653  -26.7460   22.1190 H   0  0  0  0  0  0
  -19.6918  -25.6291   21.1266 H   0  0  0  0  0  0
  -19.6679  -27.3181   20.6736 H   0  0  0  0  0  0
  -17.4203  -26.6677   21.4043 H   0  0  0  0  0  0
  -18.0352  -26.0077   22.9035 H   0  0  0  0  0  0
  -19.7936  -30.7298   24.2266 H   0  0  0  0  0  0
  -17.5010  -31.6273   24.5159 H   0  0  0  0  0  0
  -15.5360  -30.2992   23.7647 H   0  0  0  0  0  0
  -15.8682  -28.0815   22.7100 H   0  0  0  0  0  0
  -24.5838  -30.7172   25.7740 H   0  0  0  0  0  0
  -24.8985  -32.2931   26.4925 H   0  0  0  0  0  0
  -25.7999  -30.8831   27.0198 H   0  0  0  0  0  0
  -26.2944  -29.6717   24.1275 H   0  0  0  0  0  0
  -27.3975  -29.7250   25.4811 H   0  0  0  0  0  0
  -27.8854  -30.4212   23.9556 H   0  0  0  0  0  0
  -27.2653  -33.3601   26.2103 H   0  0  0  0  0  0
  -28.3847  -32.6914   25.0317 H   0  0  0  0  0  0
  -28.0763  -31.8441   26.5392 H   0  0  0  0  0  0
  -28.2593  -38.0100   24.7519 H   0  0  0  0  0  0
  -28.1089  -36.2632   24.6281 H   0  0  0  0  0  0
  -27.2313  -37.1440   25.8869 H   0  0  0  0  0  0
  -20.9430  -29.8762   21.6817 H   0  0  0  0  0  0
  -26.0164  -38.2835   24.1397 H   0  0  0  0  0  0
  -27.8355  -17.2392   19.4964 H   0  0  0  0  0  0
  -30.6620  -20.8794   21.2899 H   0  0  0  0  0  0
  -28.7681  -15.7746   21.3846 H   0  0  0  0  0  0
  -30.2366  -16.1590   22.1708 H   0  0  0  0  0  0
  -27.2901  -21.9468   20.4424 H   0  0  0  0  0  0
  -27.9921  -22.0192   18.8784 H   0  0  0  0  0  0
  -29.8359  -23.5468   19.7818 H   0  0  0  0  0  0
  -29.1058  -23.4756   21.3586 H   0  0  0  0  0  0
  -27.0008  -24.5738   20.3982 H   0  0  0  0  0  0
  -27.7855  -24.7066   18.8545 H   0  0  0  0  0  0
  1 25  1  0  0  0
  1 30  2  0  0  0
  1 77  1  0  0  0
  2  3  1  0  0  0
  2 25  1  0  0  0
  2 83  1  0  0  0
  2 84  1  0  0  0
  3  4  1  0  0  0
  3 85  1  0  0  0
  3 86  1  0  0  0
  4  5  1  0  0  0
  4 87  1  0  0  0
  4 88  1  0  0  0
  5  6  1  0  0  0
  5 26  1  0  0  0
  5 89  1  0  0  0
  6 25  1  0  0  0
  6 90  1  0  0  0
  6 91  1  0  0  0
  7  8  2  0  0  0
  7 26  1  0  0  0
  7 29  1  0  0  0
  8  9  1  0  0  0
  8 22  1  0  0  0
  9 10  1  0  0  0
  9 27  2  0  0  0
 10 11  2  0  0  0
 10 15  1  0  0  0
 11 12  1  0  0  0
 11 92  1  0  0  0
 12 13  2  0  0  0
 12 93  1  0  0  0
 13 14  1  0  0  0
 13 31  1  0  0  0
 14 15  2  0  0  0
 14 94  1  0  0  0
 15 95  1  0  0  0
 16 17  2  0  0  0
 16 21  1  0  0  0
 16 31  1  0  0  0
 17 18  1  0  0  0
 17 96  1  0  0  0
 18 19  2  0  0  0
 18 97  1  0  0  0
 19 20  1  0  0  0
 19 24  1  0  0  0
 20 21  2  0  0  0
 20 98  1  0  0  0
 21 23  1  0  0  0
 22 28  1  0  0  0
 22 32  2  0  0  0
 26 27  1  0  0  0
 28 99  1  0  0  0
 28100  1  0  0  0
 29101  1  0  0  0
 29102  1  0  0  0
 33 34  1  0  0  0
 33 66  1  0  0  0
 33 70  2  0  0  0
 34 36  1  0  0  0
 34 59  1  0  0  0
 34103  1  0  0  0
 35 44  2  0  0  0
 35 45  1  0  0  0
 35 68  1  0  0  0
 36 56  1  0  0  0
 36104  1  0  0  0
 37 39  1  0  0  0
 37 47  1  0  0  0
 37 66  1  0  0  0
 37105  1  0  0  0
 38 43  2  0  0  0
 38 46  1  0  0  0
 38 47  1  0  0  0
 39 64  1  0  0  0
 39 67  2  0  0  0
 40 52  1  0  0  0
 40 53  2  0  0  0
 40 58  1  0  0  0
 41106  1  0  0  0
 41107  1  0  0  0
 41108  1  0  0  0
 41 48  1  0  0  0
 42 43  1  0  0  0
 42 66  1  0  0  0
 42109  1  0  0  0
 42110  1  0  0  0
 43 44  1  0  0  0
 44111  1  0  0  0
 45 46  2  0  0  0
 45112  1  0  0  0
 46113  1  0  0  0
 47114  1  0  0  0
 47115  1  0  0  0
 48 56  1  0  0  0
 48 65  1  0  0  0
 48116  1  0  0  0
 49 50  1  0  0  0
 49 53  1  0  0  0
 49 64  1  0  0  0
 49117  1  0  0  0
 50 51  1  0  0  0
 50118  1  0  0  0
 50119  1  0  0  0
 51 52  1  0  0  0
 51120  1  0  0  0
 51121  1  0  0  0
 52122  1  0  0  0
 52123  1  0  0  0
 53 54  1  0  0  0
 54 55  2  0  0  0
 54124  1  0  0  0
 55 57  1  0  0  0
 55125  1  0  0  0
 56 69  2  0  0  0
 57 58  2  0  0  0
 57126  1  0  0  0
 58127  1  0  0  0
 59 60  1  0  0  0
 59 61  1  0  0  0
 59 62  1  0  0  0
 60128  1  0  0  0
 60129  1  0  0  0
 60130  1  0  0  0
 61131  1  0  0  0
 61132  1  0  0  0
 61133  1  0  0  0
 62134  1  0  0  0
 62135  1  0  0  0
 62136  1  0  0  0
 63 65  1  0  0  0
 63137  1  0  0  0
 63138  1  0  0  0
 63139  1  0  0  0
 64140  1  0  0  0
 65141  1  0  0  0
 68 80  1  0  0  0
 71 73  2  0  0  0
 71 75  1  0  0  0
 71142  1  0  0  0
 72 74  1  0  0  0
 72 76  2  0  0  0
 72143  1  0  0  0
 73 76  1  0  0  0
 73 77  1  0  0  0
 74 75  2  0  0  0
 74 78  1  0  0  0
 75 81  1  0  0  0
 76 82  1  0  0  0
 77144  1  0  0  0
 77145  1  0  0  0
 78 79  1  0  0  0
 78146  1  0  0  0
 78147  1  0  0  0
 79 80  1  0  0  0
 79148  1  0  0  0
 79149  1  0  0  0
 80150  1  0  0  0
 80151  1  0  0  0
M  ISO  4   1 100  68 101  77 100  80 101
M  END
> <chiral flag>
0

> <version>
0

> <s_m_source_file>
/data/baiqing/PycharmProjects/Reinvent-master-3.2/result/LINK_invent/BTK/process_docking_weight1_custom_sum_contain_oxygen_bond_distance_aromatic_linkinvent_7_9_3/rearranged_h_0032.sdf

> <i_m_source_file_index>
80

> <r_mmod_Potential_Energy-OPLS-2005>
318.304626464844

> <r_mmod_Stretch_Energy-OPLS-2005>
163.940216064453

> <r_mmod_Bend_Energy-OPLS-2005>
231.847122192383

> <r_mmod_Torsional_Energy-OPLS-2005>
176.6259765625

> <r_mmod_Improper_Torsional_Energy-OPLS-2005>
4.9701042175293

> <r_mmod_Van_der_Waal_Energy-OPLS-2005>
136.189880371094

> <r_mmod_Electrostatic_Energy-OPLS-2005>
-317.3720703125

> <r_mmod_Solvation_Energy-OPLS-2005>
-194.660232543945

> <b_mmod_Minimization_Converged-OPLS-2005>
0

> <r_mmod_RMS_Derivative-OPLS-2005>
2.06196188926697

$$$$
80
                    3D
 Structure written by MMmdl.
176184  0  0  1  0            999 V2000
  -30.6983  -14.4112   20.5381 C   0  0  0  0  0  0
  -30.4059  -12.2493   19.4132 C   0  0  0  0  0  0
  -29.4939  -12.5213   18.2004 C   0  0  0  0  0  0
  -28.0049  -12.4135   18.5951 C   0  0  0  0  0  0
  -27.6648  -13.2088   19.8832 C   0  0  2  0  0  0
  -28.7064  -12.9436   20.9968 C   0  0  0  0  0  0
  -25.2615  -13.8141   20.5682 C   0  0  0  0  0  0
  -24.1858  -13.0409   20.9139 C   0  0  0  0  0  0
  -24.6366  -11.6875   20.8646 C   0  0  0  0  0  0
  -23.8994  -10.4264   21.0295 C   0  0  0  0  0  0
  -24.3553   -9.4213   21.9122 C   0  0  0  0  0  0
  -23.6288   -8.2218   22.0728 C   0  0  0  0  0  0
  -22.4281   -8.0200   21.3514 C   0  0  0  0  0  0
  -21.9838   -9.0153   20.4611 C   0  0  0  0  0  0
  -22.7108  -10.2075   20.3005 C   0  0  0  0  0  0
  -21.6858   -6.0677   22.5259 C   0  0  0  0  0  0
  -21.4003   -6.5622   23.8161 C   0  0  0  0  0  0
  -21.3686   -5.6816   24.9143 C   0  0  0  0  0  0
  -21.6066   -4.3082   24.7210 C   0  0  0  0  0  0
  -21.8835   -3.8115   23.4337 C   0  0  0  0  0  0
  -21.9194   -4.6916   22.3367 C   0  0  0  0  0  0
  -22.7872  -13.5201   21.1826 C   0  0  0  0  0  0
  -22.1673   -4.2083   21.0954 F   0  0  0  0  0  0
  -21.5628   -3.4569   25.7729 F   0  0  0  0  0  0
  -30.0409  -13.2278   20.4474 N   0  0  0  0  0  0
  -26.3048  -12.9310   20.3378 N   0  0  0  0  0  0
  -25.9312  -11.6452   20.5702 N   0  0  0  0  0  0
  -22.0542  -12.8182   22.0389 N   0  0  0  0  0  0
  -25.4373  -15.1841   20.4065 N   0  0  0  0  0  0
  -31.8206  -14.6093   20.0705 O   0  0  0  0  0  0
  -21.6665   -6.8812   21.4200 O   0  0  0  0  0  0
  -22.3549  -14.5514   20.6690 O   0  0  0  0  0  0
  -24.6104  -31.8724   23.2109 C   0  0  0  0  0  0
  -25.9018  -32.4844   23.8395 C   0  0  1  0  0  0
  -27.2502  -27.4794   20.0965 C   0  0  0  0  0  0
  -25.5887  -33.8631   24.2330 N   0  0  0  0  0  0
  -23.3955  -30.4928   21.5502 C   0  0  2  0  0  0
  -24.8450  -28.9519   20.1262 C   0  0  0  0  0  0
  -22.7379  -29.4683   22.5012 C   0  0  0  0  0  0
  -18.0270  -28.1393   22.8487 C   0  0  0  0  0  0
  -24.1489  -36.7311   23.2637 C   0  0  0  0  0  0
  -25.9170  -30.8506   21.3535 C   0  0  0  0  0  0
  -25.9994  -29.4823   20.7133 C   0  0  0  0  0  0
  -27.2062  -28.7555   20.6921 C   0  0  0  0  0  0
  -26.0792  -26.9411   19.5223 C   0  0  0  0  0  0
  -24.8768  -27.6754   19.5332 C   0  0  0  0  0  0
  -23.6039  -29.8154   20.1688 C   0  0  0  0  0  0
  -25.4109  -36.3115   24.0340 C   0  0  1  0  0  0
  -20.5858  -28.3665   23.1339 C   0  0  2  0  0  0
  -20.6762  -26.9410   22.5429 C   0  0  0  0  0  0
  -19.5750  -26.6400   21.5223 C   0  0  0  0  0  0
  -18.1923  -26.7942   22.1617 C   0  0  0  0  0  0
  -19.1515  -28.8841   23.2911 C   0  0  0  0  0  0
  -18.9447  -30.1448   23.8919 C   0  0  0  0  0  0
  -17.6449  -30.6598   24.0570 C   0  0  0  0  0  0
  -25.9034  -34.9490   23.5137 C   0  0  0  0  0  0
  -16.5339  -29.9101   23.6329 C   0  0  0  0  0  0
  -16.7260  -28.6521   23.0343 C   0  0  0  0  0  0
  -26.4457  -31.6591   25.0699 C   0  0  0  0  0  0
  -25.3713  -31.3678   26.1436 C   0  0  0  0  0  0
  -27.0296  -30.3050   24.6025 C   0  0  0  0  0  0
  -27.6056  -32.4285   25.7446 C   0  0  0  0  0  0
  -27.5586  -37.1808   24.8458 C   0  0  0  0  0  0
  -21.4114  -29.3043   22.3756 N   0  0  0  0  0  0
  -26.4291  -37.3803   23.9418 N   0  0  0  0  0  0
  -24.6594  -31.0863   22.0976 N   0  0  0  0  0  0
  -23.4182  -28.8253   23.3067 O   0  0  0  0  0  0
  -28.4551  -26.8314   20.0155 O   0  0  0  0  0  0
  -26.5609  -34.8934   22.4703 O   0  0  0  0  0  0
  -23.5311  -32.1447   23.7532 O   0  0  0  0  0  0
  -31.5183  -23.5693   19.1377 C   0  0  0  0  0  0
  -30.2223  -24.1431   19.2398 C   0  0  0  0  0  0
  -32.4765  -23.8751   20.1419 C   0  0  0  0  0  0
  -29.9160  -24.9293   20.3762 C   0  0  0  0  0  0
  -32.0819  -24.7187   21.2054 C   0  0  0  0  0  0
  -29.1811  -23.9094   18.1432 C   0  0  0  0  0  0
  -33.0326  -25.1347   22.3170 C   0  0  0  0  0  0
  -34.8439  -24.2146   19.2716 C   0  0  0  0  0  0
  -31.8365  -22.5860   18.0045 C   0  0  0  0  0  0
  -33.9014  -23.3173   20.0902 C   0  0  0  0  0  0
  -28.5366  -25.5465   20.6190 C   0  0  0  0  0  0
  -31.4524  -21.1482   18.4033 C   0  0  0  0  0  0
  -31.1228  -20.2140   17.2224 C   0  0  0  0  0  0
  -30.8999  -18.7487   17.6511 C   0  0  0  0  0  0
  -29.8163  -18.5644   18.7350 C   0  0  0  0  0  0
  -29.6197  -17.1023   19.1720 C   0  0  0  0  0  0
  -30.1803  -16.8224   20.5872 C   0  0  0  0  0  0
  -30.8345  -25.2088   21.3223 N   0  0  0  0  0  0
  -29.9439  -15.4330   20.9678 N   0  0  0  0  0  0
  -31.4574  -12.3051   19.1254 H   0  0  0  0  0  0
  -30.2503  -11.2347   19.7842 H   0  0  0  0  0  0
  -29.7170  -11.8350   17.3818 H   0  0  0  0  0  0
  -29.6982  -13.5253   17.8210 H   0  0  0  0  0  0
  -27.7622  -11.3605   18.7338 H   0  0  0  0  0  0
  -27.3764  -12.7667   17.7734 H   0  0  0  0  0  0
  -27.7203  -14.2649   19.6246 H   0  0  0  0  0  0
  -28.6644  -11.8991   21.3118 H   0  0  0  0  0  0
  -28.4897  -13.5340   21.8882 H   0  0  0  0  0  0
  -25.2643   -9.5768   22.4727 H   0  0  0  0  0  0
  -24.0002   -7.4655   22.7514 H   0  0  0  0  0  0
  -21.0725   -8.8598   19.8984 H   0  0  0  0  0  0
  -22.3440  -10.9580   19.6159 H   0  0  0  0  0  0
  -21.2010   -7.6152   23.9618 H   0  0  0  0  0  0
  -21.1514   -6.0566   25.9050 H   0  0  0  0  0  0
  -22.0601   -2.7576   23.2846 H   0  0  0  0  0  0
  -22.4203  -11.9801   22.4683 H   0  0  0  0  0  0
  -21.1172  -13.1189   22.2701 H   0  0  0  0  0  0
  -24.6727  -15.8463   20.4878 H   0  0  0  0  0  0
  -26.2998  -15.6057   20.0801 H   0  0  0  0  0  0
  -26.7089  -32.5586   23.1166 H   0  0  0  0  0  0
  -25.0013  -33.9781   25.0457 H   0  0  0  0  0  0
  -22.6806  -31.3078   21.4109 H   0  0  0  0  0  0
  -23.3755  -35.9640   23.3303 H   0  0  0  0  0  0
  -24.3583  -36.8915   22.2052 H   0  0  0  0  0  0
  -23.7227  -37.6512   23.6640 H   0  0  0  0  0  0
  -26.0148  -31.6123   20.5791 H   0  0  0  0  0  0
  -26.8098  -30.9154   21.9634 H   0  0  0  0  0  0
  -28.1016  -29.1768   21.1270 H   0  0  0  0  0  0
  -26.1005  -25.9725   19.0436 H   0  0  0  0  0  0
  -23.9880  -27.2593   19.0806 H   0  0  0  0  0  0
  -23.7085  -30.5867   19.4048 H   0  0  0  0  0  0
  -22.7282  -29.2311   19.8782 H   0  0  0  0  0  0
  -25.1281  -36.1977   25.0832 H   0  0  0  0  0  0
  -20.9939  -28.3245   24.1468 H   0  0  0  0  0  0
  -20.5696  -26.2283   23.3613 H   0  0  0  0  0  0
  -21.6636  -26.7492   22.1220 H   0  0  0  0  0  0
  -19.6924  -25.6321   21.1244 H   0  0  0  0  0  0
  -19.6707  -27.3223   20.6767 H   0  0  0  0  0  0
  -17.4212  -26.6703   21.4005 H   0  0  0  0  0  0
  -18.0311  -26.0077   22.9005 H   0  0  0  0  0  0
  -19.7923  -30.7262   24.2304 H   0  0  0  0  0  0
  -17.5008  -31.6284   24.5173 H   0  0  0  0  0  0
  -15.5339  -30.3014   23.7647 H   0  0  0  0  0  0
  -15.8655  -28.0857   22.7031 H   0  0  0  0  0  0
  -24.5895  -30.7028   25.7733 H   0  0  0  0  0  0
  -24.8897  -32.2837   26.4875 H   0  0  0  0  0  0
  -25.8054  -30.8827   27.0188 H   0  0  0  0  0  0
  -26.2841  -29.6800   24.1096 H   0  0  0  0  0  0
  -27.4121  -29.7275   25.4451 H   0  0  0  0  0  0
  -27.8637  -30.4394   23.9132 H   0  0  0  0  0  0
  -27.2709  -33.3580   26.2053 H   0  0  0  0  0  0
  -28.3848  -32.6836   25.0252 H   0  0  0  0  0  0
  -28.0740  -31.8378   26.5323 H   0  0  0  0  0  0
  -28.2595  -38.0118   24.7540 H   0  0  0  0  0  0
  -28.1096  -36.2656   24.6241 H   0  0  0  0  0  0
  -27.2321  -37.1403   25.8864 H   0  0  0  0  0  0
  -20.9278  -29.8715   21.6916 H   0  0  0  0  0  0
  -26.0184  -38.2880   24.1423 H   0  0  0  0  0  0
  -29.5875  -24.1791   17.1688 H   0  0  0  0  0  0
  -28.2840  -24.5154   18.2499 H   0  0  0  0  0  0
  -28.8713  -22.8641   18.1171 H   0  0  0  0  0  0
  -33.9674  -25.5186   21.9091 H   0  0  0  0  0  0
  -33.2557  -24.2884   22.9672 H   0  0  0  0  0  0
  -32.6045  -25.9245   22.9368 H   0  0  0  0  0  0
  -35.8509  -23.7965   19.2472 H   0  0  0  0  0  0
  -34.9156  -25.2147   19.7006 H   0  0  0  0  0  0
  -34.5065  -24.3290   18.2422 H   0  0  0  0  0  0
  -32.8848  -22.6378   17.7150 H   0  0  0  0  0  0
  -31.3121  -22.8682   17.0947 H   0  0  0  0  0  0
  -33.9021  -22.3062   19.6844 H   0  0  0  0  0  0
  -34.3052  -23.1916   21.0947 H   0  0  0  0  0  0
  -28.3740  -25.6570   21.6912 H   0  0  0  0  0  0
  -27.7451  -24.8795   20.2806 H   0  0  0  0  0  0
  -30.5539  -21.2159   19.0172 H   0  0  0  0  0  0
  -32.2259  -20.7176   19.0400 H   0  0  0  0  0  0
  -31.9256  -20.2501   16.4834 H   0  0  0  0  0  0
  -30.2278  -20.5741   16.7143 H   0  0  0  0  0  0
  -31.8445  -18.3325   18.0010 H   0  0  0  0  0  0
  -30.6225  -18.1725   16.7659 H   0  0  0  0  0  0
  -28.8734  -18.9573   18.3550 H   0  0  0  0  0  0
  -30.0607  -19.1535   19.6204 H   0  0  0  0  0  0
  -30.0709  -16.4270   18.4408 H   0  0  0  0  0  0
  -28.5511  -16.8726   19.1610 H   0  0  0  0  0  0
  -29.6882  -17.4638   21.3159 H   0  0  0  0  0  0
  -31.2465  -17.0616   20.6406 H   0  0  0  0  0  0
  -29.0391  -15.2062   21.3551 H   0  0  0  0  0  0
  1 25  1  0  0  0
  1 30  2  0  0  0
  1 89  1  0  0  0
  2  3  1  0  0  0
  2 25  1  0  0  0
  2 90  1  0  0  0
  2 91  1  0  0  0
  3  4  1  0  0  0
  3 92  1  0  0  0
  3 93  1  0  0  0
  4  5  1  0  0  0
  4 94  1  0  0  0
  4 95  1  0  0  0
  5  6  1  0  0  0
  5 26  1  0  0  0
  5 96  1  0  0  0
  6 25  1  0  0  0
  6 97  1  0  0  0
  6 98  1  0  0  0
  7  8  2  0  0  0
  7 26  1  0  0  0
  7 29  1  0  0  0
  8  9  1  0  0  0
  8 22  1  0  0  0
  9 10  1  0  0  0
  9 27  2  0  0  0
 10 11  2  0  0  0
 10 15  1  0  0  0
 11 12  1  0  0  0
 11 99  1  0  0  0
 12 13  2  0  0  0
 12100  1  0  0  0
 13 14  1  0  0  0
 13 31  1  0  0  0
 14 15  2  0  0  0
 14101  1  0  0  0
 15102  1  0  0  0
 16 17  2  0  0  0
 16 21  1  0  0  0
 16 31  1  0  0  0
 17 18  1  0  0  0
 17103  1  0  0  0
 18 19  2  0  0  0
 18104  1  0  0  0
 19 20  1  0  0  0
 19 24  1  0  0  0
 20 21  2  0  0  0
 20105  1  0  0  0
 21 23  1  0  0  0
 22 28  1  0  0  0
 22 32  2  0  0  0
 26 27  1  0  0  0
 28106  1  0  0  0
 28107  1  0  0  0
 29108  1  0  0  0
 29109  1  0  0  0
 33 34  1  0  0  0
 33 66  1  0  0  0
 33 70  2  0  0  0
 34 36  1  0  0  0
 34 59  1  0  0  0
 34110  1  0  0  0
 35 44  2  0  0  0
 35 45  1  0  0  0
 35 68  1  0  0  0
 36 56  1  0  0  0
 36111  1  0  0  0
 37 39  1  0  0  0
 37 47  1  0  0  0
 37 66  1  0  0  0
 37112  1  0  0  0
 38 43  2  0  0  0
 38 46  1  0  0  0
 38 47  1  0  0  0
 39 64  1  0  0  0
 39 67  2  0  0  0
 40 52  1  0  0  0
 40 53  2  0  0  0
 40 58  1  0  0  0
 41113  1  0  0  0
 41114  1  0  0  0
 41115  1  0  0  0
 41 48  1  0  0  0
 42 43  1  0  0  0
 42 66  1  0  0  0
 42116  1  0  0  0
 42117  1  0  0  0
 43 44  1  0  0  0
 44118  1  0  0  0
 45 46  2  0  0  0
 45119  1  0  0  0
 46120  1  0  0  0
 47121  1  0  0  0
 47122  1  0  0  0
 48 56  1  0  0  0
 48 65  1  0  0  0
 48123  1  0  0  0
 49 50  1  0  0  0
 49 53  1  0  0  0
 49 64  1  0  0  0
 49124  1  0  0  0
 50 51  1  0  0  0
 50125  1  0  0  0
 50126  1  0  0  0
 51 52  1  0  0  0
 51127  1  0  0  0
 51128  1  0  0  0
 52129  1  0  0  0
 52130  1  0  0  0
 53 54  1  0  0  0
 54 55  2  0  0  0
 54131  1  0  0  0
 55 57  1  0  0  0
 55132  1  0  0  0
 56 69  2  0  0  0
 57 58  2  0  0  0
 57133  1  0  0  0
 58134  1  0  0  0
 59 60  1  0  0  0
 59 61  1  0  0  0
 59 62  1  0  0  0
 60135  1  0  0  0
 60136  1  0  0  0
 60137  1  0  0  0
 61138  1  0  0  0
 61139  1  0  0  0
 61140  1  0  0  0
 62141  1  0  0  0
 62142  1  0  0  0
 62143  1  0  0  0
 63 65  1  0  0  0
 63144  1  0  0  0
 63145  1  0  0  0
 63146  1  0  0  0
 64147  1  0  0  0
 65148  1  0  0  0
 68 81  1  0  0  0
 71 72  2  0  0  0
 71 73  1  0  0  0
 71 79  1  0  0  0
 72 74  1  0  0  0
 72 76  1  0  0  0
 73 75  2  0  0  0
 73 80  1  0  0  0
 74 81  1  0  0  0
 74 88  2  0  0  0
 75 77  1  0  0  0
 75 88  1  0  0  0
 76149  1  0  0  0
 76150  1  0  0  0
 76151  1  0  0  0
 77152  1  0  0  0
 77153  1  0  0  0
 77154  1  0  0  0
 78 80  1  0  0  0
 78155  1  0  0  0
 78156  1  0  0  0
 78157  1  0  0  0
 79 82  1  0  0  0
 79158  1  0  0  0
 79159  1  0  0  0
 80160  1  0  0  0
 80161  1  0  0  0
 81162  1  0  0  0
 81163  1  0  0  0
 82 83  1  0  0  0
 82164  1  0  0  0
 82165  1  0  0  0
 83 84  1  0  0  0
 83166  1  0  0  0
 83167  1  0  0  0
 84 85  1  0  0  0
 84168  1  0  0  0
 84169  1  0  0  0
 85 86  1  0  0  0
 85170  1  0  0  0
 85171  1  0  0  0
 86 87  1  0  0  0
 86172  1  0  0  0
 86173  1  0  0  0
 87 89  1  0  0  0
 87174  1  0  0  0
 87175  1  0  0  0
 89176  1  0  0  0
M  ISO  4   1 100  68 101  81 101  89 100
M  END
> <chiral flag>
0

> <version>
0

> <s_m_source_file>
/data/baiqing/PycharmProjects/Reinvent-master-3.2/result/LINK_invent/BTK/process_docking_weight1_custom_sum_contain_oxygen_bond_distance_aromatic_linkinvent_7_9_3/rearranged_h_0032.sdf

> <i_m_source_file_index>
81

> <r_mmod_Potential_Energy-OPLS-2005>
-165.361129760742

> <r_mmod_Stretch_Energy-OPLS-2005>
35.4821243286133

> <r_mmod_Bend_Energy-OPLS-2005>
93.9658584594727

> <r_mmod_Torsional_Energy-OPLS-2005>
242.267318725586

> <r_mmod_Improper_Torsional_Energy-OPLS-2005>
6.52438354492188

> <r_mmod_Van_der_Waal_Energy-OPLS-2005>
162.204116821289

> <r_mmod_Electrostatic_Energy-OPLS-2005>
-491.700347900391

> <r_mmod_Solvation_Energy-OPLS-2005>
-224.246398925781

> <b_mmod_Minimization_Converged-OPLS-2005>
0

> <r_mmod_RMS_Derivative-OPLS-2005>
4.92281579971313

$$$$
81
                    3D
 Structure written by MMmdl.
174182  0  0  1  0            999 V2000
  -30.6966  -15.3209   21.8765 C   0  0  0  0  0  0
  -30.0962  -15.6858   17.9060 C   0  0  0  0  0  0
  -29.0400  -14.1662   17.2431 C   0  0  0  0  0  0
  -27.9112  -13.1741   18.2841 C   0  0  0  0  0  0
  -27.5696  -13.4740   20.0110 C   0  0  2  0  0  0
  -28.5562  -14.4256   21.2540 C   0  0  0  0  0  0
  -25.1678  -13.8314   20.7133 C   0  0  0  0  0  0
  -24.1266  -13.0093   20.9700 C   0  0  0  0  0  0
  -24.6378  -11.6754   20.8797 C   0  0  0  0  0  0
  -23.9174  -10.4056   21.0236 C   0  0  0  0  0  0
  -24.3696   -9.4057   21.9111 C   0  0  0  0  0  0
  -23.6358   -8.2153   22.0691 C   0  0  0  0  0  0
  -22.4323   -8.0244   21.3489 C   0  0  0  0  0  0
  -21.9974   -9.0175   20.4569 C   0  0  0  0  0  0
  -22.7298  -10.2015   20.2937 C   0  0  0  0  0  0
  -21.6877   -6.0716   22.5255 C   0  0  0  0  0  0
  -21.4029   -6.5637   23.8172 C   0  0  0  0  0  0
  -21.3640   -5.6813   24.9161 C   0  0  0  0  0  0
  -21.6051   -4.3061   24.7223 C   0  0  0  0  0  0
  -21.8820   -3.8127   23.4347 C   0  0  0  0  0  0
  -21.9207   -4.6944   22.3395 C   0  0  0  0  0  0
  -22.7260  -13.4754   21.2003 C   0  0  0  0  0  0
  -22.1684   -4.2140   21.0966 F   0  0  0  0  0  0
  -21.5619   -3.4543   25.7724 F   0  0  0  0  0  0
  -29.8717  -15.6662   20.8592 N   0  0  0  0  0  0
  -26.2724  -13.0000   20.4893 N   0  0  0  0  0  0
  -25.9453  -11.6828   20.5861 N   0  0  0  0  0  0
  -21.9970  -12.7773   22.0558 N   0  0  0  0  0  0
  -25.2445  -15.2274   20.6291 N   0  0  0  0  0  0
  -31.4663  -14.3815   21.8389 O   0  0  0  0  0  0
  -21.6642   -6.8861   21.4229 O   0  0  0  0  0  0
  -22.3020  -14.5120   20.6881 O   0  0  0  0  0  0
  -24.7610  -31.7016   23.0874 C   0  0  0  0  0  0
  -25.9793  -32.4003   23.7718 C   0  0  1  0  0  0
  -27.1525  -25.9382   20.1210 C   0  0  0  0  0  0
  -25.6048  -33.7883   24.1540 N   0  0  0  0  0  0
  -23.6095  -30.2839   21.4692 C   0  0  2  0  0  0
  -25.0223  -28.4704   20.1086 C   0  0  0  0  0  0
  -22.8060  -29.3831   22.4561 C   0  0  0  0  0  0
  -18.0370  -28.1437   22.8419 C   0  0  0  0  0  0
  -24.1470  -36.6982   23.2664 C   0  0  0  0  0  0
  -26.2090  -30.1707   21.4419 C   0  0  0  0  0  0
  -26.2353  -28.6610   20.7781 C   0  0  0  0  0  0
  -27.2556  -27.4523   20.7337 C   0  0  0  0  0  0
  -25.9040  -26.1525   19.4308 C   0  0  0  0  0  0
  -24.9332  -27.2423   19.4176 C   0  0  0  0  0  0
  -23.8776  -29.5246   20.1284 C   0  0  0  0  0  0
  -25.4126  -36.2660   24.0241 C   0  0  1  0  0  0
  -20.6040  -28.3818   23.1035 C   0  0  2  0  0  0
  -20.6795  -26.9420   22.5399 C   0  0  0  0  0  0
  -19.5796  -26.6343   21.5211 C   0  0  0  0  0  0
  -18.1992  -26.7948   22.1602 C   0  0  0  0  0  0
  -19.1651  -28.8983   23.2676 C   0  0  0  0  0  0
  -18.9549  -30.1551   23.8768 C   0  0  0  0  0  0
  -17.6527  -30.6618   24.0540 C   0  0  0  0  0  0
  -25.9166  -34.9039   23.4776 C   0  0  0  0  0  0
  -16.5418  -29.9096   23.6357 C   0  0  0  0  0  0
  -16.7340  -28.6511   23.0392 C   0  0  0  0  0  0
  -26.4715  -31.6402   25.0660 C   0  0  0  0  0  0
  -25.3621  -31.3900   26.1179 C   0  0  0  0  0  0
  -27.0761  -30.2707   24.7005 C   0  0  0  0  0  0
  -27.6011  -32.4452   25.7539 C   0  0  0  0  0  0
  -27.5535  -37.1635   24.8469 C   0  0  0  0  0  0
  -21.4671  -29.2915   22.3289 N   0  0  0  0  0  0
  -26.4216  -37.3510   23.9436 N   0  0  0  0  0  0
  -24.9009  -30.7703   22.0530 N   0  0  0  0  0  0
  -23.4145  -28.7512   23.3204 O   0  0  0  0  0  0
  -27.9925  -24.3806   20.0047 O   0  0  0  0  0  0
  -26.5935  -34.8789   22.4481 O   0  0  0  0  0  0
  -23.6490  -32.0462   23.5351 O   0  0  0  0  0  0
  -28.4294  -15.9855   19.2701 C   0  0  0  0  0  0
  -30.6216  -17.6556   19.4638 C   0  0  0  0  0  0
  -29.0447  -17.7693   19.4345 C   0  0  0  0  0  0
  -30.0420  -14.1339   19.3805 C   0  0  0  0  0  0
  -31.6268  -14.8683   19.4152 C   0  0  0  0  0  0
  -31.7477  -16.5059   19.4512 C   0  0  0  0  0  0
  -30.1702  -12.5785   19.6296 C   0  0  0  0  0  0
  -28.3243  -19.9100   19.4101 C   0  0  0  0  0  0
  -33.0033  -14.1232   19.4714 C   0  0  0  0  0  0
  -33.9740  -14.2646   20.7346 C   0  0  0  0  0  0
  -34.1341  -15.5883   21.5707 C   0  0  0  0  0  0
  -34.5500  -15.3414   23.0427 C   0  0  0  0  0  0
  -34.3628  -16.5031   24.0535 C   0  0  0  0  0  0
  -32.9315  -16.7220   24.6208 C   0  0  0  0  0  0
  -32.1201  -17.8839   23.9979 C   0  0  0  0  0  0
  -31.1428  -17.5299   22.8552 C   0  0  0  0  0  0
  -27.9715  -22.2326   20.0119 C   0  0  0  0  0  0
  -30.5925  -16.1691   22.9122 N   0  0  0  0  0  0
  -33.3006  -17.2189   19.1339 Cl  0  0  0  0  0  0
  -29.7206  -16.5880   17.3855 H   0  0  0  0  0  0
  -31.0361  -15.6267   17.3243 H   0  0  0  0  0  0
  -29.7168  -13.4744   16.7539 H   0  0  0  0  0  0
  -28.4564  -14.5822   16.4282 H   0  0  0  0  0  0
  -28.0896  -12.1267   18.0923 H   0  0  0  0  0  0
  -26.9464  -13.2945   17.7882 H   0  0  0  0  0  0
  -26.9510  -14.2057   19.5552 H   0  0  0  0  0  0
  -28.8705  -13.7081   22.0198 H   0  0  0  0  0  0
  -27.8234  -15.0477   21.7710 H   0  0  0  0  0  0
  -25.2778   -9.5650   22.4795 H   0  0  0  0  0  0
  -23.9976   -7.4614   22.7497 H   0  0  0  0  0  0
  -21.0861   -8.8740   19.9003 H   0  0  0  0  0  0
  -22.3672  -10.9624   19.6159 H   0  0  0  0  0  0
  -21.2032   -7.6153   23.9678 H   0  0  0  0  0  0
  -21.1465   -6.0535   25.9048 H   0  0  0  0  0  0
  -22.0617   -2.7608   23.2833 H   0  0  0  0  0  0
  -22.3762  -11.9621   22.5106 H   0  0  0  0  0  0
  -21.0548  -13.0772   22.2637 H   0  0  0  0  0  0
  -24.4133  -15.8067   20.6954 H   0  0  0  0  0  0
  -26.0664  -15.7329   20.3446 H   0  0  0  0  0  0
  -26.8005  -32.4354   23.0549 H   0  0  0  0  0  0
  -25.0018  -33.8802   24.9592 H   0  0  0  0  0  0
  -22.9773  -31.1426   21.2278 H   0  0  0  0  0  0
  -23.3805  -35.9261   23.3166 H   0  0  0  0  0  0
  -24.3537  -36.8856   22.2133 H   0  0  0  0  0  0
  -23.7169  -37.6043   23.6909 H   0  0  0  0  0  0
  -26.4764  -30.8417   20.6228 H   0  0  0  0  0  0
  -27.0538  -30.2447   22.1253 H   0  0  0  0  0  0
  -28.1779  -27.6348   21.2733 H   0  0  0  0  0  0
  -25.5858  -25.3005   18.8425 H   0  0  0  0  0  0
  -24.0409  -27.0774   18.8433 H   0  0  0  0  0  0
  -24.1272  -30.2596   19.3610 H   0  0  0  0  0  0
  -22.9574  -29.0521   19.7812 H   0  0  0  0  0  0
  -25.1370  -36.1321   25.0745 H   0  0  0  0  0  0
  -21.0085  -28.3479   24.1187 H   0  0  0  0  0  0
  -20.5606  -26.2464   23.3718 H   0  0  0  0  0  0
  -21.6653  -26.7266   22.1257 H   0  0  0  0  0  0
  -19.6922  -25.6230   21.1336 H   0  0  0  0  0  0
  -19.6748  -27.3090   20.6705 H   0  0  0  0  0  0
  -17.4236  -26.6711   21.4018 H   0  0  0  0  0  0
  -18.0340  -26.0141   22.9041 H   0  0  0  0  0  0
  -19.8036  -30.7396   24.2086 H   0  0  0  0  0  0
  -17.5084  -31.6287   24.5160 H   0  0  0  0  0  0
  -15.5417  -30.2947   23.7769 H   0  0  0  0  0  0
  -15.8754  -28.0786   22.7182 H   0  0  0  0  0  0
  -24.5836  -30.7222   25.7473 H   0  0  0  0  0  0
  -24.8788  -32.3177   26.4256 H   0  0  0  0  0  0
  -25.7659  -30.9290   27.0202 H   0  0  0  0  0  0
  -26.3583  -29.6105   24.2144 H   0  0  0  0  0  0
  -27.4101  -29.7423   25.5938 H   0  0  0  0  0  0
  -27.9554  -30.3736   24.0650 H   0  0  0  0  0  0
  -27.2439  -33.3899   26.1654 H   0  0  0  0  0  0
  -28.4055  -32.6796   25.0556 H   0  0  0  0  0  0
  -28.0435  -31.8925   26.5846 H   0  0  0  0  0  0
  -28.2438  -38.0028   24.7569 H   0  0  0  0  0  0
  -28.1134  -36.2548   24.6213 H   0  0  0  0  0  0
  -27.2275  -37.1156   25.8873 H   0  0  0  0  0  0
  -21.0143  -29.8526   21.6228 H   0  0  0  0  0  0
  -25.9967  -38.2520   24.1522 H   0  0  0  0  0  0
  -28.3677  -15.1056   19.0180 H   0  0  0  0  0  0
  -31.0626  -18.6436   19.4749 H   0  0  0  0  0  0
  -29.3154  -11.9344   19.8015 H   0  0  0  0  0  0
  -30.7038  -12.4419   20.5723 H   0  0  0  0  0  0
  -30.7613  -12.0681   18.8583 H   0  0  0  0  0  0
  -27.2783  -19.6260   19.5073 H   0  0  0  0  0  0
  -28.4673  -20.0592   18.3454 H   0  0  0  0  0  0
  -33.5614  -14.4525   18.5908 H   0  0  0  0  0  0
  -32.8311  -13.0671   19.3092 H   0  0  0  0  0  0
  -34.9730  -13.9459   20.4409 H   0  0  0  0  0  0
  -33.6619  -13.4851   21.4368 H   0  0  0  0  0  0
  -33.2336  -16.1671   21.5907 H   0  0  0  0  0  0
  -34.8817  -16.2381   21.1029 H   0  0  0  0  0  0
  -35.6009  -15.0758   23.0308 H   0  0  0  0  0  0
  -34.0221  -14.4691   23.4357 H   0  0  0  0  0  0
  -34.7951  -17.4371   23.7071 H   0  0  0  0  0  0
  -34.9625  -16.2410   24.9286 H   0  0  0  0  0  0
  -33.0433  -16.9966   25.6787 H   0  0  0  0  0  0
  -32.3742  -15.7813   24.6623 H   0  0  0  0  0  0
  -32.7884  -18.6825   23.6597 H   0  0  0  0  0  0
  -31.5318  -18.3456   24.7955 H   0  0  0  0  0  0
  -30.3134  -18.2455   22.8685 H   0  0  0  0  0  0
  -31.6517  -17.7144   21.9123 H   0  0  0  0  0  0
  -28.0045  -22.1224   21.0907 H   0  0  0  0  0  0
  -26.9036  -22.2114   19.7931 H   0  0  0  0  0  0
  -29.8644  -16.0089   23.5949 H   0  0  0  0  0  0
  1 25  1  0  0  0
  1 30  2  0  0  0
  1 88  1  0  0  0
  2  3  1  0  0  0
  2 25  1  0  0  0
  2 90  1  0  0  0
  2 91  1  0  0  0
  3  4  1  0  0  0
  3 92  1  0  0  0
  3 93  1  0  0  0
  4  5  1  0  0  0
  4 94  1  0  0  0
  4 95  1  0  0  0
  5  6  1  0  0  0
  5 26  1  0  0  0
  5 96  1  0  0  0
  6 25  1  0  0  0
  6 97  1  0  0  0
  6 98  1  0  0  0
  7  8  2  0  0  0
  7 26  1  0  0  0
  7 29  1  0  0  0
  8  9  1  0  0  0
  8 22  1  0  0  0
  9 10  1  0  0  0
  9 27  2  0  0  0
 10 11  2  0  0  0
 10 15  1  0  0  0
 11 12  1  0  0  0
 11 99  1  0  0  0
 12 13  2  0  0  0
 12100  1  0  0  0
 13 14  1  0  0  0
 13 31  1  0  0  0
 14 15  2  0  0  0
 14101  1  0  0  0
 15102  1  0  0  0
 16 17  2  0  0  0
 16 21  1  0  0  0
 16 31  1  0  0  0
 17 18  1  0  0  0
 17103  1  0  0  0
 18 19  2  0  0  0
 18104  1  0  0  0
 19 20  1  0  0  0
 19 24  1  0  0  0
 20 21  2  0  0  0
 20105  1  0  0  0
 21 23  1  0  0  0
 22 28  1  0  0  0
 22 32  2  0  0  0
 26 27  1  0  0  0
 28106  1  0  0  0
 28107  1  0  0  0
 29108  1  0  0  0
 29109  1  0  0  0
 33 34  1  0  0  0
 33 66  1  0  0  0
 33 70  2  0  0  0
 34 36  1  0  0  0
 34 59  1  0  0  0
 34110  1  0  0  0
 35 44  2  0  0  0
 35 45  1  0  0  0
 35 68  1  0  0  0
 36 56  1  0  0  0
 36111  1  0  0  0
 37 39  1  0  0  0
 37 47  1  0  0  0
 37 66  1  0  0  0
 37112  1  0  0  0
 38 43  2  0  0  0
 38 46  1  0  0  0
 38 47  1  0  0  0
 39 64  1  0  0  0
 39 67  2  0  0  0
 40 52  1  0  0  0
 40 53  2  0  0  0
 40 58  1  0  0  0
 41113  1  0  0  0
 41114  1  0  0  0
 41115  1  0  0  0
 41 48  1  0  0  0
 42 43  1  0  0  0
 42 66  1  0  0  0
 42116  1  0  0  0
 42117  1  0  0  0
 43 44  1  0  0  0
 44118  1  0  0  0
 45 46  2  0  0  0
 45119  1  0  0  0
 46120  1  0  0  0
 47121  1  0  0  0
 47122  1  0  0  0
 48 56  1  0  0  0
 48 65  1  0  0  0
 48123  1  0  0  0
 49 50  1  0  0  0
 49 53  1  0  0  0
 49 64  1  0  0  0
 49124  1  0  0  0
 50 51  1  0  0  0
 50125  1  0  0  0
 50126  1  0  0  0
 51 52  1  0  0  0
 51127  1  0  0  0
 51128  1  0  0  0
 52129  1  0  0  0
 52130  1  0  0  0
 53 54  1  0  0  0
 54 55  2  0  0  0
 54131  1  0  0  0
 55 57  1  0  0  0
 55132  1  0  0  0
 56 69  2  0  0  0
 57 58  2  0  0  0
 57133  1  0  0  0
 58134  1  0  0  0
 59 60  1  0  0  0
 59 61  1  0  0  0
 59 62  1  0  0  0
 60135  1  0  0  0
 60136  1  0  0  0
 60137  1  0  0  0
 61138  1  0  0  0
 61139  1  0  0  0
 61140  1  0  0  0
 62141  1  0  0  0
 62142  1  0  0  0
 62143  1  0  0  0
 63 65  1  0  0  0
 63144  1  0  0  0
 63145  1  0  0  0
 63146  1  0  0  0
 64147  1  0  0  0
 65148  1  0  0  0
 68 87  1  0  0  0
 71 73  2  0  0  0
 71 74  1  0  0  0
 71149  1  0  0  0
 72 73  1  0  0  0
 72 76  2  0  0  0
 72150  1  0  0  0
 73 78  1  0  0  0
 74 75  2  0  0  0
 74 77  1  0  0  0
 75 76  1  0  0  0
 75 79  1  0  0  0
 76 89  1  0  0  0
 77151  1  0  0  0
 77152  1  0  0  0
 77153  1  0  0  0
 78 87  1  0  0  0
 78154  1  0  0  0
 78155  1  0  0  0
 79 80  1  0  0  0
 79156  1  0  0  0
 79157  1  0  0  0
 80 81  1  0  0  0
 80158  1  0  0  0
 80159  1  0  0  0
 81 82  1  0  0  0
 81160  1  0  0  0
 81161  1  0  0  0
 82 83  1  0  0  0
 82162  1  0  0  0
 82163  1  0  0  0
 83 84  1  0  0  0
 83164  1  0  0  0
 83165  1  0  0  0
 84 85  1  0  0  0
 84166  1  0  0  0
 84167  1  0  0  0
 85 86  1  0  0  0
 85168  1  0  0  0
 85169  1  0  0  0
 86 88  1  0  0  0
 86170  1  0  0  0
 86171  1  0  0  0
 87172  1  0  0  0
 87173  1  0  0  0
 88174  1  0  0  0
M  ISO  4   1 100  68 101  87 101  88 100
M  END
> <chiral flag>
0

> <version>
0

> <s_m_source_file>
/data/baiqing/PycharmProjects/Reinvent-master-3.2/result/LINK_invent/BTK/process_docking_weight1_custom_sum_contain_oxygen_bond_distance_aromatic_linkinvent_7_9_3/rearranged_h_0032.sdf

> <i_m_source_file_index>
82

> <r_mmod_Potential_Energy-OPLS-2005>
19565.150390625

> <r_mmod_Stretch_Energy-OPLS-2005>
10162.8740234375

> <r_mmod_Bend_Energy-OPLS-2005>
1741.69555664062

> <r_mmod_Torsional_Energy-OPLS-2005>
457.551849365234

> <r_mmod_Improper_Torsional_Energy-OPLS-2005>
19.6266307830811

> <r_mmod_Van_der_Waal_Energy-OPLS-2005>
3092.94458007812

> <r_mmod_Electrostatic_Energy-OPLS-2005>
-349.096527099609

> <r_mmod_Solvation_Energy-OPLS-2005>
-186.064743041992

> <b_mmod_Minimization_Converged-OPLS-2005>
0

> <r_mmod_RMS_Derivative-OPLS-2005>
30.0451126098633

$$$$
82
                    3D
 Structure written by MMmdl.
170179  0  0  1  0            999 V2000
  -30.7380  -14.4072   20.6525 C   0  0  0  0  0  0
  -30.4184  -12.2989   19.4082 C   0  0  0  0  0  0
  -29.4887  -12.5237   18.2000 C   0  0  0  0  0  0
  -28.0115  -12.3788   18.6140 C   0  0  0  0  0  0
  -27.6641  -13.2052   19.8809 C   0  0  2  0  0  0
  -28.7017  -12.9566   20.9977 C   0  0  0  0  0  0
  -25.2589  -13.8162   20.5689 C   0  0  0  0  0  0
  -24.1834  -13.0441   20.9170 C   0  0  0  0  0  0
  -24.6385  -11.6907   20.8729 C   0  0  0  0  0  0
  -23.9053  -10.4294   21.0403 C   0  0  0  0  0  0
  -24.3607   -9.4213   21.9185 C   0  0  0  0  0  0
  -23.6286   -8.2246   22.0757 C   0  0  0  0  0  0
  -22.4271   -8.0280   21.3543 C   0  0  0  0  0  0
  -21.9900   -9.0252   20.4649 C   0  0  0  0  0  0
  -22.7223  -10.2135   20.3056 C   0  0  0  0  0  0
  -21.6850   -6.0736   22.5280 C   0  0  0  0  0  0
  -21.4012   -6.5639   23.8213 C   0  0  0  0  0  0
  -21.3661   -5.6792   24.9175 C   0  0  0  0  0  0
  -21.6044   -4.3054   24.7225 C   0  0  0  0  0  0
  -21.8817   -3.8148   23.4345 C   0  0  0  0  0  0
  -21.9192   -4.6966   22.3404 C   0  0  0  0  0  0
  -22.7858  -13.5242   21.1839 C   0  0  0  0  0  0
  -22.1659   -4.2152   21.0980 F   0  0  0  0  0  0
  -21.5629   -3.4540   25.7737 F   0  0  0  0  0  0
  -30.0395  -13.2579   20.4568 N   0  0  0  0  0  0
  -26.3029  -12.9332   20.3387 N   0  0  0  0  0  0
  -25.9312  -11.6491   20.5761 N   0  0  0  0  0  0
  -22.0489  -12.8239   22.0397 N   0  0  0  0  0  0
  -25.4310  -15.1881   20.4108 N   0  0  0  0  0  0
  -31.8025  -14.6575   20.0792 O   0  0  0  0  0  0
  -21.6634   -6.8882   21.4244 O   0  0  0  0  0  0
  -22.3545  -14.5552   20.6694 O   0  0  0  0  0  0
  -24.6102  -31.8704   23.2125 C   0  0  0  0  0  0
  -25.9006  -32.4838   23.8415 C   0  0  1  0  0  0
  -27.2401  -27.4672   20.0938 C   0  0  0  0  0  0
  -25.5882  -33.8633   24.2345 N   0  0  0  0  0  0
  -23.3977  -30.4931   21.5512 C   0  0  2  0  0  0
  -24.8480  -28.9587   20.1193 C   0  0  0  0  0  0
  -22.7385  -29.4673   22.5006 C   0  0  0  0  0  0
  -18.0272  -28.1388   22.8506 C   0  0  0  0  0  0
  -24.1476  -36.7317   23.2638 C   0  0  0  0  0  0
  -25.9225  -30.8437   21.3630 C   0  0  0  0  0  0
  -26.0023  -29.4766   20.7198 C   0  0  0  0  0  0
  -27.2027  -28.7348   20.7138 C   0  0  0  0  0  0
  -26.0773  -26.9565   19.4857 C   0  0  0  0  0  0
  -24.8768  -27.6940   19.5033 C   0  0  0  0  0  0
  -23.6068  -29.8216   20.1665 C   0  0  0  0  0  0
  -25.4094  -36.3112   24.0339 C   0  0  1  0  0  0
  -20.5856  -28.3660   23.1340 C   0  0  2  0  0  0
  -20.6750  -26.9402   22.5425 C   0  0  0  0  0  0
  -19.5725  -26.6399   21.5220 C   0  0  0  0  0  0
  -18.1910  -26.7937   22.1639 C   0  0  0  0  0  0
  -19.1519  -28.8841   23.2924 C   0  0  0  0  0  0
  -18.9453  -30.1456   23.8921 C   0  0  0  0  0  0
  -17.6454  -30.6596   24.0580 C   0  0  0  0  0  0
  -25.9025  -34.9479   23.5139 C   0  0  0  0  0  0
  -16.5344  -29.9100   23.6343 C   0  0  0  0  0  0
  -16.7261  -28.6517   23.0358 C   0  0  0  0  0  0
  -26.4458  -31.6603   25.0723 C   0  0  0  0  0  0
  -25.3748  -31.3703   26.1489 C   0  0  0  0  0  0
  -27.0265  -30.3045   24.6063 C   0  0  0  0  0  0
  -27.6038  -32.4317   25.7480 C   0  0  0  0  0  0
  -27.5575  -37.1808   24.8464 C   0  0  0  0  0  0
  -21.4115  -29.3028   22.3736 N   0  0  0  0  0  0
  -26.4276  -37.3800   23.9421 N   0  0  0  0  0  0
  -24.6617  -31.0832   22.1016 N   0  0  0  0  0  0
  -23.4164  -28.8231   23.3048 O   0  0  0  0  0  0
  -28.3938  -26.7276   20.0285 O   0  0  0  0  0  0
  -26.5586  -34.8921   22.4701 O   0  0  0  0  0  0
  -23.5305  -32.1443   23.7549 O   0  0  0  0  0  0
  -29.3341  -20.4081   23.4833 C   0  0  0  0  0  0
  -29.1122  -20.2702   21.0749 C   0  0  0  0  0  0
  -29.4916  -22.4585   22.1311 C   0  0  0  0  0  0
  -29.5401  -21.8002   23.3931 C   0  0  0  0  0  0
  -29.0946  -19.6378   22.3316 C   0  0  0  0  0  0
  -29.3367  -21.6636   20.9526 C   0  0  0  0  0  0
  -29.5973  -23.9448   22.1334 C   0  0  0  0  0  0
  -28.8623  -24.7483   21.3310 C   0  0  0  0  0  0
  -29.8523  -22.5476   24.6919 C   0  0  0  0  0  0
  -30.5470  -24.4819   23.1875 C   0  0  0  0  0  0
  -30.0076  -24.0731   24.5585 C   0  0  0  0  0  0
  -30.1320  -21.3833   18.5021 C   0  0  0  0  0  0
  -28.7926  -18.1461   22.4523 C   0  0  0  0  0  0
  -29.4260  -22.2651   19.5460 C   0  0  0  0  0  0
  -28.8934  -26.2673   21.2802 C   0  0  0  0  0  0
  -29.9743  -17.2993   22.9749 C   0  0  0  0  0  0
  -30.7853  -16.5663   21.8861 C   0  0  0  0  0  0
  -30.1848  -15.2858   21.5023 N   0  0  0  0  0  0
  -31.4625  -12.3997   19.1067 H   0  0  0  0  0  0
  -30.3173  -11.2792   19.7844 H   0  0  0  0  0  0
  -29.7253  -11.8165   17.4041 H   0  0  0  0  0  0
  -29.6576  -13.5191   17.7856 H   0  0  0  0  0  0
  -27.8195  -11.3212   18.7989 H   0  0  0  0  0  0
  -27.3586  -12.6659   17.7893 H   0  0  0  0  0  0
  -27.7191  -14.2584   19.6041 H   0  0  0  0  0  0
  -28.6694  -11.9131   21.3151 H   0  0  0  0  0  0
  -28.4531  -13.5331   21.8891 H   0  0  0  0  0  0
  -25.2752   -9.5692   22.4756 H   0  0  0  0  0  0
  -23.9998   -7.4640   22.7475 H   0  0  0  0  0  0
  -21.0831   -8.8772   19.8953 H   0  0  0  0  0  0
  -22.3682  -10.9675   19.6164 H   0  0  0  0  0  0
  -21.2004   -7.6146   23.9718 H   0  0  0  0  0  0
  -21.1484   -6.0520   25.9078 H   0  0  0  0  0  0
  -22.0596   -2.7611   23.2842 H   0  0  0  0  0  0
  -22.4090  -11.9892   22.4781 H   0  0  0  0  0  0
  -21.1117  -13.1287   22.2617 H   0  0  0  0  0  0
  -24.6659  -15.8447   20.5220 H   0  0  0  0  0  0
  -26.2896  -15.6281   20.1037 H   0  0  0  0  0  0
  -26.7082  -32.5585   23.1192 H   0  0  0  0  0  0
  -25.0019  -33.9804   25.0478 H   0  0  0  0  0  0
  -22.6862  -31.3091   21.4119 H   0  0  0  0  0  0
  -23.3730  -35.9662   23.3305 H   0  0  0  0  0  0
  -24.3577  -36.8926   22.2054 H   0  0  0  0  0  0
  -23.7220  -37.6521   23.6645 H   0  0  0  0  0  0
  -26.0258  -31.6050   20.5883 H   0  0  0  0  0  0
  -26.8135  -30.9061   21.9756 H   0  0  0  0  0  0
  -28.0969  -29.1375   21.1691 H   0  0  0  0  0  0
  -26.1036  -25.9900   19.0018 H   0  0  0  0  0  0
  -23.9905  -27.2923   19.0327 H   0  0  0  0  0  0
  -23.7103  -30.5932   19.4028 H   0  0  0  0  0  0
  -22.7329  -29.2357   19.8746 H   0  0  0  0  0  0
  -25.1267  -36.1982   25.0830 H   0  0  0  0  0  0
  -20.9973  -28.3219   24.1448 H   0  0  0  0  0  0
  -20.5656  -26.2264   23.3605 H   0  0  0  0  0  0
  -21.6625  -26.7441   22.1218 H   0  0  0  0  0  0
  -19.6873  -25.6318   21.1232 H   0  0  0  0  0  0
  -19.6667  -27.3225   20.6761 H   0  0  0  0  0  0
  -17.4183  -26.6710   21.4035 H   0  0  0  0  0  0
  -18.0307  -26.0069   22.9029 H   0  0  0  0  0  0
  -19.7924  -30.7282   24.2282 H   0  0  0  0  0  0
  -17.5008  -31.6273   24.5182 H   0  0  0  0  0  0
  -15.5350  -30.3016   23.7640 H   0  0  0  0  0  0
  -15.8662  -28.0850   22.7054 H   0  0  0  0  0  0
  -24.5910  -30.7054   25.7840 H   0  0  0  0  0  0
  -24.8955  -32.2860   26.4965 H   0  0  0  0  0  0
  -25.8134  -30.8859   27.0224 H   0  0  0  0  0  0
  -26.2783  -29.6835   24.1113 H   0  0  0  0  0  0
  -27.4026  -29.7251   25.4507 H   0  0  0  0  0  0
  -27.8637  -30.4357   23.9198 H   0  0  0  0  0  0
  -27.2649  -33.3597   26.2097 H   0  0  0  0  0  0
  -28.3827  -32.6910   25.0296 H   0  0  0  0  0  0
  -28.0724  -31.8415   26.5364 H   0  0  0  0  0  0
  -28.2597  -38.0105   24.7526 H   0  0  0  0  0  0
  -28.1065  -36.2635   24.6266 H   0  0  0  0  0  0
  -27.2308  -37.1445   25.8873 H   0  0  0  0  0  0
  -20.9266  -29.8741   21.6958 H   0  0  0  0  0  0
  -26.0165  -38.2876   24.1444 H   0  0  0  0  0  0
  -29.3541  -19.9283   24.4524 H   0  0  0  0  0  0
  -28.9459  -19.6651   20.1967 H   0  0  0  0  0  0
  -28.1347  -24.3018   20.6710 H   0  0  0  0  0  0
  -30.7877  -22.1387   25.0764 H   0  0  0  0  0  0
  -29.0913  -22.3187   25.4394 H   0  0  0  0  0  0
  -30.6558  -25.5643   23.1475 H   0  0  0  0  0  0
  -31.5404  -24.0618   23.0255 H   0  0  0  0  0  0
  -30.6298  -24.4653   25.3639 H   0  0  0  0  0  0
  -29.0275  -24.5365   24.6850 H   0  0  0  0  0  0
  -30.2336  -21.9217   17.5595 H   0  0  0  0  0  0
  -29.5791  -20.4711   18.2816 H   0  0  0  0  0  0
  -31.1338  -21.1061   18.8315 H   0  0  0  0  0  0
  -28.4246  -17.7508   21.5042 H   0  0  0  0  0  0
  -27.9584  -18.0518   23.1494 H   0  0  0  0  0  0
  -29.9850  -23.1988   19.5780 H   0  0  0  0  0  0
  -28.4197  -22.5069   19.2028 H   0  0  0  0  0  0
  -29.9165  -26.6290   21.3811 H   0  0  0  0  0  0
  -28.3269  -26.6556   22.1285 H   0  0  0  0  0  0
  -29.5919  -16.5568   23.6771 H   0  0  0  0  0  0
  -30.6407  -17.9258   23.5691 H   0  0  0  0  0  0
  -31.7860  -16.3634   22.2716 H   0  0  0  0  0  0
  -30.9176  -17.2042   21.0101 H   0  0  0  0  0  0
  -29.3097  -15.0215   21.9294 H   0  0  0  0  0  0
  1 25  1  0  0  0
  1 30  2  0  0  0
  1 88  1  0  0  0
  2  3  1  0  0  0
  2 25  1  0  0  0
  2 89  1  0  0  0
  2 90  1  0  0  0
  3  4  1  0  0  0
  3 91  1  0  0  0
  3 92  1  0  0  0
  4  5  1  0  0  0
  4 93  1  0  0  0
  4 94  1  0  0  0
  5  6  1  0  0  0
  5 26  1  0  0  0
  5 95  1  0  0  0
  6 25  1  0  0  0
  6 96  1  0  0  0
  6 97  1  0  0  0
  7  8  2  0  0  0
  7 26  1  0  0  0
  7 29  1  0  0  0
  8  9  1  0  0  0
  8 22  1  0  0  0
  9 10  1  0  0  0
  9 27  2  0  0  0
 10 11  2  0  0  0
 10 15  1  0  0  0
 11 12  1  0  0  0
 11 98  1  0  0  0
 12 13  2  0  0  0
 12 99  1  0  0  0
 13 14  1  0  0  0
 13 31  1  0  0  0
 14 15  2  0  0  0
 14100  1  0  0  0
 15101  1  0  0  0
 16 17  2  0  0  0
 16 21  1  0  0  0
 16 31  1  0  0  0
 17 18  1  0  0  0
 17102  1  0  0  0
 18 19  2  0  0  0
 18103  1  0  0  0
 19 20  1  0  0  0
 19 24  1  0  0  0
 20 21  2  0  0  0
 20104  1  0  0  0
 21 23  1  0  0  0
 22 28  1  0  0  0
 22 32  2  0  0  0
 26 27  1  0  0  0
 28105  1  0  0  0
 28106  1  0  0  0
 29107  1  0  0  0
 29108  1  0  0  0
 33 34  1  0  0  0
 33 66  1  0  0  0
 33 70  2  0  0  0
 34 36  1  0  0  0
 34 59  1  0  0  0
 34109  1  0  0  0
 35 44  2  0  0  0
 35 45  1  0  0  0
 35 68  1  0  0  0
 36 56  1  0  0  0
 36110  1  0  0  0
 37 39  1  0  0  0
 37 47  1  0  0  0
 37 66  1  0  0  0
 37111  1  0  0  0
 38 43  2  0  0  0
 38 46  1  0  0  0
 38 47  1  0  0  0
 39 64  1  0  0  0
 39 67  2  0  0  0
 40 52  1  0  0  0
 40 53  2  0  0  0
 40 58  1  0  0  0
 41112  1  0  0  0
 41113  1  0  0  0
 41114  1  0  0  0
 41 48  1  0  0  0
 42 43  1  0  0  0
 42 66  1  0  0  0
 42115  1  0  0  0
 42116  1  0  0  0
 43 44  1  0  0  0
 44117  1  0  0  0
 45 46  2  0  0  0
 45118  1  0  0  0
 46119  1  0  0  0
 47120  1  0  0  0
 47121  1  0  0  0
 48 56  1  0  0  0
 48 65  1  0  0  0
 48122  1  0  0  0
 49 50  1  0  0  0
 49 53  1  0  0  0
 49 64  1  0  0  0
 49123  1  0  0  0
 50 51  1  0  0  0
 50124  1  0  0  0
 50125  1  0  0  0
 51 52  1  0  0  0
 51126  1  0  0  0
 51127  1  0  0  0
 52128  1  0  0  0
 52129  1  0  0  0
 53 54  1  0  0  0
 54 55  2  0  0  0
 54130  1  0  0  0
 55 57  1  0  0  0
 55131  1  0  0  0
 56 69  2  0  0  0
 57 58  2  0  0  0
 57132  1  0  0  0
 58133  1  0  0  0
 59 60  1  0  0  0
 59 61  1  0  0  0
 59 62  1  0  0  0
 60134  1  0  0  0
 60135  1  0  0  0
 60136  1  0  0  0
 61137  1  0  0  0
 61138  1  0  0  0
 61139  1  0  0  0
 62140  1  0  0  0
 62141  1  0  0  0
 62142  1  0  0  0
 63 65  1  0  0  0
 63143  1  0  0  0
 63144  1  0  0  0
 63145  1  0  0  0
 64146  1  0  0  0
 65147  1  0  0  0
 68 85  1  0  0  0
 71 74  2  0  0  0
 71 75  1  0  0  0
 71148  1  0  0  0
 72 75  2  0  0  0
 72 76  1  0  0  0
 72149  1  0  0  0
 73 74  1  0  0  0
 73 76  2  0  0  0
 73 77  1  0  0  0
 74 79  1  0  0  0
 75 83  1  0  0  0
 76 84  1  0  0  0
 77 78  2  0  0  0
 77 80  1  0  0  0
 78 85  1  0  0  0
 78150  1  0  0  0
 79 81  1  0  0  0
 79151  1  0  0  0
 79152  1  0  0  0
 80 81  1  0  0  0
 80153  1  0  0  0
 80154  1  0  0  0
 81155  1  0  0  0
 81156  1  0  0  0
 82 84  1  0  0  0
 82157  1  0  0  0
 82158  1  0  0  0
 82159  1  0  0  0
 83 86  1  0  0  0
 83160  1  0  0  0
 83161  1  0  0  0
 84162  1  0  0  0
 84163  1  0  0  0
 85164  1  0  0  0
 85165  1  0  0  0
 86 87  1  0  0  0
 86166  1  0  0  0
 86167  1  0  0  0
 87 88  1  0  0  0
 87168  1  0  0  0
 87169  1  0  0  0
 88170  1  0  0  0
M  ISO  4   1 100  68 101  85 101  88 100
M  END
> <chiral flag>
0

> <version>
0

> <s_m_source_file>
/data/baiqing/PycharmProjects/Reinvent-master-3.2/result/LINK_invent/BTK/process_docking_weight1_custom_sum_contain_oxygen_bond_distance_aromatic_linkinvent_7_9_3/rearranged_h_0032.sdf

> <i_m_source_file_index>
83

> <r_mmod_Potential_Energy-OPLS-2005>
-31.3502159118652

> <r_mmod_Stretch_Energy-OPLS-2005>
37.0646514892578

> <r_mmod_Bend_Energy-OPLS-2005>
98.2015380859375

> <r_mmod_Torsional_Energy-OPLS-2005>
250.072937011719

> <r_mmod_Improper_Torsional_Energy-OPLS-2005>
1.88834655284882

> <r_mmod_Van_der_Waal_Energy-OPLS-2005>
164.780807495117

> <r_mmod_Electrostatic_Energy-OPLS-2005>
-388.8681640625

> <r_mmod_Solvation_Energy-OPLS-2005>
-201.305938720703

> <b_mmod_Minimization_Converged-OPLS-2005>
0

> <r_mmod_RMS_Derivative-OPLS-2005>
1.22643327713013

$$$$
83
                    3D
 Structure written by MMmdl.
153161  0  0  1  0            999 V2000
  -30.6063  -14.6918   20.5016 C   0  0  0  0  0  0
  -30.4357  -12.4203   19.4844 C   0  0  0  0  0  0
  -29.5187  -12.4939   18.2433 C   0  0  0  0  0  0
  -28.0385  -12.3414   18.6399 C   0  0  0  0  0  0
  -27.6443  -13.2249   19.8570 C   0  0  2  0  0  0
  -28.6802  -13.1166   20.9965 C   0  0  0  0  0  0
  -25.2475  -13.8153   20.5658 C   0  0  0  0  0  0
  -24.1777  -13.0438   20.9246 C   0  0  0  0  0  0
  -24.6355  -11.6900   20.8793 C   0  0  0  0  0  0
  -23.9021  -10.4291   21.0452 C   0  0  0  0  0  0
  -24.3581   -9.4212   21.9221 C   0  0  0  0  0  0
  -23.6261   -8.2249   22.0771 C   0  0  0  0  0  0
  -22.4254   -8.0261   21.3541 C   0  0  0  0  0  0
  -21.9878   -9.0256   20.4666 C   0  0  0  0  0  0
  -22.7200  -10.2141   20.3083 C   0  0  0  0  0  0
  -21.6840   -6.0706   22.5278 C   0  0  0  0  0  0
  -21.4010   -6.5621   23.8204 C   0  0  0  0  0  0
  -21.3668   -5.6777   24.9174 C   0  0  0  0  0  0
  -21.6046   -4.3032   24.7228 C   0  0  0  0  0  0
  -21.8812   -3.8110   23.4351 C   0  0  0  0  0  0
  -21.9188   -4.6928   22.3409 C   0  0  0  0  0  0
  -22.7784  -13.5231   21.1898 C   0  0  0  0  0  0
  -22.1644   -4.2108   21.0983 F   0  0  0  0  0  0
  -21.5654   -3.4524   25.7744 F   0  0  0  0  0  0
  -29.9905  -13.4658   20.4321 N   0  0  0  0  0  0
  -26.2905  -12.9361   20.3240 N   0  0  0  0  0  0
  -25.9265  -11.6518   20.5736 N   0  0  0  0  0  0
  -22.0400  -12.8275   22.0466 N   0  0  0  0  0  0
  -25.4183  -15.1852   20.3964 N   0  0  0  0  0  0
  -31.7814  -14.8191   20.1436 O   0  0  0  0  0  0
  -21.6616   -6.8850   21.4234 O   0  0  0  0  0  0
  -22.3481  -14.5531   20.6703 O   0  0  0  0  0  0
  -24.6284  -31.8573   23.1969 C   0  0  0  0  0  0
  -25.9106  -32.4733   23.8334 C   0  0  1  0  0  0
  -27.2265  -27.2948   20.1364 C   0  0  0  0  0  0
  -25.5937  -33.8544   24.2271 N   0  0  0  0  0  0
  -23.4253  -30.4776   21.5383 C   0  0  2  0  0  0
  -24.8767  -28.9262   20.1148 C   0  0  0  0  0  0
  -22.7498  -29.4606   22.4897 C   0  0  0  0  0  0
  -18.0295  -28.1399   22.8479 C   0  0  0  0  0  0
  -24.1497  -36.7272   23.2646 C   0  0  0  0  0  0
  -25.9701  -30.7819   21.3752 C   0  0  0  0  0  0
  -26.0452  -29.4055   20.7213 C   0  0  0  0  0  0
  -27.2279  -28.6046   20.7150 C   0  0  0  0  0  0
  -26.0396  -26.8704   19.5041 C   0  0  0  0  0  0
  -24.8766  -27.6663   19.4933 C   0  0  0  0  0  0
  -23.6449  -29.8095   20.1564 C   0  0  0  0  0  0
  -25.4125  -36.3063   24.0336 C   0  0  1  0  0  0
  -20.5897  -28.3694   23.1286 C   0  0  2  0  0  0
  -20.6807  -26.9419   22.5400 C   0  0  0  0  0  0
  -19.5777  -26.6380   21.5210 C   0  0  0  0  0  0
  -18.1957  -26.7962   22.1612 C   0  0  0  0  0  0
  -19.1552  -28.8848   23.2908 C   0  0  0  0  0  0
  -18.9454  -30.1434   23.8968 C   0  0  0  0  0  0
  -17.6461  -30.6574   24.0600 C   0  0  0  0  0  0
  -25.9070  -34.9427   23.5108 C   0  0  0  0  0  0
  -16.5363  -29.9083   23.6320 C   0  0  0  0  0  0
  -16.7272  -28.6508   23.0349 C   0  0  0  0  0  0
  -26.4529  -31.6563   25.0713 C   0  0  0  0  0  0
  -25.3798  -31.3716   26.1466 C   0  0  0  0  0  0
  -27.0342  -30.2962   24.6179 C   0  0  0  0  0  0
  -27.6115  -32.4300   25.7441 C   0  0  0  0  0  0
  -27.5592  -37.1795   24.8478 C   0  0  0  0  0  0
  -21.4196  -29.3080   22.3695 N   0  0  0  0  0  0
  -26.4297  -37.3771   23.9430 N   0  0  0  0  0  0
  -24.6920  -31.0587   22.0912 N   0  0  0  0  0  0
  -23.4219  -28.8147   23.2988 O   0  0  0  0  0  0
  -28.3278  -26.4219   20.1412 O   0  0  0  0  0  0
  -26.5637  -34.8893   22.4675 O   0  0  0  0  0  0
  -23.5453  -32.1348   23.7322 O   0  0  0  0  0  0
  -29.5437  -19.8382   20.7902 C   0  0  0  0  0  0
  -27.8984  -18.1684   20.1527 C   0  0  0  0  0  0
  -29.2149  -18.4424   20.5810 C   0  0  0  0  0  0
  -28.6035  -20.9296   20.6176 C   0  0  0  0  0  0
  -26.9530  -19.2056   19.9790 C   0  0  0  0  0  0
  -27.2883  -20.5637   20.2238 C   0  0  0  0  0  0
  -28.9246  -22.4298   21.0369 C   0  0  0  0  0  0
  -30.2500  -17.2618   20.8071 C   0  0  0  0  0  0
  -28.7195  -23.7164   20.0793 C   0  0  0  0  0  0
  -28.1509  -25.0691   20.7482 C   0  0  0  0  0  0
  -29.8336  -15.7971   20.7997 N   0  0  0  0  0  0
  -25.3516  -18.7773   19.4819 Cl  0  0  0  0  0  0
  -26.0459  -21.7672   20.1073 Cl  0  0  0  0  0  0
  -31.4805  -12.5469   19.1906 H   0  0  0  0  0  0
  -30.3768  -11.4357   19.9499 H   0  0  0  0  0  0
  -29.7893  -11.7095   17.5347 H   0  0  0  0  0  0
  -29.6665  -13.4451   17.7282 H   0  0  0  0  0  0
  -27.8721  -11.2887   18.8750 H   0  0  0  0  0  0
  -27.3976  -12.5674   17.7860 H   0  0  0  0  0  0
  -27.6532  -14.2560   19.5049 H   0  0  0  0  0  0
  -28.7026  -12.1040   21.4051 H   0  0  0  0  0  0
  -28.4110  -13.7728   21.8267 H   0  0  0  0  0  0
  -25.2737   -9.5660   22.4761 H   0  0  0  0  0  0
  -23.9965   -7.4618   22.7458 H   0  0  0  0  0  0
  -21.0817   -8.8777   19.8952 H   0  0  0  0  0  0
  -22.3691  -10.9675   19.6169 H   0  0  0  0  0  0
  -21.1996   -7.6116   23.9696 H   0  0  0  0  0  0
  -21.1510   -6.0512   25.9089 H   0  0  0  0  0  0
  -22.0595   -2.7561   23.2865 H   0  0  0  0  0  0
  -22.4010  -11.9970   22.4921 H   0  0  0  0  0  0
  -21.1026  -13.1333   22.2651 H   0  0  0  0  0  0
  -24.6436  -15.8329   20.4801 H   0  0  0  0  0  0
  -26.2161  -15.5877   19.9313 H   0  0  0  0  0  0
  -26.7154  -32.5376   23.1058 H   0  0  0  0  0  0
  -25.0117  -33.9721   25.0434 H   0  0  0  0  0  0
  -22.7223  -31.2995   21.3904 H   0  0  0  0  0  0
  -23.3755  -35.9616   23.3299 H   0  0  0  0  0  0
  -24.3581  -36.8887   22.2062 H   0  0  0  0  0  0
  -23.7264  -37.6467   23.6680 H   0  0  0  0  0  0
  -26.1187  -31.5474   20.6109 H   0  0  0  0  0  0
  -26.8459  -30.8199   22.0123 H   0  0  0  0  0  0
  -28.1298  -28.9752   21.1847 H   0  0  0  0  0  0
  -26.0103  -25.9016   19.0231 H   0  0  0  0  0  0
  -23.9887  -27.2955   19.0033 H   0  0  0  0  0  0
  -23.7650  -30.5854   19.3999 H   0  0  0  0  0  0
  -22.7700  -29.2329   19.8504 H   0  0  0  0  0  0
  -25.1324  -36.1903   25.0834 H   0  0  0  0  0  0
  -20.9986  -28.3268   24.1412 H   0  0  0  0  0  0
  -20.5731  -26.2275   23.3566 H   0  0  0  0  0  0
  -21.6677  -26.7472   22.1174 H   0  0  0  0  0  0
  -19.6933  -25.6273   21.1296 H   0  0  0  0  0  0
  -19.6736  -27.3143   20.6719 H   0  0  0  0  0  0
  -17.4227  -26.6648   21.4031 H   0  0  0  0  0  0
  -18.0368  -26.0116   22.9033 H   0  0  0  0  0  0
  -19.7933  -30.7193   24.2385 H   0  0  0  0  0  0
  -17.5015  -31.6203   24.5290 H   0  0  0  0  0  0
  -15.5366  -30.2980   23.7652 H   0  0  0  0  0  0
  -15.8676  -28.0811   22.7096 H   0  0  0  0  0  0
  -24.5971  -30.7040   25.7812 H   0  0  0  0  0  0
  -24.8981  -32.2864   26.4903 H   0  0  0  0  0  0
  -25.8151  -30.8901   27.0225 H   0  0  0  0  0  0
  -26.2935  -29.6729   24.1155 H   0  0  0  0  0  0
  -27.3952  -29.7175   25.4690 H   0  0  0  0  0  0
  -27.8850  -30.4234   23.9480 H   0  0  0  0  0  0
  -27.2734  -33.3573   26.2111 H   0  0  0  0  0  0
  -28.3874  -32.6912   25.0232 H   0  0  0  0  0  0
  -28.0882  -31.8386   26.5273 H   0  0  0  0  0  0
  -28.2629  -38.0087   24.7551 H   0  0  0  0  0  0
  -28.1090  -36.2611   24.6304 H   0  0  0  0  0  0
  -27.2303  -37.1437   25.8882 H   0  0  0  0  0  0
  -20.9332  -29.8857   21.6974 H   0  0  0  0  0  0
  -26.0154  -38.2852   24.1388 H   0  0  0  0  0  0
  -30.5437  -20.0763   21.1316 H   0  0  0  0  0  0
  -27.5889  -17.1534   19.9595 H   0  0  0  0  0  0
  -29.9598  -22.4484   21.3843 H   0  0  0  0  0  0
  -28.3426  -22.6049   21.9420 H   0  0  0  0  0  0
  -30.7220  -17.4487   21.7738 H   0  0  0  0  0  0
  -31.0454  -17.4053   20.0723 H   0  0  0  0  0  0
  -28.0788  -23.4488   19.2408 H   0  0  0  0  0  0
  -29.6876  -23.9407   19.6250 H   0  0  0  0  0  0
  -28.6141  -25.1504   21.7341 H   0  0  0  0  0  0
  -27.0941  -24.8953   20.9631 H   0  0  0  0  0  0
  -28.8931  -15.5984   21.1036 H   0  0  0  0  0  0
  1 25  1  0  0  0
  1 30  2  0  0  0
  1 81  1  0  0  0
  2  3  1  0  0  0
  2 25  1  0  0  0
  2 84  1  0  0  0
  2 85  1  0  0  0
  3  4  1  0  0  0
  3 86  1  0  0  0
  3 87  1  0  0  0
  4  5  1  0  0  0
  4 88  1  0  0  0
  4 89  1  0  0  0
  5  6  1  0  0  0
  5 26  1  0  0  0
  5 90  1  0  0  0
  6 25  1  0  0  0
  6 91  1  0  0  0
  6 92  1  0  0  0
  7  8  2  0  0  0
  7 26  1  0  0  0
  7 29  1  0  0  0
  8  9  1  0  0  0
  8 22  1  0  0  0
  9 10  1  0  0  0
  9 27  2  0  0  0
 10 11  2  0  0  0
 10 15  1  0  0  0
 11 12  1  0  0  0
 11 93  1  0  0  0
 12 13  2  0  0  0
 12 94  1  0  0  0
 13 14  1  0  0  0
 13 31  1  0  0  0
 14 15  2  0  0  0
 14 95  1  0  0  0
 15 96  1  0  0  0
 16 17  2  0  0  0
 16 21  1  0  0  0
 16 31  1  0  0  0
 17 18  1  0  0  0
 17 97  1  0  0  0
 18 19  2  0  0  0
 18 98  1  0  0  0
 19 20  1  0  0  0
 19 24  1  0  0  0
 20 21  2  0  0  0
 20 99  1  0  0  0
 21 23  1  0  0  0
 22 28  1  0  0  0
 22 32  2  0  0  0
 26 27  1  0  0  0
 28100  1  0  0  0
 28101  1  0  0  0
 29102  1  0  0  0
 29103  1  0  0  0
 33 34  1  0  0  0
 33 66  1  0  0  0
 33 70  2  0  0  0
 34 36  1  0  0  0
 34 59  1  0  0  0
 34104  1  0  0  0
 35 44  2  0  0  0
 35 45  1  0  0  0
 35 68  1  0  0  0
 36 56  1  0  0  0
 36105  1  0  0  0
 37 39  1  0  0  0
 37 47  1  0  0  0
 37 66  1  0  0  0
 37106  1  0  0  0
 38 43  2  0  0  0
 38 46  1  0  0  0
 38 47  1  0  0  0
 39 64  1  0  0  0
 39 67  2  0  0  0
 40 52  1  0  0  0
 40 53  2  0  0  0
 40 58  1  0  0  0
 41107  1  0  0  0
 41108  1  0  0  0
 41109  1  0  0  0
 41 48  1  0  0  0
 42 43  1  0  0  0
 42 66  1  0  0  0
 42110  1  0  0  0
 42111  1  0  0  0
 43 44  1  0  0  0
 44112  1  0  0  0
 45 46  2  0  0  0
 45113  1  0  0  0
 46114  1  0  0  0
 47115  1  0  0  0
 47116  1  0  0  0
 48 56  1  0  0  0
 48 65  1  0  0  0
 48117  1  0  0  0
 49 50  1  0  0  0
 49 53  1  0  0  0
 49 64  1  0  0  0
 49118  1  0  0  0
 50 51  1  0  0  0
 50119  1  0  0  0
 50120  1  0  0  0
 51 52  1  0  0  0
 51121  1  0  0  0
 51122  1  0  0  0
 52123  1  0  0  0
 52124  1  0  0  0
 53 54  1  0  0  0
 54 55  2  0  0  0
 54125  1  0  0  0
 55 57  1  0  0  0
 55126  1  0  0  0
 56 69  2  0  0  0
 57 58  2  0  0  0
 57127  1  0  0  0
 58128  1  0  0  0
 59 60  1  0  0  0
 59 61  1  0  0  0
 59 62  1  0  0  0
 60129  1  0  0  0
 60130  1  0  0  0
 60131  1  0  0  0
 61132  1  0  0  0
 61133  1  0  0  0
 61134  1  0  0  0
 62135  1  0  0  0
 62136  1  0  0  0
 62137  1  0  0  0
 63 65  1  0  0  0
 63138  1  0  0  0
 63139  1  0  0  0
 63140  1  0  0  0
 64141  1  0  0  0
 65142  1  0  0  0
 68 80  1  0  0  0
 71 73  2  0  0  0
 71 74  1  0  0  0
 71143  1  0  0  0
 72 73  1  0  0  0
 72 75  2  0  0  0
 72144  1  0  0  0
 73 78  1  0  0  0
 74 76  2  0  0  0
 74 77  1  0  0  0
 75 76  1  0  0  0
 75 82  1  0  0  0
 76 83  1  0  0  0
 77 79  1  0  0  0
 77145  1  0  0  0
 77146  1  0  0  0
 78 81  1  0  0  0
 78147  1  0  0  0
 78148  1  0  0  0
 79 80  1  0  0  0
 79149  1  0  0  0
 79150  1  0  0  0
 80151  1  0  0  0
 80152  1  0  0  0
 81153  1  0  0  0
M  ISO  4   1 100  68 101  80 101  81 100
M  END
> <chiral flag>
0

> <version>
0

> <s_m_source_file>
/data/baiqing/PycharmProjects/Reinvent-master-3.2/result/LINK_invent/BTK/process_docking_weight1_custom_sum_contain_oxygen_bond_distance_aromatic_linkinvent_7_9_3/rearranged_h_0032.sdf

> <i_m_source_file_index>
84

> <r_mmod_Potential_Energy-OPLS-2005>
93.2841262817383

> <r_mmod_Stretch_Energy-OPLS-2005>
105.84595489502

> <r_mmod_Bend_Energy-OPLS-2005>
146.863067626953

> <r_mmod_Torsional_Energy-OPLS-2005>
228.958602905273

> <r_mmod_Improper_Torsional_Energy-OPLS-2005>
5.61291408538818

> <r_mmod_Van_der_Waal_Energy-OPLS-2005>
129.988220214844

> <r_mmod_Electrostatic_Energy-OPLS-2005>
-382.735290527344

> <r_mmod_Solvation_Energy-OPLS-2005>
-205.512756347656

> <b_mmod_Minimization_Converged-OPLS-2005>
0

> <r_mmod_RMS_Derivative-OPLS-2005>
4.47303628921509

$$$$
84
                    3D
 Structure written by MMmdl.
162170  0  0  1  0            999 V2000
  -30.6169  -14.4135   20.6439 C   0  0  0  0  0  0
  -30.4094  -12.2883   19.3758 C   0  0  0  0  0  0
  -29.4517  -12.4840   18.1759 C   0  0  0  0  0  0
  -27.9766  -12.3330   18.5987 C   0  0  0  0  0  0
  -27.6430  -13.1682   19.8649 C   0  0  2  0  0  0
  -28.6729  -12.8559   20.9720 C   0  0  0  0  0  0
  -25.2432  -13.8045   20.5576 C   0  0  0  0  0  0
  -24.1730  -13.0375   20.9200 C   0  0  0  0  0  0
  -24.6258  -11.6846   20.8734 C   0  0  0  0  0  0
  -23.8939  -10.4234   21.0423 C   0  0  0  0  0  0
  -24.3541   -9.4150   21.9165 C   0  0  0  0  0  0
  -23.6238   -8.2177   22.0754 C   0  0  0  0  0  0
  -22.4217   -8.0215   21.3558 C   0  0  0  0  0  0
  -21.9832   -9.0169   20.4646 C   0  0  0  0  0  0
  -22.7134  -10.2044   20.3040 C   0  0  0  0  0  0
  -21.6826   -6.0692   22.5271 C   0  0  0  0  0  0
  -21.3994   -6.5603   23.8204 C   0  0  0  0  0  0
  -21.3646   -5.6756   24.9168 C   0  0  0  0  0  0
  -21.6075   -4.3035   24.7214 C   0  0  0  0  0  0
  -21.8826   -3.8118   23.4334 C   0  0  0  0  0  0
  -21.9180   -4.6928   22.3391 C   0  0  0  0  0  0
  -22.7733  -13.5151   21.1970 C   0  0  0  0  0  0
  -22.1625   -4.2099   21.0973 F   0  0  0  0  0  0
  -21.5664   -3.4539   25.7740 F   0  0  0  0  0  0
  -30.0100  -13.2107   20.4552 N   0  0  0  0  0  0
  -26.2851  -12.9160   20.3263 N   0  0  0  0  0  0
  -25.9146  -11.6355   20.5658 N   0  0  0  0  0  0
  -22.0386  -12.8154   22.0527 N   0  0  0  0  0  0
  -25.3982  -15.1776   20.3917 N   0  0  0  0  0  0
  -31.6957  -14.7229   20.1160 O   0  0  0  0  0  0
  -21.6619   -6.8814   21.4220 O   0  0  0  0  0  0
  -22.3380  -14.5422   20.6789 O   0  0  0  0  0  0
  -24.6098  -31.8727   23.2058 C   0  0  0  0  0  0
  -25.9022  -32.4841   23.8374 C   0  0  1  0  0  0
  -27.2542  -27.4774   20.0775 C   0  0  0  0  0  0
  -25.5888  -33.8632   24.2327 N   0  0  0  0  0  0
  -23.3992  -30.4889   21.5456 C   0  0  2  0  0  0
  -24.8461  -28.9495   20.1210 C   0  0  0  0  0  0
  -22.7427  -29.4675   22.4992 C   0  0  0  0  0  0
  -18.0296  -28.1401   22.8390 C   0  0  0  0  0  0
  -24.1492  -36.7340   23.2643 C   0  0  0  0  0  0
  -25.9174  -30.8479   21.3509 C   0  0  0  0  0  0
  -25.9990  -29.4802   20.7095 C   0  0  0  0  0  0
  -27.2046  -28.7490   20.6869 C   0  0  0  0  0  0
  -26.0764  -26.9477   19.4982 C   0  0  0  0  0  0
  -24.8750  -27.6801   19.5208 C   0  0  0  0  0  0
  -23.6081  -29.8134   20.1631 C   0  0  0  0  0  0
  -25.4103  -36.3119   24.0339 C   0  0  1  0  0  0
  -20.5880  -28.3655   23.1282 C   0  0  2  0  0  0
  -20.6736  -26.9405   22.5305 C   0  0  0  0  0  0
  -19.5739  -26.6473   21.5078 C   0  0  0  0  0  0
  -18.1917  -26.7956   22.1510 C   0  0  0  0  0  0
  -19.1528  -28.8822   23.2877 C   0  0  0  0  0  0
  -18.9427  -30.1424   23.8972 C   0  0  0  0  0  0
  -17.6438  -30.6555   24.0558 C   0  0  0  0  0  0
  -25.9014  -34.9485   23.5122 C   0  0  0  0  0  0
  -16.5320  -29.9024   23.6275 C   0  0  0  0  0  0
  -16.7275  -28.6505   23.0245 C   0  0  0  0  0  0
  -26.4452  -31.6595   25.0689 C   0  0  0  0  0  0
  -25.3734  -31.3701   26.1450 C   0  0  0  0  0  0
  -27.0276  -30.3053   24.6016 C   0  0  0  0  0  0
  -27.6028  -32.4312   25.7461 C   0  0  0  0  0  0
  -27.5573  -37.1831   24.8469 C   0  0  0  0  0  0
  -21.4166  -29.3035   22.3723 N   0  0  0  0  0  0
  -26.4290  -37.3796   23.9398 N   0  0  0  0  0  0
  -24.6606  -31.0829   22.0973 N   0  0  0  0  0  0
  -23.4199  -28.8251   23.3078 O   0  0  0  0  0  0
  -28.4670  -26.8301   20.0408 O   0  0  0  0  0  0
  -26.5579  -34.8947   22.4690 O   0  0  0  0  0  0
  -23.5316  -32.1459   23.7479 O   0  0  0  0  0  0
  -26.7359  -20.4684   22.2460 C   0  0  0  0  0  0
  -28.5059  -19.4605   20.3159 C   0  0  0  0  0  0
  -26.9954  -19.0855   22.1915 C   0  0  0  0  0  0
  -27.3276  -21.3468   21.3183 C   0  0  0  0  0  0
  -27.9021  -18.5716   21.2248 C   0  0  0  0  0  0
  -28.2150  -20.8384   20.3427 C   0  0  0  0  0  0
  -26.2550  -18.1920   23.1753 C   0  0  0  0  0  0
  -27.0193  -22.8234   21.3902 C   0  0  0  0  0  0
  -28.2175  -17.0794   21.0984 C   0  0  0  0  0  0
  -28.1929  -23.5961   22.0013 C   0  0  0  0  0  0
  -28.1429  -25.0897   21.6859 C   0  0  0  0  0  0
  -29.7268  -16.7277   21.1487 C   0  0  0  0  0  0
  -28.4897  -25.4200   20.2211 C   0  0  0  0  0  0
  -29.8437  -15.2768   21.3195 N   0  0  0  0  0  0
  -28.9468  -21.8695   19.1629 Cl  0  0  0  0  0  0
  -31.4352  -12.4576   19.0490 H   0  0  0  0  0  0
  -30.3493  -11.2497   19.7179 H   0  0  0  0  0  0
  -29.6761  -11.7637   17.3877 H   0  0  0  0  0  0
  -29.6056  -13.4653   17.7279 H   0  0  0  0  0  0
  -27.7961  -11.2704   18.7876 H   0  0  0  0  0  0
  -27.3073  -12.5783   17.7726 H   0  0  0  0  0  0
  -27.7111  -14.2259   19.6070 H   0  0  0  0  0  0
  -28.6539  -11.7798   21.1628 H   0  0  0  0  0  0
  -28.3918  -13.3291   21.9181 H   0  0  0  0  0  0
  -25.2718   -9.5632   22.4696 H   0  0  0  0  0  0
  -23.9971   -7.4562   22.7473 H   0  0  0  0  0  0
  -21.0769   -8.8675   19.8929 H   0  0  0  0  0  0
  -22.3622  -10.9577   19.6126 H   0  0  0  0  0  0
  -21.1963   -7.6111   23.9668 H   0  0  0  0  0  0
  -21.1471   -6.0513   25.9067 H   0  0  0  0  0  0
  -22.0623   -2.7581   23.2859 H   0  0  0  0  0  0
  -22.4029  -11.9858   22.4972 H   0  0  0  0  0  0
  -21.0942  -13.1051   22.2710 H   0  0  0  0  0  0
  -24.6015  -15.7890   20.5201 H   0  0  0  0  0  0
  -26.1968  -15.6457   19.9919 H   0  0  0  0  0  0
  -26.7100  -32.5579   23.1158 H   0  0  0  0  0  0
  -25.0042  -33.9785   25.0475 H   0  0  0  0  0  0
  -22.6858  -31.3030   21.3976 H   0  0  0  0  0  0
  -23.3722  -35.9705   23.3325 H   0  0  0  0  0  0
  -24.3583  -36.8929   22.2049 H   0  0  0  0  0  0
  -23.7269  -37.6573   23.6635 H   0  0  0  0  0  0
  -26.0096  -31.6046   20.5692 H   0  0  0  0  0  0
  -26.8129  -30.9152   21.9574 H   0  0  0  0  0  0
  -28.0990  -29.1580   21.1364 H   0  0  0  0  0  0
  -26.0797  -25.9913   19.0006 H   0  0  0  0  0  0
  -23.9865  -27.2603   19.0715 H   0  0  0  0  0  0
  -23.7191  -30.5819   19.3965 H   0  0  0  0  0  0
  -22.7343  -29.2283   19.8743 H   0  0  0  0  0  0
  -25.1274  -36.1986   25.0826 H   0  0  0  0  0  0
  -21.0039  -28.3197   24.1382 H   0  0  0  0  0  0
  -20.5569  -26.2218   23.3425 H   0  0  0  0  0  0
  -21.6636  -26.7468   22.1123 H   0  0  0  0  0  0
  -19.6900  -25.6406   21.1026 H   0  0  0  0  0  0
  -19.6714  -27.3373   20.6683 H   0  0  0  0  0  0
  -17.4184  -26.6678   21.3927 H   0  0  0  0  0  0
  -18.0277  -26.0139   22.8938 H   0  0  0  0  0  0
  -19.7873  -30.7231   24.2469 H   0  0  0  0  0  0
  -17.4920  -31.6224   24.5143 H   0  0  0  0  0  0
  -15.5309  -30.2868   23.7583 H   0  0  0  0  0  0
  -15.8760  -28.0750   22.6849 H   0  0  0  0  0  0
  -24.5896  -30.7054   25.7808 H   0  0  0  0  0  0
  -24.8936  -32.2854   26.4923 H   0  0  0  0  0  0
  -25.8105  -30.8865   27.0188 H   0  0  0  0  0  0
  -26.2802  -29.6824   24.1083 H   0  0  0  0  0  0
  -27.4101  -29.7281   25.4442 H   0  0  0  0  0  0
  -27.8604  -30.4418   23.9111 H   0  0  0  0  0  0
  -27.2633  -33.3588   26.2089 H   0  0  0  0  0  0
  -28.3807  -32.6909   25.0270 H   0  0  0  0  0  0
  -28.0716  -31.8395   26.5333 H   0  0  0  0  0  0
  -28.2618  -38.0107   24.7460 H   0  0  0  0  0  0
  -28.1040  -36.2624   24.6344 H   0  0  0  0  0  0
  -27.2295  -37.1548   25.8884 H   0  0  0  0  0  0
  -20.9335  -29.8737   21.6909 H   0  0  0  0  0  0
  -26.0185  -38.2890   24.1363 H   0  0  0  0  0  0
  -26.0578  -20.8611   22.9918 H   0  0  0  0  0  0
  -29.1886  -19.0934   19.5641 H   0  0  0  0  0  0
  -26.9108  -17.8558   23.9771 H   0  0  0  0  0  0
  -25.8220  -17.3270   22.6731 H   0  0  0  0  0  0
  -25.4218  -18.7213   23.6393 H   0  0  0  0  0  0
  -26.1139  -23.0011   21.9711 H   0  0  0  0  0  0
  -26.7810  -23.1747   20.3892 H   0  0  0  0  0  0
  -27.8011  -16.7362   20.1502 H   0  0  0  0  0  0
  -27.6981  -16.5097   21.8673 H   0  0  0  0  0  0
  -29.1382  -23.2053   21.6292 H   0  0  0  0  0  0
  -28.2101  -23.4268   23.0783 H   0  0  0  0  0  0
  -28.8637  -25.5944   22.3272 H   0  0  0  0  0  0
  -27.1575  -25.4757   21.9480 H   0  0  0  0  0  0
  -30.2317  -17.2600   21.9600 H   0  0  0  0  0  0
  -30.1994  -17.0293   20.2124 H   0  0  0  0  0  0
  -27.8495  -24.9052   19.5063 H   0  0  0  0  0  0
  -29.5035  -25.0767   20.0073 H   0  0  0  0  0  0
  -29.0588  -14.8460   21.7953 H   0  0  0  0  0  0
  1 25  1  0  0  0
  1 30  2  0  0  0
  1 84  1  0  0  0
  2  3  1  0  0  0
  2 25  1  0  0  0
  2 86  1  0  0  0
  2 87  1  0  0  0
  3  4  1  0  0  0
  3 88  1  0  0  0
  3 89  1  0  0  0
  4  5  1  0  0  0
  4 90  1  0  0  0
  4 91  1  0  0  0
  5  6  1  0  0  0
  5 26  1  0  0  0
  5 92  1  0  0  0
  6 25  1  0  0  0
  6 93  1  0  0  0
  6 94  1  0  0  0
  7  8  2  0  0  0
  7 26  1  0  0  0
  7 29  1  0  0  0
  8  9  1  0  0  0
  8 22  1  0  0  0
  9 10  1  0  0  0
  9 27  2  0  0  0
 10 11  2  0  0  0
 10 15  1  0  0  0
 11 12  1  0  0  0
 11 95  1  0  0  0
 12 13  2  0  0  0
 12 96  1  0  0  0
 13 14  1  0  0  0
 13 31  1  0  0  0
 14 15  2  0  0  0
 14 97  1  0  0  0
 15 98  1  0  0  0
 16 17  2  0  0  0
 16 21  1  0  0  0
 16 31  1  0  0  0
 17 18  1  0  0  0
 17 99  1  0  0  0
 18 19  2  0  0  0
 18100  1  0  0  0
 19 20  1  0  0  0
 19 24  1  0  0  0
 20 21  2  0  0  0
 20101  1  0  0  0
 21 23  1  0  0  0
 22 28  1  0  0  0
 22 32  2  0  0  0
 26 27  1  0  0  0
 28102  1  0  0  0
 28103  1  0  0  0
 29104  1  0  0  0
 29105  1  0  0  0
 33 34  1  0  0  0
 33 66  1  0  0  0
 33 70  2  0  0  0
 34 36  1  0  0  0
 34 59  1  0  0  0
 34106  1  0  0  0
 35 44  2  0  0  0
 35 45  1  0  0  0
 35 68  1  0  0  0
 36 56  1  0  0  0
 36107  1  0  0  0
 37 39  1  0  0  0
 37 47  1  0  0  0
 37 66  1  0  0  0
 37108  1  0  0  0
 38 43  2  0  0  0
 38 46  1  0  0  0
 38 47  1  0  0  0
 39 64  1  0  0  0
 39 67  2  0  0  0
 40 52  1  0  0  0
 40 53  2  0  0  0
 40 58  1  0  0  0
 41109  1  0  0  0
 41110  1  0  0  0
 41111  1  0  0  0
 41 48  1  0  0  0
 42 43  1  0  0  0
 42 66  1  0  0  0
 42112  1  0  0  0
 42113  1  0  0  0
 43 44  1  0  0  0
 44114  1  0  0  0
 45 46  2  0  0  0
 45115  1  0  0  0
 46116  1  0  0  0
 47117  1  0  0  0
 47118  1  0  0  0
 48 56  1  0  0  0
 48 65  1  0  0  0
 48119  1  0  0  0
 49 50  1  0  0  0
 49 53  1  0  0  0
 49 64  1  0  0  0
 49120  1  0  0  0
 50 51  1  0  0  0
 50121  1  0  0  0
 50122  1  0  0  0
 51 52  1  0  0  0
 51123  1  0  0  0
 51124  1  0  0  0
 52125  1  0  0  0
 52126  1  0  0  0
 53 54  1  0  0  0
 54 55  2  0  0  0
 54127  1  0  0  0
 55 57  1  0  0  0
 55128  1  0  0  0
 56 69  2  0  0  0
 57 58  2  0  0  0
 57129  1  0  0  0
 58130  1  0  0  0
 59 60  1  0  0  0
 59 61  1  0  0  0
 59 62  1  0  0  0
 60131  1  0  0  0
 60132  1  0  0  0
 60133  1  0  0  0
 61134  1  0  0  0
 61135  1  0  0  0
 61136  1  0  0  0
 62137  1  0  0  0
 62138  1  0  0  0
 62139  1  0  0  0
 63 65  1  0  0  0
 63140  1  0  0  0
 63141  1  0  0  0
 63142  1  0  0  0
 64143  1  0  0  0
 65144  1  0  0  0
 68 83  1  0  0  0
 71 73  2  0  0  0
 71 74  1  0  0  0
 71145  1  0  0  0
 72 75  2  0  0  0
 72 76  1  0  0  0
 72146  1  0  0  0
 73 75  1  0  0  0
 73 77  1  0  0  0
 74 76  2  0  0  0
 74 78  1  0  0  0
 75 79  1  0  0  0
 76 85  1  0  0  0
 77147  1  0  0  0
 77148  1  0  0  0
 77149  1  0  0  0
 78 80  1  0  0  0
 78150  1  0  0  0
 78151  1  0  0  0
 79 82  1  0  0  0
 79152  1  0  0  0
 79153  1  0  0  0
 80 81  1  0  0  0
 80154  1  0  0  0
 80155  1  0  0  0
 81 83  1  0  0  0
 81156  1  0  0  0
 81157  1  0  0  0
 82 84  1  0  0  0
 82158  1  0  0  0
 82159  1  0  0  0
 83160  1  0  0  0
 83161  1  0  0  0
 84162  1  0  0  0
M  ISO  4   1 100  68 101  83 101  84 100
M  END
> <chiral flag>
0

> <version>
0

> <s_m_source_file>
/data/baiqing/PycharmProjects/Reinvent-master-3.2/result/LINK_invent/BTK/process_docking_weight1_custom_sum_contain_oxygen_bond_distance_aromatic_linkinvent_7_9_3/rearranged_h_0032.sdf

> <i_m_source_file_index>
85

> <r_mmod_Potential_Energy-OPLS-2005>
-62.8808937072754

> <r_mmod_Stretch_Energy-OPLS-2005>
33.7365684509277

> <r_mmod_Bend_Energy-OPLS-2005>
97.8308639526367

> <r_mmod_Torsional_Energy-OPLS-2005>
213.890655517578

> <r_mmod_Improper_Torsional_Energy-OPLS-2005>
5.171217918396

> <r_mmod_Van_der_Waal_Energy-OPLS-2005>
151.2744140625

> <r_mmod_Electrostatic_Energy-OPLS-2005>
-377.547302246094

> <r_mmod_Solvation_Energy-OPLS-2005>
-201.82112121582

> <b_mmod_Minimization_Converged-OPLS-2005>
0

> <r_mmod_RMS_Derivative-OPLS-2005>
10.0501985549927

$$$$
85
                    3D
 Structure written by MMmdl.
173182  0  0  1  0            999 V2000
  -30.7287  -14.5145   20.6357 C   0  0  0  0  0  0
  -30.4262  -12.3534   19.4410 C   0  0  0  0  0  0
  -29.5007  -12.5347   18.2175 C   0  0  0  0  0  0
  -28.0184  -12.3868   18.6143 C   0  0  0  0  0  0
  -27.6617  -13.2095   19.8791 C   0  0  2  0  0  0
  -28.7029  -12.9509   20.9855 C   0  0  0  0  0  0
  -25.2587  -13.8156   20.5702 C   0  0  0  0  0  0
  -24.1835  -13.0424   20.9185 C   0  0  0  0  0  0
  -24.6399  -11.6894   20.8730 C   0  0  0  0  0  0
  -23.9075  -10.4279   21.0395 C   0  0  0  0  0  0
  -24.3624   -9.4192   21.9174 C   0  0  0  0  0  0
  -23.6292   -8.2239   22.0758 C   0  0  0  0  0  0
  -22.4272   -8.0286   21.3549 C   0  0  0  0  0  0
  -21.9910   -9.0258   20.4643 C   0  0  0  0  0  0
  -22.7246  -10.2130   20.3047 C   0  0  0  0  0  0
  -21.6854   -6.0737   22.5285 C   0  0  0  0  0  0
  -21.4011   -6.5642   23.8214 C   0  0  0  0  0  0
  -21.3659   -5.6796   24.9176 C   0  0  0  0  0  0
  -21.6041   -4.3059   24.7229 C   0  0  0  0  0  0
  -21.8814   -3.8149   23.4353 C   0  0  0  0  0  0
  -21.9192   -4.6966   22.3407 C   0  0  0  0  0  0
  -22.7862  -13.5219   21.1856 C   0  0  0  0  0  0
  -22.1661   -4.2148   21.0985 F   0  0  0  0  0  0
  -21.5621   -3.4540   25.7739 F   0  0  0  0  0  0
  -30.0288  -13.3388   20.4753 N   0  0  0  0  0  0
  -26.3023  -12.9329   20.3370 N   0  0  0  0  0  0
  -25.9322  -11.6481   20.5745 N   0  0  0  0  0  0
  -22.0516  -12.8203   22.0420 N   0  0  0  0  0  0
  -25.4301  -15.1875   20.4137 N   0  0  0  0  0  0
  -31.8063  -14.6305   20.0430 O   0  0  0  0  0  0
  -21.6638   -6.8885   21.4249 O   0  0  0  0  0  0
  -22.3535  -14.5525   20.6706 O   0  0  0  0  0  0
  -24.6166  -31.8671   23.2104 C   0  0  0  0  0  0
  -25.9051  -32.4824   23.8406 C   0  0  1  0  0  0
  -27.2286  -27.4131   20.1050 C   0  0  0  0  0  0
  -25.5892  -33.8621   24.2326 N   0  0  0  0  0  0
  -23.4062  -30.4929   21.5498 C   0  0  2  0  0  0
  -24.8554  -28.9634   20.1087 C   0  0  0  0  0  0
  -22.7421  -29.4654   22.4955 C   0  0  0  0  0  0
  -18.0274  -28.1372   22.8488 C   0  0  0  0  0  0
  -24.1481  -36.7316   23.2636 C   0  0  0  0  0  0
  -25.9393  -30.8282   21.3686 C   0  0  0  0  0  0
  -26.0181  -29.4636   20.7101 C   0  0  0  0  0  0
  -27.2110  -28.6973   20.7034 C   0  0  0  0  0  0
  -26.0541  -26.9485   19.4723 C   0  0  0  0  0  0
  -24.8698  -27.7060   19.4839 C   0  0  0  0  0  0
  -23.6172  -29.8305   20.1627 C   0  0  0  0  0  0
  -25.4102  -36.3111   24.0333 C   0  0  1  0  0  0
  -20.5865  -28.3665   23.1300 C   0  0  2  0  0  0
  -20.6757  -26.9396   22.5409 C   0  0  0  0  0  0
  -19.5738  -26.6376   21.5201 C   0  0  0  0  0  0
  -18.1921  -26.7917   22.1620 C   0  0  0  0  0  0
  -19.1524  -28.8833   23.2894 C   0  0  0  0  0  0
  -18.9455  -30.1436   23.8912 C   0  0  0  0  0  0
  -17.6458  -30.6579   24.0561 C   0  0  0  0  0  0
  -25.9028  -34.9473   23.5128 C   0  0  0  0  0  0
  -16.5347  -29.9084   23.6323 C   0  0  0  0  0  0
  -16.7262  -28.6496   23.0351 C   0  0  0  0  0  0
  -26.4466  -31.6613   25.0746 C   0  0  0  0  0  0
  -25.3722  -31.3727   26.1484 C   0  0  0  0  0  0
  -27.0309  -30.3052   24.6148 C   0  0  0  0  0  0
  -27.6031  -32.4338   25.7520 C   0  0  0  0  0  0
  -27.5580  -37.1811   24.8461 C   0  0  0  0  0  0
  -21.4143  -29.3041   22.3706 N   0  0  0  0  0  0
  -26.4289  -37.3799   23.9411 N   0  0  0  0  0  0
  -24.6723  -31.0757   22.1017 N   0  0  0  0  0  0
  -23.4186  -28.8185   23.2991 O   0  0  0  0  0  0
  -28.3488  -26.5998   20.1497 O   0  0  0  0  0  0
  -26.5597  -34.8928   22.4695 O   0  0  0  0  0  0
  -23.5351  -32.1423   23.7484 O   0  0  0  0  0  0
  -30.0440  -19.2384   20.8103 C   0  0  0  0  0  0
  -30.6751  -19.1728   22.0861 C   0  0  0  0  0  0
  -29.4420  -20.4750   20.3932 C   0  0  0  0  0  0
  -29.3523  -21.5914   21.2810 C   0  0  0  0  0  0
  -30.0041  -21.5119   22.5380 C   0  0  0  0  0  0
  -30.6603  -20.3195   22.9222 C   0  0  0  0  0  0
  -29.9965  -17.9887   19.9038 C   0  0  0  0  0  0
  -31.4126  -17.9375   22.6445 C   0  0  0  0  0  0
  -29.3669  -16.7242   20.5522 C   0  0  0  0  0  0
  -31.5530  -16.6265   21.8323 C   0  0  0  0  0  0
  -30.2642  -15.8091   21.4525 C   0  0  2  0  0  0
  -28.8760  -20.6142   18.9813 C   0  0  0  0  0  0
  -29.9978  -22.6797   23.5263 C   0  0  0  0  0  0
  -30.1385  -14.5454   23.7746 C   0  0  0  0  0  0
  -28.4256  -22.7970   20.9820 C   0  0  0  0  0  0
  -29.4867  -15.5268   22.7794 C   0  0  0  0  0  0
  -29.0470  -24.1401   20.4810 C   0  0  0  0  0  0
  -28.1102  -25.3373   20.8227 C   0  0  0  0  0  0
  -31.4273  -20.2585   24.4808 Cl  0  0  0  0  0  0
  -31.4688  -12.4461   19.1341 H   0  0  0  0  0  0
  -30.3431  -11.3386   19.8335 H   0  0  0  0  0  0
  -29.7526  -11.8093   17.4431 H   0  0  0  0  0  0
  -29.6655  -13.5208   17.7810 H   0  0  0  0  0  0
  -27.8279  -11.3290   18.7971 H   0  0  0  0  0  0
  -27.3729  -12.6735   17.7836 H   0  0  0  0  0  0
  -27.7088  -14.2618   19.6053 H   0  0  0  0  0  0
  -28.7113  -11.8865   21.2236 H   0  0  0  0  0  0
  -28.4110  -13.3888   21.9242 H   0  0  0  0  0  0
  -25.2775   -9.5657   22.4741 H   0  0  0  0  0  0
  -23.9991   -7.4625   22.7479 H   0  0  0  0  0  0
  -21.0840   -8.8788   19.8946 H   0  0  0  0  0  0
  -22.3721  -10.9671   19.6154 H   0  0  0  0  0  0
  -21.2016   -7.6150   23.9718 H   0  0  0  0  0  0
  -21.1478   -6.0528   25.9077 H   0  0  0  0  0  0
  -22.0598   -2.7616   23.2857 H   0  0  0  0  0  0
  -22.4156  -11.9854   22.4764 H   0  0  0  0  0  0
  -21.1139  -13.1219   22.2655 H   0  0  0  0  0  0
  -24.6657  -15.8442   20.5272 H   0  0  0  0  0  0
  -26.2902  -15.6291   20.1148 H   0  0  0  0  0  0
  -26.7126  -32.5528   23.1173 H   0  0  0  0  0  0
  -25.0036  -33.9783   25.0465 H   0  0  0  0  0  0
  -22.6959  -31.3109   21.4115 H   0  0  0  0  0  0
  -23.3747  -35.9645   23.3295 H   0  0  0  0  0  0
  -24.3578  -36.8939   22.2053 H   0  0  0  0  0  0
  -23.7229  -37.6515   23.6660 H   0  0  0  0  0  0
  -26.0563  -31.5982   20.6041 H   0  0  0  0  0  0
  -26.8247  -30.8779   21.9915 H   0  0  0  0  0  0
  -28.1040  -29.0733   21.1833 H   0  0  0  0  0  0
  -26.0448  -25.9868   18.9796 H   0  0  0  0  0  0
  -23.9791  -27.3181   19.0090 H   0  0  0  0  0  0
  -23.7262  -30.6081   19.4057 H   0  0  0  0  0  0
  -22.7409  -29.2520   19.8646 H   0  0  0  0  0  0
  -25.1278  -36.1976   25.0826 H   0  0  0  0  0  0
  -20.9967  -28.3233   24.1414 H   0  0  0  0  0  0
  -20.5635  -26.2274   23.3600 H   0  0  0  0  0  0
  -21.6632  -26.7419   22.1217 H   0  0  0  0  0  0
  -19.6897  -25.6287   21.1226 H   0  0  0  0  0  0
  -19.6676  -27.3185   20.6730 H   0  0  0  0  0  0
  -17.4185  -26.6661   21.4029 H   0  0  0  0  0  0
  -18.0330  -26.0054   22.9015 H   0  0  0  0  0  0
  -19.7935  -30.7242   24.2292 H   0  0  0  0  0  0
  -17.5021  -31.6264   24.5156 H   0  0  0  0  0  0
  -15.5350  -30.2997   23.7635 H   0  0  0  0  0  0
  -15.8659  -28.0815   22.7072 H   0  0  0  0  0  0
  -24.5886  -30.7084   25.7823 H   0  0  0  0  0  0
  -24.8918  -32.2885   26.4939 H   0  0  0  0  0  0
  -25.8058  -30.8891   27.0245 H   0  0  0  0  0  0
  -26.2878  -29.6823   24.1153 H   0  0  0  0  0  0
  -27.4016  -29.7282   25.4632 H   0  0  0  0  0  0
  -27.8738  -30.4370   23.9359 H   0  0  0  0  0  0
  -27.2637  -33.3622   26.2127 H   0  0  0  0  0  0
  -28.3833  -32.6925   25.0350 H   0  0  0  0  0  0
  -28.0711  -31.8448   26.5419 H   0  0  0  0  0  0
  -28.2587  -38.0121   24.7530 H   0  0  0  0  0  0
  -28.1087  -36.2651   24.6259 H   0  0  0  0  0  0
  -27.2299  -37.1427   25.8864 H   0  0  0  0  0  0
  -20.9289  -29.8803   21.6972 H   0  0  0  0  0  0
  -26.0175  -38.2873   24.1431 H   0  0  0  0  0  0
  -30.9769  -17.7961   19.4699 H   0  0  0  0  0  0
  -29.3727  -18.1757   19.0352 H   0  0  0  0  0  0
  -31.0095  -17.7107   23.6301 H   0  0  0  0  0  0
  -32.4323  -18.2695   22.8418 H   0  0  0  0  0  0
  -28.9862  -16.1195   19.7293 H   0  0  0  0  0  0
  -28.4675  -17.0373   21.0828 H   0  0  0  0  0  0
  -32.1989  -15.9708   22.4174 H   0  0  0  0  0  0
  -32.1655  -16.8529   20.9606 H   0  0  0  0  0  0
  -29.5318  -20.1503   18.2447 H   0  0  0  0  0  0
  -28.8000  -21.6518   18.6588 H   0  0  0  0  0  0
  -27.8876  -20.1582   18.9147 H   0  0  0  0  0  0
  -29.6154  -23.6147   23.1266 H   0  0  0  0  0  0
  -31.0128  -22.8945   23.8617 H   0  0  0  0  0  0
  -29.4002  -22.4257   24.4024 H   0  0  0  0  0  0
  -29.4955  -14.4028   24.6440 H   0  0  0  0  0  0
  -31.0914  -14.9228   24.1452 H   0  0  0  0  0  0
  -30.3175  -13.5624   23.3414 H   0  0  0  0  0  0
  -27.8728  -22.9891   21.9020 H   0  0  0  0  0  0
  -27.6264  -22.5021   20.3030 H   0  0  0  0  0  0
  -28.4546  -15.2586   22.5759 H   0  0  0  0  0  0
  -29.3281  -16.4613   23.3127 H   0  0  0  0  0  0
  -29.2206  -24.0814   19.4063 H   0  0  0  0  0  0
  -30.0212  -24.3107   20.9404 H   0  0  0  0  0  0
  -28.1722  -25.5277   21.8957 H   0  0  0  0  0  0
  -27.0901  -24.9885   20.6643 H   0  0  0  0  0  0
  1 25  1  0  0  0
  1 30  2  0  0  0
  1 81  1  0  0  0
  2  3  1  0  0  0
  2 25  1  0  0  0
  2 90  1  0  0  0
  2 91  1  0  0  0
  3  4  1  0  0  0
  3 92  1  0  0  0
  3 93  1  0  0  0
  4  5  1  0  0  0
  4 94  1  0  0  0
  4 95  1  0  0  0
  5  6  1  0  0  0
  5 26  1  0  0  0
  5 96  1  0  0  0
  6 25  1  0  0  0
  6 97  1  0  0  0
  6 98  1  0  0  0
  7  8  2  0  0  0
  7 26  1  0  0  0
  7 29  1  0  0  0
  8  9  1  0  0  0
  8 22  1  0  0  0
  9 10  1  0  0  0
  9 27  2  0  0  0
 10 11  2  0  0  0
 10 15  1  0  0  0
 11 12  1  0  0  0
 11 99  1  0  0  0
 12 13  2  0  0  0
 12100  1  0  0  0
 13 14  1  0  0  0
 13 31  1  0  0  0
 14 15  2  0  0  0
 14101  1  0  0  0
 15102  1  0  0  0
 16 17  2  0  0  0
 16 21  1  0  0  0
 16 31  1  0  0  0
 17 18  1  0  0  0
 17103  1  0  0  0
 18 19  2  0  0  0
 18104  1  0  0  0
 19 20  1  0  0  0
 19 24  1  0  0  0
 20 21  2  0  0  0
 20105  1  0  0  0
 21 23  1  0  0  0
 22 28  1  0  0  0
 22 32  2  0  0  0
 26 27  1  0  0  0
 28106  1  0  0  0
 28107  1  0  0  0
 29108  1  0  0  0
 29109  1  0  0  0
 33 34  1  0  0  0
 33 66  1  0  0  0
 33 70  2  0  0  0
 34 36  1  0  0  0
 34 59  1  0  0  0
 34110  1  0  0  0
 35 44  2  0  0  0
 35 45  1  0  0  0
 35 68  1  0  0  0
 36 56  1  0  0  0
 36111  1  0  0  0
 37 39  1  0  0  0
 37 47  1  0  0  0
 37 66  1  0  0  0
 37112  1  0  0  0
 38 43  2  0  0  0
 38 46  1  0  0  0
 38 47  1  0  0  0
 39 64  1  0  0  0
 39 67  2  0  0  0
 40 52  1  0  0  0
 40 53  2  0  0  0
 40 58  1  0  0  0
 41113  1  0  0  0
 41114  1  0  0  0
 41115  1  0  0  0
 41 48  1  0  0  0
 42 43  1  0  0  0
 42 66  1  0  0  0
 42116  1  0  0  0
 42117  1  0  0  0
 43 44  1  0  0  0
 44118  1  0  0  0
 45 46  2  0  0  0
 45119  1  0  0  0
 46120  1  0  0  0
 47121  1  0  0  0
 47122  1  0  0  0
 48 56  1  0  0  0
 48 65  1  0  0  0
 48123  1  0  0  0
 49 50  1  0  0  0
 49 53  1  0  0  0
 49 64  1  0  0  0
 49124  1  0  0  0
 50 51  1  0  0  0
 50125  1  0  0  0
 50126  1  0  0  0
 51 52  1  0  0  0
 51127  1  0  0  0
 51128  1  0  0  0
 52129  1  0  0  0
 52130  1  0  0  0
 53 54  1  0  0  0
 54 55  2  0  0  0
 54131  1  0  0  0
 55 57  1  0  0  0
 55132  1  0  0  0
 56 69  2  0  0  0
 57 58  2  0  0  0
 57133  1  0  0  0
 58134  1  0  0  0
 59 60  1  0  0  0
 59 61  1  0  0  0
 59 62  1  0  0  0
 60135  1  0  0  0
 60136  1  0  0  0
 60137  1  0  0  0
 61138  1  0  0  0
 61139  1  0  0  0
 61140  1  0  0  0
 62141  1  0  0  0
 62142  1  0  0  0
 62143  1  0  0  0
 63 65  1  0  0  0
 63144  1  0  0  0
 63145  1  0  0  0
 63146  1  0  0  0
 64147  1  0  0  0
 65148  1  0  0  0
 68 88  1  0  0  0
 71 72  1  0  0  0
 71 73  2  0  0  0
 71 77  1  0  0  0
 72 76  2  0  0  0
 72 78  1  0  0  0
 73 74  1  0  0  0
 73 82  1  0  0  0
 74 75  2  0  0  0
 74 85  1  0  0  0
 75 76  1  0  0  0
 75 83  1  0  0  0
 76 89  1  0  0  0
 77 79  1  0  0  0
 77149  1  0  0  0
 77150  1  0  0  0
 78 80  1  0  0  0
 78151  1  0  0  0
 78152  1  0  0  0
 79 81  1  0  0  0
 79153  1  0  0  0
 79154  1  0  0  0
 80 81  1  0  0  0
 80155  1  0  0  0
 80156  1  0  0  0
 81 86  1  0  0  0
 82157  1  0  0  0
 82158  1  0  0  0
 82159  1  0  0  0
 83160  1  0  0  0
 83161  1  0  0  0
 83162  1  0  0  0
 84 86  1  0  0  0
 84163  1  0  0  0
 84164  1  0  0  0
 84165  1  0  0  0
 85 87  1  0  0  0
 85166  1  0  0  0
 85167  1  0  0  0
 86168  1  0  0  0
 86169  1  0  0  0
 87 88  1  0  0  0
 87170  1  0  0  0
 87171  1  0  0  0
 88172  1  0  0  0
 88173  1  0  0  0
M  ISO  4   1 100  68 101  81 100  88 101
M  END
> <chiral flag>
0

> <version>
0

> <s_m_source_file>
/data/baiqing/PycharmProjects/Reinvent-master-3.2/result/LINK_invent/BTK/process_docking_weight1_custom_sum_contain_oxygen_bond_distance_aromatic_linkinvent_7_9_3/rearranged_h_0032.sdf

> <i_m_source_file_index>
86

> <r_mmod_Potential_Energy-OPLS-2005>
173.917663574219

> <r_mmod_Stretch_Energy-OPLS-2005>
66.4200439453125

> <r_mmod_Bend_Energy-OPLS-2005>
163.46142578125

> <r_mmod_Torsional_Energy-OPLS-2005>
234.808883666992

> <r_mmod_Improper_Torsional_Energy-OPLS-2005>
2.7299337387085

> <r_mmod_Van_der_Waal_Energy-OPLS-2005>
197.021881103516

> <r_mmod_Electrostatic_Energy-OPLS-2005>
-332.737884521484

> <r_mmod_Solvation_Energy-OPLS-2005>
-176.225112915039

> <b_mmod_Minimization_Converged-OPLS-2005>
0

> <r_mmod_RMS_Derivative-OPLS-2005>
1.17320764064789

$$$$
86
                    3D
 Structure written by MMmdl.
153161  0  0  1  0            999 V2000
  -30.5350  -14.9604   20.3966 C   0  0  0  0  0  0
  -30.4370  -12.5920   19.4911 C   0  0  0  0  0  0
  -29.5178  -12.5323   18.2499 C   0  0  0  0  0  0
  -28.0492  -12.3183   18.6629 C   0  0  0  0  0  0
  -27.6248  -13.2509   19.8281 C   0  0  2  0  0  0
  -28.6691  -13.2807   20.9604 C   0  0  0  0  0  0
  -25.2429  -13.8253   20.5664 C   0  0  0  0  0  0
  -24.1761  -13.0479   20.9218 C   0  0  0  0  0  0
  -24.6370  -11.6957   20.8745 C   0  0  0  0  0  0
  -23.9064  -10.4314   21.0386 C   0  0  0  0  0  0
  -24.3619   -9.4234   21.9170 C   0  0  0  0  0  0
  -23.6286   -8.2270   22.0729 C   0  0  0  0  0  0
  -22.4271   -8.0296   21.3521 C   0  0  0  0  0  0
  -21.9918   -9.0259   20.4615 C   0  0  0  0  0  0
  -22.7239  -10.2135   20.3026 C   0  0  0  0  0  0
  -21.6875   -6.0716   22.5271 C   0  0  0  0  0  0
  -21.4031   -6.5614   23.8207 C   0  0  0  0  0  0
  -21.3683   -5.6766   24.9175 C   0  0  0  0  0  0
  -21.6060   -4.3024   24.7231 C   0  0  0  0  0  0
  -21.8824   -3.8118   23.4343 C   0  0  0  0  0  0
  -21.9202   -4.6939   22.3401 C   0  0  0  0  0  0
  -22.7766  -13.5216   21.1908 C   0  0  0  0  0  0
  -22.1670   -4.2123   21.0976 F   0  0  0  0  0  0
  -21.5647   -3.4513   25.7734 F   0  0  0  0  0  0
  -29.9410  -13.6983   20.3606 N   0  0  0  0  0  0
  -26.2847  -12.9482   20.3175 N   0  0  0  0  0  0
  -25.9300  -11.6609   20.5707 N   0  0  0  0  0  0
  -22.0429  -12.8176   22.0458 N   0  0  0  0  0  0
  -25.4076  -15.1980   20.3995 N   0  0  0  0  0  0
  -31.7445  -15.0157   20.1570 O   0  0  0  0  0  0
  -21.6647   -6.8868   21.4230 O   0  0  0  0  0  0
  -22.3420  -14.5503   20.6740 O   0  0  0  0  0  0
  -24.6497  -31.8426   23.1900 C   0  0  0  0  0  0
  -25.9286  -32.4670   23.8263 C   0  0  1  0  0  0
  -27.1926  -27.1074   20.1299 C   0  0  0  0  0  0
  -25.6045  -33.8487   24.2209 N   0  0  0  0  0  0
  -23.4494  -30.4656   21.5388 C   0  0  2  0  0  0
  -24.8889  -28.8939   20.1018 C   0  0  0  0  0  0
  -22.7595  -29.4541   22.4892 C   0  0  0  0  0  0
  -18.0313  -28.1404   22.8461 C   0  0  0  0  0  0
  -24.1514  -36.7256   23.2633 C   0  0  0  0  0  0
  -26.0066  -30.6996   21.3939 C   0  0  0  0  0  0
  -26.0692  -29.3118   20.7299 C   0  0  0  0  0  0
  -27.2218  -28.4344   20.7303 C   0  0  0  0  0  0
  -25.9864  -26.7954   19.4667 C   0  0  0  0  0  0
  -24.8641  -27.6507   19.4540 C   0  0  0  0  0  0
  -23.6722  -29.8074   20.1521 C   0  0  0  0  0  0
  -25.4153  -36.3040   24.0321 C   0  0  1  0  0  0
  -20.5918  -28.3717   23.1260 C   0  0  2  0  0  0
  -20.6831  -26.9433   22.5422 C   0  0  0  0  0  0
  -19.5804  -26.6380   21.5243 C   0  0  0  0  0  0
  -18.1964  -26.7938   22.1608 C   0  0  0  0  0  0
  -19.1566  -28.8887   23.2835 C   0  0  0  0  0  0
  -18.9468  -30.1476   23.8871 C   0  0  0  0  0  0
  -17.6461  -30.6593   24.0555 C   0  0  0  0  0  0
  -25.9101  -34.9405   23.5067 C   0  0  0  0  0  0
  -16.5357  -29.9071   23.6334 C   0  0  0  0  0  0
  -16.7287  -28.6498   23.0335 C   0  0  0  0  0  0
  -26.4560  -31.6514   25.0704 C   0  0  0  0  0  0
  -25.3722  -31.3708   26.1372 C   0  0  0  0  0  0
  -27.0441  -30.2918   24.6283 C   0  0  0  0  0  0
  -27.6109  -32.4237   25.7505 C   0  0  0  0  0  0
  -27.5608  -37.1805   24.8464 C   0  0  0  0  0  0
  -21.4285  -29.3035   22.3641 N   0  0  0  0  0  0
  -26.4318  -37.3754   23.9403 N   0  0  0  0  0  0
  -24.7223  -31.0227   22.0967 N   0  0  0  0  0  0
  -23.4235  -28.8083   23.3049 O   0  0  0  0  0  0
  -28.2307  -26.1007   20.1855 O   0  0  0  0  0  0
  -26.5631  -34.8899   22.4608 O   0  0  0  0  0  0
  -23.5618  -32.1337   23.7117 O   0  0  0  0  0  0
  -27.3518  -21.2527   19.5747 C   0  0  0  0  0  0
  -29.4931  -20.4532   20.3641 C   0  0  0  0  0  0
  -28.6183  -21.6246   20.0721 C   0  0  0  0  0  0
  -26.9818  -19.8948   19.3726 C   0  0  0  0  0  0
  -29.1514  -19.0109   20.1922 C   0  0  0  0  0  0
  -27.8475  -18.8059   19.6797 C   0  0  0  0  0  0
  -25.6144  -19.5978   18.7792 C   0  0  0  0  0  0
  -28.9729  -23.2434   20.2348 C   0  0  0  0  0  0
  -30.1295  -17.6956   20.4783 C   0  0  0  0  0  0
  -27.9358  -24.5691   19.9982 C   0  0  0  0  0  0
  -29.7542  -16.1505   20.4930 N   0  0  0  0  0  0
  -27.4152  -17.5393   19.4557 F   0  0  0  0  0  0
  -31.4696  -12.7528   19.1738 H   0  0  0  0  0  0
  -30.4296  -11.6413   20.0276 H   0  0  0  0  0  0
  -29.8445  -11.7454   17.5705 H   0  0  0  0  0  0
  -29.6035  -13.4699   17.6996 H   0  0  0  0  0  0
  -27.9272  -11.2747   18.9559 H   0  0  0  0  0  0
  -27.3898  -12.4740   17.8065 H   0  0  0  0  0  0
  -27.5819  -14.2511   19.3991 H   0  0  0  0  0  0
  -28.7590  -12.2989   21.4232 H   0  0  0  0  0  0
  -28.3657  -13.9707   21.7497 H   0  0  0  0  0  0
  -25.2786   -9.5721   22.4730 H   0  0  0  0  0  0
  -24.0026   -7.4655   22.7407 H   0  0  0  0  0  0
  -21.0890   -8.8756   19.8865 H   0  0  0  0  0  0
  -22.3723  -10.9665   19.6104 H   0  0  0  0  0  0
  -21.2014   -7.6113   23.9713 H   0  0  0  0  0  0
  -21.1515   -6.0484   25.9086 H   0  0  0  0  0  0
  -22.0583   -2.7565   23.2850 H   0  0  0  0  0  0
  -22.4072  -11.9896   22.4942 H   0  0  0  0  0  0
  -21.0995  -13.1092   22.2592 H   0  0  0  0  0  0
  -24.6340  -15.8467   20.5040 H   0  0  0  0  0  0
  -26.2354  -15.6441   20.0253 H   0  0  0  0  0  0
  -26.7342  -32.5231   23.0961 H   0  0  0  0  0  0
  -25.0281  -33.9576   25.0417 H   0  0  0  0  0  0
  -22.7528  -31.2935   21.3952 H   0  0  0  0  0  0
  -23.3806  -35.9558   23.3270 H   0  0  0  0  0  0
  -24.3598  -36.8901   22.2054 H   0  0  0  0  0  0
  -23.7232  -37.6443   23.6652 H   0  0  0  0  0  0
  -26.1688  -31.4579   20.6260 H   0  0  0  0  0  0
  -26.8771  -30.7391   22.0379 H   0  0  0  0  0  0
  -28.1127  -28.7402   21.2597 H   0  0  0  0  0  0
  -25.8659  -25.8455   18.9680 H   0  0  0  0  0  0
  -23.9660  -27.3320   18.9415 H   0  0  0  0  0  0
  -23.8170  -30.5934   19.4091 H   0  0  0  0  0  0
  -22.7784  -29.2673   19.8331 H   0  0  0  0  0  0
  -25.1345  -36.1888   25.0815 H   0  0  0  0  0  0
  -20.9968  -28.3312   24.1396 H   0  0  0  0  0  0
  -20.5819  -26.2320   23.3626 H   0  0  0  0  0  0
  -21.6684  -26.7510   22.1163 H   0  0  0  0  0  0
  -19.6994  -25.6290   21.1283 H   0  0  0  0  0  0
  -19.6782  -27.3193   20.6781 H   0  0  0  0  0  0
  -17.4268  -26.6702   21.3969 H   0  0  0  0  0  0
  -18.0313  -26.0079   22.8997 H   0  0  0  0  0  0
  -19.7938  -30.7304   24.2240 H   0  0  0  0  0  0
  -17.5003  -31.6271   24.5151 H   0  0  0  0  0  0
  -15.5345  -30.2952   23.7710 H   0  0  0  0  0  0
  -15.8678  -28.0824   22.7052 H   0  0  0  0  0  0
  -24.5946  -30.6996   25.7677 H   0  0  0  0  0  0
  -24.8842  -32.2887   26.4662 H   0  0  0  0  0  0
  -25.7967  -30.8970   27.0230 H   0  0  0  0  0  0
  -26.3060  -29.6603   24.1315 H   0  0  0  0  0  0
  -27.4116  -29.7218   25.4824 H   0  0  0  0  0  0
  -27.8928  -30.4166   23.9563 H   0  0  0  0  0  0
  -27.2743  -33.3565   26.2019 H   0  0  0  0  0  0
  -28.3967  -32.6722   25.0366 H   0  0  0  0  0  0
  -28.0704  -31.8382   26.5471 H   0  0  0  0  0  0
  -28.2603  -38.0124   24.7531 H   0  0  0  0  0  0
  -28.1135  -36.2659   24.6277 H   0  0  0  0  0  0
  -27.2310  -37.1419   25.8857 H   0  0  0  0  0  0
  -20.9544  -29.8700   21.6754 H   0  0  0  0  0  0
  -26.0212  -38.2843   24.1359 H   0  0  0  0  0  0
  -26.6400  -22.0273   19.3248 H   0  0  0  0  0  0
  -30.4837  -20.6721   20.7356 H   0  0  0  0  0  0
  -25.0707  -20.5163   18.5502 H   0  0  0  0  0  0
  -25.0054  -19.0165   19.4724 H   0  0  0  0  0  0
  -25.7188  -19.0330   17.8501 H   0  0  0  0  0  0
  -29.8197  -23.4090   19.5664 H   0  0  0  0  0  0
  -29.3908  -23.3411   21.2355 H   0  0  0  0  0  0
  -30.5806  -17.8900   21.4521 H   0  0  0  0  0  0
  -30.9546  -17.7873   19.7713 H   0  0  0  0  0  0
  -27.0577  -24.3662   20.6118 H   0  0  0  0  0  0
  -27.5872  -24.4712   18.9709 H   0  0  0  0  0  0
  -28.7675  -15.9772   20.5961 H   0  0  0  0  0  0
  1 25  1  0  0  0
  1 30  2  0  0  0
  1 81  1  0  0  0
  2  3  1  0  0  0
  2 25  1  0  0  0
  2 83  1  0  0  0
  2 84  1  0  0  0
  3  4  1  0  0  0
  3 85  1  0  0  0
  3 86  1  0  0  0
  4  5  1  0  0  0
  4 87  1  0  0  0
  4 88  1  0  0  0
  5  6  1  0  0  0
  5 26  1  0  0  0
  5 89  1  0  0  0
  6 25  1  0  0  0
  6 90  1  0  0  0
  6 91  1  0  0  0
  7  8  2  0  0  0
  7 26  1  0  0  0
  7 29  1  0  0  0
  8  9  1  0  0  0
  8 22  1  0  0  0
  9 10  1  0  0  0
  9 27  2  0  0  0
 10 11  2  0  0  0
 10 15  1  0  0  0
 11 12  1  0  0  0
 11 92  1  0  0  0
 12 13  2  0  0  0
 12 93  1  0  0  0
 13 14  1  0  0  0
 13 31  1  0  0  0
 14 15  2  0  0  0
 14 94  1  0  0  0
 15 95  1  0  0  0
 16 17  2  0  0  0
 16 21  1  0  0  0
 16 31  1  0  0  0
 17 18  1  0  0  0
 17 96  1  0  0  0
 18 19  2  0  0  0
 18 97  1  0  0  0
 19 20  1  0  0  0
 19 24  1  0  0  0
 20 21  2  0  0  0
 20 98  1  0  0  0
 21 23  1  0  0  0
 22 28  1  0  0  0
 22 32  2  0  0  0
 26 27  1  0  0  0
 28 99  1  0  0  0
 28100  1  0  0  0
 29101  1  0  0  0
 29102  1  0  0  0
 33 34  1  0  0  0
 33 66  1  0  0  0
 33 70  2  0  0  0
 34 36  1  0  0  0
 34 59  1  0  0  0
 34103  1  0  0  0
 35 44  2  0  0  0
 35 45  1  0  0  0
 35 68  1  0  0  0
 36 56  1  0  0  0
 36104  1  0  0  0
 37 39  1  0  0  0
 37 47  1  0  0  0
 37 66  1  0  0  0
 37105  1  0  0  0
 38 43  2  0  0  0
 38 46  1  0  0  0
 38 47  1  0  0  0
 39 64  1  0  0  0
 39 67  2  0  0  0
 40 52  1  0  0  0
 40 53  2  0  0  0
 40 58  1  0  0  0
 41106  1  0  0  0
 41107  1  0  0  0
 41108  1  0  0  0
 41 48  1  0  0  0
 42 43  1  0  0  0
 42 66  1  0  0  0
 42109  1  0  0  0
 42110  1  0  0  0
 43 44  1  0  0  0
 44111  1  0  0  0
 45 46  2  0  0  0
 45112  1  0  0  0
 46113  1  0  0  0
 47114  1  0  0  0
 47115  1  0  0  0
 48 56  1  0  0  0
 48 65  1  0  0  0
 48116  1  0  0  0
 49 50  1  0  0  0
 49 53  1  0  0  0
 49 64  1  0  0  0
 49117  1  0  0  0
 50 51  1  0  0  0
 50118  1  0  0  0
 50119  1  0  0  0
 51 52  1  0  0  0
 51120  1  0  0  0
 51121  1  0  0  0
 52122  1  0  0  0
 52123  1  0  0  0
 53 54  1  0  0  0
 54 55  2  0  0  0
 54124  1  0  0  0
 55 57  1  0  0  0
 55125  1  0  0  0
 56 69  2  0  0  0
 57 58  2  0  0  0
 57126  1  0  0  0
 58127  1  0  0  0
 59 60  1  0  0  0
 59 61  1  0  0  0
 59 62  1  0  0  0
 60128  1  0  0  0
 60129  1  0  0  0
 60130  1  0  0  0
 61131  1  0  0  0
 61132  1  0  0  0
 61133  1  0  0  0
 62134  1  0  0  0
 62135  1  0  0  0
 62136  1  0  0  0
 63 65  1  0  0  0
 63137  1  0  0  0
 63138  1  0  0  0
 63139  1  0  0  0
 64140  1  0  0  0
 65141  1  0  0  0
 68 80  1  0  0  0
 71 73  2  0  0  0
 71 74  1  0  0  0
 71142  1  0  0  0
 72 73  1  0  0  0
 72 75  2  0  0  0
 72143  1  0  0  0
 73 78  1  0  0  0
 74 76  2  0  0  0
 74 77  1  0  0  0
 75 76  1  0  0  0
 75 79  1  0  0  0
 76 82  1  0  0  0
 77144  1  0  0  0
 77145  1  0  0  0
 77146  1  0  0  0
 78 80  1  0  0  0
 78147  1  0  0  0
 78148  1  0  0  0
 79 81  1  0  0  0
 79149  1  0  0  0
 79150  1  0  0  0
 80151  1  0  0  0
 80152  1  0  0  0
 81153  1  0  0  0
M  ISO  4   1 100  68 101  80 101  81 100
M  END
> <chiral flag>
0

> <version>
0

> <s_m_source_file>
/data/baiqing/PycharmProjects/Reinvent-master-3.2/result/LINK_invent/BTK/process_docking_weight1_custom_sum_contain_oxygen_bond_distance_aromatic_linkinvent_7_9_3/rearranged_h_0032.sdf

> <i_m_source_file_index>
87

> <r_mmod_Potential_Energy-OPLS-2005>
477.491607666016

> <r_mmod_Stretch_Energy-OPLS-2005>
276.631652832031

> <r_mmod_Bend_Energy-OPLS-2005>
243.985092163086

> <r_mmod_Torsional_Energy-OPLS-2005>
199.214050292969

> <r_mmod_Improper_Torsional_Energy-OPLS-2005>
4.52581691741943

> <r_mmod_Van_der_Waal_Energy-OPLS-2005>
126.035438537598

> <r_mmod_Electrostatic_Energy-OPLS-2005>
-386.553131103516

> <r_mmod_Solvation_Energy-OPLS-2005>
-197.265106201172

> <b_mmod_Minimization_Converged-OPLS-2005>
0

> <r_mmod_RMS_Derivative-OPLS-2005>
4.39648914337158

$$$$
87
                    3D
 Structure written by MMmdl.
172181  0  0  1  0            999 V2000
  -30.7061  -14.4277   20.5608 C   0  0  0  0  0  0
  -30.4217  -12.2766   19.4087 C   0  0  0  0  0  0
  -29.4898  -12.4974   18.1995 C   0  0  0  0  0  0
  -28.0119  -12.3618   18.6124 C   0  0  0  0  0  0
  -27.6661  -13.1955   19.8747 C   0  0  2  0  0  0
  -28.7069  -12.9563   20.9941 C   0  0  0  0  0  0
  -25.2628  -13.8135   20.5652 C   0  0  0  0  0  0
  -24.1867  -13.0432   20.9157 C   0  0  0  0  0  0
  -24.6402  -11.6900   20.8720 C   0  0  0  0  0  0
  -23.9060  -10.4296   21.0394 C   0  0  0  0  0  0
  -24.3614   -9.4211   21.9172 C   0  0  0  0  0  0
  -23.6297   -8.2246   22.0755 C   0  0  0  0  0  0
  -22.4279   -8.0281   21.3543 C   0  0  0  0  0  0
  -21.9907   -9.0250   20.4642 C   0  0  0  0  0  0
  -22.7227  -10.2135   20.3052 C   0  0  0  0  0  0
  -21.6859   -6.0732   22.5284 C   0  0  0  0  0  0
  -21.4022   -6.5641   23.8215 C   0  0  0  0  0  0
  -21.3656   -5.6794   24.9172 C   0  0  0  0  0  0
  -21.6053   -4.3062   24.7233 C   0  0  0  0  0  0
  -21.8819   -3.8146   23.4357 C   0  0  0  0  0  0
  -21.9201   -4.6958   22.3406 C   0  0  0  0  0  0
  -22.7891  -13.5247   21.1816 C   0  0  0  0  0  0
  -22.1665   -4.2141   21.0980 F   0  0  0  0  0  0
  -21.5620   -3.4551   25.7743 F   0  0  0  0  0  0
  -30.0441  -13.2477   20.4459 N   0  0  0  0  0  0
  -26.3056  -12.9290   20.3352 N   0  0  0  0  0  0
  -25.9324  -11.6463   20.5763 N   0  0  0  0  0  0
  -22.0528  -12.8246   22.0381 N   0  0  0  0  0  0
  -25.4391  -15.1845   20.4060 N   0  0  0  0  0  0
  -31.8225  -14.6307   20.0771 O   0  0  0  0  0  0
  -21.6644   -6.8872   21.4246 O   0  0  0  0  0  0
  -22.3580  -14.5560   20.6661 O   0  0  0  0  0  0
  -24.6113  -31.8705   23.2113 C   0  0  0  0  0  0
  -25.9015  -32.4840   23.8394 C   0  0  1  0  0  0
  -27.2336  -27.4532   20.0851 C   0  0  0  0  0  0
  -25.5890  -33.8638   24.2325 N   0  0  0  0  0  0
  -23.3978  -30.4959   21.5526 C   0  0  2  0  0  0
  -24.8411  -28.9617   20.1189 C   0  0  0  0  0  0
  -22.7392  -29.4680   22.4993 C   0  0  0  0  0  0
  -18.0280  -28.1403   22.8487 C   0  0  0  0  0  0
  -24.1497  -36.7323   23.2636 C   0  0  0  0  0  0
  -25.9239  -30.8418   21.3591 C   0  0  0  0  0  0
  -26.0001  -29.4746   20.7137 C   0  0  0  0  0  0
  -27.1962  -28.7253   20.6959 C   0  0  0  0  0  0
  -26.0570  -26.9571   19.4757 C   0  0  0  0  0  0
  -24.8632  -27.7019   19.4993 C   0  0  0  0  0  0
  -23.6028  -29.8259   20.1683 C   0  0  0  0  0  0
  -25.4122  -36.3126   24.0334 C   0  0  1  0  0  0
  -20.5869  -28.3671   23.1338 C   0  0  2  0  0  0
  -20.6767  -26.9413   22.5436 C   0  0  0  0  0  0
  -19.5746  -26.6395   21.5237 C   0  0  0  0  0  0
  -18.1913  -26.7944   22.1630 C   0  0  0  0  0  0
  -19.1525  -28.8854   23.2911 C   0  0  0  0  0  0
  -18.9455  -30.1457   23.8918 C   0  0  0  0  0  0
  -17.6453  -30.6589   24.0586 C   0  0  0  0  0  0
  -25.9045  -34.9489   23.5132 C   0  0  0  0  0  0
  -16.5348  -29.9101   23.6336 C   0  0  0  0  0  0
  -16.7264  -28.6541   23.0317 C   0  0  0  0  0  0
  -26.4442  -31.6607   25.0710 C   0  0  0  0  0  0
  -25.3703  -31.3736   26.1458 C   0  0  0  0  0  0
  -27.0250  -30.3053   24.6044 C   0  0  0  0  0  0
  -27.6045  -32.4300   25.7445 C   0  0  0  0  0  0
  -27.5598  -37.1804   24.8463 C   0  0  0  0  0  0
  -21.4131  -29.3031   22.3735 N   0  0  0  0  0  0
  -26.4308  -37.3806   23.9412 N   0  0  0  0  0  0
  -24.6635  -31.0816   22.1013 N   0  0  0  0  0  0
  -23.4179  -28.8212   23.3011 O   0  0  0  0  0  0
  -28.4362  -26.7815   20.0488 O   0  0  0  0  0  0
  -26.5610  -34.8931   22.4687 O   0  0  0  0  0  0
  -23.5316  -32.1433   23.7543 O   0  0  0  0  0  0
  -32.8844  -19.0007   23.3281 C   0  0  0  0  0  0
  -32.4582  -17.8265   21.2364 C   0  0  0  0  0  0
  -30.6899  -18.0262   22.9041 C   0  0  0  0  0  0
  -28.9172  -24.4275   23.7373 C   0  0  0  0  0  0
  -33.3327  -18.5468   22.0716 C   0  0  0  0  0  0
  -31.5548  -18.7632   23.7412 C   0  0  0  0  0  0
  -31.1351  -17.5661   21.6473 C   0  0  0  0  0  0
  -28.0277  -24.7406   22.6775 C   0  0  0  0  0  0
  -30.1666  -24.4865   23.1800 C   0  0  0  0  0  0
  -28.7636  -25.0042   21.5604 C   0  0  0  0  0  0
  -34.7390  -18.8627   21.6037 C   0  0  0  0  0  0
  -31.0428  -19.2920   25.0758 C   0  0  0  0  0  0
  -30.1779  -16.8381   20.7205 C   0  0  0  0  0  0
  -31.5492  -24.2476   23.6983 C   0  0  0  0  0  0
  -28.4416  -25.3539   20.1447 C   0  0  0  0  0  0
  -31.5153  -20.7157   25.4424 C   0  0  0  0  0  0
  -31.6410  -23.1977   24.8198 C   0  0  0  0  0  0
  -31.1588  -21.7954   24.4024 C   0  0  0  0  0  0
  -29.9676  -15.4310   21.0492 N   0  0  0  0  0  0
  -30.0863  -24.8665   21.8685 O   0  0  0  0  0  0
  -26.3053  -24.7595   22.7841 Cl  0  0  0  0  0  0
  -31.4640  -12.3757   19.1014 H   0  0  0  0  0  0
  -30.3205  -11.2593   19.7906 H   0  0  0  0  0  0
  -29.7182  -11.7807   17.4095 H   0  0  0  0  0  0
  -29.6648  -13.4871   17.7746 H   0  0  0  0  0  0
  -27.8157  -11.3050   18.8001 H   0  0  0  0  0  0
  -27.3605  -12.6432   17.7831 H   0  0  0  0  0  0
  -27.7177  -14.2440   19.5825 H   0  0  0  0  0  0
  -28.6697  -11.9183   21.3285 H   0  0  0  0  0  0
  -28.4760  -13.5523   21.8777 H   0  0  0  0  0  0
  -25.2758   -9.5693   22.4742 H   0  0  0  0  0  0
  -24.0011   -7.4649   22.7486 H   0  0  0  0  0  0
  -21.0828   -8.8751   19.8961 H   0  0  0  0  0  0
  -22.3662  -10.9664   19.6168 H   0  0  0  0  0  0
  -21.2007   -7.6152   23.9716 H   0  0  0  0  0  0
  -21.1478   -6.0520   25.9068 H   0  0  0  0  0  0
  -22.0598   -2.7612   23.2858 H   0  0  0  0  0  0
  -22.4161  -11.9920   22.4783 H   0  0  0  0  0  0
  -21.1152  -13.1279   22.2588 H   0  0  0  0  0  0
  -24.6741  -15.8422   20.5066 H   0  0  0  0  0  0
  -26.2900  -15.6181   20.0694 H   0  0  0  0  0  0
  -26.7082  -32.5567   23.1161 H   0  0  0  0  0  0
  -25.0027  -33.9794   25.0464 H   0  0  0  0  0  0
  -22.6879  -31.3136   21.4139 H   0  0  0  0  0  0
  -23.3760  -35.9653   23.3301 H   0  0  0  0  0  0
  -24.3593  -36.8948   22.2052 H   0  0  0  0  0  0
  -23.7234  -37.6523   23.6638 H   0  0  0  0  0  0
  -26.0223  -31.6024   20.5830 H   0  0  0  0  0  0
  -26.8198  -30.9080   21.9650 H   0  0  0  0  0  0
  -28.0943  -29.1196   21.1482 H   0  0  0  0  0  0
  -26.0425  -26.0176   18.9444 H   0  0  0  0  0  0
  -23.9753  -27.3118   19.0207 H   0  0  0  0  0  0
  -23.7059  -30.5951   19.4025 H   0  0  0  0  0  0
  -22.7281  -29.2396   19.8777 H   0  0  0  0  0  0
  -25.1290  -36.1992   25.0824 H   0  0  0  0  0  0
  -20.9975  -28.3241   24.1456 H   0  0  0  0  0  0
  -20.5710  -26.2276   23.3616 H   0  0  0  0  0  0
  -21.6631  -26.7470   22.1215 H   0  0  0  0  0  0
  -19.6918  -25.6314   21.1248 H   0  0  0  0  0  0
  -19.6700  -27.3219   20.6781 H   0  0  0  0  0  0
  -17.4199  -26.6722   21.4004 H   0  0  0  0  0  0
  -18.0287  -26.0083   22.9024 H   0  0  0  0  0  0
  -19.7930  -30.7275   24.2285 H   0  0  0  0  0  0
  -17.5010  -31.6264   24.5193 H   0  0  0  0  0  0
  -15.5352  -30.3003   23.7657 H   0  0  0  0  0  0
  -15.8674  -28.0892   22.6975 H   0  0  0  0  0  0
  -24.5849  -30.7129   25.7773 H   0  0  0  0  0  0
  -24.8926  -32.2915   26.4885 H   0  0  0  0  0  0
  -25.8032  -30.8883   27.0214 H   0  0  0  0  0  0
  -26.2779  -29.6832   24.1100 H   0  0  0  0  0  0
  -27.4049  -29.7258   25.4464 H   0  0  0  0  0  0
  -27.8593  -30.4392   23.9160 H   0  0  0  0  0  0
  -27.2697  -33.3584   26.2074 H   0  0  0  0  0  0
  -28.3807  -32.6888   25.0234 H   0  0  0  0  0  0
  -28.0752  -31.8388   26.5306 H   0  0  0  0  0  0
  -28.2615  -38.0102   24.7518 H   0  0  0  0  0  0
  -28.1094  -36.2633   24.6269 H   0  0  0  0  0  0
  -27.2320  -37.1449   25.8868 H   0  0  0  0  0  0
  -20.9285  -29.8759   21.6965 H   0  0  0  0  0  0
  -26.0209  -38.2894   24.1389 H   0  0  0  0  0  0
  -33.5619  -19.5553   23.9608 H   0  0  0  0  0  0
  -32.8003  -17.4816   20.2694 H   0  0  0  0  0  0
  -29.6734  -17.8260   23.2146 H   0  0  0  0  0  0
  -28.6776  -24.1704   24.7590 H   0  0  0  0  0  0
  -35.3498  -19.2692   22.4108 H   0  0  0  0  0  0
  -34.7083  -19.6034   20.8035 H   0  0  0  0  0  0
  -35.2348  -17.9692   21.2238 H   0  0  0  0  0  0
  -31.3495  -18.5928   25.8544 H   0  0  0  0  0  0
  -29.9508  -19.2748   25.0704 H   0  0  0  0  0  0
  -29.2118  -17.3418   20.7537 H   0  0  0  0  0  0
  -30.5163  -16.9398   19.6865 H   0  0  0  0  0  0
  -31.9536  -25.1927   24.0627 H   0  0  0  0  0  0
  -32.2006  -23.9490   22.8754 H   0  0  0  0  0  0
  -27.5198  -24.8585   19.8496 H   0  0  0  0  0  0
  -29.2172  -24.9667   19.4843 H   0  0  0  0  0  0
  -32.5932  -20.7100   25.6065 H   0  0  0  0  0  0
  -31.0805  -20.9913   26.4038 H   0  0  0  0  0  0
  -31.0759  -23.5378   25.6878 H   0  0  0  0  0  0
  -32.6814  -23.1365   25.1416 H   0  0  0  0  0  0
  -30.0778  -21.8028   24.2511 H   0  0  0  0  0  0
  -31.6001  -21.5398   23.4383 H   0  0  0  0  0  0
  -29.0638  -15.1828   21.4222 H   0  0  0  0  0  0
  1 25  1  0  0  0
  1 30  2  0  0  0
  1 89  1  0  0  0
  2  3  1  0  0  0
  2 25  1  0  0  0
  2 92  1  0  0  0
  2 93  1  0  0  0
  3  4  1  0  0  0
  3 94  1  0  0  0
  3 95  1  0  0  0
  4  5  1  0  0  0
  4 96  1  0  0  0
  4 97  1  0  0  0
  5  6  1  0  0  0
  5 26  1  0  0  0
  5 98  1  0  0  0
  6 25  1  0  0  0
  6 99  1  0  0  0
  6100  1  0  0  0
  7  8  2  0  0  0
  7 26  1  0  0  0
  7 29  1  0  0  0
  8  9  1  0  0  0
  8 22  1  0  0  0
  9 10  1  0  0  0
  9 27  2  0  0  0
 10 11  2  0  0  0
 10 15  1  0  0  0
 11 12  1  0  0  0
 11101  1  0  0  0
 12 13  2  0  0  0
 12102  1  0  0  0
 13 14  1  0  0  0
 13 31  1  0  0  0
 14 15  2  0  0  0
 14103  1  0  0  0
 15104  1  0  0  0
 16 17  2  0  0  0
 16 21  1  0  0  0
 16 31  1  0  0  0
 17 18  1  0  0  0
 17105  1  0  0  0
 18 19  2  0  0  0
 18106  1  0  0  0
 19 20  1  0  0  0
 19 24  1  0  0  0
 20 21  2  0  0  0
 20107  1  0  0  0
 21 23  1  0  0  0
 22 28  1  0  0  0
 22 32  2  0  0  0
 26 27  1  0  0  0
 28108  1  0  0  0
 28109  1  0  0  0
 29110  1  0  0  0
 29111  1  0  0  0
 33 34  1  0  0  0
 33 66  1  0  0  0
 33 70  2  0  0  0
 34 36  1  0  0  0
 34 59  1  0  0  0
 34112  1  0  0  0
 35 44  2  0  0  0
 35 45  1  0  0  0
 35 68  1  0  0  0
 36 56  1  0  0  0
 36113  1  0  0  0
 37 39  1  0  0  0
 37 47  1  0  0  0
 37 66  1  0  0  0
 37114  1  0  0  0
 38 43  2  0  0  0
 38 46  1  0  0  0
 38 47  1  0  0  0
 39 64  1  0  0  0
 39 67  2  0  0  0
 40 52  1  0  0  0
 40 53  2  0  0  0
 40 58  1  0  0  0
 41115  1  0  0  0
 41116  1  0  0  0
 41117  1  0  0  0
 41 48  1  0  0  0
 42 43  1  0  0  0
 42 66  1  0  0  0
 42118  1  0  0  0
 42119  1  0  0  0
 43 44  1  0  0  0
 44120  1  0  0  0
 45 46  2  0  0  0
 45121  1  0  0  0
 46122  1  0  0  0
 47123  1  0  0  0
 47124  1  0  0  0
 48 56  1  0  0  0
 48 65  1  0  0  0
 48125  1  0  0  0
 49 50  1  0  0  0
 49 53  1  0  0  0
 49 64  1  0  0  0
 49126  1  0  0  0
 50 51  1  0  0  0
 50127  1  0  0  0
 50128  1  0  0  0
 51 52  1  0  0  0
 51129  1  0  0  0
 51130  1  0  0  0
 52131  1  0  0  0
 52132  1  0  0  0
 53 54  1  0  0  0
 54 55  2  0  0  0
 54133  1  0  0  0
 55 57  1  0  0  0
 55134  1  0  0  0
 56 69  2  0  0  0
 57 58  2  0  0  0
 57135  1  0  0  0
 58136  1  0  0  0
 59 60  1  0  0  0
 59 61  1  0  0  0
 59 62  1  0  0  0
 60137  1  0  0  0
 60138  1  0  0  0
 60139  1  0  0  0
 61140  1  0  0  0
 61141  1  0  0  0
 61142  1  0  0  0
 62143  1  0  0  0
 62144  1  0  0  0
 62145  1  0  0  0
 63 65  1  0  0  0
 63146  1  0  0  0
 63147  1  0  0  0
 63148  1  0  0  0
 64149  1  0  0  0
 65150  1  0  0  0
 68 85  1  0  0  0
 71 75  2  0  0  0
 71 76  1  0  0  0
 71151  1  0  0  0
 72 75  1  0  0  0
 72 77  2  0  0  0
 72152  1  0  0  0
 73 76  2  0  0  0
 73 77  1  0  0  0
 73153  1  0  0  0
 74 78  1  0  0  0
 74 79  2  0  0  0
 74154  1  0  0  0
 75 81  1  0  0  0
 76 82  1  0  0  0
 77 83  1  0  0  0
 78 80  2  0  0  0
 78 91  1  0  0  0
 79 84  1  0  0  0
 79 90  1  0  0  0
 80 85  1  0  0  0
 80 90  1  0  0  0
 81155  1  0  0  0
 81156  1  0  0  0
 81157  1  0  0  0
 82 86  1  0  0  0
 82158  1  0  0  0
 82159  1  0  0  0
 83 89  1  0  0  0
 83160  1  0  0  0
 83161  1  0  0  0
 84 87  1  0  0  0
 84162  1  0  0  0
 84163  1  0  0  0
 85164  1  0  0  0
 85165  1  0  0  0
 86 88  1  0  0  0
 86166  1  0  0  0
 86167  1  0  0  0
 87 88  1  0  0  0
 87168  1  0  0  0
 87169  1  0  0  0
 88170  1  0  0  0
 88171  1  0  0  0
 89172  1  0  0  0
M  ISO  4   1 100  68 101  85 101  89 100
M  END
> <chiral flag>
0

> <version>
0

> <s_m_source_file>
/data/baiqing/PycharmProjects/Reinvent-master-3.2/result/LINK_invent/BTK/process_docking_weight1_custom_sum_contain_oxygen_bond_distance_aromatic_linkinvent_7_9_3/rearranged_h_0032.sdf

> <i_m_source_file_index>
88

> <r_mmod_Potential_Energy-OPLS-2005>
-91.2179183959961

> <r_mmod_Stretch_Energy-OPLS-2005>
31.970251083374

> <r_mmod_Bend_Energy-OPLS-2005>
99.2167510986328

> <r_mmod_Torsional_Energy-OPLS-2005>
221.156448364258

> <r_mmod_Improper_Torsional_Energy-OPLS-2005>
6.1677131652832

> <r_mmod_Van_der_Waal_Energy-OPLS-2005>
140.090576171875

> <r_mmod_Electrostatic_Energy-OPLS-2005>
-388.597473144531

> <r_mmod_Solvation_Energy-OPLS-2005>
-211.141174316406

> <b_mmod_Minimization_Converged-OPLS-2005>
0

> <r_mmod_RMS_Derivative-OPLS-2005>
2.41271471977234

$$$$
88
                    3D
 Structure written by MMmdl.
167175  0  0  1  0            999 V2000
  -30.5276  -14.9982   20.4077 C   0  0  0  0  0  0
  -30.4406  -12.6217   19.5084 C   0  0  0  0  0  0
  -29.5210  -12.5381   18.2673 C   0  0  0  0  0  0
  -28.0616  -12.3032   18.6946 C   0  0  0  0  0  0
  -27.6283  -13.2496   19.8428 C   0  0  2  0  0  0
  -28.6690  -13.3094   20.9837 C   0  0  0  0  0  0
  -25.2459  -13.8214   20.5719 C   0  0  0  0  0  0
  -24.1763  -13.0428   20.9233 C   0  0  0  0  0  0
  -24.6385  -11.6920   20.8768 C   0  0  0  0  0  0
  -23.9062  -10.4287   21.0419 C   0  0  0  0  0  0
  -24.3613   -9.4204   21.9202 C   0  0  0  0  0  0
  -23.6284   -8.2235   22.0760 C   0  0  0  0  0  0
  -22.4269   -8.0277   21.3545 C   0  0  0  0  0  0
  -21.9918   -9.0247   20.4639 C   0  0  0  0  0  0
  -22.7241  -10.2127   20.3057 C   0  0  0  0  0  0
  -21.6849   -6.0726   22.5272 C   0  0  0  0  0  0
  -21.4016   -6.5640   23.8200 C   0  0  0  0  0  0
  -21.3656   -5.6800   24.9166 C   0  0  0  0  0  0
  -21.6042   -4.3058   24.7224 C   0  0  0  0  0  0
  -21.8815   -3.8138   23.4345 C   0  0  0  0  0  0
  -21.9199   -4.6956   22.3397 C   0  0  0  0  0  0
  -22.7787  -13.5191   21.1892 C   0  0  0  0  0  0
  -22.1663   -4.2137   21.0975 F   0  0  0  0  0  0
  -21.5639   -3.4555   25.7740 F   0  0  0  0  0  0
  -29.9423  -13.7273   20.3837 N   0  0  0  0  0  0
  -26.2883  -12.9441   20.3280 N   0  0  0  0  0  0
  -25.9320  -11.6576   20.5766 N   0  0  0  0  0  0
  -22.0439  -12.8148   22.0429 N   0  0  0  0  0  0
  -25.4145  -15.1939   20.4144 N   0  0  0  0  0  0
  -31.7233  -15.0601   20.1024 O   0  0  0  0  0  0
  -21.6633   -6.8874   21.4232 O   0  0  0  0  0  0
  -22.3462  -14.5506   20.6772 O   0  0  0  0  0  0
  -24.6435  -31.8410   23.1833 C   0  0  0  0  0  0
  -25.9193  -32.4682   23.8243 C   0  0  1  0  0  0
  -27.2289  -27.1175   20.1557 C   0  0  0  0  0  0
  -25.5934  -33.8492   24.2172 N   0  0  0  0  0  0
  -23.4499  -30.4546   21.5292 C   0  0  2  0  0  0
  -24.9026  -28.8706   20.1113 C   0  0  0  0  0  0
  -22.7573  -29.4524   22.4860 C   0  0  0  0  0  0
  -18.0304  -28.1386   22.8473 C   0  0  0  0  0  0
  -24.1496  -36.7258   23.2639 C   0  0  0  0  0  0
  -26.0031  -30.7110   21.3791 C   0  0  0  0  0  0
  -26.0785  -29.3164   20.7272 C   0  0  0  0  0  0
  -27.2413  -28.4557   20.7294 C   0  0  0  0  0  0
  -26.0265  -26.7718   19.5042 C   0  0  0  0  0  0
  -24.8904  -27.6133   19.4844 C   0  0  0  0  0  0
  -23.6768  -29.7719   20.1525 C   0  0  0  0  0  0
  -25.4129  -36.3039   24.0312 C   0  0  1  0  0  0
  -20.5913  -28.3713   23.1237 C   0  0  2  0  0  0
  -20.6779  -26.9417   22.5407 C   0  0  0  0  0  0
  -19.5758  -26.6376   21.5208 C   0  0  0  0  0  0
  -18.1940  -26.7927   22.1617 C   0  0  0  0  0  0
  -19.1560  -28.8871   23.2843 C   0  0  0  0  0  0
  -18.9473  -30.1465   23.8874 C   0  0  0  0  0  0
  -17.6470  -30.6583   24.0560 C   0  0  0  0  0  0
  -25.9073  -34.9406   23.5058 C   0  0  0  0  0  0
  -16.5364  -29.9075   23.6327 C   0  0  0  0  0  0
  -16.7290  -28.6492   23.0352 C   0  0  0  0  0  0
  -26.4521  -31.6542   25.0679 C   0  0  0  0  0  0
  -25.3689  -31.3713   26.1355 C   0  0  0  0  0  0
  -27.0378  -30.2944   24.6222 C   0  0  0  0  0  0
  -27.6066  -32.4288   25.7467 C   0  0  0  0  0  0
  -27.5587  -37.1788   24.8462 C   0  0  0  0  0  0
  -21.4264  -29.3043   22.3619 N   0  0  0  0  0  0
  -26.4297  -37.3749   23.9400 N   0  0  0  0  0  0
  -24.7189  -31.0243   22.0869 N   0  0  0  0  0  0
  -23.4206  -28.8087   23.3030 O   0  0  0  0  0  0
  -28.2971  -26.1466   20.2338 O   0  0  0  0  0  0
  -26.5682  -34.8915   22.4651 O   0  0  0  0  0  0
  -23.5546  -32.1298   23.7033 O   0  0  0  0  0  0
  -30.8115  -21.6495   21.2897 C   0  0  0  0  0  0
  -30.2291  -24.3639   21.3654 C   0  0  0  0  0  0
  -29.6018  -22.0465   20.6610 C   0  0  0  0  0  0
  -29.2970  -23.5561   20.6612 C   0  0  0  0  0  0
  -31.6922  -22.5266   21.9394 C   0  0  0  0  0  0
  -31.3817  -23.8835   21.9905 C   0  0  0  0  0  0
  -34.1323  -18.4198   23.1324 C   0  0  0  0  0  0
  -28.9370  -20.6662   20.0651 C   0  0  0  0  0  0
  -28.1506  -24.5852   20.0663 C   0  0  0  0  0  0
  -34.6053  -19.7827   23.6563 C   0  0  0  0  0  0
  -29.1339  -19.0827   20.7214 C   0  0  0  0  0  0
  -34.9666  -20.7788   22.5390 C   0  0  0  0  0  0
  -29.9863  -17.7225   20.1472 C   0  0  0  0  0  0
  -33.7618  -21.2817   21.7298 C   0  0  0  0  0  0
  -32.8724  -22.0911   22.5537 N   0  0  0  0  0  0
  -29.7494  -16.1924   20.5569 N   0  0  0  0  0  0
  -32.2131  -24.7400   22.6342 F   0  0  0  0  0  0
  -31.4699  -12.7887   19.1879 H   0  0  0  0  0  0
  -30.4481  -11.6738   20.0490 H   0  0  0  0  0  0
  -29.8493  -11.7405   17.6006 H   0  0  0  0  0  0
  -29.5900  -13.4646   17.6950 H   0  0  0  0  0  0
  -27.9819  -11.2667   19.0270 H   0  0  0  0  0  0
  -27.3898  -12.4003   17.8418 H   0  0  0  0  0  0
  -27.5834  -14.2429   19.3960 H   0  0  0  0  0  0
  -28.7663  -12.3450   21.4854 H   0  0  0  0  0  0
  -28.3576  -14.0281   21.7451 H   0  0  0  0  0  0
  -25.2763   -9.5693   22.4767 H   0  0  0  0  0  0
  -23.9999   -7.4629   22.7481 H   0  0  0  0  0  0
  -21.0858   -8.8752   19.8934 H   0  0  0  0  0  0
  -22.3700  -10.9664   19.6157 H   0  0  0  0  0  0
  -21.2004   -7.6146   23.9705 H   0  0  0  0  0  0
  -21.1489   -6.0528   25.9070 H   0  0  0  0  0  0
  -22.0606   -2.7600   23.2846 H   0  0  0  0  0  0
  -22.4062  -11.9790   22.4776 H   0  0  0  0  0  0
  -21.1062  -13.1162   22.2666 H   0  0  0  0  0  0
  -24.6473  -15.8485   20.5196 H   0  0  0  0  0  0
  -26.2574  -15.6313   20.0645 H   0  0  0  0  0  0
  -26.7256  -32.5301   23.0972 H   0  0  0  0  0  0
  -25.0024  -33.9597   25.0283 H   0  0  0  0  0  0
  -22.7526  -31.2788   21.3677 H   0  0  0  0  0  0
  -23.3769  -35.9576   23.3276 H   0  0  0  0  0  0
  -24.3587  -36.8917   22.2059 H   0  0  0  0  0  0
  -23.7232  -37.6439   23.6693 H   0  0  0  0  0  0
  -26.1457  -31.4593   20.5983 H   0  0  0  0  0  0
  -26.8785  -30.7775   22.0132 H   0  0  0  0  0  0
  -28.1379  -28.7927   21.2303 H   0  0  0  0  0  0
  -25.9442  -25.8063   19.0266 H   0  0  0  0  0  0
  -23.9920  -27.2659   18.9929 H   0  0  0  0  0  0
  -23.8076  -30.5386   19.3876 H   0  0  0  0  0  0
  -22.7930  -29.2053   19.8516 H   0  0  0  0  0  0
  -25.1317  -36.1876   25.0803 H   0  0  0  0  0  0
  -21.0000  -28.3297   24.1357 H   0  0  0  0  0  0
  -20.5646  -26.2337   23.3622 H   0  0  0  0  0  0
  -21.6646  -26.7403   22.1223 H   0  0  0  0  0  0
  -19.6917  -25.6280   21.1247 H   0  0  0  0  0  0
  -19.6685  -27.3173   20.6725 H   0  0  0  0  0  0
  -17.4207  -26.6672   21.4021 H   0  0  0  0  0  0
  -18.0339  -26.0069   22.9013 H   0  0  0  0  0  0
  -19.7948  -30.7287   24.2233 H   0  0  0  0  0  0
  -17.5019  -31.6258   24.5165 H   0  0  0  0  0  0
  -15.5361  -30.2970   23.7651 H   0  0  0  0  0  0
  -15.8693  -28.0803   22.7070 H   0  0  0  0  0  0
  -24.5920  -30.7010   25.7661 H   0  0  0  0  0  0
  -24.8806  -32.2871   26.4688 H   0  0  0  0  0  0
  -25.7955  -30.8956   27.0188 H   0  0  0  0  0  0
  -26.2974  -29.6663   24.1246 H   0  0  0  0  0  0
  -27.4037  -29.7247   25.4773 H   0  0  0  0  0  0
  -27.8867  -30.4204   23.9497 H   0  0  0  0  0  0
  -27.2693  -33.3621   26.1983 H   0  0  0  0  0  0
  -28.3912  -32.6769   25.0309 H   0  0  0  0  0  0
  -28.0684  -31.8426   26.5419 H   0  0  0  0  0  0
  -28.2589  -38.0103   24.7532 H   0  0  0  0  0  0
  -28.1104  -36.2632   24.6268 H   0  0  0  0  0  0
  -27.2305  -37.1412   25.8866 H   0  0  0  0  0  0
  -20.9478  -29.8773   21.6809 H   0  0  0  0  0  0
  -26.0169  -38.2819   24.1397 H   0  0  0  0  0  0
  -31.0895  -20.6075   21.2830 H   0  0  0  0  0  0
  -30.0881  -25.4298   21.4435 H   0  0  0  0  0  0
  -33.9704  -17.7245   23.9569 H   0  0  0  0  0  0
  -34.8723  -17.9767   22.4649 H   0  0  0  0  0  0
  -33.1919  -18.5081   22.5859 H   0  0  0  0  0  0
  -29.2043  -20.6183   19.0090 H   0  0  0  0  0  0
  -27.8646  -20.8653   20.0565 H   0  0  0  0  0  0
  -27.1938  -24.2790   20.4902 H   0  0  0  0  0  0
  -28.0821  -24.3884   18.9957 H   0  0  0  0  0  0
  -35.4859  -19.6289   24.2814 H   0  0  0  0  0  0
  -33.8451  -20.2083   24.3121 H   0  0  0  0  0  0
  -28.1085  -18.7130   20.7460 H   0  0  0  0  0  0
  -29.3630  -19.1964   21.7818 H   0  0  0  0  0  0
  -35.6820  -20.3100   21.8623 H   0  0  0  0  0  0
  -35.4939  -21.6292   22.9729 H   0  0  0  0  0  0
  -31.0508  -17.9243   20.2874 H   0  0  0  0  0  0
  -29.8523  -17.7276   19.0662 H   0  0  0  0  0  0
  -33.2400  -20.4341   21.2854 H   0  0  0  0  0  0
  -34.1153  -21.8950   20.8984 H   0  0  0  0  0  0
  -33.3396  -22.8650   23.0193 H   0  0  0  0  0  0
  -28.8007  -15.9975   20.8425 H   0  0  0  0  0  0
  1 25  1  0  0  0
  1 30  2  0  0  0
  1 86  1  0  0  0
  2  3  1  0  0  0
  2 25  1  0  0  0
  2 88  1  0  0  0
  2 89  1  0  0  0
  3  4  1  0  0  0
  3 90  1  0  0  0
  3 91  1  0  0  0
  4  5  1  0  0  0
  4 92  1  0  0  0
  4 93  1  0  0  0
  5  6  1  0  0  0
  5 26  1  0  0  0
  5 94  1  0  0  0
  6 25  1  0  0  0
  6 95  1  0  0  0
  6 96  1  0  0  0
  7  8  2  0  0  0
  7 26  1  0  0  0
  7 29  1  0  0  0
  8  9  1  0  0  0
  8 22  1  0  0  0
  9 10  1  0  0  0
  9 27  2  0  0  0
 10 11  2  0  0  0
 10 15  1  0  0  0
 11 12  1  0  0  0
 11 97  1  0  0  0
 12 13  2  0  0  0
 12 98  1  0  0  0
 13 14  1  0  0  0
 13 31  1  0  0  0
 14 15  2  0  0  0
 14 99  1  0  0  0
 15100  1  0  0  0
 16 17  2  0  0  0
 16 21  1  0  0  0
 16 31  1  0  0  0
 17 18  1  0  0  0
 17101  1  0  0  0
 18 19  2  0  0  0
 18102  1  0  0  0
 19 20  1  0  0  0
 19 24  1  0  0  0
 20 21  2  0  0  0
 20103  1  0  0  0
 21 23  1  0  0  0
 22 28  1  0  0  0
 22 32  2  0  0  0
 26 27  1  0  0  0
 28104  1  0  0  0
 28105  1  0  0  0
 29106  1  0  0  0
 29107  1  0  0  0
 33 34  1  0  0  0
 33 66  1  0  0  0
 33 70  2  0  0  0
 34 36  1  0  0  0
 34 59  1  0  0  0
 34108  1  0  0  0
 35 44  2  0  0  0
 35 45  1  0  0  0
 35 68  1  0  0  0
 36 56  1  0  0  0
 36109  1  0  0  0
 37 39  1  0  0  0
 37 47  1  0  0  0
 37 66  1  0  0  0
 37110  1  0  0  0
 38 43  2  0  0  0
 38 46  1  0  0  0
 38 47  1  0  0  0
 39 64  1  0  0  0
 39 67  2  0  0  0
 40 52  1  0  0  0
 40 53  2  0  0  0
 40 58  1  0  0  0
 41111  1  0  0  0
 41112  1  0  0  0
 41113  1  0  0  0
 41 48  1  0  0  0
 42 43  1  0  0  0
 42 66  1  0  0  0
 42114  1  0  0  0
 42115  1  0  0  0
 43 44  1  0  0  0
 44116  1  0  0  0
 45 46  2  0  0  0
 45117  1  0  0  0
 46118  1  0  0  0
 47119  1  0  0  0
 47120  1  0  0  0
 48 56  1  0  0  0
 48 65  1  0  0  0
 48121  1  0  0  0
 49 50  1  0  0  0
 49 53  1  0  0  0
 49 64  1  0  0  0
 49122  1  0  0  0
 50 51  1  0  0  0
 50123  1  0  0  0
 50124  1  0  0  0
 51 52  1  0  0  0
 51125  1  0  0  0
 51126  1  0  0  0
 52127  1  0  0  0
 52128  1  0  0  0
 53 54  1  0  0  0
 54 55  2  0  0  0
 54129  1  0  0  0
 55 57  1  0  0  0
 55130  1  0  0  0
 56 69  2  0  0  0
 57 58  2  0  0  0
 57131  1  0  0  0
 58132  1  0  0  0
 59 60  1  0  0  0
 59 61  1  0  0  0
 59 62  1  0  0  0
 60133  1  0  0  0
 60134  1  0  0  0
 60135  1  0  0  0
 61136  1  0  0  0
 61137  1  0  0  0
 61138  1  0  0  0
 62139  1  0  0  0
 62140  1  0  0  0
 62141  1  0  0  0
 63 65  1  0  0  0
 63142  1  0  0  0
 63143  1  0  0  0
 63144  1  0  0  0
 64145  1  0  0  0
 65146  1  0  0  0
 68 79  1  0  0  0
 71 73  2  0  0  0
 71 75  1  0  0  0
 71147  1  0  0  0
 72 74  2  0  0  0
 72 76  1  0  0  0
 72148  1  0  0  0
 73 74  1  0  0  0
 73 78  1  0  0  0
 74 79  1  0  0  0
 75 76  2  0  0  0
 75 85  1  0  0  0
 76 87  1  0  0  0
 77 80  1  0  0  0
 77149  1  0  0  0
 77150  1  0  0  0
 77151  1  0  0  0
 78 81  1  0  0  0
 78152  1  0  0  0
 78153  1  0  0  0
 79154  1  0  0  0
 79155  1  0  0  0
 80 82  1  0  0  0
 80156  1  0  0  0
 80157  1  0  0  0
 81 83  1  0  0  0
 81158  1  0  0  0
 81159  1  0  0  0
 82 84  1  0  0  0
 82160  1  0  0  0
 82161  1  0  0  0
 83 86  1  0  0  0
 83162  1  0  0  0
 83163  1  0  0  0
 84 85  1  0  0  0
 84164  1  0  0  0
 84165  1  0  0  0
 85166  1  0  0  0
 86167  1  0  0  0
M  ISO  4   1 100  68 101  79 101  86 100
M  END
> <chiral flag>
0

> <version>
0

> <s_m_source_file>
/data/baiqing/PycharmProjects/Reinvent-master-3.2/result/LINK_invent/BTK/process_docking_weight1_custom_sum_contain_oxygen_bond_distance_aromatic_linkinvent_7_9_3/rearranged_h_0032.sdf

> <i_m_source_file_index>
89

> <r_mmod_Potential_Energy-OPLS-2005>
696.024780273438

> <r_mmod_Stretch_Energy-OPLS-2005>
324.790374755859

> <r_mmod_Bend_Energy-OPLS-2005>
342.074584960938

> <r_mmod_Torsional_Energy-OPLS-2005>
238.968688964844

> <r_mmod_Improper_Torsional_Energy-OPLS-2005>
9.79011344909668

> <r_mmod_Van_der_Waal_Energy-OPLS-2005>
134.919982910156

> <r_mmod_Electrostatic_Energy-OPLS-2005>
-360.725921630859

> <r_mmod_Solvation_Energy-OPLS-2005>
-211.527938842773

> <b_mmod_Minimization_Converged-OPLS-2005>
0

> <r_mmod_RMS_Derivative-OPLS-2005>
2.11723375320435

$$$$
89
                    3D
 Structure written by MMmdl.
165173  0  0  1  0            999 V2000
  -30.6501  -14.5546   20.5683 C   0  0  0  0  0  0
  -30.4384  -12.3634   19.4225 C   0  0  0  0  0  0
  -29.4977  -12.5125   18.2070 C   0  0  0  0  0  0
  -28.0210  -12.3570   18.6228 C   0  0  0  0  0  0
  -27.6566  -13.2083   19.8677 C   0  0  2  0  0  0
  -28.7012  -13.0113   20.9872 C   0  0  0  0  0  0
  -25.2576  -13.8165   20.5668 C   0  0  0  0  0  0
  -24.1838  -13.0440   20.9195 C   0  0  0  0  0  0
  -24.6401  -11.6910   20.8754 C   0  0  0  0  0  0
  -23.9069  -10.4297   21.0424 C   0  0  0  0  0  0
  -24.3625   -9.4209   21.9192 C   0  0  0  0  0  0
  -23.6303   -8.2242   22.0752 C   0  0  0  0  0  0
  -22.4283   -8.0289   21.3541 C   0  0  0  0  0  0
  -21.9918   -9.0265   20.4642 C   0  0  0  0  0  0
  -22.7247  -10.2145   20.3064 C   0  0  0  0  0  0
  -21.6855   -6.0745   22.5283 C   0  0  0  0  0  0
  -21.4007   -6.5643   23.8219 C   0  0  0  0  0  0
  -21.3657   -5.6792   24.9179 C   0  0  0  0  0  0
  -21.6054   -4.3058   24.7228 C   0  0  0  0  0  0
  -21.8822   -3.8151   23.4346 C   0  0  0  0  0  0
  -21.9192   -4.6971   22.3402 C   0  0  0  0  0  0
  -22.7858  -13.5234   21.1861 C   0  0  0  0  0  0
  -22.1665   -4.2160   21.0978 F   0  0  0  0  0  0
  -21.5630   -3.4538   25.7735 F   0  0  0  0  0  0
  -30.0185  -13.3533   20.4278 N   0  0  0  0  0  0
  -26.3001  -12.9328   20.3340 N   0  0  0  0  0  0
  -25.9319  -11.6492   20.5762 N   0  0  0  0  0  0
  -22.0502  -12.8216   22.0417 N   0  0  0  0  0  0
  -25.4298  -15.1879   20.4031 N   0  0  0  0  0  0
  -31.8039  -14.7483   20.1753 O   0  0  0  0  0  0
  -21.6644   -6.8887   21.4243 O   0  0  0  0  0  0
  -22.3540  -14.5542   20.6716 O   0  0  0  0  0  0
  -24.6192  -31.8654   23.2076 C   0  0  0  0  0  0
  -25.9071  -32.4807   23.8383 C   0  0  1  0  0  0
  -27.2194  -27.3880   20.1094 C   0  0  0  0  0  0
  -25.5908  -33.8603   24.2301 N   0  0  0  0  0  0
  -23.4085  -30.4888   21.5503 C   0  0  2  0  0  0
  -24.8538  -28.9493   20.1146 C   0  0  0  0  0  0
  -22.7434  -29.4643   22.4989 C   0  0  0  0  0  0
  -18.0270  -28.1372   22.8485 C   0  0  0  0  0  0
  -24.1488  -36.7314   23.2631 C   0  0  0  0  0  0
  -25.9413  -30.8166   21.3680 C   0  0  0  0  0  0
  -26.0167  -29.4462   20.7182 C   0  0  0  0  0  0
  -27.2064  -28.6711   20.7151 C   0  0  0  0  0  0
  -26.0467  -26.9221   19.4854 C   0  0  0  0  0  0
  -24.8657  -27.6879   19.4939 C   0  0  0  0  0  0
  -23.6178  -29.8218   20.1652 C   0  0  0  0  0  0
  -25.4111  -36.3102   24.0322 C   0  0  1  0  0  0
  -20.5866  -28.3661   23.1316 C   0  0  2  0  0  0
  -20.6772  -26.9395   22.5420 C   0  0  0  0  0  0
  -19.5753  -26.6378   21.5216 C   0  0  0  0  0  0
  -18.1923  -26.7914   22.1619 C   0  0  0  0  0  0
  -19.1520  -28.8837   23.2892 C   0  0  0  0  0  0
  -18.9447  -30.1441   23.8904 C   0  0  0  0  0  0
  -17.6452  -30.6585   24.0556 C   0  0  0  0  0  0
  -25.9047  -34.9466   23.5117 C   0  0  0  0  0  0
  -16.5344  -29.9082   23.6325 C   0  0  0  0  0  0
  -16.7257  -28.6498   23.0350 C   0  0  0  0  0  0
  -26.4472  -31.6590   25.0725 C   0  0  0  0  0  0
  -25.3709  -31.3716   26.1461 C   0  0  0  0  0  0
  -27.0299  -30.3025   24.6124 C   0  0  0  0  0  0
  -27.6067  -32.4299   25.7475 C   0  0  0  0  0  0
  -27.5581  -37.1806   24.8457 C   0  0  0  0  0  0
  -21.4161  -29.3022   22.3723 N   0  0  0  0  0  0
  -26.4295  -37.3792   23.9402 N   0  0  0  0  0  0
  -24.6748  -31.0722   22.1004 N   0  0  0  0  0  0
  -23.4195  -28.8180   23.3042 O   0  0  0  0  0  0
  -28.3448  -26.5842   20.0850 O   0  0  0  0  0  0
  -26.5616  -34.8919   22.4683 O   0  0  0  0  0  0
  -23.5379  -32.1430   23.7453 O   0  0  0  0  0  0
  -29.1862  -23.3153   19.0051 C   0  0  0  0  0  0
  -28.5815  -21.7215   20.7290 C   0  0  0  0  0  0
  -28.5464  -23.0522   20.2228 C   0  0  0  0  0  0
  -29.8332  -22.2890   18.2794 C   0  0  0  0  0  0
  -29.2214  -20.6476   20.0383 C   0  0  0  0  0  0
  -29.8464  -20.9517   18.7872 C   0  0  0  0  0  0
  -30.5090  -19.8482   17.9686 C   0  0  0  0  0  0
  -30.4894  -24.1051   16.5100 C   0  0  0  0  0  0
  -27.7512  -24.1748   20.9259 C   0  0  0  0  0  0
  -30.4842  -22.6246   16.9304 C   0  0  0  0  0  0
  -29.0958  -19.2117   20.6620 C   0  0  0  0  0  0
  -30.2042  -18.1049   20.4635 C   0  0  0  0  0  0
  -30.2466  -16.9257   21.5032 C   0  0  0  0  0  0
  -28.4243  -25.5812   21.1304 C   0  0  0  0  0  0
  -29.8736  -15.5614   21.0443 N   0  0  0  0  0  0
  -31.4756  -12.5031   19.1135 H   0  0  0  0  0  0
  -30.3829  -11.3561   19.8387 H   0  0  0  0  0  0
  -29.7508  -11.7779   17.4409 H   0  0  0  0  0  0
  -29.6448  -13.4923   17.7495 H   0  0  0  0  0  0
  -27.8417  -11.3010   18.8283 H   0  0  0  0  0  0
  -27.3692  -12.6190   17.7891 H   0  0  0  0  0  0
  -27.6907  -14.2517   19.5539 H   0  0  0  0  0  0
  -28.7035  -11.9747   21.3270 H   0  0  0  0  0  0
  -28.4530  -13.6070   21.8669 H   0  0  0  0  0  0
  -25.2774   -9.5682   22.4761 H   0  0  0  0  0  0
  -24.0023   -7.4623   22.7455 H   0  0  0  0  0  0
  -21.0856   -8.8783   19.8934 H   0  0  0  0  0  0
  -22.3716  -10.9688   19.6171 H   0  0  0  0  0  0
  -21.1993   -7.6151   23.9723 H   0  0  0  0  0  0
  -21.1478   -6.0521   25.9081 H   0  0  0  0  0  0
  -22.0602   -2.7614   23.2841 H   0  0  0  0  0  0
  -22.4115  -11.9872   22.4802 H   0  0  0  0  0  0
  -21.1117  -13.1227   22.2623 H   0  0  0  0  0  0
  -24.6613  -15.8422   20.5007 H   0  0  0  0  0  0
  -26.2740  -15.6208   20.0490 H   0  0  0  0  0  0
  -26.7143  -32.5505   23.1147 H   0  0  0  0  0  0
  -25.0053  -33.9768   25.0446 H   0  0  0  0  0  0
  -22.6987  -31.3071   21.4118 H   0  0  0  0  0  0
  -23.3748  -35.9650   23.3303 H   0  0  0  0  0  0
  -24.3584  -36.8934   22.2046 H   0  0  0  0  0  0
  -23.7251  -37.6518   23.6657 H   0  0  0  0  0  0
  -26.0573  -31.5781   20.5954 H   0  0  0  0  0  0
  -26.8281  -30.8735   21.9870 H   0  0  0  0  0  0
  -28.1047  -29.0451   21.1864 H   0  0  0  0  0  0
  -26.0445  -25.9597   18.9933 H   0  0  0  0  0  0
  -23.9737  -27.3055   19.0163 H   0  0  0  0  0  0
  -23.7247  -30.5981   19.4069 H   0  0  0  0  0  0
  -22.7392  -29.2449   19.8696 H   0  0  0  0  0  0
  -25.1286  -36.1965   25.0814 H   0  0  0  0  0  0
  -20.9944  -28.3226   24.1445 H   0  0  0  0  0  0
  -20.5698  -26.2256   23.3603 H   0  0  0  0  0  0
  -21.6643  -26.7457   22.1199 H   0  0  0  0  0  0
  -19.6930  -25.6296   21.1233 H   0  0  0  0  0  0
  -19.6703  -27.3200   20.6759 H   0  0  0  0  0  0
  -17.4199  -26.6655   21.4013 H   0  0  0  0  0  0
  -18.0327  -26.0047   22.9009 H   0  0  0  0  0  0
  -19.7927  -30.7243   24.2287 H   0  0  0  0  0  0
  -17.5011  -31.6270   24.5149 H   0  0  0  0  0  0
  -15.5346  -30.2990   23.7658 H   0  0  0  0  0  0
  -15.8647  -28.0825   22.7069 H   0  0  0  0  0  0
  -24.5893  -30.7052   25.7795 H   0  0  0  0  0  0
  -24.8875  -32.2868   26.4886 H   0  0  0  0  0  0
  -25.8026  -30.8899   27.0242 H   0  0  0  0  0  0
  -26.2856  -29.6791   24.1153 H   0  0  0  0  0  0
  -27.4034  -29.7259   25.4596 H   0  0  0  0  0  0
  -27.8699  -30.4330   23.9298 H   0  0  0  0  0  0
  -27.2734  -33.3631   26.2028 H   0  0  0  0  0  0
  -28.3882  -32.6802   25.0284 H   0  0  0  0  0  0
  -28.0715  -31.8414   26.5396 H   0  0  0  0  0  0
  -28.2594  -38.0106   24.7530 H   0  0  0  0  0  0
  -28.1076  -36.2643   24.6257 H   0  0  0  0  0  0
  -27.2297  -37.1436   25.8856 H   0  0  0  0  0  0
  -20.9334  -29.8726   21.6917 H   0  0  0  0  0  0
  -26.0177  -38.2864   24.1423 H   0  0  0  0  0  0
  -29.1403  -24.3260   18.6265 H   0  0  0  0  0  0
  -28.0687  -21.5095   21.6583 H   0  0  0  0  0  0
  -31.4010  -19.4839   18.4768 H   0  0  0  0  0  0
  -30.8322  -20.1459   16.9749 H   0  0  0  0  0  0
  -29.8156  -19.0246   17.8114 H   0  0  0  0  0  0
  -30.9964  -24.2238   15.5523 H   0  0  0  0  0  0
  -31.0157  -24.7253   17.2355 H   0  0  0  0  0  0
  -29.4789  -24.4971   16.3865 H   0  0  0  0  0  0
  -27.4891  -23.7953   21.9141 H   0  0  0  0  0  0
  -26.7979  -24.2904   20.4135 H   0  0  0  0  0  0
  -29.9725  -22.0596   16.1494 H   0  0  0  0  0  0
  -31.5184  -22.2796   16.9501 H   0  0  0  0  0  0
  -28.1372  -18.8032   20.3389 H   0  0  0  0  0  0
  -28.9893  -19.3617   21.7373 H   0  0  0  0  0  0
  -31.1677  -18.6095   20.5499 H   0  0  0  0  0  0
  -30.1699  -17.6809   19.4637 H   0  0  0  0  0  0
  -29.5923  -17.1680   22.3414 H   0  0  0  0  0  0
  -31.2462  -16.8680   21.9384 H   0  0  0  0  0  0
  -29.4746  -25.4340   21.3826 H   0  0  0  0  0  0
  -27.9847  -26.0209   22.0279 H   0  0  0  0  0  0
  -28.9280  -15.2814   21.2579 H   0  0  0  0  0  0
  1 25  1  0  0  0
  1 30  2  0  0  0
  1 85  1  0  0  0
  2  3  1  0  0  0
  2 25  1  0  0  0
  2 86  1  0  0  0
  2 87  1  0  0  0
  3  4  1  0  0  0
  3 88  1  0  0  0
  3 89  1  0  0  0
  4  5  1  0  0  0
  4 90  1  0  0  0
  4 91  1  0  0  0
  5  6  1  0  0  0
  5 26  1  0  0  0
  5 92  1  0  0  0
  6 25  1  0  0  0
  6 93  1  0  0  0
  6 94  1  0  0  0
  7  8  2  0  0  0
  7 26  1  0  0  0
  7 29  1  0  0  0
  8  9  1  0  0  0
  8 22  1  0  0  0
  9 10  1  0  0  0
  9 27  2  0  0  0
 10 11  2  0  0  0
 10 15  1  0  0  0
 11 12  1  0  0  0
 11 95  1  0  0  0
 12 13  2  0  0  0
 12 96  1  0  0  0
 13 14  1  0  0  0
 13 31  1  0  0  0
 14 15  2  0  0  0
 14 97  1  0  0  0
 15 98  1  0  0  0
 16 17  2  0  0  0
 16 21  1  0  0  0
 16 31  1  0  0  0
 17 18  1  0  0  0
 17 99  1  0  0  0
 18 19  2  0  0  0
 18100  1  0  0  0
 19 20  1  0  0  0
 19 24  1  0  0  0
 20 21  2  0  0  0
 20101  1  0  0  0
 21 23  1  0  0  0
 22 28  1  0  0  0
 22 32  2  0  0  0
 26 27  1  0  0  0
 28102  1  0  0  0
 28103  1  0  0  0
 29104  1  0  0  0
 29105  1  0  0  0
 33 34  1  0  0  0
 33 66  1  0  0  0
 33 70  2  0  0  0
 34 36  1  0  0  0
 34 59  1  0  0  0
 34106  1  0  0  0
 35 44  2  0  0  0
 35 45  1  0  0  0
 35 68  1  0  0  0
 36 56  1  0  0  0
 36107  1  0  0  0
 37 39  1  0  0  0
 37 47  1  0  0  0
 37 66  1  0  0  0
 37108  1  0  0  0
 38 43  2  0  0  0
 38 46  1  0  0  0
 38 47  1  0  0  0
 39 64  1  0  0  0
 39 67  2  0  0  0
 40 52  1  0  0  0
 40 53  2  0  0  0
 40 58  1  0  0  0
 41109  1  0  0  0
 41110  1  0  0  0
 41111  1  0  0  0
 41 48  1  0  0  0
 42 43  1  0  0  0
 42 66  1  0  0  0
 42112  1  0  0  0
 42113  1  0  0  0
 43 44  1  0  0  0
 44114  1  0  0  0
 45 46  2  0  0  0
 45115  1  0  0  0
 46116  1  0  0  0
 47117  1  0  0  0
 47118  1  0  0  0
 48 56  1  0  0  0
 48 65  1  0  0  0
 48119  1  0  0  0
 49 50  1  0  0  0
 49 53  1  0  0  0
 49 64  1  0  0  0
 49120  1  0  0  0
 50 51  1  0  0  0
 50121  1  0  0  0
 50122  1  0  0  0
 51 52  1  0  0  0
 51123  1  0  0  0
 51124  1  0  0  0
 52125  1  0  0  0
 52126  1  0  0  0
 53 54  1  0  0  0
 54 55  2  0  0  0
 54127  1  0  0  0
 55 57  1  0  0  0
 55128  1  0  0  0
 56 69  2  0  0  0
 57 58  2  0  0  0
 57129  1  0  0  0
 58130  1  0  0  0
 59 60  1  0  0  0
 59 61  1  0  0  0
 59 62  1  0  0  0
 60131  1  0  0  0
 60132  1  0  0  0
 60133  1  0  0  0
 61134  1  0  0  0
 61135  1  0  0  0
 61136  1  0  0  0
 62137  1  0  0  0
 62138  1  0  0  0
 62139  1  0  0  0
 63 65  1  0  0  0
 63140  1  0  0  0
 63141  1  0  0  0
 63142  1  0  0  0
 64143  1  0  0  0
 65144  1  0  0  0
 68 84  1  0  0  0
 71 73  2  0  0  0
 71 74  1  0  0  0
 71145  1  0  0  0
 72 73  1  0  0  0
 72 75  2  0  0  0
 72146  1  0  0  0
 73 79  1  0  0  0
 74 76  2  0  0  0
 74 80  1  0  0  0
 75 76  1  0  0  0
 75 81  1  0  0  0
 76 77  1  0  0  0
 77147  1  0  0  0
 77148  1  0  0  0
 77149  1  0  0  0
 78 80  1  0  0  0
 78150  1  0  0  0
 78151  1  0  0  0
 78152  1  0  0  0
 79 84  1  0  0  0
 79153  1  0  0  0
 79154  1  0  0  0
 80155  1  0  0  0
 80156  1  0  0  0
 81 82  1  0  0  0
 81157  1  0  0  0
 81158  1  0  0  0
 82 83  1  0  0  0
 82159  1  0  0  0
 82160  1  0  0  0
 83 85  1  0  0  0
 83161  1  0  0  0
 83162  1  0  0  0
 84163  1  0  0  0
 84164  1  0  0  0
 85165  1  0  0  0
M  ISO  4   1 100  68 101  84 101  85 100
M  END
> <chiral flag>
0

> <version>
0

> <s_m_source_file>
/data/baiqing/PycharmProjects/Reinvent-master-3.2/result/LINK_invent/BTK/process_docking_weight1_custom_sum_contain_oxygen_bond_distance_aromatic_linkinvent_7_9_3/rearranged_h_0032.sdf

> <i_m_source_file_index>
90

> <r_mmod_Potential_Energy-OPLS-2005>
19.8780746459961

> <r_mmod_Stretch_Energy-OPLS-2005>
58.070915222168

> <r_mmod_Bend_Energy-OPLS-2005>
132.151657104492

> <r_mmod_Torsional_Energy-OPLS-2005>
239.387451171875

> <r_mmod_Improper_Torsional_Energy-OPLS-2005>
3.8214910030365

> <r_mmod_Van_der_Waal_Energy-OPLS-2005>
155.207656860352

> <r_mmod_Electrostatic_Energy-OPLS-2005>
-389.429107666016

> <r_mmod_Solvation_Energy-OPLS-2005>
-204.415878295898

> <b_mmod_Minimization_Converged-OPLS-2005>
0

> <r_mmod_RMS_Derivative-OPLS-2005>
1.72008419036865

$$$$
90
                    3D
 Structure written by MMmdl.
149157  0  0  1  0            999 V2000
  -30.5521  -14.9626   20.4173 C   0  0  0  0  0  0
  -30.4391  -12.5973   19.5045 C   0  0  0  0  0  0
  -29.5255  -12.5362   18.2583 C   0  0  0  0  0  0
  -28.0561  -12.3274   18.6719 C   0  0  0  0  0  0
  -27.6300  -13.2551   19.8404 C   0  0  2  0  0  0
  -28.6733  -13.2911   20.9776 C   0  0  0  0  0  0
  -25.2412  -13.8178   20.5644 C   0  0  0  0  0  0
  -24.1751  -13.0405   20.9192 C   0  0  0  0  0  0
  -24.6405  -11.6906   20.8752 C   0  0  0  0  0  0
  -23.9093  -10.4278   21.0407 C   0  0  0  0  0  0
  -24.3634   -9.4193   21.9189 C   0  0  0  0  0  0
  -23.6295   -8.2235   22.0760 C   0  0  0  0  0  0
  -22.4277   -8.0280   21.3549 C   0  0  0  0  0  0
  -21.9916   -9.0257   20.4654 C   0  0  0  0  0  0
  -22.7261  -10.2127   20.3060 C   0  0  0  0  0  0
  -21.6848   -6.0734   22.5276 C   0  0  0  0  0  0
  -21.4017   -6.5637   23.8211 C   0  0  0  0  0  0
  -21.3661   -5.6788   24.9171 C   0  0  0  0  0  0
  -21.6044   -4.3051   24.7223 C   0  0  0  0  0  0
  -21.8818   -3.8144   23.4344 C   0  0  0  0  0  0
  -21.9188   -4.6963   22.3401 C   0  0  0  0  0  0
  -22.7773  -13.5183   21.1857 C   0  0  0  0  0  0
  -22.1658   -4.2154   21.0978 F   0  0  0  0  0  0
  -21.5630   -3.4531   25.7737 F   0  0  0  0  0  0
  -29.9481  -13.7038   20.3771 N   0  0  0  0  0  0
  -26.2891  -12.9460   20.3261 N   0  0  0  0  0  0
  -25.9353  -11.6578   20.5757 N   0  0  0  0  0  0
  -22.0432  -12.8190   22.0433 N   0  0  0  0  0  0
  -25.3954  -15.1880   20.3981 N   0  0  0  0  0  0
  -31.7544  -15.0111   20.1401 O   0  0  0  0  0  0
  -21.6639   -6.8877   21.4240 O   0  0  0  0  0  0
  -22.3449  -14.5483   20.6702 O   0  0  0  0  0  0
  -24.6454  -31.8428   23.1872 C   0  0  0  0  0  0
  -25.9214  -32.4698   23.8273 C   0  0  1  0  0  0
  -27.2197  -27.1190   20.1527 C   0  0  0  0  0  0
  -25.5951  -33.8503   24.2193 N   0  0  0  0  0  0
  -23.4500  -30.4624   21.5332 C   0  0  2  0  0  0
  -24.8997  -28.8855   20.1137 C   0  0  0  0  0  0
  -22.7575  -29.4545   22.4850 C   0  0  0  0  0  0
  -18.0310  -28.1393   22.8484 C   0  0  0  0  0  0
  -24.1489  -36.7251   23.2643 C   0  0  0  0  0  0
  -26.0084  -30.7115   21.3888 C   0  0  0  0  0  0
  -26.0795  -29.3206   20.7309 C   0  0  0  0  0  0
  -27.2405  -28.4559   20.7288 C   0  0  0  0  0  0
  -26.0118  -26.7909   19.4975 C   0  0  0  0  0  0
  -24.8804  -27.6347   19.4809 C   0  0  0  0  0  0
  -23.6779  -29.7909   20.1534 C   0  0  0  0  0  0
  -25.4124  -36.3038   24.0318 C   0  0  1  0  0  0
  -20.5928  -28.3724   23.1234 C   0  0  2  0  0  0
  -20.6792  -26.9424   22.5408 C   0  0  0  0  0  0
  -19.5761  -26.6376   21.5218 C   0  0  0  0  0  0
  -18.1943  -26.7932   22.1633 C   0  0  0  0  0  0
  -19.1568  -28.8878   23.2852 C   0  0  0  0  0  0
  -18.9481  -30.1468   23.8882 C   0  0  0  0  0  0
  -17.6475  -30.6591   24.0556 C   0  0  0  0  0  0
  -25.9072  -34.9411   23.5067 C   0  0  0  0  0  0
  -16.5368  -29.9080   23.6336 C   0  0  0  0  0  0
  -16.7293  -28.6498   23.0365 C   0  0  0  0  0  0
  -26.4518  -31.6573   25.0724 C   0  0  0  0  0  0
  -25.3691  -31.3771   26.1414 C   0  0  0  0  0  0
  -27.0390  -30.2970   24.6325 C   0  0  0  0  0  0
  -27.6052  -32.4335   25.7510 C   0  0  0  0  0  0
  -27.5577  -37.1787   24.8466 C   0  0  0  0  0  0
  -21.4270  -29.3045   22.3599 N   0  0  0  0  0  0
  -26.4287  -37.3751   23.9404 N   0  0  0  0  0  0
  -24.7217  -31.0270   22.0913 N   0  0  0  0  0  0
  -23.4212  -28.8091   23.3008 O   0  0  0  0  0  0
  -28.2772  -26.1308   20.1986 O   0  0  0  0  0  0
  -26.5660  -34.8904   22.4648 O   0  0  0  0  0  0
  -23.5568  -32.1313   23.7079 O   0  0  0  0  0  0
  -29.6071  -20.4842   20.2542 C   0  0  0  0  0  0
  -27.4904  -21.3410   20.9736 C   0  0  0  0  0  0
  -28.7478  -21.6839   20.4568 C   0  0  0  0  0  0
  -29.2264  -19.0774   20.5673 C   0  0  0  0  0  0
  -27.9226  -19.0147   21.1138 C   0  0  0  0  0  0
  -29.0913  -23.2921   20.2217 C   0  0  0  0  0  0
  -30.1704  -17.7066   20.3955 C   0  0  0  0  0  0
  -27.9945  -24.5884   20.2566 C   0  0  0  0  0  0
  -27.1051  -20.0834   21.2865 N   0  0  0  0  0  0
  -29.7937  -16.1644   20.5569 N   0  0  0  0  0  0
  -27.2801  -17.5107   21.6577 Cl  0  0  0  0  0  0
  -31.4751  -12.7463   19.1963 H   0  0  0  0  0  0
  -30.4264  -11.6479   20.0426 H   0  0  0  0  0  0
  -29.8456  -11.7344   17.5923 H   0  0  0  0  0  0
  -29.6199  -13.4631   17.6894 H   0  0  0  0  0  0
  -27.9452  -11.2848   18.9718 H   0  0  0  0  0  0
  -27.3975  -12.4714   17.8144 H   0  0  0  0  0  0
  -27.5900  -14.2583   19.4149 H   0  0  0  0  0  0
  -28.7626  -12.3183   21.4632 H   0  0  0  0  0  0
  -28.3725  -13.9991   21.7514 H   0  0  0  0  0  0
  -25.2779   -9.5664   22.4765 H   0  0  0  0  0  0
  -24.0001   -7.4622   22.7480 H   0  0  0  0  0  0
  -21.0846   -8.8784   19.8958 H   0  0  0  0  0  0
  -22.3724  -10.9670   19.6170 H   0  0  0  0  0  0
  -21.2016   -7.6148   23.9714 H   0  0  0  0  0  0
  -21.1483   -6.0520   25.9075 H   0  0  0  0  0  0
  -22.0596   -2.7609   23.2837 H   0  0  0  0  0  0
  -22.4048  -11.9875   22.4859 H   0  0  0  0  0  0
  -21.1054  -13.1225   22.2642 H   0  0  0  0  0  0
  -24.6287  -15.8340   20.5450 H   0  0  0  0  0  0
  -26.2552  -15.6508   20.1379 H   0  0  0  0  0  0
  -26.7283  -32.5300   23.1001 H   0  0  0  0  0  0
  -25.0070  -33.9618   25.0324 H   0  0  0  0  0  0
  -22.7546  -31.2901   21.3771 H   0  0  0  0  0  0
  -23.3761  -35.9575   23.3308 H   0  0  0  0  0  0
  -24.3570  -36.8882   22.2058 H   0  0  0  0  0  0
  -23.7237  -37.6443   23.6680 H   0  0  0  0  0  0
  -26.1694  -31.4664   20.6179 H   0  0  0  0  0  0
  -26.8769  -30.7614   22.0343 H   0  0  0  0  0  0
  -28.1414  -28.7881   21.2249 H   0  0  0  0  0  0
  -25.9051  -25.8438   18.9932 H   0  0  0  0  0  0
  -23.9819  -27.2986   18.9819 H   0  0  0  0  0  0
  -23.8172  -30.5646   19.3970 H   0  0  0  0  0  0
  -22.7924  -29.2338   19.8417 H   0  0  0  0  0  0
  -25.1313  -36.1871   25.0811 H   0  0  0  0  0  0
  -21.0031  -28.3314   24.1352 H   0  0  0  0  0  0
  -20.5688  -26.2333   23.3626 H   0  0  0  0  0  0
  -21.6653  -26.7417   22.1204 H   0  0  0  0  0  0
  -19.6914  -25.6278   21.1264 H   0  0  0  0  0  0
  -19.6697  -27.3173   20.6736 H   0  0  0  0  0  0
  -17.4212  -26.6685   21.4034 H   0  0  0  0  0  0
  -18.0337  -26.0072   22.9030 H   0  0  0  0  0  0
  -19.7951  -30.7290   24.2252 H   0  0  0  0  0  0
  -17.5025  -31.6272   24.5150 H   0  0  0  0  0  0
  -15.5368  -30.2978   23.7660 H   0  0  0  0  0  0
  -15.8693  -28.0798   22.7108 H   0  0  0  0  0  0
  -24.5871  -30.7122   25.7727 H   0  0  0  0  0  0
  -24.8873  -32.2954   26.4781 H   0  0  0  0  0  0
  -25.7958  -30.8975   27.0232 H   0  0  0  0  0  0
  -26.3021  -29.6693   24.1304 H   0  0  0  0  0  0
  -27.3967  -29.7277   25.4912 H   0  0  0  0  0  0
  -27.8942  -30.4210   23.9680 H   0  0  0  0  0  0
  -27.2656  -33.3658   26.2034 H   0  0  0  0  0  0
  -28.3890  -32.6858   25.0356 H   0  0  0  0  0  0
  -28.0687  -31.8490   26.5467 H   0  0  0  0  0  0
  -28.2595  -38.0081   24.7506 H   0  0  0  0  0  0
  -28.1070  -36.2612   24.6306 H   0  0  0  0  0  0
  -27.2287  -37.1452   25.8866 H   0  0  0  0  0  0
  -20.9486  -29.8761   21.6778 H   0  0  0  0  0  0
  -26.0159  -38.2821   24.1398 H   0  0  0  0  0  0
  -30.5994  -20.6499   19.8604 H   0  0  0  0  0  0
  -26.7602  -22.1113   21.1722 H   0  0  0  0  0  0
  -29.6112  -23.3460   19.2649 H   0  0  0  0  0  0
  -29.8595  -23.5218   20.9608 H   0  0  0  0  0  0
  -31.0039  -17.8600   21.0821 H   0  0  0  0  0  0
  -30.6221  -17.7901   19.4057 H   0  0  0  0  0  0
  -27.4155  -24.4652   21.1722 H   0  0  0  0  0  0
  -27.2974  -24.3594   19.4537 H   0  0  0  0  0  0
  -28.8196  -15.9984   20.7594 H   0  0  0  0  0  0
  1 25  1  0  0  0
  1 30  2  0  0  0
  1 80  1  0  0  0
  2  3  1  0  0  0
  2 25  1  0  0  0
  2 82  1  0  0  0
  2 83  1  0  0  0
  3  4  1  0  0  0
  3 84  1  0  0  0
  3 85  1  0  0  0
  4  5  1  0  0  0
  4 86  1  0  0  0
  4 87  1  0  0  0
  5  6  1  0  0  0
  5 26  1  0  0  0
  5 88  1  0  0  0
  6 25  1  0  0  0
  6 89  1  0  0  0
  6 90  1  0  0  0
  7  8  2  0  0  0
  7 26  1  0  0  0
  7 29  1  0  0  0
  8  9  1  0  0  0
  8 22  1  0  0  0
  9 10  1  0  0  0
  9 27  2  0  0  0
 10 11  2  0  0  0
 10 15  1  0  0  0
 11 12  1  0  0  0
 11 91  1  0  0  0
 12 13  2  0  0  0
 12 92  1  0  0  0
 13 14  1  0  0  0
 13 31  1  0  0  0
 14 15  2  0  0  0
 14 93  1  0  0  0
 15 94  1  0  0  0
 16 17  2  0  0  0
 16 21  1  0  0  0
 16 31  1  0  0  0
 17 18  1  0  0  0
 17 95  1  0  0  0
 18 19  2  0  0  0
 18 96  1  0  0  0
 19 20  1  0  0  0
 19 24  1  0  0  0
 20 21  2  0  0  0
 20 97  1  0  0  0
 21 23  1  0  0  0
 22 28  1  0  0  0
 22 32  2  0  0  0
 26 27  1  0  0  0
 28 98  1  0  0  0
 28 99  1  0  0  0
 29100  1  0  0  0
 29101  1  0  0  0
 33 34  1  0  0  0
 33 66  1  0  0  0
 33 70  2  0  0  0
 34 36  1  0  0  0
 34 59  1  0  0  0
 34102  1  0  0  0
 35 44  2  0  0  0
 35 45  1  0  0  0
 35 68  1  0  0  0
 36 56  1  0  0  0
 36103  1  0  0  0
 37 39  1  0  0  0
 37 47  1  0  0  0
 37 66  1  0  0  0
 37104  1  0  0  0
 38 43  2  0  0  0
 38 46  1  0  0  0
 38 47  1  0  0  0
 39 64  1  0  0  0
 39 67  2  0  0  0
 40 52  1  0  0  0
 40 53  2  0  0  0
 40 58  1  0  0  0
 41105  1  0  0  0
 41106  1  0  0  0
 41107  1  0  0  0
 41 48  1  0  0  0
 42 43  1  0  0  0
 42 66  1  0  0  0
 42108  1  0  0  0
 42109  1  0  0  0
 43 44  1  0  0  0
 44110  1  0  0  0
 45 46  2  0  0  0
 45111  1  0  0  0
 46112  1  0  0  0
 47113  1  0  0  0
 47114  1  0  0  0
 48 56  1  0  0  0
 48 65  1  0  0  0
 48115  1  0  0  0
 49 50  1  0  0  0
 49 53  1  0  0  0
 49 64  1  0  0  0
 49116  1  0  0  0
 50 51  1  0  0  0
 50117  1  0  0  0
 50118  1  0  0  0
 51 52  1  0  0  0
 51119  1  0  0  0
 51120  1  0  0  0
 52121  1  0  0  0
 52122  1  0  0  0
 53 54  1  0  0  0
 54 55  2  0  0  0
 54123  1  0  0  0
 55 57  1  0  0  0
 55124  1  0  0  0
 56 69  2  0  0  0
 57 58  2  0  0  0
 57125  1  0  0  0
 58126  1  0  0  0
 59 60  1  0  0  0
 59 61  1  0  0  0
 59 62  1  0  0  0
 60127  1  0  0  0
 60128  1  0  0  0
 60129  1  0  0  0
 61130  1  0  0  0
 61131  1  0  0  0
 61132  1  0  0  0
 62133  1  0  0  0
 62134  1  0  0  0
 62135  1  0  0  0
 63 65  1  0  0  0
 63136  1  0  0  0
 63137  1  0  0  0
 63138  1  0  0  0
 64139  1  0  0  0
 65140  1  0  0  0
 68 78  1  0  0  0
 71 73  2  0  0  0
 71 74  1  0  0  0
 71141  1  0  0  0
 72 73  1  0  0  0
 72 79  2  0  0  0
 72142  1  0  0  0
 73 76  1  0  0  0
 74 75  2  0  0  0
 74 77  1  0  0  0
 75 79  1  0  0  0
 75 81  1  0  0  0
 76 78  1  0  0  0
 76143  1  0  0  0
 76144  1  0  0  0
 77 80  1  0  0  0
 77145  1  0  0  0
 77146  1  0  0  0
 78147  1  0  0  0
 78148  1  0  0  0
 80149  1  0  0  0
M  ISO  4   1 100  68 101  78 101  80 100
M  END
> <chiral flag>
0

> <version>
0

> <s_m_source_file>
/data/baiqing/PycharmProjects/Reinvent-master-3.2/result/LINK_invent/BTK/process_docking_weight1_custom_sum_contain_oxygen_bond_distance_aromatic_linkinvent_7_9_3/rearranged_h_0032.sdf

> <i_m_source_file_index>
91

> <r_mmod_Potential_Energy-OPLS-2005>
360.436431884766

> <r_mmod_Stretch_Energy-OPLS-2005>
278.289520263672

> <r_mmod_Bend_Energy-OPLS-2005>
256.288726806641

> <r_mmod_Torsional_Energy-OPLS-2005>
202.975387573242

> <r_mmod_Improper_Torsional_Energy-OPLS-2005>
4.37267303466797

> <r_mmod_Van_der_Waal_Energy-OPLS-2005>
131.246307373047

> <r_mmod_Electrostatic_Energy-OPLS-2005>
-501.772155761719

> <r_mmod_Solvation_Energy-OPLS-2005>
-212.848449707031

> <b_mmod_Minimization_Converged-OPLS-2005>
0

> <r_mmod_RMS_Derivative-OPLS-2005>
1.23974049091339

$$$$
91
                    3D
 Structure written by MMmdl.
164172  0  0  1  0            999 V2000
  -30.7516  -14.3802   20.5946 C   0  0  0  0  0  0
  -30.4076  -12.2606   19.3959 C   0  0  0  0  0  0
  -29.4788  -12.5114   18.1925 C   0  0  0  0  0  0
  -28.0012  -12.3907   18.6109 C   0  0  0  0  0  0
  -27.6685  -13.2076   19.8906 C   0  0  2  0  0  0
  -28.7136  -12.9497   21.0026 C   0  0  0  0  0  0
  -25.2583  -13.8180   20.5715 C   0  0  0  0  0  0
  -24.1831  -13.0459   20.9179 C   0  0  0  0  0  0
  -24.6403  -11.6927   20.8758 C   0  0  0  0  0  0
  -23.9097  -10.4309   21.0442 C   0  0  0  0  0  0
  -24.3653   -9.4210   21.9208 C   0  0  0  0  0  0
  -23.6320   -8.2253   22.0769 C   0  0  0  0  0  0
  -22.4301   -8.0296   21.3564 C   0  0  0  0  0  0
  -21.9944   -9.0285   20.4671 C   0  0  0  0  0  0
  -22.7280  -10.2156   20.3095 C   0  0  0  0  0  0
  -21.6856   -6.0766   22.5298 C   0  0  0  0  0  0
  -21.4017   -6.5669   23.8238 C   0  0  0  0  0  0
  -21.3644   -5.6823   24.9194 C   0  0  0  0  0  0
  -21.6014   -4.3087   24.7240 C   0  0  0  0  0  0
  -21.8815   -3.8180   23.4365 C   0  0  0  0  0  0
  -21.9193   -4.6994   22.3420 C   0  0  0  0  0  0
  -22.7831  -13.5215   21.1856 C   0  0  0  0  0  0
  -22.1662   -4.2187   21.0998 F   0  0  0  0  0  0
  -21.5629   -3.4558   25.7745 F   0  0  0  0  0  0
  -30.0505  -13.2282   20.4446 N   0  0  0  0  0  0
  -26.3067  -12.9376   20.3491 N   0  0  0  0  0  0
  -25.9334  -11.6523   20.5830 N   0  0  0  0  0  0
  -22.0500  -12.8206   22.0428 N   0  0  0  0  0  0
  -25.4244  -15.1901   20.4086 N   0  0  0  0  0  0
  -31.8279  -14.5987   20.0311 O   0  0  0  0  0  0
  -21.6650   -6.8902   21.4257 O   0  0  0  0  0  0
  -22.3474  -14.5525   20.6721 O   0  0  0  0  0  0
  -24.6087  -31.8703   23.2124 C   0  0  0  0  0  0
  -25.9005  -32.4841   23.8404 C   0  0  1  0  0  0
  -27.2574  -27.4679   20.1011 C   0  0  0  0  0  0
  -25.5878  -33.8640   24.2328 N   0  0  0  0  0  0
  -23.3975  -30.4901   21.5507 C   0  0  2  0  0  0
  -24.8502  -28.9585   20.1157 C   0  0  0  0  0  0
  -22.7388  -29.4658   22.5009 C   0  0  0  0  0  0
  -18.0263  -28.1370   22.8492 C   0  0  0  0  0  0
  -24.1493  -36.7318   23.2640 C   0  0  0  0  0  0
  -25.9207  -30.8445   21.3661 C   0  0  0  0  0  0
  -26.0005  -29.4804   20.7170 C   0  0  0  0  0  0
  -27.2011  -28.7417   20.7168 C   0  0  0  0  0  0
  -26.0922  -26.9582   19.4925 C   0  0  0  0  0  0
  -24.8870  -27.6914   19.5050 C   0  0  0  0  0  0
  -23.6072  -29.8189   20.1654 C   0  0  0  0  0  0
  -25.4114  -36.3126   24.0339 C   0  0  1  0  0  0
  -20.5851  -28.3646   23.1338 C   0  0  2  0  0  0
  -20.6742  -26.9383   22.5429 C   0  0  0  0  0  0
  -19.5735  -26.6368   21.5213 C   0  0  0  0  0  0
  -18.1910  -26.7915   22.1621 C   0  0  0  0  0  0
  -19.1517  -28.8820   23.2906 C   0  0  0  0  0  0
  -18.9451  -30.1429   23.8918 C   0  0  0  0  0  0
  -17.6456  -30.6583   24.0557 C   0  0  0  0  0  0
  -25.9042  -34.9494   23.5135 C   0  0  0  0  0  0
  -16.5345  -29.9091   23.6319 C   0  0  0  0  0  0
  -16.7262  -28.6505   23.0355 C   0  0  0  0  0  0
  -26.4441  -31.6628   25.0732 C   0  0  0  0  0  0
  -25.3690  -31.3729   26.1466 C   0  0  0  0  0  0
  -27.0263  -30.3075   24.6095 C   0  0  0  0  0  0
  -27.6027  -32.4337   25.7490 C   0  0  0  0  0  0
  -27.5595  -37.1807   24.8457 C   0  0  0  0  0  0
  -21.4124  -29.3019   22.3758 N   0  0  0  0  0  0
  -26.4303  -37.3806   23.9414 N   0  0  0  0  0  0
  -24.6587  -31.0820   22.1022 N   0  0  0  0  0  0
  -23.4163  -28.8214   23.3058 O   0  0  0  0  0  0
  -28.3957  -26.6887   20.0606 O   0  0  0  0  0  0
  -26.5609  -34.8939   22.4702 O   0  0  0  0  0  0
  -23.5289  -32.1446   23.7534 O   0  0  0  0  0  0
  -29.4882  -22.2209   20.1071 C   0  0  0  0  0  0
  -29.8671  -23.5763   20.0405 C   0  0  0  0  0  0
  -29.1646  -22.4427   22.5055 C   0  0  0  0  0  0
  -29.1426  -21.6388   21.3477 C   0  0  0  0  0  0
  -29.9366  -24.3731   21.2108 C   0  0  0  0  0  0
  -29.5591  -23.7932   22.4470 C   0  0  0  0  0  0
  -31.6073  -26.0315   20.1668 C   0  0  0  0  0  0
  -28.8368  -20.1544   21.5193 C   0  0  0  0  0  0
  -28.2601  -19.3951   20.3022 C   0  0  0  0  0  0
  -28.5379  -17.8834   20.3880 C   0  0  0  0  0  0
  -30.0398  -17.5578   20.2383 C   0  0  0  0  0  0
  -30.6162  -16.7127   21.3891 C   0  0  0  0  0  0
  -29.3496  -26.8965   21.1044 C   0  0  0  0  0  0
  -30.4578  -25.8187   21.1656 C   0  0  1  0  0  0
  -30.1539  -15.3300   21.3212 N   0  0  0  0  0  0
  -31.8584  -27.1338   19.6686 O   0  0  0  0  0  0
  -29.6044  -24.6991   23.9199 Cl  0  0  0  0  0  0
  -31.4548  -12.3353   19.0916 H   0  0  0  0  0  0
  -30.2779  -11.2410   19.7645 H   0  0  0  0  0  0
  -29.6984  -11.8087   17.3886 H   0  0  0  0  0  0
  -29.6605  -13.5079   17.7882 H   0  0  0  0  0  0
  -27.7891  -11.3346   18.7790 H   0  0  0  0  0  0
  -27.3532  -12.7023   17.7879 H   0  0  0  0  0  0
  -27.7293  -14.2618   19.6180 H   0  0  0  0  0  0
  -28.6726  -11.9119   21.3396 H   0  0  0  0  0  0
  -28.4895  -13.5385   21.8939 H   0  0  0  0  0  0
  -25.2812   -9.5688   22.4763 H   0  0  0  0  0  0
  -24.0039   -7.4644   22.7476 H   0  0  0  0  0  0
  -21.0894   -8.8834   19.8952 H   0  0  0  0  0  0
  -22.3785  -10.9719   19.6218 H   0  0  0  0  0  0
  -21.2015   -7.6181   23.9774 H   0  0  0  0  0  0
  -21.1461   -6.0545   25.9104 H   0  0  0  0  0  0
  -22.0592   -2.7639   23.2875 H   0  0  0  0  0  0
  -22.4137  -11.9861   22.4808 H   0  0  0  0  0  0
  -21.1131  -13.1220   22.2684 H   0  0  0  0  0  0
  -24.6520  -15.8359   20.5321 H   0  0  0  0  0  0
  -26.2752  -15.6461   20.1048 H   0  0  0  0  0  0
  -26.7088  -32.5583   23.1188 H   0  0  0  0  0  0
  -25.0014  -33.9793   25.0459 H   0  0  0  0  0  0
  -22.6841  -31.3046   21.4089 H   0  0  0  0  0  0
  -23.3764  -35.9644   23.3314 H   0  0  0  0  0  0
  -24.3584  -36.8919   22.2051 H   0  0  0  0  0  0
  -23.7230  -37.6522   23.6642 H   0  0  0  0  0  0
  -26.0292  -31.6144   20.6013 H   0  0  0  0  0  0
  -26.8074  -30.8994   21.9859 H   0  0  0  0  0  0
  -28.0736  -29.1692   21.1866 H   0  0  0  0  0  0
  -26.1181  -25.9846   19.0204 H   0  0  0  0  0  0
  -24.0016  -27.2774   19.0415 H   0  0  0  0  0  0
  -23.7094  -30.5914   19.4022 H   0  0  0  0  0  0
  -22.7334  -29.2327   19.8729 H   0  0  0  0  0  0
  -25.1288  -36.2003   25.0829 H   0  0  0  0  0  0
  -20.9925  -28.3196   24.1469 H   0  0  0  0  0  0
  -20.5607  -26.2255   23.3612 H   0  0  0  0  0  0
  -21.6622  -26.7405   22.1254 H   0  0  0  0  0  0
  -19.6886  -25.6271   21.1264 H   0  0  0  0  0  0
  -19.6691  -27.3166   20.6730 H   0  0  0  0  0  0
  -17.4172  -26.6670   21.4032 H   0  0  0  0  0  0
  -18.0316  -26.0045   22.9009 H   0  0  0  0  0  0
  -19.7926  -30.7220   24.2327 H   0  0  0  0  0  0
  -17.5022  -31.6274   24.5142 H   0  0  0  0  0  0
  -15.5353  -30.3004   23.7629 H   0  0  0  0  0  0
  -15.8655  -28.0818   22.7085 H   0  0  0  0  0  0
  -24.5873  -30.7072   25.7787 H   0  0  0  0  0  0
  -24.8854  -32.2880   26.4900 H   0  0  0  0  0  0
  -25.8011  -30.8897   27.0236 H   0  0  0  0  0  0
  -26.2814  -29.6883   24.1082 H   0  0  0  0  0  0
  -27.3968  -29.7270   25.4552 H   0  0  0  0  0  0
  -27.8679  -30.4409   23.9289 H   0  0  0  0  0  0
  -27.2668  -33.3636   26.2092 H   0  0  0  0  0  0
  -28.3827  -32.6900   25.0308 H   0  0  0  0  0  0
  -28.0709  -31.8441   26.5381 H   0  0  0  0  0  0
  -28.2605  -38.0113   24.7543 H   0  0  0  0  0  0
  -28.1097  -36.2650   24.6243 H   0  0  0  0  0  0
  -27.2311  -37.1418   25.8857 H   0  0  0  0  0  0
  -20.9270  -29.8761   21.7007 H   0  0  0  0  0  0
  -26.0204  -38.2890   24.1424 H   0  0  0  0  0  0
  -29.5075  -21.6483   19.1917 H   0  0  0  0  0  0
  -30.1391  -23.9808   19.0756 H   0  0  0  0  0  0
  -28.9143  -22.0092   23.4635 H   0  0  0  0  0  0
  -32.2046  -25.1449   19.9534 H   0  0  0  0  0  0
  -28.1453  -20.0316   22.3536 H   0  0  0  0  0  0
  -29.7688  -19.7001   21.8575 H   0  0  0  0  0  0
  -28.6830  -19.7356   19.3612 H   0  0  0  0  0  0
  -27.1881  -19.5860   20.2262 H   0  0  0  0  0  0
  -27.9919  -17.3803   19.5884 H   0  0  0  0  0  0
  -28.1381  -17.4823   21.3212 H   0  0  0  0  0  0
  -30.6208  -18.4777   20.1798 H   0  0  0  0  0  0
  -30.2189  -17.0681   19.2797 H   0  0  0  0  0  0
  -30.3438  -17.1428   22.3524 H   0  0  0  0  0  0
  -31.7066  -16.7504   21.3466 H   0  0  0  0  0  0
  -29.8051  -27.8828   20.9990 H   0  0  0  0  0  0
  -28.8257  -26.9018   22.0610 H   0  0  0  0  0  0
  -30.9646  -25.9793   22.1161 H   0  0  0  0  0  0
  -29.2770  -15.0997   21.7665 H   0  0  0  0  0  0
  1 25  1  0  0  0
  1 30  2  0  0  0
  1 85  1  0  0  0
  2  3  1  0  0  0
  2 25  1  0  0  0
  2 88  1  0  0  0
  2 89  1  0  0  0
  3  4  1  0  0  0
  3 90  1  0  0  0
  3 91  1  0  0  0
  4  5  1  0  0  0
  4 92  1  0  0  0
  4 93  1  0  0  0
  5  6  1  0  0  0
  5 26  1  0  0  0
  5 94  1  0  0  0
  6 25  1  0  0  0
  6 95  1  0  0  0
  6 96  1  0  0  0
  7  8  2  0  0  0
  7 26  1  0  0  0
  7 29  1  0  0  0
  8  9  1  0  0  0
  8 22  1  0  0  0
  9 10  1  0  0  0
  9 27  2  0  0  0
 10 11  2  0  0  0
 10 15  1  0  0  0
 11 12  1  0  0  0
 11 97  1  0  0  0
 12 13  2  0  0  0
 12 98  1  0  0  0
 13 14  1  0  0  0
 13 31  1  0  0  0
 14 15  2  0  0  0
 14 99  1  0  0  0
 15100  1  0  0  0
 16 17  2  0  0  0
 16 21  1  0  0  0
 16 31  1  0  0  0
 17 18  1  0  0  0
 17101  1  0  0  0
 18 19  2  0  0  0
 18102  1  0  0  0
 19 20  1  0  0  0
 19 24  1  0  0  0
 20 21  2  0  0  0
 20103  1  0  0  0
 21 23  1  0  0  0
 22 28  1  0  0  0
 22 32  2  0  0  0
 26 27  1  0  0  0
 28104  1  0  0  0
 28105  1  0  0  0
 29106  1  0  0  0
 29107  1  0  0  0
 33 34  1  0  0  0
 33 66  1  0  0  0
 33 70  2  0  0  0
 34 36  1  0  0  0
 34 59  1  0  0  0
 34108  1  0  0  0
 35 44  2  0  0  0
 35 45  1  0  0  0
 35 68  1  0  0  0
 36 56  1  0  0  0
 36109  1  0  0  0
 37 39  1  0  0  0
 37 47  1  0  0  0
 37 66  1  0  0  0
 37110  1  0  0  0
 38 43  2  0  0  0
 38 46  1  0  0  0
 38 47  1  0  0  0
 39 64  1  0  0  0
 39 67  2  0  0  0
 40 52  1  0  0  0
 40 53  2  0  0  0
 40 58  1  0  0  0
 41111  1  0  0  0
 41112  1  0  0  0
 41113  1  0  0  0
 41 48  1  0  0  0
 42 43  1  0  0  0
 42 66  1  0  0  0
 42114  1  0  0  0
 42115  1  0  0  0
 43 44  1  0  0  0
 44116  1  0  0  0
 45 46  2  0  0  0
 45117  1  0  0  0
 46118  1  0  0  0
 47119  1  0  0  0
 47120  1  0  0  0
 48 56  1  0  0  0
 48 65  1  0  0  0
 48121  1  0  0  0
 49 50  1  0  0  0
 49 53  1  0  0  0
 49 64  1  0  0  0
 49122  1  0  0  0
 50 51  1  0  0  0
 50123  1  0  0  0
 50124  1  0  0  0
 51 52  1  0  0  0
 51125  1  0  0  0
 51126  1  0  0  0
 52127  1  0  0  0
 52128  1  0  0  0
 53 54  1  0  0  0
 54 55  2  0  0  0
 54129  1  0  0  0
 55 57  1  0  0  0
 55130  1  0  0  0
 56 69  2  0  0  0
 57 58  2  0  0  0
 57131  1  0  0  0
 58132  1  0  0  0
 59 60  1  0  0  0
 59 61  1  0  0  0
 59 62  1  0  0  0
 60133  1  0  0  0
 60134  1  0  0  0
 60135  1  0  0  0
 61136  1  0  0  0
 61137  1  0  0  0
 61138  1  0  0  0
 62139  1  0  0  0
 62140  1  0  0  0
 62141  1  0  0  0
 63 65  1  0  0  0
 63142  1  0  0  0
 63143  1  0  0  0
 63144  1  0  0  0
 64145  1  0  0  0
 65146  1  0  0  0
 68 83  1  0  0  0
 71 72  2  0  0  0
 71 74  1  0  0  0
 71147  1  0  0  0
 72 75  1  0  0  0
 72148  1  0  0  0
 73 74  2  0  0  0
 73 76  1  0  0  0
 73149  1  0  0  0
 74 78  1  0  0  0
 75 76  2  0  0  0
 75 84  1  0  0  0
 76 87  1  0  0  0
 77 84  1  0  0  0
 77 86  2  0  0  0
 77150  1  0  0  0
 78 79  1  0  0  0
 78151  1  0  0  0
 78152  1  0  0  0
 79 80  1  0  0  0
 79153  1  0  0  0
 79154  1  0  0  0
 80 81  1  0  0  0
 80155  1  0  0  0
 80156  1  0  0  0
 81 82  1  0  0  0
 81157  1  0  0  0
 81158  1  0  0  0
 82 85  1  0  0  0
 82159  1  0  0  0
 82160  1  0  0  0
 83161  1  0  0  0
 83162  1  0  0  0
 83 84  1  0  0  0
 84163  1  0  0  0
 85164  1  0  0  0
M  ISO  4   1 100  68 101  83 101  85 100
M  END
> <chiral flag>
0

> <version>
0

> <s_m_source_file>
/data/baiqing/PycharmProjects/Reinvent-master-3.2/result/LINK_invent/BTK/process_docking_weight1_custom_sum_contain_oxygen_bond_distance_aromatic_linkinvent_7_9_3/rearranged_h_0032.sdf

> <i_m_source_file_index>
92

> <r_mmod_Potential_Energy-OPLS-2005>
-63.6666717529297

> <r_mmod_Stretch_Energy-OPLS-2005>
34.6380004882812

> <r_mmod_Bend_Energy-OPLS-2005>
101.960395812988

> <r_mmod_Torsional_Energy-OPLS-2005>
203.86442565918

> <r_mmod_Improper_Torsional_Energy-OPLS-2005>
2.96601963043213

> <r_mmod_Van_der_Waal_Energy-OPLS-2005>
162.008010864258

> <r_mmod_Electrostatic_Energy-OPLS-2005>
-359.414672851562

> <r_mmod_Solvation_Energy-OPLS-2005>
-217.162582397461

> <b_mmod_Minimization_Converged-OPLS-2005>
0

> <r_mmod_RMS_Derivative-OPLS-2005>
3.16735315322876

$$$$
92
                    3D
 Structure written by MMmdl.
149157  0  0  1  0            999 V2000
  -30.3952  -15.3419   20.3470 C   0  0  0  0  0  0
  -30.4419  -12.8577   19.5466 C   0  0  0  0  0  0
  -29.5482  -12.5872   18.3078 C   0  0  0  0  0  0
  -28.0984  -12.2995   18.7308 C   0  0  0  0  0  0
  -27.6125  -13.2840   19.8267 C   0  0  2  0  0  0
  -28.6367  -13.4825   20.9646 C   0  0  0  0  0  0
  -25.2375  -13.8263   20.5756 C   0  0  0  0  0  0
  -24.1735  -13.0447   20.9261 C   0  0  0  0  0  0
  -24.6400  -11.6956   20.8771 C   0  0  0  0  0  0
  -23.9108  -10.4301   21.0400 C   0  0  0  0  0  0
  -24.3645   -9.4215   21.9176 C   0  0  0  0  0  0
  -23.6292   -8.2265   22.0762 C   0  0  0  0  0  0
  -22.4259   -8.0306   21.3567 C   0  0  0  0  0  0
  -21.9908   -9.0283   20.4669 C   0  0  0  0  0  0
  -22.7275  -10.2138   20.3066 C   0  0  0  0  0  0
  -21.6852   -6.0739   22.5276 C   0  0  0  0  0  0
  -21.4037   -6.5647   23.8216 C   0  0  0  0  0  0
  -21.3659   -5.6790   24.9173 C   0  0  0  0  0  0
  -21.6037   -4.3052   24.7217 C   0  0  0  0  0  0
  -21.8814   -3.8152   23.4337 C   0  0  0  0  0  0
  -21.9187   -4.6971   22.3393 C   0  0  0  0  0  0
  -22.7733  -13.5202   21.1881 C   0  0  0  0  0  0
  -22.1651   -4.2168   21.0965 F   0  0  0  0  0  0
  -21.5614   -3.4527   25.7720 F   0  0  0  0  0  0
  -29.8646  -14.0100   20.3442 N   0  0  0  0  0  0
  -26.2815  -12.9561   20.3200 N   0  0  0  0  0  0
  -25.9342  -11.6665   20.5708 N   0  0  0  0  0  0
  -22.0368  -12.8214   22.0443 N   0  0  0  0  0  0
  -25.3998  -15.1996   20.4210 N   0  0  0  0  0  0
  -31.6020  -15.3510   20.0643 O   0  0  0  0  0  0
  -21.6643   -6.8891   21.4242 O   0  0  0  0  0  0
  -22.3425  -14.5495   20.6712 O   0  0  0  0  0  0
  -24.6676  -31.8178   23.1655 C   0  0  0  0  0  0
  -25.9319  -32.4563   23.8156 C   0  0  1  0  0  0
  -27.2195  -26.8806   20.1815 C   0  0  0  0  0  0
  -25.5970  -33.8381   24.2056 N   0  0  0  0  0  0
  -23.4853  -30.4258   21.5177 C   0  0  2  0  0  0
  -24.9397  -28.8065   20.1095 C   0  0  0  0  0  0
  -22.7701  -29.4404   22.4786 C   0  0  0  0  0  0
  -18.0331  -28.1395   22.8464 C   0  0  0  0  0  0
  -24.1509  -36.7219   23.2651 C   0  0  0  0  0  0
  -26.0558  -30.6097   21.4038 C   0  0  0  0  0  0
  -26.1226  -29.1938   20.7480 C   0  0  0  0  0  0
  -27.2528  -28.2499   20.7640 C   0  0  0  0  0  0
  -26.0091  -26.6625   19.4820 C   0  0  0  0  0  0
  -24.9103  -27.5626   19.4577 C   0  0  0  0  0  0
  -23.7267  -29.7374   20.1447 C   0  0  0  0  0  0
  -25.4144  -36.2959   24.0300 C   0  0  1  0  0  0
  -20.5952  -28.3743   23.1191 C   0  0  2  0  0  0
  -20.6803  -26.9422   22.5411 C   0  0  0  0  0  0
  -19.5777  -26.6370   21.5214 C   0  0  0  0  0  0
  -18.1960  -26.7930   22.1630 C   0  0  0  0  0  0
  -19.1589  -28.8894   23.2813 C   0  0  0  0  0  0
  -18.9498  -30.1489   23.8844 C   0  0  0  0  0  0
  -17.6483  -30.6577   24.0546 C   0  0  0  0  0  0
  -25.9110  -34.9335   23.5002 C   0  0  0  0  0  0
  -16.5373  -29.9059   23.6335 C   0  0  0  0  0  0
  -16.7313  -28.6486   23.0341 C   0  0  0  0  0  0
  -26.4533  -31.6518   25.0704 C   0  0  0  0  0  0
  -25.3642  -31.3798   26.1357 C   0  0  0  0  0  0
  -27.0417  -30.2875   24.6471 C   0  0  0  0  0  0
  -27.6050  -32.4296   25.7492 C   0  0  0  0  0  0
  -27.5578  -37.1772   24.8456 C   0  0  0  0  0  0
  -21.4363  -29.3025   22.3549 N   0  0  0  0  0  0
  -26.4294  -37.3691   23.9381 N   0  0  0  0  0  0
  -24.7580  -30.9782   22.0829 N   0  0  0  0  0  0
  -23.4225  -28.7992   23.3058 O   0  0  0  0  0  0
  -28.1972  -25.7416   20.3008 O   0  0  0  0  0  0
  -26.5736  -34.8864   22.4613 O   0  0  0  0  0  0
  -23.5726  -32.1167   23.6721 O   0  0  0  0  0  0
  -28.8089  -21.1666   19.8784 C   0  0  0  0  0  0
  -29.2813  -19.8501   20.5530 C   0  0  0  0  0  0
  -29.5707  -20.1547   21.9073 C   0  0  0  0  0  0
  -28.6730  -22.5913   20.4716 C   0  0  0  0  0  0
  -29.4641  -21.4910   22.4301 C   0  0  0  0  0  0
  -29.8866  -21.7964   23.8579 C   0  0  0  0  0  0
  -29.6685  -18.2272   19.9464 C   0  0  0  0  0  0
  -28.0098  -24.1310   19.8843 C   0  0  0  0  0  0
  -29.0487  -22.6181   21.7700 N   0  0  0  0  0  0
  -29.6113  -16.6120   20.4653 N   0  0  0  0  0  0
  -30.1271  -18.8724   22.9303 Cl  0  0  0  0  0  0
  -31.4580  -13.0717   19.2097 H   0  0  0  0  0  0
  -30.5309  -11.9647   20.1645 H   0  0  0  0  0  0
  -29.9479  -11.7577   17.7236 H   0  0  0  0  0  0
  -29.5738  -13.4583   17.6517 H   0  0  0  0  0  0
  -28.0677  -11.2812   19.1179 H   0  0  0  0  0  0
  -27.4324  -12.3209   17.8663 H   0  0  0  0  0  0
  -27.5229  -14.2466   19.3200 H   0  0  0  0  0  0
  -28.8103  -12.5557   21.5155 H   0  0  0  0  0  0
  -28.2566  -14.2051   21.6874 H   0  0  0  0  0  0
  -25.2782   -9.5691   22.4772 H   0  0  0  0  0  0
  -23.9991   -7.4647   22.7490 H   0  0  0  0  0  0
  -21.0832   -8.8835   19.8967 H   0  0  0  0  0  0
  -22.3743  -10.9688   19.6199 H   0  0  0  0  0  0
  -21.2069   -7.6157   23.9728 H   0  0  0  0  0  0
  -21.1477   -6.0515   25.9072 H   0  0  0  0  0  0
  -22.0590   -2.7618   23.2820 H   0  0  0  0  0  0
  -22.3944  -11.9923   22.4938 H   0  0  0  0  0  0
  -21.0990  -13.1295   22.2605 H   0  0  0  0  0  0
  -24.6328  -15.8474   20.5593 H   0  0  0  0  0  0
  -26.2269  -15.6441   20.0466 H   0  0  0  0  0  0
  -26.7408  -32.5073   23.0879 H   0  0  0  0  0  0
  -24.9974  -33.9435   25.0116 H   0  0  0  0  0  0
  -22.8003  -31.2577   21.3426 H   0  0  0  0  0  0
  -23.3761  -35.9558   23.3292 H   0  0  0  0  0  0
  -24.3602  -36.8879   22.2071 H   0  0  0  0  0  0
  -23.7275  -37.6412   23.6717 H   0  0  0  0  0  0
  -26.2346  -31.3494   20.6225 H   0  0  0  0  0  0
  -26.9153  -30.6724   22.0588 H   0  0  0  0  0  0
  -28.1419  -28.5393   21.3059 H   0  0  0  0  0  0
  -25.8686  -25.7174   18.9790 H   0  0  0  0  0  0
  -24.0113  -27.2615   18.9378 H   0  0  0  0  0  0
  -23.8821  -30.5021   19.3823 H   0  0  0  0  0  0
  -22.8363  -29.1890   19.8333 H   0  0  0  0  0  0
  -25.1349  -36.1765   25.0794 H   0  0  0  0  0  0
  -21.0028  -28.3331   24.1316 H   0  0  0  0  0  0
  -20.5675  -26.2351   23.3648 H   0  0  0  0  0  0
  -21.6664  -26.7392   22.1218 H   0  0  0  0  0  0
  -19.6935  -25.6270   21.1272 H   0  0  0  0  0  0
  -19.6700  -27.3152   20.6717 H   0  0  0  0  0  0
  -17.4228  -26.6659   21.4035 H   0  0  0  0  0  0
  -18.0365  -26.0082   22.9043 H   0  0  0  0  0  0
  -19.7964  -30.7329   24.2178 H   0  0  0  0  0  0
  -17.5020  -31.6241   24.5169 H   0  0  0  0  0  0
  -15.5372  -30.2927   23.7685 H   0  0  0  0  0  0
  -15.8722  -28.0785   22.7065 H   0  0  0  0  0  0
  -24.5808  -30.7173   25.7658 H   0  0  0  0  0  0
  -24.8845  -32.3012   26.4677 H   0  0  0  0  0  0
  -25.7844  -30.9014   27.0215 H   0  0  0  0  0  0
  -26.3086  -29.6539   24.1479 H   0  0  0  0  0  0
  -27.3922  -29.7258   25.5141 H   0  0  0  0  0  0
  -27.9036  -30.4029   23.9896 H   0  0  0  0  0  0
  -27.2656  -33.3626   26.1992 H   0  0  0  0  0  0
  -28.3899  -32.6797   25.0346 H   0  0  0  0  0  0
  -28.0678  -31.8469   26.5462 H   0  0  0  0  0  0
  -28.2590  -38.0075   24.7486 H   0  0  0  0  0  0
  -28.1080  -36.2604   24.6304 H   0  0  0  0  0  0
  -27.2302  -37.1442   25.8862 H   0  0  0  0  0  0
  -20.9638  -29.8698   21.6654 H   0  0  0  0  0  0
  -26.0151  -38.2764   24.1330 H   0  0  0  0  0  0
  -28.5382  -21.0826   18.8342 H   0  0  0  0  0  0
  -30.9278  -22.1243   23.8647 H   0  0  0  0  0  0
  -29.7922  -20.9414   24.5240 H   0  0  0  0  0  0
  -29.2802  -22.5972   24.2807 H   0  0  0  0  0  0
  -30.7061  -18.3364   19.6276 H   0  0  0  0  0  0
  -29.1174  -18.1967   19.0057 H   0  0  0  0  0  0
  -26.9370  -23.9634   19.9579 H   0  0  0  0  0  0
  -28.1990  -24.1076   18.8123 H   0  0  0  0  0  0
  -28.6827  -16.3952   20.7963 H   0  0  0  0  0  0
  1 25  1  0  0  0
  1 30  2  0  0  0
  1 80  1  0  0  0
  2  3  1  0  0  0
  2 25  1  0  0  0
  2 82  1  0  0  0
  2 83  1  0  0  0
  3  4  1  0  0  0
  3 84  1  0  0  0
  3 85  1  0  0  0
  4  5  1  0  0  0
  4 86  1  0  0  0
  4 87  1  0  0  0
  5  6  1  0  0  0
  5 26  1  0  0  0
  5 88  1  0  0  0
  6 25  1  0  0  0
  6 89  1  0  0  0
  6 90  1  0  0  0
  7  8  2  0  0  0
  7 26  1  0  0  0
  7 29  1  0  0  0
  8  9  1  0  0  0
  8 22  1  0  0  0
  9 10  1  0  0  0
  9 27  2  0  0  0
 10 11  2  0  0  0
 10 15  1  0  0  0
 11 12  1  0  0  0
 11 91  1  0  0  0
 12 13  2  0  0  0
 12 92  1  0  0  0
 13 14  1  0  0  0
 13 31  1  0  0  0
 14 15  2  0  0  0
 14 93  1  0  0  0
 15 94  1  0  0  0
 16 17  2  0  0  0
 16 21  1  0  0  0
 16 31  1  0  0  0
 17 18  1  0  0  0
 17 95  1  0  0  0
 18 19  2  0  0  0
 18 96  1  0  0  0
 19 20  1  0  0  0
 19 24  1  0  0  0
 20 21  2  0  0  0
 20 97  1  0  0  0
 21 23  1  0  0  0
 22 28  1  0  0  0
 22 32  2  0  0  0
 26 27  1  0  0  0
 28 98  1  0  0  0
 28 99  1  0  0  0
 29100  1  0  0  0
 29101  1  0  0  0
 33 34  1  0  0  0
 33 66  1  0  0  0
 33 70  2  0  0  0
 34 36  1  0  0  0
 34 59  1  0  0  0
 34102  1  0  0  0
 35 44  2  0  0  0
 35 45  1  0  0  0
 35 68  1  0  0  0
 36 56  1  0  0  0
 36103  1  0  0  0
 37 39  1  0  0  0
 37 47  1  0  0  0
 37 66  1  0  0  0
 37104  1  0  0  0
 38 43  2  0  0  0
 38 46  1  0  0  0
 38 47  1  0  0  0
 39 64  1  0  0  0
 39 67  2  0  0  0
 40 52  1  0  0  0
 40 53  2  0  0  0
 40 58  1  0  0  0
 41105  1  0  0  0
 41106  1  0  0  0
 41107  1  0  0  0
 41 48  1  0  0  0
 42 43  1  0  0  0
 42 66  1  0  0  0
 42108  1  0  0  0
 42109  1  0  0  0
 43 44  1  0  0  0
 44110  1  0  0  0
 45 46  2  0  0  0
 45111  1  0  0  0
 46112  1  0  0  0
 47113  1  0  0  0
 47114  1  0  0  0
 48 56  1  0  0  0
 48 65  1  0  0  0
 48115  1  0  0  0
 49 50  1  0  0  0
 49 53  1  0  0  0
 49 64  1  0  0  0
 49116  1  0  0  0
 50 51  1  0  0  0
 50117  1  0  0  0
 50118  1  0  0  0
 51 52  1  0  0  0
 51119  1  0  0  0
 51120  1  0  0  0
 52121  1  0  0  0
 52122  1  0  0  0
 53 54  1  0  0  0
 54 55  2  0  0  0
 54123  1  0  0  0
 55 57  1  0  0  0
 55124  1  0  0  0
 56 69  2  0  0  0
 57 58  2  0  0  0
 57125  1  0  0  0
 58126  1  0  0  0
 59 60  1  0  0  0
 59 61  1  0  0  0
 59 62  1  0  0  0
 60127  1  0  0  0
 60128  1  0  0  0
 60129  1  0  0  0
 61130  1  0  0  0
 61131  1  0  0  0
 61132  1  0  0  0
 62133  1  0  0  0
 62134  1  0  0  0
 62135  1  0  0  0
 63 65  1  0  0  0
 63136  1  0  0  0
 63137  1  0  0  0
 63138  1  0  0  0
 64139  1  0  0  0
 65140  1  0  0  0
 68 78  1  0  0  0
 71 72  2  0  0  0
 71 74  1  0  0  0
 71141  1  0  0  0
 72 73  1  0  0  0
 72 77  1  0  0  0
 73 75  2  0  0  0
 73 81  1  0  0  0
 74 78  1  0  0  0
 74 79  2  0  0  0
 75 76  1  0  0  0
 75 79  1  0  0  0
 76142  1  0  0  0
 76143  1  0  0  0
 76144  1  0  0  0
 77 80  1  0  0  0
 77145  1  0  0  0
 77146  1  0  0  0
 78147  1  0  0  0
 78148  1  0  0  0
 80149  1  0  0  0
M  ISO  4   1 100  68 101  78 101  80 100
M  END
> <chiral flag>
0

> <version>
0

> <s_m_source_file>
/data/baiqing/PycharmProjects/Reinvent-master-3.2/result/LINK_invent/BTK/process_docking_weight1_custom_sum_contain_oxygen_bond_distance_aromatic_linkinvent_7_9_3/rearranged_h_0032.sdf

> <i_m_source_file_index>
93

> <r_mmod_Potential_Energy-OPLS-2005>
1253.43383789062

> <r_mmod_Stretch_Energy-OPLS-2005>
645.397827148438

> <r_mmod_Bend_Energy-OPLS-2005>
445.377136230469

> <r_mmod_Torsional_Energy-OPLS-2005>
213.052291870117

> <r_mmod_Improper_Torsional_Energy-OPLS-2005>
5.91348600387573

> <r_mmod_Van_der_Waal_Energy-OPLS-2005>
130.902542114258

> <r_mmod_Electrostatic_Energy-OPLS-2005>
-495.392639160156

> <r_mmod_Solvation_Energy-OPLS-2005>
-235.361892700195

> <b_mmod_Minimization_Converged-OPLS-2005>
0

> <r_mmod_RMS_Derivative-OPLS-2005>
3.5211329460144

$$$$
93
                    3D
 Structure written by MMmdl.
168176  0  0  1  0            999 V2000
  -30.6593  -14.5504   20.5447 C   0  0  0  0  0  0
  -30.4326  -12.3503   19.4373 C   0  0  0  0  0  0
  -29.5000  -12.5032   18.2163 C   0  0  0  0  0  0
  -28.0217  -12.3507   18.6280 C   0  0  0  0  0  0
  -27.6547  -13.2098   19.8675 C   0  0  2  0  0  0
  -28.6969  -13.0272   20.9936 C   0  0  0  0  0  0
  -25.2553  -13.8166   20.5667 C   0  0  0  0  0  0
  -24.1816  -13.0438   20.9174 C   0  0  0  0  0  0
  -24.6379  -11.6907   20.8739 C   0  0  0  0  0  0
  -23.9057  -10.4293   21.0410 C   0  0  0  0  0  0
  -24.3616   -9.4207   21.9180 C   0  0  0  0  0  0
  -23.6289   -8.2247   22.0755 C   0  0  0  0  0  0
  -22.4274   -8.0280   21.3545 C   0  0  0  0  0  0
  -21.9910   -9.0254   20.4645 C   0  0  0  0  0  0
  -22.7239  -10.2130   20.3049 C   0  0  0  0  0  0
  -21.6848   -6.0729   22.5276 C   0  0  0  0  0  0
  -21.4011   -6.5634   23.8209 C   0  0  0  0  0  0
  -21.3658   -5.6788   24.9171 C   0  0  0  0  0  0
  -21.6049   -4.3053   24.7226 C   0  0  0  0  0  0
  -21.8819   -3.8141   23.4347 C   0  0  0  0  0  0
  -21.9196   -4.6956   22.3402 C   0  0  0  0  0  0
  -22.7837  -13.5229   21.1847 C   0  0  0  0  0  0
  -22.1659   -4.2144   21.0979 F   0  0  0  0  0  0
  -21.5637   -3.4537   25.7739 F   0  0  0  0  0  0
  -30.0202  -13.3501   20.4355 N   0  0  0  0  0  0
  -26.2984  -12.9337   20.3331 N   0  0  0  0  0  0
  -25.9302  -11.6498   20.5756 N   0  0  0  0  0  0
  -22.0487  -12.8218   22.0407 N   0  0  0  0  0  0
  -25.4275  -15.1888   20.4071 N   0  0  0  0  0  0
  -31.8063  -14.7287   20.1256 O   0  0  0  0  0  0
  -21.6638   -6.8877   21.4240 O   0  0  0  0  0  0
  -22.3519  -14.5534   20.6690 O   0  0  0  0  0  0
  -24.6203  -31.8640   23.2076 C   0  0  0  0  0  0
  -25.9093  -32.4791   23.8376 C   0  0  1  0  0  0
  -27.2298  -27.3886   20.1091 C   0  0  0  0  0  0
  -25.5949  -33.8586   24.2334 N   0  0  0  0  0  0
  -23.4078  -30.4895   21.5502 C   0  0  2  0  0  0
  -24.8497  -28.9441   20.1219 C   0  0  0  0  0  0
  -22.7422  -29.4673   22.5000 C   0  0  0  0  0  0
  -18.0269  -28.1376   22.8492 C   0  0  0  0  0  0
  -24.1472  -36.7252   23.2644 C   0  0  0  0  0  0
  -25.9412  -30.8188   21.3628 C   0  0  0  0  0  0
  -26.0160  -29.4501   20.7085 C   0  0  0  0  0  0
  -27.2102  -28.6871   20.6839 C   0  0  0  0  0  0
  -26.0314  -26.8937   19.5485 C   0  0  0  0  0  0
  -24.8554  -27.6672   19.5369 C   0  0  0  0  0  0
  -23.6159  -29.8195   20.1661 C   0  0  0  0  0  0
  -25.4104  -36.3083   24.0346 C   0  0  1  0  0  0
  -20.5870  -28.3671   23.1311 C   0  0  2  0  0  0
  -20.6770  -26.9410   22.5420 C   0  0  0  0  0  0
  -19.5749  -26.6389   21.5219 C   0  0  0  0  0  0
  -18.1920  -26.7924   22.1617 C   0  0  0  0  0  0
  -19.1521  -28.8838   23.2894 C   0  0  0  0  0  0
  -18.9457  -30.1449   23.8905 C   0  0  0  0  0  0
  -17.6462  -30.6588   24.0572 C   0  0  0  0  0  0
  -25.9043  -34.9451   23.5129 C   0  0  0  0  0  0
  -16.5352  -29.9095   23.6335 C   0  0  0  0  0  0
  -16.7258  -28.6507   23.0358 C   0  0  0  0  0  0
  -26.4505  -31.6577   25.0712 C   0  0  0  0  0  0
  -25.3776  -31.3684   26.1472 C   0  0  0  0  0  0
  -27.0353  -30.3019   24.6097 C   0  0  0  0  0  0
  -27.6072  -32.4311   25.7482 C   0  0  0  0  0  0
  -27.5573  -37.1797   24.8489 C   0  0  0  0  0  0
  -21.4153  -29.3038   22.3715 N   0  0  0  0  0  0
  -26.4274  -37.3789   23.9434 N   0  0  0  0  0  0
  -24.6754  -31.0722   22.0979 N   0  0  0  0  0  0
  -23.4172  -28.8227   23.3068 O   0  0  0  0  0  0
  -28.4147  -26.6620   20.0873 O   0  0  0  0  0  0
  -26.5573  -34.8914   22.4673 O   0  0  0  0  0  0
  -23.5397  -32.1408   23.7458 O   0  0  0  0  0  0
  -28.0272  -25.1073   17.7118 C   0  0  0  0  0  0
  -27.9225  -22.3270   17.6436 C   0  0  0  0  0  0
  -27.7280  -24.4629   16.4980 C   0  0  0  0  0  0
  -27.6435  -23.0566   16.4733 C   0  0  0  0  0  0
  -28.2766  -22.9512   18.8670 C   0  0  0  0  0  0
  -28.2457  -24.3906   18.9128 C   0  0  0  0  0  0
  -27.4742  -25.3000   15.2556 C   0  0  0  0  0  0
  -25.7380  -22.1205   15.0956 C   0  0  0  0  0  0
  -27.2572  -22.2923   15.2150 C   0  0  0  0  0  0
  -28.7056  -22.0493   20.0623 C   0  0  0  0  0  0
  -28.4012  -25.2098   20.2107 C   0  0  0  0  0  0
  -28.7533  -20.4954   19.7792 C   0  0  0  0  0  0
  -29.4686  -19.5371   20.7858 C   0  0  0  0  0  0
  -29.2821  -18.0136   20.4520 C   0  0  0  0  0  0
  -30.2704  -17.0133   21.1400 C   0  0  0  0  0  0
  -29.9008  -15.5812   20.9928 N   0  0  0  0  0  0
  -31.4738  -12.4743   19.1337 H   0  0  0  0  0  0
  -30.3621  -11.3475   19.8608 H   0  0  0  0  0  0
  -29.7558  -11.7655   17.4546 H   0  0  0  0  0  0
  -29.6524  -13.4823   17.7591 H   0  0  0  0  0  0
  -27.8477  -11.2963   18.8446 H   0  0  0  0  0  0
  -27.3694  -12.5987   17.7899 H   0  0  0  0  0  0
  -27.6868  -14.2513   19.5469 H   0  0  0  0  0  0
  -28.6891  -11.9987   21.3570 H   0  0  0  0  0  0
  -28.4507  -13.6452   21.8584 H   0  0  0  0  0  0
  -25.2765   -9.5680   22.4747 H   0  0  0  0  0  0
  -24.0000   -7.4637   22.7466 H   0  0  0  0  0  0
  -21.0848   -8.8762   19.8943 H   0  0  0  0  0  0
  -22.3701  -10.9662   19.6148 H   0  0  0  0  0  0
  -21.1988   -7.6140   23.9711 H   0  0  0  0  0  0
  -21.1484   -6.0516   25.9075 H   0  0  0  0  0  0
  -22.0601   -2.7603   23.2846 H   0  0  0  0  0  0
  -22.4114  -11.9873   22.4784 H   0  0  0  0  0  0
  -21.1096  -13.1220   22.2615 H   0  0  0  0  0  0
  -24.6609  -15.8442   20.5136 H   0  0  0  0  0  0
  -26.2783  -15.6279   20.0793 H   0  0  0  0  0  0
  -26.7170  -32.5490   23.1142 H   0  0  0  0  0  0
  -25.0245  -33.9751   25.0581 H   0  0  0  0  0  0
  -22.7009  -31.3112   21.4124 H   0  0  0  0  0  0
  -23.3757  -35.9565   23.3312 H   0  0  0  0  0  0
  -24.3567  -36.8835   22.2057 H   0  0  0  0  0  0
  -23.7183  -37.6440   23.6641 H   0  0  0  0  0  0
  -26.0643  -31.5840   20.5950 H   0  0  0  0  0  0
  -26.8253  -30.8648   21.9868 H   0  0  0  0  0  0
  -28.1154  -29.0814   21.1244 H   0  0  0  0  0  0
  -25.9848  -25.9083   19.1106 H   0  0  0  0  0  0
  -23.9559  -27.2667   19.0911 H   0  0  0  0  0  0
  -23.7293  -30.5948   19.4072 H   0  0  0  0  0  0
  -22.7365  -29.2456   19.8671 H   0  0  0  0  0  0
  -25.1285  -36.1936   25.0835 H   0  0  0  0  0  0
  -20.9963  -28.3233   24.1431 H   0  0  0  0  0  0
  -20.5689  -26.2287   23.3609 H   0  0  0  0  0  0
  -21.6645  -26.7463   22.1215 H   0  0  0  0  0  0
  -19.6914  -25.6306   21.1232 H   0  0  0  0  0  0
  -19.6678  -27.3220   20.6763 H   0  0  0  0  0  0
  -17.4211  -26.6699   21.3997 H   0  0  0  0  0  0
  -18.0289  -26.0049   22.8986 H   0  0  0  0  0  0
  -19.7939  -30.7260   24.2272 H   0  0  0  0  0  0
  -17.5021  -31.6268   24.5177 H   0  0  0  0  0  0
  -15.5357  -30.3010   23.7652 H   0  0  0  0  0  0
  -15.8653  -28.0831   22.7080 H   0  0  0  0  0  0
  -24.5975  -30.6986   25.7834 H   0  0  0  0  0  0
  -24.8944  -32.2830   26.4917 H   0  0  0  0  0  0
  -25.8154  -30.8888   27.0236 H   0  0  0  0  0  0
  -26.2899  -29.6756   24.1179 H   0  0  0  0  0  0
  -27.4166  -29.7268   25.4549 H   0  0  0  0  0  0
  -27.8712  -30.4349   23.9222 H   0  0  0  0  0  0
  -27.2692  -33.3637   26.2014 H   0  0  0  0  0  0
  -28.3899  -32.6822   25.0312 H   0  0  0  0  0  0
  -28.0704  -31.8450   26.5433 H   0  0  0  0  0  0
  -28.2639  -38.0059   24.7535 H   0  0  0  0  0  0
  -28.1024  -36.2600   24.6321 H   0  0  0  0  0  0
  -27.2290  -37.1433   25.8893 H   0  0  0  0  0  0
  -20.9324  -29.8732   21.6907 H   0  0  0  0  0  0
  -26.0147  -38.2855   24.1452 H   0  0  0  0  0  0
  -28.0463  -26.1873   17.7236 H   0  0  0  0  0  0
  -27.8531  -21.2542   17.5638 H   0  0  0  0  0  0
  -27.5626  -26.3661   15.4672 H   0  0  0  0  0  0
  -26.4713  -25.1206   14.8672 H   0  0  0  0  0  0
  -28.1962  -25.0622   14.4743 H   0  0  0  0  0  0
  -25.4760  -21.5400   14.2111 H   0  0  0  0  0  0
  -25.2321  -23.0829   15.0192 H   0  0  0  0  0  0
  -25.3356  -21.6019   15.9661 H   0  0  0  0  0  0
  -27.7290  -21.3086   15.2358 H   0  0  0  0  0  0
  -27.6570  -22.7836   14.3281 H   0  0  0  0  0  0
  -28.0478  -22.2477   20.9094 H   0  0  0  0  0  0
  -29.7005  -22.3760   20.3668 H   0  0  0  0  0  0
  -29.3520  -24.9283   20.6628 H   0  0  0  0  0  0
  -27.6299  -24.9056   20.9196 H   0  0  0  0  0  0
  -29.2813  -20.3320   18.8395 H   0  0  0  0  0  0
  -27.7315  -20.1445   19.6269 H   0  0  0  0  0  0
  -29.1111  -19.7263   21.7985 H   0  0  0  0  0  0
  -30.5325  -19.7771   20.7946 H   0  0  0  0  0  0
  -29.3651  -17.8802   19.3723 H   0  0  0  0  0  0
  -28.2587  -17.7361   20.7071 H   0  0  0  0  0  0
  -30.3095  -17.2267   22.2088 H   0  0  0  0  0  0
  -31.2794  -17.1896   20.7624 H   0  0  0  0  0  0
  -28.9697  -15.3290   21.2902 H   0  0  0  0  0  0
  1 25  1  0  0  0
  1 30  2  0  0  0
  1 86  1  0  0  0
  2  3  1  0  0  0
  2 25  1  0  0  0
  2 87  1  0  0  0
  2 88  1  0  0  0
  3  4  1  0  0  0
  3 89  1  0  0  0
  3 90  1  0  0  0
  4  5  1  0  0  0
  4 91  1  0  0  0
  4 92  1  0  0  0
  5  6  1  0  0  0
  5 26  1  0  0  0
  5 93  1  0  0  0
  6 25  1  0  0  0
  6 94  1  0  0  0
  6 95  1  0  0  0
  7  8  2  0  0  0
  7 26  1  0  0  0
  7 29  1  0  0  0
  8  9  1  0  0  0
  8 22  1  0  0  0
  9 10  1  0  0  0
  9 27  2  0  0  0
 10 11  2  0  0  0
 10 15  1  0  0  0
 11 12  1  0  0  0
 11 96  1  0  0  0
 12 13  2  0  0  0
 12 97  1  0  0  0
 13 14  1  0  0  0
 13 31  1  0  0  0
 14 15  2  0  0  0
 14 98  1  0  0  0
 15 99  1  0  0  0
 16 17  2  0  0  0
 16 21  1  0  0  0
 16 31  1  0  0  0
 17 18  1  0  0  0
 17100  1  0  0  0
 18 19  2  0  0  0
 18101  1  0  0  0
 19 20  1  0  0  0
 19 24  1  0  0  0
 20 21  2  0  0  0
 20102  1  0  0  0
 21 23  1  0  0  0
 22 28  1  0  0  0
 22 32  2  0  0  0
 26 27  1  0  0  0
 28103  1  0  0  0
 28104  1  0  0  0
 29105  1  0  0  0
 29106  1  0  0  0
 33 34  1  0  0  0
 33 66  1  0  0  0
 33 70  2  0  0  0
 34 36  1  0  0  0
 34 59  1  0  0  0
 34107  1  0  0  0
 35 44  2  0  0  0
 35 45  1  0  0  0
 35 68  1  0  0  0
 36 56  1  0  0  0
 36108  1  0  0  0
 37 39  1  0  0  0
 37 47  1  0  0  0
 37 66  1  0  0  0
 37109  1  0  0  0
 38 43  2  0  0  0
 38 46  1  0  0  0
 38 47  1  0  0  0
 39 64  1  0  0  0
 39 67  2  0  0  0
 40 52  1  0  0  0
 40 53  2  0  0  0
 40 58  1  0  0  0
 41110  1  0  0  0
 41111  1  0  0  0
 41112  1  0  0  0
 41 48  1  0  0  0
 42 43  1  0  0  0
 42 66  1  0  0  0
 42113  1  0  0  0
 42114  1  0  0  0
 43 44  1  0  0  0
 44115  1  0  0  0
 45 46  2  0  0  0
 45116  1  0  0  0
 46117  1  0  0  0
 47118  1  0  0  0
 47119  1  0  0  0
 48 56  1  0  0  0
 48 65  1  0  0  0
 48120  1  0  0  0
 49 50  1  0  0  0
 49 53  1  0  0  0
 49 64  1  0  0  0
 49121  1  0  0  0
 50 51  1  0  0  0
 50122  1  0  0  0
 50123  1  0  0  0
 51 52  1  0  0  0
 51124  1  0  0  0
 51125  1  0  0  0
 52126  1  0  0  0
 52127  1  0  0  0
 53 54  1  0  0  0
 54 55  2  0  0  0
 54128  1  0  0  0
 55 57  1  0  0  0
 55129  1  0  0  0
 56 69  2  0  0  0
 57 58  2  0  0  0
 57130  1  0  0  0
 58131  1  0  0  0
 59 60  1  0  0  0
 59 61  1  0  0  0
 59 62  1  0  0  0
 60132  1  0  0  0
 60133  1  0  0  0
 60134  1  0  0  0
 61135  1  0  0  0
 61136  1  0  0  0
 61137  1  0  0  0
 62138  1  0  0  0
 62139  1  0  0  0
 62140  1  0  0  0
 63 65  1  0  0  0
 63141  1  0  0  0
 63142  1  0  0  0
 63143  1  0  0  0
 64144  1  0  0  0
 65145  1  0  0  0
 68 81  1  0  0  0
 71 73  2  0  0  0
 71 76  1  0  0  0
 71146  1  0  0  0
 72 74  2  0  0  0
 72 75  1  0  0  0
 72147  1  0  0  0
 73 74  1  0  0  0
 73 77  1  0  0  0
 74 79  1  0  0  0
 75 76  2  0  0  0
 75 80  1  0  0  0
 76 81  1  0  0  0
 77148  1  0  0  0
 77149  1  0  0  0
 77150  1  0  0  0
 78 79  1  0  0  0
 78151  1  0  0  0
 78152  1  0  0  0
 78153  1  0  0  0
 79154  1  0  0  0
 79155  1  0  0  0
 80 82  1  0  0  0
 80156  1  0  0  0
 80157  1  0  0  0
 81158  1  0  0  0
 81159  1  0  0  0
 82 83  1  0  0  0
 82160  1  0  0  0
 82161  1  0  0  0
 83 84  1  0  0  0
 83162  1  0  0  0
 83163  1  0  0  0
 84 85  1  0  0  0
 84164  1  0  0  0
 84165  1  0  0  0
 85 86  1  0  0  0
 85166  1  0  0  0
 85167  1  0  0  0
 86168  1  0  0  0
M  ISO  4   1 100  68 101  81 101  86 100
M  END
> <chiral flag>
0

> <version>
0

> <s_m_source_file>
/data/baiqing/PycharmProjects/Reinvent-master-3.2/result/LINK_invent/BTK/process_docking_weight1_custom_sum_contain_oxygen_bond_distance_aromatic_linkinvent_7_9_3/rearranged_h_0032.sdf

> <i_m_source_file_index>
94

> <r_mmod_Potential_Energy-OPLS-2005>
-10.9104671478271

> <r_mmod_Stretch_Energy-OPLS-2005>
54.9869956970215

> <r_mmod_Bend_Energy-OPLS-2005>
116.434928894043

> <r_mmod_Torsional_Energy-OPLS-2005>
212.477935791016

> <r_mmod_Improper_Torsional_Energy-OPLS-2005>
3.57469081878662

> <r_mmod_Van_der_Waal_Energy-OPLS-2005>
152.537322998047

> <r_mmod_Electrostatic_Energy-OPLS-2005>
-375.129180908203

> <r_mmod_Solvation_Energy-OPLS-2005>
-198.38459777832

> <b_mmod_Minimization_Converged-OPLS-2005>
0

> <r_mmod_RMS_Derivative-OPLS-2005>
1.79691803455353

$$$$
94
                    3D
 Structure written by MMmdl.
186195  0  0  1  0            999 V2000
  -30.7008  -14.4702   20.5760 C   0  0  0  0  0  0
  -30.4281  -12.2826   19.4235 C   0  0  0  0  0  0
  -29.5004  -12.5078   18.2111 C   0  0  0  0  0  0
  -28.0194  -12.3718   18.6205 C   0  0  0  0  0  0
  -27.6656  -13.2049   19.8826 C   0  0  2  0  0  0
  -28.6981  -12.9677   21.0072 C   0  0  0  0  0  0
  -25.2596  -13.8161   20.5678 C   0  0  0  0  0  0
  -24.1840  -13.0440   20.9158 C   0  0  0  0  0  0
  -24.6392  -11.6906   20.8725 C   0  0  0  0  0  0
  -23.9061  -10.4293   21.0402 C   0  0  0  0  0  0
  -24.3613   -9.4210   21.9182 C   0  0  0  0  0  0
  -23.6290   -8.2245   22.0752 C   0  0  0  0  0  0
  -22.4273   -8.0282   21.3544 C   0  0  0  0  0  0
  -21.9907   -9.0257   20.4645 C   0  0  0  0  0  0
  -22.7234  -10.2136   20.3054 C   0  0  0  0  0  0
  -21.6853   -6.0738   22.5280 C   0  0  0  0  0  0
  -21.4012   -6.5638   23.8215 C   0  0  0  0  0  0
  -21.3659   -5.6790   24.9175 C   0  0  0  0  0  0
  -21.6045   -4.3055   24.7226 C   0  0  0  0  0  0
  -21.8818   -3.8149   23.4347 C   0  0  0  0  0  0
  -21.9190   -4.6964   22.3402 C   0  0  0  0  0  0
  -22.7866  -13.5240   21.1837 C   0  0  0  0  0  0
  -22.1659   -4.2153   21.0979 F   0  0  0  0  0  0
  -21.5631   -3.4536   25.7739 F   0  0  0  0  0  0
  -30.0365  -13.2394   20.4641 N   0  0  0  0  0  0
  -26.3035  -12.9328   20.3380 N   0  0  0  0  0  0
  -25.9316  -11.6488   20.5754 N   0  0  0  0  0  0
  -22.0509  -12.8230   22.0397 N   0  0  0  0  0  0
  -25.4332  -15.1879   20.4110 N   0  0  0  0  0  0
  -31.7913  -14.7378   20.0664 O   0  0  0  0  0  0
  -21.6635   -6.8883   21.4244 O   0  0  0  0  0  0
  -22.3549  -14.5552   20.6699 O   0  0  0  0  0  0
  -24.6151  -31.8675   23.2086 C   0  0  0  0  0  0
  -25.9044  -32.4813   23.8389 C   0  0  1  0  0  0
  -27.2412  -27.4265   20.0892 C   0  0  0  0  0  0
  -25.5912  -33.8616   24.2321 N   0  0  0  0  0  0
  -23.4033  -30.4893   21.5487 C   0  0  2  0  0  0
  -24.8493  -28.9494   20.1155 C   0  0  0  0  0  0
  -22.7409  -29.4655   22.4985 C   0  0  0  0  0  0
  -18.0274  -28.1373   22.8494 C   0  0  0  0  0  0
  -24.1488  -36.7305   23.2635 C   0  0  0  0  0  0
  -25.9323  -30.8261   21.3650 C   0  0  0  0  0  0
  -26.0069  -29.4580   20.7154 C   0  0  0  0  0  0
  -27.1996  -28.6996   20.7066 C   0  0  0  0  0  0
  -26.0592  -26.9268   19.4952 C   0  0  0  0  0  0
  -24.8695  -27.6814   19.5081 C   0  0  0  0  0  0
  -23.6126  -29.8191   20.1638 C   0  0  0  0  0  0
  -25.4112  -36.3107   24.0332 C   0  0  1  0  0  0
  -20.5862  -28.3661   23.1319 C   0  0  2  0  0  0
  -20.6767  -26.9397   22.5417 C   0  0  0  0  0  0
  -19.5746  -26.6380   21.5213 C   0  0  0  0  0  0
  -18.1922  -26.7921   22.1622 C   0  0  0  0  0  0
  -19.1524  -28.8835   23.2903 C   0  0  0  0  0  0
  -18.9455  -30.1443   23.8910 C   0  0  0  0  0  0
  -17.6459  -30.6584   24.0566 C   0  0  0  0  0  0
  -25.9042  -34.9472   23.5122 C   0  0  0  0  0  0
  -16.5350  -29.9086   23.6331 C   0  0  0  0  0  0
  -16.7264  -28.6502   23.0351 C   0  0  0  0  0  0
  -26.4471  -31.6604   25.0727 C   0  0  0  0  0  0
  -25.3746  -31.3717   26.1485 C   0  0  0  0  0  0
  -27.0290  -30.3048   24.6101 C   0  0  0  0  0  0
  -27.6063  -32.4315   25.7471 C   0  0  0  0  0  0
  -27.5584  -37.1799   24.8458 C   0  0  0  0  0  0
  -21.4136  -29.3032   22.3726 N   0  0  0  0  0  0
  -26.4290  -37.3798   23.9415 N   0  0  0  0  0  0
  -24.6679  -31.0765   22.0990 N   0  0  0  0  0  0
  -23.4175  -28.8211   23.3041 O   0  0  0  0  0  0
  -28.4325  -26.7242   20.1036 O   0  0  0  0  0  0
  -26.5599  -34.8922   22.4683 O   0  0  0  0  0  0
  -23.5347  -32.1440   23.7475 O   0  0  0  0  0  0
  -28.7224  -23.7241   20.8905 C   0  0  0  0  0  0
  -28.3048  -24.2665   19.6275 C   0  0  0  0  0  0
  -29.4950  -21.0661   14.4331 C   0  0  0  0  0  0
  -30.6150  -21.7410   13.8675 C   0  0  0  0  0  0
  -30.0558  -20.1196   15.2514 C   0  0  0  0  0  0
  -28.3796  -22.4046   21.0869 C   0  0  0  0  0  0
  -27.6464  -23.3158   18.8709 C   0  0  0  0  0  0
  -30.6168  -22.8889   12.8999 C   0  0  0  0  0  0
  -29.4246  -19.0969   16.1418 C   0  0  0  0  0  0
  -32.8328  -20.2031   17.1871 C   0  0  0  0  0  0
  -28.0321  -21.3593   14.1922 C   0  0  0  0  0  0
  -28.6579  -25.6699   19.1550 C   0  0  0  0  0  0
  -28.6304  -21.5316   22.2883 C   0  0  0  0  0  0
  -27.1313  -23.3901   17.4634 C   0  0  0  0  0  0
  -27.5024  -22.5161   15.0624 C   0  0  0  0  0  0
  -29.6727  -20.3889   22.1445 C   0  0  0  0  0  0
  -27.7899  -22.3343   16.5615 C   0  0  0  0  0  0
  -29.2739  -19.1811   21.2571 C   0  0  0  0  0  0
  -29.9664  -17.8489   21.6569 C   0  0  0  0  0  0
  -32.4762  -19.5370   15.8511 C   0  0  0  0  0  0
  -29.7823  -16.7154   20.6211 C   0  0  0  0  0  0
  -31.7666  -21.2573   14.3062 N   0  0  0  0  0  0
  -31.4271  -20.2654   15.1565 N   0  0  0  0  0  0
  -29.9127  -15.4006   21.1783 O   0  0  0  0  0  0
  -27.4654  -21.8095   19.7384 S   0  0  0  0  0  0
  -31.4744  -12.3947   19.1332 H   0  0  0  0  0  0
  -30.3268  -11.2631   19.7992 H   0  0  0  0  0  0
  -29.7357  -11.7954   17.4195 H   0  0  0  0  0  0
  -29.6754  -13.4997   17.7908 H   0  0  0  0  0  0
  -27.8257  -11.3152   18.8096 H   0  0  0  0  0  0
  -27.3717  -12.6544   17.7899 H   0  0  0  0  0  0
  -27.7186  -14.2559   19.5985 H   0  0  0  0  0  0
  -28.6547  -11.9331   21.3494 H   0  0  0  0  0  0
  -28.4692  -13.5749   21.8842 H   0  0  0  0  0  0
  -25.2765   -9.5682   22.4750 H   0  0  0  0  0  0
  -24.0002   -7.4636   22.7474 H   0  0  0  0  0  0
  -21.0835   -8.8776   19.8954 H   0  0  0  0  0  0
  -22.3699  -10.9672   19.6157 H   0  0  0  0  0  0
  -21.2005   -7.6145   23.9721 H   0  0  0  0  0  0
  -21.1481   -6.0518   25.9079 H   0  0  0  0  0  0
  -22.0599   -2.7611   23.2845 H   0  0  0  0  0  0
  -22.4118  -11.9879   22.4765 H   0  0  0  0  0  0
  -21.1136  -13.1266   22.2627 H   0  0  0  0  0  0
  -24.6728  -15.8481   20.5298 H   0  0  0  0  0  0
  -26.2984  -15.6271   20.1236 H   0  0  0  0  0  0
  -26.7113  -32.5519   23.1150 H   0  0  0  0  0  0
  -25.0094  -33.9786   25.0487 H   0  0  0  0  0  0
  -22.6921  -31.3056   21.4068 H   0  0  0  0  0  0
  -23.3754  -35.9634   23.3295 H   0  0  0  0  0  0
  -24.3587  -36.8935   22.2051 H   0  0  0  0  0  0
  -23.7236  -37.6505   23.6659 H   0  0  0  0  0  0
  -26.0473  -31.5890   20.5941 H   0  0  0  0  0  0
  -26.8197  -30.8806   21.9839 H   0  0  0  0  0  0
  -28.0950  -29.0914   21.1691 H   0  0  0  0  0  0
  -26.0364  -25.9510   19.0320 H   0  0  0  0  0  0
  -23.9756  -27.2790   19.0514 H   0  0  0  0  0  0
  -23.7245  -30.5932   19.4038 H   0  0  0  0  0  0
  -22.7362  -29.2411   19.8663 H   0  0  0  0  0  0
  -25.1287  -36.1965   25.0825 H   0  0  0  0  0  0
  -20.9955  -28.3225   24.1437 H   0  0  0  0  0  0
  -20.5687  -26.2260   23.3600 H   0  0  0  0  0  0
  -21.6635  -26.7449   22.1201 H   0  0  0  0  0  0
  -19.6912  -25.6295   21.1235 H   0  0  0  0  0  0
  -19.6693  -27.3197   20.6749 H   0  0  0  0  0  0
  -17.4197  -26.6681   21.4014 H   0  0  0  0  0  0
  -18.0316  -26.0052   22.9004 H   0  0  0  0  0  0
  -19.7934  -30.7254   24.2281 H   0  0  0  0  0  0
  -17.5018  -31.6271   24.5158 H   0  0  0  0  0  0
  -15.5353  -30.2996   23.7647 H   0  0  0  0  0  0
  -15.8660  -28.0832   22.7056 H   0  0  0  0  0  0
  -24.5881  -30.7106   25.7824 H   0  0  0  0  0  0
  -24.8974  -32.2875   26.4986 H   0  0  0  0  0  0
  -25.8099  -30.8837   27.0213 H   0  0  0  0  0  0
  -26.2826  -29.6811   24.1168 H   0  0  0  0  0  0
  -27.4077  -29.7287   25.4554 H   0  0  0  0  0  0
  -27.8653  -30.4370   23.9234 H   0  0  0  0  0  0
  -27.2717  -33.3621   26.2064 H   0  0  0  0  0  0
  -28.3858  -32.6867   25.0280 H   0  0  0  0  0  0
  -28.0739  -31.8423   26.5372 H   0  0  0  0  0  0
  -28.2584  -38.0110   24.7544 H   0  0  0  0  0  0
  -28.1098  -36.2650   24.6238 H   0  0  0  0  0  0
  -27.2308  -37.1400   25.8859 H   0  0  0  0  0  0
  -20.9296  -29.8753   21.6948 H   0  0  0  0  0  0
  -26.0173  -38.2870   24.1442 H   0  0  0  0  0  0
  -29.2738  -24.3218   21.6036 H   0  0  0  0  0  0
  -29.8785  -22.7404   12.1122 H   0  0  0  0  0  0
  -31.5872  -23.0139   12.4182 H   0  0  0  0  0  0
  -30.3761  -23.8242   13.4056 H   0  0  0  0  0  0
  -28.3379  -19.1548   16.1134 H   0  0  0  0  0  0
  -29.7344  -19.2395   17.1774 H   0  0  0  0  0  0
  -29.7097  -18.0900   15.8390 H   0  0  0  0  0  0
  -33.6303  -19.6585   17.6924 H   0  0  0  0  0  0
  -31.9725  -20.2323   17.8566 H   0  0  0  0  0  0
  -33.1732  -21.2280   17.0357 H   0  0  0  0  0  0
  -27.4259  -20.4721   14.3768 H   0  0  0  0  0  0
  -27.8567  -21.6029   13.1439 H   0  0  0  0  0  0
  -28.1890  -25.9256   18.2068 H   0  0  0  0  0  0
  -29.7249  -25.6941   18.9331 H   0  0  0  0  0  0
  -27.6823  -21.1050   22.6188 H   0  0  0  0  0  0
  -28.9498  -22.1720   23.1118 H   0  0  0  0  0  0
  -27.2965  -24.3762   17.0344 H   0  0  0  0  0  0
  -26.0501  -23.2463   17.4643 H   0  0  0  0  0  0
  -26.4284  -22.6183   14.9016 H   0  0  0  0  0  0
  -27.9497  -23.4537   14.7288 H   0  0  0  0  0  0
  -29.8547  -20.0102   23.1518 H   0  0  0  0  0  0
  -30.6291  -20.7949   21.8116 H   0  0  0  0  0  0
  -27.4642  -21.3408   16.8714 H   0  0  0  0  0  0
  -28.8685  -22.3667   16.7213 H   0  0  0  0  0  0
  -29.4931  -19.4202   20.2152 H   0  0  0  0  0  0
  -28.1944  -19.0317   21.3090 H   0  0  0  0  0  0
  -29.5605  -17.5265   22.6163 H   0  0  0  0  0  0
  -31.0333  -18.0090   21.8169 H   0  0  0  0  0  0
  -32.1496  -18.5092   16.0136 H   0  0  0  0  0  0
  -33.3572  -19.4815   15.2094 H   0  0  0  0  0  0
  -30.4616  -16.8706   19.7811 H   0  0  0  0  0  0
  -28.7767  -16.7744   20.2035 H   0  0  0  0  0  0
  1 25  1  0  0  0
  1 30  2  0  0  0
  1 94  1  0  0  0
  2  3  1  0  0  0
  2 25  1  0  0  0
  2 96  1  0  0  0
  2 97  1  0  0  0
  3  4  1  0  0  0
  3 98  1  0  0  0
  3 99  1  0  0  0
  4  5  1  0  0  0
  4100  1  0  0  0
  4101  1  0  0  0
  5  6  1  0  0  0
  5 26  1  0  0  0
  5102  1  0  0  0
  6 25  1  0  0  0
  6103  1  0  0  0
  6104  1  0  0  0
  7  8  2  0  0  0
  7 26  1  0  0  0
  7 29  1  0  0  0
  8  9  1  0  0  0
  8 22  1  0  0  0
  9 10  1  0  0  0
  9 27  2  0  0  0
 10 11  2  0  0  0
 10 15  1  0  0  0
 11 12  1  0  0  0
 11105  1  0  0  0
 12 13  2  0  0  0
 12106  1  0  0  0
 13 14  1  0  0  0
 13 31  1  0  0  0
 14 15  2  0  0  0
 14107  1  0  0  0
 15108  1  0  0  0
 16 17  2  0  0  0
 16 21  1  0  0  0
 16 31  1  0  0  0
 17 18  1  0  0  0
 17109  1  0  0  0
 18 19  2  0  0  0
 18110  1  0  0  0
 19 20  1  0  0  0
 19 24  1  0  0  0
 20 21  2  0  0  0
 20111  1  0  0  0
 21 23  1  0  0  0
 22 28  1  0  0  0
 22 32  2  0  0  0
 26 27  1  0  0  0
 28112  1  0  0  0
 28113  1  0  0  0
 29114  1  0  0  0
 29115  1  0  0  0
 33 34  1  0  0  0
 33 66  1  0  0  0
 33 70  2  0  0  0
 34 36  1  0  0  0
 34 59  1  0  0  0
 34116  1  0  0  0
 35 44  2  0  0  0
 35 45  1  0  0  0
 35 68  1  0  0  0
 36 56  1  0  0  0
 36117  1  0  0  0
 37 39  1  0  0  0
 37 47  1  0  0  0
 37 66  1  0  0  0
 37118  1  0  0  0
 38 43  2  0  0  0
 38 46  1  0  0  0
 38 47  1  0  0  0
 39 64  1  0  0  0
 39 67  2  0  0  0
 40 52  1  0  0  0
 40 53  2  0  0  0
 40 58  1  0  0  0
 41119  1  0  0  0
 41120  1  0  0  0
 41121  1  0  0  0
 41 48  1  0  0  0
 42 43  1  0  0  0
 42 66  1  0  0  0
 42122  1  0  0  0
 42123  1  0  0  0
 43 44  1  0  0  0
 44124  1  0  0  0
 45 46  2  0  0  0
 45125  1  0  0  0
 46126  1  0  0  0
 47127  1  0  0  0
 47128  1  0  0  0
 48 56  1  0  0  0
 48 65  1  0  0  0
 48129  1  0  0  0
 49 50  1  0  0  0
 49 53  1  0  0  0
 49 64  1  0  0  0
 49130  1  0  0  0
 50 51  1  0  0  0
 50131  1  0  0  0
 50132  1  0  0  0
 51 52  1  0  0  0
 51133  1  0  0  0
 51134  1  0  0  0
 52135  1  0  0  0
 52136  1  0  0  0
 53 54  1  0  0  0
 54 55  2  0  0  0
 54137  1  0  0  0
 55 57  1  0  0  0
 55138  1  0  0  0
 56 69  2  0  0  0
 57 58  2  0  0  0
 57139  1  0  0  0
 58140  1  0  0  0
 59 60  1  0  0  0
 59 61  1  0  0  0
 59 62  1  0  0  0
 60141  1  0  0  0
 60142  1  0  0  0
 60143  1  0  0  0
 61144  1  0  0  0
 61145  1  0  0  0
 61146  1  0  0  0
 62147  1  0  0  0
 62148  1  0  0  0
 62149  1  0  0  0
 63 65  1  0  0  0
 63150  1  0  0  0
 63151  1  0  0  0
 63152  1  0  0  0
 64153  1  0  0  0
 65154  1  0  0  0
 68 82  1  0  0  0
 71 72  1  0  0  0
 71 76  2  0  0  0
 71155  1  0  0  0
 72 77  2  0  0  0
 72 82  1  0  0  0
 73 74  1  0  0  0
 73 75  2  0  0  0
 73 81  1  0  0  0
 74 78  1  0  0  0
 74 92  2  0  0  0
 75 79  1  0  0  0
 75 93  1  0  0  0
 76 83  1  0  0  0
 76 95  1  0  0  0
 77 84  1  0  0  0
 77 95  1  0  0  0
 78156  1  0  0  0
 78157  1  0  0  0
 78158  1  0  0  0
 79159  1  0  0  0
 79160  1  0  0  0
 79161  1  0  0  0
 80 90  1  0  0  0
 80162  1  0  0  0
 80163  1  0  0  0
 80164  1  0  0  0
 81 85  1  0  0  0
 81165  1  0  0  0
 81166  1  0  0  0
 82167  1  0  0  0
 82168  1  0  0  0
 83 86  1  0  0  0
 83169  1  0  0  0
 83170  1  0  0  0
 84 87  1  0  0  0
 84171  1  0  0  0
 84172  1  0  0  0
 85 87  1  0  0  0
 85173  1  0  0  0
 85174  1  0  0  0
 86 88  1  0  0  0
 86175  1  0  0  0
 86176  1  0  0  0
 87177  1  0  0  0
 87178  1  0  0  0
 88 89  1  0  0  0
 88179  1  0  0  0
 88180  1  0  0  0
 89 91  1  0  0  0
 89181  1  0  0  0
 89182  1  0  0  0
 90 93  1  0  0  0
 90183  1  0  0  0
 90184  1  0  0  0
 91 94  1  0  0  0
 91185  1  0  0  0
 91186  1  0  0  0
 92 93  1  0  0  0
M  ISO  4   1 100  68 101  82 101  94 100
M  END
> <chiral flag>
0

> <version>
0

> <s_m_source_file>
/data/baiqing/PycharmProjects/Reinvent-master-3.2/result/LINK_invent/BTK/process_docking_weight1_custom_sum_contain_oxygen_bond_distance_aromatic_linkinvent_7_9_3/rearranged_h_0032.sdf

> <i_m_source_file_index>
95

> <r_mmod_Potential_Energy-OPLS-2005>
-129.319107055664

> <r_mmod_Stretch_Energy-OPLS-2005>
37.3464088439941

> <r_mmod_Bend_Energy-OPLS-2005>
110.483947753906

> <r_mmod_Torsional_Energy-OPLS-2005>
182.567962646484

> <r_mmod_Improper_Torsional_Energy-OPLS-2005>
4.20132255554199

> <r_mmod_Van_der_Waal_Energy-OPLS-2005>
102.630615234375

> <r_mmod_Electrostatic_Energy-OPLS-2005>
-372.126800537109

> <r_mmod_Solvation_Energy-OPLS-2005>
-206.182601928711

> <b_mmod_Minimization_Converged-OPLS-2005>
0

> <r_mmod_RMS_Derivative-OPLS-2005>
0.878343939781189

$$$$
